ver_1.2
     RDKit          3D

 14 15  0  0  0  0  0  0  0  0999 V2000
   -2.6228   -2.0514   -0.7741 C   0  0  0  0  0  0  0  0  0  0  0  0
   -2.0209   -0.7526   -0.5292 N   0  0  0  0  0  0  0  0  0  0  0  0
   -2.6750    0.4218   -0.5852 C   0  0  0  0  0  0  0  0  0  0  0  0
   -1.8256    1.4230   -0.3072 N   0  0  0  0  0  0  0  0  0  0  0  0
   -0.5959    0.9168   -0.0635 C   0  0  0  0  0  0  0  0  0  0  0  0
   -0.7465   -0.4575   -0.2101 C   0  0  0  0  0  0  0  0  0  0  0  0
    0.3605   -1.2455   -0.0177 C   0  0  0  0  0  0  0  0  0  0  0  0
    0.2345   -2.4862   -0.1477 O   0  0  0  0  0  0  0  0  0  0  0  0
    1.5201   -0.6448    0.2997 N   0  0  0  0  0  0  0  0  0  0  0  0
    1.6466    0.6870    0.4371 C   0  0  0  0  0  0  0  0  0  0  0  0
    2.7362    1.2417    0.7346 O   0  0  0  0  0  0  0  0  0  0  0  0
    0.5873    1.4816    0.2564 N   0  0  0  0  0  0  0  0  0  0  0  0
    0.7113    2.9129    0.4013 C   0  0  0  0  0  0  0  0  0  0  0  0
    2.6902   -1.4467    0.5055 C   0  0  0  0  0  0  0  0  0  0  0  0
  1  2  1  0
  2  3  1  0
  3  4  2  0
  4  5  1  0
  5  6  2  0
  6  7  1  0
  7  8  2  0
  7  9  1  0
  9 10  1  0
 10 11  2  0
 10 12  1  0
 12 13  1  0
  9 14  1  0
  6  2  1  0
 12  5  1  0
M  END
>  <ref_url>  (1) 
https://github.com/matteoferla/Fragment-hit-follow-up-chemistry

>  <submitter_name>  (1) 
Matteo Ferla

>  <submitter_email>  (1) 
matteo.ferla@stats.ox.ac.uk

>  <submitter_institution>  (1) 
Nowehere

>  <generation_date>  (1) 
2023-10-11

>  <method>  (1) 
Fragmenstein-offsite-probes

>  <index>  (1) 
index

>  <∆∆G>  (1) 
∆∆G

>  <comRMSD>  (1) 
comRMSD

>  <N_constrained_atoms>  (1) 
N_constrained_atoms

>  <N_unconstrained_atoms>  (1) 
N_unconstrained_atoms

>  <LE>  (1) 
LE

>  <percent_hybrid>  (1) 
percent_hybrid

>  <largest_ring>  (1) 
largest_ring

>  <N_HA>  (1) 
N_HA

>  <N_rotatable_bonds>  (1) 
N_rotatable_bonds

>  <max_hit_Tanimoto>  (1) 
max_hit_Tanimoto

>  <N_interactions_kept>  (1) 
N_interactions_kept

>  <N_interactions_lost>  (1) 
N_interactions_lost

>  <interaction_uniqueness_metric>  (1) 
interaction_uniqueness_metric

>  <N_interactions>  (1) 
N_interactions

>  <N_PAINS>  (1) 
N_PAINS

>  <UFF_Gibbs>  (1) 
UFF_Gibbs

>  <strain_per_HA>  (1) 
strain_per_HA

>  <ad_hoc_penalty>  (1) 
ad_hoc_penalty

>  <cluster>  (1) 
cluster

>  <intxn_cluster>  (1) 
intxn_cluster

>  <keep>  (1) 
keep

>  <hydroph_interaction:GLN:74>  (1) 
hydroph_interaction:GLN:74

>  <hydroph_interaction:THR:118>  (1) 
hydroph_interaction:THR:118

>  <hydroph_interaction:ILE:123>  (1) 
hydroph_interaction:ILE:123

>  <hydroph_interaction:THR:166>  (1) 
hydroph_interaction:THR:166

>  <hbond:GLN:167>  (1) 
hbond:GLN:167

>  <hydroph_interaction:ALA:88>  (1) 
hydroph_interaction:ALA:88

>  <hydroph_interaction:ASP:120>  (1) 
hydroph_interaction:ASP:120

>  <hydroph_interaction:GLN:167>  (1) 
hydroph_interaction:GLN:167

>  <hbond:THR:118>  (1) 
hbond:THR:118

>  <hydroph_interaction:ALA:164>  (1) 
hydroph_interaction:ALA:164

>  <hbond:ASP:120>  (1) 
hbond:ASP:120

>  <hbond:THR:166>  (1) 
hbond:THR:166

>  <hydroph_interaction:LEU:76>  (1) 
hydroph_interaction:LEU:76

>  <hbond:ILE:165>  (1) 
hbond:ILE:165

>  <halogenbond:GLN:74>  (1) 
halogenbond:GLN:74

>  <hbond:GLN:74>  (1) 
hbond:GLN:74

>  <hbond:LYS:73>  (1) 
hbond:LYS:73

>  <pistack:TRP:69>  (1) 
pistack:TRP:69

>  <hbond:TRP:83>  (1) 
hbond:TRP:83

>  <hydroph_interaction:TRP:83>  (1) 
hydroph_interaction:TRP:83

>  <hydroph_interaction:TRP:69>  (1) 
hydroph_interaction:TRP:69

>  <pication:TRP:69>  (1) 
pication:TRP:69

>  <hydroph_interaction:PRO:82>  (1) 
hydroph_interaction:PRO:82

>  <halogenbond:LYS:73>  (1) 
halogenbond:LYS:73

>  <hydroph_interaction:TYR:68>  (1) 
hydroph_interaction:TYR:68

>  <halogenbond:GLN:167>  (1) 
halogenbond:GLN:167

>  <hydroph_interaction:PHE:116>  (1) 
hydroph_interaction:PHE:116

>  <hbond:TYR:68>  (1) 
hbond:TYR:68

>  <hbond:ASP:122>  (1) 
hbond:ASP:122

>  <pistack:PHE:116>  (1) 
pistack:PHE:116

>  <hydroph_interaction:VAL:154>  (1) 
hydroph_interaction:VAL:154

>  <hydroph_interaction:ASP:75>  (1) 
hydroph_interaction:ASP:75

>  <hbond:GLY:121>  (1) 
hbond:GLY:121

>  <hydroph_interaction:ASN:152>  (1) 
hydroph_interaction:ASN:152

>  <halogenbond:ILE:165>  (1) 
halogenbond:ILE:165

$$$$
Z1209702068-Z198195906S4-x0884S4
     RDKit          3D

 36 37  0  0  0  0  0  0  0  0999 V2000
  -13.1450   -9.7460   -6.7010 C   0  0  0  0  0  0  0  0  0  0  0  0
  -12.0120  -10.3150   -7.5440 C   0  0  0  0  0  0  0  0  0  0  0  0
  -12.0920  -11.8150   -7.8330 C   0  0  0  0  0  0  0  0  0  0  0  0
  -10.9610  -12.3150   -8.6550 C   0  0  0  0  0  0  0  0  0  0  0  0
   -9.9410  -11.5270   -9.1180 C   0  0  0  0  0  0  0  0  0  0  0  0
   -9.9320  -10.1570   -8.8160 C   0  0  0  0  0  0  0  0  0  0  0  0
  -10.9430   -9.5330   -8.0390 C   0  0  0  0  0  0  0  0  0  0  0  0
  -10.8930   -8.1610   -7.7550 C   0  0  0  0  0  0  0  0  0  0  0  0
  -10.2410   -7.3980   -8.7890 N   0  0  0  0  0  0  0  0  0  0  0  0
  -10.8210   -6.2330   -9.2320 C   0  0  0  0  0  0  0  0  0  0  0  0
  -12.0270   -6.0610   -9.3840 O   0  0  0  0  0  0  0  0  0  0  0  0
   -9.8680   -5.2710   -9.4970 N   0  0  0  0  0  0  0  0  0  0  0  0
   -9.2590   -5.3970  -10.7610 N   0  0  0  0  0  0  0  0  0  0  0  0
   -7.8550   -5.2320  -10.7730 C   0  0  0  0  0  0  0  0  0  0  0  0
   -7.2910   -3.9540  -10.9700 C   0  0  0  0  0  0  0  0  0  0  0  0
   -5.7790   -3.8940  -10.9650 C   0  0  0  0  0  0  0  0  0  0  0  0
   -4.9760   -5.1630  -10.7580 C   0  0  0  0  0  0  0  0  0  0  0  0
   -5.6700   -6.3420  -10.5780 C   0  0  0  0  0  0  0  0  0  0  0  0
   -7.0630   -6.3850  -10.5840 C   0  0  0  0  0  0  0  0  0  0  0  0
  -13.9760  -10.4530   -6.6200 H   0  0  0  0  0  0  0  0  0  0  0  0
  -12.7900   -9.5390   -5.6890 H   0  0  0  0  0  0  0  0  0  0  0  0
  -13.5240   -8.8120   -7.1260 H   0  0  0  0  0  0  0  0  0  0  0  0
  -12.8870  -12.4650   -7.4810 H   0  0  0  0  0  0  0  0  0  0  0  0
  -10.9410  -13.3730   -8.9050 H   0  0  0  0  0  0  0  0  0  0  0  0
   -9.1420  -11.9650   -9.7170 H   0  0  0  0  0  0  0  0  0  0  0  0
   -9.1180   -9.5520   -9.1960 H   0  0  0  0  0  0  0  0  0  0  0  0
  -10.3760   -7.9750   -6.8060 H   0  0  0  0  0  0  0  0  0  0  0  0
  -11.9080   -7.7670   -7.6250 H   0  0  0  0  0  0  0  0  0  0  0  0
   -9.7770   -7.9360   -9.5060 H   0  0  0  0  0  0  0  0  0  0  0  0
   -9.2040   -5.1050   -8.7460 H   0  0  0  0  0  0  0  0  0  0  0  0
   -9.6950   -4.7310  -11.4150 H   0  0  0  0  0  0  0  0  0  0  0  0
   -7.9730   -3.1310  -11.1090 H   0  0  0  0  0  0  0  0  0  0  0  0
   -5.3020   -2.9210  -11.1160 H   0  0  0  0  0  0  0  0  0  0  0  0
   -3.8800   -5.1810  -10.7480 H   0  0  0  0  0  0  0  0  0  0  0  0
   -5.0400   -7.2260  -10.4350 H   0  0  0  0  0  0  0  0  0  0  0  0
   -7.5450   -7.3490  -10.4390 H   0  0  0  0  0  0  0  0  0  0  0  0
  1  2  1  0
  2  3  2  0
  3  4  1  0
  4  5  2  0
  5  6  1  0
  6  7  2  0
  7  8  1  0
  8  9  1  0
  9 10  1  0
 10 11  2  0
 10 12  1  0
 12 13  1  0
 13 14  1  0
 14 15  2  0
 15 16  1  0
 16 17  2  0
 17 18  1  0
 18 19  2  0
  7  2  1  0
 19 14  1  0
  1 20  1  0
  1 21  1  0
  1 22  1  0
  3 23  1  0
  4 24  1  0
  5 25  1  0
  6 26  1  0
  8 27  1  0
  8 28  1  0
  9 29  1  0
 12 30  1  0
 13 31  1  0
 15 32  1  0
 16 33  1  0
 17 34  1  0
 18 35  1  0
 19 36  1  0
A    1
 C1 
A    2
 C2 
A    3
 C3 
A    4
 C4 
A    5
 C5 
A    6
 C6 
A    7
 C7 
A    8
 C8 
A    9
 N1 
A   10
 C9 
A   11
 O1 
A   12
 N2 
A   13
 N3 
A   14
 C10
A   15
 C11
A   16
 C12
A   17
 C13
A   18
 C14
A   19
 C15
A   20
 H1 
A   21
 H2 
A   22
 H3 
A   23
 H4 
A   24
 H5 
A   25
 H6 
A   26
 H7 
A   27
 H8 
A   28
 H9 
A   29
 H10
A   30
 H11
A   31
 H12
A   32
 H13
A   33
 H14
A   34
 H15
A   35
 H16
A   36
 H17
M  END
>  <ref_pdb>  (1) 
x0051_0B

>  <ref_mols>  (1) 
x0051_0B

>  <original SMILES>  (1) 
[H]c1c([H])c([H])c(N([H])N([H])C(=O)N([H])C([H])([H])c2c([H])c([H])c([H])c([H])c2C([H])([H])[H])c([H])c1[H]

>  <index>  (1) 
2428.0

>  <∆∆G>  (1) 
-8.14583

>  <comRMSD>  (1) 
0.837704

>  <N_constrained_atoms>  (1) 
14.0

>  <N_unconstrained_atoms>  (1) 
7.0

>  <LE>  (1) 
0.387897

>  <percent_hybrid>  (1) 
16.0

>  <largest_ring>  (1) 
6.0

>  <N_HA>  (1) 
19.0

>  <N_rotatable_bonds>  (1) 
5.0

>  <max_hit_Tanimoto>  (1) 
0.59164

>  <N_interactions_kept>  (1) 
0.5

>  <N_interactions_lost>  (1) 
1.0

>  <interaction_uniqueness_metric>  (1) 
1.058479

>  <N_interactions>  (1) 
7.0

>  <N_PAINS>  (1) 
0.0

>  <UFF_Gibbs>  (1) 
111.441076

>  <strain_per_HA>  (1) 
5.865289

>  <ad_hoc_penalty>  (1) 
-55.49871

>  <cluster>  (1) 
5200.0

>  <intxn_cluster>  (1) 
13.0

>  <keep>  (1) 
1.0

>  <hydroph_interaction:GLN:74>  (1) 
0.0

>  <hydroph_interaction:THR:118>  (1) 
1.0

>  <hydroph_interaction:ILE:123>  (1) 
2.0

>  <hydroph_interaction:THR:166>  (1) 
0.0

>  <hbond:GLN:167>  (1) 
0.0

>  <hydroph_interaction:ALA:88>  (1) 
0.0

>  <hydroph_interaction:ASP:120>  (1) 
0.0

>  <hydroph_interaction:GLN:167>  (1) 
0.0

>  <hbond:THR:118>  (1) 
0.0

>  <hydroph_interaction:ALA:164>  (1) 
1.0

>  <hbond:ASP:120>  (1) 
0.0

>  <hbond:THR:166>  (1) 
0.0

>  <hydroph_interaction:LEU:76>  (1) 
0.0

>  <hbond:ILE:165>  (1) 
0.0

>  <halogenbond:GLN:74>  (1) 
0.0

>  <hbond:GLN:74>  (1) 
0.0

>  <hbond:LYS:73>  (1) 
0.0

>  <pistack:TRP:69>  (1) 
0.0

>  <hbond:TRP:83>  (1) 
0.0

>  <hydroph_interaction:TRP:83>  (1) 
0.0

>  <hydroph_interaction:TRP:69>  (1) 
0.0

>  <pication:TRP:69>  (1) 
0.0

>  <hydroph_interaction:PRO:82>  (1) 
0.0

>  <halogenbond:LYS:73>  (1) 
0.0

>  <hydroph_interaction:TYR:68>  (1) 
0.0

>  <halogenbond:GLN:167>  (1) 
0.0

>  <hydroph_interaction:PHE:116>  (1) 
1.0

>  <hbond:TYR:68>  (1) 
0.0

>  <hbond:ASP:122>  (1) 
0.0

>  <pistack:PHE:116>  (1) 
1.0

>  <hydroph_interaction:VAL:154>  (1) 
1.0

>  <hydroph_interaction:ASP:75>  (1) 
0.0

>  <hbond:GLY:121>  (1) 
0.0

>  <hydroph_interaction:ASN:152>  (1) 
0.0

>  <halogenbond:ILE:165>  (1) 
0.0

$$$$
Z2444712578-x0944S1-x0130S3
     RDKit          3D

 32 33  0  0  0  0  0  0  0  0999 V2000
  -27.4450   -3.9550   -1.8110 C   0  0  0  0  0  0  0  0  0  0  0  0
  -26.6800   -5.0860   -1.1980 C   0  0  0  0  0  0  0  0  0  0  0  0
  -27.7610   -6.0050   -0.6530 C   0  0  0  0  0  0  0  0  0  0  0  0
  -27.2440   -7.3420   -0.3220 N   0  0  0  0  0  0  0  0  0  0  0  0
  -25.8790   -7.2880   -0.3850 C   0  0  0  0  0  0  0  0  0  0  0  0
  -25.3800   -6.8570   -1.7650 C   0  0  0  0  0  0  0  0  0  0  0  0
  -25.8330   -5.6220   -2.1390 N   0  0  0  0  0  0  0  0  0  0  0  0
  -26.3770   -5.5960   -3.5070 C   0  0  0  0  0  0  0  0  0  0  0  0
  -25.6240   -6.4210   -4.4950 C   0  0  0  0  0  0  0  0  0  0  0  0
  -26.2840   -7.4440   -5.1710 C   0  0  0  0  0  0  0  0  0  0  0  0
  -25.6100   -8.2410   -6.1130 C   0  0  0  0  0  0  0  0  0  0  0  0
  -24.2610   -8.0270   -6.4010 C   0  0  0  0  0  0  0  0  0  0  0  0
  -23.6430   -8.7990   -7.3050 F   0  0  0  0  0  0  0  0  0  0  0  0
  -23.5850   -7.0020   -5.7330 C   0  0  0  0  0  0  0  0  0  0  0  0
  -21.7690   -6.6540   -6.0890 Br  0  0  0  0  0  0  0  0  0  0  0  0
  -24.2610   -6.2310   -4.8050 C   0  0  0  0  0  0  0  0  0  0  0  0
  -27.0570   -3.6720   -2.7930 H   0  0  0  0  0  0  0  0  0  0  0  0
  -27.4440   -3.0900   -1.1460 H   0  0  0  0  0  0  0  0  0  0  0  0
  -28.4730   -4.2660   -1.9280 H   0  0  0  0  0  0  0  0  0  0  0  0
  -26.1220   -4.6760   -0.3500 H   0  0  0  0  0  0  0  0  0  0  0  0
  -28.5640   -6.1220   -1.3890 H   0  0  0  0  0  0  0  0  0  0  0  0
  -28.2080   -5.5600    0.2420 H   0  0  0  0  0  0  0  0  0  0  0  0
  -27.5450   -7.9680   -1.0700 H   0  0  0  0  0  0  0  0  0  0  0  0
  -25.3320   -6.7070    0.3490 H   0  0  0  0  0  0  0  0  0  0  0  0
  -25.5550   -8.3240   -0.2330 H   0  0  0  0  0  0  0  0  0  0  0  0
  -25.6750   -7.6040   -2.5090 H   0  0  0  0  0  0  0  0  0  0  0  0
  -24.2840   -6.8610   -1.7910 H   0  0  0  0  0  0  0  0  0  0  0  0
  -26.3850   -4.5550   -3.8450 H   0  0  0  0  0  0  0  0  0  0  0  0
  -27.4220   -5.9190   -3.4960 H   0  0  0  0  0  0  0  0  0  0  0  0
  -27.3360   -7.6270   -4.9670 H   0  0  0  0  0  0  0  0  0  0  0  0
  -26.1480   -9.0320   -6.6250 H   0  0  0  0  0  0  0  0  0  0  0  0
  -23.6470   -5.4810   -4.3520 H   0  0  0  0  0  0  0  0  0  0  0  0
  1  2  1  0
  2  3  1  0
  3  4  1  0
  4  5  1  0
  5  6  1  0
  6  7  1  0
  7  8  1  0
  8  9  1  0
  9 10  2  0
 10 11  1  0
 11 12  2  0
 12 13  1  0
 12 14  1  0
 14 15  1  0
 14 16  2  0
  7  2  1  0
 16  9  1  0
  1 17  1  0
  1 18  1  0
  1 19  1  0
  2 20  1  0
  3 21  1  0
  3 22  1  0
  4 23  1  0
  5 24  1  0
  5 25  1  0
  6 26  1  0
  6 27  1  0
  8 28  1  0
  8 29  1  0
 10 30  1  0
 11 31  1  0
 16 32  1  0
A    1
 C1 
A    2
 C2 
A    3
 C3 
A    4
 N1 
A    5
 C4 
A    6
 C5 
A    7
 N2 
A    8
 C6 
A    9
 C7 
A   10
 C8 
A   11
 C9 
A   12
 C10
A   13
 F1 
A   14
 C11
A   15
BR1 
A   16
 C12
A   17
 H1 
A   18
 H2 
A   19
 H3 
A   20
 H4 
A   21
 H5 
A   22
 H6 
A   23
 H7 
A   24
 H8 
A   25
 H9 
A   26
 H10
A   27
 H11
A   28
 H12
A   29
 H13
A   30
 H14
A   31
 H15
A   32
 H16
M  END
>  <ref_pdb>  (2) 
x0051_0B

>  <ref_mols>  (2) 
x0051_0B

>  <original SMILES>  (2) 
[H]c1c([H])c(C([H])([H])N2C([H])([H])C([H])([H])N([H])C([H])([H])C2([H])C([H])([H])[H])c([H])c(Br)c1F

>  <index>  (2) 
7047.0

>  <∆∆G>  (2) 
-4.028487

>  <comRMSD>  (2) 
0.461116

>  <N_constrained_atoms>  (2) 
14.0

>  <N_unconstrained_atoms>  (2) 
2.0

>  <LE>  (2) 
0.25178

>  <percent_hybrid>  (2) 
43.0

>  <largest_ring>  (2) 
6.0

>  <N_HA>  (2) 
16.0

>  <N_rotatable_bonds>  (2) 
3.0

>  <max_hit_Tanimoto>  (2) 
0.097938

>  <N_interactions_kept>  (2) 
1.0

>  <N_interactions_lost>  (2) 
0.5

>  <interaction_uniqueness_metric>  (2) 
0.696733

>  <N_interactions>  (2) 
7.0

>  <N_PAINS>  (2) 
0.0

>  <UFF_Gibbs>  (2) 
166.468809

>  <strain_per_HA>  (2) 
10.404236

>  <ad_hoc_penalty>  (2) 
-48.918057

>  <cluster>  (2) 
108.0

>  <intxn_cluster>  (2) 
0.0

>  <keep>  (2) 
1.0

>  <hydroph_interaction:GLN:74>  (2) 
0.0

>  <hydroph_interaction:THR:118>  (2) 
0.0

>  <hydroph_interaction:ILE:123>  (2) 
0.0

>  <hydroph_interaction:THR:166>  (2) 
0.0

>  <hbond:GLN:167>  (2) 
0.0

>  <hydroph_interaction:ALA:88>  (2) 
0.0

>  <hydroph_interaction:ASP:120>  (2) 
0.0

>  <hydroph_interaction:GLN:167>  (2) 
0.0

>  <hbond:THR:118>  (2) 
0.0

>  <hydroph_interaction:ALA:164>  (2) 
0.0

>  <hbond:ASP:120>  (2) 
0.0

>  <hbond:THR:166>  (2) 
0.0

>  <hydroph_interaction:LEU:76>  (2) 
0.0

>  <hbond:ILE:165>  (2) 
0.0

>  <halogenbond:GLN:74>  (2) 
1.0

>  <hbond:GLN:74>  (2) 
0.0

>  <hbond:LYS:73>  (2) 
0.0

>  <pistack:TRP:69>  (2) 
0.0

>  <hbond:TRP:83>  (2) 
0.0

>  <hydroph_interaction:TRP:83>  (2) 
1.0

>  <hydroph_interaction:TRP:69>  (2) 
1.0

>  <pication:TRP:69>  (2) 
2.0

>  <hydroph_interaction:PRO:82>  (2) 
1.0

>  <halogenbond:LYS:73>  (2) 
0.0

>  <hydroph_interaction:TYR:68>  (2) 
1.0

>  <halogenbond:GLN:167>  (2) 
0.0

>  <hydroph_interaction:PHE:116>  (2) 
0.0

>  <hbond:TYR:68>  (2) 
0.0

>  <hbond:ASP:122>  (2) 
0.0

>  <pistack:PHE:116>  (2) 
0.0

>  <hydroph_interaction:VAL:154>  (2) 
0.0

>  <hydroph_interaction:ASP:75>  (2) 
0.0

>  <hbond:GLY:121>  (2) 
0.0

>  <hydroph_interaction:ASN:152>  (2) 
0.0

>  <halogenbond:ILE:165>  (2) 
0.0

$$$$
Z2444734753-x0944S1-x0944S3
     RDKit          3D

 32 33  0  0  0  0  0  0  0  0999 V2000
  -27.1010   -4.0610   -1.9440 C   0  0  0  0  0  0  0  0  0  0  0  0
  -27.4200   -5.5060   -1.8540 C   0  0  2  0  0  0  0  0  0  0  0  0
  -27.7290   -5.8430   -0.4580 C   0  0  0  0  0  0  0  0  0  0  0  0
  -27.4370   -7.0710   -0.0430 N   0  0  0  0  0  0  0  0  0  0  0  0
  -26.0110   -7.3500   -0.2480 C   0  0  0  0  0  0  0  0  0  0  0  0
  -25.4390   -6.7300   -1.3840 C   0  0  0  0  0  0  0  0  0  0  0  0
  -26.3720   -6.3530   -2.4680 N   0  0  0  0  0  0  0  0  0  0  0  0
  -25.6270   -5.6550   -3.5300 C   0  0  0  0  0  0  0  0  0  0  0  0
  -25.0500   -6.5480   -4.6230 C   0  0  0  0  0  0  0  0  0  0  0  0
  -23.5570   -6.3790   -4.8410 C   0  0  0  0  0  0  0  0  0  0  0  0
  -22.9580   -7.2430   -5.9280 C   0  0  0  0  0  0  0  0  0  0  0  0
  -23.7780   -8.1080   -6.6250 C   0  0  0  0  0  0  0  0  0  0  0  0
  -25.1410   -8.2230   -6.3710 C   0  0  0  0  0  0  0  0  0  0  0  0
  -25.8490   -9.0930   -7.0940 F   0  0  0  0  0  0  0  0  0  0  0  0
  -25.7810   -7.4590   -5.3890 C   0  0  0  0  0  0  0  0  0  0  0  0
  -26.0610   -3.9280   -1.6650 H   0  0  0  0  0  0  0  0  0  0  0  0
  -27.7090   -3.4690   -1.2580 H   0  0  0  0  0  0  0  0  0  0  0  0
  -27.2430   -3.6770   -2.9590 H   0  0  0  0  0  0  0  0  0  0  0  0
  -28.3090   -5.7180   -2.4490 H   0  0  0  0  0  0  0  0  0  0  0  0
  -28.7980   -5.6950   -0.2710 H   0  0  0  0  0  0  0  0  0  0  0  0
  -27.2020   -5.1270    0.1820 H   0  0  0  0  0  0  0  0  0  0  0  0
  -28.0070   -7.7490   -0.5430 H   0  0  0  0  0  0  0  0  0  0  0  0
  -25.8700   -8.4320   -0.3290 H   0  0  0  0  0  0  0  0  0  0  0  0
  -25.4610   -7.0300    0.6470 H   0  0  0  0  0  0  0  0  0  0  0  0
  -24.9490   -5.8070   -1.0440 H   0  0  0  0  0  0  0  0  0  0  0  0
  -24.6190   -7.3510   -1.7700 H   0  0  0  0  0  0  0  0  0  0  0  0
  -26.1960   -4.8310   -3.9730 H   0  0  0  0  0  0  0  0  0  0  0  0
  -24.7410   -5.1960   -3.0940 H   0  0  0  0  0  0  0  0  0  0  0  0
  -22.9520   -5.7100   -4.2830 H   0  0  0  0  0  0  0  0  0  0  0  0
  -21.8950   -7.1840   -6.1550 H   0  0  0  0  0  0  0  0  0  0  0  0
  -23.4360   -8.7720   -7.4260 H   0  0  0  0  0  0  0  0  0  0  0  0
  -26.8510   -7.5840   -5.2350 H   0  0  0  0  0  0  0  0  0  0  0  0
  1  2  1  0
  2  3  1  0
  3  4  1  0
  4  5  1  0
  5  6  1  0
  6  7  1  0
  7  8  1  0
  8  9  1  0
  9 10  2  0
 10 11  1  0
 11 12  2  0
 12 13  1  0
 13 14  1  0
 13 15  2  0
  7  2  1  0
 15  9  1  0
  1 16  1  0
  1 17  1  0
  1 18  1  0
  2 19  1  6
  3 20  1  0
  3 21  1  0
  4 22  1  0
  5 23  1  0
  5 24  1  0
  6 25  1  0
  6 26  1  0
  8 27  1  0
  8 28  1  0
 10 29  1  0
 11 30  1  0
 12 31  1  0
 15 32  1  0
A    1
 C1 
A    2
 C2 
A    3
 C3 
A    4
 N1 
A    5
 C4 
A    6
 C5 
A    7
 N2 
A    8
 C6 
A    9
 C7 
A   10
 C8 
A   11
 C9 
A   12
 C10
A   13
 C11
A   14
 F1 
A   15
 C12
A   16
 H1 
A   17
 H2 
A   18
 H3 
A   19
 H4 
A   20
 H5 
A   21
 H6 
A   22
 H7 
A   23
 H8 
A   24
 H9 
A   25
 H10
A   26
 H11
A   27
 H12
A   28
 H13
A   29
 H14
A   30
 H15
A   31
 H16
A   32
 H17
M  END
>  <ref_pdb>  (3) 
x0051_0B

>  <ref_mols>  (3) 
x0051_0B

>  <original SMILES>  (3) 
[H]c1c([H])c(F)c([H])c(C([H])([H])N2C([H])([H])C([H])([H])N([H])C([H])([H])[C@@]2([H])C([H])([H])[H])c1[H]

>  <index>  (3) 
4636.0

>  <∆∆G>  (3) 
-3.8354

>  <comRMSD>  (3) 
0.626069

>  <N_constrained_atoms>  (3) 
13.0

>  <N_unconstrained_atoms>  (3) 
2.0

>  <LE>  (3) 
0.255693

>  <percent_hybrid>  (3) 
47.0

>  <largest_ring>  (3) 
6.0

>  <N_HA>  (3) 
15.0

>  <N_rotatable_bonds>  (3) 
3.0

>  <max_hit_Tanimoto>  (3) 
0.129252

>  <N_interactions_kept>  (3) 
1.0

>  <N_interactions_lost>  (3) 
0.5

>  <interaction_uniqueness_metric>  (3) 
0.62634

>  <N_interactions>  (3) 
7.0

>  <N_PAINS>  (3) 
0.0

>  <UFF_Gibbs>  (3) 
72.852395

>  <strain_per_HA>  (3) 
4.856794

>  <ad_hoc_penalty>  (3) 
-46.762248

>  <cluster>  (3) 
685.0

>  <intxn_cluster>  (3) 
0.0

>  <keep>  (3) 
1.0

>  <hydroph_interaction:GLN:74>  (3) 
0.0

>  <hydroph_interaction:THR:118>  (3) 
0.0

>  <hydroph_interaction:ILE:123>  (3) 
0.0

>  <hydroph_interaction:THR:166>  (3) 
0.0

>  <hbond:GLN:167>  (3) 
0.0

>  <hydroph_interaction:ALA:88>  (3) 
0.0

>  <hydroph_interaction:ASP:120>  (3) 
0.0

>  <hydroph_interaction:GLN:167>  (3) 
0.0

>  <hbond:THR:118>  (3) 
0.0

>  <hydroph_interaction:ALA:164>  (3) 
0.0

>  <hbond:ASP:120>  (3) 
0.0

>  <hbond:THR:166>  (3) 
0.0

>  <hydroph_interaction:LEU:76>  (3) 
0.0

>  <hbond:ILE:165>  (3) 
0.0

>  <halogenbond:GLN:74>  (3) 
0.0

>  <hbond:GLN:74>  (3) 
0.0

>  <hbond:LYS:73>  (3) 
0.0

>  <pistack:TRP:69>  (3) 
0.0

>  <hbond:TRP:83>  (3) 
0.0

>  <hydroph_interaction:TRP:83>  (3) 
1.0

>  <hydroph_interaction:TRP:69>  (3) 
2.0

>  <pication:TRP:69>  (3) 
2.0

>  <hydroph_interaction:PRO:82>  (3) 
1.0

>  <halogenbond:LYS:73>  (3) 
0.0

>  <hydroph_interaction:TYR:68>  (3) 
1.0

>  <halogenbond:GLN:167>  (3) 
0.0

>  <hydroph_interaction:PHE:116>  (3) 
0.0

>  <hbond:TYR:68>  (3) 
0.0

>  <hbond:ASP:122>  (3) 
0.0

>  <pistack:PHE:116>  (3) 
0.0

>  <hydroph_interaction:VAL:154>  (3) 
0.0

>  <hydroph_interaction:ASP:75>  (3) 
0.0

>  <hbond:GLY:121>  (3) 
0.0

>  <hydroph_interaction:ASN:152>  (3) 
0.0

>  <halogenbond:ILE:165>  (3) 
0.0

$$$$
Z4562665581-x0944-x0130S3
     RDKit          3D

 35 36  0  0  0  0  0  0  0  0999 V2000
  -26.2480   -4.5690   -3.8810 C   0  0  0  0  0  0  0  0  0  0  0  0
  -26.1740   -5.9590   -3.3910 C   0  0  0  0  0  0  0  0  0  0  0  0
  -25.3970   -6.7150   -4.4660 C   0  0  0  0  0  0  0  0  0  0  0  0
  -24.0650   -6.4070   -4.7490 C   0  0  0  0  0  0  0  0  0  0  0  0
  -23.3160   -7.0490   -5.7270 C   0  0  0  0  0  0  0  0  0  0  0  0
  -22.0390   -6.7370   -5.9910 F   0  0  0  0  0  0  0  0  0  0  0  0
  -24.0330   -8.0580   -6.4120 C   0  0  0  0  0  0  0  0  0  0  0  0
  -23.3960   -8.7370   -7.3720 F   0  0  0  0  0  0  0  0  0  0  0  0
  -25.3420   -8.3960   -6.1660 C   0  0  0  0  0  0  0  0  0  0  0  0
  -25.9300   -9.3650   -6.8710 F   0  0  0  0  0  0  0  0  0  0  0  0
  -26.0440   -7.7230   -5.1840 C   0  0  0  0  0  0  0  0  0  0  0  0
  -25.6640   -5.9280   -2.0050 N   0  0  0  0  0  0  0  0  0  0  0  0
  -25.3050   -7.2510   -1.4820 C   0  0  0  0  0  0  0  0  0  0  0  0
  -26.1050   -7.6640   -0.2170 C   0  0  0  0  0  0  0  0  0  0  0  0
  -27.5680   -7.5560   -0.3350 N   0  0  0  0  0  0  0  0  0  0  0  0
  -27.9420   -6.1760   -0.8130 C   0  0  0  0  0  0  0  0  0  0  0  0
  -26.6720   -5.3370   -1.0490 C   0  0  2  0  0  0  0  0  0  0  0  0
  -26.9780   -4.0680   -1.4140 C   0  0  0  0  0  0  0  0  0  0  0  0
  -27.1370   -4.4650   -4.4190 H   0  0  0  0  0  0  0  0  0  0  0  0
  -26.2750   -3.8690   -3.0580 H   0  0  0  0  0  0  0  0  0  0  0  0
  -25.4230   -4.3320   -4.5510 H   0  0  0  0  0  0  0  0  0  0  0  0
  -27.1960   -6.3580   -3.3880 H   0  0  0  0  0  0  0  0  0  0  0  0
  -23.5890   -5.6310   -4.1880 H   0  0  0  0  0  0  0  0  0  0  0  0
  -27.0800   -7.9870   -4.9930 H   0  0  0  0  0  0  0  0  0  0  0  0
  -24.2320   -7.3400   -1.2860 H   0  0  0  0  0  0  0  0  0  0  0  0
  -25.4960   -7.9870   -2.2750 H   0  0  0  0  0  0  0  0  0  0  0  0
  -25.8670   -8.7020    0.0380 H   0  0  0  0  0  0  0  0  0  0  0  0
  -25.7640   -7.0440    0.6230 H   0  0  0  0  0  0  0  0  0  0  0  0
  -28.0010   -7.7440    0.5690 H   0  0  0  0  0  0  0  0  0  0  0  0
  -28.6130   -5.6950   -0.0870 H   0  0  0  0  0  0  0  0  0  0  0  0
  -28.5000   -6.2590   -1.7540 H   0  0  0  0  0  0  0  0  0  0  0  0
  -26.2190   -5.2580   -0.0550 H   0  0  0  0  0  0  0  0  0  0  0  0
  -28.0530   -3.9320   -1.3700 H   0  0  0  0  0  0  0  0  0  0  0  0
  -26.5260   -3.3470   -0.7340 H   0  0  0  0  0  0  0  0  0  0  0  0
  -26.6580   -3.8700   -2.4360 H   0  0  0  0  0  0  0  0  0  0  0  0
  1  2  1  0
  2  3  1  0
  3  4  2  0
  4  5  1  0
  5  6  1  0
  5  7  2  0
  7  8  1  0
  7  9  1  0
  9 10  1  0
  9 11  2  0
  2 12  1  0
 12 13  1  0
 13 14  1  0
 14 15  1  0
 15 16  1  0
 16 17  1  0
 17 18  1  0
 11  3  1  0
 17 12  1  0
  1 19  1  0
  1 20  1  0
  1 21  1  0
  2 22  1  0
  4 23  1  0
 11 24  1  0
 13 25  1  0
 13 26  1  0
 14 27  1  0
 14 28  1  0
 15 29  1  0
 16 30  1  0
 16 31  1  0
 17 32  1  1
 18 33  1  0
 18 34  1  0
 18 35  1  0
A    1
 C1 
A    2
 C2 
A    3
 C3 
A    4
 C4 
A    5
 C5 
A    6
 F1 
A    7
 C6 
A    8
 F2 
A    9
 C7 
A   10
 F3 
A   11
 C8 
A   12
 N1 
A   13
 C9 
A   14
 C10
A   15
 N2 
A   16
 C11
A   17
 C12
A   18
 C13
A   19
 H1 
A   20
 H2 
A   21
 H3 
A   22
 H4 
A   23
 H5 
A   24
 H6 
A   25
 H7 
A   26
 H8 
A   27
 H9 
A   28
 H10
A   29
 H11
A   30
 H12
A   31
 H13
A   32
 H14
A   33
 H15
A   34
 H16
A   35
 H17
M  END
>  <ref_pdb>  (4) 
x0051_0B

>  <ref_mols>  (4) 
x0051_0B

>  <original SMILES>  (4) 
[H]c1c(F)c(F)c(F)c([H])c1C([H])(N1C([H])([H])C([H])([H])N([H])C([H])([H])[C@]1([H])C([H])([H])[H])C([H])([H])[H]

>  <index>  (4) 
3867.0

>  <∆∆G>  (4) 
-3.343394

>  <comRMSD>  (4) 
0.607479

>  <N_constrained_atoms>  (4) 
17.0

>  <N_unconstrained_atoms>  (4) 
1.0

>  <LE>  (4) 
0.185744

>  <percent_hybrid>  (4) 
19.0

>  <largest_ring>  (4) 
6.0

>  <N_HA>  (4) 
18.0

>  <N_rotatable_bonds>  (4) 
4.0

>  <max_hit_Tanimoto>  (4) 
0.434234

>  <N_interactions_kept>  (4) 
3.0

>  <N_interactions_lost>  (4) 
1.0

>  <interaction_uniqueness_metric>  (4) 
0.664187

>  <N_interactions>  (4) 
8.0

>  <N_PAINS>  (4) 
0.0

>  <UFF_Gibbs>  (4) 
636696.803126

>  <strain_per_HA>  (4) 
35371.848108

>  <ad_hoc_penalty>  (4) 
-44.648146

>  <cluster>  (4) 
703.0

>  <intxn_cluster>  (4) 
0.0

>  <keep>  (4) 
1.0

>  <hydroph_interaction:GLN:74>  (4) 
0.0

>  <hydroph_interaction:THR:118>  (4) 
0.0

>  <hydroph_interaction:ILE:123>  (4) 
0.0

>  <hydroph_interaction:THR:166>  (4) 
0.0

>  <hbond:GLN:167>  (4) 
0.0

>  <hydroph_interaction:ALA:88>  (4) 
0.0

>  <hydroph_interaction:ASP:120>  (4) 
0.0

>  <hydroph_interaction:GLN:167>  (4) 
0.0

>  <hbond:THR:118>  (4) 
0.0

>  <hydroph_interaction:ALA:164>  (4) 
0.0

>  <hbond:ASP:120>  (4) 
0.0

>  <hbond:THR:166>  (4) 
0.0

>  <hydroph_interaction:LEU:76>  (4) 
0.0

>  <hbond:ILE:165>  (4) 
0.0

>  <halogenbond:GLN:74>  (4) 
1.0

>  <hbond:GLN:74>  (4) 
0.0

>  <hbond:LYS:73>  (4) 
0.0

>  <pistack:TRP:69>  (4) 
0.0

>  <hbond:TRP:83>  (4) 
0.0

>  <hydroph_interaction:TRP:83>  (4) 
1.0

>  <hydroph_interaction:TRP:69>  (4) 
3.0

>  <pication:TRP:69>  (4) 
1.0

>  <hydroph_interaction:PRO:82>  (4) 
1.0

>  <halogenbond:LYS:73>  (4) 
0.0

>  <hydroph_interaction:TYR:68>  (4) 
1.0

>  <halogenbond:GLN:167>  (4) 
0.0

>  <hydroph_interaction:PHE:116>  (4) 
0.0

>  <hbond:TYR:68>  (4) 
0.0

>  <hbond:ASP:122>  (4) 
0.0

>  <pistack:PHE:116>  (4) 
0.0

>  <hydroph_interaction:VAL:154>  (4) 
0.0

>  <hydroph_interaction:ASP:75>  (4) 
0.0

>  <hbond:GLY:121>  (4) 
0.0

>  <hydroph_interaction:ASN:152>  (4) 
0.0

>  <halogenbond:ILE:165>  (4) 
0.0

$$$$
Z27782615-Z1318055457S2-x0806S1
     RDKit          3D

 35 37  0  0  0  0  0  0  0  0999 V2000
  -15.1240  -11.2870   -7.1770 O   0  0  0  0  0  0  0  0  0  0  0  0
  -14.5140   -9.9990   -7.0400 C   0  0  0  0  0  0  0  0  0  0  0  0
  -13.0830   -9.9920   -6.5750 C   0  0  0  0  0  0  0  0  0  0  0  0
  -12.0860  -10.4440   -7.4750 C   0  0  0  0  0  0  0  0  0  0  0  0
  -12.0310  -11.8140   -7.8080 C   0  0  0  0  0  0  0  0  0  0  0  0
  -11.0530  -12.3180   -8.6610 C   0  0  0  0  0  0  0  0  0  0  0  0
  -10.0810  -11.4020   -9.2030 C   0  0  0  0  0  0  0  0  0  0  0  0
  -10.1440  -10.0350   -8.8790 C   0  0  0  0  0  0  0  0  0  0  0  0
   -9.1430   -9.1090   -9.4480 C   0  0  0  0  0  0  0  0  0  0  0  0
   -9.1670   -7.6760   -9.1520 C   0  0  0  0  0  0  0  0  0  0  0  0
  -10.1740   -7.2320   -8.3080 C   0  0  0  0  0  0  0  0  0  0  0  0
  -11.1130   -8.1370   -7.7700 C   0  0  0  0  0  0  0  0  0  0  0  0
  -11.1330   -9.5280   -8.0280 C   0  0  0  0  0  0  0  0  0  0  0  0
  -15.0330   -8.6690   -7.2730 N   0  0  0  0  0  0  0  0  0  0  0  0
  -14.3030   -7.7720   -8.0590 C   0  0  0  0  0  0  0  0  0  0  0  0
  -13.4980   -6.7630   -7.5770 C   0  0  0  0  0  0  0  0  0  0  0  0
  -12.6920   -5.8270   -8.4200 C   0  0  0  0  0  0  0  0  0  0  0  0
  -12.8910   -6.1460   -9.8960 C   0  0  0  0  0  0  0  0  0  0  0  0
  -13.7380   -7.1810  -10.2990 C   0  0  0  0  0  0  0  0  0  0  0  0
  -14.4310   -7.9820   -9.4350 C   0  0  0  0  0  0  0  0  0  0  0  0
  -12.8250   -8.9440   -6.3910 H   0  0  0  0  0  0  0  0  0  0  0  0
  -12.9590  -10.3900   -5.5700 H   0  0  0  0  0  0  0  0  0  0  0  0
  -12.7610  -12.5080   -7.3910 H   0  0  0  0  0  0  0  0  0  0  0  0
  -11.0170  -13.3770   -8.9110 H   0  0  0  0  0  0  0  0  0  0  0  0
   -9.3240  -11.8330   -9.8610 H   0  0  0  0  0  0  0  0  0  0  0  0
   -8.3810   -9.5010  -10.0910 H   0  0  0  0  0  0  0  0  0  0  0  0
   -8.4290   -6.9970   -9.5740 H   0  0  0  0  0  0  0  0  0  0  0  0
  -10.2370   -6.1760   -8.0540 H   0  0  0  0  0  0  0  0  0  0  0  0
  -11.8600   -7.7050   -7.1150 H   0  0  0  0  0  0  0  0  0  0  0  0
  -16.0400   -8.5580   -7.2940 H   0  0  0  0  0  0  0  0  0  0  0  0
  -13.4140   -6.6120   -6.5070 H   0  0  0  0  0  0  0  0  0  0  0  0
  -12.0510   -5.0330   -8.0330 H   0  0  0  0  0  0  0  0  0  0  0  0
  -12.3300   -5.5070  -10.5880 H   0  0  0  0  0  0  0  0  0  0  0  0
  -13.8710   -7.3900  -11.3520 H   0  0  0  0  0  0  0  0  0  0  0  0
  -15.0640   -8.7690   -9.8360 H   0  0  0  0  0  0  0  0  0  0  0  0
  1  2  2  0
  2  3  1  0
  3  4  1  0
  4  5  2  0
  5  6  1  0
  6  7  2  0
  7  8  1  0
  8  9  2  0
  9 10  1  0
 10 11  2  0
 11 12  1  0
 12 13  2  0
  2 14  1  0
 14 15  1  0
 15 16  2  0
 16 17  1  0
 17 18  2  0
 18 19  1  0
 19 20  2  0
 13  4  1  0
 13  8  1  0
 20 15  1  0
  3 21  1  0
  3 22  1  0
  5 23  1  0
  6 24  1  0
  7 25  1  0
  9 26  1  0
 10 27  1  0
 11 28  1  0
 12 29  1  0
 14 30  1  0
 16 31  1  0
 17 32  1  0
 18 33  1  0
 19 34  1  0
 20 35  1  0
A    1
 O1 
A    2
 C1 
A    3
 C2 
A    4
 C3 
A    5
 C4 
A    6
 C5 
A    7
 C6 
A    8
 C7 
A    9
 C8 
A   10
 C9 
A   11
 C10
A   12
 C11
A   13
 C12
A   14
 N1 
A   15
 C13
A   16
 C14
A   17
 C15
A   18
 C16
A   19
 C17
A   20
 C18
A   21
 H1 
A   22
 H2 
A   23
 H3 
A   24
 H4 
A   25
 H5 
A   26
 H6 
A   27
 H7 
A   28
 H8 
A   29
 H9 
A   30
 H10
A   31
 H11
A   32
 H12
A   33
 H13
A   34
 H14
A   35
 H15
M  END
>  <ref_pdb>  (5) 
x0051_0B

>  <ref_mols>  (5) 
x0051_0B

>  <original SMILES>  (5) 
[H]c1c([H])c([H])c(N([H])C(=O)C([H])([H])c2c([H])c([H])c([H])c3c([H])c([H])c([H])c([H])c23)c([H])c1[H]

>  <index>  (5) 
497.0

>  <∆∆G>  (5) 
-5.573028

>  <comRMSD>  (5) 
0.661904

>  <N_constrained_atoms>  (5) 
17.0

>  <N_unconstrained_atoms>  (5) 
3.0

>  <LE>  (5) 
0.278651

>  <percent_hybrid>  (5) 
36.0

>  <largest_ring>  (5) 
6.0

>  <N_HA>  (5) 
20.0

>  <N_rotatable_bonds>  (5) 
3.0

>  <max_hit_Tanimoto>  (5) 
0.308824

>  <N_interactions_kept>  (5) 
0.5

>  <N_interactions_lost>  (5) 
1.0

>  <interaction_uniqueness_metric>  (5) 
0.083677

>  <N_interactions>  (5) 
8.0

>  <N_PAINS>  (5) 
0.0

>  <UFF_Gibbs>  (5) 
158.810826

>  <strain_per_HA>  (5) 
7.940502

>  <ad_hoc_penalty>  (5) 
-41.601453

>  <cluster>  (5) 
5846.0

>  <intxn_cluster>  (5) 
4.0

>  <keep>  (5) 
1.0

>  <hydroph_interaction:GLN:74>  (5) 
0.0

>  <hydroph_interaction:THR:118>  (5) 
1.0

>  <hydroph_interaction:ILE:123>  (5) 
4.0

>  <hydroph_interaction:THR:166>  (5) 
1.0

>  <hbond:GLN:167>  (5) 
2.0

>  <hydroph_interaction:ALA:88>  (5) 
0.0

>  <hydroph_interaction:ASP:120>  (5) 
0.0

>  <hydroph_interaction:GLN:167>  (5) 
0.0

>  <hbond:THR:118>  (5) 
0.0

>  <hydroph_interaction:ALA:164>  (5) 
0.0

>  <hbond:ASP:120>  (5) 
0.0

>  <hbond:THR:166>  (5) 
0.0

>  <hydroph_interaction:LEU:76>  (5) 
0.0

>  <hbond:ILE:165>  (5) 
0.0

>  <halogenbond:GLN:74>  (5) 
0.0

>  <hbond:GLN:74>  (5) 
0.0

>  <hbond:LYS:73>  (5) 
0.0

>  <pistack:TRP:69>  (5) 
0.0

>  <hbond:TRP:83>  (5) 
0.0

>  <hydroph_interaction:TRP:83>  (5) 
0.0

>  <hydroph_interaction:TRP:69>  (5) 
0.0

>  <pication:TRP:69>  (5) 
0.0

>  <hydroph_interaction:PRO:82>  (5) 
0.0

>  <halogenbond:LYS:73>  (5) 
0.0

>  <hydroph_interaction:TYR:68>  (5) 
0.0

>  <halogenbond:GLN:167>  (5) 
0.0

>  <hydroph_interaction:PHE:116>  (5) 
0.0

>  <hbond:TYR:68>  (5) 
0.0

>  <hbond:ASP:122>  (5) 
0.0

>  <pistack:PHE:116>  (5) 
0.0

>  <hydroph_interaction:VAL:154>  (5) 
0.0

>  <hydroph_interaction:ASP:75>  (5) 
0.0

>  <hbond:GLY:121>  (5) 
0.0

>  <hydroph_interaction:ASN:152>  (5) 
0.0

>  <halogenbond:ILE:165>  (5) 
0.0

$$$$
Z52337512-x0884S4-Z198195906S4
     RDKit          3D

 36 37  0  0  0  0  0  0  0  0999 V2000
  -12.8330   -9.3070   -6.8230 C   0  0  0  0  0  0  0  0  0  0  0  0
  -11.8290  -10.0810   -7.6380 C   0  0  0  0  0  0  0  0  0  0  0  0
  -12.0190  -11.4730   -7.7740 C   0  0  0  0  0  0  0  0  0  0  0  0
  -11.1270  -12.2520   -8.5140 C   0  0  0  0  0  0  0  0  0  0  0  0
  -10.0470  -11.6430   -9.1200 C   0  0  0  0  0  0  0  0  0  0  0  0
   -9.8450  -10.2730   -8.9960 C   0  0  0  0  0  0  0  0  0  0  0  0
  -10.7140   -9.4580   -8.2610 C   0  0  0  0  0  0  0  0  0  0  0  0
  -10.3860   -8.0060   -8.1990 C   0  0  0  0  0  0  0  0  0  0  0  0
  -11.4970   -7.1390   -8.5890 N   0  0  0  0  0  0  0  0  0  0  0  0
  -11.2720   -5.9760   -9.4910 C   0  0  0  0  0  0  0  0  0  0  0  0
  -12.1930   -5.4490  -10.1230 O   0  0  0  0  0  0  0  0  0  0  0  0
   -9.9520   -5.5340   -9.5960 C   0  0  0  0  0  0  0  0  0  0  0  0
   -8.9870   -6.2470  -10.2590 O   0  0  0  0  0  0  0  0  0  0  0  0
   -7.6890   -5.7170  -10.4610 C   0  0  0  0  0  0  0  0  0  0  0  0
   -6.7050   -6.6990  -10.3160 C   0  0  0  0  0  0  0  0  0  0  0  0
   -5.3450   -6.4070  -10.4720 C   0  0  0  0  0  0  0  0  0  0  0  0
   -4.9340   -5.0640  -10.7920 C   0  0  0  0  0  0  0  0  0  0  0  0
   -5.8790   -4.0550  -10.9470 C   0  0  0  0  0  0  0  0  0  0  0  0
   -7.3540   -4.3990  -10.7720 C   0  0  0  0  0  0  0  0  0  0  0  0
  -12.8740   -8.2650   -7.1530 H   0  0  0  0  0  0  0  0  0  0  0  0
  -13.8400   -9.7240   -6.9380 H   0  0  0  0  0  0  0  0  0  0  0  0
  -12.5770   -9.3490   -5.7610 H   0  0  0  0  0  0  0  0  0  0  0  0
  -12.8690  -11.9620   -7.3000 H   0  0  0  0  0  0  0  0  0  0  0  0
  -11.2710  -13.3210   -8.6170 H   0  0  0  0  0  0  0  0  0  0  0  0
   -9.3530  -12.2490   -9.6970 H   0  0  0  0  0  0  0  0  0  0  0  0
   -8.9880   -9.8300   -9.4880 H   0  0  0  0  0  0  0  0  0  0  0  0
   -9.5260   -7.7710   -8.8340 H   0  0  0  0  0  0  0  0  0  0  0  0
  -10.0950   -7.7360   -7.1760 H   0  0  0  0  0  0  0  0  0  0  0  0
  -12.3240   -7.1000   -7.9870 H   0  0  0  0  0  0  0  0  0  0  0  0
   -9.9700   -4.5580  -10.0940 H   0  0  0  0  0  0  0  0  0  0  0  0
   -9.5620   -5.3540   -8.5880 H   0  0  0  0  0  0  0  0  0  0  0  0
   -7.0050   -7.7180  -10.0760 H   0  0  0  0  0  0  0  0  0  0  0  0
   -4.6050   -7.1910  -10.3520 H   0  0  0  0  0  0  0  0  0  0  0  0
   -3.8780   -4.8430  -10.9120 H   0  0  0  0  0  0  0  0  0  0  0  0
   -5.5700   -3.0410  -11.1870 H   0  0  0  0  0  0  0  0  0  0  0  0
   -8.0910   -3.6120  -10.8930 H   0  0  0  0  0  0  0  0  0  0  0  0
  1  2  1  0
  2  3  2  0
  3  4  1  0
  4  5  2  0
  5  6  1  0
  6  7  2  0
  7  8  1  0
  8  9  1  0
  9 10  1  0
 10 11  2  0
 10 12  1  0
 12 13  1  0
 13 14  1  0
 14 15  2  0
 15 16  1  0
 16 17  2  0
 17 18  1  0
 18 19  2  0
  7  2  1  0
 19 14  1  0
  1 20  1  0
  1 21  1  0
  1 22  1  0
  3 23  1  0
  4 24  1  0
  5 25  1  0
  6 26  1  0
  8 27  1  0
  8 28  1  0
  9 29  1  0
 12 30  1  0
 12 31  1  0
 15 32  1  0
 16 33  1  0
 17 34  1  0
 18 35  1  0
 19 36  1  0
A    1
 C1 
A    2
 C2 
A    3
 C3 
A    4
 C4 
A    5
 C5 
A    6
 C6 
A    7
 C7 
A    8
 C8 
A    9
 N1 
A   10
 C9 
A   11
 O1 
A   12
 C10
A   13
 O2 
A   14
 C11
A   15
 C12
A   16
 C13
A   17
 C14
A   18
 C15
A   19
 C16
A   20
 H1 
A   21
 H2 
A   22
 H3 
A   23
 H4 
A   24
 H5 
A   25
 H6 
A   26
 H7 
A   27
 H8 
A   28
 H9 
A   29
 H10
A   30
 H11
A   31
 H12
A   32
 H13
A   33
 H14
A   34
 H15
A   35
 H16
A   36
 H17
M  END
>  <ref_pdb>  (6) 
x0051_0B

>  <ref_mols>  (6) 
x0051_0B

>  <original SMILES>  (6) 
[H]c1c([H])c([H])c(OC([H])([H])C(=O)N([H])C([H])([H])c2c([H])c([H])c([H])c([H])c2C([H])([H])[H])c([H])c1[H]

>  <index>  (6) 
4355.0

>  <∆∆G>  (6) 
-8.914454

>  <comRMSD>  (6) 
0.759937

>  <N_constrained_atoms>  (6) 
14.0

>  <N_unconstrained_atoms>  (6) 
7.0

>  <LE>  (6) 
0.424498

>  <percent_hybrid>  (6) 
16.0

>  <largest_ring>  (6) 
6.0

>  <N_HA>  (6) 
19.0

>  <N_rotatable_bonds>  (6) 
6.0

>  <max_hit_Tanimoto>  (6) 
0.438202

>  <N_interactions_kept>  (6) 
0.5

>  <N_interactions_lost>  (6) 
1.0

>  <interaction_uniqueness_metric>  (6) 
0.897229

>  <N_interactions>  (6) 
5.0

>  <N_PAINS>  (6) 
0.0

>  <UFF_Gibbs>  (6) 
134.983906

>  <strain_per_HA>  (6) 
7.104379

>  <ad_hoc_penalty>  (6) 
-41.426138

>  <cluster>  (6) 
4412.0

>  <intxn_cluster>  (6) 
13.0

>  <keep>  (6) 
1.0

>  <hydroph_interaction:GLN:74>  (6) 
0.0

>  <hydroph_interaction:THR:118>  (6) 
1.0

>  <hydroph_interaction:ILE:123>  (6) 
2.0

>  <hydroph_interaction:THR:166>  (6) 
0.0

>  <hbond:GLN:167>  (6) 
0.0

>  <hydroph_interaction:ALA:88>  (6) 
0.0

>  <hydroph_interaction:ASP:120>  (6) 
0.0

>  <hydroph_interaction:GLN:167>  (6) 
0.0

>  <hbond:THR:118>  (6) 
0.0

>  <hydroph_interaction:ALA:164>  (6) 
0.0

>  <hbond:ASP:120>  (6) 
0.0

>  <hbond:THR:166>  (6) 
0.0

>  <hydroph_interaction:LEU:76>  (6) 
0.0

>  <hbond:ILE:165>  (6) 
0.0

>  <halogenbond:GLN:74>  (6) 
0.0

>  <hbond:GLN:74>  (6) 
0.0

>  <hbond:LYS:73>  (6) 
0.0

>  <pistack:TRP:69>  (6) 
0.0

>  <hbond:TRP:83>  (6) 
0.0

>  <hydroph_interaction:TRP:83>  (6) 
0.0

>  <hydroph_interaction:TRP:69>  (6) 
0.0

>  <pication:TRP:69>  (6) 
0.0

>  <hydroph_interaction:PRO:82>  (6) 
0.0

>  <halogenbond:LYS:73>  (6) 
0.0

>  <hydroph_interaction:TYR:68>  (6) 
0.0

>  <halogenbond:GLN:167>  (6) 
0.0

>  <hydroph_interaction:PHE:116>  (6) 
0.0

>  <hbond:TYR:68>  (6) 
0.0

>  <hbond:ASP:122>  (6) 
0.0

>  <pistack:PHE:116>  (6) 
1.0

>  <hydroph_interaction:VAL:154>  (6) 
1.0

>  <hydroph_interaction:ASP:75>  (6) 
0.0

>  <hbond:GLY:121>  (6) 
0.0

>  <hydroph_interaction:ASN:152>  (6) 
0.0

>  <halogenbond:ILE:165>  (6) 
0.0

$$$$
PV-005328073803-x0214S3-Z198195906S10
     RDKit          3D

 23 24  0  0  0  0  0  0  0  0999 V2000
  -10.8720   -8.6100   -7.4400 C   0  0  0  0  0  0  0  0  0  0  0  0
  -11.1800   -7.2030   -7.1250 C   0  0  0  0  0  0  0  0  0  0  0  0
  -12.1850   -6.9460   -8.0170 C   0  0  0  0  0  0  0  0  0  0  0  0
  -12.9440   -8.1960   -8.5340 C   0  0  0  0  0  0  0  0  0  0  0  0
  -14.0540   -7.9360   -9.5640 C   0  0  0  0  0  0  0  0  0  0  0  0
  -14.3820   -6.7290  -10.0040 N   0  0  0  0  0  0  0  0  0  0  0  0
  -13.6230   -5.5910   -9.4500 C   0  0  0  0  0  0  0  0  0  0  0  0
  -12.4960   -5.6870   -8.4380 C   0  0  0  0  0  0  0  0  0  0  0  0
  -10.8500   -9.9550   -7.8460 C   0  0  0  0  0  0  0  0  0  0  0  0
  -11.9000  -10.8950   -7.2310 C   0  0  0  0  0  0  0  0  0  0  0  0
  -11.8650  -12.3450   -7.6940 C   0  0  0  0  0  0  0  0  0  0  0  0
  -10.8450  -12.8100   -8.7000 C   0  0  0  0  0  0  0  0  0  0  0  0
   -9.8240  -11.8270   -9.2800 C   0  0  0  0  0  0  0  0  0  0  0  0
   -9.8310  -10.4830   -8.8780 C   0  0  0  0  0  0  0  0  0  0  0  0
  -12.7140   -9.2010   -8.2060 H   0  0  0  0  0  0  0  0  0  0  0  0
  -14.6300   -8.7570   -9.9840 H   0  0  0  0  0  0  0  0  0  0  0  0
  -13.9060   -4.6270   -9.8010 H   0  0  0  0  0  0  0  0  0  0  0  0
  -11.9790   -4.8030   -8.0830 H   0  0  0  0  0  0  0  0  0  0  0  0
  -12.6370  -10.5570   -6.5040 H   0  0  0  0  0  0  0  0  0  0  0  0
  -12.5810  -13.0530   -7.2920 H   0  0  0  0  0  0  0  0  0  0  0  0
  -10.8330  -13.8510   -9.0150 H   0  0  0  0  0  0  0  0  0  0  0  0
   -9.0910  -12.1710  -10.0070 H   0  0  0  0  0  0  0  0  0  0  0  0
   -9.1070   -9.8030   -9.3060 H   0  0  0  0  0  0  0  0  0  0  0  0
  1  2  3  0
  2  3  1  0
  3  4  2  0
  4  5  1  0
  5  6  2  0
  6  7  1  0
  7  8  2  0
  1  9  1  0
  9 10  2  0
 10 11  1  0
 11 12  2  0
 12 13  1  0
 13 14  2  0
  8  3  1  0
 14  9  1  0
  4 15  1  0
  5 16  1  0
  7 17  1  0
  8 18  1  0
 10 19  1  0
 11 20  1  0
 12 21  1  0
 13 22  1  0
 14 23  1  0
A    1
 C1 
A    2
 C2 
A    3
 C3 
A    4
 C4 
A    5
 C5 
A    6
 N1 
A    7
 C6 
A    8
 C7 
A    9
 C8 
A   10
 C9 
A   11
 C10
A   12
 C11
A   13
 C12
A   14
 C13
A   15
 H1 
A   16
 H2 
A   17
 H3 
A   18
 H4 
A   19
 H5 
A   20
 H6 
A   21
 H7 
A   22
 H8 
A   23
 H9 
M  END
>  <ref_pdb>  (7) 
x0051_0B

>  <ref_mols>  (7) 
x0051_0B

>  <original SMILES>  (7) 
[H]c1nc([H])c([H])c(C#Cc2c([H])c([H])c([H])c([H])c2[H])c1[H]

>  <index>  (7) 
6203.0

>  <∆∆G>  (7) 
-5.039334

>  <comRMSD>  (7) 
0.810416

>  <N_constrained_atoms>  (7) 
13.0

>  <N_unconstrained_atoms>  (7) 
1.0

>  <LE>  (7) 
0.359952

>  <percent_hybrid>  (7) 
47.0

>  <largest_ring>  (7) 
6.0

>  <N_HA>  (7) 
14.0

>  <N_rotatable_bonds>  (7) 
0.0

>  <max_hit_Tanimoto>  (7) 
0.25

>  <N_interactions_kept>  (7) 
0.0

>  <N_interactions_lost>  (7) 
1.0

>  <interaction_uniqueness_metric>  (7) 
0.076209

>  <N_interactions>  (7) 
6.0

>  <N_PAINS>  (7) 
0.0

>  <UFF_Gibbs>  (7) 
337.696297

>  <strain_per_HA>  (7) 
24.120992

>  <ad_hoc_penalty>  (7) 
-38.992178

>  <cluster>  (7) 
3512.0

>  <intxn_cluster>  (7) 
4.0

>  <keep>  (7) 
1.0

>  <hydroph_interaction:GLN:74>  (7) 
0.0

>  <hydroph_interaction:THR:118>  (7) 
1.0

>  <hydroph_interaction:ILE:123>  (7) 
2.0

>  <hydroph_interaction:THR:166>  (7) 
0.0

>  <hbond:GLN:167>  (7) 
2.0

>  <hydroph_interaction:ALA:88>  (7) 
0.0

>  <hydroph_interaction:ASP:120>  (7) 
1.0

>  <hydroph_interaction:GLN:167>  (7) 
0.0

>  <hbond:THR:118>  (7) 
0.0

>  <hydroph_interaction:ALA:164>  (7) 
0.0

>  <hbond:ASP:120>  (7) 
0.0

>  <hbond:THR:166>  (7) 
0.0

>  <hydroph_interaction:LEU:76>  (7) 
0.0

>  <hbond:ILE:165>  (7) 
0.0

>  <halogenbond:GLN:74>  (7) 
0.0

>  <hbond:GLN:74>  (7) 
0.0

>  <hbond:LYS:73>  (7) 
0.0

>  <pistack:TRP:69>  (7) 
0.0

>  <hbond:TRP:83>  (7) 
0.0

>  <hydroph_interaction:TRP:83>  (7) 
0.0

>  <hydroph_interaction:TRP:69>  (7) 
0.0

>  <pication:TRP:69>  (7) 
0.0

>  <hydroph_interaction:PRO:82>  (7) 
0.0

>  <halogenbond:LYS:73>  (7) 
0.0

>  <hydroph_interaction:TYR:68>  (7) 
0.0

>  <halogenbond:GLN:167>  (7) 
0.0

>  <hydroph_interaction:PHE:116>  (7) 
0.0

>  <hbond:TYR:68>  (7) 
0.0

>  <hbond:ASP:122>  (7) 
0.0

>  <pistack:PHE:116>  (7) 
0.0

>  <hydroph_interaction:VAL:154>  (7) 
0.0

>  <hydroph_interaction:ASP:75>  (7) 
0.0

>  <hbond:GLY:121>  (7) 
0.0

>  <hydroph_interaction:ASN:152>  (7) 
0.0

>  <halogenbond:ILE:165>  (7) 
0.0

$$$$
PV-002730896320-x0944S3-x0130S1
     RDKit          3D

 31 32  0  0  0  0  0  0  0  0999 V2000
  -28.1430   -6.8830    0.9780 C   0  0  0  0  0  0  0  0  0  0  0  0
  -27.6290   -6.6350   -0.3610 N   0  0  0  0  0  0  0  0  0  0  0  0
  -26.1800   -6.9350   -0.4760 C   0  0  0  0  0  0  0  0  0  0  0  0
  -25.6830   -6.7550   -1.9060 C   0  0  0  0  0  0  0  0  0  0  0  0
  -26.4610   -5.9130   -2.7010 C   0  0  0  0  0  0  0  0  0  0  0  0
  -25.6130   -5.3790   -3.7370 O   0  0  0  0  0  0  0  0  0  0  0  0
  -24.9820   -6.2200   -4.6300 C   0  0  0  0  0  0  0  0  0  0  0  0
  -25.8310   -7.3720   -5.2060 C   0  0  0  0  0  0  0  0  0  0  0  0
  -25.2950   -8.2820   -6.1240 C   0  0  0  0  0  0  0  0  0  0  0  0
  -23.9610   -8.1370   -6.5190 C   0  0  0  0  0  0  0  0  0  0  0  0
  -23.1720   -7.1130   -6.0180 C   0  0  0  0  0  0  0  0  0  0  0  0
  -23.6580   -6.1890   -5.1090 C   0  0  0  0  0  0  0  0  0  0  0  0
  -27.0790   -4.8140   -1.8130 C   0  0  0  0  0  0  0  0  0  0  0  0
  -28.0170   -5.3250   -0.9140 C   0  0  0  0  0  0  0  0  0  0  0  0
  -29.2340   -6.8470    1.0380 H   0  0  0  0  0  0  0  0  0  0  0  0
  -27.8050   -7.8530    1.3480 H   0  0  0  0  0  0  0  0  0  0  0  0
  -27.7410   -6.1390    1.6810 H   0  0  0  0  0  0  0  0  0  0  0  0
  -26.0250   -7.9800   -0.1720 H   0  0  0  0  0  0  0  0  0  0  0  0
  -25.5930   -6.3180    0.2150 H   0  0  0  0  0  0  0  0  0  0  0  0
  -24.6670   -6.3530   -1.9210 H   0  0  0  0  0  0  0  0  0  0  0  0
  -25.6300   -7.7400   -2.3820 H   0  0  0  0  0  0  0  0  0  0  0  0
  -27.2610   -6.5010   -3.1710 H   0  0  0  0  0  0  0  0  0  0  0  0
  -26.8610   -7.3940   -4.8310 H   0  0  0  0  0  0  0  0  0  0  0  0
  -25.9110   -9.0900   -6.5200 H   0  0  0  0  0  0  0  0  0  0  0  0
  -23.4580   -8.7990   -7.2310 H   0  0  0  0  0  0  0  0  0  0  0  0
  -22.1500   -7.1200   -6.4130 H   0  0  0  0  0  0  0  0  0  0  0  0
  -22.8810   -5.4810   -4.8550 H   0  0  0  0  0  0  0  0  0  0  0  0
  -26.2940   -4.3580   -1.2320 H   0  0  0  0  0  0  0  0  0  0  0  0
  -27.5540   -4.0260   -2.3990 H   0  0  0  0  0  0  0  0  0  0  0  0
  -28.1150   -4.6230   -0.0740 H   0  0  0  0  0  0  0  0  0  0  0  0
  -29.0190   -5.3700   -1.3650 H   0  0  0  0  0  0  0  0  0  0  0  0
  1  2  1  0
  2  3  1  0
  3  4  1  0
  4  5  1  0
  5  6  1  0
  6  7  1  0
  7  8  2  0
  8  9  1  0
  9 10  2  0
 10 11  1  0
 11 12  2  0
  5 13  1  0
 13 14  1  0
 14  2  1  0
 12  7  1  0
  1 15  1  0
  1 16  1  0
  1 17  1  0
  3 18  1  0
  3 19  1  0
  4 20  1  0
  4 21  1  0
  5 22  1  0
  8 23  1  0
  9 24  1  0
 10 25  1  0
 11 26  1  0
 12 27  1  0
 13 28  1  0
 13 29  1  0
 14 30  1  0
 14 31  1  0
A    1
 C1 
A    2
 N1 
A    3
 C2 
A    4
 C3 
A    5
 C4 
A    6
 O1 
A    7
 C5 
A    8
 C6 
A    9
 C7 
A   10
 C8 
A   11
 C9 
A   12
 C10
A   13
 C11
A   14
 C12
A   15
 H1 
A   16
 H2 
A   17
 H3 
A   18
 H4 
A   19
 H5 
A   20
 H6 
A   21
 H7 
A   22
 H8 
A   23
 H9 
A   24
 H10
A   25
 H11
A   26
 H12
A   27
 H13
A   28
 H14
A   29
 H15
A   30
 H16
A   31
 H17
M  END
>  <ref_pdb>  (8) 
x0051_0B

>  <ref_mols>  (8) 
x0051_0B

>  <original SMILES>  (8) 
[H]c1c([H])c([H])c(OC2([H])C([H])([H])C([H])([H])N(C([H])([H])[H])C([H])([H])C2([H])[H])c([H])c1[H]

>  <index>  (8) 
6091.0

>  <∆∆G>  (8) 
-3.336518

>  <comRMSD>  (8) 
0.397684

>  <N_constrained_atoms>  (8) 
14.0

>  <N_unconstrained_atoms>  (8) 
1.0

>  <LE>  (8) 
0.222435

>  <percent_hybrid>  (8) 
50.0

>  <largest_ring>  (8) 
6.0

>  <N_HA>  (8) 
14.0

>  <N_rotatable_bonds>  (8) 
3.0

>  <max_hit_Tanimoto>  (8) 
0.081545

>  <N_interactions_kept>  (8) 
1.0

>  <N_interactions_lost>  (8) 
0.5

>  <interaction_uniqueness_metric>  (8) 
0.459769

>  <N_interactions>  (8) 
6.0

>  <N_PAINS>  (8) 
0.0

>  <UFF_Gibbs>  (8) 
57.466803

>  <strain_per_HA>  (8) 
4.104742

>  <ad_hoc_penalty>  (8) 
-37.586479

>  <cluster>  (8) 
3600.0

>  <intxn_cluster>  (8) 
0.0

>  <keep>  (8) 
1.0

>  <hydroph_interaction:GLN:74>  (8) 
0.0

>  <hydroph_interaction:THR:118>  (8) 
0.0

>  <hydroph_interaction:ILE:123>  (8) 
0.0

>  <hydroph_interaction:THR:166>  (8) 
0.0

>  <hbond:GLN:167>  (8) 
0.0

>  <hydroph_interaction:ALA:88>  (8) 
0.0

>  <hydroph_interaction:ASP:120>  (8) 
0.0

>  <hydroph_interaction:GLN:167>  (8) 
0.0

>  <hbond:THR:118>  (8) 
0.0

>  <hydroph_interaction:ALA:164>  (8) 
0.0

>  <hbond:ASP:120>  (8) 
0.0

>  <hbond:THR:166>  (8) 
0.0

>  <hydroph_interaction:LEU:76>  (8) 
0.0

>  <hbond:ILE:165>  (8) 
0.0

>  <halogenbond:GLN:74>  (8) 
0.0

>  <hbond:GLN:74>  (8) 
0.0

>  <hbond:LYS:73>  (8) 
0.0

>  <pistack:TRP:69>  (8) 
0.0

>  <hbond:TRP:83>  (8) 
1.0

>  <hydroph_interaction:TRP:83>  (8) 
1.0

>  <hydroph_interaction:TRP:69>  (8) 
2.0

>  <pication:TRP:69>  (8) 
1.0

>  <hydroph_interaction:PRO:82>  (8) 
1.0

>  <halogenbond:LYS:73>  (8) 
0.0

>  <hydroph_interaction:TYR:68>  (8) 
0.0

>  <halogenbond:GLN:167>  (8) 
0.0

>  <hydroph_interaction:PHE:116>  (8) 
0.0

>  <hbond:TYR:68>  (8) 
0.0

>  <hbond:ASP:122>  (8) 
0.0

>  <pistack:PHE:116>  (8) 
0.0

>  <hydroph_interaction:VAL:154>  (8) 
0.0

>  <hydroph_interaction:ASP:75>  (8) 
0.0

>  <hbond:GLY:121>  (8) 
0.0

>  <hydroph_interaction:ASN:152>  (8) 
0.0

>  <halogenbond:ILE:165>  (8) 
0.0

$$$$
Z745583494-Z198195906S1-Z1318054286
     RDKit          3D

 38 39  0  0  0  0  0  0  0  0999 V2000
  -10.3950   -3.3710  -10.2780 C   0  0  0  0  0  0  0  0  0  0  0  0
   -9.1830   -4.2530  -10.3370 C   0  0  0  0  0  0  0  0  0  0  0  0
   -8.0550   -3.7900  -11.0020 C   0  0  0  0  0  0  0  0  0  0  0  0
   -6.8400   -4.7110  -11.0510 C   0  0  0  0  0  0  0  0  0  0  0  0
   -6.8900   -6.0630  -10.3960 C   0  0  0  0  0  0  0  0  0  0  0  0
   -8.1010   -6.3870   -9.7570 C   0  0  0  0  0  0  0  0  0  0  0  0
   -9.1990   -5.5190   -9.7250 C   0  0  0  0  0  0  0  0  0  0  0  0
  -10.3880   -5.8730   -9.0560 N   0  0  0  0  0  0  0  0  0  0  0  0
  -11.5680   -6.4180   -9.5120 C   0  0  0  0  0  0  0  0  0  0  0  0
  -12.0180   -6.4190  -10.6440 O   0  0  0  0  0  0  0  0  0  0  0  0
  -12.2400   -7.0100   -8.4390 N   0  0  0  0  0  0  0  0  0  0  0  0
  -13.2780   -7.9920   -8.8070 C   0  0  0  0  0  0  0  0  0  0  0  0
  -14.2480   -8.3120   -7.6510 C   0  0  0  0  0  0  0  0  0  0  0  0
  -15.6760   -8.1560   -8.1100 C   0  0  0  0  0  0  0  0  0  0  0  0
  -16.4720   -9.3900   -7.7810 C   0  0  0  0  0  0  0  0  0  0  0  0
  -16.2760   -9.8510   -6.4920 C   0  0  0  0  0  0  0  0  0  0  0  0
  -14.8720  -10.0210   -6.2200 O   0  0  0  0  0  0  0  0  0  0  0  0
  -14.1050   -9.7870   -7.1600 C   0  0  0  0  0  0  0  0  0  0  0  0
  -10.3350   -2.6600   -9.4480 H   0  0  0  0  0  0  0  0  0  0  0  0
  -11.3010   -3.9750  -10.1760 H   0  0  0  0  0  0  0  0  0  0  0  0
  -10.4920   -2.7880  -11.1970 H   0  0  0  0  0  0  0  0  0  0  0  0
   -8.0080   -2.8180  -11.4810 H   0  0  0  0  0  0  0  0  0  0  0  0
   -5.9450   -4.3740  -11.5650 H   0  0  0  0  0  0  0  0  0  0  0  0
   -6.0350   -6.7330  -10.4250 H   0  0  0  0  0  0  0  0  0  0  0  0
   -8.1480   -7.3580   -9.2750 H   0  0  0  0  0  0  0  0  0  0  0  0
  -10.4330   -5.6090   -8.0820 H   0  0  0  0  0  0  0  0  0  0  0  0
  -11.6250   -7.2880   -7.6870 H   0  0  0  0  0  0  0  0  0  0  0  0
  -13.8360   -7.5920   -9.6640 H   0  0  0  0  0  0  0  0  0  0  0  0
  -12.8110   -8.9230   -9.1490 H   0  0  0  0  0  0  0  0  0  0  0  0
  -14.0780   -7.6300   -6.8060 H   0  0  0  0  0  0  0  0  0  0  0  0
  -15.6840   -7.9990   -9.1940 H   0  0  0  0  0  0  0  0  0  0  0  0
  -16.1540   -7.2830   -7.6500 H   0  0  0  0  0  0  0  0  0  0  0  0
  -16.0390  -10.1760   -8.4100 H   0  0  0  0  0  0  0  0  0  0  0  0
  -17.4290   -9.2190   -8.2480 H   0  0  0  0  0  0  0  0  0  0  0  0
  -16.7440  -10.7850   -6.1930 H   0  0  0  0  0  0  0  0  0  0  0  0
  -16.6590   -9.0990   -5.7870 H   0  0  0  0  0  0  0  0  0  0  0  0
  -13.0760  -10.0090   -6.8480 H   0  0  0  0  0  0  0  0  0  0  0  0
  -14.3560  -10.4870   -7.9610 H   0  0  0  0  0  0  0  0  0  0  0  0
  1  2  1  0
  2  3  2  0
  3  4  1  0
  4  5  2  0
  5  6  1  0
  6  7  2  0
  7  8  1  0
  8  9  1  0
  9 10  2  0
  9 11  1  0
 11 12  1  0
 12 13  1  0
 13 14  1  0
 14 15  1  0
 15 16  1  0
 16 17  1  0
 17 18  1  0
  7  2  1  0
 18 13  1  0
  1 19  1  0
  1 20  1  0
  1 21  1  0
  3 22  1  0
  4 23  1  0
  5 24  1  0
  6 25  1  0
  8 26  1  0
 11 27  1  0
 12 28  1  0
 12 29  1  0
 13 30  1  0
 14 31  1  0
 14 32  1  0
 15 33  1  0
 15 34  1  0
 16 35  1  0
 16 36  1  0
 18 37  1  0
 18 38  1  0
A    1
 C1 
A    2
 C2 
A    3
 C3 
A    4
 C4 
A    5
 C5 
A    6
 C6 
A    7
 C7 
A    8
 N1 
A    9
 C8 
A   10
 O1 
A   11
 N2 
A   12
 C9 
A   13
 C10
A   14
 C11
A   15
 C12
A   16
 C13
A   17
 O2 
A   18
 C14
A   19
 H1 
A   20
 H2 
A   21
 H3 
A   22
 H4 
A   23
 H5 
A   24
 H6 
A   25
 H7 
A   26
 H8 
A   27
 H9 
A   28
 H10
A   29
 H11
A   30
 H12
A   31
 H13
A   32
 H14
A   33
 H15
A   34
 H16
A   35
 H17
A   36
 H18
A   37
 H19
A   38
 H20
M  END
>  <ref_pdb>  (9) 
x0051_0B

>  <ref_mols>  (9) 
x0051_0B

>  <original SMILES>  (9) 
[H]c1c([H])c([H])c(C([H])([H])[H])c(N([H])C(=O)N([H])C([H])([H])C2([H])C([H])([H])OC([H])([H])C([H])([H])C2([H])[H])c1[H]

>  <index>  (9) 
5685.0

>  <∆∆G>  (9) 
-6.647277

>  <comRMSD>  (9) 
0.735636

>  <N_constrained_atoms>  (9) 
13.0

>  <N_unconstrained_atoms>  (9) 
7.0

>  <LE>  (9) 
0.332364

>  <percent_hybrid>  (9) 
25.0

>  <largest_ring>  (9) 
6.0

>  <N_HA>  (9) 
18.0

>  <N_rotatable_bonds>  (9) 
4.0

>  <max_hit_Tanimoto>  (9) 
0.177979

>  <N_interactions_kept>  (9) 
0.5

>  <N_interactions_lost>  (9) 
0.5

>  <interaction_uniqueness_metric>  (9) 
0.671152

>  <N_interactions>  (9) 
4.0

>  <N_PAINS>  (9) 
0.0

>  <UFF_Gibbs>  (9) 
132.387412

>  <strain_per_HA>  (9) 
7.354815

>  <ad_hoc_penalty>  (9) 
-35.642843

>  <cluster>  (9) 
1209.0

>  <intxn_cluster>  (9) 
3.0

>  <keep>  (9) 
1.0

>  <hydroph_interaction:GLN:74>  (9) 
0.0

>  <hydroph_interaction:THR:118>  (9) 
0.0

>  <hydroph_interaction:ILE:123>  (9) 
1.0

>  <hydroph_interaction:THR:166>  (9) 
0.0

>  <hbond:GLN:167>  (9) 
0.0

>  <hydroph_interaction:ALA:88>  (9) 
0.0

>  <hydroph_interaction:ASP:120>  (9) 
0.0

>  <hydroph_interaction:GLN:167>  (9) 
0.0

>  <hbond:THR:118>  (9) 
0.0

>  <hydroph_interaction:ALA:164>  (9) 
1.0

>  <hbond:ASP:120>  (9) 
0.0

>  <hbond:THR:166>  (9) 
0.0

>  <hydroph_interaction:LEU:76>  (9) 
0.0

>  <hbond:ILE:165>  (9) 
0.0

>  <halogenbond:GLN:74>  (9) 
0.0

>  <hbond:GLN:74>  (9) 
0.0

>  <hbond:LYS:73>  (9) 
0.0

>  <pistack:TRP:69>  (9) 
0.0

>  <hbond:TRP:83>  (9) 
0.0

>  <hydroph_interaction:TRP:83>  (9) 
0.0

>  <hydroph_interaction:TRP:69>  (9) 
0.0

>  <pication:TRP:69>  (9) 
0.0

>  <hydroph_interaction:PRO:82>  (9) 
0.0

>  <halogenbond:LYS:73>  (9) 
0.0

>  <hydroph_interaction:TYR:68>  (9) 
0.0

>  <halogenbond:GLN:167>  (9) 
0.0

>  <hydroph_interaction:PHE:116>  (9) 
1.0

>  <hbond:TYR:68>  (9) 
0.0

>  <hbond:ASP:122>  (9) 
0.0

>  <pistack:PHE:116>  (9) 
0.0

>  <hydroph_interaction:VAL:154>  (9) 
0.0

>  <hydroph_interaction:ASP:75>  (9) 
0.0

>  <hbond:GLY:121>  (9) 
0.0

>  <hydroph_interaction:ASN:152>  (9) 
1.0

>  <halogenbond:ILE:165>  (9) 
0.0

$$$$
Z28228355-Z1318055457S2-x0806S1
     RDKit          3D

 34 36  0  0  0  0  0  0  0  0999 V2000
  -15.0520  -11.0000   -7.6100 O   0  0  0  0  0  0  0  0  0  0  0  0
  -14.5060   -9.9730   -7.2200 C   0  0  0  0  0  0  0  0  0  0  0  0
  -13.1010   -9.8740   -6.6810 C   0  0  0  0  0  0  0  0  0  0  0  0
  -12.0940  -10.3710   -7.5360 C   0  0  0  0  0  0  0  0  0  0  0  0
  -12.0430  -11.7500   -7.8380 C   0  0  0  0  0  0  0  0  0  0  0  0
  -11.0340  -12.2210   -8.6570 C   0  0  0  0  0  0  0  0  0  0  0  0
  -10.0820  -11.3840   -9.1810 C   0  0  0  0  0  0  0  0  0  0  0  0
  -10.1000  -10.0100   -8.9150 C   0  0  0  0  0  0  0  0  0  0  0  0
   -9.0640   -9.1060   -9.4960 C   0  0  0  0  0  0  0  0  0  0  0  0
   -9.1920   -7.6530   -9.1450 C   0  0  0  0  0  0  0  0  0  0  0  0
  -10.2010   -7.1850   -8.3330 C   0  0  0  0  0  0  0  0  0  0  0  0
  -11.1440   -8.0710   -7.8080 C   0  0  0  0  0  0  0  0  0  0  0  0
  -11.1120   -9.4610   -8.0840 C   0  0  0  0  0  0  0  0  0  0  0  0
  -15.0500   -8.6910   -7.1820 O   0  0  0  0  0  0  0  0  0  0  0  0
  -14.3390   -7.8210   -8.0040 C   0  0  0  0  0  0  0  0  0  0  0  0
  -13.5160   -6.8220   -7.4870 C   0  0  0  0  0  0  0  0  0  0  0  0
  -12.8410   -6.0330   -8.3750 C   0  0  0  0  0  0  0  0  0  0  0  0
  -12.9410   -6.1790   -9.8360 C   0  0  0  0  0  0  0  0  0  0  0  0
  -13.8130   -7.2120  -10.2570 C   0  0  0  0  0  0  0  0  0  0  0  0
  -14.4920   -8.0140   -9.3690 C   0  0  0  0  0  0  0  0  0  0  0  0
  -12.8910   -8.8790   -6.2980 H   0  0  0  0  0  0  0  0  0  0  0  0
  -12.9520  -10.4260   -5.7590 H   0  0  0  0  0  0  0  0  0  0  0  0
  -12.7900  -12.4240   -7.4220 H   0  0  0  0  0  0  0  0  0  0  0  0
  -10.9930  -13.2950   -8.8890 H   0  0  0  0  0  0  0  0  0  0  0  0
   -9.3000  -11.8170   -9.8220 H   0  0  0  0  0  0  0  0  0  0  0  0
   -8.2750   -9.4690  -10.1260 H   0  0  0  0  0  0  0  0  0  0  0  0
   -8.4600   -6.9420   -9.5460 H   0  0  0  0  0  0  0  0  0  0  0  0
  -10.1880   -6.1070   -8.1490 H   0  0  0  0  0  0  0  0  0  0  0  0
  -11.9120   -7.6420   -7.1720 H   0  0  0  0  0  0  0  0  0  0  0  0
  -13.4060   -6.6750   -6.4170 H   0  0  0  0  0  0  0  0  0  0  0  0
  -12.1930   -5.2530   -7.9800 H   0  0  0  0  0  0  0  0  0  0  0  0
  -12.3950   -5.5450  -10.5310 H   0  0  0  0  0  0  0  0  0  0  0  0
  -13.9670   -7.4060  -11.3090 H   0  0  0  0  0  0  0  0  0  0  0  0
  -15.1450   -8.7980   -9.7370 H   0  0  0  0  0  0  0  0  0  0  0  0
  1  2  2  0
  2  3  1  0
  3  4  1  0
  4  5  2  0
  5  6  1  0
  6  7  2  0
  7  8  1  0
  8  9  2  0
  9 10  1  0
 10 11  2  0
 11 12  1  0
 12 13  2  0
  2 14  1  0
 14 15  1  0
 15 16  2  0
 16 17  1  0
 17 18  2  0
 18 19  1  0
 19 20  2  0
 13  4  1  0
 13  8  1  0
 20 15  1  0
  3 21  1  0
  3 22  1  0
  5 23  1  0
  6 24  1  0
  7 25  1  0
  9 26  1  0
 10 27  1  0
 11 28  1  0
 12 29  1  0
 16 30  1  0
 17 31  1  0
 18 32  1  0
 19 33  1  0
 20 34  1  0
A    1
 O1 
A    2
 C1 
A    3
 C2 
A    4
 C3 
A    5
 C4 
A    6
 C5 
A    7
 C6 
A    8
 C7 
A    9
 C8 
A   10
 C9 
A   11
 C10
A   12
 C11
A   13
 C12
A   14
 O2 
A   15
 C13
A   16
 C14
A   17
 C15
A   18
 C16
A   19
 C17
A   20
 C18
A   21
 H1 
A   22
 H2 
A   23
 H3 
A   24
 H4 
A   25
 H5 
A   26
 H6 
A   27
 H7 
A   28
 H8 
A   29
 H9 
A   30
 H10
A   31
 H11
A   32
 H12
A   33
 H13
A   34
 H14
M  END
>  <ref_pdb>  (10) 
x0051_0B

>  <ref_mols>  (10) 
x0051_0B

>  <original SMILES>  (10) 
[H]c1c([H])c([H])c(OC(=O)C([H])([H])c2c([H])c([H])c([H])c3c([H])c([H])c([H])c([H])c23)c([H])c1[H]

>  <index>  (10) 
498.0

>  <∆∆G>  (10) 
-5.051612

>  <comRMSD>  (10) 
0.67026

>  <N_constrained_atoms>  (10) 
17.0

>  <N_unconstrained_atoms>  (10) 
3.0

>  <LE>  (10) 
0.252581

>  <percent_hybrid>  (10) 
36.0

>  <largest_ring>  (10) 
6.0

>  <N_HA>  (10) 
20.0

>  <N_rotatable_bonds>  (10) 
3.0

>  <max_hit_Tanimoto>  (10) 
0.305233

>  <N_interactions_kept>  (10) 
0.5

>  <N_interactions_lost>  (10) 
1.0

>  <interaction_uniqueness_metric>  (10) 
0.064443

>  <N_interactions>  (10) 
7.0

>  <N_PAINS>  (10) 
0.0

>  <UFF_Gibbs>  (10) 
186.814159

>  <strain_per_HA>  (10) 
9.340661

>  <ad_hoc_penalty>  (10) 
-34.648932

>  <cluster>  (10) 
5845.0

>  <intxn_cluster>  (10) 
1.0

>  <keep>  (10) 
1.0

>  <hydroph_interaction:GLN:74>  (10) 
0.0

>  <hydroph_interaction:THR:118>  (10) 
1.0

>  <hydroph_interaction:ILE:123>  (10) 
5.0

>  <hydroph_interaction:THR:166>  (10) 
1.0

>  <hbond:GLN:167>  (10) 
0.0

>  <hydroph_interaction:ALA:88>  (10) 
0.0

>  <hydroph_interaction:ASP:120>  (10) 
0.0

>  <hydroph_interaction:GLN:167>  (10) 
0.0

>  <hbond:THR:118>  (10) 
0.0

>  <hydroph_interaction:ALA:164>  (10) 
0.0

>  <hbond:ASP:120>  (10) 
0.0

>  <hbond:THR:166>  (10) 
0.0

>  <hydroph_interaction:LEU:76>  (10) 
0.0

>  <hbond:ILE:165>  (10) 
0.0

>  <halogenbond:GLN:74>  (10) 
0.0

>  <hbond:GLN:74>  (10) 
0.0

>  <hbond:LYS:73>  (10) 
0.0

>  <pistack:TRP:69>  (10) 
0.0

>  <hbond:TRP:83>  (10) 
0.0

>  <hydroph_interaction:TRP:83>  (10) 
0.0

>  <hydroph_interaction:TRP:69>  (10) 
0.0

>  <pication:TRP:69>  (10) 
0.0

>  <hydroph_interaction:PRO:82>  (10) 
0.0

>  <halogenbond:LYS:73>  (10) 
0.0

>  <hydroph_interaction:TYR:68>  (10) 
0.0

>  <halogenbond:GLN:167>  (10) 
0.0

>  <hydroph_interaction:PHE:116>  (10) 
0.0

>  <hbond:TYR:68>  (10) 
0.0

>  <hbond:ASP:122>  (10) 
0.0

>  <pistack:PHE:116>  (10) 
0.0

>  <hydroph_interaction:VAL:154>  (10) 
0.0

>  <hydroph_interaction:ASP:75>  (10) 
0.0

>  <hbond:GLY:121>  (10) 
0.0

>  <hydroph_interaction:ASN:152>  (10) 
0.0

>  <halogenbond:ILE:165>  (10) 
0.0

$$$$
Z1742337561-x0944-x0130S3
     RDKit          3D

 31 32  0  0  0  0  0  0  0  0999 V2000
  -26.2220   -4.5250   -3.9880 C   0  0  0  0  0  0  0  0  0  0  0  0
  -25.6000   -5.7470   -3.6320 C   0  0  0  0  0  0  0  0  0  0  0  0
  -25.1380   -6.6010   -4.6010 C   0  0  0  0  0  0  0  0  0  0  0  0
  -23.8080   -6.4640   -4.9530 C   0  0  0  0  0  0  0  0  0  0  0  0
  -23.1240   -7.2750   -6.0040 C   0  0  0  0  0  0  0  0  0  0  0  0
  -21.8380   -7.0900   -6.3080 F   0  0  0  0  0  0  0  0  0  0  0  0
  -24.0060   -8.3060   -6.6810 C   0  0  0  0  0  0  0  0  0  0  0  0
  -23.5300   -9.1060   -7.6360 F   0  0  0  0  0  0  0  0  0  0  0  0
  -25.3360   -8.3840   -6.2620 C   0  0  0  0  0  0  0  0  0  0  0  0
  -26.1150   -9.2900   -6.8570 F   0  0  0  0  0  0  0  0  0  0  0  0
  -25.9080   -7.5680   -5.2590 C   0  0  0  0  0  0  0  0  0  0  0  0
  -26.4080   -6.3140   -2.5430 N   0  0  0  0  0  0  0  0  0  0  0  0
  -25.5950   -7.0330   -1.5400 C   0  0  0  0  0  0  0  0  0  0  0  0
  -26.3710   -7.3910   -0.2550 C   0  0  0  0  0  0  0  0  0  0  0  0
  -27.7300   -6.8780   -0.1930 N   0  0  0  0  0  0  0  0  0  0  0  0
  -28.0680   -5.6950   -0.7860 C   0  0  0  0  0  0  0  0  0  0  0  0
  -29.1190   -5.1150   -0.5170 O   0  0  0  0  0  0  0  0  0  0  0  0
  -27.0500   -5.1950   -1.7820 C   0  0  0  0  0  0  0  0  0  0  0  0
  -25.5800   -3.9150   -4.6250 H   0  0  0  0  0  0  0  0  0  0  0  0
  -27.0920   -4.7690   -4.5410 H   0  0  0  0  0  0  0  0  0  0  0  0
  -26.5180   -3.9260   -3.1300 H   0  0  0  0  0  0  0  0  0  0  0  0
  -24.6870   -5.4460   -3.1630 H   0  0  0  0  0  0  0  0  0  0  0  0
  -23.1700   -5.7490   -4.4850 H   0  0  0  0  0  0  0  0  0  0  0  0
  -26.9570   -7.7110   -5.0160 H   0  0  0  0  0  0  0  0  0  0  0  0
  -24.7460   -6.3890   -1.2720 H   0  0  0  0  0  0  0  0  0  0  0  0
  -25.1370   -7.9320   -1.9640 H   0  0  0  0  0  0  0  0  0  0  0  0
  -26.4290   -8.4770   -0.1390 H   0  0  0  0  0  0  0  0  0  0  0  0
  -25.8450   -6.9980    0.6230 H   0  0  0  0  0  0  0  0  0  0  0  0
  -28.3170   -7.1280    0.5950 H   0  0  0  0  0  0  0  0  0  0  0  0
  -26.2910   -4.6680   -1.2000 H   0  0  0  0  0  0  0  0  0  0  0  0
  -27.5050   -4.4460   -2.4290 H   0  0  0  0  0  0  0  0  0  0  0  0
  1  2  1  0
  2  3  1  0
  3  4  2  0
  4  5  1  0
  5  6  1  0
  5  7  2  0
  7  8  1  0
  7  9  1  0
  9 10  1  0
  9 11  2  0
  2 12  1  0
 12 13  1  0
 13 14  1  0
 14 15  1  0
 15 16  1  0
 16 17  2  0
 16 18  1  0
 11  3  1  0
 18 12  1  0
  1 19  1  0
  1 20  1  0
  1 21  1  0
  2 22  1  0
  4 23  1  0
 11 24  1  0
 13 25  1  0
 13 26  1  0
 14 27  1  0
 14 28  1  0
 15 29  1  0
 18 30  1  0
 18 31  1  0
A    1
 C1 
A    2
 C2 
A    3
 C3 
A    4
 C4 
A    5
 C5 
A    6
 F1 
A    7
 C6 
A    8
 F2 
A    9
 C7 
A   10
 F3 
A   11
 C8 
A   12
 N1 
A   13
 C9 
A   14
 C10
A   15
 N2 
A   16
 C11
A   17
 O1 
A   18
 C12
A   19
 H1 
A   20
 H2 
A   21
 H3 
A   22
 H4 
A   23
 H5 
A   24
 H6 
A   25
 H7 
A   26
 H8 
A   27
 H9 
A   28
 H10
A   29
 H11
A   30
 H12
A   31
 H13
M  END
>  <ref_pdb>  (11) 
x0051_0B

>  <ref_mols>  (11) 
x0051_0B

>  <original SMILES>  (11) 
[H]c1c(F)c(F)c(F)c([H])c1C([H])(N1C([H])([H])C(=O)N([H])C([H])([H])C1([H])[H])C([H])([H])[H]

>  <index>  (11) 
3884.0

>  <∆∆G>  (11) 
-2.655937

>  <comRMSD>  (11) 
0.552988

>  <N_constrained_atoms>  (11) 
17.0

>  <N_unconstrained_atoms>  (11) 
1.0

>  <LE>  (11) 
0.147552

>  <percent_hybrid>  (11) 
19.0

>  <largest_ring>  (11) 
6.0

>  <N_HA>  (11) 
18.0

>  <N_rotatable_bonds>  (11) 
3.0

>  <max_hit_Tanimoto>  (11) 
0.423077

>  <N_interactions_kept>  (11) 
3.0

>  <N_interactions_lost>  (11) 
1.0

>  <interaction_uniqueness_metric>  (11) 
0.596973

>  <N_interactions>  (11) 
6.0

>  <N_PAINS>  (11) 
0.0

>  <UFF_Gibbs>  (11) 
681.324242

>  <strain_per_HA>  (11) 
37.851136

>  <ad_hoc_penalty>  (11) 
-34.230346

>  <cluster>  (11) 
4584.0

>  <intxn_cluster>  (11) 
0.0

>  <keep>  (11) 
1.0

>  <hydroph_interaction:GLN:74>  (11) 
0.0

>  <hydroph_interaction:THR:118>  (11) 
0.0

>  <hydroph_interaction:ILE:123>  (11) 
0.0

>  <hydroph_interaction:THR:166>  (11) 
0.0

>  <hbond:GLN:167>  (11) 
0.0

>  <hydroph_interaction:ALA:88>  (11) 
0.0

>  <hydroph_interaction:ASP:120>  (11) 
0.0

>  <hydroph_interaction:GLN:167>  (11) 
0.0

>  <hbond:THR:118>  (11) 
0.0

>  <hydroph_interaction:ALA:164>  (11) 
0.0

>  <hbond:ASP:120>  (11) 
0.0

>  <hbond:THR:166>  (11) 
0.0

>  <hydroph_interaction:LEU:76>  (11) 
0.0

>  <hbond:ILE:165>  (11) 
0.0

>  <halogenbond:GLN:74>  (11) 
1.0

>  <hbond:GLN:74>  (11) 
0.0

>  <hbond:LYS:73>  (11) 
0.0

>  <pistack:TRP:69>  (11) 
0.0

>  <hbond:TRP:83>  (11) 
0.0

>  <hydroph_interaction:TRP:83>  (11) 
1.0

>  <hydroph_interaction:TRP:69>  (11) 
2.0

>  <pication:TRP:69>  (11) 
0.0

>  <hydroph_interaction:PRO:82>  (11) 
1.0

>  <halogenbond:LYS:73>  (11) 
0.0

>  <hydroph_interaction:TYR:68>  (11) 
0.0

>  <halogenbond:GLN:167>  (11) 
0.0

>  <hydroph_interaction:PHE:116>  (11) 
0.0

>  <hbond:TYR:68>  (11) 
1.0

>  <hbond:ASP:122>  (11) 
0.0

>  <pistack:PHE:116>  (11) 
0.0

>  <hydroph_interaction:VAL:154>  (11) 
0.0

>  <hydroph_interaction:ASP:75>  (11) 
0.0

>  <hbond:GLY:121>  (11) 
0.0

>  <hydroph_interaction:ASN:152>  (11) 
0.0

>  <halogenbond:ILE:165>  (11) 
0.0

$$$$
Z104585092-x0884S4-Z198195906S4
     RDKit          3D

 37 38  0  0  0  0  0  0  0  0999 V2000
  -13.5610   -9.3730   -7.1840 C   0  0  0  0  0  0  0  0  0  0  0  0
  -12.3790  -10.0790   -7.5190 C   0  0  0  0  0  0  0  0  0  0  0  0
  -12.4060  -11.4870   -7.5480 C   0  0  0  0  0  0  0  0  0  0  0  0
  -11.2820  -12.2440   -7.8730 C   0  0  0  0  0  0  0  0  0  0  0  0
  -10.0660  -11.6530   -8.1790 C   0  0  0  0  0  0  0  0  0  0  0  0
   -9.9590  -10.2650   -8.1640 C   0  0  0  0  0  0  0  0  0  0  0  0
  -11.1960   -9.4090   -7.8230 C   0  0  0  0  0  0  0  0  0  0  0  0
  -10.9830   -8.0080   -7.8650 C   0  0  0  0  0  0  0  0  0  0  0  0
  -10.6610   -7.5670   -9.2170 N   0  0  0  0  0  0  0  0  0  0  0  0
  -11.0130   -6.2540   -9.8260 C   0  0  0  0  0  0  0  0  0  0  0  0
  -12.3170   -5.8470  -10.2970 O   0  0  0  0  0  0  0  0  0  0  0  0
   -9.9090   -5.4200   -9.9380 C   0  0  0  0  0  0  0  0  0  0  0  0
   -8.8290   -6.2390  -10.5120 N   0  0  0  0  0  0  0  0  0  0  0  0
   -7.5720   -5.7530  -10.5820 C   0  0  0  0  0  0  0  0  0  0  0  0
   -6.4420   -6.7290  -10.3510 C   0  0  0  0  0  0  0  0  0  0  0  0
   -5.1250   -6.2790  -10.4180 C   0  0  0  0  0  0  0  0  0  0  0  0
   -4.8630   -4.9390  -10.6960 C   0  0  0  0  0  0  0  0  0  0  0  0
   -5.9000   -4.0210  -10.9120 C   0  0  0  0  0  0  0  0  0  0  0  0
   -7.2420   -4.4130  -10.8580 C   0  0  0  0  0  0  0  0  0  0  0  0
  -13.5210   -9.0200   -6.1460 H   0  0  0  0  0  0  0  0  0  0  0  0
  -13.6990   -8.4920   -7.8190 H   0  0  0  0  0  0  0  0  0  0  0  0
  -14.4380  -10.0150   -7.3190 H   0  0  0  0  0  0  0  0  0  0  0  0
  -13.3240  -12.0140   -7.3150 H   0  0  0  0  0  0  0  0  0  0  0  0
  -11.3350  -13.3310   -7.8910 H   0  0  0  0  0  0  0  0  0  0  0  0
   -9.2330  -12.2830   -8.4240 H   0  0  0  0  0  0  0  0  0  0  0  0
   -8.9880   -9.8660   -8.4110 H   0  0  0  0  0  0  0  0  0  0  0  0
  -11.8500   -7.4530   -7.4850 H   0  0  0  0  0  0  0  0  0  0  0  0
  -10.1380   -7.7460   -7.2160 H   0  0  0  0  0  0  0  0  0  0  0  0
   -9.9970   -8.1210   -9.7560 H   0  0  0  0  0  0  0  0  0  0  0  0
   -9.9980   -4.4990  -10.5100 H   0  0  0  0  0  0  0  0  0  0  0  0
   -9.6470   -5.0640   -8.9360 H   0  0  0  0  0  0  0  0  0  0  0  0
   -8.8150   -7.1550  -10.0690 H   0  0  0  0  0  0  0  0  0  0  0  0
   -6.6480   -7.7760  -10.1360 H   0  0  0  0  0  0  0  0  0  0  0  0
   -4.2950   -6.9630  -10.2570 H   0  0  0  0  0  0  0  0  0  0  0  0
   -3.8340   -4.6020  -10.7440 H   0  0  0  0  0  0  0  0  0  0  0  0
   -5.6590   -2.9820  -11.1260 H   0  0  0  0  0  0  0  0  0  0  0  0
   -8.0180   -3.6720  -11.0320 H   0  0  0  0  0  0  0  0  0  0  0  0
  1  2  1  0
  2  3  2  0
  3  4  1  0
  4  5  2  0
  5  6  1  0
  6  7  2  0
  7  8  1  0
  8  9  1  0
  9 10  1  0
 10 11  2  0
 10 12  1  0
 12 13  1  0
 13 14  1  0
 14 15  2  0
 15 16  1  0
 16 17  2  0
 17 18  1  0
 18 19  2  0
  7  2  1  0
 19 14  1  0
  1 20  1  0
  1 21  1  0
  1 22  1  0
  3 23  1  0
  4 24  1  0
  5 25  1  0
  6 26  1  0
  8 27  1  0
  8 28  1  0
  9 29  1  0
 12 30  1  0
 12 31  1  0
 13 32  1  0
 15 33  1  0
 16 34  1  0
 17 35  1  0
 18 36  1  0
 19 37  1  0
A    1
 C1 
A    2
 C2 
A    3
 C3 
A    4
 C4 
A    5
 C5 
A    6
 C6 
A    7
 C7 
A    8
 C8 
A    9
 N1 
A   10
 C9 
A   11
 O1 
A   12
 C10
A   13
 N2 
A   14
 C11
A   15
 C12
A   16
 C13
A   17
 C14
A   18
 C15
A   19
 C16
A   20
 H1 
A   21
 H2 
A   22
 H3 
A   23
 H4 
A   24
 H5 
A   25
 H6 
A   26
 H7 
A   27
 H8 
A   28
 H9 
A   29
 H10
A   30
 H11
A   31
 H12
A   32
 H13
A   33
 H14
A   34
 H15
A   35
 H16
A   36
 H17
A   37
 H18
M  END
>  <ref_pdb>  (12) 
x0051_0B

>  <ref_mols>  (12) 
x0051_0B

>  <original SMILES>  (12) 
[H]c1c([H])c([H])c(N([H])C([H])([H])C(=O)N([H])C([H])([H])c2c([H])c([H])c([H])c([H])c2C([H])([H])[H])c([H])c1[H]

>  <index>  (12) 
4354.0

>  <∆∆G>  (12) 
-7.443902

>  <comRMSD>  (12) 
0.822475

>  <N_constrained_atoms>  (12) 
14.0

>  <N_unconstrained_atoms>  (12) 
7.0

>  <LE>  (12) 
0.354472

>  <percent_hybrid>  (12) 
16.0

>  <largest_ring>  (12) 
6.0

>  <N_HA>  (12) 
19.0

>  <N_rotatable_bonds>  (12) 
6.0

>  <max_hit_Tanimoto>  (12) 
0.458824

>  <N_interactions_kept>  (12) 
0.0

>  <N_interactions_lost>  (12) 
1.5

>  <interaction_uniqueness_metric>  (12) 
0.501426

>  <N_interactions>  (12) 
7.0

>  <N_PAINS>  (12) 
0.0

>  <UFF_Gibbs>  (12) 
174.094142

>  <strain_per_HA>  (12) 
9.162801

>  <ad_hoc_penalty>  (12) 
-34.119056

>  <cluster>  (12) 
4413.0

>  <intxn_cluster>  (12) 
13.0

>  <keep>  (12) 
1.0

>  <hydroph_interaction:GLN:74>  (12) 
0.0

>  <hydroph_interaction:THR:118>  (12) 
1.0

>  <hydroph_interaction:ILE:123>  (12) 
2.0

>  <hydroph_interaction:THR:166>  (12) 
0.0

>  <hbond:GLN:167>  (12) 
0.0

>  <hydroph_interaction:ALA:88>  (12) 
0.0

>  <hydroph_interaction:ASP:120>  (12) 
1.0

>  <hydroph_interaction:GLN:167>  (12) 
0.0

>  <hbond:THR:118>  (12) 
0.0

>  <hydroph_interaction:ALA:164>  (12) 
0.0

>  <hbond:ASP:120>  (12) 
0.0

>  <hbond:THR:166>  (12) 
0.0

>  <hydroph_interaction:LEU:76>  (12) 
0.0

>  <hbond:ILE:165>  (12) 
0.0

>  <halogenbond:GLN:74>  (12) 
0.0

>  <hbond:GLN:74>  (12) 
0.0

>  <hbond:LYS:73>  (12) 
0.0

>  <pistack:TRP:69>  (12) 
0.0

>  <hbond:TRP:83>  (12) 
0.0

>  <hydroph_interaction:TRP:83>  (12) 
0.0

>  <hydroph_interaction:TRP:69>  (12) 
0.0

>  <pication:TRP:69>  (12) 
0.0

>  <hydroph_interaction:PRO:82>  (12) 
0.0

>  <halogenbond:LYS:73>  (12) 
0.0

>  <hydroph_interaction:TYR:68>  (12) 
0.0

>  <halogenbond:GLN:167>  (12) 
0.0

>  <hydroph_interaction:PHE:116>  (12) 
2.0

>  <hbond:TYR:68>  (12) 
0.0

>  <hbond:ASP:122>  (12) 
0.0

>  <pistack:PHE:116>  (12) 
0.0

>  <hydroph_interaction:VAL:154>  (12) 
1.0

>  <hydroph_interaction:ASP:75>  (12) 
0.0

>  <hbond:GLY:121>  (12) 
0.0

>  <hydroph_interaction:ASN:152>  (12) 
0.0

>  <halogenbond:ILE:165>  (12) 
0.0

$$$$
PV-006506921035-x0214S3-Z2102283482
     RDKit          3D

 49 52  0  0  0  0  0  0  0  0999 V2000
  -11.4780  -14.7080  -10.0930 N   0  0  0  0  0  0  0  0  0  0  0  0
  -12.5290  -13.4120  -10.0700 S   0  0  0  0  0  6  0  0  0  0  0  0
  -13.8050  -13.9840   -9.7210 O   0  0  0  0  0  0  0  0  0  0  0  0
  -12.3750  -12.6700  -11.2970 O   0  0  0  0  0  0  0  0  0  0  0  0
  -11.8760  -12.4560   -8.7290 C   0  0  0  0  0  0  0  0  0  0  0  0
  -10.4970  -11.8940   -9.0550 C   0  0  0  0  0  0  0  0  0  0  0  0
  -10.2350  -10.4970   -8.9280 C   0  0  0  0  0  0  0  0  0  0  0  0
   -9.1150   -9.9080   -9.4800 C   0  0  0  0  0  0  0  0  0  0  0  0
   -8.8540   -8.5370   -9.3670 C   0  0  0  0  0  0  0  0  0  0  0  0
   -9.7250   -7.7340   -8.6850 C   0  0  0  0  0  0  0  0  0  0  0  0
  -10.8580   -8.3180   -8.1180 C   0  0  0  0  0  0  0  0  0  0  0  0
  -11.1230   -9.6900   -8.2320 C   0  0  0  0  0  0  0  0  0  0  0  0
  -12.2180  -10.2730   -7.6850 N   0  0  0  0  0  0  0  0  0  0  0  0
  -12.7790   -9.8610   -6.4140 C   0  0  0  0  0  0  0  0  0  0  0  0
  -14.2460   -9.5540   -6.4720 C   0  0  0  0  0  0  0  0  0  0  0  0
  -15.1440  -10.5090   -5.7460 C   0  0  0  0  0  0  0  0  0  0  0  0
  -16.6140  -10.2370   -5.7850 C   0  0  0  0  0  0  0  0  0  0  0  0
  -17.0760   -9.1140   -6.4850 C   0  0  0  0  0  0  0  0  0  0  0  0
  -16.1960   -8.2570   -7.1440 C   0  0  0  0  0  0  0  0  0  0  0  0
  -14.8050   -8.4620   -7.1510 C   0  0  0  0  0  0  0  0  0  0  0  0
  -13.9990   -7.5290   -7.8900 C   0  0  0  0  0  0  0  0  0  0  0  0
  -14.1540   -7.6300   -9.2430 C   0  0  0  0  0  0  0  0  0  0  0  0
  -13.4640   -6.8200  -10.0620 C   0  0  0  0  0  0  0  0  0  0  0  0
  -12.5760   -5.8660   -9.5780 C   0  0  0  0  0  0  0  0  0  0  0  0
  -12.4000   -5.7420   -8.2060 C   0  0  0  0  0  0  0  0  0  0  0  0
  -13.1210   -6.5810   -7.3510 C   0  0  0  0  0  0  0  0  0  0  0  0
  -12.8620  -11.3590   -8.4130 C   0  0  0  0  0  0  0  0  0  0  0  0
  -11.9740  -15.5670   -9.8520 H   0  0  0  0  0  0  0  0  0  0  0  0
  -11.0460  -14.7390  -11.0200 H   0  0  0  0  0  0  0  0  0  0  0  0
  -11.7880  -13.1410   -7.8840 H   0  0  0  0  0  0  0  0  0  0  0  0
   -9.7840  -12.4190   -8.4080 H   0  0  0  0  0  0  0  0  0  0  0  0
  -10.2200  -12.1900  -10.0730 H   0  0  0  0  0  0  0  0  0  0  0  0
   -8.4130  -10.5340  -10.0250 H   0  0  0  0  0  0  0  0  0  0  0  0
   -7.9630   -8.1110   -9.8170 H   0  0  0  0  0  0  0  0  0  0  0  0
   -9.5420   -6.6690   -8.5840 H   0  0  0  0  0  0  0  0  0  0  0  0
  -11.5290   -7.6610   -7.5820 H   0  0  0  0  0  0  0  0  0  0  0  0
  -12.6160  -10.6870   -5.7110 H   0  0  0  0  0  0  0  0  0  0  0  0
  -12.2380   -9.0080   -5.9880 H   0  0  0  0  0  0  0  0  0  0  0  0
  -14.7450  -11.3760   -5.2070 H   0  0  0  0  0  0  0  0  0  0  0  0
  -17.3090  -10.8990   -5.2770 H   0  0  0  0  0  0  0  0  0  0  0  0
  -18.1410   -8.8950   -6.5250 H   0  0  0  0  0  0  0  0  0  0  0  0
  -16.5980   -7.4030   -7.6740 H   0  0  0  0  0  0  0  0  0  0  0  0
  -14.8360   -8.3630   -9.6660 H   0  0  0  0  0  0  0  0  0  0  0  0
  -13.6370   -6.9500  -11.0980 H   0  0  0  0  0  0  0  0  0  0  0  0
  -12.0270   -5.2240  -10.2660 H   0  0  0  0  0  0  0  0  0  0  0  0
  -11.7140   -5.0030   -7.8010 H   0  0  0  0  0  0  0  0  0  0  0  0
  -12.9920   -6.4910   -6.2750 H   0  0  0  0  0  0  0  0  0  0  0  0
  -13.7030  -11.7420   -7.8210 H   0  0  0  0  0  0  0  0  0  0  0  0
  -13.2950  -10.9720   -9.3440 H   0  0  0  0  0  0  0  0  0  0  0  0
  1  2  1  0
  2  3  2  0
  2  4  2  0
  2  5  1  0
  5  6  1  0
  6  7  1  0
  7  8  2  0
  8  9  1  0
  9 10  2  0
 10 11  1  0
 11 12  2  0
 12 13  1  0
 13 14  1  0
 14 15  1  0
 15 16  2  0
 16 17  1  0
 17 18  2  0
 18 19  1  0
 19 20  2  0
 20 21  1  0
 21 22  2  0
 22 23  1  0
 23 24  2  0
 24 25  1  0
 25 26  2  0
 13 27  1  0
 27  5  1  0
 12  7  1  0
 20 15  1  0
 26 21  1  0
  1 28  1  0
  1 29  1  0
  5 30  1  0
  6 31  1  0
  6 32  1  0
  8 33  1  0
  9 34  1  0
 10 35  1  0
 11 36  1  0
 14 37  1  0
 14 38  1  0
 16 39  1  0
 17 40  1  0
 18 41  1  0
 19 42  1  0
 22 43  1  0
 23 44  1  0
 24 45  1  0
 25 46  1  0
 26 47  1  0
 27 48  1  0
 27 49  1  0
A    1
 N1 
A    2
 S1 
A    3
 O1 
A    4
 O2 
A    5
 C1 
A    6
 C2 
A    7
 C3 
A    8
 C4 
A    9
 C5 
A   10
 C6 
A   11
 C7 
A   12
 C8 
A   13
 N2 
A   14
 C9 
A   15
 C10
A   16
 C11
A   17
 C12
A   18
 C13
A   19
 C14
A   20
 C15
A   21
 C16
A   22
 C17
A   23
 C18
A   24
 C19
A   25
 C20
A   26
 C21
A   27
 C22
A   28
 H1 
A   29
 H2 
A   30
 H3 
A   31
 H4 
A   32
 H5 
A   33
 H6 
A   34
 H7 
A   35
 H8 
A   36
 H9 
A   37
 H10
A   38
 H11
A   39
 H12
A   40
 H13
A   41
 H14
A   42
 H15
A   43
 H16
A   44
 H17
A   45
 H18
A   46
 H19
A   47
 H20
A   48
 H21
A   49
 H22
M  END
>  <ref_pdb>  (13) 
x0051_0B

>  <ref_mols>  (13) 
x0051_0B

>  <original SMILES>  (13) 
[H]c1c([H])c([H])c(-c2c([H])c([H])c([H])c([H])c2C([H])([H])N2c3c([H])c([H])c([H])c([H])c3C([H])([H])C([H])(S(=O)(=O)N([H])[H])C2([H])[H])c([H])c1[H]

>  <index>  (13) 
2498.0

>  <∆∆G>  (13) 
-5.213556

>  <comRMSD>  (13) 
0.710048

>  <N_constrained_atoms>  (13) 
27.0

>  <N_unconstrained_atoms>  (13) 
1.0

>  <LE>  (13) 
0.186198

>  <percent_hybrid>  (13) 
16.0

>  <largest_ring>  (13) 
6.0

>  <N_HA>  (13) 
27.0

>  <N_rotatable_bonds>  (13) 
5.0

>  <max_hit_Tanimoto>  (13) 
0.4971

>  <N_interactions_kept>  (13) 
1.0

>  <N_interactions_lost>  (13) 
1.0

>  <interaction_uniqueness_metric>  (13) 
0.111372

>  <N_interactions>  (13) 
7.0

>  <N_PAINS>  (13) 
0.0

>  <UFF_Gibbs>  (13) 
111.060941

>  <strain_per_HA>  (13) 
4.113353

>  <ad_hoc_penalty>  (13) 
-33.265212

>  <cluster>  (13) 
5173.0

>  <intxn_cluster>  (13) 
1.0

>  <keep>  (13) 
1.0

>  <hydroph_interaction:GLN:74>  (13) 
0.0

>  <hydroph_interaction:THR:118>  (13) 
1.0

>  <hydroph_interaction:ILE:123>  (13) 
4.0

>  <hydroph_interaction:THR:166>  (13) 
1.0

>  <hbond:GLN:167>  (13) 
0.0

>  <hydroph_interaction:ALA:88>  (13) 
0.0

>  <hydroph_interaction:ASP:120>  (13) 
0.0

>  <hydroph_interaction:GLN:167>  (13) 
0.0

>  <hbond:THR:118>  (13) 
0.0

>  <hydroph_interaction:ALA:164>  (13) 
0.0

>  <hbond:ASP:120>  (13) 
1.0

>  <hbond:THR:166>  (13) 
0.0

>  <hydroph_interaction:LEU:76>  (13) 
0.0

>  <hbond:ILE:165>  (13) 
0.0

>  <halogenbond:GLN:74>  (13) 
0.0

>  <hbond:GLN:74>  (13) 
0.0

>  <hbond:LYS:73>  (13) 
0.0

>  <pistack:TRP:69>  (13) 
0.0

>  <hbond:TRP:83>  (13) 
0.0

>  <hydroph_interaction:TRP:83>  (13) 
0.0

>  <hydroph_interaction:TRP:69>  (13) 
0.0

>  <pication:TRP:69>  (13) 
0.0

>  <hydroph_interaction:PRO:82>  (13) 
0.0

>  <halogenbond:LYS:73>  (13) 
0.0

>  <hydroph_interaction:TYR:68>  (13) 
0.0

>  <halogenbond:GLN:167>  (13) 
0.0

>  <hydroph_interaction:PHE:116>  (13) 
0.0

>  <hbond:TYR:68>  (13) 
0.0

>  <hbond:ASP:122>  (13) 
0.0

>  <pistack:PHE:116>  (13) 
0.0

>  <hydroph_interaction:VAL:154>  (13) 
0.0

>  <hydroph_interaction:ASP:75>  (13) 
0.0

>  <hbond:GLY:121>  (13) 
0.0

>  <hydroph_interaction:ASN:152>  (13) 
0.0

>  <halogenbond:ILE:165>  (13) 
0.0

$$$$
Z2618224193-x0214S1-x0214S2
     RDKit          3D

 27 28  0  0  0  0  0  0  0  0999 V2000
   -9.7810   -9.7940   -7.6510 N   0  0  0  0  0  0  0  0  0  0  0  0
  -10.5700   -9.1680   -6.7220 C   0  0  0  0  0  0  0  0  0  0  0  0
  -10.0530   -8.3820   -5.9360 O   0  0  0  0  0  0  0  0  0  0  0  0
  -12.0680   -9.5000   -6.7330 C   0  0  0  0  0  0  0  0  0  0  0  0
  -12.5410   -9.9130   -5.3440 C   0  0  0  0  0  0  0  0  0  0  0  0
  -13.8940   -9.4160   -5.1710 O   0  0  0  0  0  0  0  0  0  0  0  0
  -14.2930   -8.8580   -6.4280 C   0  0  0  0  0  0  0  0  0  0  0  0
  -12.9810   -8.2940   -6.9070 C   0  0  0  0  0  0  0  0  0  0  0  0
  -12.8640   -7.6320   -8.2540 C   0  0  0  0  0  0  0  0  0  0  0  0
  -13.2560   -8.1500   -9.4910 C   0  0  0  0  0  0  0  0  0  0  0  0
  -13.0550   -7.3960  -10.6450 C   0  0  0  0  0  0  0  0  0  0  0  0
  -12.4650   -6.1340  -10.5640 C   0  0  0  0  0  0  0  0  0  0  0  0
  -12.0880   -5.6200   -9.3390 C   0  0  0  0  0  0  0  0  0  0  0  0
  -12.2880   -6.3640   -8.1960 C   0  0  0  0  0  0  0  0  0  0  0  0
   -9.3250   -9.2030   -8.3350 H   0  0  0  0  0  0  0  0  0  0  0  0
   -9.8320  -10.7880   -7.8340 H   0  0  0  0  0  0  0  0  0  0  0  0
  -12.2240  -10.2930   -7.4780 H   0  0  0  0  0  0  0  0  0  0  0  0
  -11.9250   -9.4460   -4.5680 H   0  0  0  0  0  0  0  0  0  0  0  0
  -12.5410  -10.9940   -5.1680 H   0  0  0  0  0  0  0  0  0  0  0  0
  -14.7410   -9.6220   -7.0710 H   0  0  0  0  0  0  0  0  0  0  0  0
  -15.0340   -8.0740   -6.2330 H   0  0  0  0  0  0  0  0  0  0  0  0
  -12.7250   -7.4960   -6.1990 H   0  0  0  0  0  0  0  0  0  0  0  0
  -13.7140   -9.1340   -9.5800 H   0  0  0  0  0  0  0  0  0  0  0  0
  -13.3540   -7.7930  -11.6120 H   0  0  0  0  0  0  0  0  0  0  0  0
  -12.3050   -5.5530  -11.4660 H   0  0  0  0  0  0  0  0  0  0  0  0
  -11.6340   -4.6320   -9.2750 H   0  0  0  0  0  0  0  0  0  0  0  0
  -11.9820   -5.9450   -7.2380 H   0  0  0  0  0  0  0  0  0  0  0  0
  1  2  1  0
  2  3  2  0
  2  4  1  0
  4  5  1  0
  5  6  1  0
  6  7  1  0
  7  8  1  0
  8  9  1  0
  9 10  2  0
 10 11  1  0
 11 12  2  0
 12 13  1  0
 13 14  2  0
  8  4  1  0
 14  9  1  0
  1 15  1  0
  1 16  1  0
  4 17  1  0
  5 18  1  0
  5 19  1  0
  7 20  1  0
  7 21  1  0
  8 22  1  0
 10 23  1  0
 11 24  1  0
 12 25  1  0
 13 26  1  0
 14 27  1  0
A    1
 N1 
A    2
 C1 
A    3
 O1 
A    4
 C2 
A    5
 C3 
A    6
 O2 
A    7
 C4 
A    8
 C5 
A    9
 C6 
A   10
 C7 
A   11
 C8 
A   12
 C9 
A   13
 C10
A   14
 C11
A   15
 H1 
A   16
 H2 
A   17
 H3 
A   18
 H4 
A   19
 H5 
A   20
 H6 
A   21
 H7 
A   22
 H8 
A   23
 H9 
A   24
 H10
A   25
 H11
A   26
 H12
A   27
 H13
M  END
>  <ref_pdb>  (14) 
x0051_0B

>  <ref_mols>  (14) 
x0051_0B

>  <original SMILES>  (14) 
[H]c1c([H])c([H])c(C2([H])C([H])([H])OC([H])([H])C2([H])C(=O)N([H])[H])c([H])c1[H]

>  <index>  (14) 
7180.0

>  <∆∆G>  (14) 
-3.369362

>  <comRMSD>  (14) 
0.752854

>  <N_constrained_atoms>  (14) 
13.0

>  <N_unconstrained_atoms>  (14) 
1.0

>  <LE>  (14) 
0.240669

>  <percent_hybrid>  (14) 
17.0

>  <largest_ring>  (14) 
6.0

>  <N_HA>  (14) 
14.0

>  <N_rotatable_bonds>  (14) 
2.0

>  <max_hit_Tanimoto>  (14) 
0.362522

>  <N_interactions_kept>  (14) 
0.0

>  <N_interactions_lost>  (14) 
0.0

>  <interaction_uniqueness_metric>  (14) 
0.072264

>  <N_interactions>  (14) 
5.0

>  <N_PAINS>  (14) 
0.0

>  <UFF_Gibbs>  (14) 
33.911286

>  <strain_per_HA>  (14) 
2.422217

>  <ad_hoc_penalty>  (14) 
-33.015884

>  <cluster>  (14) 
3142.0

>  <intxn_cluster>  (14) 
1.0

>  <keep>  (14) 
1.0

>  <hydroph_interaction:GLN:74>  (14) 
0.0

>  <hydroph_interaction:THR:118>  (14) 
0.0

>  <hydroph_interaction:ILE:123>  (14) 
2.0

>  <hydroph_interaction:THR:166>  (14) 
1.0

>  <hbond:GLN:167>  (14) 
0.0

>  <hydroph_interaction:ALA:88>  (14) 
0.0

>  <hydroph_interaction:ASP:120>  (14) 
0.0

>  <hydroph_interaction:GLN:167>  (14) 
0.0

>  <hbond:THR:118>  (14) 
2.0

>  <hydroph_interaction:ALA:164>  (14) 
0.0

>  <hbond:ASP:120>  (14) 
0.0

>  <hbond:THR:166>  (14) 
0.0

>  <hydroph_interaction:LEU:76>  (14) 
0.0

>  <hbond:ILE:165>  (14) 
0.0

>  <halogenbond:GLN:74>  (14) 
0.0

>  <hbond:GLN:74>  (14) 
0.0

>  <hbond:LYS:73>  (14) 
0.0

>  <pistack:TRP:69>  (14) 
0.0

>  <hbond:TRP:83>  (14) 
0.0

>  <hydroph_interaction:TRP:83>  (14) 
0.0

>  <hydroph_interaction:TRP:69>  (14) 
0.0

>  <pication:TRP:69>  (14) 
0.0

>  <hydroph_interaction:PRO:82>  (14) 
0.0

>  <halogenbond:LYS:73>  (14) 
0.0

>  <hydroph_interaction:TYR:68>  (14) 
0.0

>  <halogenbond:GLN:167>  (14) 
0.0

>  <hydroph_interaction:PHE:116>  (14) 
0.0

>  <hbond:TYR:68>  (14) 
0.0

>  <hbond:ASP:122>  (14) 
0.0

>  <pistack:PHE:116>  (14) 
0.0

>  <hydroph_interaction:VAL:154>  (14) 
0.0

>  <hydroph_interaction:ASP:75>  (14) 
0.0

>  <hbond:GLY:121>  (14) 
0.0

>  <hydroph_interaction:ASN:152>  (14) 
0.0

>  <halogenbond:ILE:165>  (14) 
0.0

$$$$
Z2287516499-x0214S1-x0214S2
     RDKit          3D

 34 35  0  0  0  0  0  0  0  0999 V2000
  -10.0700  -11.8990   -7.8530 C   0  0  0  0  0  0  0  0  0  0  0  0
   -9.4380  -10.6670   -7.7290 C   0  0  0  0  0  0  0  0  0  0  0  0
  -10.3280   -9.6780   -7.2710 O   0  0  0  0  0  0  0  0  0  0  0  0
  -11.6160  -10.0710   -7.2450 C   0  0  0  0  0  0  0  0  0  0  0  0
  -12.0780  -11.0720   -7.7740 O   0  0  0  0  0  0  0  0  0  0  0  0
  -12.3320   -9.1640   -6.5210 C   0  0  0  0  0  0  0  0  0  0  0  0
  -12.8540   -9.3000   -5.1160 C   0  0  0  0  0  0  0  0  0  0  0  0
  -13.9770   -8.3430   -5.1620 C   0  0  0  0  0  0  0  0  0  0  0  0
  -14.6300   -8.4580   -6.4040 C   0  0  0  0  0  0  0  0  0  0  0  0
  -13.6320   -8.8500   -7.3160 C   0  0  0  0  0  0  0  0  0  0  0  0
  -13.2630   -7.9450   -8.3090 C   0  0  0  0  0  0  0  0  0  0  0  0
  -13.4080   -8.2900   -9.6670 C   0  0  0  0  0  0  0  0  0  0  0  0
  -12.9960   -7.3260  -10.7320 C   0  0  0  0  0  0  0  0  0  0  0  0
  -12.4370   -6.0130  -10.2830 C   0  0  0  0  0  0  0  0  0  0  0  0
  -12.3450   -5.7690   -8.9260 C   0  0  0  0  0  0  0  0  0  0  0  0
  -12.7360   -6.6830   -7.9390 C   0  0  0  0  0  0  0  0  0  0  0  0
  -10.7200  -12.0820   -6.9950 H   0  0  0  0  0  0  0  0  0  0  0  0
  -10.6740  -11.9480   -8.7320 H   0  0  0  0  0  0  0  0  0  0  0  0
   -9.3730  -12.7270   -7.9370 H   0  0  0  0  0  0  0  0  0  0  0  0
   -9.0870  -10.3310   -8.6990 H   0  0  0  0  0  0  0  0  0  0  0  0
   -8.6060  -10.7200   -7.0190 H   0  0  0  0  0  0  0  0  0  0  0  0
  -11.7390   -8.2470   -6.4710 H   0  0  0  0  0  0  0  0  0  0  0  0
  -12.0670   -8.9680   -4.4270 H   0  0  0  0  0  0  0  0  0  0  0  0
  -13.0800  -10.3550   -4.9260 H   0  0  0  0  0  0  0  0  0  0  0  0
  -13.6360   -7.3250   -4.9800 H   0  0  0  0  0  0  0  0  0  0  0  0
  -14.6680   -8.4750   -4.3300 H   0  0  0  0  0  0  0  0  0  0  0  0
  -15.5250   -9.0730   -6.4140 H   0  0  0  0  0  0  0  0  0  0  0  0
  -15.0180   -7.4740   -6.6820 H   0  0  0  0  0  0  0  0  0  0  0  0
  -13.9620   -9.7770   -7.7990 H   0  0  0  0  0  0  0  0  0  0  0  0
  -13.8180   -9.2590   -9.9390 H   0  0  0  0  0  0  0  0  0  0  0  0
  -13.1000   -7.5800  -11.7860 H   0  0  0  0  0  0  0  0  0  0  0  0
  -12.1210   -5.2850  -11.0450 H   0  0  0  0  0  0  0  0  0  0  0  0
  -11.9410   -4.8020   -8.6040 H   0  0  0  0  0  0  0  0  0  0  0  0
  -12.6260   -6.4080   -6.8900 H   0  0  0  0  0  0  0  0  0  0  0  0
  1  2  1  0
  2  3  1  0
  3  4  1  0
  4  5  2  0
  4  6  1  0
  6  7  1  0
  7  8  1  0
  8  9  1  0
  9 10  1  0
 10 11  1  0
 11 12  2  0
 12 13  1  0
 13 14  2  0
 14 15  1  0
 15 16  2  0
 10  6  1  0
 16 11  1  0
  1 17  1  0
  1 18  1  0
  1 19  1  0
  2 20  1  0
  2 21  1  0
  6 22  1  0
  7 23  1  0
  7 24  1  0
  8 25  1  0
  8 26  1  0
  9 27  1  0
  9 28  1  0
 10 29  1  0
 12 30  1  0
 13 31  1  0
 14 32  1  0
 15 33  1  0
 16 34  1  0
A    1
 C1 
A    2
 C2 
A    3
 O1 
A    4
 C3 
A    5
 O2 
A    6
 C4 
A    7
 C5 
A    8
 C6 
A    9
 C7 
A   10
 C8 
A   11
 C9 
A   12
 C10
A   13
 C11
A   14
 C12
A   15
 C13
A   16
 C14
A   17
 H1 
A   18
 H2 
A   19
 H3 
A   20
 H4 
A   21
 H5 
A   22
 H6 
A   23
 H7 
A   24
 H8 
A   25
 H9 
A   26
 H10
A   27
 H11
A   28
 H12
A   29
 H13
A   30
 H14
A   31
 H15
A   32
 H16
A   33
 H17
A   34
 H18
M  END
>  <ref_pdb>  (15) 
x0051_0B

>  <ref_mols>  (15) 
x0051_0B

>  <original SMILES>  (15) 
[H]c1c([H])c([H])c(C2([H])C([H])([H])C([H])([H])C([H])([H])C2([H])C(=O)OC([H])([H])C([H])([H])[H])c([H])c1[H]

>  <index>  (15) 
7182.0

>  <∆∆G>  (15) 
-3.404075

>  <comRMSD>  (15) 
0.587941

>  <N_constrained_atoms>  (15) 
15.0

>  <N_unconstrained_atoms>  (15) 
1.0

>  <LE>  (15) 
0.212755

>  <percent_hybrid>  (15) 
27.0

>  <largest_ring>  (15) 
6.0

>  <N_HA>  (15) 
16.0

>  <N_rotatable_bonds>  (15) 
4.0

>  <max_hit_Tanimoto>  (15) 
0.255738

>  <N_interactions_kept>  (15) 
0.0

>  <N_interactions_lost>  (15) 
0.0

>  <interaction_uniqueness_metric>  (15) 
0.093637

>  <N_interactions>  (15) 
6.0

>  <N_PAINS>  (15) 
0.0

>  <UFF_Gibbs>  (15) 
208.149511

>  <strain_per_HA>  (15) 
13.009263

>  <ad_hoc_penalty>  (15) 
-32.840699

>  <cluster>  (15) 
637.0

>  <intxn_cluster>  (15) 
1.0

>  <keep>  (15) 
1.0

>  <hydroph_interaction:GLN:74>  (15) 
1.0

>  <hydroph_interaction:THR:118>  (15) 
0.0

>  <hydroph_interaction:ILE:123>  (15) 
3.0

>  <hydroph_interaction:THR:166>  (15) 
1.0

>  <hbond:GLN:167>  (15) 
0.0

>  <hydroph_interaction:ALA:88>  (15) 
0.0

>  <hydroph_interaction:ASP:120>  (15) 
1.0

>  <hydroph_interaction:GLN:167>  (15) 
0.0

>  <hbond:THR:118>  (15) 
0.0

>  <hydroph_interaction:ALA:164>  (15) 
0.0

>  <hbond:ASP:120>  (15) 
0.0

>  <hbond:THR:166>  (15) 
0.0

>  <hydroph_interaction:LEU:76>  (15) 
0.0

>  <hbond:ILE:165>  (15) 
0.0

>  <halogenbond:GLN:74>  (15) 
0.0

>  <hbond:GLN:74>  (15) 
0.0

>  <hbond:LYS:73>  (15) 
0.0

>  <pistack:TRP:69>  (15) 
0.0

>  <hbond:TRP:83>  (15) 
0.0

>  <hydroph_interaction:TRP:83>  (15) 
0.0

>  <hydroph_interaction:TRP:69>  (15) 
0.0

>  <pication:TRP:69>  (15) 
0.0

>  <hydroph_interaction:PRO:82>  (15) 
0.0

>  <halogenbond:LYS:73>  (15) 
0.0

>  <hydroph_interaction:TYR:68>  (15) 
0.0

>  <halogenbond:GLN:167>  (15) 
0.0

>  <hydroph_interaction:PHE:116>  (15) 
0.0

>  <hbond:TYR:68>  (15) 
0.0

>  <hbond:ASP:122>  (15) 
0.0

>  <pistack:PHE:116>  (15) 
0.0

>  <hydroph_interaction:VAL:154>  (15) 
0.0

>  <hydroph_interaction:ASP:75>  (15) 
0.0

>  <hbond:GLY:121>  (15) 
0.0

>  <hydroph_interaction:ASN:152>  (15) 
0.0

>  <halogenbond:ILE:165>  (15) 
0.0

$$$$
PV-002796740857-x0214S3-Z198195906S11
     RDKit          3D

 21 22  0  0  0  0  0  0  0  0999 V2000
  -10.7790  -12.2460   -8.1250 C   0  0  0  0  0  0  0  0  0  0  0  0
  -12.0610  -11.9280   -7.6770 C   0  0  0  0  0  0  0  0  0  0  0  0
  -12.5900  -10.6580   -7.8780 C   0  0  0  0  0  0  0  0  0  0  0  0
  -11.8270   -9.6940   -8.5310 C   0  0  0  0  0  0  0  0  0  0  0  0
  -12.3900   -8.4300   -8.7550 C   0  0  0  0  0  0  0  0  0  0  0  0
  -11.9580   -7.1610   -8.0270 C   0  0  0  0  0  0  0  0  0  0  0  0
  -12.6220   -5.8700   -8.3810 C   0  0  0  0  0  0  0  0  0  0  0  0
  -13.6090   -5.8530   -9.3560 C   0  0  0  0  0  0  0  0  0  0  0  0
  -14.0500   -7.0850  -10.0710 N   0  0  0  0  0  0  0  0  0  0  0  0
  -13.4180   -8.2530   -9.7170 C   0  0  0  0  0  0  0  0  0  0  0  0
  -10.5220  -10.0230   -8.9650 C   0  0  0  0  0  0  0  0  0  0  0  0
  -10.0070  -11.2970   -8.7650 C   0  0  0  0  0  0  0  0  0  0  0  0
  -10.3810  -13.2530   -7.9640 H   0  0  0  0  0  0  0  0  0  0  0  0
  -12.6550  -12.6800   -7.1690 H   0  0  0  0  0  0  0  0  0  0  0  0
  -13.5690  -10.3130   -7.5800 H   0  0  0  0  0  0  0  0  0  0  0  0
  -11.1720   -7.1910   -7.2630 H   0  0  0  0  0  0  0  0  0  0  0  0
  -12.4060   -4.8900   -7.9380 H   0  0  0  0  0  0  0  0  0  0  0  0
  -14.1060   -4.9310   -9.6330 H   0  0  0  0  0  0  0  0  0  0  0  0
  -13.8060   -9.0860  -10.2940 H   0  0  0  0  0  0  0  0  0  0  0  0
   -9.9120   -9.2850   -9.4680 H   0  0  0  0  0  0  0  0  0  0  0  0
   -9.0100  -11.5460   -9.1110 H   0  0  0  0  0  0  0  0  0  0  0  0
  1  2  2  0
  2  3  1  0
  3  4  2  0
  4  5  1  0
  5  6  2  0
  6  7  1  0
  7  8  2  0
  8  9  1  0
  9 10  2  0
  4 11  1  0
 11 12  2  0
 12  1  1  0
 10  5  1  0
  1 13  1  0
  2 14  1  0
  3 15  1  0
  6 16  1  0
  7 17  1  0
  8 18  1  0
 10 19  1  0
 11 20  1  0
 12 21  1  0
A    1
 C1 
A    2
 C2 
A    3
 C3 
A    4
 C4 
A    5
 C5 
A    6
 C6 
A    7
 C7 
A    8
 C8 
A    9
 N1 
A   10
 C9 
A   11
 C10
A   12
 C11
A   13
 H1 
A   14
 H2 
A   15
 H3 
A   16
 H4 
A   17
 H5 
A   18
 H6 
A   19
 H7 
A   20
 H8 
A   21
 H9 
M  END
>  <ref_pdb>  (16) 
x0051_0B

>  <ref_mols>  (16) 
x0051_0B

>  <original SMILES>  (16) 
[H]c1nc([H])c(-c2c([H])c([H])c([H])c([H])c2[H])c([H])c1[H]

>  <index>  (16) 
4080.0

>  <∆∆G>  (16) 
-3.78732

>  <comRMSD>  (16) 
0.991716

>  <N_constrained_atoms>  (16) 
12.0

>  <N_unconstrained_atoms>  (16) 
1.0

>  <LE>  (16) 
0.291332

>  <percent_hybrid>  (16) 
50.0

>  <largest_ring>  (16) 
6.0

>  <N_HA>  (16) 
12.0

>  <N_rotatable_bonds>  (16) 
1.0

>  <max_hit_Tanimoto>  (16) 
0.184524

>  <N_interactions_kept>  (16) 
0.0

>  <N_interactions_lost>  (16) 
1.0

>  <interaction_uniqueness_metric>  (16) 
0.076209

>  <N_interactions>  (16) 
6.0

>  <N_PAINS>  (16) 
0.0

>  <UFF_Gibbs>  (16) 
40.958728

>  <strain_per_HA>  (16) 
3.413199

>  <ad_hoc_penalty>  (16) 
-31.970661

>  <cluster>  (16) 
1298.0

>  <intxn_cluster>  (16) 
4.0

>  <keep>  (16) 
1.0

>  <hydroph_interaction:GLN:74>  (16) 
0.0

>  <hydroph_interaction:THR:118>  (16) 
1.0

>  <hydroph_interaction:ILE:123>  (16) 
2.0

>  <hydroph_interaction:THR:166>  (16) 
0.0

>  <hbond:GLN:167>  (16) 
2.0

>  <hydroph_interaction:ALA:88>  (16) 
0.0

>  <hydroph_interaction:ASP:120>  (16) 
1.0

>  <hydroph_interaction:GLN:167>  (16) 
0.0

>  <hbond:THR:118>  (16) 
0.0

>  <hydroph_interaction:ALA:164>  (16) 
0.0

>  <hbond:ASP:120>  (16) 
0.0

>  <hbond:THR:166>  (16) 
0.0

>  <hydroph_interaction:LEU:76>  (16) 
0.0

>  <hbond:ILE:165>  (16) 
0.0

>  <halogenbond:GLN:74>  (16) 
0.0

>  <hbond:GLN:74>  (16) 
0.0

>  <hbond:LYS:73>  (16) 
0.0

>  <pistack:TRP:69>  (16) 
0.0

>  <hbond:TRP:83>  (16) 
0.0

>  <hydroph_interaction:TRP:83>  (16) 
0.0

>  <hydroph_interaction:TRP:69>  (16) 
0.0

>  <pication:TRP:69>  (16) 
0.0

>  <hydroph_interaction:PRO:82>  (16) 
0.0

>  <halogenbond:LYS:73>  (16) 
0.0

>  <hydroph_interaction:TYR:68>  (16) 
0.0

>  <halogenbond:GLN:167>  (16) 
0.0

>  <hydroph_interaction:PHE:116>  (16) 
0.0

>  <hbond:TYR:68>  (16) 
0.0

>  <hbond:ASP:122>  (16) 
0.0

>  <pistack:PHE:116>  (16) 
0.0

>  <hydroph_interaction:VAL:154>  (16) 
0.0

>  <hydroph_interaction:ASP:75>  (16) 
0.0

>  <hbond:GLY:121>  (16) 
0.0

>  <hydroph_interaction:ASN:152>  (16) 
0.0

>  <halogenbond:ILE:165>  (16) 
0.0

$$$$
Z28155866-Z1318055457S2-x0806S1
     RDKit          3D

 35 37  0  0  0  0  0  0  0  0999 V2000
  -15.5570  -10.9110   -7.3110 O   0  0  0  0  0  0  0  0  0  0  0  0
  -14.7180   -9.8480   -7.1020 C   0  0  0  0  0  0  0  0  0  0  0  0
  -15.3120   -8.4690   -7.1730 C   0  0  0  0  0  0  0  0  0  0  0  0
  -14.4120   -7.6060   -8.0600 C   0  0  0  0  0  0  0  0  0  0  0  0
  -13.5540   -6.6090   -7.5960 C   0  0  0  0  0  0  0  0  0  0  0  0
  -12.7900   -5.9170   -8.5090 C   0  0  0  0  0  0  0  0  0  0  0  0
  -12.8590   -6.1890   -9.8750 C   0  0  0  0  0  0  0  0  0  0  0  0
  -13.7530   -7.2070  -10.2890 C   0  0  0  0  0  0  0  0  0  0  0  0
  -14.5170   -7.9070   -9.4030 C   0  0  0  0  0  0  0  0  0  0  0  0
  -13.2860   -9.8810   -6.8080 N   0  0  0  0  0  0  0  0  0  0  0  0
  -12.1590  -10.3290   -7.6360 C   0  0  0  0  0  0  0  0  0  0  0  0
  -12.0640  -11.8200   -7.9510 C   0  0  0  0  0  0  0  0  0  0  0  0
  -10.9320  -12.3010   -8.7710 C   0  0  0  0  0  0  0  0  0  0  0  0
  -10.0000  -11.3530   -9.2170 C   0  0  0  0  0  0  0  0  0  0  0  0
  -10.1250   -9.9790   -8.9110 C   0  0  0  0  0  0  0  0  0  0  0  0
   -9.1490   -9.1160   -9.4080 C   0  0  0  0  0  0  0  0  0  0  0  0
   -9.1430   -7.7450   -9.1870 C   0  0  0  0  0  0  0  0  0  0  0  0
  -10.1770   -7.2490   -8.4280 C   0  0  0  0  0  0  0  0  0  0  0  0
  -11.1790   -8.0550   -7.9020 C   0  0  0  0  0  0  0  0  0  0  0  0
  -11.1740   -9.4330   -8.1340 C   0  0  0  0  0  0  0  0  0  0  0  0
  -16.3450   -8.4880   -7.5160 H   0  0  0  0  0  0  0  0  0  0  0  0
  -15.4600   -8.0370   -6.1900 H   0  0  0  0  0  0  0  0  0  0  0  0
  -13.4770   -6.3750   -6.5370 H   0  0  0  0  0  0  0  0  0  0  0  0
  -12.1480   -5.1570   -8.0430 H   0  0  0  0  0  0  0  0  0  0  0  0
  -12.2530   -5.6380  -10.5880 H   0  0  0  0  0  0  0  0  0  0  0  0
  -13.7750   -7.3810  -11.3650 H   0  0  0  0  0  0  0  0  0  0  0  0
  -15.1900   -8.6850   -9.7610 H   0  0  0  0  0  0  0  0  0  0  0  0
  -13.0340   -9.5540   -5.8720 H   0  0  0  0  0  0  0  0  0  0  0  0
  -12.7890  -12.5450   -7.5970 H   0  0  0  0  0  0  0  0  0  0  0  0
  -10.8260  -13.3550   -9.0190 H   0  0  0  0  0  0  0  0  0  0  0  0
   -9.1640  -11.7070   -9.8180 H   0  0  0  0  0  0  0  0  0  0  0  0
   -8.3600   -9.5380   -9.9950 H   0  0  0  0  0  0  0  0  0  0  0  0
   -8.3640   -7.1030   -9.5900 H   0  0  0  0  0  0  0  0  0  0  0  0
  -10.2160   -6.1720   -8.2240 H   0  0  0  0  0  0  0  0  0  0  0  0
  -11.9320   -7.5210   -7.3170 H   0  0  0  0  0  0  0  0  0  0  0  0
  1  2  2  0
  2  3  1  0
  3  4  1  0
  4  5  2  0
  5  6  1  0
  6  7  2  0
  7  8  1  0
  8  9  2  0
  2 10  1  0
 10 11  1  0
 11 12  2  0
 12 13  1  0
 13 14  2  0
 14 15  1  0
 15 16  2  0
 16 17  1  0
 17 18  2  0
 18 19  1  0
 19 20  2  0
  9  4  1  0
 20 11  1  0
 20 15  1  0
  3 21  1  0
  3 22  1  0
  5 23  1  0
  6 24  1  0
  7 25  1  0
  8 26  1  0
  9 27  1  0
 10 28  1  0
 12 29  1  0
 13 30  1  0
 14 31  1  0
 16 32  1  0
 17 33  1  0
 18 34  1  0
 19 35  1  0
A    1
 O1 
A    2
 C1 
A    3
 C2 
A    4
 C3 
A    5
 C4 
A    6
 C5 
A    7
 C6 
A    8
 C7 
A    9
 C8 
A   10
 N1 
A   11
 C9 
A   12
 C10
A   13
 C11
A   14
 C12
A   15
 C13
A   16
 C14
A   17
 C15
A   18
 C16
A   19
 C17
A   20
 C18
A   21
 H1 
A   22
 H2 
A   23
 H3 
A   24
 H4 
A   25
 H5 
A   26
 H6 
A   27
 H7 
A   28
 H8 
A   29
 H9 
A   30
 H10
A   31
 H11
A   32
 H12
A   33
 H13
A   34
 H14
A   35
 H15
M  END
>  <ref_pdb>  (17) 
x0051_0B

>  <ref_mols>  (17) 
x0051_0B

>  <original SMILES>  (17) 
[H]c1c([H])c([H])c(C([H])([H])C(=O)N([H])c2c([H])c([H])c([H])c3c([H])c([H])c([H])c([H])c23)c([H])c1[H]

>  <index>  (17) 
499.0

>  <∆∆G>  (17) 
-5.86964

>  <comRMSD>  (17) 
0.617748

>  <N_constrained_atoms>  (17) 
17.0

>  <N_unconstrained_atoms>  (17) 
3.0

>  <LE>  (17) 
0.293482

>  <percent_hybrid>  (17) 
36.0

>  <largest_ring>  (17) 
6.0

>  <N_HA>  (17) 
20.0

>  <N_rotatable_bonds>  (17) 
3.0

>  <max_hit_Tanimoto>  (17) 
0.209239

>  <N_interactions_kept>  (17) 
0.5

>  <N_interactions_lost>  (17) 
1.0

>  <interaction_uniqueness_metric>  (17) 
0.062106

>  <N_interactions>  (17) 
6.0

>  <N_PAINS>  (17) 
0.0

>  <UFF_Gibbs>  (17) 
138.265794

>  <strain_per_HA>  (17) 
6.913255

>  <ad_hoc_penalty>  (17) 
-31.960272

>  <cluster>  (17) 
5844.0

>  <intxn_cluster>  (17) 
1.0

>  <keep>  (17) 
1.0

>  <hydroph_interaction:GLN:74>  (17) 
0.0

>  <hydroph_interaction:THR:118>  (17) 
1.0

>  <hydroph_interaction:ILE:123>  (17) 
4.0

>  <hydroph_interaction:THR:166>  (17) 
1.0

>  <hbond:GLN:167>  (17) 
0.0

>  <hydroph_interaction:ALA:88>  (17) 
0.0

>  <hydroph_interaction:ASP:120>  (17) 
0.0

>  <hydroph_interaction:GLN:167>  (17) 
0.0

>  <hbond:THR:118>  (17) 
0.0

>  <hydroph_interaction:ALA:164>  (17) 
0.0

>  <hbond:ASP:120>  (17) 
0.0

>  <hbond:THR:166>  (17) 
0.0

>  <hydroph_interaction:LEU:76>  (17) 
0.0

>  <hbond:ILE:165>  (17) 
0.0

>  <halogenbond:GLN:74>  (17) 
0.0

>  <hbond:GLN:74>  (17) 
0.0

>  <hbond:LYS:73>  (17) 
0.0

>  <pistack:TRP:69>  (17) 
0.0

>  <hbond:TRP:83>  (17) 
0.0

>  <hydroph_interaction:TRP:83>  (17) 
0.0

>  <hydroph_interaction:TRP:69>  (17) 
0.0

>  <pication:TRP:69>  (17) 
0.0

>  <hydroph_interaction:PRO:82>  (17) 
0.0

>  <halogenbond:LYS:73>  (17) 
0.0

>  <hydroph_interaction:TYR:68>  (17) 
0.0

>  <halogenbond:GLN:167>  (17) 
0.0

>  <hydroph_interaction:PHE:116>  (17) 
0.0

>  <hbond:TYR:68>  (17) 
0.0

>  <hbond:ASP:122>  (17) 
0.0

>  <pistack:PHE:116>  (17) 
0.0

>  <hydroph_interaction:VAL:154>  (17) 
0.0

>  <hydroph_interaction:ASP:75>  (17) 
0.0

>  <hbond:GLY:121>  (17) 
0.0

>  <hydroph_interaction:ASN:152>  (17) 
0.0

>  <halogenbond:ILE:165>  (17) 
0.0

$$$$
Z1212885291-x0130S3-x0130S1
     RDKit          3D

 31 32  0  0  0  0  0  0  0  0999 V2000
  -28.1690   -7.1090    0.9430 C   0  0  0  0  0  0  0  0  0  0  0  0
  -27.6910   -6.7810   -0.3990 N   0  0  0  0  0  0  0  0  0  0  0  0
  -26.2440   -7.0140   -0.5490 C   0  0  0  0  0  0  0  0  0  0  0  0
  -25.8120   -6.6440   -1.8260 C   0  0  0  0  0  0  0  0  0  0  0  0
  -26.5930   -5.6920   -2.4850 C   0  0  0  0  0  0  0  0  0  0  0  0
  -26.0140   -5.2580   -3.6450 O   0  0  0  0  0  0  0  0  0  0  0  0
  -25.3690   -6.1910   -4.5310 C   0  0  0  0  0  0  0  0  0  0  0  0
  -26.3190   -7.0870   -5.2720 C   0  0  0  0  0  0  0  0  0  0  0  0
  -25.7380   -8.0870   -6.2350 C   0  0  0  0  0  0  0  0  0  0  0  0
  -24.3410   -8.1380   -6.3980 C   0  0  0  0  0  0  0  0  0  0  0  0
  -23.7910   -9.0100   -7.2510 F   0  0  0  0  0  0  0  0  0  0  0  0
  -23.5090   -7.2840   -5.6790 C   0  0  0  0  0  0  0  0  0  0  0  0
  -23.9920   -6.3530   -4.7810 C   0  0  0  0  0  0  0  0  0  0  0  0
  -27.0890   -4.7880   -1.5580 C   0  0  0  0  0  0  0  0  0  0  0  0
  -28.0610   -5.3990   -0.7840 C   0  0  0  0  0  0  0  0  0  0  0  0
  -28.1880   -8.1900    1.1140 H   0  0  0  0  0  0  0  0  0  0  0  0
  -27.5310   -6.6420    1.6970 H   0  0  0  0  0  0  0  0  0  0  0  0
  -29.1880   -6.7310    1.0840 H   0  0  0  0  0  0  0  0  0  0  0  0
  -26.0050   -8.0720   -0.3930 H   0  0  0  0  0  0  0  0  0  0  0  0
  -25.6810   -6.4250    0.1830 H   0  0  0  0  0  0  0  0  0  0  0  0
  -24.7950   -6.2430   -1.7640 H   0  0  0  0  0  0  0  0  0  0  0  0
  -25.7200   -7.5490   -2.4390 H   0  0  0  0  0  0  0  0  0  0  0  0
  -27.4570   -6.2840   -2.8020 H   0  0  0  0  0  0  0  0  0  0  0  0
  -27.3950   -7.0220   -5.1300 H   0  0  0  0  0  0  0  0  0  0  0  0
  -26.3890   -8.7540   -6.7940 H   0  0  0  0  0  0  0  0  0  0  0  0
  -22.4380   -7.3610   -5.8360 H   0  0  0  0  0  0  0  0  0  0  0  0
  -23.2690   -5.7630   -4.2880 H   0  0  0  0  0  0  0  0  0  0  0  0
  -27.4670   -3.8750   -2.0220 H   0  0  0  0  0  0  0  0  0  0  0  0
  -26.3000   -4.4970   -0.8720 H   0  0  0  0  0  0  0  0  0  0  0  0
  -29.0360   -5.4450   -1.2850 H   0  0  0  0  0  0  0  0  0  0  0  0
  -28.2030   -4.8150    0.1320 H   0  0  0  0  0  0  0  0  0  0  0  0
  1  2  1  0
  2  3  1  0
  3  4  1  0
  4  5  1  0
  5  6  1  0
  6  7  1  0
  7  8  2  0
  8  9  1  0
  9 10  2  0
 10 11  1  0
 10 12  1  0
 12 13  2  0
  5 14  1  0
 14 15  1  0
 15  2  1  0
 13  7  1  0
  1 16  1  0
  1 17  1  0
  1 18  1  0
  3 19  1  0
  3 20  1  0
  4 21  1  0
  4 22  1  0
  5 23  1  0
  8 24  1  0
  9 25  1  0
 12 26  1  0
 13 27  1  0
 14 28  1  0
 14 29  1  0
 15 30  1  0
 15 31  1  0
A    1
 C1 
A    2
 N1 
A    3
 C2 
A    4
 C3 
A    5
 C4 
A    6
 O1 
A    7
 C5 
A    8
 C6 
A    9
 C7 
A   10
 C8 
A   11
 F1 
A   12
 C9 
A   13
 C10
A   14
 C11
A   15
 C12
A   16
 H1 
A   17
 H2 
A   18
 H3 
A   19
 H4 
A   20
 H5 
A   21
 H6 
A   22
 H7 
A   23
 H8 
A   24
 H9 
A   25
 H10
A   26
 H11
A   27
 H12
A   28
 H13
A   29
 H14
A   30
 H15
A   31
 H16
M  END
>  <ref_pdb>  (18) 
x0051_0B

>  <ref_mols>  (18) 
x0051_0B

>  <original SMILES>  (18) 
[H]c1c([H])c(OC2([H])C([H])([H])C([H])([H])N(C([H])([H])[H])C([H])([H])C2([H])[H])c([H])c([H])c1F

>  <index>  (18) 
6666.0

>  <∆∆G>  (18) 
-3.342675

>  <comRMSD>  (18) 
0.428246

>  <N_constrained_atoms>  (18) 
15.0

>  <N_unconstrained_atoms>  (18) 
1.0

>  <LE>  (18) 
0.208917

>  <percent_hybrid>  (18) 
47.0

>  <largest_ring>  (18) 
6.0

>  <N_HA>  (18) 
15.0

>  <N_rotatable_bonds>  (18) 
3.0

>  <max_hit_Tanimoto>  (18) 
0.151292

>  <N_interactions_kept>  (18) 
0.0

>  <N_interactions_lost>  (18) 
1.5

>  <interaction_uniqueness_metric>  (18) 
0.412114

>  <N_interactions>  (18) 
7.0

>  <N_PAINS>  (18) 
0.0

>  <UFF_Gibbs>  (18) 
87.654627

>  <strain_per_HA>  (18) 
5.843603

>  <ad_hoc_penalty>  (18) 
-31.921594

>  <cluster>  (18) 
3349.0

>  <intxn_cluster>  (18) 
19.0

>  <keep>  (18) 
1.0

>  <hydroph_interaction:GLN:74>  (18) 
0.0

>  <hydroph_interaction:THR:118>  (18) 
0.0

>  <hydroph_interaction:ILE:123>  (18) 
0.0

>  <hydroph_interaction:THR:166>  (18) 
0.0

>  <hbond:GLN:167>  (18) 
0.0

>  <hydroph_interaction:ALA:88>  (18) 
0.0

>  <hydroph_interaction:ASP:120>  (18) 
0.0

>  <hydroph_interaction:GLN:167>  (18) 
0.0

>  <hbond:THR:118>  (18) 
0.0

>  <hydroph_interaction:ALA:164>  (18) 
0.0

>  <hbond:ASP:120>  (18) 
0.0

>  <hbond:THR:166>  (18) 
0.0

>  <hydroph_interaction:LEU:76>  (18) 
0.0

>  <hbond:ILE:165>  (18) 
0.0

>  <halogenbond:GLN:74>  (18) 
0.0

>  <hbond:GLN:74>  (18) 
0.0

>  <hbond:LYS:73>  (18) 
0.0

>  <pistack:TRP:69>  (18) 
2.0

>  <hbond:TRP:83>  (18) 
1.0

>  <hydroph_interaction:TRP:83>  (18) 
2.0

>  <hydroph_interaction:TRP:69>  (18) 
1.0

>  <pication:TRP:69>  (18) 
0.0

>  <hydroph_interaction:PRO:82>  (18) 
0.0

>  <halogenbond:LYS:73>  (18) 
0.0

>  <hydroph_interaction:TYR:68>  (18) 
1.0

>  <halogenbond:GLN:167>  (18) 
0.0

>  <hydroph_interaction:PHE:116>  (18) 
0.0

>  <hbond:TYR:68>  (18) 
0.0

>  <hbond:ASP:122>  (18) 
0.0

>  <pistack:PHE:116>  (18) 
0.0

>  <hydroph_interaction:VAL:154>  (18) 
0.0

>  <hydroph_interaction:ASP:75>  (18) 
0.0

>  <hbond:GLY:121>  (18) 
0.0

>  <hydroph_interaction:ASN:152>  (18) 
0.0

>  <halogenbond:ILE:165>  (18) 
0.0

$$$$
Z2450920929-x0944S1-x0130S2
     RDKit          3D

 31 32  0  0  0  0  0  0  0  0999 V2000
  -27.4960   -3.7750   -1.2970 C   0  0  0  0  0  0  0  0  0  0  0  0
  -27.3540   -5.2370   -1.5930 C   0  0  2  0  0  0  0  0  0  0  0  0
  -27.7140   -5.9690   -0.3220 C   0  0  0  0  0  0  0  0  0  0  0  0
  -27.2750   -7.3530   -0.3090 N   0  0  0  0  0  0  0  0  0  0  0  0
  -25.8240   -7.2960   -0.4760 C   0  0  0  0  0  0  0  0  0  0  0  0
  -25.4280   -6.7490   -1.8500 C   0  0  0  0  0  0  0  0  0  0  0  0
  -26.0440   -5.5560   -2.2250 N   0  0  0  0  0  0  0  0  0  0  0  0
  -25.9730   -5.2430   -3.5960 C   0  0  0  0  0  0  0  0  0  0  0  0
  -26.4100   -4.2010   -4.0790 O   0  0  0  0  0  0  0  0  0  0  0  0
  -25.3300   -6.2220   -4.5670 C   0  0  0  0  0  0  0  0  0  0  0  0
  -26.2400   -7.2170   -5.2190 C   0  0  0  0  0  0  0  0  0  0  0  0
  -25.7240   -8.1230   -6.1240 C   0  0  0  0  0  0  0  0  0  0  0  0
  -24.2050   -8.1630   -6.5140 C   0  0  0  0  0  0  0  0  0  0  0  0
  -23.7040   -9.0360   -7.3930 F   0  0  0  0  0  0  0  0  0  0  0  0
  -23.4150   -7.2150   -5.8720 C   0  0  0  0  0  0  0  0  0  0  0  0
  -22.1020   -7.1540   -6.1330 F   0  0  0  0  0  0  0  0  0  0  0  0
  -23.9840   -6.2230   -4.8710 C   0  0  0  0  0  0  0  0  0  0  0  0
  -28.3270   -3.5960   -0.6080 H   0  0  0  0  0  0  0  0  0  0  0  0
  -27.6760   -3.2140   -2.2130 H   0  0  0  0  0  0  0  0  0  0  0  0
  -26.5960   -3.3960   -0.8180 H   0  0  0  0  0  0  0  0  0  0  0  0
  -28.1240   -5.4940   -2.3260 H   0  0  0  0  0  0  0  0  0  0  0  0
  -27.2740   -5.4680    0.5480 H   0  0  0  0  0  0  0  0  0  0  0  0
  -28.7990   -5.9910   -0.1770 H   0  0  0  0  0  0  0  0  0  0  0  0
  -27.4820   -7.7480    0.6090 H   0  0  0  0  0  0  0  0  0  0  0  0
  -25.4090   -6.6460    0.3010 H   0  0  0  0  0  0  0  0  0  0  0  0
  -25.4020   -8.2980   -0.3410 H   0  0  0  0  0  0  0  0  0  0  0  0
  -25.6140   -7.5190   -2.6030 H   0  0  0  0  0  0  0  0  0  0  0  0
  -24.3460   -6.5570   -1.8680 H   0  0  0  0  0  0  0  0  0  0  0  0
  -27.2930   -7.1600   -4.9290 H   0  0  0  0  0  0  0  0  0  0  0  0
  -26.3260   -8.8790   -6.6440 H   0  0  0  0  0  0  0  0  0  0  0  0
  -23.3210   -5.5370   -4.4200 H   0  0  0  0  0  0  0  0  0  0  0  0
  1  2  1  0
  2  3  1  0
  3  4  1  0
  4  5  1  0
  5  6  1  0
  6  7  1  0
  7  8  1  0
  8  9  2  0
  8 10  1  0
 10 11  2  0
 11 12  1  0
 12 13  2  0
 13 14  1  0
 13 15  1  0
 15 16  1  0
 15 17  2  0
  7  2  1  0
 17 10  1  0
  1 18  1  0
  1 19  1  0
  1 20  1  0
  2 21  1  1
  3 22  1  0
  3 23  1  0
  4 24  1  0
  5 25  1  0
  5 26  1  0
  6 27  1  0
  6 28  1  0
 11 29  1  0
 12 30  1  0
 17 31  1  0
A    1
 C1 
A    2
 C2 
A    3
 C3 
A    4
 N1 
A    5
 C4 
A    6
 C5 
A    7
 N2 
A    8
 C6 
A    9
 O1 
A   10
 C7 
A   11
 C8 
A   12
 C9 
A   13
 C10
A   14
 F1 
A   15
 C11
A   16
 F2 
A   17
 C12
A   18
 H1 
A   19
 H2 
A   20
 H3 
A   21
 H4 
A   22
 H5 
A   23
 H6 
A   24
 H7 
A   25
 H8 
A   26
 H9 
A   27
 H10
A   28
 H11
A   29
 H12
A   30
 H13
A   31
 H14
M  END
>  <ref_pdb>  (19) 
x0051_0B

>  <ref_mols>  (19) 
x0051_0B

>  <original SMILES>  (19) 
[H]c1c([H])c(C(=O)N2C([H])([H])C([H])([H])N([H])C([H])([H])[C@]2([H])C([H])([H])[H])c([H])c(F)c1F

>  <index>  (19) 
1011.0

>  <∆∆G>  (19) 
-5.925915

>  <comRMSD>  (19) 
0.501345

>  <N_constrained_atoms>  (19) 
16.0

>  <N_unconstrained_atoms>  (19) 
1.0

>  <LE>  (19) 
0.348583

>  <percent_hybrid>  (19) 
38.0

>  <largest_ring>  (19) 
6.0

>  <N_HA>  (19) 
17.0

>  <N_rotatable_bonds>  (19) 
2.0

>  <max_hit_Tanimoto>  (19) 
0.345992

>  <N_interactions_kept>  (19) 
1.0

>  <N_interactions_lost>  (19) 
1.5

>  <interaction_uniqueness_metric>  (19) 
0.349889

>  <N_interactions>  (19) 
5.0

>  <N_PAINS>  (19) 
0.0

>  <UFF_Gibbs>  (19) 
60.227373

>  <strain_per_HA>  (19) 
3.542766

>  <ad_hoc_penalty>  (19) 
-31.821522

>  <cluster>  (19) 
777.0

>  <intxn_cluster>  (19) 
0.0

>  <keep>  (19) 
1.0

>  <hydroph_interaction:GLN:74>  (19) 
0.0

>  <hydroph_interaction:THR:118>  (19) 
0.0

>  <hydroph_interaction:ILE:123>  (19) 
0.0

>  <hydroph_interaction:THR:166>  (19) 
0.0

>  <hbond:GLN:167>  (19) 
0.0

>  <hydroph_interaction:ALA:88>  (19) 
0.0

>  <hydroph_interaction:ASP:120>  (19) 
0.0

>  <hydroph_interaction:GLN:167>  (19) 
0.0

>  <hbond:THR:118>  (19) 
0.0

>  <hydroph_interaction:ALA:164>  (19) 
0.0

>  <hbond:ASP:120>  (19) 
0.0

>  <hbond:THR:166>  (19) 
0.0

>  <hydroph_interaction:LEU:76>  (19) 
0.0

>  <hbond:ILE:165>  (19) 
0.0

>  <halogenbond:GLN:74>  (19) 
0.0

>  <hbond:GLN:74>  (19) 
0.0

>  <hbond:LYS:73>  (19) 
0.0

>  <pistack:TRP:69>  (19) 
0.0

>  <hbond:TRP:83>  (19) 
1.0

>  <hydroph_interaction:TRP:83>  (19) 
1.0

>  <hydroph_interaction:TRP:69>  (19) 
2.0

>  <pication:TRP:69>  (19) 
0.0

>  <hydroph_interaction:PRO:82>  (19) 
0.0

>  <halogenbond:LYS:73>  (19) 
0.0

>  <hydroph_interaction:TYR:68>  (19) 
1.0

>  <halogenbond:GLN:167>  (19) 
0.0

>  <hydroph_interaction:PHE:116>  (19) 
0.0

>  <hbond:TYR:68>  (19) 
0.0

>  <hbond:ASP:122>  (19) 
0.0

>  <pistack:PHE:116>  (19) 
0.0

>  <hydroph_interaction:VAL:154>  (19) 
0.0

>  <hydroph_interaction:ASP:75>  (19) 
0.0

>  <hbond:GLY:121>  (19) 
0.0

>  <hydroph_interaction:ASN:152>  (19) 
0.0

>  <halogenbond:ILE:165>  (19) 
0.0

$$$$
PV-002170932167-x0806S1-Z198195906S1
     RDKit          3D

 16 16  0  0  0  0  0  0  0  0999 V2000
  -10.3990   -4.8140  -10.4290 N   0  0  0  0  0  0  0  0  0  0  0  0
  -10.6310   -6.0060   -9.8320 C   0  0  0  0  0  0  0  0  0  0  0  0
   -9.6800   -6.7280   -9.5750 O   0  0  0  0  0  0  0  0  0  0  0  0
  -12.0100   -6.4230   -9.4510 C   0  0  0  0  0  0  0  0  0  0  0  0
  -12.9080   -7.0670  -10.5090 C   0  0  0  0  0  0  0  0  0  0  0  0
  -14.1890   -7.4810  -10.1690 C   0  0  0  0  0  0  0  0  0  0  0  0
  -14.6610   -7.2770   -8.7850 C   0  0  0  0  0  0  0  0  0  0  0  0
  -13.8190   -6.6820   -7.8460 C   0  0  0  0  0  0  0  0  0  0  0  0
  -12.5200   -6.2640   -8.1670 C   0  0  0  0  0  0  0  0  0  0  0  0
  -11.6150   -5.5640   -6.8800 Cl  0  0  0  0  0  0  0  0  0  0  0  0
   -9.4640   -4.5510  -10.7130 H   0  0  0  0  0  0  0  0  0  0  0  0
  -11.0020   -4.0550  -10.1460 H   0  0  0  0  0  0  0  0  0  0  0  0
  -12.5620   -7.2120  -11.5270 H   0  0  0  0  0  0  0  0  0  0  0  0
  -14.8300   -7.9440  -10.9130 H   0  0  0  0  0  0  0  0  0  0  0  0
  -15.6630   -7.5910   -8.4980 H   0  0  0  0  0  0  0  0  0  0  0  0
  -14.1910   -6.5450   -6.8330 H   0  0  0  0  0  0  0  0  0  0  0  0
  1  2  1  0
  2  3  2  0
  2  4  1  0
  4  5  2  0
  5  6  1  0
  6  7  2  0
  7  8  1  0
  8  9  2  0
  9 10  1  0
  9  4  1  0
  1 11  1  0
  1 12  1  0
  5 13  1  0
  6 14  1  0
  7 15  1  0
  8 16  1  0
A    1
 N1 
A    2
 C1 
A    3
 O1 
A    4
 C2 
A    5
 C3 
A    6
 C4 
A    7
 C5 
A    8
 C6 
A    9
 C7 
A   10
CL1 
A   11
 H1 
A   12
 H2 
A   13
 H3 
A   14
 H4 
A   15
 H5 
A   16
 H6 
M  END
>  <ref_pdb>  (20) 
x0051_0B

>  <ref_mols>  (20) 
x0051_0B

>  <original SMILES>  (20) 
[H]c1c([H])c([H])c(C(=O)N([H])[H])c(Cl)c1[H]

>  <index>  (20) 
858.0

>  <∆∆G>  (20) 
-3.777487

>  <comRMSD>  (20) 
0.622882

>  <N_constrained_atoms>  (20) 
9.0

>  <N_unconstrained_atoms>  (20) 
1.0

>  <LE>  (20) 
0.377749

>  <percent_hybrid>  (20) 
38.0

>  <largest_ring>  (20) 
6.0

>  <N_HA>  (20) 
10.0

>  <N_rotatable_bonds>  (20) 
1.0

>  <max_hit_Tanimoto>  (20) 
0.06

>  <N_interactions_kept>  (20) 
0.0

>  <N_interactions_lost>  (20) 
0.5

>  <interaction_uniqueness_metric>  (20) 
0.331963

>  <N_interactions>  (20) 
4.0

>  <N_PAINS>  (20) 
0.0

>  <UFF_Gibbs>  (20) 
23.254976

>  <strain_per_HA>  (20) 
2.325474

>  <ad_hoc_penalty>  (20) 
-31.331724

>  <cluster>  (20) 
5726.0

>  <intxn_cluster>  (20) 
1.0

>  <keep>  (20) 
1.0

>  <hydroph_interaction:GLN:74>  (20) 
0.0

>  <hydroph_interaction:THR:118>  (20) 
0.0

>  <hydroph_interaction:ILE:123>  (20) 
2.0

>  <hydroph_interaction:THR:166>  (20) 
0.0

>  <hbond:GLN:167>  (20) 
0.0

>  <hydroph_interaction:ALA:88>  (20) 
0.0

>  <hydroph_interaction:ASP:120>  (20) 
0.0

>  <hydroph_interaction:GLN:167>  (20) 
0.0

>  <hbond:THR:118>  (20) 
0.0

>  <hydroph_interaction:ALA:164>  (20) 
0.0

>  <hbond:ASP:120>  (20) 
0.0

>  <hbond:THR:166>  (20) 
1.0

>  <hydroph_interaction:LEU:76>  (20) 
0.0

>  <hbond:ILE:165>  (20) 
0.0

>  <halogenbond:GLN:74>  (20) 
0.0

>  <hbond:GLN:74>  (20) 
0.0

>  <hbond:LYS:73>  (20) 
0.0

>  <pistack:TRP:69>  (20) 
0.0

>  <hbond:TRP:83>  (20) 
0.0

>  <hydroph_interaction:TRP:83>  (20) 
0.0

>  <hydroph_interaction:TRP:69>  (20) 
0.0

>  <pication:TRP:69>  (20) 
0.0

>  <hydroph_interaction:PRO:82>  (20) 
0.0

>  <halogenbond:LYS:73>  (20) 
1.0

>  <hydroph_interaction:TYR:68>  (20) 
0.0

>  <halogenbond:GLN:167>  (20) 
0.0

>  <hydroph_interaction:PHE:116>  (20) 
0.0

>  <hbond:TYR:68>  (20) 
0.0

>  <hbond:ASP:122>  (20) 
0.0

>  <pistack:PHE:116>  (20) 
0.0

>  <hydroph_interaction:VAL:154>  (20) 
0.0

>  <hydroph_interaction:ASP:75>  (20) 
0.0

>  <hbond:GLY:121>  (20) 
0.0

>  <hydroph_interaction:ASN:152>  (20) 
0.0

>  <halogenbond:ILE:165>  (20) 
0.0

$$$$
PV-002746821263-x0214S3-Z2102283482
     RDKit          3D

 49 52  0  0  0  0  0  0  0  0999 V2000
  -10.0910  -13.1490   -9.2120 C   0  0  0  0  0  0  0  0  0  0  0  0
  -11.1940  -13.9540   -9.6760 N   0  0  0  0  0  0  0  0  0  0  0  0
  -12.2990  -13.1970   -9.9050 C   0  0  0  0  0  0  0  0  0  0  0  0
  -13.3850  -13.5080  -10.4020 O   0  0  0  0  0  0  0  0  0  0  0  0
  -12.1340  -11.8790   -9.4850 C   0  0  0  0  0  0  0  0  0  0  0  0
  -12.7060  -11.5530   -8.2590 C   0  0  0  0  0  0  0  0  0  0  0  0
  -12.5300  -10.1150   -7.9580 N   0  0  0  0  0  0  0  0  0  0  0  0
  -12.8850   -9.7830   -6.5950 C   0  0  0  0  0  0  0  0  0  0  0  0
  -14.3400   -9.5090   -6.5260 C   0  0  0  0  0  0  0  0  0  0  0  0
  -15.1540  -10.3680   -5.8120 C   0  0  0  0  0  0  0  0  0  0  0  0
  -16.6750  -10.1810   -5.6850 C   0  0  0  0  0  0  0  0  0  0  0  0
  -17.2950   -8.9800   -6.3830 C   0  0  0  0  0  0  0  0  0  0  0  0
  -16.3240   -8.0960   -7.1380 C   0  0  0  0  0  0  0  0  0  0  0  0
  -14.8490   -8.3910   -7.1980 C   0  0  0  0  0  0  0  0  0  0  0  0
  -14.0720   -7.5480   -7.9350 C   0  0  0  0  0  0  0  0  0  0  0  0
  -14.1390   -7.7440   -9.3860 C   0  0  0  0  0  0  0  0  0  0  0  0
  -13.4270   -6.9800  -10.2330 C   0  0  0  0  0  0  0  0  0  0  0  0
  -12.5930   -5.9740   -9.7350 C   0  0  0  0  0  0  0  0  0  0  0  0
  -12.5000   -5.7520   -8.3520 C   0  0  0  0  0  0  0  0  0  0  0  0
  -13.2360   -6.5340   -7.4490 C   0  0  0  0  0  0  0  0  0  0  0  0
  -11.3390   -9.5530   -8.3770 C   0  0  0  0  0  0  0  0  0  0  0  0
  -10.9960   -8.2210   -8.1170 C   0  0  0  0  0  0  0  0  0  0  0  0
   -9.7890   -7.6750   -8.5430 C   0  0  0  0  0  0  0  0  0  0  0  0
   -8.9100   -8.4690   -9.2280 C   0  0  0  0  0  0  0  0  0  0  0  0
   -9.2470   -9.7980   -9.4810 C   0  0  0  0  0  0  0  0  0  0  0  0
  -10.4510  -10.3200   -9.0670 C   0  0  0  0  0  0  0  0  0  0  0  0
  -10.7170  -11.6250   -9.3860 O   0  0  0  0  0  0  0  0  0  0  0  0
  -10.4360  -12.3380   -8.5690 H   0  0  0  0  0  0  0  0  0  0  0  0
   -9.5530  -12.7240  -10.0670 H   0  0  0  0  0  0  0  0  0  0  0  0
   -9.4110  -13.7300   -8.6300 H   0  0  0  0  0  0  0  0  0  0  0  0
  -11.3150  -14.8670   -9.2480 H   0  0  0  0  0  0  0  0  0  0  0  0
  -12.5460  -11.2320  -10.2690 H   0  0  0  0  0  0  0  0  0  0  0  0
  -13.7880  -11.7300   -8.3290 H   0  0  0  0  0  0  0  0  0  0  0  0
  -12.3530  -12.2760   -7.5320 H   0  0  0  0  0  0  0  0  0  0  0  0
  -12.5770  -10.5830   -5.9080 H   0  0  0  0  0  0  0  0  0  0  0  0
  -12.3670   -8.8690   -6.2750 H   0  0  0  0  0  0  0  0  0  0  0  0
  -14.7100  -11.2260   -5.3110 H   0  0  0  0  0  0  0  0  0  0  0  0
  -17.2810  -10.8800   -5.1160 H   0  0  0  0  0  0  0  0  0  0  0  0
  -18.3600   -8.7660   -6.3450 H   0  0  0  0  0  0  0  0  0  0  0  0
  -16.7170   -7.2200   -7.6550 H   0  0  0  0  0  0  0  0  0  0  0  0
  -14.8070   -8.5470   -9.7110 H   0  0  0  0  0  0  0  0  0  0  0  0
  -13.5240   -7.1730  -11.2860 H   0  0  0  0  0  0  0  0  0  0  0  0
  -12.0190   -5.3620  -10.4220 H   0  0  0  0  0  0  0  0  0  0  0  0
  -11.8520   -4.9650   -7.9750 H   0  0  0  0  0  0  0  0  0  0  0  0
  -13.1540   -6.3490   -6.3810 H   0  0  0  0  0  0  0  0  0  0  0  0
  -11.6670   -7.5700   -7.5710 H   0  0  0  0  0  0  0  0  0  0  0  0
   -9.5530   -6.6380   -8.3310 H   0  0  0  0  0  0  0  0  0  0  0  0
   -7.9610   -8.0680   -9.5710 H   0  0  0  0  0  0  0  0  0  0  0  0
   -8.5630  -10.4440  -10.0180 H   0  0  0  0  0  0  0  0  0  0  0  0
  1  2  1  0
  2  3  1  0
  3  4  2  0
  3  5  1  0
  5  6  1  0
  6  7  1  0
  7  8  1  0
  8  9  1  0
  9 10  2  0
 10 11  1  0
 11 12  2  0
 12 13  1  0
 13 14  2  0
 14 15  1  0
 15 16  2  0
 16 17  1  0
 17 18  2  0
 18 19  1  0
 19 20  2  0
  7 21  1  0
 21 22  2  0
 22 23  1  0
 23 24  2  0
 24 25  1  0
 25 26  2  0
 26 27  1  0
 27  5  1  0
 14  9  1  0
 20 15  1  0
 26 21  1  0
  1 28  1  0
  1 29  1  0
  1 30  1  0
  2 31  1  0
  5 32  1  0
  6 33  1  0
  6 34  1  0
  8 35  1  0
  8 36  1  0
 10 37  1  0
 11 38  1  0
 12 39  1  0
 13 40  1  0
 16 41  1  0
 17 42  1  0
 18 43  1  0
 19 44  1  0
 20 45  1  0
 22 46  1  0
 23 47  1  0
 24 48  1  0
 25 49  1  0
A    1
 C1 
A    2
 N1 
A    3
 C2 
A    4
 O1 
A    5
 C3 
A    6
 C4 
A    7
 N2 
A    8
 C5 
A    9
 C6 
A   10
 C7 
A   11
 C8 
A   12
 C9 
A   13
 C10
A   14
 C11
A   15
 C12
A   16
 C13
A   17
 C14
A   18
 C15
A   19
 C16
A   20
 C17
A   21
 C18
A   22
 C19
A   23
 C20
A   24
 C21
A   25
 C22
A   26
 C23
A   27
 O2 
A   28
 H1 
A   29
 H2 
A   30
 H3 
A   31
 H4 
A   32
 H5 
A   33
 H6 
A   34
 H7 
A   35
 H8 
A   36
 H9 
A   37
 H10
A   38
 H11
A   39
 H12
A   40
 H13
A   41
 H14
A   42
 H15
A   43
 H16
A   44
 H17
A   45
 H18
A   46
 H19
A   47
 H20
A   48
 H21
A   49
 H22
M  END
>  <ref_pdb>  (21) 
x0051_0B

>  <ref_mols>  (21) 
x0051_0B

>  <original SMILES>  (21) 
[H]c1c([H])c([H])c(-c2c([H])c([H])c([H])c([H])c2C([H])([H])N2c3c([H])c([H])c([H])c([H])c3OC([H])(C(=O)N([H])C([H])([H])[H])C2([H])[H])c([H])c1[H]

>  <index>  (21) 
2497.0

>  <∆∆G>  (21) 
-2.576052

>  <comRMSD>  (21) 
0.675109

>  <N_constrained_atoms>  (21) 
27.0

>  <N_unconstrained_atoms>  (21) 
1.0

>  <LE>  (21) 
0.092002

>  <percent_hybrid>  (21) 
16.0

>  <largest_ring>  (21) 
6.0

>  <N_HA>  (21) 
27.0

>  <N_rotatable_bonds>  (21) 
5.0

>  <max_hit_Tanimoto>  (21) 
0.430966

>  <N_interactions_kept>  (21) 
1.0

>  <N_interactions_lost>  (21) 
1.0

>  <interaction_uniqueness_metric>  (21) 
0.160117

>  <N_interactions>  (21) 
8.0

>  <N_PAINS>  (21) 
0.0

>  <UFF_Gibbs>  (21) 
15360.817178

>  <strain_per_HA>  (21) 
568.917048

>  <ad_hoc_penalty>  (21) 
-31.261454

>  <cluster>  (21) 
5174.0

>  <intxn_cluster>  (21) 
16.0

>  <keep>  (21) 
1.0

>  <hydroph_interaction:GLN:74>  (21) 
1.0

>  <hydroph_interaction:THR:118>  (21) 
1.0

>  <hydroph_interaction:ILE:123>  (21) 
3.0

>  <hydroph_interaction:THR:166>  (21) 
1.0

>  <hbond:GLN:167>  (21) 
0.0

>  <hydroph_interaction:ALA:88>  (21) 
0.0

>  <hydroph_interaction:ASP:120>  (21) 
0.0

>  <hydroph_interaction:GLN:167>  (21) 
0.0

>  <hbond:THR:118>  (21) 
1.0

>  <hydroph_interaction:ALA:164>  (21) 
0.0

>  <hbond:ASP:120>  (21) 
1.0

>  <hbond:THR:166>  (21) 
0.0

>  <hydroph_interaction:LEU:76>  (21) 
0.0

>  <hbond:ILE:165>  (21) 
0.0

>  <halogenbond:GLN:74>  (21) 
0.0

>  <hbond:GLN:74>  (21) 
0.0

>  <hbond:LYS:73>  (21) 
0.0

>  <pistack:TRP:69>  (21) 
0.0

>  <hbond:TRP:83>  (21) 
0.0

>  <hydroph_interaction:TRP:83>  (21) 
0.0

>  <hydroph_interaction:TRP:69>  (21) 
0.0

>  <pication:TRP:69>  (21) 
0.0

>  <hydroph_interaction:PRO:82>  (21) 
0.0

>  <halogenbond:LYS:73>  (21) 
0.0

>  <hydroph_interaction:TYR:68>  (21) 
0.0

>  <halogenbond:GLN:167>  (21) 
0.0

>  <hydroph_interaction:PHE:116>  (21) 
0.0

>  <hbond:TYR:68>  (21) 
0.0

>  <hbond:ASP:122>  (21) 
0.0

>  <pistack:PHE:116>  (21) 
0.0

>  <hydroph_interaction:VAL:154>  (21) 
0.0

>  <hydroph_interaction:ASP:75>  (21) 
0.0

>  <hbond:GLY:121>  (21) 
0.0

>  <hydroph_interaction:ASN:152>  (21) 
0.0

>  <halogenbond:ILE:165>  (21) 
0.0

$$$$
Z1823648177-x0214S3-Z1318054286S3
     RDKit          3D

 24 25  0  0  0  0  0  0  0  0999 V2000
  -15.1510   -4.8760   -9.1490 C   0  0  0  0  0  0  0  0  0  0  0  0
  -14.2280   -6.0190   -9.0220 C   0  0  0  0  0  0  0  0  0  0  0  0
  -13.2350   -5.6810   -8.0530 C   0  0  0  0  0  0  0  0  0  0  0  0
  -12.3090   -6.5190   -7.6510 C   0  0  0  0  0  0  0  0  0  0  0  0
  -12.3110   -7.7660   -8.1990 C   0  0  0  0  0  0  0  0  0  0  0  0
  -11.3670   -8.5840   -7.7240 O   0  0  0  0  0  0  0  0  0  0  0  0
  -11.2060   -9.8400   -8.1400 C   0  0  0  0  0  0  0  0  0  0  0  0
  -12.1280  -10.8280   -7.8240 C   0  0  0  0  0  0  0  0  0  0  0  0
  -11.8780  -12.1150   -8.2780 C   0  0  0  0  0  0  0  0  0  0  0  0
  -10.6790  -12.4210   -9.0600 N   0  0  0  0  0  0  0  0  0  0  0  0
   -9.8500  -11.3520   -9.3020 C   0  0  0  0  0  0  0  0  0  0  0  0
  -10.0950  -10.0530   -8.8610 C   0  0  0  0  0  0  0  0  0  0  0  0
   -9.1220   -8.6600   -9.1400 Cl  0  0  0  0  0  0  0  0  0  0  0  0
  -13.2640   -8.1300   -9.1980 C   0  0  0  0  0  0  0  0  0  0  0  0
  -14.3030   -7.2060   -9.6690 N   0  0  0  0  0  0  0  0  0  0  0  0
  -15.8570   -5.0330   -9.9300 H   0  0  0  0  0  0  0  0  0  0  0  0
  -14.5450   -3.9830   -9.2700 H   0  0  0  0  0  0  0  0  0  0  0  0
  -15.7320   -4.7530   -8.2430 H   0  0  0  0  0  0  0  0  0  0  0  0
  -13.2220   -4.7110   -7.6050 H   0  0  0  0  0  0  0  0  0  0  0  0
  -11.5690   -6.2400   -6.9010 H   0  0  0  0  0  0  0  0  0  0  0  0
  -13.0150  -10.6110   -7.2400 H   0  0  0  0  0  0  0  0  0  0  0  0
  -12.5760  -12.9290   -8.0550 H   0  0  0  0  0  0  0  0  0  0  0  0
   -8.9590  -11.5930   -9.8860 H   0  0  0  0  0  0  0  0  0  0  0  0
  -13.2640   -9.1160   -9.6530 H   0  0  0  0  0  0  0  0  0  0  0  0
  1  2  1  0
  2  3  2  0
  3  4  1  0
  4  5  2  0
  5  6  1  0
  6  7  1  0
  7  8  2  0
  8  9  1  0
  9 10  2  0
 10 11  1  0
 11 12  2  0
 12 13  1  0
  5 14  1  0
 14 15  2  0
 15  2  1  0
 12  7  1  0
  1 16  1  0
  1 17  1  0
  1 18  1  0
  3 19  1  0
  4 20  1  0
  8 21  1  0
  9 22  1  0
 11 23  1  0
 14 24  1  0
A    1
 C1 
A    2
 C2 
A    3
 C3 
A    4
 C4 
A    5
 C5 
A    6
 O1 
A    7
 C6 
A    8
 C7 
A    9
 C8 
A   10
 N1 
A   11
 C9 
A   12
 C10
A   13
CL1 
A   14
 C11
A   15
 N2 
A   16
 H1 
A   17
 H2 
A   18
 H3 
A   19
 H4 
A   20
 H5 
A   21
 H6 
A   22
 H7 
A   23
 H8 
A   24
 H9 
M  END
>  <ref_pdb>  (22) 
x0051_0B

>  <ref_mols>  (22) 
x0051_0B

>  <original SMILES>  (22) 
[H]c1nc([H])c(Cl)c(Oc2c([H])nc(C([H])([H])[H])c([H])c2[H])c1[H]

>  <index>  (22) 
6131.0

>  <∆∆G>  (22) 
-2.65792

>  <comRMSD>  (22) 
0.975763

>  <N_constrained_atoms>  (22) 
13.0

>  <N_unconstrained_atoms>  (22) 
2.0

>  <LE>  (22) 
0.177195

>  <percent_hybrid>  (22) 
47.0

>  <largest_ring>  (22) 
6.0

>  <N_HA>  (22) 
15.0

>  <N_rotatable_bonds>  (22) 
3.0

>  <max_hit_Tanimoto>  (22) 
0.087819

>  <N_interactions_kept>  (22) 
1.0

>  <N_interactions_lost>  (22) 
0.0

>  <interaction_uniqueness_metric>  (22) 
0.278635

>  <N_interactions>  (22) 
5.0

>  <N_PAINS>  (22) 
0.0

>  <UFF_Gibbs>  (22) 
60.760233

>  <strain_per_HA>  (22) 
4.050655

>  <ad_hoc_penalty>  (22) 
-31.234278

>  <cluster>  (22) 
360.0

>  <intxn_cluster>  (22) 
5.0

>  <keep>  (22) 
1.0

>  <hydroph_interaction:GLN:74>  (22) 
0.0

>  <hydroph_interaction:THR:118>  (22) 
0.0

>  <hydroph_interaction:ILE:123>  (22) 
0.0

>  <hydroph_interaction:THR:166>  (22) 
1.0

>  <hbond:GLN:167>  (22) 
2.0

>  <hydroph_interaction:ALA:88>  (22) 
0.0

>  <hydroph_interaction:ASP:120>  (22) 
0.0

>  <hydroph_interaction:GLN:167>  (22) 
0.0

>  <hbond:THR:118>  (22) 
1.0

>  <hydroph_interaction:ALA:164>  (22) 
0.0

>  <hbond:ASP:120>  (22) 
0.0

>  <hbond:THR:166>  (22) 
0.0

>  <hydroph_interaction:LEU:76>  (22) 
1.0

>  <hbond:ILE:165>  (22) 
0.0

>  <halogenbond:GLN:74>  (22) 
0.0

>  <hbond:GLN:74>  (22) 
0.0

>  <hbond:LYS:73>  (22) 
0.0

>  <pistack:TRP:69>  (22) 
0.0

>  <hbond:TRP:83>  (22) 
0.0

>  <hydroph_interaction:TRP:83>  (22) 
0.0

>  <hydroph_interaction:TRP:69>  (22) 
0.0

>  <pication:TRP:69>  (22) 
0.0

>  <hydroph_interaction:PRO:82>  (22) 
0.0

>  <halogenbond:LYS:73>  (22) 
0.0

>  <hydroph_interaction:TYR:68>  (22) 
0.0

>  <halogenbond:GLN:167>  (22) 
0.0

>  <hydroph_interaction:PHE:116>  (22) 
0.0

>  <hbond:TYR:68>  (22) 
0.0

>  <hbond:ASP:122>  (22) 
0.0

>  <pistack:PHE:116>  (22) 
0.0

>  <hydroph_interaction:VAL:154>  (22) 
0.0

>  <hydroph_interaction:ASP:75>  (22) 
0.0

>  <hbond:GLY:121>  (22) 
0.0

>  <hydroph_interaction:ASN:152>  (22) 
0.0

>  <halogenbond:ILE:165>  (22) 
0.0

$$$$
PV-003614952077-x0214S3-Z2102283482
     RDKit          3D

 45 48  0  0  0  0  0  0  0  0999 V2000
  -11.5090  -14.7770   -9.7370 N   0  0  0  0  0  0  0  0  0  0  0  0
  -12.3800  -13.7270   -9.8250 C   0  0  0  0  0  0  0  0  0  0  0  0
  -13.4710  -13.8860  -10.3650 O   0  0  0  0  0  0  0  0  0  0  0  0
  -11.9220  -12.4330   -9.2330 C   0  0  0  0  0  0  0  0  0  0  0  0
  -12.7900  -11.5820   -8.5430 C   0  0  0  0  0  0  0  0  0  0  0  0
  -12.4440  -10.3660   -7.9740 N   0  0  0  0  0  0  0  0  0  0  0  0
  -12.9800   -9.9340   -6.6960 C   0  0  0  0  0  0  0  0  0  0  0  0
  -14.2930   -9.5750   -6.6620 C   0  0  0  0  0  0  0  0  0  0  0  0
  -15.1340  -10.3760   -5.9050 C   0  0  0  0  0  0  0  0  0  0  0  0
  -16.4630  -10.0550   -5.8460 C   0  0  0  0  0  0  0  0  0  0  0  0
  -17.0230   -8.8700   -6.5650 C   0  0  0  0  0  0  0  0  0  0  0  0
  -16.1330   -8.1100   -7.3000 C   0  0  0  0  0  0  0  0  0  0  0  0
  -14.7810   -8.4380   -7.3730 C   0  0  0  0  0  0  0  0  0  0  0  0
  -13.9790   -7.6240   -8.1640 C   0  0  0  0  0  0  0  0  0  0  0  0
  -13.9640   -7.9230   -9.5120 C   0  0  0  0  0  0  0  0  0  0  0  0
  -13.1320   -7.0850  -10.4310 C   0  0  0  0  0  0  0  0  0  0  0  0
  -12.3940   -6.0310   -9.9000 C   0  0  0  0  0  0  0  0  0  0  0  0
  -12.4440   -5.7720   -8.5250 C   0  0  0  0  0  0  0  0  0  0  0  0
  -13.2280   -6.5580   -7.6650 C   0  0  0  0  0  0  0  0  0  0  0  0
  -11.3040   -9.7220   -8.3990 C   0  0  0  0  0  0  0  0  0  0  0  0
  -11.0320   -8.2650   -8.1960 C   0  0  0  0  0  0  0  0  0  0  0  0
   -9.8570   -7.6880   -8.6480 C   0  0  0  0  0  0  0  0  0  0  0  0
   -8.9390   -8.4800   -9.2870 C   0  0  0  0  0  0  0  0  0  0  0  0
   -9.1990   -9.8470   -9.4740 C   0  0  0  0  0  0  0  0  0  0  0  0
  -10.3470  -10.4580   -9.0480 C   0  0  0  0  0  0  0  0  0  0  0  0
  -10.5430  -11.9140   -9.3030 C   0  0  0  0  0  0  0  0  0  0  0  0
   -9.6070  -12.6330   -9.5640 O   0  0  0  0  0  0  0  0  0  0  0  0
  -11.4850  -15.5030  -10.4400 H   0  0  0  0  0  0  0  0  0  0  0  0
  -11.1470  -15.0230   -8.8090 H   0  0  0  0  0  0  0  0  0  0  0  0
  -13.8410  -11.8470   -8.4160 H   0  0  0  0  0  0  0  0  0  0  0  0
  -12.8500  -10.7950   -6.0270 H   0  0  0  0  0  0  0  0  0  0  0  0
  -12.2780   -9.1980   -6.3140 H   0  0  0  0  0  0  0  0  0  0  0  0
  -14.7670  -11.2460   -5.3630 H   0  0  0  0  0  0  0  0  0  0  0  0
  -17.1570  -10.6690   -5.2600 H   0  0  0  0  0  0  0  0  0  0  0  0
  -18.0900   -8.6180   -6.5100 H   0  0  0  0  0  0  0  0  0  0  0  0
  -16.4680   -7.2390   -7.8410 H   0  0  0  0  0  0  0  0  0  0  0  0
  -14.5480   -8.7510   -9.9110 H   0  0  0  0  0  0  0  0  0  0  0  0
  -13.1190   -7.3080  -11.4900 H   0  0  0  0  0  0  0  0  0  0  0  0
  -11.7830   -5.4110  -10.5540 H   0  0  0  0  0  0  0  0  0  0  0  0
  -11.8660   -4.9450   -8.1140 H   0  0  0  0  0  0  0  0  0  0  0  0
  -13.2460   -6.3290   -6.6010 H   0  0  0  0  0  0  0  0  0  0  0  0
  -11.7370   -7.6180   -7.6930 H   0  0  0  0  0  0  0  0  0  0  0  0
   -9.6670   -6.6280   -8.4970 H   0  0  0  0  0  0  0  0  0  0  0  0
   -8.0110   -8.0470   -9.6490 H   0  0  0  0  0  0  0  0  0  0  0  0
   -8.4650  -10.4600   -9.9830 H   0  0  0  0  0  0  0  0  0  0  0  0
  1  2  1  0
  2  3  2  0
  2  4  1  0
  4  5  2  0
  5  6  1  0
  6  7  1  0
  7  8  1  0
  8  9  2  0
  9 10  1  0
 10 11  2  0
 11 12  1  0
 12 13  2  0
 13 14  1  0
 14 15  2  0
 15 16  1  0
 16 17  2  0
 17 18  1  0
 18 19  2  0
  6 20  1  0
 20 21  2  0
 21 22  1  0
 22 23  2  0
 23 24  1  0
 24 25  2  0
 25 26  1  0
 26 27  2  0
 26  4  1  0
 13  8  1  0
 19 14  1  0
 25 20  1  0
  1 28  1  0
  1 29  1  0
  5 30  1  0
  7 31  1  0
  7 32  1  0
  9 33  1  0
 10 34  1  0
 11 35  1  0
 12 36  1  0
 15 37  1  0
 16 38  1  0
 17 39  1  0
 18 40  1  0
 19 41  1  0
 21 42  1  0
 22 43  1  0
 23 44  1  0
 24 45  1  0
A    1
 N1 
A    2
 C1 
A    3
 O1 
A    4
 C2 
A    5
 C3 
A    6
 N2 
A    7
 C4 
A    8
 C5 
A    9
 C6 
A   10
 C7 
A   11
 C8 
A   12
 C9 
A   13
 C10
A   14
 C11
A   15
 C12
A   16
 C13
A   17
 C14
A   18
 C15
A   19
 C16
A   20
 C17
A   21
 C18
A   22
 C19
A   23
 C20
A   24
 C21
A   25
 C22
A   26
 C23
A   27
 O2 
A   28
 H1 
A   29
 H2 
A   30
 H3 
A   31
 H4 
A   32
 H5 
A   33
 H6 
A   34
 H7 
A   35
 H8 
A   36
 H9 
A   37
 H10
A   38
 H11
A   39
 H12
A   40
 H13
A   41
 H14
A   42
 H15
A   43
 H16
A   44
 H17
A   45
 H18
M  END
>  <ref_pdb>  (23) 
x0051_0B

>  <ref_mols>  (23) 
x0051_0B

>  <original SMILES>  (23) 
[H]c1c([H])c([H])c(-c2c([H])c([H])c([H])c([H])c2C([H])([H])n2c([H])c(C(=O)N([H])[H])c(=O)c3c([H])c([H])c([H])c([H])c32)c([H])c1[H]

>  <index>  (23) 
2510.0

>  <∆∆G>  (23) 
-3.457055

>  <comRMSD>  (23) 
0.572291

>  <N_constrained_atoms>  (23) 
27.0

>  <N_unconstrained_atoms>  (23) 
1.0

>  <LE>  (23) 
0.123466

>  <percent_hybrid>  (23) 
16.0

>  <largest_ring>  (23) 
6.0

>  <N_HA>  (23) 
27.0

>  <N_rotatable_bonds>  (23) 
4.0

>  <max_hit_Tanimoto>  (23) 
0.285301

>  <N_interactions_kept>  (23) 
1.0

>  <N_interactions_lost>  (23) 
1.0

>  <interaction_uniqueness_metric>  (23) 
0.132166

>  <N_interactions>  (23) 
7.0

>  <N_PAINS>  (23) 
0.0

>  <UFF_Gibbs>  (23) 
191.952252

>  <strain_per_HA>  (23) 
7.109316

>  <ad_hoc_penalty>  (23) 
-31.199783

>  <cluster>  (23) 
5169.0

>  <intxn_cluster>  (23) 
1.0

>  <keep>  (23) 
1.0

>  <hydroph_interaction:GLN:74>  (23) 
0.0

>  <hydroph_interaction:THR:118>  (23) 
1.0

>  <hydroph_interaction:ILE:123>  (23) 
3.0

>  <hydroph_interaction:THR:166>  (23) 
1.0

>  <hbond:GLN:167>  (23) 
0.0

>  <hydroph_interaction:ALA:88>  (23) 
0.0

>  <hydroph_interaction:ASP:120>  (23) 
0.0

>  <hydroph_interaction:GLN:167>  (23) 
0.0

>  <hbond:THR:118>  (23) 
1.0

>  <hydroph_interaction:ALA:164>  (23) 
0.0

>  <hbond:ASP:120>  (23) 
1.0

>  <hbond:THR:166>  (23) 
0.0

>  <hydroph_interaction:LEU:76>  (23) 
0.0

>  <hbond:ILE:165>  (23) 
0.0

>  <halogenbond:GLN:74>  (23) 
0.0

>  <hbond:GLN:74>  (23) 
0.0

>  <hbond:LYS:73>  (23) 
0.0

>  <pistack:TRP:69>  (23) 
0.0

>  <hbond:TRP:83>  (23) 
0.0

>  <hydroph_interaction:TRP:83>  (23) 
0.0

>  <hydroph_interaction:TRP:69>  (23) 
0.0

>  <pication:TRP:69>  (23) 
0.0

>  <hydroph_interaction:PRO:82>  (23) 
0.0

>  <halogenbond:LYS:73>  (23) 
0.0

>  <hydroph_interaction:TYR:68>  (23) 
0.0

>  <halogenbond:GLN:167>  (23) 
0.0

>  <hydroph_interaction:PHE:116>  (23) 
0.0

>  <hbond:TYR:68>  (23) 
0.0

>  <hbond:ASP:122>  (23) 
0.0

>  <pistack:PHE:116>  (23) 
0.0

>  <hydroph_interaction:VAL:154>  (23) 
0.0

>  <hydroph_interaction:ASP:75>  (23) 
0.0

>  <hbond:GLY:121>  (23) 
0.0

>  <hydroph_interaction:ASN:152>  (23) 
0.0

>  <halogenbond:ILE:165>  (23) 
0.0

$$$$
PV-002858727830-x0214S3-Z198195906S11
     RDKit          3D

 20 21  0  0  0  0  0  0  0  0999 V2000
  -10.6960  -12.2600   -8.1820 C   0  0  0  0  0  0  0  0  0  0  0  0
  -12.0620  -11.9570   -7.6670 C   0  0  0  0  0  0  0  0  0  0  0  0
  -12.5520  -10.5720   -7.9110 C   0  0  0  0  0  0  0  0  0  0  0  0
  -11.7700   -9.6280   -8.5810 C   0  0  0  0  0  0  0  0  0  0  0  0
  -12.3030   -8.3460   -8.8160 C   0  0  0  0  0  0  0  0  0  0  0  0
  -13.3480   -8.2530   -9.7770 C   0  0  0  0  0  0  0  0  0  0  0  0
  -13.9820   -7.0990  -10.1550 N   0  0  0  0  0  0  0  0  0  0  0  0
  -13.4510   -5.9420   -9.4400 C   0  0  0  0  0  0  0  0  0  0  0  0
  -12.3950   -5.9440   -8.4440 N   0  0  0  0  0  0  0  0  0  0  0  0
  -11.8920   -7.1670   -8.1990 C   0  0  0  0  0  0  0  0  0  0  0  0
  -10.4700   -9.9970   -9.0260 C   0  0  0  0  0  0  0  0  0  0  0  0
   -9.9490  -11.2880   -8.8330 C   0  0  0  0  0  0  0  0  0  0  0  0
  -10.3470  -13.2820   -8.0030 H   0  0  0  0  0  0  0  0  0  0  0  0
  -12.6650  -12.6990   -7.1500 H   0  0  0  0  0  0  0  0  0  0  0  0
  -13.5600  -10.3830   -7.5290 H   0  0  0  0  0  0  0  0  0  0  0  0
  -13.6630   -9.1880  -10.2540 H   0  0  0  0  0  0  0  0  0  0  0  0
  -13.9270   -5.0070   -9.7110 H   0  0  0  0  0  0  0  0  0  0  0  0
  -11.0990   -7.1750   -7.4550 H   0  0  0  0  0  0  0  0  0  0  0  0
   -9.8530   -9.2660   -9.5410 H   0  0  0  0  0  0  0  0  0  0  0  0
   -8.9480  -11.5280   -9.2010 H   0  0  0  0  0  0  0  0  0  0  0  0
  1  2  2  0
  2  3  1  0
  3  4  2  0
  4  5  1  0
  5  6  2  0
  6  7  1  0
  7  8  2  0
  8  9  1  0
  9 10  2  0
  4 11  1  0
 11 12  2  0
 12  1  1  0
 10  5  1  0
  1 13  1  0
  2 14  1  0
  3 15  1  0
  6 16  1  0
  8 17  1  0
 10 18  1  0
 11 19  1  0
 12 20  1  0
A    1
 C1 
A    2
 C2 
A    3
 C3 
A    4
 C4 
A    5
 C5 
A    6
 C6 
A    7
 N1 
A    8
 C7 
A    9
 N2 
A   10
 C8 
A   11
 C9 
A   12
 C10
A   13
 H1 
A   14
 H2 
A   15
 H3 
A   16
 H4 
A   17
 H5 
A   18
 H6 
A   19
 H7 
A   20
 H8 
M  END
>  <ref_pdb>  (24) 
x0051_0B

>  <ref_mols>  (24) 
x0051_0B

>  <original SMILES>  (24) 
[H]c1nc([H])c(-c2c([H])c([H])c([H])c([H])c2[H])c([H])n1

>  <index>  (24) 
4117.0

>  <∆∆G>  (24) 
-3.346207

>  <comRMSD>  (24) 
0.784619

>  <N_constrained_atoms>  (24) 
12.0

>  <N_unconstrained_atoms>  (24) 
0.0

>  <LE>  (24) 
0.278851

>  <percent_hybrid>  (24) 
50.0

>  <largest_ring>  (24) 
6.0

>  <N_HA>  (24) 
12.0

>  <N_rotatable_bonds>  (24) 
1.0

>  <max_hit_Tanimoto>  (24) 
0.11236

>  <N_interactions_kept>  (24) 
0.0

>  <N_interactions_lost>  (24) 
1.0

>  <interaction_uniqueness_metric>  (24) 
0.076209

>  <N_interactions>  (24) 
6.0

>  <N_PAINS>  (24) 
0.0

>  <UFF_Gibbs>  (24) 
44.320495

>  <strain_per_HA>  (24) 
3.693344

>  <ad_hoc_penalty>  (24) 
-31.075157

>  <cluster>  (24) 
4478.0

>  <intxn_cluster>  (24) 
4.0

>  <keep>  (24) 
1.0

>  <hydroph_interaction:GLN:74>  (24) 
0.0

>  <hydroph_interaction:THR:118>  (24) 
1.0

>  <hydroph_interaction:ILE:123>  (24) 
2.0

>  <hydroph_interaction:THR:166>  (24) 
0.0

>  <hbond:GLN:167>  (24) 
2.0

>  <hydroph_interaction:ALA:88>  (24) 
0.0

>  <hydroph_interaction:ASP:120>  (24) 
1.0

>  <hydroph_interaction:GLN:167>  (24) 
0.0

>  <hbond:THR:118>  (24) 
0.0

>  <hydroph_interaction:ALA:164>  (24) 
0.0

>  <hbond:ASP:120>  (24) 
0.0

>  <hbond:THR:166>  (24) 
0.0

>  <hydroph_interaction:LEU:76>  (24) 
0.0

>  <hbond:ILE:165>  (24) 
0.0

>  <halogenbond:GLN:74>  (24) 
0.0

>  <hbond:GLN:74>  (24) 
0.0

>  <hbond:LYS:73>  (24) 
0.0

>  <pistack:TRP:69>  (24) 
0.0

>  <hbond:TRP:83>  (24) 
0.0

>  <hydroph_interaction:TRP:83>  (24) 
0.0

>  <hydroph_interaction:TRP:69>  (24) 
0.0

>  <pication:TRP:69>  (24) 
0.0

>  <hydroph_interaction:PRO:82>  (24) 
0.0

>  <halogenbond:LYS:73>  (24) 
0.0

>  <hydroph_interaction:TYR:68>  (24) 
0.0

>  <halogenbond:GLN:167>  (24) 
0.0

>  <hydroph_interaction:PHE:116>  (24) 
0.0

>  <hbond:TYR:68>  (24) 
0.0

>  <hbond:ASP:122>  (24) 
0.0

>  <pistack:PHE:116>  (24) 
0.0

>  <hydroph_interaction:VAL:154>  (24) 
0.0

>  <hydroph_interaction:ASP:75>  (24) 
0.0

>  <hbond:GLY:121>  (24) 
0.0

>  <hydroph_interaction:ASN:152>  (24) 
0.0

>  <halogenbond:ILE:165>  (24) 
0.0

$$$$
Z1185043329-Z2102283482-x0214S1
     RDKit          3D

 41 43  0  0  0  0  0  0  0  0999 V2000
  -13.7970   -6.9660   -9.5100 C   0  0  0  0  0  0  0  0  0  0  0  0
  -13.5750   -6.8250   -7.7320 S   0  0  0  0  0  0  0  0  0  0  0  0
  -14.6340   -8.1630   -7.2020 C   0  0  0  0  0  0  0  0  0  0  0  0
  -16.1460   -7.9170   -7.2090 C   0  0  0  0  0  0  0  0  0  0  0  0
  -16.9630   -8.9730   -6.7840 C   0  0  0  0  0  0  0  0  0  0  0  0
  -16.4270  -10.1930   -6.3720 C   0  0  0  0  0  0  0  0  0  0  0  0
  -15.0440  -10.4100   -6.3700 C   0  0  0  0  0  0  0  0  0  0  0  0
  -14.1640   -9.4160   -6.7790 C   0  0  0  0  0  0  0  0  0  0  0  0
  -12.7140   -9.7070   -6.7680 C   0  0  0  0  0  0  0  0  0  0  0  0
  -12.0160   -9.3120   -5.5790 O   0  0  0  0  0  0  0  0  0  0  0  0
  -12.0780  -10.2740   -7.8330 N   0  0  0  0  0  0  0  0  0  0  0  0
  -12.6680  -11.4300   -8.4760 C   0  0  0  0  0  0  0  0  0  0  0  0
  -11.7060  -12.5530   -8.7970 C   0  0  0  0  0  0  0  0  0  0  0  0
  -12.2900  -13.5720   -9.7590 C   0  0  0  0  0  0  0  0  0  0  0  0
  -11.5490  -14.6520  -10.0750 N   0  0  0  0  0  0  0  0  0  0  0  0
  -13.4160  -13.4500  -10.2510 O   0  0  0  0  0  0  0  0  0  0  0  0
  -10.3040  -12.0690   -9.2150 C   0  0  0  0  0  0  0  0  0  0  0  0
  -10.0690  -10.5590   -9.0290 C   0  0  0  0  0  0  0  0  0  0  0  0
   -8.9340   -9.9740   -9.5480 C   0  0  0  0  0  0  0  0  0  0  0  0
   -8.6950   -8.5790   -9.4100 C   0  0  0  0  0  0  0  0  0  0  0  0
   -9.5830   -7.7760   -8.7500 C   0  0  0  0  0  0  0  0  0  0  0  0
  -10.7070   -8.3530   -8.2250 C   0  0  0  0  0  0  0  0  0  0  0  0
  -10.9470   -9.7240   -8.3640 C   0  0  0  0  0  0  0  0  0  0  0  0
  -14.8180   -6.6650   -9.7690 H   0  0  0  0  0  0  0  0  0  0  0  0
  -13.0860   -6.3330  -10.0530 H   0  0  0  0  0  0  0  0  0  0  0  0
  -13.6660   -7.9980   -9.8570 H   0  0  0  0  0  0  0  0  0  0  0  0
  -16.5760   -6.9590   -7.5290 H   0  0  0  0  0  0  0  0  0  0  0  0
  -18.0450   -8.8530   -6.7670 H   0  0  0  0  0  0  0  0  0  0  0  0
  -17.0940  -10.9890   -6.0470 H   0  0  0  0  0  0  0  0  0  0  0  0
  -14.6520  -11.3700   -6.0460 H   0  0  0  0  0  0  0  0  0  0  0  0
  -13.4310  -11.8080   -7.7800 H   0  0  0  0  0  0  0  0  0  0  0  0
  -13.2130  -11.0830   -9.3600 H   0  0  0  0  0  0  0  0  0  0  0  0
  -11.5530  -13.0550   -7.8320 H   0  0  0  0  0  0  0  0  0  0  0  0
  -11.1400  -14.7280  -11.0010 H   0  0  0  0  0  0  0  0  0  0  0  0
  -11.7870  -15.5140   -9.6040 H   0  0  0  0  0  0  0  0  0  0  0  0
  -10.1520  -12.4340  -10.2250 H   0  0  0  0  0  0  0  0  0  0  0  0
   -9.6120  -12.6790   -8.6360 H   0  0  0  0  0  0  0  0  0  0  0  0
   -8.2030  -10.5680  -10.0770 H   0  0  0  0  0  0  0  0  0  0  0  0
   -7.7960   -8.1480   -9.8330 H   0  0  0  0  0  0  0  0  0  0  0  0
   -9.4030   -6.7090   -8.6430 H   0  0  0  0  0  0  0  0  0  0  0  0
  -11.3930   -7.6970   -7.7040 H   0  0  0  0  0  0  0  0  0  0  0  0
  1  2  1  0
  2  3  1  0
  3  4  2  0
  4  5  1  0
  5  6  2  0
  6  7  1  0
  7  8  2  0
  8  9  1  0
  9 10  2  0
  9 11  1  0
 11 12  1  0
 12 13  1  0
 13 14  1  0
 14 15  1  0
 14 16  2  0
 13 17  1  0
 17 18  1  0
 18 19  2  0
 19 20  1  0
 20 21  2  0
 21 22  1  0
 22 23  2  0
  8  3  1  0
 23 11  1  0
 23 18  1  0
  1 24  1  0
  1 25  1  0
  1 26  1  0
  4 27  1  0
  5 28  1  0
  6 29  1  0
  7 30  1  0
 12 31  1  0
 12 32  1  0
 13 33  1  0
 15 34  1  0
 15 35  1  0
 17 36  1  0
 17 37  1  0
 19 38  1  0
 20 39  1  0
 21 40  1  0
 22 41  1  0
A    1
 C1 
A    2
 S1 
A    3
 C2 
A    4
 C3 
A    5
 C4 
A    6
 C5 
A    7
 C6 
A    8
 C7 
A    9
 C8 
A   10
 O1 
A   11
 N1 
A   12
 C9 
A   13
 C10
A   14
 C11
A   15
 N2 
A   16
 O2 
A   17
 C12
A   18
 C13
A   19
 C14
A   20
 C15
A   21
 C16
A   22
 C17
A   23
 C18
A   24
 H1 
A   25
 H2 
A   26
 H3 
A   27
 H4 
A   28
 H5 
A   29
 H6 
A   30
 H7 
A   31
 H8 
A   32
 H9 
A   33
 H10
A   34
 H11
A   35
 H12
A   36
 H13
A   37
 H14
A   38
 H15
A   39
 H16
A   40
 H17
A   41
 H18
M  END
>  <ref_pdb>  (25) 
x0051_0B

>  <ref_mols>  (25) 
x0051_0B

>  <original SMILES>  (25) 
[H]c1c([H])c([H])c(C(=O)N2c3c([H])c([H])c([H])c([H])c3C([H])([H])C([H])(C(=O)N([H])[H])C2([H])[H])c(SC([H])([H])[H])c1[H]

>  <index>  (25) 
7411.0

>  <∆∆G>  (25) 
-5.088042

>  <comRMSD>  (25) 
0.737114

>  <N_constrained_atoms>  (25) 
24.0

>  <N_unconstrained_atoms>  (25) 
0.0

>  <LE>  (25) 
0.212002

>  <percent_hybrid>  (25) 
5.0

>  <largest_ring>  (25) 
6.0

>  <N_HA>  (25) 
23.0

>  <N_rotatable_bonds>  (25) 
4.0

>  <max_hit_Tanimoto>  (25) 
0.666365

>  <N_interactions_kept>  (25) 
1.0

>  <N_interactions_lost>  (25) 
1.0

>  <interaction_uniqueness_metric>  (25) 
0.111568

>  <N_interactions>  (25) 
6.0

>  <N_PAINS>  (25) 
0.0

>  <UFF_Gibbs>  (25) 
85.136249

>  <strain_per_HA>  (25) 
3.70156

>  <ad_hoc_penalty>  (25) 
-30.961845

>  <cluster>  (25) 
3081.0

>  <intxn_cluster>  (25) 
12.0

>  <keep>  (25) 
1.0

>  <hydroph_interaction:GLN:74>  (25) 
1.0

>  <hydroph_interaction:THR:118>  (25) 
1.0

>  <hydroph_interaction:ILE:123>  (25) 
3.0

>  <hydroph_interaction:THR:166>  (25) 
0.0

>  <hbond:GLN:167>  (25) 
0.0

>  <hydroph_interaction:ALA:88>  (25) 
0.0

>  <hydroph_interaction:ASP:120>  (25) 
0.0

>  <hydroph_interaction:GLN:167>  (25) 
0.0

>  <hbond:THR:118>  (25) 
0.0

>  <hydroph_interaction:ALA:164>  (25) 
0.0

>  <hbond:ASP:120>  (25) 
1.0

>  <hbond:THR:166>  (25) 
0.0

>  <hydroph_interaction:LEU:76>  (25) 
0.0

>  <hbond:ILE:165>  (25) 
0.0

>  <halogenbond:GLN:74>  (25) 
0.0

>  <hbond:GLN:74>  (25) 
0.0

>  <hbond:LYS:73>  (25) 
0.0

>  <pistack:TRP:69>  (25) 
0.0

>  <hbond:TRP:83>  (25) 
0.0

>  <hydroph_interaction:TRP:83>  (25) 
0.0

>  <hydroph_interaction:TRP:69>  (25) 
0.0

>  <pication:TRP:69>  (25) 
0.0

>  <hydroph_interaction:PRO:82>  (25) 
0.0

>  <halogenbond:LYS:73>  (25) 
0.0

>  <hydroph_interaction:TYR:68>  (25) 
0.0

>  <halogenbond:GLN:167>  (25) 
0.0

>  <hydroph_interaction:PHE:116>  (25) 
0.0

>  <hbond:TYR:68>  (25) 
0.0

>  <hbond:ASP:122>  (25) 
0.0

>  <pistack:PHE:116>  (25) 
0.0

>  <hydroph_interaction:VAL:154>  (25) 
0.0

>  <hydroph_interaction:ASP:75>  (25) 
0.0

>  <hbond:GLY:121>  (25) 
0.0

>  <hydroph_interaction:ASN:152>  (25) 
0.0

>  <halogenbond:ILE:165>  (25) 
0.0

$$$$
Z1163556147-Z1318055457S2-x0806S1
     RDKit          3D

 38 40  0  0  0  0  0  0  0  0999 V2000
  -11.6170   -5.0320  -10.3140 C   0  0  0  0  0  0  0  0  0  0  0  0
  -12.5770   -5.9190   -9.5680 C   0  0  0  0  0  0  0  0  0  0  0  0
  -12.6560   -5.8710   -8.1870 C   0  0  0  0  0  0  0  0  0  0  0  0
  -13.5500   -6.7100   -7.5360 C   0  0  0  0  0  0  0  0  0  0  0  0
  -14.3500   -7.5830   -8.2730 C   0  0  0  0  0  0  0  0  0  0  0  0
  -15.2410   -8.4400   -7.6200 C   0  0  0  0  0  0  0  0  0  0  0  0
  -14.6330   -9.7740   -7.6350 N   0  0  0  0  0  0  0  0  0  0  0  0
  -13.4000   -9.8150   -6.8300 C   0  0  0  0  0  0  0  0  0  0  0  0
  -12.2450  -10.3220   -7.6570 C   0  0  0  0  0  0  0  0  0  0  0  0
  -12.0990  -11.7760   -8.0080 C   0  0  0  0  0  0  0  0  0  0  0  0
  -10.9670  -12.2620   -8.8050 C   0  0  0  0  0  0  0  0  0  0  0  0
  -10.0210  -11.3490   -9.2370 C   0  0  0  0  0  0  0  0  0  0  0  0
  -10.1590   -9.9720   -8.9140 C   0  0  0  0  0  0  0  0  0  0  0  0
   -9.2060   -9.1010   -9.3690 C   0  0  0  0  0  0  0  0  0  0  0  0
   -9.2550   -7.7720   -9.1090 C   0  0  0  0  0  0  0  0  0  0  0  0
  -10.2550   -7.2010   -8.3730 C   0  0  0  0  0  0  0  0  0  0  0  0
  -11.2330   -8.0640   -7.9000 C   0  0  0  0  0  0  0  0  0  0  0  0
  -11.2320   -9.4400   -8.1420 C   0  0  0  0  0  0  0  0  0  0  0  0
  -14.2200   -7.5680   -9.6520 C   0  0  0  0  0  0  0  0  0  0  0  0
  -13.3670   -6.7640  -10.3090 N   0  0  0  0  0  0  0  0  0  0  0  0
  -11.7390   -3.9820  -10.0300 H   0  0  0  0  0  0  0  0  0  0  0  0
  -11.7890   -5.1050  -11.3890 H   0  0  0  0  0  0  0  0  0  0  0  0
  -10.5820   -5.3040  -10.0950 H   0  0  0  0  0  0  0  0  0  0  0  0
  -12.0300   -5.1950   -7.6090 H   0  0  0  0  0  0  0  0  0  0  0  0
  -13.6210   -6.6880   -6.4530 H   0  0  0  0  0  0  0  0  0  0  0  0
  -16.2280   -8.5490   -8.0700 H   0  0  0  0  0  0  0  0  0  0  0  0
  -15.4640   -8.1760   -6.5880 H   0  0  0  0  0  0  0  0  0  0  0  0
  -14.3910  -10.0120   -8.5980 H   0  0  0  0  0  0  0  0  0  0  0  0
  -13.2980   -8.7980   -6.4650 H   0  0  0  0  0  0  0  0  0  0  0  0
  -13.6370  -10.4020   -5.9470 H   0  0  0  0  0  0  0  0  0  0  0  0
  -12.8350  -12.5190   -7.6750 H   0  0  0  0  0  0  0  0  0  0  0  0
  -10.9880  -13.3520   -8.9830 H   0  0  0  0  0  0  0  0  0  0  0  0
   -9.1670  -11.6760   -9.8300 H   0  0  0  0  0  0  0  0  0  0  0  0
   -8.4110   -9.5010   -9.9460 H   0  0  0  0  0  0  0  0  0  0  0  0
   -8.4730   -7.1230   -9.4960 H   0  0  0  0  0  0  0  0  0  0  0  0
  -10.2910   -6.1360   -8.1670 H   0  0  0  0  0  0  0  0  0  0  0  0
  -11.9980   -7.5590   -7.3240 H   0  0  0  0  0  0  0  0  0  0  0  0
  -14.8150   -8.2220  -10.2880 H   0  0  0  0  0  0  0  0  0  0  0  0
  1  2  1  0
  2  3  2  0
  3  4  1  0
  4  5  2  0
  5  6  1  0
  6  7  1  0
  7  8  1  0
  8  9  1  0
  9 10  2  0
 10 11  1  0
 11 12  2  0
 12 13  1  0
 13 14  2  0
 14 15  1  0
 15 16  2  0
 16 17  1  0
 17 18  2  0
  5 19  1  0
 19 20  2  0
 20  2  1  0
 18  9  1  0
 18 13  1  0
  1 21  1  0
  1 22  1  0
  1 23  1  0
  3 24  1  0
  4 25  1  0
  6 26  1  0
  6 27  1  0
  7 28  1  0
  8 29  1  0
  8 30  1  0
 10 31  1  0
 11 32  1  0
 12 33  1  0
 14 34  1  0
 15 35  1  0
 16 36  1  0
 17 37  1  0
 19 38  1  0
A    1
 C1 
A    2
 C2 
A    3
 C3 
A    4
 C4 
A    5
 C5 
A    6
 C6 
A    7
 N1 
A    8
 C7 
A    9
 C8 
A   10
 C9 
A   11
 C10
A   12
 C11
A   13
 C12
A   14
 C13
A   15
 C14
A   16
 C15
A   17
 C16
A   18
 C17
A   19
 C18
A   20
 N2 
A   21
 H1 
A   22
 H2 
A   23
 H3 
A   24
 H4 
A   25
 H5 
A   26
 H6 
A   27
 H7 
A   28
 H8 
A   29
 H9 
A   30
 H10
A   31
 H11
A   32
 H12
A   33
 H13
A   34
 H14
A   35
 H15
A   36
 H16
A   37
 H17
A   38
 H18
M  END
>  <ref_pdb>  (26) 
x0051_0B

>  <ref_mols>  (26) 
x0051_0B

>  <original SMILES>  (26) 
[H]c1nc(C([H])([H])[H])c([H])c([H])c1C([H])([H])N([H])C([H])([H])c1c([H])c([H])c([H])c2c([H])c([H])c([H])c([H])c12

>  <index>  (26) 
505.0

>  <∆∆G>  (26) 
-5.397169

>  <comRMSD>  (26) 
0.614162

>  <N_constrained_atoms>  (26) 
17.0

>  <N_unconstrained_atoms>  (26) 
3.0

>  <LE>  (26) 
0.269858

>  <percent_hybrid>  (26) 
36.0

>  <largest_ring>  (26) 
6.0

>  <N_HA>  (26) 
20.0

>  <N_rotatable_bonds>  (26) 
5.0

>  <max_hit_Tanimoto>  (26) 
0.309735

>  <N_interactions_kept>  (26) 
0.5

>  <N_interactions_lost>  (26) 
1.0

>  <interaction_uniqueness_metric>  (26) 
0.124153

>  <N_interactions>  (26) 
7.0

>  <N_PAINS>  (26) 
0.0

>  <UFF_Gibbs>  (26) 
224.461014

>  <strain_per_HA>  (26) 
11.222995

>  <ad_hoc_penalty>  (26) 
-30.884296

>  <cluster>  (26) 
5842.0

>  <intxn_cluster>  (26) 
18.0

>  <keep>  (26) 
1.0

>  <hydroph_interaction:GLN:74>  (26) 
0.0

>  <hydroph_interaction:THR:118>  (26) 
1.0

>  <hydroph_interaction:ILE:123>  (26) 
3.0

>  <hydroph_interaction:THR:166>  (26) 
1.0

>  <hbond:GLN:167>  (26) 
1.0

>  <hydroph_interaction:ALA:88>  (26) 
0.0

>  <hydroph_interaction:ASP:120>  (26) 
0.0

>  <hydroph_interaction:GLN:167>  (26) 
0.0

>  <hbond:THR:118>  (26) 
0.0

>  <hydroph_interaction:ALA:164>  (26) 
1.0

>  <hbond:ASP:120>  (26) 
0.0

>  <hbond:THR:166>  (26) 
0.0

>  <hydroph_interaction:LEU:76>  (26) 
0.0

>  <hbond:ILE:165>  (26) 
0.0

>  <halogenbond:GLN:74>  (26) 
0.0

>  <hbond:GLN:74>  (26) 
0.0

>  <hbond:LYS:73>  (26) 
0.0

>  <pistack:TRP:69>  (26) 
0.0

>  <hbond:TRP:83>  (26) 
0.0

>  <hydroph_interaction:TRP:83>  (26) 
0.0

>  <hydroph_interaction:TRP:69>  (26) 
0.0

>  <pication:TRP:69>  (26) 
0.0

>  <hydroph_interaction:PRO:82>  (26) 
0.0

>  <halogenbond:LYS:73>  (26) 
0.0

>  <hydroph_interaction:TYR:68>  (26) 
0.0

>  <halogenbond:GLN:167>  (26) 
0.0

>  <hydroph_interaction:PHE:116>  (26) 
0.0

>  <hbond:TYR:68>  (26) 
0.0

>  <hbond:ASP:122>  (26) 
0.0

>  <pistack:PHE:116>  (26) 
0.0

>  <hydroph_interaction:VAL:154>  (26) 
0.0

>  <hydroph_interaction:ASP:75>  (26) 
0.0

>  <hbond:GLY:121>  (26) 
0.0

>  <hydroph_interaction:ASN:152>  (26) 
0.0

>  <halogenbond:ILE:165>  (26) 
0.0

$$$$
Z52334926-x0884S4-Z198195906S4
     RDKit          3D

 36 37  0  0  0  0  0  0  0  0999 V2000
  -13.1430   -9.8020   -6.6830 C   0  0  0  0  0  0  0  0  0  0  0  0
  -11.9830  -10.2960   -7.5520 C   0  0  0  0  0  0  0  0  0  0  0  0
  -12.0070  -11.7610   -7.9070 C   0  0  0  0  0  0  0  0  0  0  0  0
  -11.0260  -12.3530   -8.6790 C   0  0  0  0  0  0  0  0  0  0  0  0
   -9.9880  -11.5410   -9.1350 C   0  0  0  0  0  0  0  0  0  0  0  0
   -9.9410  -10.1520   -8.8180 C   0  0  0  0  0  0  0  0  0  0  0  0
  -10.9210   -9.5110   -8.0290 C   0  0  0  0  0  0  0  0  0  0  0  0
  -10.8380   -8.1500   -7.7260 C   0  0  0  0  0  0  0  0  0  0  0  0
  -10.3190   -7.3380   -8.8140 N   0  0  0  0  0  0  0  0  0  0  0  0
  -10.9440   -6.1230   -9.3830 C   0  0  0  0  0  0  0  0  0  0  0  0
  -12.3610   -5.9070   -9.3950 O   0  0  0  0  0  0  0  0  0  0  0  0
   -9.9460   -5.1030   -9.9880 C   0  0  0  0  0  0  0  0  0  0  0  0
   -8.4290   -5.9680  -10.5090 S   0  0  0  0  0  0  0  0  0  0  0  0
   -7.2290   -4.6630  -10.4490 C   0  0  0  0  0  0  0  0  0  0  0  0
   -7.7050   -3.1950  -10.6180 C   0  0  0  0  0  0  0  0  0  0  0  0
   -6.7500   -2.1850  -10.5580 C   0  0  0  0  0  0  0  0  0  0  0  0
   -5.4090   -2.5000  -10.3540 C   0  0  0  0  0  0  0  0  0  0  0  0
   -4.9800   -3.8260  -10.2060 C   0  0  0  0  0  0  0  0  0  0  0  0
   -5.8710   -4.8950  -10.2530 C   0  0  0  0  0  0  0  0  0  0  0  0
  -13.9340  -10.5570   -6.6250 H   0  0  0  0  0  0  0  0  0  0  0  0
  -13.5800   -8.8870   -7.1000 H   0  0  0  0  0  0  0  0  0  0  0  0
  -12.8180   -9.5780   -5.6610 H   0  0  0  0  0  0  0  0  0  0  0  0
  -12.8370  -12.3640   -7.5300 H   0  0  0  0  0  0  0  0  0  0  0  0
  -11.0610  -13.4130   -8.9210 H   0  0  0  0  0  0  0  0  0  0  0  0
   -9.1990  -11.9800   -9.7460 H   0  0  0  0  0  0  0  0  0  0  0  0
   -9.1110   -9.5660   -9.2020 H   0  0  0  0  0  0  0  0  0  0  0  0
  -11.8280   -7.7740   -7.4380 H   0  0  0  0  0  0  0  0  0  0  0  0
  -10.2070   -7.9960   -6.8450 H   0  0  0  0  0  0  0  0  0  0  0  0
   -9.4670   -7.6710   -9.2720 H   0  0  0  0  0  0  0  0  0  0  0  0
   -9.6780   -4.3460   -9.2410 H   0  0  0  0  0  0  0  0  0  0  0  0
  -10.4090   -4.5650  -10.8280 H   0  0  0  0  0  0  0  0  0  0  0  0
   -8.7530   -2.9480  -10.7770 H   0  0  0  0  0  0  0  0  0  0  0  0
   -7.0330   -1.1420  -10.6670 H   0  0  0  0  0  0  0  0  0  0  0  0
   -4.6750   -1.6960  -10.3090 H   0  0  0  0  0  0  0  0  0  0  0  0
   -3.9230   -4.0250  -10.0500 H   0  0  0  0  0  0  0  0  0  0  0  0
   -5.4950   -5.9100  -10.1330 H   0  0  0  0  0  0  0  0  0  0  0  0
  1  2  1  0
  2  3  2  0
  3  4  1  0
  4  5  2  0
  5  6  1  0
  6  7  2  0
  7  8  1  0
  8  9  1  0
  9 10  1  0
 10 11  2  0
 10 12  1  0
 12 13  1  0
 13 14  1  0
 14 15  2  0
 15 16  1  0
 16 17  2  0
 17 18  1  0
 18 19  2  0
  7  2  1  0
 19 14  1  0
  1 20  1  0
  1 21  1  0
  1 22  1  0
  3 23  1  0
  4 24  1  0
  5 25  1  0
  6 26  1  0
  8 27  1  0
  8 28  1  0
  9 29  1  0
 12 30  1  0
 12 31  1  0
 15 32  1  0
 16 33  1  0
 17 34  1  0
 18 35  1  0
 19 36  1  0
A    1
 C1 
A    2
 C2 
A    3
 C3 
A    4
 C4 
A    5
 C5 
A    6
 C6 
A    7
 C7 
A    8
 C8 
A    9
 N1 
A   10
 C9 
A   11
 O1 
A   12
 C10
A   13
 S1 
A   14
 C11
A   15
 C12
A   16
 C13
A   17
 C14
A   18
 C15
A   19
 C16
A   20
 H1 
A   21
 H2 
A   22
 H3 
A   23
 H4 
A   24
 H5 
A   25
 H6 
A   26
 H7 
A   27
 H8 
A   28
 H9 
A   29
 H10
A   30
 H11
A   31
 H12
A   32
 H13
A   33
 H14
A   34
 H15
A   35
 H16
A   36
 H17
M  END
>  <ref_pdb>  (27) 
x0051_0B

>  <ref_mols>  (27) 
x0051_0B

>  <original SMILES>  (27) 
[H]c1c([H])c([H])c(SC([H])([H])C(=O)N([H])C([H])([H])c2c([H])c([H])c([H])c([H])c2C([H])([H])[H])c([H])c1[H]

>  <index>  (27) 
4356.0

>  <∆∆G>  (27) 
-8.541636

>  <comRMSD>  (27) 
0.499568

>  <N_constrained_atoms>  (27) 
13.0

>  <N_unconstrained_atoms>  (27) 
7.0

>  <LE>  (27) 
0.427082

>  <percent_hybrid>  (27) 
9.0

>  <largest_ring>  (27) 
6.0

>  <N_HA>  (27) 
19.0

>  <N_rotatable_bonds>  (27) 
6.0

>  <max_hit_Tanimoto>  (27) 
0.440678

>  <N_interactions_kept>  (27) 
0.5

>  <N_interactions_lost>  (27) 
1.0

>  <interaction_uniqueness_metric>  (27) 
0.431682

>  <N_interactions>  (27) 
5.0

>  <N_PAINS>  (27) 
0.0

>  <UFF_Gibbs>  (27) 
89.230539

>  <strain_per_HA>  (27) 
4.696319

>  <ad_hoc_penalty>  (27) 
-30.799224

>  <cluster>  (27) 
4411.0

>  <intxn_cluster>  (27) 
13.0

>  <keep>  (27) 
1.0

>  <hydroph_interaction:GLN:74>  (27) 
0.0

>  <hydroph_interaction:THR:118>  (27) 
1.0

>  <hydroph_interaction:ILE:123>  (27) 
2.0

>  <hydroph_interaction:THR:166>  (27) 
0.0

>  <hbond:GLN:167>  (27) 
0.0

>  <hydroph_interaction:ALA:88>  (27) 
0.0

>  <hydroph_interaction:ASP:120>  (27) 
0.0

>  <hydroph_interaction:GLN:167>  (27) 
0.0

>  <hbond:THR:118>  (27) 
0.0

>  <hydroph_interaction:ALA:164>  (27) 
0.0

>  <hbond:ASP:120>  (27) 
0.0

>  <hbond:THR:166>  (27) 
0.0

>  <hydroph_interaction:LEU:76>  (27) 
0.0

>  <hbond:ILE:165>  (27) 
0.0

>  <halogenbond:GLN:74>  (27) 
0.0

>  <hbond:GLN:74>  (27) 
0.0

>  <hbond:LYS:73>  (27) 
0.0

>  <pistack:TRP:69>  (27) 
0.0

>  <hbond:TRP:83>  (27) 
0.0

>  <hydroph_interaction:TRP:83>  (27) 
0.0

>  <hydroph_interaction:TRP:69>  (27) 
0.0

>  <pication:TRP:69>  (27) 
0.0

>  <hydroph_interaction:PRO:82>  (27) 
0.0

>  <halogenbond:LYS:73>  (27) 
0.0

>  <hydroph_interaction:TYR:68>  (27) 
0.0

>  <halogenbond:GLN:167>  (27) 
0.0

>  <hydroph_interaction:PHE:116>  (27) 
1.0

>  <hbond:TYR:68>  (27) 
0.0

>  <hbond:ASP:122>  (27) 
0.0

>  <pistack:PHE:116>  (27) 
0.0

>  <hydroph_interaction:VAL:154>  (27) 
1.0

>  <hydroph_interaction:ASP:75>  (27) 
0.0

>  <hbond:GLY:121>  (27) 
0.0

>  <hydroph_interaction:ASN:152>  (27) 
0.0

>  <halogenbond:ILE:165>  (27) 
0.0

$$$$
PV-002525067116-x0806S1-Z198195906S1
     RDKit          3D

 17 17  0  0  0  0  0  0  0  0999 V2000
   -9.5600   -6.6520   -9.2490 N   0  0  0  0  0  0  0  0  0  0  0  0
  -10.5840   -5.9390   -9.8020 C   0  0  0  0  0  0  0  0  0  0  0  0
  -10.3470   -5.0080  -10.5420 O   0  0  0  0  0  0  0  0  0  0  0  0
  -11.9960   -6.3640   -9.4220 C   0  0  0  0  0  0  0  0  0  0  0  0
  -12.8410   -7.0140  -10.5220 C   0  0  0  0  0  0  0  0  0  0  0  0
  -14.2100   -7.4160  -10.0400 C   0  0  0  0  0  0  0  0  0  0  0  0
  -15.0450   -7.9970  -10.9280 O   0  0  0  0  0  0  0  0  0  0  0  0
  -14.6240   -7.1650   -8.6160 C   0  0  0  0  0  0  0  0  0  0  0  0
  -13.7450   -6.5550   -7.7280 C   0  0  0  0  0  0  0  0  0  0  0  0
  -12.4640   -6.1630   -8.1210 C   0  0  0  0  0  0  0  0  0  0  0  0
   -9.7910   -7.1840   -8.4210 H   0  0  0  0  0  0  0  0  0  0  0  0
   -8.5910   -6.3970   -9.3800 H   0  0  0  0  0  0  0  0  0  0  0  0
  -12.5260   -7.1810  -11.5380 H   0  0  0  0  0  0  0  0  0  0  0  0
  -14.5170   -8.4970  -11.5770 H   0  0  0  0  0  0  0  0  0  0  0  0
  -15.6140   -7.4510   -8.2650 H   0  0  0  0  0  0  0  0  0  0  0  0
  -14.0590   -6.3790   -6.7040 H   0  0  0  0  0  0  0  0  0  0  0  0
  -11.8120   -5.6900   -7.3870 H   0  0  0  0  0  0  0  0  0  0  0  0
  1  2  1  0
  2  3  2  0
  2  4  1  0
  4  5  2  0
  5  6  1  0
  6  7  1  0
  6  8  2  0
  8  9  1  0
  9 10  2  0
 10  4  1  0
  1 11  1  0
  1 12  1  0
  5 13  1  0
  7 14  1  0
  8 15  1  0
  9 16  1  0
 10 17  1  0
A    1
 N1 
A    2
 C1 
A    3
 O1 
A    4
 C2 
A    5
 C3 
A    6
 C4 
A    7
 O2 
A    8
 C5 
A    9
 C6 
A   10
 C7 
A   11
 H1 
A   12
 H2 
A   13
 H3 
A   14
 H4 
A   15
 H5 
A   16
 H6 
A   17
 H7 
M  END
>  <ref_pdb>  (28) 
x0051_0B

>  <ref_mols>  (28) 
x0051_0B

>  <original SMILES>  (28) 
[H]Oc1c([H])c([H])c([H])c(C(=O)N([H])[H])c1[H]

>  <index>  (28) 
867.0

>  <∆∆G>  (28) 
-4.004965

>  <comRMSD>  (28) 
0.656267

>  <N_constrained_atoms>  (28) 
9.0

>  <N_unconstrained_atoms>  (28) 
1.0

>  <LE>  (28) 
0.400497

>  <percent_hybrid>  (28) 
38.0

>  <largest_ring>  (28) 
6.0

>  <N_HA>  (28) 
10.0

>  <N_rotatable_bonds>  (28) 
2.0

>  <max_hit_Tanimoto>  (28) 
0.064171

>  <N_interactions_kept>  (28) 
0.0

>  <N_interactions_lost>  (28) 
0.5

>  <interaction_uniqueness_metric>  (28) 
0.160574

>  <N_interactions>  (28) 
5.0

>  <N_PAINS>  (28) 
0.0

>  <UFF_Gibbs>  (28) 
44.964646

>  <strain_per_HA>  (28) 
4.49642

>  <ad_hoc_penalty>  (28) 
-30.590554

>  <cluster>  (28) 
5717.0

>  <intxn_cluster>  (28) 
4.0

>  <keep>  (28) 
1.0

>  <hydroph_interaction:GLN:74>  (28) 
0.0

>  <hydroph_interaction:THR:118>  (28) 
0.0

>  <hydroph_interaction:ILE:123>  (28) 
2.0

>  <hydroph_interaction:THR:166>  (28) 
0.0

>  <hbond:GLN:167>  (28) 
2.0

>  <hydroph_interaction:ALA:88>  (28) 
0.0

>  <hydroph_interaction:ASP:120>  (28) 
0.0

>  <hydroph_interaction:GLN:167>  (28) 
0.0

>  <hbond:THR:118>  (28) 
0.0

>  <hydroph_interaction:ALA:164>  (28) 
0.0

>  <hbond:ASP:120>  (28) 
0.0

>  <hbond:THR:166>  (28) 
0.0

>  <hydroph_interaction:LEU:76>  (28) 
0.0

>  <hbond:ILE:165>  (28) 
1.0

>  <halogenbond:GLN:74>  (28) 
0.0

>  <hbond:GLN:74>  (28) 
0.0

>  <hbond:LYS:73>  (28) 
0.0

>  <pistack:TRP:69>  (28) 
0.0

>  <hbond:TRP:83>  (28) 
0.0

>  <hydroph_interaction:TRP:83>  (28) 
0.0

>  <hydroph_interaction:TRP:69>  (28) 
0.0

>  <pication:TRP:69>  (28) 
0.0

>  <hydroph_interaction:PRO:82>  (28) 
0.0

>  <halogenbond:LYS:73>  (28) 
0.0

>  <hydroph_interaction:TYR:68>  (28) 
0.0

>  <halogenbond:GLN:167>  (28) 
0.0

>  <hydroph_interaction:PHE:116>  (28) 
0.0

>  <hbond:TYR:68>  (28) 
0.0

>  <hbond:ASP:122>  (28) 
0.0

>  <pistack:PHE:116>  (28) 
0.0

>  <hydroph_interaction:VAL:154>  (28) 
0.0

>  <hydroph_interaction:ASP:75>  (28) 
0.0

>  <hbond:GLY:121>  (28) 
0.0

>  <hydroph_interaction:ASN:152>  (28) 
0.0

>  <halogenbond:ILE:165>  (28) 
0.0

$$$$
Z2498988397-x0214S2-Z2102283482
     RDKit          3D

 51 54  0  0  0  0  0  0  0  0999 V2000
  -11.7140  -14.5120   -9.8490 C   0  0  0  0  0  0  0  0  0  0  0  0
  -12.2620  -13.4270   -9.7660 O   0  0  0  0  0  0  0  0  0  0  0  0
  -11.6610  -12.6380   -8.7390 C   0  0  0  0  0  0  0  0  0  0  0  0
  -10.3610  -12.0620   -9.1650 C   0  0  0  0  0  0  0  0  0  0  0  0
  -10.1880  -10.5290   -8.9160 C   0  0  0  0  0  0  0  0  0  0  0  0
   -9.1630   -9.8400   -9.5150 C   0  0  0  0  0  0  0  0  0  0  0  0
   -8.9810   -8.4720   -9.3220 C   0  0  0  0  0  0  0  0  0  0  0  0
   -9.8260   -7.7810   -8.5200 C   0  0  0  0  0  0  0  0  0  0  0  0
  -10.8610   -8.4270   -7.8920 C   0  0  0  0  0  0  0  0  0  0  0  0
  -11.0250   -9.8000   -8.1020 C   0  0  0  0  0  0  0  0  0  0  0  0
  -12.0730  -10.5040   -7.4740 N   0  0  0  0  0  0  0  0  0  0  0  0
  -12.8020   -9.8370   -6.5460 C   0  0  0  0  0  0  0  0  0  0  0  0
  -12.5050   -9.7400   -5.3560 O   0  0  0  0  0  0  0  0  0  0  0  0
  -13.9960   -9.1790   -7.1340 C   0  0  0  0  0  0  0  0  0  0  0  0
  -13.7150   -8.2370   -8.1060 C   0  0  0  0  0  0  0  0  0  0  0  0
  -12.9790   -7.1130   -7.7060 C   0  0  0  0  0  0  0  0  0  0  0  0
  -12.6450   -6.1320   -8.6060 C   0  0  0  0  0  0  0  0  0  0  0  0
  -13.0420   -6.2520   -9.9160 C   0  0  0  0  0  0  0  0  0  0  0  0
  -13.7870   -7.3620  -10.3200 C   0  0  0  0  0  0  0  0  0  0  0  0
  -14.1160   -8.3440   -9.4280 C   0  0  0  0  0  0  0  0  0  0  0  0
  -14.8780   -8.5380   -6.0600 C   0  0  0  0  0  0  0  0  0  0  0  0
  -16.2070   -8.1460   -6.7030 C   0  0  0  0  0  0  0  0  0  0  0  0
  -16.9890   -9.3930   -6.9410 C   0  0  0  0  0  0  0  0  0  0  0  0
  -18.2070   -9.4560   -7.0270 O   0  0  0  0  0  0  0  0  0  0  0  0
  -16.1780  -10.4760   -7.0460 N   0  0  0  0  0  0  0  0  0  0  0  0
  -14.9000  -10.3250   -7.7210 C   0  0  0  0  0  0  0  0  0  0  0  0
  -12.6440  -11.5540   -8.3190 C   0  0  0  0  0  0  0  0  0  0  0  0
  -12.0310  -15.0460  -10.7140 H   0  0  0  0  0  0  0  0  0  0  0  0
  -10.6360  -14.3490   -9.9220 H   0  0  0  0  0  0  0  0  0  0  0  0
  -11.8970  -15.1270   -8.9610 H   0  0  0  0  0  0  0  0  0  0  0  0
  -11.4950  -13.2860   -7.8680 H   0  0  0  0  0  0  0  0  0  0  0  0
  -10.1690  -12.3400  -10.2060 H   0  0  0  0  0  0  0  0  0  0  0  0
   -9.5610  -12.5900   -8.6310 H   0  0  0  0  0  0  0  0  0  0  0  0
   -8.4790  -10.3840  -10.1570 H   0  0  0  0  0  0  0  0  0  0  0  0
   -8.1230   -8.0510   -9.8650 H   0  0  0  0  0  0  0  0  0  0  0  0
   -9.7710   -6.7080   -8.3040 H   0  0  0  0  0  0  0  0  0  0  0  0
  -11.5360   -7.8860   -7.2470 H   0  0  0  0  0  0  0  0  0  0  0  0
  -12.6510   -6.9900   -6.6740 H   0  0  0  0  0  0  0  0  0  0  0  0
  -12.0700   -5.2660   -8.2880 H   0  0  0  0  0  0  0  0  0  0  0  0
  -12.7770   -5.4810  -10.6330 H   0  0  0  0  0  0  0  0  0  0  0  0
  -14.1110   -7.4690  -11.3480 H   0  0  0  0  0  0  0  0  0  0  0  0
  -14.6900   -9.1860   -9.7980 H   0  0  0  0  0  0  0  0  0  0  0  0
  -15.0940   -9.2590   -5.2600 H   0  0  0  0  0  0  0  0  0  0  0  0
  -14.4070   -7.6790   -5.5860 H   0  0  0  0  0  0  0  0  0  0  0  0
  -16.0840   -7.5970   -7.6410 H   0  0  0  0  0  0  0  0  0  0  0  0
  -16.7720   -7.5420   -6.0210 H   0  0  0  0  0  0  0  0  0  0  0  0
  -16.6500  -11.3710   -7.0470 H   0  0  0  0  0  0  0  0  0  0  0  0
  -15.1050  -10.2240   -8.7910 H   0  0  0  0  0  0  0  0  0  0  0  0
  -14.4150  -11.3010   -7.5970 H   0  0  0  0  0  0  0  0  0  0  0  0
  -13.0700  -11.1340   -9.2270 H   0  0  0  0  0  0  0  0  0  0  0  0
  -13.4810  -12.0010   -7.7720 H   0  0  0  0  0  0  0  0  0  0  0  0
  1  2  1  0
  2  3  1  0
  3  4  1  0
  4  5  1  0
  5  6  2  0
  6  7  1  0
  7  8  2  0
  8  9  1  0
  9 10  2  0
 10 11  1  0
 11 12  1  0
 12 13  2  0
 12 14  1  0
 14 15  1  0
 15 16  2  0
 16 17  1  0
 17 18  2  0
 18 19  1  0
 19 20  2  0
 14 21  1  0
 21 22  1  0
 22 23  1  0
 23 24  2  0
 23 25  1  0
 25 26  1  0
 11 27  1  0
 27  3  1  0
 10  5  1  0
 26 14  1  0
 20 15  1  0
  1 28  1  0
  1 29  1  0
  1 30  1  0
  3 31  1  0
  4 32  1  0
  4 33  1  0
  6 34  1  0
  7 35  1  0
  8 36  1  0
  9 37  1  0
 16 38  1  0
 17 39  1  0
 18 40  1  0
 19 41  1  0
 20 42  1  0
 21 43  1  0
 21 44  1  0
 22 45  1  0
 22 46  1  0
 25 47  1  0
 26 48  1  0
 26 49  1  0
 27 50  1  0
 27 51  1  0
A    1
 C1 
A    2
 O1 
A    3
 C2 
A    4
 C3 
A    5
 C4 
A    6
 C5 
A    7
 C6 
A    8
 C7 
A    9
 C8 
A   10
 C9 
A   11
 N1 
A   12
 C10
A   13
 O2 
A   14
 C11
A   15
 C12
A   16
 C13
A   17
 C14
A   18
 C15
A   19
 C16
A   20
 C17
A   21
 C18
A   22
 C19
A   23
 C20
A   24
 O3 
A   25
 N2 
A   26
 C21
A   27
 C22
A   28
 H1 
A   29
 H2 
A   30
 H3 
A   31
 H4 
A   32
 H5 
A   33
 H6 
A   34
 H7 
A   35
 H8 
A   36
 H9 
A   37
 H10
A   38
 H11
A   39
 H12
A   40
 H13
A   41
 H14
A   42
 H15
A   43
 H16
A   44
 H17
A   45
 H18
A   46
 H19
A   47
 H20
A   48
 H21
A   49
 H22
A   50
 H23
A   51
 H24
M  END
>  <ref_pdb>  (29) 
x0051_0B

>  <ref_mols>  (29) 
x0051_0B

>  <original SMILES>  (29) 
[H]c1c([H])c([H])c(C2(C(=O)N3c4c([H])c([H])c([H])c([H])c4C([H])([H])C([H])(OC([H])([H])[H])C3([H])[H])C([H])([H])N([H])C(=O)C([H])([H])C2([H])[H])c([H])c1[H]

>  <index>  (29) 
9064.0

>  <∆∆G>  (29) 
-3.288729

>  <comRMSD>  (29) 
0.725089

>  <N_constrained_atoms>  (29) 
27.0

>  <N_unconstrained_atoms>  (29) 
0.0

>  <LE>  (29) 
0.121805

>  <percent_hybrid>  (29) 
23.0

>  <largest_ring>  (29) 
6.0

>  <N_HA>  (29) 
27.0

>  <N_rotatable_bonds>  (29) 
4.0

>  <max_hit_Tanimoto>  (29) 
0.452602

>  <N_interactions_kept>  (29) 
1.0

>  <N_interactions_lost>  (29) 
1.0

>  <interaction_uniqueness_metric>  (29) 
0.090057

>  <N_interactions>  (29) 
7.0

>  <N_PAINS>  (29) 
0.0

>  <UFF_Gibbs>  (29) 
2592.721356

>  <strain_per_HA>  (29) 
96.026361

>  <ad_hoc_penalty>  (29) 
-30.519917

>  <cluster>  (29) 
221.0

>  <intxn_cluster>  (29) 
1.0

>  <keep>  (29) 
1.0

>  <hydroph_interaction:GLN:74>  (29) 
1.0

>  <hydroph_interaction:THR:118>  (29) 
1.0

>  <hydroph_interaction:ILE:123>  (29) 
4.0

>  <hydroph_interaction:THR:166>  (29) 
1.0

>  <hbond:GLN:167>  (29) 
0.0

>  <hydroph_interaction:ALA:88>  (29) 
0.0

>  <hydroph_interaction:ASP:120>  (29) 
0.0

>  <hydroph_interaction:GLN:167>  (29) 
0.0

>  <hbond:THR:118>  (29) 
0.0

>  <hydroph_interaction:ALA:164>  (29) 
0.0

>  <hbond:ASP:120>  (29) 
0.0

>  <hbond:THR:166>  (29) 
0.0

>  <hydroph_interaction:LEU:76>  (29) 
0.0

>  <hbond:ILE:165>  (29) 
0.0

>  <halogenbond:GLN:74>  (29) 
0.0

>  <hbond:GLN:74>  (29) 
0.0

>  <hbond:LYS:73>  (29) 
0.0

>  <pistack:TRP:69>  (29) 
0.0

>  <hbond:TRP:83>  (29) 
0.0

>  <hydroph_interaction:TRP:83>  (29) 
0.0

>  <hydroph_interaction:TRP:69>  (29) 
0.0

>  <pication:TRP:69>  (29) 
0.0

>  <hydroph_interaction:PRO:82>  (29) 
0.0

>  <halogenbond:LYS:73>  (29) 
0.0

>  <hydroph_interaction:TYR:68>  (29) 
0.0

>  <halogenbond:GLN:167>  (29) 
0.0

>  <hydroph_interaction:PHE:116>  (29) 
0.0

>  <hbond:TYR:68>  (29) 
0.0

>  <hbond:ASP:122>  (29) 
0.0

>  <pistack:PHE:116>  (29) 
0.0

>  <hydroph_interaction:VAL:154>  (29) 
0.0

>  <hydroph_interaction:ASP:75>  (29) 
0.0

>  <hbond:GLY:121>  (29) 
0.0

>  <hydroph_interaction:ASN:152>  (29) 
0.0

>  <halogenbond:ILE:165>  (29) 
0.0

$$$$
PV-004575728708-Z198195906S4-x0884S4
     RDKit          3D

 36 37  0  0  0  0  0  0  0  0999 V2000
  -15.7500   -6.2480   -7.9740 C   0  0  0  0  0  0  0  0  0  0  0  0
  -15.5980   -7.6910   -7.6660 C   0  0  0  0  0  0  0  0  0  0  0  0
  -16.5320   -8.4740   -6.7490 C   0  0  0  0  0  0  0  0  0  0  0  0
  -16.1910   -9.9310   -6.5620 C   0  0  0  0  0  0  0  0  0  0  0  0
  -15.1490  -10.5340   -7.1450 N   0  0  0  0  0  0  0  0  0  0  0  0
  -14.3910   -9.7790   -7.9370 C   0  0  0  0  0  0  0  0  0  0  0  0
  -14.5550   -8.4100   -8.2300 C   0  0  0  0  0  0  0  0  0  0  0  0
  -13.5860   -7.7140   -9.1780 C   0  0  0  0  0  0  0  0  0  0  0  0
  -12.4290   -7.1570   -8.5200 N   0  0  0  0  0  0  0  0  0  0  0  0
  -11.3680   -6.9200   -9.4720 C   0  0  0  0  0  0  0  0  0  0  0  0
  -11.5450   -5.9750  -10.8250 S   0  0  0  0  0  0  0  0  0  0  0  0
  -10.2590   -7.6140   -9.0580 N   0  0  0  0  0  0  0  0  0  0  0  0
  -10.2020   -8.2920   -7.7490 C   0  0  0  0  0  0  0  0  0  0  0  0
  -10.6200   -9.7260   -7.8690 C   0  0  0  0  0  0  0  0  0  0  0  0
  -11.8330  -10.1680   -7.3070 C   0  0  0  0  0  0  0  0  0  0  0  0
  -12.2280  -11.5130   -7.4050 C   0  0  0  0  0  0  0  0  0  0  0  0
  -11.2840  -12.5090   -8.1480 C   0  0  0  0  0  0  0  0  0  0  0  0
  -10.1290  -11.9900   -8.6600 C   0  0  0  0  0  0  0  0  0  0  0  0
   -9.8100  -10.6560   -8.5330 C   0  0  0  0  0  0  0  0  0  0  0  0
  -16.7330   -5.8980   -7.6550 H   0  0  0  0  0  0  0  0  0  0  0  0
  -15.6250   -6.0890   -9.0490 H   0  0  0  0  0  0  0  0  0  0  0  0
  -14.9840   -5.6600   -7.4660 H   0  0  0  0  0  0  0  0  0  0  0  0
  -17.3860   -8.0030   -6.2650 H   0  0  0  0  0  0  0  0  0  0  0  0
  -16.8640  -10.4900   -5.8970 H   0  0  0  0  0  0  0  0  0  0  0  0
  -13.5700  -10.3220   -8.3890 H   0  0  0  0  0  0  0  0  0  0  0  0
  -14.0230   -6.8960   -9.7610 H   0  0  0  0  0  0  0  0  0  0  0  0
  -13.2570   -8.4450   -9.9190 H   0  0  0  0  0  0  0  0  0  0  0  0
  -12.0940   -7.8220   -7.8260 H   0  0  0  0  0  0  0  0  0  0  0  0
   -9.7250   -8.0650   -9.7880 H   0  0  0  0  0  0  0  0  0  0  0  0
   -9.1900   -8.1320   -7.3780 H   0  0  0  0  0  0  0  0  0  0  0  0
  -10.8120   -7.6820   -7.0880 H   0  0  0  0  0  0  0  0  0  0  0  0
  -12.4720   -9.4540   -6.7880 H   0  0  0  0  0  0  0  0  0  0  0  0
  -13.1650  -11.8590   -6.9720 H   0  0  0  0  0  0  0  0  0  0  0  0
  -11.5320  -13.5700   -8.2550 H   0  0  0  0  0  0  0  0  0  0  0  0
   -9.4330  -12.6500   -9.1920 H   0  0  0  0  0  0  0  0  0  0  0  0
   -8.8810  -10.4090   -8.9980 H   0  0  0  0  0  0  0  0  0  0  0  0
  1  2  1  0
  2  3  2  0
  3  4  1  0
  4  5  2  0
  5  6  1  0
  6  7  2  0
  7  8  1  0
  8  9  1  0
  9 10  1  0
 10 11  2  0
 10 12  1  0
 12 13  1  0
 13 14  1  0
 14 15  2  0
 15 16  1  0
 16 17  2  0
 17 18  1  0
 18 19  2  0
  7  2  1  0
 19 14  1  0
  1 20  1  0
  1 21  1  0
  1 22  1  0
  3 23  1  0
  4 24  1  0
  6 25  1  0
  8 26  1  0
  8 27  1  0
  9 28  1  0
 12 29  1  0
 13 30  1  0
 13 31  1  0
 15 32  1  0
 16 33  1  0
 17 34  1  0
 18 35  1  0
 19 36  1  0
A    1
 C1 
A    2
 C2 
A    3
 C3 
A    4
 C4 
A    5
 N1 
A    6
 C5 
A    7
 C6 
A    8
 C7 
A    9
 N2 
A   10
 C8 
A   11
 S1 
A   12
 N3 
A   13
 C9 
A   14
 C10
A   15
 C11
A   16
 C12
A   17
 C13
A   18
 C14
A   19
 C15
A   20
 H1 
A   21
 H2 
A   22
 H3 
A   23
 H4 
A   24
 H5 
A   25
 H6 
A   26
 H7 
A   27
 H8 
A   28
 H9 
A   29
 H10
A   30
 H11
A   31
 H12
A   32
 H13
A   33
 H14
A   34
 H15
A   35
 H16
A   36
 H17
M  END
>  <ref_pdb>  (30) 
x0051_0B

>  <ref_mols>  (30) 
x0051_0B

>  <original SMILES>  (30) 
[H]c1nc([H])c(C([H])([H])N([H])C(=S)N([H])C([H])([H])c2c([H])c([H])c([H])c([H])c2[H])c(C([H])([H])[H])c1[H]

>  <index>  (30) 
2434.0

>  <∆∆G>  (30) 
-5.055634

>  <comRMSD>  (30) 
0.600852

>  <N_constrained_atoms>  (30) 
19.0

>  <N_unconstrained_atoms>  (30) 
1.0

>  <LE>  (30) 
0.252782

>  <percent_hybrid>  (30) 
43.0

>  <largest_ring>  (30) 
6.0

>  <N_HA>  (30) 
19.0

>  <N_rotatable_bonds>  (30) 
5.0

>  <max_hit_Tanimoto>  (30) 
0.392758

>  <N_interactions_kept>  (30) 
0.0

>  <N_interactions_lost>  (30) 
1.5

>  <interaction_uniqueness_metric>  (30) 
0.323681

>  <N_interactions>  (30) 
7.0

>  <N_PAINS>  (30) 
0.0

>  <UFF_Gibbs>  (30) 
323.869257

>  <strain_per_HA>  (30) 
17.045661

>  <ad_hoc_penalty>  (30) 
-30.33328

>  <cluster>  (30) 
741.0

>  <intxn_cluster>  (30) 
2.0

>  <keep>  (30) 
1.0

>  <hydroph_interaction:GLN:74>  (30) 
2.0

>  <hydroph_interaction:THR:118>  (30) 
1.0

>  <hydroph_interaction:ILE:123>  (30) 
1.0

>  <hydroph_interaction:THR:166>  (30) 
1.0

>  <hbond:GLN:167>  (30) 
0.0

>  <hydroph_interaction:ALA:88>  (30) 
0.0

>  <hydroph_interaction:ASP:120>  (30) 
1.0

>  <hydroph_interaction:GLN:167>  (30) 
0.0

>  <hbond:THR:118>  (30) 
0.0

>  <hydroph_interaction:ALA:164>  (30) 
0.0

>  <hbond:ASP:120>  (30) 
0.0

>  <hbond:THR:166>  (30) 
0.0

>  <hydroph_interaction:LEU:76>  (30) 
1.0

>  <hbond:ILE:165>  (30) 
0.0

>  <halogenbond:GLN:74>  (30) 
0.0

>  <hbond:GLN:74>  (30) 
0.0

>  <hbond:LYS:73>  (30) 
0.0

>  <pistack:TRP:69>  (30) 
0.0

>  <hbond:TRP:83>  (30) 
0.0

>  <hydroph_interaction:TRP:83>  (30) 
0.0

>  <hydroph_interaction:TRP:69>  (30) 
0.0

>  <pication:TRP:69>  (30) 
0.0

>  <hydroph_interaction:PRO:82>  (30) 
0.0

>  <halogenbond:LYS:73>  (30) 
0.0

>  <hydroph_interaction:TYR:68>  (30) 
0.0

>  <halogenbond:GLN:167>  (30) 
0.0

>  <hydroph_interaction:PHE:116>  (30) 
0.0

>  <hbond:TYR:68>  (30) 
0.0

>  <hbond:ASP:122>  (30) 
0.0

>  <pistack:PHE:116>  (30) 
0.0

>  <hydroph_interaction:VAL:154>  (30) 
0.0

>  <hydroph_interaction:ASP:75>  (30) 
0.0

>  <hbond:GLY:121>  (30) 
0.0

>  <hydroph_interaction:ASN:152>  (30) 
0.0

>  <halogenbond:ILE:165>  (30) 
0.0

$$$$
Z1162818699-x0130S3-x0130S1
     RDKit          3D

 35 36  0  0  0  0  0  0  0  0999 V2000
  -27.1260   -4.0730   -1.9330 C   0  0  0  0  0  0  0  0  0  0  0  0
  -27.4150   -5.3280   -1.7190 C   0  0  0  0  0  0  0  0  0  0  0  0
  -27.8170   -5.6240   -0.4270 C   0  0  0  0  0  0  0  0  0  0  0  0
  -27.5590   -6.9290   -0.1340 N   0  0  0  0  0  0  0  0  0  0  0  0
  -28.0540   -7.5090    1.0970 C   0  0  0  0  0  0  0  0  0  0  0  0
  -26.1200   -7.1850   -0.3460 C   0  0  0  0  0  0  0  0  0  0  0  0
  -25.5780   -6.6100   -1.4910 C   0  0  0  0  0  0  0  0  0  0  0  0
  -26.5190   -6.1300   -2.3440 N   0  0  0  0  0  0  0  0  0  0  0  0
  -25.9590   -5.5100   -3.5470 C   0  0  0  0  0  0  0  0  0  0  0  0
  -25.4070   -6.3730   -4.5050 C   0  0  0  0  0  0  0  0  0  0  0  0
  -26.1780   -7.3270   -5.1680 C   0  0  0  0  0  0  0  0  0  0  0  0
  -25.6040   -8.1670   -6.1250 C   0  0  0  0  0  0  0  0  0  0  0  0
  -24.2510   -8.0580   -6.4310 C   0  0  0  0  0  0  0  0  0  0  0  0
  -23.6880   -8.8530   -7.3490 F   0  0  0  0  0  0  0  0  0  0  0  0
  -23.4900   -7.1120   -5.7720 C   0  0  0  0  0  0  0  0  0  0  0  0
  -22.1880   -6.9850   -6.0560 F   0  0  0  0  0  0  0  0  0  0  0  0
  -24.0550   -6.2830   -4.8180 C   0  0  0  0  0  0  0  0  0  0  0  0
  -27.5080   -3.3500   -1.2070 H   0  0  0  0  0  0  0  0  0  0  0  0
  -27.3160   -3.6690   -2.9330 H   0  0  0  0  0  0  0  0  0  0  0  0
  -26.0510   -4.0190   -1.8220 H   0  0  0  0  0  0  0  0  0  0  0  0
  -28.3100   -5.5370   -2.3010 H   0  0  0  0  0  0  0  0  0  0  0  0
  -27.2880   -4.9800    0.2810 H   0  0  0  0  0  0  0  0  0  0  0  0
  -28.8860   -5.4360   -0.2970 H   0  0  0  0  0  0  0  0  0  0  0  0
  -27.6550   -8.5230    1.2090 H   0  0  0  0  0  0  0  0  0  0  0  0
  -27.6890   -6.8970    1.9290 H   0  0  0  0  0  0  0  0  0  0  0  0
  -29.1480   -7.5540    1.1400 H   0  0  0  0  0  0  0  0  0  0  0  0
  -25.9850   -8.2710   -0.4020 H   0  0  0  0  0  0  0  0  0  0  0  0
  -25.5250   -6.8290    0.5060 H   0  0  0  0  0  0  0  0  0  0  0  0
  -24.9580   -7.3550   -2.0080 H   0  0  0  0  0  0  0  0  0  0  0  0
  -24.9020   -5.8170   -1.1620 H   0  0  0  0  0  0  0  0  0  0  0  0
  -26.7180   -4.8920   -4.0310 H   0  0  0  0  0  0  0  0  0  0  0  0
  -25.1310   -4.8830   -3.2490 H   0  0  0  0  0  0  0  0  0  0  0  0
  -27.2420   -7.4180   -4.9390 H   0  0  0  0  0  0  0  0  0  0  0  0
  -26.2060   -8.9060   -6.6390 H   0  0  0  0  0  0  0  0  0  0  0  0
  -23.4260   -5.5760   -4.3360 H   0  0  0  0  0  0  0  0  0  0  0  0
  1  2  1  0
  2  3  1  0
  3  4  1  0
  4  5  1  0
  4  6  1  0
  6  7  1  0
  7  8  1  0
  8  9  1  0
  9 10  1  0
 10 11  2  0
 11 12  1  0
 12 13  2  0
 13 14  1  0
 13 15  1  0
 15 16  1  0
 15 17  2  0
  8  2  1  0
 17 10  1  0
  1 18  1  0
  1 19  1  0
  1 20  1  0
  2 21  1  0
  3 22  1  0
  3 23  1  0
  5 24  1  0
  5 25  1  0
  5 26  1  0
  6 27  1  0
  6 28  1  0
  7 29  1  0
  7 30  1  0
  9 31  1  0
  9 32  1  0
 11 33  1  0
 12 34  1  0
 17 35  1  0
A    1
 C1 
A    2
 C2 
A    3
 C3 
A    4
 N1 
A    5
 C4 
A    6
 C5 
A    7
 C6 
A    8
 N2 
A    9
 C7 
A   10
 C8 
A   11
 C9 
A   12
 C10
A   13
 C11
A   14
 F1 
A   15
 C12
A   16
 F2 
A   17
 C13
A   18
 H1 
A   19
 H2 
A   20
 H3 
A   21
 H4 
A   22
 H5 
A   23
 H6 
A   24
 H7 
A   25
 H8 
A   26
 H9 
A   27
 H10
A   28
 H11
A   29
 H12
A   30
 H13
A   31
 H14
A   32
 H15
A   33
 H16
A   34
 H17
A   35
 H18
M  END
>  <ref_pdb>  (31) 
x0051_0B

>  <ref_mols>  (31) 
x0051_0B

>  <original SMILES>  (31) 
[H]c1c([H])c(C([H])([H])N2C([H])([H])C([H])([H])N(C([H])([H])[H])C([H])([H])C2([H])C([H])([H])[H])c([H])c(F)c1F

>  <index>  (31) 
6673.0

>  <∆∆G>  (31) 
-4.227379

>  <comRMSD>  (31) 
0.462139

>  <N_constrained_atoms>  (31) 
15.0

>  <N_unconstrained_atoms>  (31) 
2.0

>  <LE>  (31) 
0.248669

>  <percent_hybrid>  (31) 
47.0

>  <largest_ring>  (31) 
6.0

>  <N_HA>  (31) 
17.0

>  <N_rotatable_bonds>  (31) 
4.0

>  <max_hit_Tanimoto>  (31) 
0.161473

>  <N_interactions_kept>  (31) 
1.0

>  <N_interactions_lost>  (31) 
0.5

>  <interaction_uniqueness_metric>  (31) 
0.37234

>  <N_interactions>  (31) 
5.0

>  <N_PAINS>  (31) 
0.0

>  <UFF_Gibbs>  (31) 
151.735723

>  <strain_per_HA>  (31) 
8.925578

>  <ad_hoc_penalty>  (31) 
-30.290403

>  <cluster>  (31) 
819.0

>  <intxn_cluster>  (31) 
0.0

>  <keep>  (31) 
1.0

>  <hydroph_interaction:GLN:74>  (31) 
0.0

>  <hydroph_interaction:THR:118>  (31) 
0.0

>  <hydroph_interaction:ILE:123>  (31) 
0.0

>  <hydroph_interaction:THR:166>  (31) 
0.0

>  <hbond:GLN:167>  (31) 
0.0

>  <hydroph_interaction:ALA:88>  (31) 
0.0

>  <hydroph_interaction:ASP:120>  (31) 
0.0

>  <hydroph_interaction:GLN:167>  (31) 
0.0

>  <hbond:THR:118>  (31) 
0.0

>  <hydroph_interaction:ALA:164>  (31) 
0.0

>  <hbond:ASP:120>  (31) 
0.0

>  <hbond:THR:166>  (31) 
0.0

>  <hydroph_interaction:LEU:76>  (31) 
0.0

>  <hbond:ILE:165>  (31) 
0.0

>  <halogenbond:GLN:74>  (31) 
0.0

>  <hbond:GLN:74>  (31) 
0.0

>  <hbond:LYS:73>  (31) 
0.0

>  <pistack:TRP:69>  (31) 
0.0

>  <hbond:TRP:83>  (31) 
0.0

>  <hydroph_interaction:TRP:83>  (31) 
1.0

>  <hydroph_interaction:TRP:69>  (31) 
2.0

>  <pication:TRP:69>  (31) 
0.0

>  <hydroph_interaction:PRO:82>  (31) 
1.0

>  <halogenbond:LYS:73>  (31) 
0.0

>  <hydroph_interaction:TYR:68>  (31) 
1.0

>  <halogenbond:GLN:167>  (31) 
0.0

>  <hydroph_interaction:PHE:116>  (31) 
0.0

>  <hbond:TYR:68>  (31) 
0.0

>  <hbond:ASP:122>  (31) 
0.0

>  <pistack:PHE:116>  (31) 
0.0

>  <hydroph_interaction:VAL:154>  (31) 
0.0

>  <hydroph_interaction:ASP:75>  (31) 
0.0

>  <hbond:GLY:121>  (31) 
0.0

>  <hydroph_interaction:ASN:152>  (31) 
0.0

>  <halogenbond:ILE:165>  (31) 
0.0

$$$$
Z2369524020-x0944S2-x0944S4
     RDKit          3D

 35 36  0  0  0  0  0  0  0  0999 V2000
  -26.1550   -4.6150   -4.0630 C   0  0  0  0  0  0  0  0  0  0  0  0
  -25.5400   -5.8220   -3.4350 C   0  0  0  0  0  0  0  0  0  0  0  0
  -25.0030   -6.6780   -4.5660 C   0  0  0  0  0  0  0  0  0  0  0  0
  -23.5380   -6.5740   -4.8470 C   0  0  0  0  0  0  0  0  0  0  0  0
  -22.9580   -7.2810   -5.8520 C   0  0  0  0  0  0  0  0  0  0  0  0
  -23.8090   -8.1800   -6.6730 C   0  0  0  0  0  0  0  0  0  0  0  0
  -25.1940   -8.2730   -6.3850 C   0  0  0  0  0  0  0  0  0  0  0  0
  -25.9430   -9.0890   -7.1270 F   0  0  0  0  0  0  0  0  0  0  0  0
  -25.7850   -7.5310   -5.3500 C   0  0  0  0  0  0  0  0  0  0  0  0
  -26.5220   -6.3380   -2.4910 N   0  0  0  0  0  0  0  0  0  0  0  0
  -25.8970   -7.2240   -1.4830 C   0  0  0  0  0  0  0  0  0  0  0  0
  -26.3680   -6.9090   -0.2010 C   0  0  0  0  0  0  0  0  0  0  0  0
  -27.7340   -6.8350   -0.1800 N   0  0  0  0  0  0  0  0  0  0  0  0
  -28.1350   -5.5490   -0.7650 C   0  0  1  0  0  0  0  0  0  0  0  0
  -28.2460   -4.5710    0.2140 C   0  0  0  0  0  0  0  0  0  0  0  0
  -27.0730   -5.1510   -1.7810 C   0  0  0  0  0  0  0  0  0  0  0  0
  -26.9830   -4.9590   -4.6550 H   0  0  0  0  0  0  0  0  0  0  0  0
  -25.4600   -4.0980   -4.7270 H   0  0  0  0  0  0  0  0  0  0  0  0
  -26.5450   -3.9050   -3.3300 H   0  0  0  0  0  0  0  0  0  0  0  0
  -24.6960   -5.5550   -2.8360 H   0  0  0  0  0  0  0  0  0  0  0  0
  -22.9440   -5.9310   -4.2390 H   0  0  0  0  0  0  0  0  0  0  0  0
  -21.8930   -7.1990   -6.0560 H   0  0  0  0  0  0  0  0  0  0  0  0
  -23.3030   -8.7320   -7.4710 H   0  0  0  0  0  0  0  0  0  0  0  0
  -26.8550   -7.6230   -5.1650 H   0  0  0  0  0  0  0  0  0  0  0  0
  -26.0870   -8.2410   -1.8130 H   0  0  0  0  0  0  0  0  0  0  0  0
  -24.8240   -7.1130   -1.6210 H   0  0  0  0  0  0  0  0  0  0  0  0
  -26.0320   -5.9530    0.1880 H   0  0  0  0  0  0  0  0  0  0  0  0
  -26.1030   -7.5980    0.5930 H   0  0  0  0  0  0  0  0  0  0  0  0
  -28.1180   -7.5940   -0.7390 H   0  0  0  0  0  0  0  0  0  0  0  0
  -29.0990   -5.6650   -1.2750 H   0  0  0  0  0  0  0  0  0  0  0  0
  -27.8740   -4.9070    1.1870 H   0  0  0  0  0  0  0  0  0  0  0  0
  -29.3010   -4.2850    0.3220 H   0  0  0  0  0  0  0  0  0  0  0  0
  -27.7070   -3.6600   -0.0780 H   0  0  0  0  0  0  0  0  0  0  0  0
  -26.2780   -4.6180   -1.2610 H   0  0  0  0  0  0  0  0  0  0  0  0
  -27.5220   -4.4380   -2.4770 H   0  0  0  0  0  0  0  0  0  0  0  0
  1  2  1  0
  2  3  1  0
  3  4  2  0
  4  5  1  0
  5  6  2  0
  6  7  1  0
  7  8  1  0
  7  9  2  0
  2 10  1  0
 10 11  1  0
 11 12  1  0
 12 13  1  0
 13 14  1  0
 14 15  1  0
 14 16  1  0
  9  3  1  0
 16 10  1  0
  1 17  1  0
  1 18  1  0
  1 19  1  0
  2 20  1  0
  4 21  1  0
  5 22  1  0
  6 23  1  0
  9 24  1  0
 11 25  1  0
 11 26  1  0
 12 27  1  0
 12 28  1  0
 13 29  1  0
 14 30  1  6
 15 31  1  0
 15 32  1  0
 15 33  1  0
 16 34  1  0
 16 35  1  0
A    1
 C1 
A    2
 C2 
A    3
 C3 
A    4
 C4 
A    5
 C5 
A    6
 C6 
A    7
 C7 
A    8
 F1 
A    9
 C8 
A   10
 N1 
A   11
 C9 
A   12
 C10
A   13
 N2 
A   14
 C11
A   15
 C12
A   16
 C13
A   17
 H1 
A   18
 H2 
A   19
 H3 
A   20
 H4 
A   21
 H5 
A   22
 H6 
A   23
 H7 
A   24
 H8 
A   25
 H9 
A   26
 H10
A   27
 H11
A   28
 H12
A   29
 H13
A   30
 H14
A   31
 H15
A   32
 H16
A   33
 H17
A   34
 H18
A   35
 H19
M  END
>  <ref_pdb>  (32) 
x0051_0B

>  <ref_mols>  (32) 
x0051_0B

>  <original SMILES>  (32) 
[H]c1c([H])c(F)c([H])c(C([H])(N2C([H])([H])C([H])([H])N([H])[C@@]([H])(C([H])([H])[H])C2([H])[H])C([H])([H])[H])c1[H]

>  <index>  (32) 
2236.0

>  <∆∆G>  (32) 
-4.000472

>  <comRMSD>  (32) 
0.581523

>  <N_constrained_atoms>  (32) 
15.0

>  <N_unconstrained_atoms>  (32) 
1.0

>  <LE>  (32) 
0.25003

>  <percent_hybrid>  (32) 
47.0

>  <largest_ring>  (32) 
6.0

>  <N_HA>  (32) 
16.0

>  <N_rotatable_bonds>  (32) 
4.0

>  <max_hit_Tanimoto>  (32) 
0.222482

>  <N_interactions_kept>  (32) 
3.0

>  <N_interactions_lost>  (32) 
0.5

>  <interaction_uniqueness_metric>  (32) 
0.37234

>  <N_interactions>  (32) 
5.0

>  <N_PAINS>  (32) 
0.0

>  <UFF_Gibbs>  (32) 
376.967729

>  <strain_per_HA>  (32) 
23.560336

>  <ad_hoc_penalty>  (32) 
-30.17069

>  <cluster>  (32) 
1369.0

>  <intxn_cluster>  (32) 
0.0

>  <keep>  (32) 
1.0

>  <hydroph_interaction:GLN:74>  (32) 
0.0

>  <hydroph_interaction:THR:118>  (32) 
0.0

>  <hydroph_interaction:ILE:123>  (32) 
0.0

>  <hydroph_interaction:THR:166>  (32) 
0.0

>  <hbond:GLN:167>  (32) 
0.0

>  <hydroph_interaction:ALA:88>  (32) 
0.0

>  <hydroph_interaction:ASP:120>  (32) 
0.0

>  <hydroph_interaction:GLN:167>  (32) 
0.0

>  <hbond:THR:118>  (32) 
0.0

>  <hydroph_interaction:ALA:164>  (32) 
0.0

>  <hbond:ASP:120>  (32) 
0.0

>  <hbond:THR:166>  (32) 
0.0

>  <hydroph_interaction:LEU:76>  (32) 
0.0

>  <hbond:ILE:165>  (32) 
0.0

>  <halogenbond:GLN:74>  (32) 
0.0

>  <hbond:GLN:74>  (32) 
0.0

>  <hbond:LYS:73>  (32) 
0.0

>  <pistack:TRP:69>  (32) 
0.0

>  <hbond:TRP:83>  (32) 
0.0

>  <hydroph_interaction:TRP:83>  (32) 
1.0

>  <hydroph_interaction:TRP:69>  (32) 
2.0

>  <pication:TRP:69>  (32) 
0.0

>  <hydroph_interaction:PRO:82>  (32) 
1.0

>  <halogenbond:LYS:73>  (32) 
0.0

>  <hydroph_interaction:TYR:68>  (32) 
1.0

>  <halogenbond:GLN:167>  (32) 
0.0

>  <hydroph_interaction:PHE:116>  (32) 
0.0

>  <hbond:TYR:68>  (32) 
0.0

>  <hbond:ASP:122>  (32) 
0.0

>  <pistack:PHE:116>  (32) 
0.0

>  <hydroph_interaction:VAL:154>  (32) 
0.0

>  <hydroph_interaction:ASP:75>  (32) 
0.0

>  <hbond:GLY:121>  (32) 
0.0

>  <hydroph_interaction:ASN:152>  (32) 
0.0

>  <halogenbond:ILE:165>  (32) 
0.0

$$$$
PV-002999340353-Z198195906S1-x0214S3
     RDKit          3D

 17 17  0  0  0  0  0  0  0  0999 V2000
  -10.8100   -4.4330  -10.2580 N   0  0  0  0  0  0  0  0  0  0  0  0
  -10.7840   -5.8910  -10.2270 C   0  0  0  0  0  0  0  0  0  0  0  0
   -9.8040   -6.5330  -10.5670 O   0  0  0  0  0  0  0  0  0  0  0  0
  -12.0750   -6.4790   -9.6880 C   0  0  0  0  0  0  0  0  0  0  0  0
  -12.7930   -7.3140  -10.4590 N   0  0  0  0  0  0  0  0  0  0  0  0
  -13.9050   -7.8560   -9.9750 C   0  0  0  0  0  0  0  0  0  0  0  0
  -14.5570   -8.7060  -10.8640 N   0  0  0  0  0  0  0  0  0  0  0  0
  -14.3380   -7.5160   -8.5760 C   0  0  0  0  0  0  0  0  0  0  0  0
  -13.5760   -6.6450   -7.8230 C   0  0  0  0  0  0  0  0  0  0  0  0
  -12.4160   -6.1140   -8.3910 C   0  0  0  0  0  0  0  0  0  0  0  0
   -9.9180   -4.0660  -10.5930 H   0  0  0  0  0  0  0  0  0  0  0  0
  -11.5510   -4.1060  -10.9090 H   0  0  0  0  0  0  0  0  0  0  0  0
  -14.8370   -9.5240  -10.3300 H   0  0  0  0  0  0  0  0  0  0  0  0
  -13.9690   -8.9560  -11.6480 H   0  0  0  0  0  0  0  0  0  0  0  0
  -15.2460   -7.9480   -8.1640 H   0  0  0  0  0  0  0  0  0  0  0  0
  -13.8760   -6.3860   -6.8110 H   0  0  0  0  0  0  0  0  0  0  0  0
  -11.7940   -5.4240   -7.8050 H   0  0  0  0  0  0  0  0  0  0  0  0
  1  2  1  0
  2  3  2  0
  2  4  1  0
  4  5  2  0
  5  6  1  0
  6  7  1  0
  6  8  2  0
  8  9  1  0
  9 10  2  0
 10  4  1  0
  1 11  1  0
  1 12  1  0
  7 13  1  0
  7 14  1  0
  8 15  1  0
  9 16  1  0
 10 17  1  0
A    1
 N1 
A    2
 C1 
A    3
 O1 
A    4
 C2 
A    5
 N2 
A    6
 C3 
A    7
 N3 
A    8
 C4 
A    9
 C5 
A   10
 C6 
A   11
 H1 
A   12
 H2 
A   13
 H3 
A   14
 H4 
A   15
 H5 
A   16
 H6 
A   17
 H7 
M  END
>  <ref_pdb>  (33) 
x0051_0B

>  <ref_mols>  (33) 
x0051_0B

>  <original SMILES>  (33) 
[H]c1c(C(=O)N([H])[H])nc(N([H])[H])c([H])c1[H]

>  <index>  (33) 
2183.0

>  <∆∆G>  (33) 
-3.497969

>  <comRMSD>  (33) 
0.937292

>  <N_constrained_atoms>  (33) 
9.0

>  <N_unconstrained_atoms>  (33) 
1.0

>  <LE>  (33) 
0.349797

>  <percent_hybrid>  (33) 
38.0

>  <largest_ring>  (33) 
6.0

>  <N_HA>  (33) 
10.0

>  <N_rotatable_bonds>  (33) 
2.0

>  <max_hit_Tanimoto>  (33) 
0.109929

>  <N_interactions_kept>  (33) 
0.0

>  <N_interactions_lost>  (33) 
0.0

>  <interaction_uniqueness_metric>  (33) 
0.206333

>  <N_interactions>  (33) 
4.0

>  <N_PAINS>  (33) 
0.0

>  <UFF_Gibbs>  (33) 
48.226678

>  <strain_per_HA>  (33) 
4.82262

>  <ad_hoc_penalty>  (33) 
-30.030496

>  <cluster>  (33) 
5287.0

>  <intxn_cluster>  (33) 
8.0

>  <keep>  (33) 
1.0

>  <hydroph_interaction:GLN:74>  (33) 
0.0

>  <hydroph_interaction:THR:118>  (33) 
0.0

>  <hydroph_interaction:ILE:123>  (33) 
0.0

>  <hydroph_interaction:THR:166>  (33) 
0.0

>  <hbond:GLN:167>  (33) 
2.0

>  <hydroph_interaction:ALA:88>  (33) 
0.0

>  <hydroph_interaction:ASP:120>  (33) 
0.0

>  <hydroph_interaction:GLN:167>  (33) 
0.0

>  <hbond:THR:118>  (33) 
0.0

>  <hydroph_interaction:ALA:164>  (33) 
0.0

>  <hbond:ASP:120>  (33) 
0.0

>  <hbond:THR:166>  (33) 
1.0

>  <hydroph_interaction:LEU:76>  (33) 
0.0

>  <hbond:ILE:165>  (33) 
1.0

>  <halogenbond:GLN:74>  (33) 
0.0

>  <hbond:GLN:74>  (33) 
0.0

>  <hbond:LYS:73>  (33) 
0.0

>  <pistack:TRP:69>  (33) 
0.0

>  <hbond:TRP:83>  (33) 
0.0

>  <hydroph_interaction:TRP:83>  (33) 
0.0

>  <hydroph_interaction:TRP:69>  (33) 
0.0

>  <pication:TRP:69>  (33) 
0.0

>  <hydroph_interaction:PRO:82>  (33) 
0.0

>  <halogenbond:LYS:73>  (33) 
0.0

>  <hydroph_interaction:TYR:68>  (33) 
0.0

>  <halogenbond:GLN:167>  (33) 
0.0

>  <hydroph_interaction:PHE:116>  (33) 
0.0

>  <hbond:TYR:68>  (33) 
0.0

>  <hbond:ASP:122>  (33) 
0.0

>  <pistack:PHE:116>  (33) 
0.0

>  <hydroph_interaction:VAL:154>  (33) 
0.0

>  <hydroph_interaction:ASP:75>  (33) 
0.0

>  <hbond:GLY:121>  (33) 
0.0

>  <hydroph_interaction:ASN:152>  (33) 
0.0

>  <halogenbond:ILE:165>  (33) 
0.0

$$$$
PV-005470373490-x0130S3-x0944S2
     RDKit          3D

 20 20  0  0  0  0  0  0  0  0999 V2000
  -27.0970   -4.6170   -2.4160 C   0  0  0  0  0  0  0  0  0  0  0  0
  -26.3990   -4.9220   -3.7080 C   0  0  0  0  0  0  0  0  0  0  0  0
  -25.4440   -5.9830   -3.4480 N   0  0  0  0  0  0  0  0  0  0  0  0
  -25.0180   -6.6860   -4.5080 C   0  0  0  0  0  0  0  0  0  0  0  0
  -25.7810   -7.6040   -5.2150 C   0  0  0  0  0  0  0  0  0  0  0  0
  -25.2450   -8.3630   -6.3780 C   0  0  0  0  0  0  0  0  0  0  0  0
  -25.9960   -9.2430   -7.0360 F   0  0  0  0  0  0  0  0  0  0  0  0
  -23.7920   -8.0860   -6.7850 C   0  0  0  0  0  0  0  0  0  0  0  0
  -23.2270   -8.7160   -7.8130 F   0  0  0  0  0  0  0  0  0  0  0  0
  -23.0980   -7.1330   -6.0130 C   0  0  0  0  0  0  0  0  0  0  0  0
  -21.8320   -6.8320   -6.3070 F   0  0  0  0  0  0  0  0  0  0  0  0
  -23.6980   -6.4820   -4.9330 C   0  0  0  0  0  0  0  0  0  0  0  0
  -27.9660   -5.2660   -2.2790 H   0  0  0  0  0  0  0  0  0  0  0  0
  -27.4460   -3.5840   -2.3940 H   0  0  0  0  0  0  0  0  0  0  0  0
  -26.4130   -4.7810   -1.5800 H   0  0  0  0  0  0  0  0  0  0  0  0
  -27.0830   -5.3050   -4.4530 H   0  0  0  0  0  0  0  0  0  0  0  0
  -25.9580   -4.0120   -4.1230 H   0  0  0  0  0  0  0  0  0  0  0  0
  -24.6930   -5.6200   -2.8570 H   0  0  0  0  0  0  0  0  0  0  0  0
  -26.8150   -7.7680   -4.8880 H   0  0  0  0  0  0  0  0  0  0  0  0
  -23.1070   -5.7790   -4.3900 H   0  0  0  0  0  0  0  0  0  0  0  0
  1  2  1  0
  2  3  1  0
  3  4  1  0
  4  5  2  0
  5  6  1  0
  6  7  1  0
  6  8  2  0
  8  9  1  0
  8 10  1  0
 10 11  1  0
 10 12  2  0
 12  4  1  0
  1 13  1  0
  1 14  1  0
  1 15  1  0
  2 16  1  0
  2 17  1  0
  3 18  1  0
  5 19  1  0
 12 20  1  0
A    1
 C1 
A    2
 C2 
A    3
 N1 
A    4
 C3 
A    5
 C4 
A    6
 C5 
A    7
 F1 
A    8
 C6 
A    9
 F2 
A   10
 C7 
A   11
 F3 
A   12
 C8 
A   13
 H1 
A   14
 H2 
A   15
 H3 
A   16
 H4 
A   17
 H5 
A   18
 H6 
A   19
 H7 
A   20
 H8 
M  END
>  <ref_pdb>  (34) 
x0051_0B

>  <ref_mols>  (34) 
x0051_0B

>  <original SMILES>  (34) 
[H]c1c(F)c(F)c(F)c([H])c1N([H])C([H])([H])C([H])([H])[H]

>  <index>  (34) 
5098.0

>  <∆∆G>  (34) 
-2.558254

>  <comRMSD>  (34) 
0.570705

>  <N_constrained_atoms>  (34) 
11.0

>  <N_unconstrained_atoms>  (34) 
1.0

>  <LE>  (34) 
0.213188

>  <percent_hybrid>  (34) 
40.0

>  <largest_ring>  (34) 
6.0

>  <N_HA>  (34) 
12.0

>  <N_rotatable_bonds>  (34) 
3.0

>  <max_hit_Tanimoto>  (34) 
0.274038

>  <N_interactions_kept>  (34) 
3.0

>  <N_interactions_lost>  (34) 
1.0

>  <interaction_uniqueness_metric>  (34) 
0.466412

>  <N_interactions>  (34) 
6.0

>  <N_PAINS>  (34) 
0.0

>  <UFF_Gibbs>  (34) 
37.033817

>  <strain_per_HA>  (34) 
3.086126

>  <ad_hoc_penalty>  (34) 
-29.977034

>  <cluster>  (34) 
4027.0

>  <intxn_cluster>  (34) 
0.0

>  <keep>  (34) 
1.0

>  <hydroph_interaction:GLN:74>  (34) 
0.0

>  <hydroph_interaction:THR:118>  (34) 
0.0

>  <hydroph_interaction:ILE:123>  (34) 
0.0

>  <hydroph_interaction:THR:166>  (34) 
0.0

>  <hbond:GLN:167>  (34) 
0.0

>  <hydroph_interaction:ALA:88>  (34) 
0.0

>  <hydroph_interaction:ASP:120>  (34) 
0.0

>  <hydroph_interaction:GLN:167>  (34) 
0.0

>  <hbond:THR:118>  (34) 
0.0

>  <hydroph_interaction:ALA:164>  (34) 
0.0

>  <hbond:ASP:120>  (34) 
0.0

>  <hbond:THR:166>  (34) 
0.0

>  <hydroph_interaction:LEU:76>  (34) 
0.0

>  <hbond:ILE:165>  (34) 
0.0

>  <halogenbond:GLN:74>  (34) 
1.0

>  <hbond:GLN:74>  (34) 
0.0

>  <hbond:LYS:73>  (34) 
0.0

>  <pistack:TRP:69>  (34) 
0.0

>  <hbond:TRP:83>  (34) 
0.0

>  <hydroph_interaction:TRP:83>  (34) 
1.0

>  <hydroph_interaction:TRP:69>  (34) 
2.0

>  <pication:TRP:69>  (34) 
0.0

>  <hydroph_interaction:PRO:82>  (34) 
1.0

>  <halogenbond:LYS:73>  (34) 
0.0

>  <hydroph_interaction:TYR:68>  (34) 
1.0

>  <halogenbond:GLN:167>  (34) 
0.0

>  <hydroph_interaction:PHE:116>  (34) 
0.0

>  <hbond:TYR:68>  (34) 
0.0

>  <hbond:ASP:122>  (34) 
0.0

>  <pistack:PHE:116>  (34) 
0.0

>  <hydroph_interaction:VAL:154>  (34) 
0.0

>  <hydroph_interaction:ASP:75>  (34) 
0.0

>  <hbond:GLY:121>  (34) 
0.0

>  <hydroph_interaction:ASN:152>  (34) 
0.0

>  <halogenbond:ILE:165>  (34) 
0.0

$$$$
PV-005937400884-Z198195906S6-Z1318054286
     RDKit          3D

 39 40  0  0  0  0  0  0  0  0999 V2000
  -10.1990   -2.9140   -8.4800 C   0  0  0  0  0  0  0  0  0  0  0  0
   -9.3290   -3.6900   -9.3200 C   0  0  0  0  0  0  0  0  0  0  0  0
   -7.9960   -3.2700   -9.4890 C   0  0  0  0  0  0  0  0  0  0  0  0
   -7.1440   -4.0070  -10.3080 C   0  0  0  0  0  0  0  0  0  0  0  0
   -7.6070   -5.1430  -10.9410 C   0  0  0  0  0  0  0  0  0  0  0  0
   -8.9200   -5.5910  -10.7890 C   0  0  0  0  0  0  0  0  0  0  0  0
   -9.7890   -4.8510   -9.9720 C   0  0  0  0  0  0  0  0  0  0  0  0
  -11.1710   -5.2990   -9.8290 N   0  0  0  0  0  0  0  0  0  0  0  0
  -11.4850   -6.6630   -9.4020 C   0  0  0  0  0  0  0  0  0  0  0  0
  -10.2730   -7.4880   -9.4170 N   0  0  0  0  0  0  0  0  0  0  0  0
  -12.6930   -7.0380   -9.0640 N   0  0  0  0  0  0  0  0  0  0  0  0
  -13.0930   -8.3950   -8.6350 C   0  0  0  0  0  0  0  0  0  0  0  0
  -14.1360   -8.3930   -7.7620 C   0  0  0  0  0  0  0  0  0  0  0  0
  -15.4860   -8.2890   -8.2600 C   0  0  0  0  0  0  0  0  0  0  0  0
  -16.3840   -9.3090   -7.9370 C   0  0  0  0  0  0  0  0  0  0  0  0
  -16.2990   -9.9270   -6.5430 C   0  0  0  0  0  0  0  0  0  0  0  0
  -15.0180   -9.7740   -6.0090 C   0  0  0  0  0  0  0  0  0  0  0  0
  -14.0360   -9.6370   -7.0380 O   0  0  0  0  0  0  0  0  0  0  0  0
  -10.6110   -3.5130   -7.6600 H   0  0  0  0  0  0  0  0  0  0  0  0
   -9.6510   -2.0810   -8.0290 H   0  0  0  0  0  0  0  0  0  0  0  0
  -11.0450   -2.5320   -9.0600 H   0  0  0  0  0  0  0  0  0  0  0  0
   -7.6200   -2.3790   -8.9950 H   0  0  0  0  0  0  0  0  0  0  0  0
   -6.0980   -3.7480  -10.4960 H   0  0  0  0  0  0  0  0  0  0  0  0
   -6.8460   -5.6300  -11.5570 H   0  0  0  0  0  0  0  0  0  0  0  0
   -9.2600   -6.4910  -11.3000 H   0  0  0  0  0  0  0  0  0  0  0  0
  -11.7810   -4.9780  -10.5690 H   0  0  0  0  0  0  0  0  0  0  0  0
   -9.4600   -6.9560   -9.1390 H   0  0  0  0  0  0  0  0  0  0  0  0
  -10.3600   -8.2700   -8.7670 H   0  0  0  0  0  0  0  0  0  0  0  0
  -13.2220   -8.9280   -9.5750 H   0  0  0  0  0  0  0  0  0  0  0  0
  -12.2320   -8.8870   -8.1640 H   0  0  0  0  0  0  0  0  0  0  0  0
  -13.9860   -7.5860   -7.0350 H   0  0  0  0  0  0  0  0  0  0  0  0
  -15.4590   -8.1990   -9.3530 H   0  0  0  0  0  0  0  0  0  0  0  0
  -15.8950   -7.3330   -7.9010 H   0  0  0  0  0  0  0  0  0  0  0  0
  -17.4010   -8.9290   -8.0980 H   0  0  0  0  0  0  0  0  0  0  0  0
  -16.2710  -10.1100   -8.6830 H   0  0  0  0  0  0  0  0  0  0  0  0
  -17.0280   -9.4130   -5.8980 H   0  0  0  0  0  0  0  0  0  0  0  0
  -16.5820  -10.9870   -6.5910 H   0  0  0  0  0  0  0  0  0  0  0  0
  -14.7630  -10.6530   -5.4090 H   0  0  0  0  0  0  0  0  0  0  0  0
  -14.9690   -8.9040   -5.3400 H   0  0  0  0  0  0  0  0  0  0  0  0
  1  2  1  0
  2  3  2  0
  3  4  1  0
  4  5  2  0
  5  6  1  0
  6  7  2  0
  7  8  1  0
  8  9  1  0
  9 10  1  0
  9 11  2  3
 11 12  1  0
 12 13  1  0
 13 14  1  0
 14 15  1  0
 15 16  1  0
 16 17  1  0
 17 18  1  0
  7  2  1  0
 18 13  1  0
  1 19  1  0
  1 20  1  0
  1 21  1  0
  3 22  1  0
  4 23  1  0
  5 24  1  0
  6 25  1  0
  8 26  1  0
 10 27  1  0
 10 28  1  0
 12 29  1  0
 12 30  1  0
 13 31  1  0
 14 32  1  0
 14 33  1  0
 15 34  1  0
 15 35  1  0
 16 36  1  0
 16 37  1  0
 17 38  1  0
 17 39  1  0
A    1
 C1 
A    2
 C2 
A    3
 C3 
A    4
 C4 
A    5
 C5 
A    6
 C6 
A    7
 C7 
A    8
 N1 
A    9
 C8 
A   10
 N2 
A   11
 N3 
A   12
 C9 
A   13
 C10
A   14
 C11
A   15
 C12
A   16
 C13
A   17
 C14
A   18
 O1 
A   19
 H1 
A   20
 H2 
A   21
 H3 
A   22
 H4 
A   23
 H5 
A   24
 H6 
A   25
 H7 
A   26
 H8 
A   27
 H9 
A   28
 H10
A   29
 H11
A   30
 H12
A   31
 H13
A   32
 H14
A   33
 H15
A   34
 H16
A   35
 H17
A   36
 H18
A   37
 H19
A   38
 H20
A   39
 H21
M  END
>  <ref_pdb>  (35) 
x0051_0B

>  <ref_mols>  (35) 
x0051_0B

>  <original SMILES>  (35) 
[H]c1c([H])c([H])c(C([H])([H])[H])c(N([H])C(=NC([H])([H])C2([H])OC([H])([H])C([H])([H])C([H])([H])C2([H])[H])N([H])[H])c1[H]

>  <index>  (35) 
2970.0

>  <∆∆G>  (35) 
-5.542922

>  <comRMSD>  (35) 
0.864266

>  <N_constrained_atoms>  (35) 
14.0

>  <N_unconstrained_atoms>  (35) 
7.0

>  <LE>  (35) 
0.263949

>  <percent_hybrid>  (35) 
31.0

>  <largest_ring>  (35) 
6.0

>  <N_HA>  (35) 
18.0

>  <N_rotatable_bonds>  (35) 
4.0

>  <max_hit_Tanimoto>  (35) 
0.172414

>  <N_interactions_kept>  (35) 
1.0

>  <N_interactions_lost>  (35) 
0.0

>  <interaction_uniqueness_metric>  (35) 
0.267322

>  <N_interactions>  (35) 
4.0

>  <N_PAINS>  (35) 
0.0

>  <UFF_Gibbs>  (35) 
102.256079

>  <strain_per_HA>  (35) 
5.680862

>  <ad_hoc_penalty>  (35) 
-29.447621

>  <cluster>  (35) 
4954.0

>  <intxn_cluster>  (35) 
7.0

>  <keep>  (35) 
1.0

>  <hydroph_interaction:GLN:74>  (35) 
0.0

>  <hydroph_interaction:THR:118>  (35) 
0.0

>  <hydroph_interaction:ILE:123>  (35) 
0.0

>  <hydroph_interaction:THR:166>  (35) 
0.0

>  <hbond:GLN:167>  (35) 
0.0

>  <hydroph_interaction:ALA:88>  (35) 
0.0

>  <hydroph_interaction:ASP:120>  (35) 
0.0

>  <hydroph_interaction:GLN:167>  (35) 
0.0

>  <hbond:THR:118>  (35) 
0.0

>  <hydroph_interaction:ALA:164>  (35) 
1.0

>  <hbond:ASP:120>  (35) 
0.0

>  <hbond:THR:166>  (35) 
1.0

>  <hydroph_interaction:LEU:76>  (35) 
0.0

>  <hbond:ILE:165>  (35) 
0.0

>  <halogenbond:GLN:74>  (35) 
0.0

>  <hbond:GLN:74>  (35) 
0.0

>  <hbond:LYS:73>  (35) 
0.0

>  <pistack:TRP:69>  (35) 
0.0

>  <hbond:TRP:83>  (35) 
0.0

>  <hydroph_interaction:TRP:83>  (35) 
0.0

>  <hydroph_interaction:TRP:69>  (35) 
0.0

>  <pication:TRP:69>  (35) 
0.0

>  <hydroph_interaction:PRO:82>  (35) 
0.0

>  <halogenbond:LYS:73>  (35) 
0.0

>  <hydroph_interaction:TYR:68>  (35) 
0.0

>  <halogenbond:GLN:167>  (35) 
0.0

>  <hydroph_interaction:PHE:116>  (35) 
2.0

>  <hbond:TYR:68>  (35) 
0.0

>  <hbond:ASP:122>  (35) 
0.0

>  <pistack:PHE:116>  (35) 
0.0

>  <hydroph_interaction:VAL:154>  (35) 
0.0

>  <hydroph_interaction:ASP:75>  (35) 
0.0

>  <hbond:GLY:121>  (35) 
0.0

>  <hydroph_interaction:ASN:152>  (35) 
0.0

>  <halogenbond:ILE:165>  (35) 
0.0

$$$$
PV-002794704667-x0884S2-Z1318055457S4
     RDKit          3D

 31 33  0  0  0  0  0  0  0  0999 V2000
  -15.6300   -6.3870   -8.1890 C   0  0  0  0  0  0  0  0  0  0  0  0
  -15.4900   -7.6930   -7.6210 C   0  0  0  0  0  0  0  0  0  0  0  0
  -16.5840   -8.3890   -7.2070 N   0  0  0  0  0  0  0  0  0  0  0  0
  -16.3680   -9.5910   -6.6650 C   0  0  0  0  0  0  0  0  0  0  0  0
  -15.1730  -10.1440   -6.4820 N   0  0  0  0  0  0  0  0  0  0  0  0
  -14.1060   -9.4250   -6.8970 C   0  0  0  0  0  0  0  0  0  0  0  0
  -12.8580  -10.0020   -6.6460 O   0  0  0  0  0  0  0  0  0  0  0  0
  -11.9350  -10.4760   -7.5370 C   0  0  0  0  0  0  0  0  0  0  0  0
  -11.9450  -11.8310   -7.8720 C   0  0  0  0  0  0  0  0  0  0  0  0
  -10.9890  -12.3330   -8.7480 C   0  0  0  0  0  0  0  0  0  0  0  0
  -10.0380  -11.4760   -9.2750 C   0  0  0  0  0  0  0  0  0  0  0  0
  -10.0400  -10.1040   -8.9440 C   0  0  0  0  0  0  0  0  0  0  0  0
   -9.1070   -9.2500   -9.4720 C   0  0  0  0  0  0  0  0  0  0  0  0
   -9.0530   -7.8870   -9.1900 C   0  0  0  0  0  0  0  0  0  0  0  0
   -9.9860   -7.3590   -8.3230 C   0  0  0  0  0  0  0  0  0  0  0  0
  -10.9520   -8.2120   -7.7610 C   0  0  0  0  0  0  0  0  0  0  0  0
  -10.9920   -9.5880   -8.0680 C   0  0  0  0  0  0  0  0  0  0  0  0
  -14.2260   -8.1730   -7.5060 C   0  0  0  0  0  0  0  0  0  0  0  0
  -13.1920   -7.3350   -8.0070 C   0  0  0  0  0  0  0  0  0  0  0  0
  -12.4350   -6.6010   -8.5000 N   0  0  0  0  0  0  0  0  0  0  0  0
  -16.5860   -5.9420   -7.9010 H   0  0  0  0  0  0  0  0  0  0  0  0
  -15.5350   -6.4250   -9.2770 H   0  0  0  0  0  0  0  0  0  0  0  0
  -14.8420   -5.7220   -7.8170 H   0  0  0  0  0  0  0  0  0  0  0  0
  -17.2380  -10.1580   -6.3430 H   0  0  0  0  0  0  0  0  0  0  0  0
  -12.6920  -12.4970   -7.4460 H   0  0  0  0  0  0  0  0  0  0  0  0
  -10.9820  -13.3850   -9.0140 H   0  0  0  0  0  0  0  0  0  0  0  0
   -9.2910  -11.8840   -9.9550 H   0  0  0  0  0  0  0  0  0  0  0  0
   -8.3750   -9.6620  -10.1410 H   0  0  0  0  0  0  0  0  0  0  0  0
   -8.2900   -7.2590   -9.6420 H   0  0  0  0  0  0  0  0  0  0  0  0
   -9.9720   -6.3010   -8.0790 H   0  0  0  0  0  0  0  0  0  0  0  0
  -11.6790   -7.7870   -7.0740 H   0  0  0  0  0  0  0  0  0  0  0  0
  1  2  1  0
  2  3  2  0
  3  4  1  0
  4  5  2  0
  5  6  1  0
  6  7  1  0
  7  8  1  0
  8  9  2  0
  9 10  1  0
 10 11  2  0
 11 12  1  0
 12 13  2  0
 13 14  1  0
 14 15  2  0
 15 16  1  0
 16 17  2  0
  6 18  2  0
 18 19  1  0
 19 20  3  0
 18  2  1  0
 17  8  1  0
 17 12  1  0
  1 21  1  0
  1 22  1  0
  1 23  1  0
  4 24  1  0
  9 25  1  0
 10 26  1  0
 11 27  1  0
 13 28  1  0
 14 29  1  0
 15 30  1  0
 16 31  1  0
A    1
 C1 
A    2
 C2 
A    3
 N1 
A    4
 C3 
A    5
 N2 
A    6
 C4 
A    7
 O1 
A    8
 C5 
A    9
 C6 
A   10
 C7 
A   11
 C8 
A   12
 C9 
A   13
 C10
A   14
 C11
A   15
 C12
A   16
 C13
A   17
 C14
A   18
 C15
A   19
 C16
A   20
 N3 
A   21
 H1 
A   22
 H2 
A   23
 H3 
A   24
 H4 
A   25
 H5 
A   26
 H6 
A   27
 H7 
A   28
 H8 
A   29
 H9 
A   30
 H10
A   31
 H11
M  END
>  <ref_pdb>  (36) 
x0051_0B

>  <ref_mols>  (36) 
x0051_0B

>  <original SMILES>  (36) 
[H]c1nc(Oc2c([H])c([H])c([H])c3c([H])c([H])c([H])c([H])c23)c(C#N)c(C([H])([H])[H])n1

>  <index>  (36) 
6957.0

>  <∆∆G>  (36) 
-2.90264

>  <comRMSD>  (36) 
0.593313

>  <N_constrained_atoms>  (36) 
18.0

>  <N_unconstrained_atoms>  (36) 
2.0

>  <LE>  (36) 
0.145132

>  <percent_hybrid>  (36) 
48.0

>  <largest_ring>  (36) 
6.0

>  <N_HA>  (36) 
20.0

>  <N_rotatable_bonds>  (36) 
3.0

>  <max_hit_Tanimoto>  (36) 
0.126984

>  <N_interactions_kept>  (36) 
0.0

>  <N_interactions_lost>  (36) 
0.5

>  <interaction_uniqueness_metric>  (36) 
0.087403

>  <N_interactions>  (36) 
6.0

>  <N_PAINS>  (36) 
0.0

>  <UFF_Gibbs>  (36) 
196.614951

>  <strain_per_HA>  (36) 
9.830698

>  <ad_hoc_penalty>  (36) 
-29.182971

>  <cluster>  (36) 
3248.0

>  <intxn_cluster>  (36) 
1.0

>  <keep>  (36) 
1.0

>  <hydroph_interaction:GLN:74>  (36) 
1.0

>  <hydroph_interaction:THR:118>  (36) 
1.0

>  <hydroph_interaction:ILE:123>  (36) 
3.0

>  <hydroph_interaction:THR:166>  (36) 
1.0

>  <hbond:GLN:167>  (36) 
0.0

>  <hydroph_interaction:ALA:88>  (36) 
0.0

>  <hydroph_interaction:ASP:120>  (36) 
0.0

>  <hydroph_interaction:GLN:167>  (36) 
0.0

>  <hbond:THR:118>  (36) 
0.0

>  <hydroph_interaction:ALA:164>  (36) 
0.0

>  <hbond:ASP:120>  (36) 
0.0

>  <hbond:THR:166>  (36) 
0.0

>  <hydroph_interaction:LEU:76>  (36) 
0.0

>  <hbond:ILE:165>  (36) 
0.0

>  <halogenbond:GLN:74>  (36) 
0.0

>  <hbond:GLN:74>  (36) 
0.0

>  <hbond:LYS:73>  (36) 
0.0

>  <pistack:TRP:69>  (36) 
0.0

>  <hbond:TRP:83>  (36) 
0.0

>  <hydroph_interaction:TRP:83>  (36) 
0.0

>  <hydroph_interaction:TRP:69>  (36) 
0.0

>  <pication:TRP:69>  (36) 
0.0

>  <hydroph_interaction:PRO:82>  (36) 
0.0

>  <halogenbond:LYS:73>  (36) 
0.0

>  <hydroph_interaction:TYR:68>  (36) 
0.0

>  <halogenbond:GLN:167>  (36) 
0.0

>  <hydroph_interaction:PHE:116>  (36) 
0.0

>  <hbond:TYR:68>  (36) 
0.0

>  <hbond:ASP:122>  (36) 
0.0

>  <pistack:PHE:116>  (36) 
0.0

>  <hydroph_interaction:VAL:154>  (36) 
0.0

>  <hydroph_interaction:ASP:75>  (36) 
0.0

>  <hbond:GLY:121>  (36) 
0.0

>  <hydroph_interaction:ASN:152>  (36) 
0.0

>  <halogenbond:ILE:165>  (36) 
0.0

$$$$
PV-004907167050-x0884S2-Z198195906S9
     RDKit          3D

 38 39  0  0  0  0  0  0  0  0999 V2000
   -9.5280   -4.5620  -10.3320 C   0  0  0  0  0  0  0  0  0  0  0  0
  -10.4700   -5.2590   -9.5750 C   0  0  0  0  0  0  0  0  0  0  0  0
  -10.7160   -6.6110   -9.8250 C   0  0  0  0  0  0  0  0  0  0  0  0
  -12.0820   -6.8570  -10.0560 C   0  0  0  0  0  0  0  0  0  0  0  0
  -13.0210   -5.8580   -9.4230 C   0  0  0  0  0  0  0  0  0  0  0  0
  -10.3010   -7.5030   -8.9230 N   0  0  0  0  0  0  0  0  0  0  0  0
  -11.2160   -7.9040   -7.8360 C   0  0  0  0  0  0  0  0  0  0  0  0
  -11.3450   -9.4460   -7.8370 C   0  0  0  0  0  0  0  0  0  0  0  0
  -10.0370  -10.1880   -8.0650 C   0  0  0  0  0  0  0  0  0  0  0  0
  -10.0860  -11.6850   -8.1000 C   0  0  0  0  0  0  0  0  0  0  0  0
  -11.2430  -12.4050   -7.9210 C   0  0  0  0  0  0  0  0  0  0  0  0
  -12.5190  -11.6200   -7.6820 C   0  0  0  0  0  0  0  0  0  0  0  0
  -12.5520  -10.2100   -7.6510 C   0  0  0  0  0  0  0  0  0  0  0  0
  -13.9260   -9.6130   -7.4250 C   0  0  0  0  0  0  0  0  0  0  0  0
  -14.2450   -8.2180   -7.9730 C   0  0  0  0  0  0  0  0  0  0  0  0
  -15.6340   -7.6310   -7.7570 C   0  0  0  0  0  0  0  0  0  0  0  0
  -16.6910   -8.4410   -6.9980 C   0  0  0  0  0  0  0  0  0  0  0  0
  -16.3780   -9.8330   -6.4450 C   0  0  0  0  0  0  0  0  0  0  0  0
  -14.9870  -10.4380   -6.6520 C   0  0  0  0  0  0  0  0  0  0  0  0
   -9.7320   -3.5420  -10.6590 H   0  0  0  0  0  0  0  0  0  0  0  0
  -10.0710   -6.9260  -10.6320 H   0  0  0  0  0  0  0  0  0  0  0  0
  -12.2450   -6.6940  -11.1290 H   0  0  0  0  0  0  0  0  0  0  0  0
  -12.3730   -7.8960   -9.9400 H   0  0  0  0  0  0  0  0  0  0  0  0
  -13.0370   -6.0920   -8.3520 H   0  0  0  0  0  0  0  0  0  0  0  0
  -14.0600   -5.8890   -9.7400 H   0  0  0  0  0  0  0  0  0  0  0  0
  -12.7490   -4.8080   -9.4860 H   0  0  0  0  0  0  0  0  0  0  0  0
   -9.9820   -8.3370   -9.4130 H   0  0  0  0  0  0  0  0  0  0  0  0
  -12.1380   -7.3570   -7.9810 H   0  0  0  0  0  0  0  0  0  0  0  0
  -10.8560   -7.4580   -6.9160 H   0  0  0  0  0  0  0  0  0  0  0  0
   -9.0900   -9.6670   -8.2100 H   0  0  0  0  0  0  0  0  0  0  0  0
   -9.1780  -12.2390   -8.2730 H   0  0  0  0  0  0  0  0  0  0  0  0
  -11.2530  -13.4940   -7.9480 H   0  0  0  0  0  0  0  0  0  0  0  0
  -13.4460  -12.1680   -7.5360 H   0  0  0  0  0  0  0  0  0  0  0  0
  -13.4850   -7.6540   -8.5160 H   0  0  0  0  0  0  0  0  0  0  0  0
  -15.8770   -6.6420   -8.1420 H   0  0  0  0  0  0  0  0  0  0  0  0
  -17.6820   -8.0170   -6.8510 H   0  0  0  0  0  0  0  0  0  0  0  0
  -17.1400  -10.3910   -5.9080 H   0  0  0  0  0  0  0  0  0  0  0  0
  -14.7550  -11.4280   -6.2660 H   0  0  0  0  0  0  0  0  0  0  0  0
  1  2  3  0
  2  3  1  0
  3  4  1  0
  4  5  1  0
  3  6  1  0
  6  7  1  0
  7  8  1  0
  8  9  2  0
  9 10  1  0
 10 11  2  0
 11 12  1  0
 12 13  2  0
 13 14  1  0
 14 15  2  0
 15 16  1  0
 16 17  2  0
 17 18  1  0
 18 19  2  0
 13  8  1  0
 19 14  1  0
  1 20  1  0
  3 21  1  0
  4 22  1  0
  4 23  1  0
  5 24  1  0
  5 25  1  0
  5 26  1  0
  6 27  1  0
  7 28  1  0
  7 29  1  0
  9 30  1  0
 10 31  1  0
 11 32  1  0
 12 33  1  0
 15 34  1  0
 16 35  1  0
 17 36  1  0
 18 37  1  0
 19 38  1  0
A    1
 C1 
A    2
 C2 
A    3
 C3 
A    4
 C4 
A    5
 C5 
A    6
 N1 
A    7
 C6 
A    8
 C7 
A    9
 C8 
A   10
 C9 
A   11
 C10
A   12
 C11
A   13
 C12
A   14
 C13
A   15
 C14
A   16
 C15
A   17
 C16
A   18
 C17
A   19
 C18
A   20
 H1 
A   21
 H2 
A   22
 H3 
A   23
 H4 
A   24
 H5 
A   25
 H6 
A   26
 H7 
A   27
 H8 
A   28
 H9 
A   29
 H10
A   30
 H11
A   31
 H12
A   32
 H13
A   33
 H14
A   34
 H15
A   35
 H16
A   36
 H17
A   37
 H18
A   38
 H19
M  END
>  <ref_pdb>  (37) 
x0051_0B

>  <ref_mols>  (37) 
x0051_0B

>  <original SMILES>  (37) 
[H]C#CC([H])(N([H])C([H])([H])c1c([H])c([H])c([H])c([H])c1-c1c([H])c([H])c([H])c([H])c1[H])C([H])([H])C([H])([H])[H]

>  <index>  (37) 
2192.0

>  <∆∆G>  (37) 
-5.670276

>  <comRMSD>  (37) 
0.542734

>  <N_constrained_atoms>  (37) 
18.0

>  <N_unconstrained_atoms>  (37) 
2.0

>  <LE>  (37) 
0.283514

>  <percent_hybrid>  (37) 
44.0

>  <largest_ring>  (37) 
6.0

>  <N_HA>  (37) 
19.0

>  <N_rotatable_bonds>  (37) 
6.0

>  <max_hit_Tanimoto>  (37) 
0.228205

>  <N_interactions_kept>  (37) 
0.5

>  <N_interactions_lost>  (37) 
0.5

>  <interaction_uniqueness_metric>  (37) 
0.115133

>  <N_interactions>  (37) 
6.0

>  <N_PAINS>  (37) 
0.0

>  <UFF_Gibbs>  (37) 
572.100203

>  <strain_per_HA>  (37) 
30.110379

>  <ad_hoc_penalty>  (37) 
-29.141687

>  <cluster>  (37) 
746.0

>  <intxn_cluster>  (37) 
18.0

>  <keep>  (37) 
1.0

>  <hydroph_interaction:GLN:74>  (37) 
0.0

>  <hydroph_interaction:THR:118>  (37) 
0.0

>  <hydroph_interaction:ILE:123>  (37) 
3.0

>  <hydroph_interaction:THR:166>  (37) 
1.0

>  <hbond:GLN:167>  (37) 
0.0

>  <hydroph_interaction:ALA:88>  (37) 
0.0

>  <hydroph_interaction:ASP:120>  (37) 
1.0

>  <hydroph_interaction:GLN:167>  (37) 
0.0

>  <hbond:THR:118>  (37) 
0.0

>  <hydroph_interaction:ALA:164>  (37) 
1.0

>  <hbond:ASP:120>  (37) 
0.0

>  <hbond:THR:166>  (37) 
0.0

>  <hydroph_interaction:LEU:76>  (37) 
0.0

>  <hbond:ILE:165>  (37) 
0.0

>  <halogenbond:GLN:74>  (37) 
0.0

>  <hbond:GLN:74>  (37) 
0.0

>  <hbond:LYS:73>  (37) 
0.0

>  <pistack:TRP:69>  (37) 
0.0

>  <hbond:TRP:83>  (37) 
0.0

>  <hydroph_interaction:TRP:83>  (37) 
0.0

>  <hydroph_interaction:TRP:69>  (37) 
0.0

>  <pication:TRP:69>  (37) 
0.0

>  <hydroph_interaction:PRO:82>  (37) 
0.0

>  <halogenbond:LYS:73>  (37) 
0.0

>  <hydroph_interaction:TYR:68>  (37) 
0.0

>  <halogenbond:GLN:167>  (37) 
0.0

>  <hydroph_interaction:PHE:116>  (37) 
0.0

>  <hbond:TYR:68>  (37) 
0.0

>  <hbond:ASP:122>  (37) 
0.0

>  <pistack:PHE:116>  (37) 
0.0

>  <hydroph_interaction:VAL:154>  (37) 
0.0

>  <hydroph_interaction:ASP:75>  (37) 
0.0

>  <hbond:GLY:121>  (37) 
0.0

>  <hydroph_interaction:ASN:152>  (37) 
0.0

>  <halogenbond:ILE:165>  (37) 
0.0

$$$$
PV-007126216671-x0214S3-Z2102283482
     RDKit          3D

 42 45  0  0  0  0  0  0  0  0999 V2000
  -12.6030  -13.5790   -9.6150 N   0  0  0  0  0  0  0  0  0  0  0  0
  -12.5210  -12.9700   -8.3840 C   0  0  0  0  0  0  0  0  0  0  0  0
  -13.0320  -13.5140   -7.4130 O   0  0  0  0  0  0  0  0  0  0  0  0
  -11.7770  -11.6560   -8.3690 C   0  0  0  0  0  0  0  0  0  0  0  0
  -10.7660  -11.5110   -9.1870 N   0  0  0  0  0  0  0  0  0  0  0  0
  -10.3120  -10.2560   -8.9510 C   0  0  0  0  0  0  0  0  0  0  0  0
   -9.2130   -9.5250   -9.5220 C   0  0  0  0  0  0  0  0  0  0  0  0
   -8.8600   -8.2440   -9.2330 C   0  0  0  0  0  0  0  0  0  0  0  0
   -9.6290   -7.5870   -8.2770 C   0  0  0  0  0  0  0  0  0  0  0  0
  -10.7050   -8.2560   -7.6540 C   0  0  0  0  0  0  0  0  0  0  0  0
  -11.0080   -9.5810   -8.0170 C   0  0  0  0  0  0  0  0  0  0  0  0
  -11.9390  -10.4860   -7.6050 N   0  0  0  0  0  0  0  0  0  0  0  0
  -12.8490  -10.1540   -6.5220 C   0  0  0  0  0  0  0  0  0  0  0  0
  -14.2910   -9.7520   -6.6740 C   0  0  0  0  0  0  0  0  0  0  0  0
  -15.2040  -10.6090   -6.0550 C   0  0  0  0  0  0  0  0  0  0  0  0
  -16.6840  -10.3140   -6.1010 C   0  0  0  0  0  0  0  0  0  0  0  0
  -17.0870   -9.0570   -6.8400 C   0  0  0  0  0  0  0  0  0  0  0  0
  -16.0820   -8.3030   -7.4090 C   0  0  0  0  0  0  0  0  0  0  0  0
  -14.7400   -8.6160   -7.3510 C   0  0  0  0  0  0  0  0  0  0  0  0
  -13.9060   -7.6660   -8.0580 C   0  0  0  0  0  0  0  0  0  0  0  0
  -13.9860   -7.7650   -9.4300 C   0  0  0  0  0  0  0  0  0  0  0  0
  -13.2720   -6.9270  -10.2260 C   0  0  0  0  0  0  0  0  0  0  0  0
  -12.4400   -5.9560   -9.6820 C   0  0  0  0  0  0  0  0  0  0  0  0
  -12.3390   -5.8360   -8.2980 C   0  0  0  0  0  0  0  0  0  0  0  0
  -13.0780   -6.6960   -7.4770 C   0  0  0  0  0  0  0  0  0  0  0  0
  -12.0570  -14.4130   -9.8050 H   0  0  0  0  0  0  0  0  0  0  0  0
  -13.5160  -13.5290  -10.0470 H   0  0  0  0  0  0  0  0  0  0  0  0
   -8.6400  -10.0700  -10.2310 H   0  0  0  0  0  0  0  0  0  0  0  0
   -8.0160   -7.7630   -9.7220 H   0  0  0  0  0  0  0  0  0  0  0  0
   -9.3930   -6.5600   -8.0060 H   0  0  0  0  0  0  0  0  0  0  0  0
  -11.3070   -7.7640   -6.8940 H   0  0  0  0  0  0  0  0  0  0  0  0
  -12.3780   -9.2950   -6.0340 H   0  0  0  0  0  0  0  0  0  0  0  0
  -12.6600  -10.9780   -5.8350 H   0  0  0  0  0  0  0  0  0  0  0  0
  -14.8790  -11.5020   -5.5230 H   0  0  0  0  0  0  0  0  0  0  0  0
  -17.4170  -10.9650   -5.6280 H   0  0  0  0  0  0  0  0  0  0  0  0
  -18.1030   -8.6590   -6.9870 H   0  0  0  0  0  0  0  0  0  0  0  0
  -16.4430   -7.4140   -7.9200 H   0  0  0  0  0  0  0  0  0  0  0  0
  -14.6270   -8.5140   -9.8900 H   0  0  0  0  0  0  0  0  0  0  0  0
  -13.3760   -7.0480  -11.2850 H   0  0  0  0  0  0  0  0  0  0  0  0
  -11.8710   -5.2930  -10.3330 H   0  0  0  0  0  0  0  0  0  0  0  0
  -11.6940   -5.0800   -7.8560 H   0  0  0  0  0  0  0  0  0  0  0  0
  -13.0030   -6.6020   -6.3980 H   0  0  0  0  0  0  0  0  0  0  0  0
  1  2  1  0
  2  3  2  0
  2  4  1  0
  4  5  2  0
  5  6  1  0
  6  7  2  0
  7  8  1  0
  8  9  2  0
  9 10  1  0
 10 11  2  0
 11 12  1  0
 12 13  1  0
 13 14  1  0
 14 15  2  0
 15 16  1  0
 16 17  2  0
 17 18  1  0
 18 19  2  0
 19 20  1  0
 20 21  2  0
 21 22  1  0
 22 23  2  0
 23 24  1  0
 24 25  2  0
 12  4  1  0
 11  6  1  0
 19 14  1  0
 25 20  1  0
  1 26  1  0
  1 27  1  0
  7 28  1  0
  8 29  1  0
  9 30  1  0
 10 31  1  0
 13 32  1  0
 13 33  1  0
 15 34  1  0
 16 35  1  0
 17 36  1  0
 18 37  1  0
 21 38  1  0
 22 39  1  0
 23 40  1  0
 24 41  1  0
 25 42  1  0
A    1
 N1 
A    2
 C1 
A    3
 O1 
A    4
 C2 
A    5
 N2 
A    6
 C3 
A    7
 C4 
A    8
 C5 
A    9
 C6 
A   10
 C7 
A   11
 C8 
A   12
 N3 
A   13
 C9 
A   14
 C10
A   15
 C11
A   16
 C12
A   17
 C13
A   18
 C14
A   19
 C15
A   20
 C16
A   21
 C17
A   22
 C18
A   23
 C19
A   24
 C20
A   25
 C21
A   26
 H1 
A   27
 H2 
A   28
 H3 
A   29
 H4 
A   30
 H5 
A   31
 H6 
A   32
 H7 
A   33
 H8 
A   34
 H9 
A   35
 H10
A   36
 H11
A   37
 H12
A   38
 H13
A   39
 H14
A   40
 H15
A   41
 H16
A   42
 H17
M  END
>  <ref_pdb>  (38) 
x0051_0B

>  <ref_mols>  (38) 
x0051_0B

>  <original SMILES>  (38) 
[H]c1c([H])c([H])c(-c2c([H])c([H])c([H])c([H])c2C([H])([H])n2c(C(=O)N([H])[H])nc3c([H])c([H])c([H])c([H])c32)c([H])c1[H]

>  <index>  (38) 
2501.0

>  <∆∆G>  (38) 
-4.034762

>  <comRMSD>  (38) 
0.756922

>  <N_constrained_atoms>  (38) 
27.0

>  <N_unconstrained_atoms>  (38) 
1.0

>  <LE>  (38) 
0.144099

>  <percent_hybrid>  (38) 
16.0

>  <largest_ring>  (38) 
6.0

>  <N_HA>  (38) 
25.0

>  <N_rotatable_bonds>  (38) 
4.0

>  <max_hit_Tanimoto>  (38) 
0.297808

>  <N_interactions_kept>  (38) 
1.0

>  <N_interactions_lost>  (38) 
1.0

>  <interaction_uniqueness_metric>  (38) 
0.183447

>  <N_interactions>  (38) 
6.0

>  <N_PAINS>  (38) 
0.0

>  <UFF_Gibbs>  (38) 
103.843447

>  <strain_per_HA>  (38) 
4.153721

>  <ad_hoc_penalty>  (38) 
-28.971044

>  <cluster>  (38) 
5171.0

>  <intxn_cluster>  (38) 
1.0

>  <keep>  (38) 
1.0

>  <hydroph_interaction:GLN:74>  (38) 
0.0

>  <hydroph_interaction:THR:118>  (38) 
1.0

>  <hydroph_interaction:ILE:123>  (38) 
2.0

>  <hydroph_interaction:THR:166>  (38) 
1.0

>  <hbond:GLN:167>  (38) 
0.0

>  <hydroph_interaction:ALA:88>  (38) 
0.0

>  <hydroph_interaction:ASP:120>  (38) 
0.0

>  <hydroph_interaction:GLN:167>  (38) 
0.0

>  <hbond:THR:118>  (38) 
1.0

>  <hydroph_interaction:ALA:164>  (38) 
0.0

>  <hbond:ASP:120>  (38) 
0.0

>  <hbond:THR:166>  (38) 
0.0

>  <hydroph_interaction:LEU:76>  (38) 
0.0

>  <hbond:ILE:165>  (38) 
0.0

>  <halogenbond:GLN:74>  (38) 
0.0

>  <hbond:GLN:74>  (38) 
0.0

>  <hbond:LYS:73>  (38) 
0.0

>  <pistack:TRP:69>  (38) 
0.0

>  <hbond:TRP:83>  (38) 
0.0

>  <hydroph_interaction:TRP:83>  (38) 
0.0

>  <hydroph_interaction:TRP:69>  (38) 
0.0

>  <pication:TRP:69>  (38) 
0.0

>  <hydroph_interaction:PRO:82>  (38) 
0.0

>  <halogenbond:LYS:73>  (38) 
0.0

>  <hydroph_interaction:TYR:68>  (38) 
0.0

>  <halogenbond:GLN:167>  (38) 
0.0

>  <hydroph_interaction:PHE:116>  (38) 
0.0

>  <hbond:TYR:68>  (38) 
0.0

>  <hbond:ASP:122>  (38) 
1.0

>  <pistack:PHE:116>  (38) 
0.0

>  <hydroph_interaction:VAL:154>  (38) 
0.0

>  <hydroph_interaction:ASP:75>  (38) 
0.0

>  <hbond:GLY:121>  (38) 
0.0

>  <hydroph_interaction:ASN:152>  (38) 
0.0

>  <halogenbond:ILE:165>  (38) 
0.0

$$$$
Z3446832434-x0214S4-x0214S2
     RDKit          3D

 34 34  0  0  0  0  0  0  0  0999 V2000
  -15.8870   -5.7260   -8.2190 C   0  0  0  0  0  0  0  0  0  0  0  0
  -15.4070   -6.7660   -7.9860 C   0  0  0  0  0  0  0  0  0  0  0  0
  -14.8620   -8.1360   -8.1310 C   0  0  0  0  0  0  0  0  0  0  0  0
  -13.5080   -8.3110   -8.3470 C   0  0  0  0  0  0  0  0  0  0  0  0
  -13.2850   -9.4410   -7.6360 N   0  0  0  0  0  0  0  0  0  0  0  0
  -12.1900   -9.7560   -6.7540 C   0  0  0  0  0  0  0  0  0  0  0  0
  -11.2720  -10.5070   -7.0170 O   0  0  0  0  0  0  0  0  0  0  0  0
  -12.3280   -9.0840   -5.5710 O   0  0  0  0  0  0  0  0  0  0  0  0
  -13.5880   -8.4390   -5.3380 C   0  0  0  0  0  0  0  0  0  0  0  0
  -12.6150   -7.1540   -7.7770 C   0  0  0  0  0  0  0  0  0  0  0  0
  -12.5470   -5.8990   -8.6430 C   0  0  0  0  0  0  0  0  0  0  0  0
  -12.2530   -6.2650  -10.0950 C   0  0  0  0  0  0  0  0  0  0  0  0
  -13.1350   -7.2780  -10.6500 N   0  0  0  0  0  0  0  0  0  0  0  0
  -13.2980   -8.5120   -9.8710 C   0  0  0  0  0  0  0  0  0  0  0  0
  -16.2780   -4.8730   -8.7520 H   0  0  0  0  0  0  0  0  0  0  0  0
  -16.7690   -5.7740   -7.5880 H   0  0  0  0  0  0  0  0  0  0  0  0
  -15.1350   -5.1510   -7.6870 H   0  0  0  0  0  0  0  0  0  0  0  0
  -14.5810   -6.3380   -7.4110 H   0  0  0  0  0  0  0  0  0  0  0  0
  -16.1540   -7.0300   -7.2250 H   0  0  0  0  0  0  0  0  0  0  0  0
  -15.4130   -8.6450   -8.9310 H   0  0  0  0  0  0  0  0  0  0  0  0
  -15.1490   -8.7060   -7.2370 H   0  0  0  0  0  0  0  0  0  0  0  0
  -13.8340  -10.2620   -7.8540 H   0  0  0  0  0  0  0  0  0  0  0  0
  -13.9770   -7.9510   -6.2250 H   0  0  0  0  0  0  0  0  0  0  0  0
  -14.3490   -9.1420   -4.9770 H   0  0  0  0  0  0  0  0  0  0  0  0
  -13.4650   -7.6920   -4.5420 H   0  0  0  0  0  0  0  0  0  0  0  0
  -12.9320   -6.9030   -6.7630 H   0  0  0  0  0  0  0  0  0  0  0  0
  -11.5920   -7.5290   -7.6540 H   0  0  0  0  0  0  0  0  0  0  0  0
  -13.4830   -5.3410   -8.5870 H   0  0  0  0  0  0  0  0  0  0  0  0
  -11.7680   -5.2290   -8.2710 H   0  0  0  0  0  0  0  0  0  0  0  0
  -11.2200   -6.6130  -10.1830 H   0  0  0  0  0  0  0  0  0  0  0  0
  -12.3080   -5.3640  -10.7160 H   0  0  0  0  0  0  0  0  0  0  0  0
  -13.0890   -7.5120  -11.6340 H   0  0  0  0  0  0  0  0  0  0  0  0
  -14.1530   -9.0480  -10.2950 H   0  0  0  0  0  0  0  0  0  0  0  0
  -12.4450   -9.1620  -10.0310 H   0  0  0  0  0  0  0  0  0  0  0  0
  1  2  1  0
  2  3  1  0
  3  4  1  0
  4  5  1  0
  5  6  1  0
  6  7  2  0
  6  8  1  0
  8  9  1  0
  4 10  1  0
 10 11  1  0
 11 12  1  0
 12 13  1  0
 13 14  1  0
 14  4  1  0
  1 15  1  0
  1 16  1  0
  1 17  1  0
  2 18  1  0
  2 19  1  0
  3 20  1  0
  3 21  1  0
  5 22  1  0
  9 23  1  0
  9 24  1  0
  9 25  1  0
 10 26  1  0
 10 27  1  0
 11 28  1  0
 11 29  1  0
 12 30  1  0
 12 31  1  0
 13 32  1  0
 14 33  1  0
 14 34  1  0
A    1
 C1 
A    2
 C2 
A    3
 C3 
A    4
 C4 
A    5
 N1 
A    6
 C5 
A    7
 O1 
A    8
 O2 
A    9
 C6 
A   10
 C7 
A   11
 C8 
A   12
 C9 
A   13
 N2 
A   14
 C10
A   15
 H1 
A   16
 H2 
A   17
 H3 
A   18
 H4 
A   19
 H5 
A   20
 H6 
A   21
 H7 
A   22
 H8 
A   23
 H9 
A   24
 H10
A   25
 H11
A   26
 H12
A   27
 H13
A   28
 H14
A   29
 H15
A   30
 H16
A   31
 H17
A   32
 H18
A   33
 H19
A   34
 H20
M  END
>  <ref_pdb>  (39) 
x0051_0B

>  <ref_mols>  (39) 
x0051_0B

>  <original SMILES>  (39) 
[H]N1C([H])([H])C([H])([H])C([H])([H])C(N([H])C(=O)OC([H])([H])[H])(C([H])([H])C([H])([H])C([H])([H])[H])C1([H])[H]

>  <index>  (39) 
9260.0

>  <∆∆G>  (39) 
-3.210868

>  <comRMSD>  (39) 
0.546262

>  <N_constrained_atoms>  (39) 
12.0

>  <N_unconstrained_atoms>  (39) 
3.0

>  <LE>  (39) 
0.214058

>  <percent_hybrid>  (39) 
15.0

>  <largest_ring>  (39) 
6.0

>  <N_HA>  (39) 
14.0

>  <N_rotatable_bonds>  (39) 
5.0

>  <max_hit_Tanimoto>  (39) 
0.098472

>  <N_interactions_kept>  (39) 
0.0

>  <N_interactions_lost>  (39) 
0.0

>  <interaction_uniqueness_metric>  (39) 
0.398145

>  <N_interactions>  (39) 
5.0

>  <N_PAINS>  (39) 
0.0

>  <UFF_Gibbs>  (39) 
998.354112

>  <strain_per_HA>  (39) 
71.310499

>  <ad_hoc_penalty>  (39) 
-28.593978

>  <cluster>  (39) 
2359.0

>  <intxn_cluster>  (39) 
5.0

>  <keep>  (39) 
1.0

>  <hydroph_interaction:GLN:74>  (39) 
2.0

>  <hydroph_interaction:THR:118>  (39) 
0.0

>  <hydroph_interaction:ILE:123>  (39) 
0.0

>  <hydroph_interaction:THR:166>  (39) 
1.0

>  <hbond:GLN:167>  (39) 
0.0

>  <hydroph_interaction:ALA:88>  (39) 
0.0

>  <hydroph_interaction:ASP:120>  (39) 
0.0

>  <hydroph_interaction:GLN:167>  (39) 
0.0

>  <hbond:THR:118>  (39) 
0.0

>  <hydroph_interaction:ALA:164>  (39) 
0.0

>  <hbond:ASP:120>  (39) 
0.0

>  <hbond:THR:166>  (39) 
0.0

>  <hydroph_interaction:LEU:76>  (39) 
1.0

>  <hbond:ILE:165>  (39) 
1.0

>  <halogenbond:GLN:74>  (39) 
0.0

>  <hbond:GLN:74>  (39) 
0.0

>  <hbond:LYS:73>  (39) 
0.0

>  <pistack:TRP:69>  (39) 
0.0

>  <hbond:TRP:83>  (39) 
0.0

>  <hydroph_interaction:TRP:83>  (39) 
0.0

>  <hydroph_interaction:TRP:69>  (39) 
0.0

>  <pication:TRP:69>  (39) 
0.0

>  <hydroph_interaction:PRO:82>  (39) 
0.0

>  <halogenbond:LYS:73>  (39) 
0.0

>  <hydroph_interaction:TYR:68>  (39) 
0.0

>  <halogenbond:GLN:167>  (39) 
0.0

>  <hydroph_interaction:PHE:116>  (39) 
0.0

>  <hbond:TYR:68>  (39) 
0.0

>  <hbond:ASP:122>  (39) 
0.0

>  <pistack:PHE:116>  (39) 
0.0

>  <hydroph_interaction:VAL:154>  (39) 
0.0

>  <hydroph_interaction:ASP:75>  (39) 
0.0

>  <hbond:GLY:121>  (39) 
0.0

>  <hydroph_interaction:ASN:152>  (39) 
0.0

>  <halogenbond:ILE:165>  (39) 
0.0

$$$$
Z4005035807-Z198195906S6-Z1318054286
     RDKit          3D

 41 42  0  0  0  0  0  0  0  0999 V2000
   -9.3950   -5.3530   -6.7500 C   0  0  0  0  0  0  0  0  0  0  0  0
  -10.1420   -4.4410   -7.6700 C   0  0  0  0  0  0  0  0  0  0  0  0
  -10.4140   -2.9920   -7.2140 C   0  0  0  0  0  0  0  0  0  0  0  0
  -11.0940   -2.0840   -7.9690 C   0  0  0  0  0  0  0  0  0  0  0  0
  -11.5630   -2.5930   -9.2980 C   0  0  0  0  0  0  0  0  0  0  0  0
  -11.3170   -3.8870   -9.7090 C   0  0  0  0  0  0  0  0  0  0  0  0
  -10.6250   -4.8190   -8.9360 C   0  0  0  0  0  0  0  0  0  0  0  0
  -10.4490   -6.1030   -9.4670 N   0  0  0  0  0  0  0  0  0  0  0  0
   -9.2540   -6.3280  -10.2790 C   0  0  0  0  0  0  0  0  0  0  0  0
  -11.5820   -6.8500   -9.7600 C   0  0  0  0  0  0  0  0  0  0  0  0
  -12.3240   -6.5980  -10.9380 O   0  0  0  0  0  0  0  0  0  0  0  0
  -11.9940   -7.8360   -8.8630 C   0  0  0  0  0  0  0  0  0  0  0  0
  -13.2910   -7.6510   -8.3500 C   0  0  0  0  0  0  0  0  0  0  0  0
  -14.2360   -8.8100   -8.2470 C   0  0  0  0  0  0  0  0  0  0  0  0
  -15.6310   -8.5480   -8.3750 C   0  0  0  0  0  0  0  0  0  0  0  0
  -16.4260   -9.6840   -8.0000 O   0  0  0  0  0  0  0  0  0  0  0  0
  -16.4600   -9.7590   -6.5760 C   0  0  0  0  0  0  0  0  0  0  0  0
  -15.0530   -9.5480   -6.0100 C   0  0  0  0  0  0  0  0  0  0  0  0
  -13.9850   -9.6340   -7.0260 N   0  0  0  0  0  0  0  0  0  0  0  0
   -8.3490   -5.0410   -6.6430 H   0  0  0  0  0  0  0  0  0  0  0  0
   -9.4230   -6.3850   -7.1100 H   0  0  0  0  0  0  0  0  0  0  0  0
   -9.8620   -5.3450   -5.7580 H   0  0  0  0  0  0  0  0  0  0  0  0
  -10.0540   -2.6630   -6.2420 H   0  0  0  0  0  0  0  0  0  0  0  0
  -11.3200   -1.0710   -7.7220 H   0  0  0  0  0  0  0  0  0  0  0  0
  -12.1210   -1.9990  -10.0330 H   0  0  0  0  0  0  0  0  0  0  0  0
  -11.6770   -4.2080  -10.6860 H   0  0  0  0  0  0  0  0  0  0  0  0
   -8.9990   -5.4570  -10.8910 H   0  0  0  0  0  0  0  0  0  0  0  0
   -8.4200   -6.5820   -9.6120 H   0  0  0  0  0  0  0  0  0  0  0  0
   -9.4110   -7.1860  -10.9380 H   0  0  0  0  0  0  0  0  0  0  0  0
  -12.0640   -8.7470   -9.4480 H   0  0  0  0  0  0  0  0  0  0  0  0
  -11.2550   -8.0910   -8.1070 H   0  0  0  0  0  0  0  0  0  0  0  0
  -13.1950   -7.2020   -7.3490 H   0  0  0  0  0  0  0  0  0  0  0  0
  -13.7500   -6.8730   -8.9700 H   0  0  0  0  0  0  0  0  0  0  0  0
  -13.9990   -9.4760   -9.0810 H   0  0  0  0  0  0  0  0  0  0  0  0
  -15.8500   -8.2960   -9.4170 H   0  0  0  0  0  0  0  0  0  0  0  0
  -15.9480   -7.6910   -7.7700 H   0  0  0  0  0  0  0  0  0  0  0  0
  -17.1650   -9.0060   -6.1900 H   0  0  0  0  0  0  0  0  0  0  0  0
  -16.8380  -10.7470   -6.2970 H   0  0  0  0  0  0  0  0  0  0  0  0
  -15.0080   -8.5670   -5.5190 H   0  0  0  0  0  0  0  0  0  0  0  0
  -14.8630  -10.2970   -5.2370 H   0  0  0  0  0  0  0  0  0  0  0  0
  -13.0940   -9.3580   -6.6140 H   0  0  0  0  0  0  0  0  0  0  0  0
  1  2  1  0
  2  3  2  0
  3  4  1  0
  4  5  2  0
  5  6  1  0
  6  7  2  0
  7  8  1  0
  8  9  1  0
  8 10  1  0
 10 11  2  0
 10 12  1  0
 12 13  1  0
 13 14  1  0
 14 15  1  0
 15 16  1  0
 16 17  1  0
 17 18  1  0
 18 19  1  0
  7  2  1  0
 19 14  1  0
  1 20  1  0
  1 21  1  0
  1 22  1  0
  3 23  1  0
  4 24  1  0
  5 25  1  0
  6 26  1  0
  9 27  1  0
  9 28  1  0
  9 29  1  0
 12 30  1  0
 12 31  1  0
 13 32  1  0
 13 33  1  0
 14 34  1  0
 15 35  1  0
 15 36  1  0
 17 37  1  0
 17 38  1  0
 18 39  1  0
 18 40  1  0
 19 41  1  0
A    1
 C1 
A    2
 C2 
A    3
 C3 
A    4
 C4 
A    5
 C5 
A    6
 C6 
A    7
 C7 
A    8
 N1 
A    9
 C8 
A   10
 C9 
A   11
 O1 
A   12
 C10
A   13
 C11
A   14
 C12
A   15
 C13
A   16
 O2 
A   17
 C14
A   18
 C15
A   19
 N2 
A   20
 H1 
A   21
 H2 
A   22
 H3 
A   23
 H4 
A   24
 H5 
A   25
 H6 
A   26
 H7 
A   27
 H8 
A   28
 H9 
A   29
 H10
A   30
 H11
A   31
 H12
A   32
 H13
A   33
 H14
A   34
 H15
A   35
 H16
A   36
 H17
A   37
 H18
A   38
 H19
A   39
 H20
A   40
 H21
A   41
 H22
M  END
>  <ref_pdb>  (40) 
x0051_0B

>  <ref_mols>  (40) 
x0051_0B

>  <original SMILES>  (40) 
[H]c1c([H])c([H])c(C([H])([H])[H])c(N(C(=O)C([H])([H])C([H])([H])C2([H])N([H])C([H])([H])C([H])([H])OC2([H])[H])C([H])([H])[H])c1[H]

>  <index>  (40) 
2945.0

>  <∆∆G>  (40) 
-5.27219

>  <comRMSD>  (40) 
0.75047

>  <N_constrained_atoms>  (40) 
13.0

>  <N_unconstrained_atoms>  (40) 
8.0

>  <LE>  (40) 
0.251057

>  <percent_hybrid>  (40) 
28.0

>  <largest_ring>  (40) 
6.0

>  <N_HA>  (40) 
19.0

>  <N_rotatable_bonds>  (40) 
6.0

>  <max_hit_Tanimoto>  (40) 
0.221918

>  <N_interactions_kept>  (40) 
0.5

>  <N_interactions_lost>  (40) 
0.5

>  <interaction_uniqueness_metric>  (40) 
0.836515

>  <N_interactions>  (40) 
4.0

>  <N_PAINS>  (40) 
0.0

>  <UFF_Gibbs>  (40) 
88.605634

>  <strain_per_HA>  (40) 
4.66343

>  <ad_hoc_penalty>  (40) 
-28.368789

>  <cluster>  (40) 
4961.0

>  <intxn_cluster>  (40) 
2.0

>  <keep>  (40) 
1.0

>  <hydroph_interaction:GLN:74>  (40) 
0.0

>  <hydroph_interaction:THR:118>  (40) 
0.0

>  <hydroph_interaction:ILE:123>  (40) 
1.0

>  <hydroph_interaction:THR:166>  (40) 
1.0

>  <hbond:GLN:167>  (40) 
0.0

>  <hydroph_interaction:ALA:88>  (40) 
0.0

>  <hydroph_interaction:ASP:120>  (40) 
0.0

>  <hydroph_interaction:GLN:167>  (40) 
0.0

>  <hbond:THR:118>  (40) 
0.0

>  <hydroph_interaction:ALA:164>  (40) 
0.0

>  <hbond:ASP:120>  (40) 
0.0

>  <hbond:THR:166>  (40) 
0.0

>  <hydroph_interaction:LEU:76>  (40) 
0.0

>  <hbond:ILE:165>  (40) 
0.0

>  <halogenbond:GLN:74>  (40) 
0.0

>  <hbond:GLN:74>  (40) 
0.0

>  <hbond:LYS:73>  (40) 
0.0

>  <pistack:TRP:69>  (40) 
0.0

>  <hbond:TRP:83>  (40) 
0.0

>  <hydroph_interaction:TRP:83>  (40) 
0.0

>  <hydroph_interaction:TRP:69>  (40) 
0.0

>  <pication:TRP:69>  (40) 
0.0

>  <hydroph_interaction:PRO:82>  (40) 
0.0

>  <halogenbond:LYS:73>  (40) 
0.0

>  <hydroph_interaction:TYR:68>  (40) 
0.0

>  <halogenbond:GLN:167>  (40) 
0.0

>  <hydroph_interaction:PHE:116>  (40) 
0.0

>  <hbond:TYR:68>  (40) 
0.0

>  <hbond:ASP:122>  (40) 
0.0

>  <pistack:PHE:116>  (40) 
0.0

>  <hydroph_interaction:VAL:154>  (40) 
0.0

>  <hydroph_interaction:ASP:75>  (40) 
1.0

>  <hbond:GLY:121>  (40) 
0.0

>  <hydroph_interaction:ASN:152>  (40) 
1.0

>  <halogenbond:ILE:165>  (40) 
0.0

$$$$
Z1431481083-x0944S1-x0130S2
     RDKit          3D

 31 32  0  0  0  0  0  0  0  0999 V2000
  -28.3730   -7.2420    0.7850 C   0  0  0  0  0  0  0  0  0  0  0  0
  -27.8080   -6.9470   -0.4560 N   0  0  0  0  0  0  0  0  0  0  0  0
  -26.3410   -7.1350   -0.4830 C   0  0  0  0  0  0  0  0  0  0  0  0
  -25.6960   -6.7810   -1.8240 C   0  0  0  0  0  0  0  0  0  0  0  0
  -26.3100   -5.5980   -2.4120 N   0  0  0  0  0  0  0  0  0  0  0  0
  -26.0830   -5.3010   -3.7500 C   0  0  0  0  0  0  0  0  0  0  0  0
  -26.3520   -4.2030   -4.2250 O   0  0  0  0  0  0  0  0  0  0  0  0
  -25.5350   -6.2550   -4.6110 C   0  0  0  0  0  0  0  0  0  0  0  0
  -26.3570   -7.3770   -5.1230 C   0  0  0  0  0  0  0  0  0  0  0  0
  -25.7890   -8.3020   -5.9840 C   0  0  0  0  0  0  0  0  0  0  0  0
  -24.3550   -8.1660   -6.3940 C   0  0  0  0  0  0  0  0  0  0  0  0
  -23.8050   -9.0570   -7.2280 F   0  0  0  0  0  0  0  0  0  0  0  0
  -23.6290   -7.1010   -5.8900 C   0  0  0  0  0  0  0  0  0  0  0  0
  -21.6390   -6.9580   -6.5110 I   0  0  0  0  0  0  0  0  0  0  0  0
  -24.1990   -6.1660   -5.0160 C   0  0  0  0  0  0  0  0  0  0  0  0
  -27.0720   -4.7890   -1.4620 C   0  0  0  0  0  0  0  0  0  0  0  0
  -28.2390   -5.6240   -0.9610 C   0  0  0  0  0  0  0  0  0  0  0  0
  -28.0050   -6.5760    1.5730 H   0  0  0  0  0  0  0  0  0  0  0  0
  -28.1590   -8.2710    1.0950 H   0  0  0  0  0  0  0  0  0  0  0  0
  -29.4610   -7.1260    0.7270 H   0  0  0  0  0  0  0  0  0  0  0  0
  -26.0870   -8.1780   -0.2550 H   0  0  0  0  0  0  0  0  0  0  0  0
  -25.8870   -6.5100    0.2980 H   0  0  0  0  0  0  0  0  0  0  0  0
  -25.7820   -7.6110   -2.5370 H   0  0  0  0  0  0  0  0  0  0  0  0
  -24.6300   -6.5590   -1.6940 H   0  0  0  0  0  0  0  0  0  0  0  0
  -27.3970   -7.4040   -4.7780 H   0  0  0  0  0  0  0  0  0  0  0  0
  -26.2940   -9.1710   -6.4260 H   0  0  0  0  0  0  0  0  0  0  0  0
  -23.6160   -5.3690   -4.6550 H   0  0  0  0  0  0  0  0  0  0  0  0
  -27.3100   -3.8260   -1.9220 H   0  0  0  0  0  0  0  0  0  0  0  0
  -26.3450   -4.5460   -0.7030 H   0  0  0  0  0  0  0  0  0  0  0  0
  -29.1000   -5.7490   -1.6290 H   0  0  0  0  0  0  0  0  0  0  0  0
  -28.6420   -5.0980   -0.0860 H   0  0  0  0  0  0  0  0  0  0  0  0
  1  2  1  0
  2  3  1  0
  3  4  1  0
  4  5  1  0
  5  6  1  0
  6  7  2  0
  6  8  1  0
  8  9  2  0
  9 10  1  0
 10 11  2  0
 11 12  1  0
 11 13  1  0
 13 14  1  0
 13 15  2  0
  5 16  1  0
 16 17  1  0
 17  2  1  0
 15  8  1  0
  1 18  1  0
  1 19  1  0
  1 20  1  0
  3 21  1  0
  3 22  1  0
  4 23  1  0
  4 24  1  0
  9 25  1  0
 10 26  1  0
 15 27  1  0
 16 28  1  0
 16 29  1  0
 17 30  1  0
 17 31  1  0
A    1
 C1 
A    2
 N1 
A    3
 C2 
A    4
 C3 
A    5
 N2 
A    6
 C4 
A    7
 O1 
A    8
 C5 
A    9
 C6 
A   10
 C7 
A   11
 C8 
A   12
 F1 
A   13
 C9 
A   14
 I1 
A   15
 C10
A   16
 C11
A   17
 C12
A   18
 H1 
A   19
 H2 
A   20
 H3 
A   21
 H4 
A   22
 H5 
A   23
 H6 
A   24
 H7 
A   25
 H8 
A   26
 H9 
A   27
 H10
A   28
 H11
A   29
 H12
A   30
 H13
A   31
 H14
M  END
>  <ref_pdb>  (41) 
x0051_0B

>  <ref_mols>  (41) 
x0051_0B

>  <original SMILES>  (41) 
[H]c1c([H])c(C(=O)N2C([H])([H])C([H])([H])N(C([H])([H])[H])C([H])([H])C2([H])[H])c([H])c(I)c1F

>  <index>  (41) 
1042.0

>  <∆∆G>  (41) 
-5.631449

>  <comRMSD>  (41) 
0.393257

>  <N_constrained_atoms>  (41) 
16.0

>  <N_unconstrained_atoms>  (41) 
1.0

>  <LE>  (41) 
0.331262

>  <percent_hybrid>  (41) 
38.0

>  <largest_ring>  (41) 
6.0

>  <N_HA>  (41) 
17.0

>  <N_rotatable_bonds>  (41) 
2.0

>  <max_hit_Tanimoto>  (41) 
0.227642

>  <N_interactions_kept>  (41) 
0.0

>  <N_interactions_lost>  (41) 
2.5

>  <interaction_uniqueness_metric>  (41) 
0.476394

>  <N_interactions>  (41) 
6.0

>  <N_PAINS>  (41) 
0.0

>  <UFF_Gibbs>  (41) 
39.973766

>  <strain_per_HA>  (41) 
2.351384

>  <ad_hoc_penalty>  (41) 
-28.349862

>  <cluster>  (41) 
18.0

>  <intxn_cluster>  (41) 
19.0

>  <keep>  (41) 
1.0

>  <hydroph_interaction:GLN:74>  (41) 
0.0

>  <hydroph_interaction:THR:118>  (41) 
0.0

>  <hydroph_interaction:ILE:123>  (41) 
0.0

>  <hydroph_interaction:THR:166>  (41) 
0.0

>  <hbond:GLN:167>  (41) 
0.0

>  <hydroph_interaction:ALA:88>  (41) 
0.0

>  <hydroph_interaction:ASP:120>  (41) 
0.0

>  <hydroph_interaction:GLN:167>  (41) 
0.0

>  <hbond:THR:118>  (41) 
0.0

>  <hydroph_interaction:ALA:164>  (41) 
0.0

>  <hbond:ASP:120>  (41) 
0.0

>  <hbond:THR:166>  (41) 
0.0

>  <hydroph_interaction:LEU:76>  (41) 
0.0

>  <hbond:ILE:165>  (41) 
0.0

>  <halogenbond:GLN:74>  (41) 
1.0

>  <hbond:GLN:74>  (41) 
0.0

>  <hbond:LYS:73>  (41) 
0.0

>  <pistack:TRP:69>  (41) 
2.0

>  <hbond:TRP:83>  (41) 
1.0

>  <hydroph_interaction:TRP:83>  (41) 
1.0

>  <hydroph_interaction:TRP:69>  (41) 
0.0

>  <pication:TRP:69>  (41) 
0.0

>  <hydroph_interaction:PRO:82>  (41) 
0.0

>  <halogenbond:LYS:73>  (41) 
0.0

>  <hydroph_interaction:TYR:68>  (41) 
0.0

>  <halogenbond:GLN:167>  (41) 
1.0

>  <hydroph_interaction:PHE:116>  (41) 
0.0

>  <hbond:TYR:68>  (41) 
0.0

>  <hbond:ASP:122>  (41) 
0.0

>  <pistack:PHE:116>  (41) 
0.0

>  <hydroph_interaction:VAL:154>  (41) 
0.0

>  <hydroph_interaction:ASP:75>  (41) 
0.0

>  <hbond:GLY:121>  (41) 
0.0

>  <hydroph_interaction:ASN:152>  (41) 
0.0

>  <halogenbond:ILE:165>  (41) 
0.0

$$$$
PV-006514857544-Z1318055457S2-x0806
     RDKit          3D

 51 54  0  0  0  0  0  0  0  0999 V2000
  -11.6980   -4.9460  -10.4310 C   0  0  0  0  0  0  0  0  0  0  0  0
  -12.5870   -5.9460   -9.7080 C   0  0  0  0  0  0  0  0  0  0  0  0
  -12.6310   -5.8060   -8.2700 C   0  0  0  0  0  0  0  0  0  0  0  0
  -13.3640   -6.6480   -7.5060 C   0  0  0  0  0  0  0  0  0  0  0  0
  -14.0900   -7.6780   -8.1090 C   0  0  0  0  0  0  0  0  0  0  0  0
  -14.7290   -8.4670   -7.1720 C   0  0  0  0  0  0  0  0  0  0  0  0
  -15.9370   -8.5260   -7.0190 O   0  0  0  0  0  0  0  0  0  0  0  0
  -13.6700   -9.1630   -6.4460 N   0  0  0  0  0  0  0  0  0  0  0  0
  -13.3610  -10.4600   -7.0340 C   0  0  0  0  0  0  0  0  0  0  0  0
  -12.1620  -10.6010   -7.7720 C   0  0  0  0  0  0  0  0  0  0  0  0
  -11.8770  -12.0080   -8.1670 C   0  0  0  0  0  0  0  0  0  0  0  0
  -10.6820  -12.3800   -8.9330 C   0  0  0  0  0  0  0  0  0  0  0  0
   -9.8450  -11.3390   -9.2550 C   0  0  0  0  0  0  0  0  0  0  0  0
  -10.0620   -9.9980   -8.9150 C   0  0  0  0  0  0  0  0  0  0  0  0
   -9.1240   -9.0590   -9.3160 C   0  0  0  0  0  0  0  0  0  0  0  0
   -9.2530   -7.7160   -9.0350 C   0  0  0  0  0  0  0  0  0  0  0  0
  -10.3600   -7.2950   -8.3220 C   0  0  0  0  0  0  0  0  0  0  0  0
  -11.3290   -8.2130   -7.8920 C   0  0  0  0  0  0  0  0  0  0  0  0
  -11.2110   -9.5810   -8.1750 C   0  0  0  0  0  0  0  0  0  0  0  0
  -14.1030   -7.8580   -9.5190 C   0  0  0  0  0  0  0  0  0  0  0  0
  -14.7710   -8.8650  -10.3030 N   0  0  0  0  0  0  0  0  0  0  0  0
  -15.3100  -10.0810   -9.9660 C   0  0  0  0  0  0  0  0  0  0  0  0
  -15.7960  -10.6240  -11.1400 C   0  0  0  0  0  0  0  0  0  0  0  0
  -16.4800  -11.9250  -11.3930 C   0  0  0  0  0  0  0  0  0  0  0  0
  -16.9500  -12.0980  -12.8310 C   0  0  0  0  0  0  0  0  0  0  0  0
  -15.6210  -13.0270  -11.0680 O   0  0  0  0  0  0  0  0  0  0  0  0
  -15.5570   -9.7520  -12.1600 N   0  0  0  0  0  0  0  0  0  0  0  0
  -14.9410   -8.6910  -11.6520 N   0  0  0  0  0  0  0  0  0  0  0  0
  -13.3540   -6.9720  -10.2750 C   0  0  0  0  0  0  0  0  0  0  0  0
  -11.9350   -3.9170  -10.1340 H   0  0  0  0  0  0  0  0  0  0  0  0
  -11.7950   -5.0340  -11.5120 H   0  0  0  0  0  0  0  0  0  0  0  0
  -10.6480   -5.1110  -10.1700 H   0  0  0  0  0  0  0  0  0  0  0  0
  -12.0670   -5.0200   -7.7770 H   0  0  0  0  0  0  0  0  0  0  0  0
  -13.3820   -6.5350   -6.4250 H   0  0  0  0  0  0  0  0  0  0  0  0
  -13.6060   -9.0680   -5.4400 H   0  0  0  0  0  0  0  0  0  0  0  0
  -13.2920  -11.1480   -6.1820 H   0  0  0  0  0  0  0  0  0  0  0  0
  -14.2720  -10.7760   -7.5350 H   0  0  0  0  0  0  0  0  0  0  0  0
  -12.6330  -12.7280   -7.8360 H   0  0  0  0  0  0  0  0  0  0  0  0
  -10.4990  -13.4180   -9.2080 H   0  0  0  0  0  0  0  0  0  0  0  0
   -8.9380  -11.5760   -9.8250 H   0  0  0  0  0  0  0  0  0  0  0  0
   -8.2610   -9.3870   -9.8670 H   0  0  0  0  0  0  0  0  0  0  0  0
   -8.5110   -6.9890   -9.3580 H   0  0  0  0  0  0  0  0  0  0  0  0
  -10.4730   -6.2430   -8.0920 H   0  0  0  0  0  0  0  0  0  0  0  0
  -12.1720   -7.8340   -7.3340 H   0  0  0  0  0  0  0  0  0  0  0  0
  -15.3210  -10.4830   -8.9660 H   0  0  0  0  0  0  0  0  0  0  0  0
  -17.3580  -12.0030  -10.7380 H   0  0  0  0  0  0  0  0  0  0  0  0
  -17.3100  -13.1130  -13.0250 H   0  0  0  0  0  0  0  0  0  0  0  0
  -16.1410  -11.8730  -13.5330 H   0  0  0  0  0  0  0  0  0  0  0  0
  -17.7570  -11.3910  -13.0600 H   0  0  0  0  0  0  0  0  0  0  0  0
  -14.8370  -12.9490  -11.6420 H   0  0  0  0  0  0  0  0  0  0  0  0
  -13.3610   -7.0970  -11.3390 H   0  0  0  0  0  0  0  0  0  0  0  0
  1  2  1  0
  2  3  2  0
  3  4  1  0
  4  5  2  0
  5  6  1  0
  6  7  2  0
  6  8  1  0
  8  9  1  0
  9 10  1  0
 10 11  2  0
 11 12  1  0
 12 13  2  0
 13 14  1  0
 14 15  2  0
 15 16  1  0
 16 17  2  0
 17 18  1  0
 18 19  2  0
  5 20  1  0
 20 21  1  0
 21 22  1  0
 22 23  2  0
 23 24  1  0
 24 25  1  0
 24 26  1  0
 23 27  1  0
 27 28  2  0
 20 29  2  0
 29  2  1  0
 19 10  1  0
 19 14  1  0
 28 21  1  0
  1 30  1  0
  1 31  1  0
  1 32  1  0
  3 33  1  0
  4 34  1  0
  8 35  1  0
  9 36  1  0
  9 37  1  0
 11 38  1  0
 12 39  1  0
 13 40  1  0
 15 41  1  0
 16 42  1  0
 17 43  1  0
 18 44  1  0
 22 45  1  0
 24 46  1  0
 25 47  1  0
 25 48  1  0
 25 49  1  0
 26 50  1  0
 29 51  1  0
A    1
 C1 
A    2
 C2 
A    3
 C3 
A    4
 C4 
A    5
 C5 
A    6
 C6 
A    7
 O1 
A    8
 N1 
A    9
 C7 
A   10
 C8 
A   11
 C9 
A   12
 C10
A   13
 C11
A   14
 C12
A   15
 C13
A   16
 C14
A   17
 C15
A   18
 C16
A   19
 C17
A   20
 C18
A   21
 N2 
A   22
 C19
A   23
 C20
A   24
 C21
A   25
 C22
A   26
 O2 
A   27
 N3 
A   28
 N4 
A   29
 C23
A   30
 H1 
A   31
 H2 
A   32
 H3 
A   33
 H4 
A   34
 H5 
A   35
 H6 
A   36
 H7 
A   37
 H8 
A   38
 H9 
A   39
 H10
A   40
 H11
A   41
 H12
A   42
 H13
A   43
 H14
A   44
 H15
A   45
 H16
A   46
 H17
A   47
 H18
A   48
 H19
A   49
 H20
A   50
 H21
A   51
 H22
M  END
>  <ref_pdb>  (42) 
x0051_0B

>  <ref_mols>  (42) 
x0051_0B

>  <original SMILES>  (42) 
[H]OC([H])(c1nnn(-c2c([H])c(C([H])([H])[H])c([H])c([H])c2C(=O)N([H])C([H])([H])c2c([H])c([H])c([H])c3c([H])c([H])c([H])c([H])c23)c1[H])C([H])([H])[H]

>  <index>  (42) 
425.0

>  <∆∆G>  (42) 
-6.805639

>  <comRMSD>  (42) 
0.590281

>  <N_constrained_atoms>  (42) 
25.0

>  <N_unconstrained_atoms>  (42) 
4.0

>  <LE>  (42) 
0.234677

>  <percent_hybrid>  (42) 
44.0

>  <largest_ring>  (42) 
6.0

>  <N_HA>  (42) 
29.0

>  <N_rotatable_bonds>  (42) 
8.0

>  <max_hit_Tanimoto>  (42) 
0.404564

>  <N_interactions_kept>  (42) 
0.5

>  <N_interactions_lost>  (42) 
2.5

>  <interaction_uniqueness_metric>  (42) 
0.173679

>  <N_interactions>  (42) 
10.0

>  <N_PAINS>  (42) 
0.0

>  <UFF_Gibbs>  (42) 
389.884342

>  <strain_per_HA>  (42) 
13.444241

>  <ad_hoc_penalty>  (42) 
-28.295069

>  <cluster>  (42) 
28.0

>  <intxn_cluster>  (42) 
14.0

>  <keep>  (42) 
1.0

>  <hydroph_interaction:GLN:74>  (42) 
0.0

>  <hydroph_interaction:THR:118>  (42) 
1.0

>  <hydroph_interaction:ILE:123>  (42) 
4.0

>  <hydroph_interaction:THR:166>  (42) 
1.0

>  <hbond:GLN:167>  (42) 
2.0

>  <hydroph_interaction:ALA:88>  (42) 
1.0

>  <hydroph_interaction:ASP:120>  (42) 
0.0

>  <hydroph_interaction:GLN:167>  (42) 
0.0

>  <hbond:THR:118>  (42) 
0.0

>  <hydroph_interaction:ALA:164>  (42) 
1.0

>  <hbond:ASP:120>  (42) 
0.0

>  <hbond:THR:166>  (42) 
0.0

>  <hydroph_interaction:LEU:76>  (42) 
0.0

>  <hbond:ILE:165>  (42) 
0.0

>  <halogenbond:GLN:74>  (42) 
0.0

>  <hbond:GLN:74>  (42) 
0.0

>  <hbond:LYS:73>  (42) 
0.0

>  <pistack:TRP:69>  (42) 
0.0

>  <hbond:TRP:83>  (42) 
0.0

>  <hydroph_interaction:TRP:83>  (42) 
0.0

>  <hydroph_interaction:TRP:69>  (42) 
0.0

>  <pication:TRP:69>  (42) 
0.0

>  <hydroph_interaction:PRO:82>  (42) 
0.0

>  <halogenbond:LYS:73>  (42) 
0.0

>  <hydroph_interaction:TYR:68>  (42) 
0.0

>  <halogenbond:GLN:167>  (42) 
0.0

>  <hydroph_interaction:PHE:116>  (42) 
0.0

>  <hbond:TYR:68>  (42) 
0.0

>  <hbond:ASP:122>  (42) 
0.0

>  <pistack:PHE:116>  (42) 
0.0

>  <hydroph_interaction:VAL:154>  (42) 
0.0

>  <hydroph_interaction:ASP:75>  (42) 
0.0

>  <hbond:GLY:121>  (42) 
0.0

>  <hydroph_interaction:ASN:152>  (42) 
0.0

>  <halogenbond:ILE:165>  (42) 
0.0

$$$$
Z2369524023-x0944S4-x0130S2
     RDKit          3D

 35 36  0  0  0  0  0  0  0  0999 V2000
  -26.3470   -4.5590   -3.8590 C   0  0  0  0  0  0  0  0  0  0  0  0
  -26.2450   -5.9280   -3.3480 C   0  0  0  0  0  0  0  0  0  0  0  0
  -25.4910   -6.6670   -4.4470 C   0  0  0  0  0  0  0  0  0  0  0  0
  -26.1420   -7.6140   -5.1790 C   0  0  0  0  0  0  0  0  0  0  0  0
  -25.5130   -8.4110   -6.2990 C   0  0  0  0  0  0  0  0  0  0  0  0
  -24.0760   -8.0580   -6.5420 C   0  0  0  0  0  0  0  0  0  0  0  0
  -23.4010   -8.6930   -7.5060 F   0  0  0  0  0  0  0  0  0  0  0  0
  -23.4560   -7.0790   -5.7700 C   0  0  0  0  0  0  0  0  0  0  0  0
  -22.1740   -6.7750   -6.0070 F   0  0  0  0  0  0  0  0  0  0  0  0
  -24.1440   -6.4040   -4.7490 C   0  0  0  0  0  0  0  0  0  0  0  0
  -25.7110   -5.9160   -2.0320 N   0  0  0  0  0  0  0  0  0  0  0  0
  -25.6840   -7.2450   -1.4160 C   0  0  0  0  0  0  0  0  0  0  0  0
  -26.4040   -7.3040   -0.2100 C   0  0  0  0  0  0  0  0  0  0  0  0
  -27.8350   -6.9660   -0.3390 N   0  0  0  0  0  0  0  0  0  0  0  0
  -27.9620   -5.6250   -0.9400 C   0  0  1  0  0  0  0  0  0  0  0  0
  -28.7020   -4.7950   -0.1040 C   0  0  0  0  0  0  0  0  0  0  0  0
  -26.5720   -5.0210   -1.2080 C   0  0  0  0  0  0  0  0  0  0  0  0
  -25.4410   -4.2420   -4.3730 H   0  0  0  0  0  0  0  0  0  0  0  0
  -27.1160   -4.5740   -4.5590 H   0  0  0  0  0  0  0  0  0  0  0  0
  -26.6130   -3.8530   -3.0760 H   0  0  0  0  0  0  0  0  0  0  0  0
  -27.2480   -6.3620   -3.2840 H   0  0  0  0  0  0  0  0  0  0  0  0
  -27.1860   -7.8110   -4.9440 H   0  0  0  0  0  0  0  0  0  0  0  0
  -26.0420   -9.1650   -6.8750 H   0  0  0  0  0  0  0  0  0  0  0  0
  -23.6080   -5.6720   -4.1930 H   0  0  0  0  0  0  0  0  0  0  0  0
  -24.6490   -7.5580   -1.2340 H   0  0  0  0  0  0  0  0  0  0  0  0
  -26.1440   -7.9780   -2.0860 H   0  0  0  0  0  0  0  0  0  0  0  0
  -26.3090   -8.3080    0.2200 H   0  0  0  0  0  0  0  0  0  0  0  0
  -25.9450   -6.6170    0.5130 H   0  0  0  0  0  0  0  0  0  0  0  0
  -28.2680   -7.6430   -0.9670 H   0  0  0  0  0  0  0  0  0  0  0  0
  -28.4990   -5.7130   -1.8790 H   0  0  0  0  0  0  0  0  0  0  0  0
  -29.7450   -4.7330   -0.4390 H   0  0  0  0  0  0  0  0  0  0  0  0
  -28.7010   -5.1550    0.9300 H   0  0  0  0  0  0  0  0  0  0  0  0
  -28.2940   -3.7780   -0.1060 H   0  0  0  0  0  0  0  0  0  0  0  0
  -26.1080   -4.8310   -0.2360 H   0  0  0  0  0  0  0  0  0  0  0  0
  -26.7070   -4.0640   -1.6990 H   0  0  0  0  0  0  0  0  0  0  0  0
  1  2  1  0
  2  3  1  0
  3  4  2  0
  4  5  1  0
  5  6  2  0
  6  7  1  0
  6  8  1  0
  8  9  1  0
  8 10  2  0
  2 11  1  0
 11 12  1  0
 12 13  1  0
 13 14  1  0
 14 15  1  0
 15 16  1  0
 15 17  1  0
 10  3  1  0
 17 11  1  0
  1 18  1  0
  1 19  1  0
  1 20  1  0
  2 21  1  0
  4 22  1  0
  5 23  1  0
 10 24  1  0
 12 25  1  0
 12 26  1  0
 13 27  1  0
 13 28  1  0
 14 29  1  0
 15 30  1  6
 16 31  1  0
 16 32  1  0
 16 33  1  0
 17 34  1  0
 17 35  1  0
A    1
 C1 
A    2
 C2 
A    3
 C3 
A    4
 C4 
A    5
 C5 
A    6
 C6 
A    7
 F1 
A    8
 C7 
A    9
 F2 
A   10
 C8 
A   11
 N1 
A   12
 C9 
A   13
 C10
A   14
 N2 
A   15
 C11
A   16
 C12
A   17
 C13
A   18
 H1 
A   19
 H2 
A   20
 H3 
A   21
 H4 
A   22
 H5 
A   23
 H6 
A   24
 H7 
A   25
 H8 
A   26
 H9 
A   27
 H10
A   28
 H11
A   29
 H12
A   30
 H13
A   31
 H14
A   32
 H15
A   33
 H16
A   34
 H17
A   35
 H18
M  END
>  <ref_pdb>  (43) 
x0051_0B

>  <ref_mols>  (43) 
x0051_0B

>  <original SMILES>  (43) 
[H]c1c([H])c(C([H])(N2C([H])([H])C([H])([H])N([H])[C@@]([H])(C([H])([H])[H])C2([H])[H])C([H])([H])[H])c([H])c(F)c1F

>  <index>  (43) 
4822.0

>  <∆∆G>  (43) 
-3.12692

>  <comRMSD>  (43) 
0.482266

>  <N_constrained_atoms>  (43) 
16.0

>  <N_unconstrained_atoms>  (43) 
1.0

>  <LE>  (43) 
0.183936

>  <percent_hybrid>  (43) 
43.0

>  <largest_ring>  (43) 
6.0

>  <N_HA>  (43) 
17.0

>  <N_rotatable_bonds>  (43) 
4.0

>  <max_hit_Tanimoto>  (43) 
0.264583

>  <N_interactions_kept>  (43) 
3.0

>  <N_interactions_lost>  (43) 
0.5

>  <interaction_uniqueness_metric>  (43) 
0.37234

>  <N_interactions>  (43) 
5.0

>  <N_PAINS>  (43) 
0.0

>  <UFF_Gibbs>  (43) 
345.886032

>  <strain_per_HA>  (43) 
20.346117

>  <ad_hoc_penalty>  (43) 
-27.792135

>  <cluster>  (43) 
1254.0

>  <intxn_cluster>  (43) 
0.0

>  <keep>  (43) 
1.0

>  <hydroph_interaction:GLN:74>  (43) 
0.0

>  <hydroph_interaction:THR:118>  (43) 
0.0

>  <hydroph_interaction:ILE:123>  (43) 
0.0

>  <hydroph_interaction:THR:166>  (43) 
0.0

>  <hbond:GLN:167>  (43) 
0.0

>  <hydroph_interaction:ALA:88>  (43) 
0.0

>  <hydroph_interaction:ASP:120>  (43) 
0.0

>  <hydroph_interaction:GLN:167>  (43) 
0.0

>  <hbond:THR:118>  (43) 
0.0

>  <hydroph_interaction:ALA:164>  (43) 
0.0

>  <hbond:ASP:120>  (43) 
0.0

>  <hbond:THR:166>  (43) 
0.0

>  <hydroph_interaction:LEU:76>  (43) 
0.0

>  <hbond:ILE:165>  (43) 
0.0

>  <halogenbond:GLN:74>  (43) 
0.0

>  <hbond:GLN:74>  (43) 
0.0

>  <hbond:LYS:73>  (43) 
0.0

>  <pistack:TRP:69>  (43) 
0.0

>  <hbond:TRP:83>  (43) 
0.0

>  <hydroph_interaction:TRP:83>  (43) 
1.0

>  <hydroph_interaction:TRP:69>  (43) 
2.0

>  <pication:TRP:69>  (43) 
0.0

>  <hydroph_interaction:PRO:82>  (43) 
1.0

>  <halogenbond:LYS:73>  (43) 
0.0

>  <hydroph_interaction:TYR:68>  (43) 
1.0

>  <halogenbond:GLN:167>  (43) 
0.0

>  <hydroph_interaction:PHE:116>  (43) 
0.0

>  <hbond:TYR:68>  (43) 
0.0

>  <hbond:ASP:122>  (43) 
0.0

>  <pistack:PHE:116>  (43) 
0.0

>  <hydroph_interaction:VAL:154>  (43) 
0.0

>  <hydroph_interaction:ASP:75>  (43) 
0.0

>  <hbond:GLY:121>  (43) 
0.0

>  <hydroph_interaction:ASN:152>  (43) 
0.0

>  <halogenbond:ILE:165>  (43) 
0.0

$$$$
Z735192510-Z198195906S1-Z1318054286
     RDKit          3D

 36 37  0  0  0  0  0  0  0  0999 V2000
   -9.4850   -3.4530  -10.5310 C   0  0  0  0  0  0  0  0  0  0  0  0
   -8.6990   -4.5270  -10.5320 C   0  0  0  0  0  0  0  0  0  0  0  0
   -7.1990   -4.5150  -10.6530 C   0  0  0  0  0  0  0  0  0  0  0  0
   -6.3490   -5.7840  -10.6460 C   0  0  0  0  0  0  0  0  0  0  0  0
   -7.0440   -7.1340  -10.5130 C   0  0  0  0  0  0  0  0  0  0  0  0
   -8.4450   -7.0880  -10.4080 C   0  0  0  0  0  0  0  0  0  0  0  0
   -9.2980   -5.8000  -10.4100 C   0  0  0  0  0  0  0  0  0  0  0  0
  -10.7180   -5.8340  -10.2890 N   0  0  0  0  0  0  0  0  0  0  0  0
  -11.1290   -6.9100   -9.3720 C   0  0  0  0  0  0  0  0  0  0  0  0
  -10.1340   -8.0110   -8.6270 S   0  0  0  0  0  0  0  0  0  0  0  0
  -12.4800   -7.0490   -9.0780 N   0  0  0  0  0  0  0  0  0  0  0  0
  -13.2780   -8.2850   -8.9780 C   0  0  0  0  0  0  0  0  0  0  0  0
  -14.2410   -8.3940   -7.7700 C   0  0  0  0  0  0  0  0  0  0  0  0
  -15.7100   -8.3240   -8.1910 C   0  0  0  0  0  0  0  0  0  0  0  0
  -16.4620   -9.5040   -7.8430 O   0  0  0  0  0  0  0  0  0  0  0  0
  -16.3330   -9.8160   -6.4610 C   0  0  0  0  0  0  0  0  0  0  0  0
  -14.8720   -9.7130   -6.0450 C   0  0  0  0  0  0  0  0  0  0  0  0
  -14.0000   -9.4510   -7.1670 O   0  0  0  0  0  0  0  0  0  0  0  0
   -9.4860   -2.8430   -9.6350 H   0  0  0  0  0  0  0  0  0  0  0  0
  -10.4950   -3.6260  -10.8860 H   0  0  0  0  0  0  0  0  0  0  0  0
   -9.0610   -2.7970  -11.2880 H   0  0  0  0  0  0  0  0  0  0  0  0
   -6.6770   -3.5510  -10.7510 H   0  0  0  0  0  0  0  0  0  0  0  0
   -5.2570   -5.7360  -10.7360 H   0  0  0  0  0  0  0  0  0  0  0  0
   -6.4900   -8.0670  -10.5030 H   0  0  0  0  0  0  0  0  0  0  0  0
   -8.9690   -8.0300  -10.3170 H   0  0  0  0  0  0  0  0  0  0  0  0
  -11.1390   -4.9460  -10.0550 H   0  0  0  0  0  0  0  0  0  0  0  0
  -12.9270   -6.2020   -8.7320 H   0  0  0  0  0  0  0  0  0  0  0  0
  -13.8420   -8.4230   -9.9030 H   0  0  0  0  0  0  0  0  0  0  0  0
  -12.5440   -9.0950   -8.9210 H   0  0  0  0  0  0  0  0  0  0  0  0
  -14.0230   -7.5740   -7.0740 H   0  0  0  0  0  0  0  0  0  0  0  0
  -15.7860   -8.2140   -9.2780 H   0  0  0  0  0  0  0  0  0  0  0  0
  -16.2100   -7.4670   -7.7260 H   0  0  0  0  0  0  0  0  0  0  0  0
  -16.7150  -10.8300   -6.3060 H   0  0  0  0  0  0  0  0  0  0  0  0
  -16.9580   -9.1170   -5.8950 H   0  0  0  0  0  0  0  0  0  0  0  0
  -14.7340   -8.9050   -5.3190 H   0  0  0  0  0  0  0  0  0  0  0  0
  -14.5350  -10.6460   -5.5800 H   0  0  0  0  0  0  0  0  0  0  0  0
  1  2  1  0
  2  3  2  0
  3  4  1  0
  4  5  2  0
  5  6  1  0
  6  7  2  0
  7  8  1  0
  8  9  1  0
  9 10  2  0
  9 11  1  0
 11 12  1  0
 12 13  1  0
 13 14  1  0
 14 15  1  0
 15 16  1  0
 16 17  1  0
 17 18  1  0
  7  2  1  0
 18 13  1  0
  1 19  1  0
  1 20  1  0
  1 21  1  0
  3 22  1  0
  4 23  1  0
  5 24  1  0
  6 25  1  0
  8 26  1  0
 11 27  1  0
 12 28  1  0
 12 29  1  0
 13 30  1  0
 14 31  1  0
 14 32  1  0
 16 33  1  0
 16 34  1  0
 17 35  1  0
 17 36  1  0
A    1
 C1 
A    2
 C2 
A    3
 C3 
A    4
 C4 
A    5
 C5 
A    6
 C6 
A    7
 C7 
A    8
 N1 
A    9
 C8 
A   10
 S1 
A   11
 N2 
A   12
 C9 
A   13
 C10
A   14
 C11
A   15
 O1 
A   16
 C12
A   17
 C13
A   18
 O2 
A   19
 H1 
A   20
 H2 
A   21
 H3 
A   22
 H4 
A   23
 H5 
A   24
 H6 
A   25
 H7 
A   26
 H8 
A   27
 H9 
A   28
 H10
A   29
 H11
A   30
 H12
A   31
 H13
A   32
 H14
A   33
 H15
A   34
 H16
A   35
 H17
A   36
 H18
M  END
>  <ref_pdb>  (44) 
x0051_0B

>  <ref_mols>  (44) 
x0051_0B

>  <original SMILES>  (44) 
[H]c1c([H])c([H])c(C([H])([H])[H])c(N([H])C(=S)N([H])C([H])([H])C2([H])OC([H])([H])C([H])([H])OC2([H])[H])c1[H]

>  <index>  (44) 
5692.0

>  <∆∆G>  (44) 
-6.718145

>  <comRMSD>  (44) 
0.881658

>  <N_constrained_atoms>  (44) 
13.0

>  <N_unconstrained_atoms>  (44) 
7.0

>  <LE>  (44) 
0.335907

>  <percent_hybrid>  (44) 
25.0

>  <largest_ring>  (44) 
6.0

>  <N_HA>  (44) 
18.0

>  <N_rotatable_bonds>  (44) 
4.0

>  <max_hit_Tanimoto>  (44) 
0.198496

>  <N_interactions_kept>  (44) 
0.5

>  <N_interactions_lost>  (44) 
0.5

>  <interaction_uniqueness_metric>  (44) 
0.238212

>  <N_interactions>  (44) 
4.0

>  <N_PAINS>  (44) 
0.0

>  <UFF_Gibbs>  (44) 
203.544204

>  <strain_per_HA>  (44) 
11.307949

>  <ad_hoc_penalty>  (44) 
-27.217175

>  <cluster>  (44) 
173.0

>  <intxn_cluster>  (44) 
7.0

>  <keep>  (44) 
1.0

>  <hydroph_interaction:GLN:74>  (44) 
0.0

>  <hydroph_interaction:THR:118>  (44) 
1.0

>  <hydroph_interaction:ILE:123>  (44) 
0.0

>  <hydroph_interaction:THR:166>  (44) 
0.0

>  <hbond:GLN:167>  (44) 
0.0

>  <hydroph_interaction:ALA:88>  (44) 
0.0

>  <hydroph_interaction:ASP:120>  (44) 
0.0

>  <hydroph_interaction:GLN:167>  (44) 
0.0

>  <hbond:THR:118>  (44) 
0.0

>  <hydroph_interaction:ALA:164>  (44) 
1.0

>  <hbond:ASP:120>  (44) 
0.0

>  <hbond:THR:166>  (44) 
1.0

>  <hydroph_interaction:LEU:76>  (44) 
0.0

>  <hbond:ILE:165>  (44) 
0.0

>  <halogenbond:GLN:74>  (44) 
0.0

>  <hbond:GLN:74>  (44) 
0.0

>  <hbond:LYS:73>  (44) 
0.0

>  <pistack:TRP:69>  (44) 
0.0

>  <hbond:TRP:83>  (44) 
0.0

>  <hydroph_interaction:TRP:83>  (44) 
0.0

>  <hydroph_interaction:TRP:69>  (44) 
0.0

>  <pication:TRP:69>  (44) 
0.0

>  <hydroph_interaction:PRO:82>  (44) 
0.0

>  <halogenbond:LYS:73>  (44) 
0.0

>  <hydroph_interaction:TYR:68>  (44) 
0.0

>  <halogenbond:GLN:167>  (44) 
0.0

>  <hydroph_interaction:PHE:116>  (44) 
1.0

>  <hbond:TYR:68>  (44) 
0.0

>  <hbond:ASP:122>  (44) 
0.0

>  <pistack:PHE:116>  (44) 
0.0

>  <hydroph_interaction:VAL:154>  (44) 
0.0

>  <hydroph_interaction:ASP:75>  (44) 
0.0

>  <hbond:GLY:121>  (44) 
0.0

>  <hydroph_interaction:ASN:152>  (44) 
0.0

>  <halogenbond:ILE:165>  (44) 
0.0

$$$$
PV-002987901093-x0214S3-Z198195906S11
     RDKit          3D

 20 21  0  0  0  0  0  0  0  0999 V2000
  -10.7440  -12.2750   -8.1520 C   0  0  0  0  0  0  0  0  0  0  0  0
   -9.9640  -11.3560   -8.8340 C   0  0  0  0  0  0  0  0  0  0  0  0
  -10.4330  -10.0530   -9.0250 C   0  0  0  0  0  0  0  0  0  0  0  0
  -11.6950   -9.6480   -8.5460 C   0  0  0  0  0  0  0  0  0  0  0  0
  -12.2120   -8.2890   -8.7850 C   0  0  0  0  0  0  0  0  0  0  0  0
  -11.8430   -7.1270   -8.1010 C   0  0  0  0  0  0  0  0  0  0  0  0
  -12.4140   -5.9210   -8.4790 C   0  0  0  0  0  0  0  0  0  0  0  0
  -13.3110   -5.8220   -9.4750 N   0  0  0  0  0  0  0  0  0  0  0  0
  -13.6870   -6.9400  -10.1370 N   0  0  0  0  0  0  0  0  0  0  0  0
  -13.1530   -8.1220   -9.7960 C   0  0  0  0  0  0  0  0  0  0  0  0
  -12.4570  -10.5940   -7.8540 C   0  0  0  0  0  0  0  0  0  0  0  0
  -11.9870  -11.8970   -7.6570 C   0  0  0  0  0  0  0  0  0  0  0  0
  -10.3810  -13.2890   -8.0030 H   0  0  0  0  0  0  0  0  0  0  0  0
   -8.9920  -11.6470   -9.2210 H   0  0  0  0  0  0  0  0  0  0  0  0
   -9.7990   -9.3530   -9.5660 H   0  0  0  0  0  0  0  0  0  0  0  0
  -11.1200   -7.1490   -7.2910 H   0  0  0  0  0  0  0  0  0  0  0  0
  -12.1650   -4.9860   -7.9900 H   0  0  0  0  0  0  0  0  0  0  0  0
  -13.5120   -8.9600  -10.3880 H   0  0  0  0  0  0  0  0  0  0  0  0
  -13.4380  -10.3320   -7.4620 H   0  0  0  0  0  0  0  0  0  0  0  0
  -12.5990  -12.6190   -7.1190 H   0  0  0  0  0  0  0  0  0  0  0  0
  1  2  2  0
  2  3  1  0
  3  4  2  0
  4  5  1  0
  5  6  2  0
  6  7  1  0
  7  8  2  0
  8  9  1  0
  9 10  2  0
  4 11  1  0
 11 12  2  0
 12  1  1  0
 10  5  1  0
  1 13  1  0
  2 14  1  0
  3 15  1  0
  6 16  1  0
  7 17  1  0
 10 18  1  0
 11 19  1  0
 12 20  1  0
A    1
 C1 
A    2
 C2 
A    3
 C3 
A    4
 C4 
A    5
 C5 
A    6
 C6 
A    7
 C7 
A    8
 N1 
A    9
 N2 
A   10
 C8 
A   11
 C9 
A   12
 C10
A   13
 H1 
A   14
 H2 
A   15
 H3 
A   16
 H4 
A   17
 H5 
A   18
 H6 
A   19
 H7 
A   20
 H8 
M  END
>  <ref_pdb>  (45) 
x0051_0B

>  <ref_mols>  (45) 
x0051_0B

>  <original SMILES>  (45) 
[H]c1nnc([H])c(-c2c([H])c([H])c([H])c([H])c2[H])c1[H]

>  <index>  (45) 
4115.0

>  <∆∆G>  (45) 
-3.665708

>  <comRMSD>  (45) 
0.737195

>  <N_constrained_atoms>  (45) 
12.0

>  <N_unconstrained_atoms>  (45) 
0.0

>  <LE>  (45) 
0.305476

>  <percent_hybrid>  (45) 
50.0

>  <largest_ring>  (45) 
6.0

>  <N_HA>  (45) 
12.0

>  <N_rotatable_bonds>  (45) 
1.0

>  <max_hit_Tanimoto>  (45) 
0.085

>  <N_interactions_kept>  (45) 
0.0

>  <N_interactions_lost>  (45) 
1.0

>  <interaction_uniqueness_metric>  (45) 
0.069891

>  <N_interactions>  (45) 
5.0

>  <N_PAINS>  (45) 
0.0

>  <UFF_Gibbs>  (45) 
9.623704

>  <strain_per_HA>  (45) 
0.801969

>  <ad_hoc_penalty>  (45) 
-26.879938

>  <cluster>  (45) 
4480.0

>  <intxn_cluster>  (45) 
4.0

>  <keep>  (45) 
1.0

>  <hydroph_interaction:GLN:74>  (45) 
0.0

>  <hydroph_interaction:THR:118>  (45) 
1.0

>  <hydroph_interaction:ILE:123>  (45) 
2.0

>  <hydroph_interaction:THR:166>  (45) 
0.0

>  <hbond:GLN:167>  (45) 
1.0

>  <hydroph_interaction:ALA:88>  (45) 
0.0

>  <hydroph_interaction:ASP:120>  (45) 
1.0

>  <hydroph_interaction:GLN:167>  (45) 
0.0

>  <hbond:THR:118>  (45) 
0.0

>  <hydroph_interaction:ALA:164>  (45) 
0.0

>  <hbond:ASP:120>  (45) 
0.0

>  <hbond:THR:166>  (45) 
0.0

>  <hydroph_interaction:LEU:76>  (45) 
0.0

>  <hbond:ILE:165>  (45) 
0.0

>  <halogenbond:GLN:74>  (45) 
0.0

>  <hbond:GLN:74>  (45) 
0.0

>  <hbond:LYS:73>  (45) 
0.0

>  <pistack:TRP:69>  (45) 
0.0

>  <hbond:TRP:83>  (45) 
0.0

>  <hydroph_interaction:TRP:83>  (45) 
0.0

>  <hydroph_interaction:TRP:69>  (45) 
0.0

>  <pication:TRP:69>  (45) 
0.0

>  <hydroph_interaction:PRO:82>  (45) 
0.0

>  <halogenbond:LYS:73>  (45) 
0.0

>  <hydroph_interaction:TYR:68>  (45) 
0.0

>  <halogenbond:GLN:167>  (45) 
0.0

>  <hydroph_interaction:PHE:116>  (45) 
0.0

>  <hbond:TYR:68>  (45) 
0.0

>  <hbond:ASP:122>  (45) 
0.0

>  <pistack:PHE:116>  (45) 
0.0

>  <hydroph_interaction:VAL:154>  (45) 
0.0

>  <hydroph_interaction:ASP:75>  (45) 
0.0

>  <hbond:GLY:121>  (45) 
0.0

>  <hydroph_interaction:ASN:152>  (45) 
0.0

>  <halogenbond:ILE:165>  (45) 
0.0

$$$$
Z3237536875-x0214S3-Z198195906S10
     RDKit          3D

 27 28  0  0  0  0  0  0  0  0999 V2000
   -9.8320  -12.6060   -9.9910 N   0  0  0  0  0  0  0  0  0  0  0  0
  -10.3980  -11.7870   -9.1000 C   0  0  0  0  0  0  0  0  0  0  0  0
  -11.5010  -12.1980   -8.3920 C   0  0  0  0  0  0  0  0  0  0  0  0
  -12.1750  -11.4310   -7.4390 C   0  0  0  0  0  0  0  0  0  0  0  0
  -11.7150  -10.1310   -7.1500 C   0  0  0  0  0  0  0  0  0  0  0  0
  -10.5920   -9.6340   -7.8240 C   0  0  0  0  0  0  0  0  0  0  0  0
  -10.1600   -8.2280   -7.4350 C   0  0  0  0  0  0  0  0  0  0  0  0
  -11.4800   -7.4540   -6.4490 S   0  0  0  0  0  0  0  0  0  0  0  0
  -12.5030   -7.3480   -7.8730 C   0  0  0  0  0  0  0  0  0  0  0  0
  -12.2760   -6.3100   -8.8340 C   0  0  0  0  0  0  0  0  0  0  0  0
  -12.9790   -6.1400   -9.9770 C   0  0  0  0  0  0  0  0  0  0  0  0
  -14.0210   -7.0220  -10.2680 N   0  0  0  0  0  0  0  0  0  0  0  0
  -14.2050   -7.9900   -9.3380 C   0  0  0  0  0  0  0  0  0  0  0  0
  -13.5200   -8.2220   -8.1520 C   0  0  0  0  0  0  0  0  0  0  0  0
   -9.9010  -10.5090   -8.8600 C   0  0  0  0  0  0  0  0  0  0  0  0
  -10.4500  -13.2610  -10.4550 H   0  0  0  0  0  0  0  0  0  0  0  0
   -8.9510  -13.0040   -9.6760 H   0  0  0  0  0  0  0  0  0  0  0  0
  -11.8990  -13.2030   -8.5740 H   0  0  0  0  0  0  0  0  0  0  0  0
  -13.0460  -11.8220   -6.9160 H   0  0  0  0  0  0  0  0  0  0  0  0
  -12.2260   -9.5230   -6.4090 H   0  0  0  0  0  0  0  0  0  0  0  0
   -9.2480   -8.1600   -6.8410 H   0  0  0  0  0  0  0  0  0  0  0  0
   -9.9680   -7.5750   -8.2810 H   0  0  0  0  0  0  0  0  0  0  0  0
  -11.4520   -5.6460   -8.5590 H   0  0  0  0  0  0  0  0  0  0  0  0
  -12.6640   -5.2940  -10.6020 H   0  0  0  0  0  0  0  0  0  0  0  0
  -15.0050   -8.7290   -9.4930 H   0  0  0  0  0  0  0  0  0  0  0  0
  -13.7850   -9.0500   -7.5030 H   0  0  0  0  0  0  0  0  0  0  0  0
   -9.0400  -10.1510   -9.3990 H   0  0  0  0  0  0  0  0  0  0  0  0
  1  2  1  0
  2  3  2  0
  3  4  1  0
  4  5  2  0
  5  6  1  0
  6  7  1  0
  7  8  1  0
  8  9  1  0
  9 10  2  0
 10 11  1  0
 11 12  2  0
 12 13  1  0
 13 14  2  0
  6 15  2  0
 15  2  1  0
 14  9  1  0
  1 16  1  0
  1 17  1  0
  3 18  1  0
  4 19  1  0
  5 20  1  0
  7 21  1  0
  7 22  1  0
 10 23  1  0
 11 24  1  0
 13 25  1  0
 14 26  1  0
 15 27  1  0
A    1
 N1 
A    2
 C1 
A    3
 C2 
A    4
 C3 
A    5
 C4 
A    6
 C5 
A    7
 C6 
A    8
 S1 
A    9
 C7 
A   10
 C8 
A   11
 C9 
A   12
 N2 
A   13
 C10
A   14
 C11
A   15
 C12
A   16
 H1 
A   17
 H2 
A   18
 H3 
A   19
 H4 
A   20
 H5 
A   21
 H6 
A   22
 H7 
A   23
 H8 
A   24
 H9 
A   25
 H10
A   26
 H11
A   27
 H12
M  END
>  <ref_pdb>  (46) 
x0051_0B

>  <ref_mols>  (46) 
x0051_0B

>  <original SMILES>  (46) 
[H]c1nc([H])c([H])c(SC([H])([H])c2c([H])c([H])c([H])c(N([H])[H])c2[H])c1[H]

>  <index>  (46) 
6200.0

>  <∆∆G>  (46) 
-2.826261

>  <comRMSD>  (46) 
0.653033

>  <N_constrained_atoms>  (46) 
13.0

>  <N_unconstrained_atoms>  (46) 
2.0

>  <LE>  (46) 
0.188417

>  <percent_hybrid>  (46) 
47.0

>  <largest_ring>  (46) 
6.0

>  <N_HA>  (46) 
15.0

>  <N_rotatable_bonds>  (46) 
4.0

>  <max_hit_Tanimoto>  (46) 
0.145669

>  <N_interactions_kept>  (46) 
0.0

>  <N_interactions_lost>  (46) 
1.0

>  <interaction_uniqueness_metric>  (46) 
0.179917

>  <N_interactions>  (46) 
7.0

>  <N_PAINS>  (46) 
0.0

>  <UFF_Gibbs>  (46) 
86.885895

>  <strain_per_HA>  (46) 
5.792354

>  <ad_hoc_penalty>  (46) 
-26.82279

>  <cluster>  (46) 
3515.0

>  <intxn_cluster>  (46) 
4.0

>  <keep>  (46) 
1.0

>  <hydroph_interaction:GLN:74>  (46) 
0.0

>  <hydroph_interaction:THR:118>  (46) 
1.0

>  <hydroph_interaction:ILE:123>  (46) 
2.0

>  <hydroph_interaction:THR:166>  (46) 
0.0

>  <hbond:GLN:167>  (46) 
2.0

>  <hydroph_interaction:ALA:88>  (46) 
0.0

>  <hydroph_interaction:ASP:120>  (46) 
0.0

>  <hydroph_interaction:GLN:167>  (46) 
0.0

>  <hbond:THR:118>  (46) 
1.0

>  <hydroph_interaction:ALA:164>  (46) 
0.0

>  <hbond:ASP:120>  (46) 
0.0

>  <hbond:THR:166>  (46) 
0.0

>  <hydroph_interaction:LEU:76>  (46) 
0.0

>  <hbond:ILE:165>  (46) 
0.0

>  <halogenbond:GLN:74>  (46) 
0.0

>  <hbond:GLN:74>  (46) 
0.0

>  <hbond:LYS:73>  (46) 
0.0

>  <pistack:TRP:69>  (46) 
0.0

>  <hbond:TRP:83>  (46) 
0.0

>  <hydroph_interaction:TRP:83>  (46) 
0.0

>  <hydroph_interaction:TRP:69>  (46) 
0.0

>  <pication:TRP:69>  (46) 
0.0

>  <hydroph_interaction:PRO:82>  (46) 
0.0

>  <halogenbond:LYS:73>  (46) 
0.0

>  <hydroph_interaction:TYR:68>  (46) 
0.0

>  <halogenbond:GLN:167>  (46) 
0.0

>  <hydroph_interaction:PHE:116>  (46) 
0.0

>  <hbond:TYR:68>  (46) 
0.0

>  <hbond:ASP:122>  (46) 
1.0

>  <pistack:PHE:116>  (46) 
0.0

>  <hydroph_interaction:VAL:154>  (46) 
0.0

>  <hydroph_interaction:ASP:75>  (46) 
0.0

>  <hbond:GLY:121>  (46) 
0.0

>  <hydroph_interaction:ASN:152>  (46) 
0.0

>  <halogenbond:ILE:165>  (46) 
0.0

$$$$
Z4887853297-Z1318055457S3-Z1318055457S2
     RDKit          3D

 37 39  0  0  0  0  0  0  0  0999 V2000
  -13.0330   -6.6720   -8.6880 C   0  0  0  0  0  0  0  0  0  0  0  0
  -13.5720   -8.0560   -8.7800 C   0  0  0  0  0  0  0  0  0  0  0  0
  -14.4900   -8.3530   -7.5730 C   0  0  0  0  0  0  0  0  0  0  0  0
  -15.9330   -8.3310   -8.0150 C   0  0  0  0  0  0  0  0  0  0  0  0
  -16.5980   -9.3450   -7.8470 O   0  0  0  0  0  0  0  0  0  0  0  0
  -16.4930   -9.8350   -6.5170 C   0  0  0  0  0  0  0  0  0  0  0  0
  -15.0570  -10.1200   -6.1520 C   0  0  0  0  0  0  0  0  0  0  0  0
  -14.1910   -9.7150   -7.1070 N   0  0  0  0  0  0  0  0  0  0  0  0
  -12.8370   -9.7500   -6.5680 C   0  0  0  0  0  0  0  0  0  0  0  0
  -11.9290  -10.2880   -7.4720 C   0  0  0  0  0  0  0  0  0  0  0  0
  -10.9970   -9.4590   -8.0400 C   0  0  0  0  0  0  0  0  0  0  0  0
  -10.9430   -8.0850   -7.7720 C   0  0  0  0  0  0  0  0  0  0  0  0
   -9.9840   -7.2650   -8.3600 C   0  0  0  0  0  0  0  0  0  0  0  0
   -9.0620   -7.8280   -9.2240 C   0  0  0  0  0  0  0  0  0  0  0  0
   -9.1350   -9.1930   -9.4730 C   0  0  0  0  0  0  0  0  0  0  0  0
  -10.0690  -10.0180   -8.9160 C   0  0  0  0  0  0  0  0  0  0  0  0
  -10.0850  -11.3980   -9.2230 C   0  0  0  0  0  0  0  0  0  0  0  0
  -11.0440  -12.2090   -8.6570 C   0  0  0  0  0  0  0  0  0  0  0  0
  -11.1280  -13.5420   -8.9180 O   0  0  0  0  0  0  0  0  0  0  0  0
  -11.9660  -11.6670   -7.7800 C   0  0  0  0  0  0  0  0  0  0  0  0
  -12.9410   -6.2220   -9.6810 H   0  0  0  0  0  0  0  0  0  0  0  0
  -14.2100   -7.6580   -6.7710 H   0  0  0  0  0  0  0  0  0  0  0  0
  -15.8880   -8.2270   -9.1030 H   0  0  0  0  0  0  0  0  0  0  0  0
  -16.5460   -7.5050   -7.6330 H   0  0  0  0  0  0  0  0  0  0  0  0
  -17.0570   -9.1430   -5.8960 H   0  0  0  0  0  0  0  0  0  0  0  0
  -17.0530  -10.7770   -6.5040 H   0  0  0  0  0  0  0  0  0  0  0  0
  -14.8450   -9.7300   -5.1620 H   0  0  0  0  0  0  0  0  0  0  0  0
  -14.9770  -11.2110   -6.0590 H   0  0  0  0  0  0  0  0  0  0  0  0
  -12.8240  -10.4460   -5.7150 H   0  0  0  0  0  0  0  0  0  0  0  0
  -12.6040   -8.7920   -6.1130 H   0  0  0  0  0  0  0  0  0  0  0  0
  -11.6480   -7.6110   -7.0960 H   0  0  0  0  0  0  0  0  0  0  0  0
   -9.9530   -6.2020   -8.1470 H   0  0  0  0  0  0  0  0  0  0  0  0
   -8.2970   -7.2190   -9.6960 H   0  0  0  0  0  0  0  0  0  0  0  0
   -8.4160   -9.6280  -10.1380 H   0  0  0  0  0  0  0  0  0  0  0  0
   -9.3490  -11.8190   -9.9060 H   0  0  0  0  0  0  0  0  0  0  0  0
  -11.1150  -13.6780   -9.8830 H   0  0  0  0  0  0  0  0  0  0  0  0
  -12.7170  -12.3110   -7.3260 H   0  0  0  0  0  0  0  0  0  0  0  0
  1  2  3  0
  2  3  1  0
  3  4  1  0
  4  5  1  0
  5  6  1  0
  6  7  1  0
  7  8  1  0
  8  9  1  0
  9 10  1  0
 10 11  1  0
 11 12  2  0
 12 13  1  0
 13 14  2  0
 14 15  1  0
 15 16  2  0
 16 17  1  0
 17 18  2  0
 18 19  1  0
 18 20  1  0
  8  3  1  0
 20 10  2  0
 16 11  1  0
  1 21  1  0
  3 22  1  0
  4 23  1  0
  4 24  1  0
  6 25  1  0
  6 26  1  0
  7 27  1  0
  7 28  1  0
  9 29  1  0
  9 30  1  0
 12 31  1  0
 13 32  1  0
 14 33  1  0
 15 34  1  0
 17 35  1  0
 19 36  1  0
 20 37  1  0
A    1
 C1 
A    2
 C2 
A    3
 C3 
A    4
 C4 
A    5
 O1 
A    6
 C5 
A    7
 C6 
A    8
 N1 
A    9
 C7 
A   10
 C8 
A   11
 C9 
A   12
 C10
A   13
 C11
A   14
 C12
A   15
 C13
A   16
 C14
A   17
 C15
A   18
 C16
A   19
 O2 
A   20
 C17
A   21
 H1 
A   22
 H2 
A   23
 H3 
A   24
 H4 
A   25
 H5 
A   26
 H6 
A   27
 H7 
A   28
 H8 
A   29
 H9 
A   30
 H10
A   31
 H11
A   32
 H12
A   33
 H13
A   34
 H14
A   35
 H15
A   36
 H16
A   37
 H17
M  END
>  <ref_pdb>  (47) 
x0051_0B

>  <ref_mols>  (47) 
x0051_0B

>  <original SMILES>  (47) 
[H]C#CC1([H])N(C([H])([H])c2c([H])c(O[H])c([H])c3c([H])c([H])c([H])c([H])c23)C([H])([H])C([H])([H])OC1([H])[H]

>  <index>  (47) 
8241.0

>  <∆∆G>  (47) 
-1.287798

>  <comRMSD>  (47) 
0.563028

>  <N_constrained_atoms>  (47) 
19.0

>  <N_unconstrained_atoms>  (47) 
1.0

>  <LE>  (47) 
0.06439

>  <percent_hybrid>  (47) 
45.0

>  <largest_ring>  (47) 
6.0

>  <N_HA>  (47) 
20.0

>  <N_rotatable_bonds>  (47) 
3.0

>  <max_hit_Tanimoto>  (47) 
0.219665

>  <N_interactions_kept>  (47) 
0.5

>  <N_interactions_lost>  (47) 
0.5

>  <interaction_uniqueness_metric>  (47) 
0.160095

>  <N_interactions>  (47) 
6.0

>  <N_PAINS>  (47) 
0.0

>  <UFF_Gibbs>  (47) 
291.059645

>  <strain_per_HA>  (47) 
14.552909

>  <ad_hoc_penalty>  (47) 
-26.584958

>  <cluster>  (47) 
597.0

>  <intxn_cluster>  (47) 
13.0

>  <keep>  (47) 
1.0

>  <hydroph_interaction:GLN:74>  (47) 
0.0

>  <hydroph_interaction:THR:118>  (47) 
1.0

>  <hydroph_interaction:ILE:123>  (47) 
4.0

>  <hydroph_interaction:THR:166>  (47) 
0.0

>  <hbond:GLN:167>  (47) 
0.0

>  <hydroph_interaction:ALA:88>  (47) 
0.0

>  <hydroph_interaction:ASP:120>  (47) 
0.0

>  <hydroph_interaction:GLN:167>  (47) 
0.0

>  <hbond:THR:118>  (47) 
0.0

>  <hydroph_interaction:ALA:164>  (47) 
0.0

>  <hbond:ASP:120>  (47) 
0.0

>  <hbond:THR:166>  (47) 
0.0

>  <hydroph_interaction:LEU:76>  (47) 
0.0

>  <hbond:ILE:165>  (47) 
0.0

>  <halogenbond:GLN:74>  (47) 
0.0

>  <hbond:GLN:74>  (47) 
0.0

>  <hbond:LYS:73>  (47) 
0.0

>  <pistack:TRP:69>  (47) 
0.0

>  <hbond:TRP:83>  (47) 
0.0

>  <hydroph_interaction:TRP:83>  (47) 
0.0

>  <hydroph_interaction:TRP:69>  (47) 
0.0

>  <pication:TRP:69>  (47) 
0.0

>  <hydroph_interaction:PRO:82>  (47) 
0.0

>  <halogenbond:LYS:73>  (47) 
0.0

>  <hydroph_interaction:TYR:68>  (47) 
0.0

>  <halogenbond:GLN:167>  (47) 
0.0

>  <hydroph_interaction:PHE:116>  (47) 
0.0

>  <hbond:TYR:68>  (47) 
0.0

>  <hbond:ASP:122>  (47) 
0.0

>  <pistack:PHE:116>  (47) 
0.0

>  <hydroph_interaction:VAL:154>  (47) 
0.0

>  <hydroph_interaction:ASP:75>  (47) 
0.0

>  <hbond:GLY:121>  (47) 
1.0

>  <hydroph_interaction:ASN:152>  (47) 
0.0

>  <halogenbond:ILE:165>  (47) 
0.0

$$$$
PV-006300849370-Z2102283482-x0214S1
     RDKit          3D

 38 40  0  0  0  0  0  0  0  0999 V2000
  -11.5610  -14.8820   -9.7690 N   0  0  0  0  0  0  0  0  0  0  0  0
  -12.2560  -13.7160   -9.7070 C   0  0  0  0  0  0  0  0  0  0  0  0
  -13.4870  -13.5670  -10.4230 O   0  0  0  0  0  0  0  0  0  0  0  0
  -11.6630  -12.6240   -8.8330 C   0  0  0  0  0  0  0  0  0  0  0  0
  -10.2690  -12.0630   -9.2060 C   0  0  0  0  0  0  0  0  0  0  0  0
  -10.0880  -10.5390   -9.0210 C   0  0  0  0  0  0  0  0  0  0  0  0
   -8.8870   -9.8880   -9.5620 C   0  0  0  0  0  0  0  0  0  0  0  0
   -8.5830   -8.3970   -9.4610 C   0  0  0  0  0  0  0  0  0  0  0  0
   -9.6380   -7.5760   -8.7300 C   0  0  0  0  0  0  0  0  0  0  0  0
  -10.7860   -8.2190   -8.2150 C   0  0  0  0  0  0  0  0  0  0  0  0
  -10.9750   -9.7380   -8.3890 C   0  0  0  0  0  0  0  0  0  0  0  0
  -12.1090  -10.3480   -7.8780 N   0  0  0  0  0  0  0  0  0  0  0  0
  -12.6610   -9.7590   -6.7670 C   0  0  0  0  0  0  0  0  0  0  0  0
  -11.9210   -9.3030   -5.7180 O   0  0  0  0  0  0  0  0  0  0  0  0
  -14.1670   -9.6110   -6.7530 C   0  0  0  0  0  0  0  0  0  0  0  0
  -14.8730  -10.6370   -6.1220 C   0  0  0  0  0  0  0  0  0  0  0  0
  -16.4230  -10.4800   -6.1310 C   0  0  0  0  0  0  0  0  0  0  0  0
  -16.9330   -9.2400   -6.8210 C   0  0  0  0  0  0  0  0  0  0  0  0
  -18.8120   -9.0020   -6.8720 Br  0  0  0  0  0  0  0  0  0  0  0  0
  -16.1260   -8.3210   -7.3900 N   0  0  0  0  0  0  0  0  0  0  0  0
  -14.7880   -8.4980   -7.3590 C   0  0  0  0  0  0  0  0  0  0  0  0
  -14.0470   -7.4770   -7.9880 N   0  0  0  0  0  0  0  0  0  0  0  0
  -12.6650  -11.5020   -8.6060 C   0  0  0  0  0  0  0  0  0  0  0  0
  -11.0300  -15.2780   -8.9860 H   0  0  0  0  0  0  0  0  0  0  0  0
  -11.7760  -15.4940  -10.5450 H   0  0  0  0  0  0  0  0  0  0  0  0
  -11.5340  -13.1160   -7.8560 H   0  0  0  0  0  0  0  0  0  0  0  0
  -10.0860  -12.3470  -10.2490 H   0  0  0  0  0  0  0  0  0  0  0  0
   -9.4960  -12.5610   -8.6160 H   0  0  0  0  0  0  0  0  0  0  0  0
   -8.1580  -10.5210  -10.0790 H   0  0  0  0  0  0  0  0  0  0  0  0
   -7.6850   -7.9500   -9.8770 H   0  0  0  0  0  0  0  0  0  0  0  0
   -9.5130   -6.5040   -8.6050 H   0  0  0  0  0  0  0  0  0  0  0  0
  -11.5130   -7.5950   -7.7010 H   0  0  0  0  0  0  0  0  0  0  0  0
  -14.3820  -11.4890   -5.6590 H   0  0  0  0  0  0  0  0  0  0  0  0
  -17.0810  -11.2120   -5.6770 H   0  0  0  0  0  0  0  0  0  0  0  0
  -14.6920   -6.6950   -8.1270 H   0  0  0  0  0  0  0  0  0  0  0  0
  -13.3250   -7.1270   -7.3670 H   0  0  0  0  0  0  0  0  0  0  0  0
  -13.0490  -11.1050   -9.5560 H   0  0  0  0  0  0  0  0  0  0  0  0
  -13.5370  -11.9070   -8.0850 H   0  0  0  0  0  0  0  0  0  0  0  0
  1  2  1  0
  2  3  2  0
  2  4  1  0
  4  5  1  0
  5  6  1  0
  6  7  2  0
  7  8  1  0
  8  9  2  0
  9 10  1  0
 10 11  2  0
 11 12  1  0
 12 13  1  0
 13 14  2  0
 13 15  1  0
 15 16  2  0
 16 17  1  0
 17 18  2  0
 18 19  1  0
 18 20  1  0
 20 21  2  0
 21 22  1  0
 12 23  1  0
 23  4  1  0
 11  6  1  0
 21 15  1  0
  1 24  1  0
  1 25  1  0
  4 26  1  0
  5 27  1  0
  5 28  1  0
  7 29  1  0
  8 30  1  0
  9 31  1  0
 10 32  1  0
 16 33  1  0
 17 34  1  0
 22 35  1  0
 22 36  1  0
 23 37  1  0
 23 38  1  0
A    1
 N1 
A    2
 C1 
A    3
 O1 
A    4
 C2 
A    5
 C3 
A    6
 C4 
A    7
 C5 
A    8
 C6 
A    9
 C7 
A   10
 C8 
A   11
 C9 
A   12
 N2 
A   13
 C10
A   14
 O2 
A   15
 C11
A   16
 C12
A   17
 C13
A   18
 C14
A   19
BR1 
A   20
 N3 
A   21
 C15
A   22
 N4 
A   23
 C16
A   24
 H1 
A   25
 H2 
A   26
 H3 
A   27
 H4 
A   28
 H5 
A   29
 H6 
A   30
 H7 
A   31
 H8 
A   32
 H9 
A   33
 H10
A   34
 H11
A   35
 H12
A   36
 H13
A   37
 H14
A   38
 H15
M  END
>  <ref_pdb>  (48) 
x0051_0B

>  <ref_mols>  (48) 
x0051_0B

>  <original SMILES>  (48) 
[H]c1c(Br)nc(N([H])[H])c(C(=O)N2c3c([H])c([H])c([H])c([H])c3C([H])([H])C([H])(C(=O)N([H])[H])C2([H])[H])c1[H]

>  <index>  (48) 
7391.0

>  <∆∆G>  (48) 
-1.003115

>  <comRMSD>  (48) 
0.757215

>  <N_constrained_atoms>  (48) 
24.0

>  <N_unconstrained_atoms>  (48) 
0.0

>  <LE>  (48) 
0.041796

>  <percent_hybrid>  (48) 
5.0

>  <largest_ring>  (48) 
6.0

>  <N_HA>  (48) 
23.0

>  <N_rotatable_bonds>  (48) 
3.0

>  <max_hit_Tanimoto>  (48) 
0.62521

>  <N_interactions_kept>  (48) 
1.0

>  <N_interactions_lost>  (48) 
1.0

>  <interaction_uniqueness_metric>  (48) 
0.105188

>  <N_interactions>  (48) 
7.0

>  <N_PAINS>  (48) 
0.0

>  <UFF_Gibbs>  (48) 
139.531039

>  <strain_per_HA>  (48) 
6.066541

>  <ad_hoc_penalty>  (48) 
-26.538323

>  <cluster>  (48) 
3083.0

>  <intxn_cluster>  (48) 
4.0

>  <keep>  (48) 
1.0

>  <hydroph_interaction:GLN:74>  (48) 
0.0

>  <hydroph_interaction:THR:118>  (48) 
1.0

>  <hydroph_interaction:ILE:123>  (48) 
3.0

>  <hydroph_interaction:THR:166>  (48) 
0.0

>  <hbond:GLN:167>  (48) 
2.0

>  <hydroph_interaction:ALA:88>  (48) 
0.0

>  <hydroph_interaction:ASP:120>  (48) 
0.0

>  <hydroph_interaction:GLN:167>  (48) 
0.0

>  <hbond:THR:118>  (48) 
0.0

>  <hydroph_interaction:ALA:164>  (48) 
0.0

>  <hbond:ASP:120>  (48) 
1.0

>  <hbond:THR:166>  (48) 
0.0

>  <hydroph_interaction:LEU:76>  (48) 
0.0

>  <hbond:ILE:165>  (48) 
0.0

>  <halogenbond:GLN:74>  (48) 
0.0

>  <hbond:GLN:74>  (48) 
0.0

>  <hbond:LYS:73>  (48) 
0.0

>  <pistack:TRP:69>  (48) 
0.0

>  <hbond:TRP:83>  (48) 
0.0

>  <hydroph_interaction:TRP:83>  (48) 
0.0

>  <hydroph_interaction:TRP:69>  (48) 
0.0

>  <pication:TRP:69>  (48) 
0.0

>  <hydroph_interaction:PRO:82>  (48) 
0.0

>  <halogenbond:LYS:73>  (48) 
0.0

>  <hydroph_interaction:TYR:68>  (48) 
0.0

>  <halogenbond:GLN:167>  (48) 
0.0

>  <hydroph_interaction:PHE:116>  (48) 
0.0

>  <hbond:TYR:68>  (48) 
0.0

>  <hbond:ASP:122>  (48) 
0.0

>  <pistack:PHE:116>  (48) 
0.0

>  <hydroph_interaction:VAL:154>  (48) 
0.0

>  <hydroph_interaction:ASP:75>  (48) 
0.0

>  <hbond:GLY:121>  (48) 
0.0

>  <hydroph_interaction:ASN:152>  (48) 
0.0

>  <halogenbond:ILE:165>  (48) 
0.0

$$$$
Z3241903078-Z198195906S1-x0214S2
     RDKit          3D

 33 34  0  0  0  0  0  0  0  0999 V2000
   -9.7690   -6.0290  -10.5330 C   0  0  0  0  0  0  0  0  0  0  0  0
  -11.2150   -5.6050  -10.5920 C   0  0  0  0  0  0  0  0  0  0  0  0
  -11.2760   -4.2470  -10.0590 N   0  0  0  0  0  0  0  0  0  0  0  0
  -11.9970   -6.4450   -9.8640 C   0  0  0  0  0  0  0  0  0  0  0  0
  -12.8650   -7.3320  -10.4800 C   0  0  0  0  0  0  0  0  0  0  0  0
  -13.5880   -8.2260   -9.6930 C   0  0  0  0  0  0  0  0  0  0  0  0
  -13.4360   -8.2120   -8.2990 C   0  0  0  0  0  0  0  0  0  0  0  0
  -14.1580   -9.1960   -7.4400 C   0  0  0  0  0  0  0  0  0  0  0  0
  -13.1960  -10.0570   -6.7500 C   0  0  0  0  0  0  0  0  0  0  0  0
  -12.7650   -9.4210   -5.4590 C   0  0  0  0  0  0  0  0  0  0  0  0
  -13.6390   -8.2790   -5.1350 C   0  0  0  0  0  0  0  0  0  0  0  0
  -14.7720   -8.4790   -6.2040 C   0  0  0  0  0  0  0  0  0  0  0  0
  -12.5870   -7.2850   -7.7050 C   0  0  0  0  0  0  0  0  0  0  0  0
  -11.8890   -6.4270   -8.4950 C   0  0  0  0  0  0  0  0  0  0  0  0
   -9.5550   -6.5810   -9.6120 H   0  0  0  0  0  0  0  0  0  0  0  0
   -9.1160   -5.1540  -10.5400 H   0  0  0  0  0  0  0  0  0  0  0  0
   -9.5200   -6.6740  -11.3770 H   0  0  0  0  0  0  0  0  0  0  0  0
  -11.5460   -5.6210  -11.6310 H   0  0  0  0  0  0  0  0  0  0  0  0
  -11.8970   -3.7280  -10.7020 H   0  0  0  0  0  0  0  0  0  0  0  0
  -11.7400   -4.2610   -9.1530 H   0  0  0  0  0  0  0  0  0  0  0  0
  -12.9780   -7.3560  -11.5630 H   0  0  0  0  0  0  0  0  0  0  0  0
  -14.2590   -8.9370  -10.1670 H   0  0  0  0  0  0  0  0  0  0  0  0
  -15.0070   -9.7010   -7.8930 H   0  0  0  0  0  0  0  0  0  0  0  0
  -13.5340  -11.0650   -6.4780 H   0  0  0  0  0  0  0  0  0  0  0  0
  -12.3260  -10.2170   -7.3950 H   0  0  0  0  0  0  0  0  0  0  0  0
  -12.8580  -10.1560   -4.6510 H   0  0  0  0  0  0  0  0  0  0  0  0
  -11.6930   -9.2090   -5.5210 H   0  0  0  0  0  0  0  0  0  0  0  0
  -14.0610   -8.4190   -4.1350 H   0  0  0  0  0  0  0  0  0  0  0  0
  -13.1830   -7.2940   -5.1010 H   0  0  0  0  0  0  0  0  0  0  0  0
  -15.2620   -7.5920   -6.5960 H   0  0  0  0  0  0  0  0  0  0  0  0
  -15.5890   -9.0540   -5.7560 H   0  0  0  0  0  0  0  0  0  0  0  0
  -12.4580   -7.2420   -6.6280 H   0  0  0  0  0  0  0  0  0  0  0  0
  -11.2350   -5.7480   -7.9340 H   0  0  0  0  0  0  0  0  0  0  0  0
  1  2  1  0
  2  3  1  0
  2  4  1  0
  4  5  2  0
  5  6  1  0
  6  7  2  0
  7  8  1  0
  8  9  1  0
  9 10  1  0
 10 11  1  0
 11 12  1  0
  7 13  1  0
 13 14  2  0
 14  4  1  0
 12  8  1  0
  1 15  1  0
  1 16  1  0
  1 17  1  0
  2 18  1  0
  3 19  1  0
  3 20  1  0
  5 21  1  0
  6 22  1  0
  8 23  1  0
  9 24  1  0
  9 25  1  0
 10 26  1  0
 10 27  1  0
 11 28  1  0
 11 29  1  0
 12 30  1  0
 12 31  1  0
 13 32  1  0
 14 33  1  0
A    1
 C1 
A    2
 C2 
A    3
 N1 
A    4
 C3 
A    5
 C4 
A    6
 C5 
A    7
 C6 
A    8
 C7 
A    9
 C8 
A   10
 C9 
A   11
 C10
A   12
 C11
A   13
 C12
A   14
 C13
A   15
 H1 
A   16
 H2 
A   17
 H3 
A   18
 H4 
A   19
 H5 
A   20
 H6 
A   21
 H7 
A   22
 H8 
A   23
 H9 
A   24
 H10
A   25
 H11
A   26
 H12
A   27
 H13
A   28
 H14
A   29
 H15
A   30
 H16
A   31
 H17
A   32
 H18
A   33
 H19
M  END
>  <ref_pdb>  (49) 
x0051_0B

>  <ref_mols>  (49) 
x0051_0B

>  <original SMILES>  (49) 
[H]c1c([H])c(C2([H])C([H])([H])C([H])([H])C([H])([H])C2([H])[H])c([H])c([H])c1C([H])(N([H])[H])C([H])([H])[H]

>  <index>  (49) 
1568.0

>  <∆∆G>  (49) 
-6.193499

>  <comRMSD>  (49) 
0.875609

>  <N_constrained_atoms>  (49) 
14.0

>  <N_unconstrained_atoms>  (49) 
0.0

>  <LE>  (49) 
0.442393

>  <percent_hybrid>  (49) 
24.0

>  <largest_ring>  (49) 
6.0

>  <N_HA>  (49) 
14.0

>  <N_rotatable_bonds>  (49) 
4.0

>  <max_hit_Tanimoto>  (49) 
0.211236

>  <N_interactions_kept>  (49) 
0.0

>  <N_interactions_lost>  (49) 
0.0

>  <interaction_uniqueness_metric>  (49) 
0.087299

>  <N_interactions>  (49) 
3.0

>  <N_PAINS>  (49) 
0.0

>  <UFF_Gibbs>  (49) 
91.155107

>  <strain_per_HA>  (49) 
6.511033

>  <ad_hoc_penalty>  (49) 
-26.337715

>  <cluster>  (49) 
767.0

>  <intxn_cluster>  (49) 
3.0

>  <keep>  (49) 
1.0

>  <hydroph_interaction:GLN:74>  (49) 
1.0

>  <hydroph_interaction:THR:118>  (49) 
0.0

>  <hydroph_interaction:ILE:123>  (49) 
1.0

>  <hydroph_interaction:THR:166>  (49) 
0.0

>  <hbond:GLN:167>  (49) 
0.0

>  <hydroph_interaction:ALA:88>  (49) 
0.0

>  <hydroph_interaction:ASP:120>  (49) 
0.0

>  <hydroph_interaction:GLN:167>  (49) 
0.0

>  <hbond:THR:118>  (49) 
0.0

>  <hydroph_interaction:ALA:164>  (49) 
1.0

>  <hbond:ASP:120>  (49) 
0.0

>  <hbond:THR:166>  (49) 
0.0

>  <hydroph_interaction:LEU:76>  (49) 
0.0

>  <hbond:ILE:165>  (49) 
0.0

>  <halogenbond:GLN:74>  (49) 
0.0

>  <hbond:GLN:74>  (49) 
0.0

>  <hbond:LYS:73>  (49) 
0.0

>  <pistack:TRP:69>  (49) 
0.0

>  <hbond:TRP:83>  (49) 
0.0

>  <hydroph_interaction:TRP:83>  (49) 
0.0

>  <hydroph_interaction:TRP:69>  (49) 
0.0

>  <pication:TRP:69>  (49) 
0.0

>  <hydroph_interaction:PRO:82>  (49) 
0.0

>  <halogenbond:LYS:73>  (49) 
0.0

>  <hydroph_interaction:TYR:68>  (49) 
0.0

>  <halogenbond:GLN:167>  (49) 
0.0

>  <hydroph_interaction:PHE:116>  (49) 
0.0

>  <hbond:TYR:68>  (49) 
0.0

>  <hbond:ASP:122>  (49) 
0.0

>  <pistack:PHE:116>  (49) 
0.0

>  <hydroph_interaction:VAL:154>  (49) 
0.0

>  <hydroph_interaction:ASP:75>  (49) 
0.0

>  <hbond:GLY:121>  (49) 
0.0

>  <hydroph_interaction:ASN:152>  (49) 
0.0

>  <halogenbond:ILE:165>  (49) 
0.0

$$$$
PV-002902542138-x0214S3-Z2102283482
     RDKit          3D

 40 43  0  0  0  0  0  0  0  0999 V2000
  -12.5600  -13.5890   -9.9450 N   0  0  0  0  0  0  0  0  0  0  0  0
  -12.7950  -12.3090   -9.5280 C   0  0  0  0  0  0  0  0  0  0  0  0
  -13.8870  -11.5770  -10.0920 O   0  0  0  0  0  0  0  0  0  0  0  0
  -11.8320  -11.7840   -8.4700 C   0  0  0  0  0  0  0  0  0  0  0  0
  -10.4500  -11.8790   -9.0710 C   0  0  0  0  0  0  0  0  0  0  0  0
  -10.1310  -10.4160   -9.0030 C   0  0  0  0  0  0  0  0  0  0  0  0
   -8.8310   -9.9730   -9.5520 C   0  0  0  0  0  0  0  0  0  0  0  0
   -8.6780   -8.4460   -9.3780 C   0  0  0  0  0  0  0  0  0  0  0  0
   -9.6250   -7.6820   -8.8000 C   0  0  0  0  0  0  0  0  0  0  0  0
  -10.7800   -8.2630   -8.3510 C   0  0  0  0  0  0  0  0  0  0  0  0
  -11.0470   -9.6150   -8.4520 C   0  0  0  0  0  0  0  0  0  0  0  0
  -12.2040  -10.3750   -8.0550 N   0  0  0  0  0  0  0  0  0  0  0  0
  -12.5970  -10.0530   -6.8160 C   0  0  0  0  0  0  0  0  0  0  0  0
  -14.0540   -9.7540   -6.7650 C   0  0  0  0  0  0  0  0  0  0  0  0
  -14.9500  -10.5710   -6.1160 C   0  0  0  0  0  0  0  0  0  0  0  0
  -16.4470  -10.3930   -6.0000 C   0  0  0  0  0  0  0  0  0  0  0  0
  -17.0530   -9.1760   -6.6640 C   0  0  0  0  0  0  0  0  0  0  0  0
  -18.7490   -8.9320   -6.5790 Cl  0  0  0  0  0  0  0  0  0  0  0  0
  -16.1330   -8.2090   -7.3950 C   0  0  0  0  0  0  0  0  0  0  0  0
  -14.6270   -8.4640   -7.4800 C   0  0  0  0  0  0  0  0  0  0  0  0
  -13.8900   -7.5170   -8.2120 C   0  0  0  0  0  0  0  0  0  0  0  0
  -14.0130   -7.6960   -9.5640 N   0  0  0  0  0  0  0  0  0  0  0  0
  -13.2240   -6.6460   -9.9580 N   0  0  0  0  0  0  0  0  0  0  0  0
  -12.6730   -5.9120   -8.9820 N   0  0  0  0  0  0  0  0  0  0  0  0
  -13.0960   -6.4600   -7.8390 N   0  0  0  0  0  0  0  0  0  0  0  0
  -12.9210  -13.8540  -10.8500 H   0  0  0  0  0  0  0  0  0  0  0  0
  -11.8850  -14.1950   -9.5020 H   0  0  0  0  0  0  0  0  0  0  0  0
  -11.9240  -12.4570   -7.6020 H   0  0  0  0  0  0  0  0  0  0  0  0
  -10.5170  -12.2540  -10.0980 H   0  0  0  0  0  0  0  0  0  0  0  0
   -9.7430  -12.4740   -8.4820 H   0  0  0  0  0  0  0  0  0  0  0  0
   -8.1080  -10.6410  -10.0060 H   0  0  0  0  0  0  0  0  0  0  0  0
   -7.7820   -7.9330   -9.7230 H   0  0  0  0  0  0  0  0  0  0  0  0
   -9.5180   -6.6100   -8.6720 H   0  0  0  0  0  0  0  0  0  0  0  0
  -11.5380   -7.6260   -7.8890 H   0  0  0  0  0  0  0  0  0  0  0  0
  -11.9420   -9.2460   -6.4890 H   0  0  0  0  0  0  0  0  0  0  0  0
  -12.2430  -10.8970   -6.2190 H   0  0  0  0  0  0  0  0  0  0  0  0
  -14.5330  -11.4620   -5.6280 H   0  0  0  0  0  0  0  0  0  0  0  0
  -17.0610  -11.1090   -5.4650 H   0  0  0  0  0  0  0  0  0  0  0  0
  -16.5390   -7.3300   -7.8650 H   0  0  0  0  0  0  0  0  0  0  0  0
  -13.0580   -6.4290  -10.9340 H   0  0  0  0  0  0  0  0  0  0  0  0
  1  2  1  0
  2  3  2  0
  2  4  1  0
  4  5  1  0
  5  6  1  0
  6  7  2  0
  7  8  1  0
  8  9  2  0
  9 10  1  0
 10 11  2  0
 11 12  1  0
 12 13  1  0
 13 14  1  0
 14 15  2  0
 15 16  1  0
 16 17  2  0
 17 18  1  0
 17 19  1  0
 19 20  2  0
 20 21  1  0
 21 22  2  0
 22 23  1  0
 23 24  1  0
 24 25  2  0
 12  4  1  0
 11  6  1  0
 20 14  1  0
 25 21  1  0
  1 26  1  0
  1 27  1  0
  4 28  1  0
  5 29  1  0
  5 30  1  0
  7 31  1  0
  8 32  1  0
  9 33  1  0
 10 34  1  0
 13 35  1  0
 13 36  1  0
 15 37  1  0
 16 38  1  0
 19 39  1  0
 23 40  1  0
A    1
 N1 
A    2
 C1 
A    3
 O1 
A    4
 C2 
A    5
 C3 
A    6
 C4 
A    7
 C5 
A    8
 C6 
A    9
 C7 
A   10
 C8 
A   11
 C9 
A   12
 N2 
A   13
 C10
A   14
 C11
A   15
 C12
A   16
 C13
A   17
 C14
A   18
CL1 
A   19
 C15
A   20
 C16
A   21
 C17
A   22
 N3 
A   23
 N4 
A   24
 N5 
A   25
 N6 
A   26
 H1 
A   27
 H2 
A   28
 H3 
A   29
 H4 
A   30
 H5 
A   31
 H6 
A   32
 H7 
A   33
 H8 
A   34
 H9 
A   35
 H10
A   36
 H11
A   37
 H12
A   38
 H13
A   39
 H14
A   40
 H15
M  END
>  <ref_pdb>  (50) 
x0051_0B

>  <ref_mols>  (50) 
x0051_0B

>  <original SMILES>  (50) 
[H]c1c([H])c([H])c2c(c1[H])N(C([H])([H])c1c([H])c([H])c(Cl)c([H])c1-c1nnn([H])n1)C([H])(C(=O)N([H])[H])C2([H])[H]

>  <index>  (50) 
2514.0

>  <∆∆G>  (50) 
-1.854587

>  <comRMSD>  (50) 
0.705793

>  <N_constrained_atoms>  (50) 
27.0

>  <N_unconstrained_atoms>  (50) 
1.0

>  <LE>  (50) 
0.066235

>  <percent_hybrid>  (50) 
16.0

>  <largest_ring>  (50) 
6.0

>  <N_HA>  (50) 
25.0

>  <N_rotatable_bonds>  (50) 
4.0

>  <max_hit_Tanimoto>  (50) 
0.495686

>  <N_interactions_kept>  (50) 
1.0

>  <N_interactions_lost>  (50) 
1.0

>  <interaction_uniqueness_metric>  (50) 
0.115683

>  <N_interactions>  (50) 
7.0

>  <N_PAINS>  (50) 
0.0

>  <UFF_Gibbs>  (50) 
202.444612

>  <strain_per_HA>  (50) 
8.097752

>  <ad_hoc_penalty>  (50) 
-26.273114

>  <cluster>  (50) 
1355.0

>  <intxn_cluster>  (50) 
4.0

>  <keep>  (50) 
1.0

>  <hydroph_interaction:GLN:74>  (50) 
0.0

>  <hydroph_interaction:THR:118>  (50) 
1.0

>  <hydroph_interaction:ILE:123>  (50) 
3.0

>  <hydroph_interaction:THR:166>  (50) 
0.0

>  <hbond:GLN:167>  (50) 
2.0

>  <hydroph_interaction:ALA:88>  (50) 
0.0

>  <hydroph_interaction:ASP:120>  (50) 
0.0

>  <hydroph_interaction:GLN:167>  (50) 
0.0

>  <hbond:THR:118>  (50) 
0.0

>  <hydroph_interaction:ALA:164>  (50) 
0.0

>  <hbond:ASP:120>  (50) 
0.0

>  <hbond:THR:166>  (50) 
1.0

>  <hydroph_interaction:LEU:76>  (50) 
0.0

>  <hbond:ILE:165>  (50) 
0.0

>  <halogenbond:GLN:74>  (50) 
0.0

>  <hbond:GLN:74>  (50) 
0.0

>  <hbond:LYS:73>  (50) 
0.0

>  <pistack:TRP:69>  (50) 
0.0

>  <hbond:TRP:83>  (50) 
0.0

>  <hydroph_interaction:TRP:83>  (50) 
0.0

>  <hydroph_interaction:TRP:69>  (50) 
0.0

>  <pication:TRP:69>  (50) 
0.0

>  <hydroph_interaction:PRO:82>  (50) 
0.0

>  <halogenbond:LYS:73>  (50) 
0.0

>  <hydroph_interaction:TYR:68>  (50) 
0.0

>  <halogenbond:GLN:167>  (50) 
0.0

>  <hydroph_interaction:PHE:116>  (50) 
0.0

>  <hbond:TYR:68>  (50) 
0.0

>  <hbond:ASP:122>  (50) 
0.0

>  <pistack:PHE:116>  (50) 
0.0

>  <hydroph_interaction:VAL:154>  (50) 
0.0

>  <hydroph_interaction:ASP:75>  (50) 
0.0

>  <hbond:GLY:121>  (50) 
0.0

>  <hydroph_interaction:ASN:152>  (50) 
0.0

>  <halogenbond:ILE:165>  (50) 
0.0

$$$$
Z4118828726-Z198195906S6-Z1318054286
     RDKit          3D

 41 42  0  0  0  0  0  0  0  0999 V2000
   -8.2990   -7.5740  -10.1410 C   0  0  0  0  0  0  0  0  0  0  0  0
   -8.0660   -6.1060  -10.2900 C   0  0  0  0  0  0  0  0  0  0  0  0
   -6.7610   -5.7030  -10.6260 C   0  0  0  0  0  0  0  0  0  0  0  0
   -6.4260   -4.3620  -10.8060 C   0  0  0  0  0  0  0  0  0  0  0  0
   -7.4030   -3.3930  -10.6500 C   0  0  0  0  0  0  0  0  0  0  0  0
   -8.6950   -3.7820  -10.3120 C   0  0  0  0  0  0  0  0  0  0  0  0
   -9.0820   -5.1220  -10.1180 C   0  0  0  0  0  0  0  0  0  0  0  0
  -10.4650   -5.3800   -9.7660 N   0  0  0  0  0  0  0  0  0  0  0  0
  -11.3970   -4.3890  -10.2540 C   0  0  0  0  0  0  0  0  0  0  0  0
  -11.0900   -6.7150   -9.5360 C   0  0  0  0  0  0  0  0  0  0  0  0
  -10.5420   -7.7130   -9.8990 O   0  0  0  0  0  0  0  0  0  0  0  0
  -12.3380   -6.7920   -8.8930 N   0  0  0  0  0  0  0  0  0  0  0  0
  -13.0970   -8.0520   -8.8930 C   0  0  0  0  0  0  0  0  0  0  0  0
  -14.0630   -8.2070   -7.8290 C   0  0  0  0  0  0  0  0  0  0  0  0
  -15.5270   -8.0150   -8.2110 C   0  0  0  0  0  0  0  0  0  0  0  0
  -16.3050   -9.2890   -7.9850 C   0  0  0  0  0  0  0  0  0  0  0  0
  -16.2230   -9.7080   -6.5300 C   0  0  0  0  0  0  0  0  0  0  0  0
  -14.8570   -9.8570   -6.1520 O   0  0  0  0  0  0  0  0  0  0  0  0
  -13.9430   -9.6250   -7.2380 C   0  0  0  0  0  0  0  0  0  0  0  0
   -8.9560   -7.9170  -10.9380 H   0  0  0  0  0  0  0  0  0  0  0  0
   -8.7390   -7.8140   -9.1690 H   0  0  0  0  0  0  0  0  0  0  0  0
   -7.3530   -8.1190  -10.2180 H   0  0  0  0  0  0  0  0  0  0  0  0
   -5.9840   -6.4540  -10.7540 H   0  0  0  0  0  0  0  0  0  0  0  0
   -5.4050   -4.1050  -11.0680 H   0  0  0  0  0  0  0  0  0  0  0  0
   -7.1580   -2.3450  -10.7890 H   0  0  0  0  0  0  0  0  0  0  0  0
   -9.3790   -2.9320  -10.2120 H   0  0  0  0  0  0  0  0  0  0  0  0
  -11.8340   -3.8170   -9.4240 H   0  0  0  0  0  0  0  0  0  0  0  0
  -10.8970   -3.6480  -10.8870 H   0  0  0  0  0  0  0  0  0  0  0  0
  -12.2030   -4.8660  -10.7970 H   0  0  0  0  0  0  0  0  0  0  0  0
  -12.4250   -6.1910   -8.0820 H   0  0  0  0  0  0  0  0  0  0  0  0
  -12.3480   -8.8340   -8.9930 H   0  0  0  0  0  0  0  0  0  0  0  0
  -13.6410   -8.0480   -9.8470 H   0  0  0  0  0  0  0  0  0  0  0  0
  -13.7950   -7.5110   -7.0220 H   0  0  0  0  0  0  0  0  0  0  0  0
  -15.9780   -7.1840   -7.6510 H   0  0  0  0  0  0  0  0  0  0  0  0
  -15.5550   -7.7520   -9.2770 H   0  0  0  0  0  0  0  0  0  0  0  0
  -15.8800  -10.0780   -8.6160 H   0  0  0  0  0  0  0  0  0  0  0  0
  -17.3500   -9.1580   -8.2800 H   0  0  0  0  0  0  0  0  0  0  0  0
  -16.7640  -10.6430   -6.3480 H   0  0  0  0  0  0  0  0  0  0  0  0
  -16.6670   -8.9330   -5.8950 H   0  0  0  0  0  0  0  0  0  0  0  0
  -14.1660  -10.3730   -8.0060 H   0  0  0  0  0  0  0  0  0  0  0  0
  -12.9230   -9.8230   -6.8880 H   0  0  0  0  0  0  0  0  0  0  0  0
  1  2  1  0
  2  3  2  0
  3  4  1  0
  4  5  2  0
  5  6  1  0
  6  7  2  0
  7  8  1  0
  8  9  1  0
  8 10  1  0
 10 11  2  0
 10 12  1  0
 12 13  1  0
 13 14  1  0
 14 15  1  0
 15 16  1  0
 16 17  1  0
 17 18  1  0
 18 19  1  0
  7  2  1  0
 19 14  1  0
  1 20  1  0
  1 21  1  0
  1 22  1  0
  3 23  1  0
  4 24  1  0
  5 25  1  0
  6 26  1  0
  9 27  1  0
  9 28  1  0
  9 29  1  0
 12 30  1  0
 13 31  1  0
 13 32  1  0
 14 33  1  0
 15 34  1  0
 15 35  1  0
 16 36  1  0
 16 37  1  0
 17 38  1  0
 17 39  1  0
 19 40  1  0
 19 41  1  0
A    1
 C1 
A    2
 C2 
A    3
 C3 
A    4
 C4 
A    5
 C5 
A    6
 C6 
A    7
 C7 
A    8
 N1 
A    9
 C8 
A   10
 C9 
A   11
 O1 
A   12
 N2 
A   13
 C10
A   14
 C11
A   15
 C12
A   16
 C13
A   17
 C14
A   18
 O2 
A   19
 C15
A   20
 H1 
A   21
 H2 
A   22
 H3 
A   23
 H4 
A   24
 H5 
A   25
 H6 
A   26
 H7 
A   27
 H8 
A   28
 H9 
A   29
 H10
A   30
 H11
A   31
 H12
A   32
 H13
A   33
 H14
A   34
 H15
A   35
 H16
A   36
 H17
A   37
 H18
A   38
 H19
A   39
 H20
A   40
 H21
A   41
 H22
M  END
>  <ref_pdb>  (51) 
x0051_0B

>  <ref_mols>  (51) 
x0051_0B

>  <original SMILES>  (51) 
[H]c1c([H])c([H])c(C([H])([H])[H])c(N(C(=O)N([H])C([H])([H])C2([H])C([H])([H])OC([H])([H])C([H])([H])C2([H])[H])C([H])([H])[H])c1[H]

>  <index>  (51) 
2951.0

>  <∆∆G>  (51) 
-7.441245

>  <comRMSD>  (51) 
0.933104

>  <N_constrained_atoms>  (51) 
15.0

>  <N_unconstrained_atoms>  (51) 
8.0

>  <LE>  (51) 
0.323532

>  <percent_hybrid>  (51) 
27.0

>  <largest_ring>  (51) 
6.0

>  <N_HA>  (51) 
19.0

>  <N_rotatable_bonds>  (51) 
5.0

>  <max_hit_Tanimoto>  (51) 
0.17456

>  <N_interactions_kept>  (51) 
0.0

>  <N_interactions_lost>  (51) 
1.0

>  <interaction_uniqueness_metric>  (51) 
0.234663

>  <N_interactions>  (51) 
5.0

>  <N_PAINS>  (51) 
0.0

>  <UFF_Gibbs>  (51) 
142.934235

>  <strain_per_HA>  (51) 
7.522815

>  <ad_hoc_penalty>  (51) 
-26.191549

>  <cluster>  (51) 
4957.0

>  <intxn_cluster>  (51) 
15.0

>  <keep>  (51) 
1.0

>  <hydroph_interaction:GLN:74>  (51) 
0.0

>  <hydroph_interaction:THR:118>  (51) 
1.0

>  <hydroph_interaction:ILE:123>  (51) 
1.0

>  <hydroph_interaction:THR:166>  (51) 
0.0

>  <hbond:GLN:167>  (51) 
0.0

>  <hydroph_interaction:ALA:88>  (51) 
0.0

>  <hydroph_interaction:ASP:120>  (51) 
0.0

>  <hydroph_interaction:GLN:167>  (51) 
0.0

>  <hbond:THR:118>  (51) 
0.0

>  <hydroph_interaction:ALA:164>  (51) 
1.0

>  <hbond:ASP:120>  (51) 
0.0

>  <hbond:THR:166>  (51) 
0.0

>  <hydroph_interaction:LEU:76>  (51) 
0.0

>  <hbond:ILE:165>  (51) 
0.0

>  <halogenbond:GLN:74>  (51) 
0.0

>  <hbond:GLN:74>  (51) 
0.0

>  <hbond:LYS:73>  (51) 
0.0

>  <pistack:TRP:69>  (51) 
0.0

>  <hbond:TRP:83>  (51) 
0.0

>  <hydroph_interaction:TRP:83>  (51) 
0.0

>  <hydroph_interaction:TRP:69>  (51) 
0.0

>  <pication:TRP:69>  (51) 
0.0

>  <hydroph_interaction:PRO:82>  (51) 
0.0

>  <halogenbond:LYS:73>  (51) 
0.0

>  <hydroph_interaction:TYR:68>  (51) 
0.0

>  <halogenbond:GLN:167>  (51) 
0.0

>  <hydroph_interaction:PHE:116>  (51) 
2.0

>  <hbond:TYR:68>  (51) 
0.0

>  <hbond:ASP:122>  (51) 
0.0

>  <pistack:PHE:116>  (51) 
0.0

>  <hydroph_interaction:VAL:154>  (51) 
0.0

>  <hydroph_interaction:ASP:75>  (51) 
0.0

>  <hbond:GLY:121>  (51) 
0.0

>  <hydroph_interaction:ASN:152>  (51) 
0.0

>  <halogenbond:ILE:165>  (51) 
0.0

$$$$
Z1838356554-Z198195906S10-x0884S4
     RDKit          3D

 29 30  0  0  0  0  0  0  0  0999 V2000
  -11.7130  -13.7520   -8.3480 O   0  0  0  0  0  0  0  0  0  0  0  0
  -11.3260  -12.4360   -8.3130 C   0  0  0  0  0  0  0  0  0  0  0  0
  -12.0640  -11.4250   -7.4870 C   0  0  0  0  0  0  0  0  0  0  0  0
  -11.6180  -10.0850   -7.4970 C   0  0  0  0  0  0  0  0  0  0  0  0
  -10.5120   -9.7170   -8.2630 C   0  0  0  0  0  0  0  0  0  0  0  0
   -9.8670   -8.0460   -8.3400 S   0  0  0  0  0  0  0  0  0  0  0  0
  -11.1440   -6.9800   -7.6010 C   0  0  0  0  0  0  0  0  0  0  0  0
  -12.4310   -7.0820   -8.2790 C   0  0  0  0  0  0  0  0  0  0  0  0
  -13.7890   -7.2640   -8.8750 C   0  0  0  0  0  0  0  0  0  0  0  0
  -14.6880   -8.1580   -8.0660 C   0  0  0  0  0  0  0  0  0  0  0  0
  -14.1730   -9.5610   -7.8150 C   0  0  0  0  0  0  0  0  0  0  0  0
  -15.0610  -10.4840   -6.9960 C   0  0  0  0  0  0  0  0  0  0  0  0
  -16.3690   -9.9280   -6.5120 C   0  0  0  0  0  0  0  0  0  0  0  0
  -16.7370   -8.6090   -6.8100 C   0  0  0  0  0  0  0  0  0  0  0  0
  -15.9180   -7.7460   -7.5640 C   0  0  0  0  0  0  0  0  0  0  0  0
   -9.8440  -10.6850   -9.0210 C   0  0  0  0  0  0  0  0  0  0  0  0
  -10.2320  -12.0250   -9.0560 C   0  0  0  0  0  0  0  0  0  0  0  0
  -11.0240  -14.3470   -7.9650 H   0  0  0  0  0  0  0  0  0  0  0  0
  -12.9260  -11.6980   -6.8880 H   0  0  0  0  0  0  0  0  0  0  0  0
  -12.1450   -9.3420   -6.9010 H   0  0  0  0  0  0  0  0  0  0  0  0
  -10.7840   -5.9480   -7.6640 H   0  0  0  0  0  0  0  0  0  0  0  0
  -11.2470   -7.2120   -6.5360 H   0  0  0  0  0  0  0  0  0  0  0  0
  -13.2170   -9.8950   -8.2010 H   0  0  0  0  0  0  0  0  0  0  0  0
  -14.7610  -11.5050   -6.7720 H   0  0  0  0  0  0  0  0  0  0  0  0
  -17.0370  -10.5550   -5.9260 H   0  0  0  0  0  0  0  0  0  0  0  0
  -17.6890   -8.2330   -6.4480 H   0  0  0  0  0  0  0  0  0  0  0  0
  -16.2630   -6.7320   -7.7570 H   0  0  0  0  0  0  0  0  0  0  0  0
   -8.9860  -10.3970   -9.6140 H   0  0  0  0  0  0  0  0  0  0  0  0
   -9.6820  -12.7390   -9.6630 H   0  0  0  0  0  0  0  0  0  0  0  0
  1  2  1  0
  2  3  2  0
  3  4  1  0
  4  5  2  0
  5  6  1  0
  6  7  1  0
  7  8  1  0
  8  9  3  0
  9 10  1  0
 10 11  2  0
 11 12  1  0
 12 13  2  0
 13 14  1  0
 14 15  2  0
  5 16  1  0
 16 17  2  0
 17  2  1  0
 15 10  1  0
  1 18  1  0
  3 19  1  0
  4 20  1  0
  7 21  1  0
  7 22  1  0
 11 23  1  0
 12 24  1  0
 13 25  1  0
 14 26  1  0
 15 27  1  0
 16 28  1  0
 17 29  1  0
A    1
 O1 
A    2
 C1 
A    3
 C2 
A    4
 C3 
A    5
 C4 
A    6
 S1 
A    7
 C5 
A    8
 C6 
A    9
 C7 
A   10
 C8 
A   11
 C9 
A   12
 C10
A   13
 C11
A   14
 C12
A   15
 C13
A   16
 C14
A   17
 C15
A   18
 H1 
A   19
 H2 
A   20
 H3 
A   21
 H4 
A   22
 H5 
A   23
 H6 
A   24
 H7 
A   25
 H8 
A   26
 H9 
A   27
 H10
A   28
 H11
A   29
 H12
M  END
>  <ref_pdb>  (52) 
x0051_0B

>  <ref_mols>  (52) 
x0051_0B

>  <original SMILES>  (52) 
[H]Oc1c([H])c([H])c(SC([H])([H])C#Cc2c([H])c([H])c([H])c([H])c2[H])c([H])c1[H]

>  <index>  (52) 
2110.0

>  <∆∆G>  (52) 
-5.27482

>  <comRMSD>  (52) 
0.528695

>  <N_constrained_atoms>  (52) 
15.0

>  <N_unconstrained_atoms>  (52) 
2.0

>  <LE>  (52) 
0.310284

>  <percent_hybrid>  (52) 
47.0

>  <largest_ring>  (52) 
6.0

>  <N_HA>  (52) 
17.0

>  <N_rotatable_bonds>  (52) 
3.0

>  <max_hit_Tanimoto>  (52) 
0.161417

>  <N_interactions_kept>  (52) 
0.0

>  <N_interactions_lost>  (52) 
1.0

>  <interaction_uniqueness_metric>  (52) 
0.108421

>  <N_interactions>  (52) 
5.0

>  <N_PAINS>  (52) 
0.0

>  <UFF_Gibbs>  (52) 
397.735894

>  <strain_per_HA>  (52) 
23.396091

>  <ad_hoc_penalty>  (52) 
-26.154292

>  <cluster>  (52) 
751.0

>  <intxn_cluster>  (52) 
13.0

>  <keep>  (52) 
1.0

>  <hydroph_interaction:GLN:74>  (52) 
1.0

>  <hydroph_interaction:THR:118>  (52) 
1.0

>  <hydroph_interaction:ILE:123>  (52) 
2.0

>  <hydroph_interaction:THR:166>  (52) 
0.0

>  <hbond:GLN:167>  (52) 
0.0

>  <hydroph_interaction:ALA:88>  (52) 
0.0

>  <hydroph_interaction:ASP:120>  (52) 
0.0

>  <hydroph_interaction:GLN:167>  (52) 
0.0

>  <hbond:THR:118>  (52) 
0.0

>  <hydroph_interaction:ALA:164>  (52) 
0.0

>  <hbond:ASP:120>  (52) 
1.0

>  <hbond:THR:166>  (52) 
0.0

>  <hydroph_interaction:LEU:76>  (52) 
0.0

>  <hbond:ILE:165>  (52) 
0.0

>  <halogenbond:GLN:74>  (52) 
0.0

>  <hbond:GLN:74>  (52) 
0.0

>  <hbond:LYS:73>  (52) 
0.0

>  <pistack:TRP:69>  (52) 
0.0

>  <hbond:TRP:83>  (52) 
0.0

>  <hydroph_interaction:TRP:83>  (52) 
0.0

>  <hydroph_interaction:TRP:69>  (52) 
0.0

>  <pication:TRP:69>  (52) 
0.0

>  <hydroph_interaction:PRO:82>  (52) 
0.0

>  <halogenbond:LYS:73>  (52) 
0.0

>  <hydroph_interaction:TYR:68>  (52) 
0.0

>  <halogenbond:GLN:167>  (52) 
0.0

>  <hydroph_interaction:PHE:116>  (52) 
0.0

>  <hbond:TYR:68>  (52) 
0.0

>  <hbond:ASP:122>  (52) 
0.0

>  <pistack:PHE:116>  (52) 
0.0

>  <hydroph_interaction:VAL:154>  (52) 
0.0

>  <hydroph_interaction:ASP:75>  (52) 
0.0

>  <hbond:GLY:121>  (52) 
0.0

>  <hydroph_interaction:ASN:152>  (52) 
0.0

>  <halogenbond:ILE:165>  (52) 
0.0

$$$$
Z3238074043-x0884S2-Z1318055457S4
     RDKit          3D

 28 30  0  0  0  0  0  0  0  0999 V2000
  -13.2830   -6.4680   -8.8440 N   0  0  0  0  0  0  0  0  0  0  0  0
  -13.1320   -7.7640   -8.4350 C   0  0  0  0  0  0  0  0  0  0  0  0
  -14.2960   -8.4400   -7.7790 C   0  0  0  0  0  0  0  0  0  0  0  0
  -15.5640   -7.9210   -7.9680 C   0  0  0  0  0  0  0  0  0  0  0  0
  -16.6530   -8.5540   -7.3610 C   0  0  0  0  0  0  0  0  0  0  0  0
  -16.5090   -9.6500   -6.6020 N   0  0  0  0  0  0  0  0  0  0  0  0
  -15.2600  -10.1560   -6.4130 N   0  0  0  0  0  0  0  0  0  0  0  0
  -14.1780   -9.5740   -6.9770 C   0  0  0  0  0  0  0  0  0  0  0  0
  -13.0410  -10.2420   -6.6340 O   0  0  0  0  0  0  0  0  0  0  0  0
  -11.9760  -10.5320   -7.5310 C   0  0  0  0  0  0  0  0  0  0  0  0
  -11.8700  -11.9850   -7.9010 C   0  0  0  0  0  0  0  0  0  0  0  0
  -10.8480  -12.3910   -8.7570 C   0  0  0  0  0  0  0  0  0  0  0  0
   -9.9550  -11.4480   -9.2480 C   0  0  0  0  0  0  0  0  0  0  0  0
  -10.0670  -10.0820   -8.9030 C   0  0  0  0  0  0  0  0  0  0  0  0
   -9.0930   -9.1270   -9.4630 C   0  0  0  0  0  0  0  0  0  0  0  0
   -9.0580   -7.6390   -9.2070 C   0  0  0  0  0  0  0  0  0  0  0  0
  -10.0410   -7.1710   -8.3670 C   0  0  0  0  0  0  0  0  0  0  0  0
  -11.0940   -8.0870   -7.7350 C   0  0  0  0  0  0  0  0  0  0  0  0
  -11.0620   -9.5870   -8.0490 C   0  0  0  0  0  0  0  0  0  0  0  0
  -15.7200   -7.0380   -8.5760 H   0  0  0  0  0  0  0  0  0  0  0  0
  -17.6710   -8.1900   -7.4730 H   0  0  0  0  0  0  0  0  0  0  0  0
  -12.5720  -12.7170   -7.5080 H   0  0  0  0  0  0  0  0  0  0  0  0
  -10.7470  -13.4380   -9.0360 H   0  0  0  0  0  0  0  0  0  0  0  0
   -9.1610  -11.7890   -9.9130 H   0  0  0  0  0  0  0  0  0  0  0  0
   -8.3390   -9.5270  -10.1110 H   0  0  0  0  0  0  0  0  0  0  0  0
   -8.3100   -6.9880   -9.6550 H   0  0  0  0  0  0  0  0  0  0  0  0
  -10.0720   -6.1090   -8.1380 H   0  0  0  0  0  0  0  0  0  0  0  0
  -11.8390   -7.6460   -7.0780 H   0  0  0  0  0  0  0  0  0  0  0  0
  1  2  3  0
  2  3  1  0
  3  4  2  0
  4  5  1  0
  5  6  2  0
  6  7  1  0
  7  8  2  0
  8  9  1  0
  9 10  1  0
 10 11  2  0
 11 12  1  0
 12 13  2  0
 13 14  1  0
 14 15  2  0
 15 16  1  0
 16 17  2  0
 17 18  1  0
 18 19  2  0
  8  3  1  0
 19 10  1  0
 19 14  1  0
  4 20  1  0
  5 21  1  0
 11 22  1  0
 12 23  1  0
 13 24  1  0
 15 25  1  0
 16 26  1  0
 17 27  1  0
 18 28  1  0
A    1
 N1 
A    2
 C1 
A    3
 C2 
A    4
 C3 
A    5
 C4 
A    6
 N2 
A    7
 N3 
A    8
 C5 
A    9
 O1 
A   10
 C6 
A   11
 C7 
A   12
 C8 
A   13
 C9 
A   14
 C10
A   15
 C11
A   16
 C12
A   17
 C13
A   18
 C14
A   19
 C15
A   20
 H1 
A   21
 H2 
A   22
 H3 
A   23
 H4 
A   24
 H5 
A   25
 H6 
A   26
 H7 
A   27
 H8 
A   28
 H9 
M  END
>  <ref_pdb>  (53) 
x0051_0B

>  <ref_mols>  (53) 
x0051_0B

>  <original SMILES>  (53) 
[H]c1nnc(Oc2c([H])c([H])c([H])c3c([H])c([H])c([H])c([H])c23)c(C#N)c1[H]

>  <index>  (53) 
6931.0

>  <∆∆G>  (53) 
-2.707957

>  <comRMSD>  (53) 
0.565136

>  <N_constrained_atoms>  (53) 
18.0

>  <N_unconstrained_atoms>  (53) 
1.0

>  <LE>  (53) 
0.142524

>  <percent_hybrid>  (53) 
48.0

>  <largest_ring>  (53) 
6.0

>  <N_HA>  (53) 
19.0

>  <N_rotatable_bonds>  (53) 
2.0

>  <max_hit_Tanimoto>  (53) 
0.161351

>  <N_interactions_kept>  (53) 
0.0

>  <N_interactions_lost>  (53) 
0.5

>  <interaction_uniqueness_metric>  (53) 
0.037003

>  <N_interactions>  (53) 
5.0

>  <N_PAINS>  (53) 
0.0

>  <UFF_Gibbs>  (53) 
360.229753

>  <strain_per_HA>  (53) 
18.959361

>  <ad_hoc_penalty>  (53) 
-26.125291

>  <cluster>  (53) 
3263.0

>  <intxn_cluster>  (53) 
13.0

>  <keep>  (53) 
1.0

>  <hydroph_interaction:GLN:74>  (53) 
0.0

>  <hydroph_interaction:THR:118>  (53) 
1.0

>  <hydroph_interaction:ILE:123>  (53) 
4.0

>  <hydroph_interaction:THR:166>  (53) 
0.0

>  <hbond:GLN:167>  (53) 
0.0

>  <hydroph_interaction:ALA:88>  (53) 
0.0

>  <hydroph_interaction:ASP:120>  (53) 
0.0

>  <hydroph_interaction:GLN:167>  (53) 
0.0

>  <hbond:THR:118>  (53) 
0.0

>  <hydroph_interaction:ALA:164>  (53) 
0.0

>  <hbond:ASP:120>  (53) 
0.0

>  <hbond:THR:166>  (53) 
0.0

>  <hydroph_interaction:LEU:76>  (53) 
0.0

>  <hbond:ILE:165>  (53) 
0.0

>  <halogenbond:GLN:74>  (53) 
0.0

>  <hbond:GLN:74>  (53) 
0.0

>  <hbond:LYS:73>  (53) 
0.0

>  <pistack:TRP:69>  (53) 
0.0

>  <hbond:TRP:83>  (53) 
0.0

>  <hydroph_interaction:TRP:83>  (53) 
0.0

>  <hydroph_interaction:TRP:69>  (53) 
0.0

>  <pication:TRP:69>  (53) 
0.0

>  <hydroph_interaction:PRO:82>  (53) 
0.0

>  <halogenbond:LYS:73>  (53) 
0.0

>  <hydroph_interaction:TYR:68>  (53) 
0.0

>  <halogenbond:GLN:167>  (53) 
0.0

>  <hydroph_interaction:PHE:116>  (53) 
0.0

>  <hbond:TYR:68>  (53) 
0.0

>  <hbond:ASP:122>  (53) 
0.0

>  <pistack:PHE:116>  (53) 
0.0

>  <hydroph_interaction:VAL:154>  (53) 
0.0

>  <hydroph_interaction:ASP:75>  (53) 
0.0

>  <hbond:GLY:121>  (53) 
0.0

>  <hydroph_interaction:ASN:152>  (53) 
0.0

>  <halogenbond:ILE:165>  (53) 
0.0

$$$$
Z1437038071-Z198195906S5-x0214S3
     RDKit          3D

 31 32  0  0  0  0  0  0  0  0999 V2000
   -9.8950   -7.7210   -8.6200 C   0  0  0  0  0  0  0  0  0  0  0  0
  -10.6250   -8.3700   -7.5390 N   0  0  0  0  0  0  0  0  0  0  0  0
  -10.8780   -9.7490   -7.6140 C   0  0  0  0  0  0  0  0  0  0  0  0
   -9.9220  -10.6330   -8.1040 C   0  0  0  0  0  0  0  0  0  0  0  0
  -10.1380  -12.0080   -8.2080 C   0  0  0  0  0  0  0  0  0  0  0  0
  -11.3380  -12.5430   -7.8110 C   0  0  0  0  0  0  0  0  0  0  0  0
  -12.3210  -11.6950   -7.3050 C   0  0  0  0  0  0  0  0  0  0  0  0
  -12.1120  -10.2990   -7.1970 C   0  0  0  0  0  0  0  0  0  0  0  0
  -13.2000   -9.4040   -6.6300 C   0  0  0  0  0  0  0  0  0  0  0  0
  -14.0690   -8.8390   -7.6130 O   0  0  0  0  0  0  0  0  0  0  0  0
  -13.5280   -7.9640   -8.5090 C   0  0  0  0  0  0  0  0  0  0  0  0
  -12.9290   -6.8270   -7.9620 C   0  0  0  0  0  0  0  0  0  0  0  0
  -12.3420   -5.8700   -8.7940 C   0  0  0  0  0  0  0  0  0  0  0  0
  -12.3540   -6.0520  -10.1730 C   0  0  0  0  0  0  0  0  0  0  0  0
  -12.9540   -7.1840  -10.7140 C   0  0  0  0  0  0  0  0  0  0  0  0
  -13.5400   -8.1310   -9.8840 C   0  0  0  0  0  0  0  0  0  0  0  0
   -9.0270   -8.3110   -8.9250 H   0  0  0  0  0  0  0  0  0  0  0  0
   -9.5830   -6.7110   -8.3360 H   0  0  0  0  0  0  0  0  0  0  0  0
  -10.5510   -7.6300   -9.4910 H   0  0  0  0  0  0  0  0  0  0  0  0
  -11.4580   -7.8490   -7.2830 H   0  0  0  0  0  0  0  0  0  0  0  0
   -8.9730  -10.2690   -8.4270 H   0  0  0  0  0  0  0  0  0  0  0  0
   -9.3620  -12.6550   -8.6030 H   0  0  0  0  0  0  0  0  0  0  0  0
  -11.5170  -13.6120   -7.8870 H   0  0  0  0  0  0  0  0  0  0  0  0
  -13.2640  -12.1350   -6.9890 H   0  0  0  0  0  0  0  0  0  0  0  0
  -13.8140  -10.0080   -5.9500 H   0  0  0  0  0  0  0  0  0  0  0  0
  -12.7070   -8.5920   -6.0840 H   0  0  0  0  0  0  0  0  0  0  0  0
  -12.9180   -6.6850   -6.8840 H   0  0  0  0  0  0  0  0  0  0  0  0
  -11.8780   -4.9860   -8.3610 H   0  0  0  0  0  0  0  0  0  0  0  0
  -11.8980   -5.3130  -10.8290 H   0  0  0  0  0  0  0  0  0  0  0  0
  -12.9670   -7.3290  -11.7910 H   0  0  0  0  0  0  0  0  0  0  0  0
  -14.0000   -8.9940  -10.3440 H   0  0  0  0  0  0  0  0  0  0  0  0
  1  2  1  0
  2  3  1  0
  3  4  2  0
  4  5  1  0
  5  6  2  0
  6  7  1  0
  7  8  2  0
  8  9  1  0
  9 10  1  0
 10 11  1  0
 11 12  2  0
 12 13  1  0
 13 14  2  0
 14 15  1  0
 15 16  2  0
  8  3  1  0
 16 11  1  0
  1 17  1  0
  1 18  1  0
  1 19  1  0
  2 20  1  0
  4 21  1  0
  5 22  1  0
  6 23  1  0
  7 24  1  0
  9 25  1  0
  9 26  1  0
 12 27  1  0
 13 28  1  0
 14 29  1  0
 15 30  1  0
 16 31  1  0
A    1
 C1 
A    2
 N1 
A    3
 C2 
A    4
 C3 
A    5
 C4 
A    6
 C5 
A    7
 C6 
A    8
 C7 
A    9
 C8 
A   10
 O1 
A   11
 C9 
A   12
 C10
A   13
 C11
A   14
 C12
A   15
 C13
A   16
 C14
A   17
 H1 
A   18
 H2 
A   19
 H3 
A   20
 H4 
A   21
 H5 
A   22
 H6 
A   23
 H7 
A   24
 H8 
A   25
 H9 
A   26
 H10
A   27
 H11
A   28
 H12
A   29
 H13
A   30
 H14
A   31
 H15
M  END
>  <ref_pdb>  (54) 
x0051_0B

>  <ref_mols>  (54) 
x0051_0B

>  <original SMILES>  (54) 
[H]c1c([H])c([H])c(OC([H])([H])c2c([H])c([H])c([H])c([H])c2N([H])C([H])([H])[H])c([H])c1[H]

>  <index>  (54) 
1809.0

>  <∆∆G>  (54) 
-5.827165

>  <comRMSD>  (54) 
0.592262

>  <N_constrained_atoms>  (54) 
14.0

>  <N_unconstrained_atoms>  (54) 
2.0

>  <LE>  (54) 
0.364198

>  <percent_hybrid>  (54) 
43.0

>  <largest_ring>  (54) 
6.0

>  <N_HA>  (54) 
16.0

>  <N_rotatable_bonds>  (54) 
5.0

>  <max_hit_Tanimoto>  (54) 
0.132492

>  <N_interactions_kept>  (54) 
0.0

>  <N_interactions_lost>  (54) 
1.0

>  <interaction_uniqueness_metric>  (54) 
0.082886

>  <N_interactions>  (54) 
6.0

>  <N_PAINS>  (54) 
0.0

>  <UFF_Gibbs>  (54) 
90.596345

>  <strain_per_HA>  (54) 
5.662236

>  <ad_hoc_penalty>  (54) 
-26.071718

>  <cluster>  (54) 
5449.0

>  <intxn_cluster>  (54) 
18.0

>  <keep>  (54) 
1.0

>  <hydroph_interaction:GLN:74>  (54) 
0.0

>  <hydroph_interaction:THR:118>  (54) 
1.0

>  <hydroph_interaction:ILE:123>  (54) 
3.0

>  <hydroph_interaction:THR:166>  (54) 
1.0

>  <hbond:GLN:167>  (54) 
0.0

>  <hydroph_interaction:ALA:88>  (54) 
0.0

>  <hydroph_interaction:ASP:120>  (54) 
1.0

>  <hydroph_interaction:GLN:167>  (54) 
0.0

>  <hbond:THR:118>  (54) 
0.0

>  <hydroph_interaction:ALA:164>  (54) 
0.0

>  <hbond:ASP:120>  (54) 
0.0

>  <hbond:THR:166>  (54) 
0.0

>  <hydroph_interaction:LEU:76>  (54) 
0.0

>  <hbond:ILE:165>  (54) 
0.0

>  <halogenbond:GLN:74>  (54) 
0.0

>  <hbond:GLN:74>  (54) 
0.0

>  <hbond:LYS:73>  (54) 
0.0

>  <pistack:TRP:69>  (54) 
0.0

>  <hbond:TRP:83>  (54) 
0.0

>  <hydroph_interaction:TRP:83>  (54) 
0.0

>  <hydroph_interaction:TRP:69>  (54) 
0.0

>  <pication:TRP:69>  (54) 
0.0

>  <hydroph_interaction:PRO:82>  (54) 
0.0

>  <halogenbond:LYS:73>  (54) 
0.0

>  <hydroph_interaction:TYR:68>  (54) 
0.0

>  <halogenbond:GLN:167>  (54) 
0.0

>  <hydroph_interaction:PHE:116>  (54) 
0.0

>  <hbond:TYR:68>  (54) 
0.0

>  <hbond:ASP:122>  (54) 
0.0

>  <pistack:PHE:116>  (54) 
0.0

>  <hydroph_interaction:VAL:154>  (54) 
0.0

>  <hydroph_interaction:ASP:75>  (54) 
0.0

>  <hbond:GLY:121>  (54) 
0.0

>  <hydroph_interaction:ASN:152>  (54) 
0.0

>  <halogenbond:ILE:165>  (54) 
0.0

$$$$
Z3380016893-x0944S1-x0130S2
     RDKit          3D

 31 32  0  0  0  0  0  0  0  0999 V2000
  -27.6230   -7.5440   -4.6290 C   0  0  0  0  0  0  0  0  0  0  0  0
  -26.2200   -7.3770   -5.0560 C   0  0  0  0  0  0  0  0  0  0  0  0
  -25.6240   -8.3240   -5.8970 C   0  0  0  0  0  0  0  0  0  0  0  0
  -24.3090   -8.1600   -6.2950 C   0  0  0  0  0  0  0  0  0  0  0  0
  -23.7300   -9.0570   -7.1050 F   0  0  0  0  0  0  0  0  0  0  0  0
  -23.5820   -7.0740   -5.8680 C   0  0  0  0  0  0  0  0  0  0  0  0
  -21.7980   -6.8510   -6.4200 Br  0  0  0  0  0  0  0  0  0  0  0  0
  -24.1800   -6.1380   -5.0310 C   0  0  0  0  0  0  0  0  0  0  0  0
  -25.4970   -6.2630   -4.6130 C   0  0  0  0  0  0  0  0  0  0  0  0
  -26.0300   -5.2620   -3.7860 C   0  0  0  0  0  0  0  0  0  0  0  0
  -26.3360   -4.1830   -4.2740 O   0  0  0  0  0  0  0  0  0  0  0  0
  -26.2010   -5.5720   -2.3620 N   0  0  0  0  0  0  0  0  0  0  0  0
  -25.7470   -6.9030   -1.9200 C   0  0  0  0  0  0  0  0  0  0  0  0
  -26.2620   -7.1480   -0.6370 C   0  0  0  0  0  0  0  0  0  0  0  0
  -27.7310   -6.9780   -0.5370 N   0  0  0  0  0  0  0  0  0  0  0  0
  -28.1330   -5.7340   -0.9000 C   0  0  0  0  0  0  0  0  0  0  0  0
  -27.0450   -4.8140   -1.4310 C   0  0  0  0  0  0  0  0  0  0  0  0
  -27.9010   -6.7910   -3.8870 H   0  0  0  0  0  0  0  0  0  0  0  0
  -28.2860   -7.4380   -5.4950 H   0  0  0  0  0  0  0  0  0  0  0  0
  -27.7970   -8.5350   -4.2010 H   0  0  0  0  0  0  0  0  0  0  0  0
  -26.1870   -9.1910   -6.2430 H   0  0  0  0  0  0  0  0  0  0  0  0
  -23.6200   -5.3060   -4.7120 H   0  0  0  0  0  0  0  0  0  0  0  0
  -24.6520   -6.9440   -1.9140 H   0  0  0  0  0  0  0  0  0  0  0  0
  -26.1130   -7.6420   -2.6410 H   0  0  0  0  0  0  0  0  0  0  0  0
  -25.8450   -6.6120    0.2080 H   0  0  0  0  0  0  0  0  0  0  0  0
  -26.0580   -8.2010   -0.4080 H   0  0  0  0  0  0  0  0  0  0  0  0
  -28.0340   -7.1540    0.4200 H   0  0  0  0  0  0  0  0  0  0  0  0
  -28.5060   -5.2570    0.0110 H   0  0  0  0  0  0  0  0  0  0  0  0
  -29.0190   -5.8750   -1.5300 H   0  0  0  0  0  0  0  0  0  0  0  0
  -26.4200   -4.3310   -0.6980 H   0  0  0  0  0  0  0  0  0  0  0  0
  -27.5030   -4.0210   -2.0250 H   0  0  0  0  0  0  0  0  0  0  0  0
  1  2  1  0
  2  3  2  0
  3  4  1  0
  4  5  1  0
  4  6  2  0
  6  7  1  0
  6  8  1  0
  8  9  2  0
  9 10  1  0
 10 11  2  0
 10 12  1  0
 12 13  1  0
 13 14  1  0
 14 15  1  0
 15 16  1  0
 16 17  1  0
  9  2  1  0
 17 12  1  0
  1 18  1  0
  1 19  1  0
  1 20  1  0
  3 21  1  0
  8 22  1  0
 13 23  1  0
 13 24  1  0
 14 25  1  0
 14 26  1  0
 15 27  1  0
 16 28  1  0
 16 29  1  0
 17 30  1  0
 17 31  1  0
A    1
 C1 
A    2
 C2 
A    3
 C3 
A    4
 C4 
A    5
 F1 
A    6
 C5 
A    7
BR1 
A    8
 C6 
A    9
 C7 
A   10
 C8 
A   11
 O1 
A   12
 N1 
A   13
 C9 
A   14
 C10
A   15
 N2 
A   16
 C11
A   17
 C12
A   18
 H1 
A   19
 H2 
A   20
 H3 
A   21
 H4 
A   22
 H5 
A   23
 H6 
A   24
 H7 
A   25
 H8 
A   26
 H9 
A   27
 H10
A   28
 H11
A   29
 H12
A   30
 H13
A   31
 H14
M  END
>  <ref_pdb>  (55) 
x0051_0B

>  <ref_mols>  (55) 
x0051_0B

>  <original SMILES>  (55) 
[H]c1c(Br)c(F)c([H])c(C([H])([H])[H])c1C(=O)N1C([H])([H])C([H])([H])N([H])C([H])([H])C1([H])[H]

>  <index>  (55) 
1030.0

>  <∆∆G>  (55) 
-5.634842

>  <comRMSD>  (55) 
0.358237

>  <N_constrained_atoms>  (55) 
16.0

>  <N_unconstrained_atoms>  (55) 
1.0

>  <LE>  (55) 
0.331461

>  <percent_hybrid>  (55) 
38.0

>  <largest_ring>  (55) 
6.0

>  <N_HA>  (55) 
17.0

>  <N_rotatable_bonds>  (55) 
2.0

>  <max_hit_Tanimoto>  (55) 
0.219966

>  <N_interactions_kept>  (55) 
0.0

>  <N_interactions_lost>  (55) 
2.5

>  <interaction_uniqueness_metric>  (55) 
0.360658

>  <N_interactions>  (55) 
6.0

>  <N_PAINS>  (55) 
0.0

>  <UFF_Gibbs>  (55) 
45.782279

>  <strain_per_HA>  (55) 
2.693059

>  <ad_hoc_penalty>  (55) 
-26.03765

>  <cluster>  (55) 
5650.0

>  <intxn_cluster>  (55) 
19.0

>  <keep>  (55) 
1.0

>  <hydroph_interaction:GLN:74>  (55) 
0.0

>  <hydroph_interaction:THR:118>  (55) 
0.0

>  <hydroph_interaction:ILE:123>  (55) 
0.0

>  <hydroph_interaction:THR:166>  (55) 
0.0

>  <hbond:GLN:167>  (55) 
0.0

>  <hydroph_interaction:ALA:88>  (55) 
0.0

>  <hydroph_interaction:ASP:120>  (55) 
0.0

>  <hydroph_interaction:GLN:167>  (55) 
0.0

>  <hbond:THR:118>  (55) 
0.0

>  <hydroph_interaction:ALA:164>  (55) 
0.0

>  <hbond:ASP:120>  (55) 
0.0

>  <hbond:THR:166>  (55) 
0.0

>  <hydroph_interaction:LEU:76>  (55) 
0.0

>  <hbond:ILE:165>  (55) 
0.0

>  <halogenbond:GLN:74>  (55) 
1.0

>  <hbond:GLN:74>  (55) 
0.0

>  <hbond:LYS:73>  (55) 
0.0

>  <pistack:TRP:69>  (55) 
2.0

>  <hbond:TRP:83>  (55) 
1.0

>  <hydroph_interaction:TRP:83>  (55) 
1.0

>  <hydroph_interaction:TRP:69>  (55) 
0.0

>  <pication:TRP:69>  (55) 
0.0

>  <hydroph_interaction:PRO:82>  (55) 
1.0

>  <halogenbond:LYS:73>  (55) 
0.0

>  <hydroph_interaction:TYR:68>  (55) 
0.0

>  <halogenbond:GLN:167>  (55) 
0.0

>  <hydroph_interaction:PHE:116>  (55) 
0.0

>  <hbond:TYR:68>  (55) 
0.0

>  <hbond:ASP:122>  (55) 
0.0

>  <pistack:PHE:116>  (55) 
0.0

>  <hydroph_interaction:VAL:154>  (55) 
0.0

>  <hydroph_interaction:ASP:75>  (55) 
0.0

>  <hbond:GLY:121>  (55) 
0.0

>  <hydroph_interaction:ASN:152>  (55) 
0.0

>  <halogenbond:ILE:165>  (55) 
0.0

$$$$
Z1148966064-Z198195906S9-x0806S1
     RDKit          3D

 33 34  0  0  0  0  0  0  0  0999 V2000
  -10.2500   -5.6790  -10.6450 C   0  0  0  0  0  0  0  0  0  0  0  0
  -10.6550   -6.3200   -9.3690 C   0  0  2  0  0  0  0  0  0  0  0  0
   -9.9590   -7.4360   -9.0030 N   0  0  0  0  0  0  0  0  0  0  0  0
  -10.3500   -8.0990   -7.8680 C   0  0  0  0  0  0  0  0  0  0  0  0
  -10.8280   -9.4220   -7.8990 C   0  0  0  0  0  0  0  0  0  0  0  0
  -12.1830   -9.7080   -7.7020 C   0  0  0  0  0  0  0  0  0  0  0  0
  -12.6320  -11.1400   -7.7630 C   0  0  0  0  0  0  0  0  0  0  0  0
  -11.6250  -12.2010   -8.0340 C   0  0  0  0  0  0  0  0  0  0  0  0
  -12.1400  -13.8330   -8.1250 Cl  0  0  0  0  0  0  0  0  0  0  0  0
  -10.2990  -11.8290   -8.2070 C   0  0  0  0  0  0  0  0  0  0  0  0
   -9.9280  -10.4800   -8.1360 C   0  0  0  0  0  0  0  0  0  0  0  0
  -12.1170   -6.6450   -9.2690 C   0  0  0  0  0  0  0  0  0  0  0  0
  -12.7710   -7.3190  -10.3080 C   0  0  0  0  0  0  0  0  0  0  0  0
  -14.0770   -7.6050  -10.1240 C   0  0  0  0  0  0  0  0  0  0  0  0
  -14.7920   -7.2250   -8.8980 C   0  0  0  0  0  0  0  0  0  0  0  0
  -14.1430   -6.5430   -7.8830 C   0  0  0  0  0  0  0  0  0  0  0  0
  -12.8060   -6.2710   -8.1050 C   0  0  0  0  0  0  0  0  0  0  0  0
   -9.7990   -4.6950  -10.4740 H   0  0  0  0  0  0  0  0  0  0  0  0
  -11.1260   -5.5260  -11.2810 H   0  0  0  0  0  0  0  0  0  0  0  0
   -9.5230   -6.3070  -11.1670 H   0  0  0  0  0  0  0  0  0  0  0  0
  -10.4910   -5.5800   -8.5770 H   0  0  0  0  0  0  0  0  0  0  0  0
   -9.9970   -8.0930   -9.7840 H   0  0  0  0  0  0  0  0  0  0  0  0
   -9.5170   -8.0990   -7.1570 H   0  0  0  0  0  0  0  0  0  0  0  0
  -11.1390   -7.5200   -7.3770 H   0  0  0  0  0  0  0  0  0  0  0  0
  -12.9060   -8.9150   -7.5110 H   0  0  0  0  0  0  0  0  0  0  0  0
  -13.6790  -11.3880   -7.6160 H   0  0  0  0  0  0  0  0  0  0  0  0
   -9.5410  -12.5840   -8.4010 H   0  0  0  0  0  0  0  0  0  0  0  0
   -8.8920  -10.2320   -8.2760 H   0  0  0  0  0  0  0  0  0  0  0  0
  -12.2710   -7.6160  -11.2230 H   0  0  0  0  0  0  0  0  0  0  0  0
  -14.6190   -8.1340  -10.9060 H   0  0  0  0  0  0  0  0  0  0  0  0
  -15.8390   -7.4770   -8.7770 H   0  0  0  0  0  0  0  0  0  0  0  0
  -14.6700   -6.2540   -6.9770 H   0  0  0  0  0  0  0  0  0  0  0  0
  -12.2900   -5.7430   -7.3100 H   0  0  0  0  0  0  0  0  0  0  0  0
  1  2  1  0
  2  3  1  0
  3  4  1  0
  4  5  1  0
  5  6  2  0
  6  7  1  0
  7  8  2  0
  8  9  1  0
  8 10  1  0
 10 11  2  0
  2 12  1  0
 12 13  2  0
 13 14  1  0
 14 15  2  0
 15 16  1  0
 16 17  2  0
 11  5  1  0
 17 12  1  0
  1 18  1  0
  1 19  1  0
  1 20  1  0
  2 21  1  1
  3 22  1  0
  4 23  1  0
  4 24  1  0
  6 25  1  0
  7 26  1  0
 10 27  1  0
 11 28  1  0
 13 29  1  0
 14 30  1  0
 15 31  1  0
 16 32  1  0
 17 33  1  0
A    1
 C1 
A    2
 C2 
A    3
 N1 
A    4
 C3 
A    5
 C4 
A    6
 C5 
A    7
 C6 
A    8
 C7 
A    9
CL1 
A   10
 C8 
A   11
 C9 
A   12
 C10
A   13
 C11
A   14
 C12
A   15
 C13
A   16
 C14
A   17
 C15
A   18
 H1 
A   19
 H2 
A   20
 H3 
A   21
 H4 
A   22
 H5 
A   23
 H6 
A   24
 H7 
A   25
 H8 
A   26
 H9 
A   27
 H10
A   28
 H11
A   29
 H12
A   30
 H13
A   31
 H14
A   32
 H15
A   33
 H16
M  END
>  <ref_pdb>  (56) 
x0051_0B

>  <ref_mols>  (56) 
x0051_0B

>  <original SMILES>  (56) 
[H]c1c([H])c([H])c([C@@]([H])(N([H])C([H])([H])c2c([H])c([H])c(Cl)c([H])c2[H])C([H])([H])[H])c([H])c1[H]

>  <index>  (56) 
310.0

>  <∆∆G>  (56) 
-6.866739

>  <comRMSD>  (56) 
0.696343

>  <N_constrained_atoms>  (56) 
16.0

>  <N_unconstrained_atoms>  (56) 
1.0

>  <LE>  (56) 
0.403926

>  <percent_hybrid>  (56) 
34.0

>  <largest_ring>  (56) 
6.0

>  <N_HA>  (56) 
17.0

>  <N_rotatable_bonds>  (56) 
5.0

>  <max_hit_Tanimoto>  (56) 
0.330739

>  <N_interactions_kept>  (56) 
0.0

>  <N_interactions_lost>  (56) 
1.5

>  <interaction_uniqueness_metric>  (56) 
0.107231

>  <N_interactions>  (56) 
6.0

>  <N_PAINS>  (56) 
0.0

>  <UFF_Gibbs>  (56) 
74.850571

>  <strain_per_HA>  (56) 
4.402949

>  <ad_hoc_penalty>  (56) 
-25.775578

>  <cluster>  (56) 
3.0

>  <intxn_cluster>  (56) 
18.0

>  <keep>  (56) 
1.0

>  <hydroph_interaction:GLN:74>  (56) 
0.0

>  <hydroph_interaction:THR:118>  (56) 
1.0

>  <hydroph_interaction:ILE:123>  (56) 
3.0

>  <hydroph_interaction:THR:166>  (56) 
0.0

>  <hbond:GLN:167>  (56) 
0.0

>  <hydroph_interaction:ALA:88>  (56) 
0.0

>  <hydroph_interaction:ASP:120>  (56) 
1.0

>  <hydroph_interaction:GLN:167>  (56) 
0.0

>  <hbond:THR:118>  (56) 
0.0

>  <hydroph_interaction:ALA:164>  (56) 
1.0

>  <hbond:ASP:120>  (56) 
0.0

>  <hbond:THR:166>  (56) 
0.0

>  <hydroph_interaction:LEU:76>  (56) 
0.0

>  <hbond:ILE:165>  (56) 
0.0

>  <halogenbond:GLN:74>  (56) 
0.0

>  <hbond:GLN:74>  (56) 
0.0

>  <hbond:LYS:73>  (56) 
0.0

>  <pistack:TRP:69>  (56) 
0.0

>  <hbond:TRP:83>  (56) 
0.0

>  <hydroph_interaction:TRP:83>  (56) 
0.0

>  <hydroph_interaction:TRP:69>  (56) 
0.0

>  <pication:TRP:69>  (56) 
0.0

>  <hydroph_interaction:PRO:82>  (56) 
0.0

>  <halogenbond:LYS:73>  (56) 
0.0

>  <hydroph_interaction:TYR:68>  (56) 
0.0

>  <halogenbond:GLN:167>  (56) 
0.0

>  <hydroph_interaction:PHE:116>  (56) 
0.0

>  <hbond:TYR:68>  (56) 
0.0

>  <hbond:ASP:122>  (56) 
0.0

>  <pistack:PHE:116>  (56) 
0.0

>  <hydroph_interaction:VAL:154>  (56) 
0.0

>  <hydroph_interaction:ASP:75>  (56) 
0.0

>  <hbond:GLY:121>  (56) 
0.0

>  <hydroph_interaction:ASN:152>  (56) 
0.0

>  <halogenbond:ILE:165>  (56) 
0.0

$$$$
Z898476748-Z198195906-x0884S4
     RDKit          3D

 42 43  0  0  0  0  0  0  0  0999 V2000
  -11.8340   -3.3890   -8.4310 C   0  0  0  0  0  0  0  0  0  0  0  0
  -11.9140   -4.8420   -8.2380 N   0  0  0  0  0  0  0  0  0  0  0  0
  -12.2680   -5.5660   -9.4840 C   0  0  0  0  0  0  0  0  0  0  0  0
  -11.8700   -5.2350  -10.5950 O   0  0  0  0  0  0  0  0  0  0  0  0
  -13.1100   -6.6420   -9.2670 N   0  0  0  0  0  0  0  0  0  0  0  0
  -13.3000   -7.3200   -7.9920 C   0  0  0  0  0  0  0  0  0  0  0  0
  -14.3740   -8.2360   -8.0120 C   0  0  0  0  0  0  0  0  0  0  0  0
  -15.6720   -7.8060   -7.4230 C   0  0  0  0  0  0  0  0  0  0  0  0
  -16.6760   -8.7560   -7.3590 C   0  0  0  0  0  0  0  0  0  0  0  0
  -16.3290   -9.9240   -6.7090 C   0  0  0  0  0  0  0  0  0  0  0  0
  -15.0220  -10.5730   -7.1490 C   0  0  0  0  0  0  0  0  0  0  0  0
  -13.9830   -9.5720   -7.4420 N   0  0  0  0  0  0  0  0  0  0  0  0
  -12.8160   -9.7310   -6.8030 C   0  0  0  0  0  0  0  0  0  0  0  0
  -11.7760  -10.4130   -7.6210 C   0  0  0  0  0  0  0  0  0  0  0  0
  -10.7850   -9.6710   -8.2060 C   0  0  0  0  0  0  0  0  0  0  0  0
   -9.8430  -10.3200   -8.9630 C   0  0  0  0  0  0  0  0  0  0  0  0
   -9.8840  -11.7020   -9.1370 C   0  0  0  0  0  0  0  0  0  0  0  0
  -10.8690  -12.5010   -8.5630 C   0  0  0  0  0  0  0  0  0  0  0  0
  -11.8060  -11.8040   -7.8030 C   0  0  0  0  0  0  0  0  0  0  0  0
  -11.8420   -2.8720   -7.4640 H   0  0  0  0  0  0  0  0  0  0  0  0
  -12.6630   -3.0030   -9.0350 H   0  0  0  0  0  0  0  0  0  0  0  0
  -10.8940   -3.1160   -8.9260 H   0  0  0  0  0  0  0  0  0  0  0  0
  -12.5980   -5.0880   -7.5080 H   0  0  0  0  0  0  0  0  0  0  0  0
  -13.2340   -7.2540  -10.0660 H   0  0  0  0  0  0  0  0  0  0  0  0
  -13.4330   -6.6300   -7.1600 H   0  0  0  0  0  0  0  0  0  0  0  0
  -12.3530   -7.8330   -7.7920 H   0  0  0  0  0  0  0  0  0  0  0  0
  -14.6180   -8.3640   -9.0730 H   0  0  0  0  0  0  0  0  0  0  0  0
  -16.0450   -6.8940   -7.8990 H   0  0  0  0  0  0  0  0  0  0  0  0
  -15.4610   -7.5330   -6.3920 H   0  0  0  0  0  0  0  0  0  0  0  0
  -17.5540   -8.3250   -6.8640 H   0  0  0  0  0  0  0  0  0  0  0  0
  -17.0070   -9.0100   -8.3710 H   0  0  0  0  0  0  0  0  0  0  0  0
  -17.1540  -10.6380   -6.8330 H   0  0  0  0  0  0  0  0  0  0  0  0
  -16.2660   -9.7270   -5.6310 H   0  0  0  0  0  0  0  0  0  0  0  0
  -14.6820  -11.2750   -6.3760 H   0  0  0  0  0  0  0  0  0  0  0  0
  -15.2460  -11.1700   -8.0410 H   0  0  0  0  0  0  0  0  0  0  0  0
  -12.9800  -10.3100   -5.8840 H   0  0  0  0  0  0  0  0  0  0  0  0
  -12.4370   -8.7680   -6.4380 H   0  0  0  0  0  0  0  0  0  0  0  0
  -10.7350   -8.5900   -8.0850 H   0  0  0  0  0  0  0  0  0  0  0  0
   -9.0560   -9.7440   -9.4360 H   0  0  0  0  0  0  0  0  0  0  0  0
   -9.1160  -12.1770   -9.7470 H   0  0  0  0  0  0  0  0  0  0  0  0
  -10.9020  -13.5780   -8.6970 H   0  0  0  0  0  0  0  0  0  0  0  0
  -12.6000  -12.3800   -7.3320 H   0  0  0  0  0  0  0  0  0  0  0  0
  1  2  1  0
  2  3  1  0
  3  4  2  0
  3  5  1  0
  5  6  1  0
  6  7  1  0
  7  8  1  0
  8  9  1  0
  9 10  1  0
 10 11  1  0
 11 12  1  0
 12 13  1  0
 13 14  1  0
 14 15  2  0
 15 16  1  0
 16 17  2  0
 17 18  1  0
 18 19  2  0
 12  7  1  0
 19 14  1  0
  1 20  1  0
  1 21  1  0
  1 22  1  0
  2 23  1  0
  5 24  1  0
  6 25  1  0
  6 26  1  0
  7 27  1  0
  8 28  1  0
  8 29  1  0
  9 30  1  0
  9 31  1  0
 10 32  1  0
 10 33  1  0
 11 34  1  0
 11 35  1  0
 13 36  1  0
 13 37  1  0
 15 38  1  0
 16 39  1  0
 17 40  1  0
 18 41  1  0
 19 42  1  0
A    1
 C1 
A    2
 N1 
A    3
 C2 
A    4
 O1 
A    5
 N2 
A    6
 C3 
A    7
 C4 
A    8
 C5 
A    9
 C6 
A   10
 C7 
A   11
 C8 
A   12
 N3 
A   13
 C9 
A   14
 C10
A   15
 C11
A   16
 C12
A   17
 C13
A   18
 C14
A   19
 C15
A   20
 H1 
A   21
 H2 
A   22
 H3 
A   23
 H4 
A   24
 H5 
A   25
 H6 
A   26
 H7 
A   27
 H8 
A   28
 H9 
A   29
 H10
A   30
 H11
A   31
 H12
A   32
 H13
A   33
 H14
A   34
 H15
A   35
 H16
A   36
 H17
A   37
 H18
A   38
 H19
A   39
 H20
A   40
 H21
A   41
 H22
A   42
 H23
M  END
>  <ref_pdb>  (57) 
x0051_0B

>  <ref_mols>  (57) 
x0051_0B

>  <original SMILES>  (57) 
[H]c1c([H])c([H])c(C([H])([H])N2C([H])([H])C([H])([H])C([H])([H])C([H])([H])C2([H])C([H])([H])N([H])C(=O)N([H])C([H])([H])[H])c([H])c1[H]

>  <index>  (57) 
1243.0

>  <∆∆G>  (57) 
-6.217684

>  <comRMSD>  (57) 
0.976731

>  <N_constrained_atoms>  (57) 
18.0

>  <N_unconstrained_atoms>  (57) 
4.0

>  <LE>  (57) 
0.282622

>  <percent_hybrid>  (57) 
17.0

>  <largest_ring>  (57) 
6.0

>  <N_HA>  (57) 
19.0

>  <N_rotatable_bonds>  (57) 
5.0

>  <max_hit_Tanimoto>  (57) 
0.297445

>  <N_interactions_kept>  (57) 
0.0

>  <N_interactions_lost>  (57) 
1.0

>  <interaction_uniqueness_metric>  (57) 
0.25527

>  <N_interactions>  (57) 
5.0

>  <N_PAINS>  (57) 
0.0

>  <UFF_Gibbs>  (57) 
164.348631

>  <strain_per_HA>  (57) 
8.649882

>  <ad_hoc_penalty>  (57) 
-25.655903

>  <cluster>  (57) 
187.0

>  <intxn_cluster>  (57) 
13.0

>  <keep>  (57) 
1.0

>  <hydroph_interaction:GLN:74>  (57) 
1.0

>  <hydroph_interaction:THR:118>  (57) 
1.0

>  <hydroph_interaction:ILE:123>  (57) 
2.0

>  <hydroph_interaction:THR:166>  (57) 
0.0

>  <hbond:GLN:167>  (57) 
0.0

>  <hydroph_interaction:ALA:88>  (57) 
0.0

>  <hydroph_interaction:ASP:120>  (57) 
0.0

>  <hydroph_interaction:GLN:167>  (57) 
0.0

>  <hbond:THR:118>  (57) 
0.0

>  <hydroph_interaction:ALA:164>  (57) 
0.0

>  <hbond:ASP:120>  (57) 
0.0

>  <hbond:THR:166>  (57) 
0.0

>  <hydroph_interaction:LEU:76>  (57) 
0.0

>  <hbond:ILE:165>  (57) 
0.0

>  <halogenbond:GLN:74>  (57) 
0.0

>  <hbond:GLN:74>  (57) 
0.0

>  <hbond:LYS:73>  (57) 
1.0

>  <pistack:TRP:69>  (57) 
0.0

>  <hbond:TRP:83>  (57) 
0.0

>  <hydroph_interaction:TRP:83>  (57) 
0.0

>  <hydroph_interaction:TRP:69>  (57) 
0.0

>  <pication:TRP:69>  (57) 
0.0

>  <hydroph_interaction:PRO:82>  (57) 
0.0

>  <halogenbond:LYS:73>  (57) 
0.0

>  <hydroph_interaction:TYR:68>  (57) 
0.0

>  <halogenbond:GLN:167>  (57) 
0.0

>  <hydroph_interaction:PHE:116>  (57) 
0.0

>  <hbond:TYR:68>  (57) 
0.0

>  <hbond:ASP:122>  (57) 
0.0

>  <pistack:PHE:116>  (57) 
0.0

>  <hydroph_interaction:VAL:154>  (57) 
0.0

>  <hydroph_interaction:ASP:75>  (57) 
0.0

>  <hbond:GLY:121>  (57) 
0.0

>  <hydroph_interaction:ASN:152>  (57) 
0.0

>  <halogenbond:ILE:165>  (57) 
0.0

$$$$
Z1134250536-Z198195906S4-x0884S4
     RDKit          3D

 36 37  0  0  0  0  0  0  0  0999 V2000
  -15.7380   -6.1590   -8.0630 C   0  0  0  0  0  0  0  0  0  0  0  0
  -15.5630   -7.5900   -7.6100 C   0  0  0  0  0  0  0  0  0  0  0  0
  -16.7400   -8.4830   -7.2570 C   0  0  0  0  0  0  0  0  0  0  0  0
  -16.5230   -9.7980   -6.8420 C   0  0  0  0  0  0  0  0  0  0  0  0
  -15.2150  -10.2680   -6.7620 C   0  0  0  0  0  0  0  0  0  0  0  0
  -14.0660   -9.4430   -7.0910 N   0  0  0  0  0  0  0  0  0  0  0  0
  -14.2950   -8.1170   -7.5060 C   0  0  0  0  0  0  0  0  0  0  0  0
  -13.2140   -7.3010   -7.8140 C   0  0  0  0  0  0  0  0  0  0  0  0
  -12.5760   -7.7450   -9.0310 N   0  0  0  0  0  0  0  0  0  0  0  0
  -11.5360   -7.1310   -9.6160 C   0  0  0  0  0  0  0  0  0  0  0  0
  -11.6870   -5.9890  -10.8120 S   0  0  0  0  0  0  0  0  0  0  0  0
  -10.3720   -7.6020   -9.0580 N   0  0  0  0  0  0  0  0  0  0  0  0
  -10.3080   -8.3460   -7.8000 C   0  0  0  0  0  0  0  0  0  0  0  0
  -10.6830   -9.6980   -7.9060 C   0  0  0  0  0  0  0  0  0  0  0  0
  -11.9340  -10.1290   -7.4940 C   0  0  0  0  0  0  0  0  0  0  0  0
  -12.3530  -11.5690   -7.5970 C   0  0  0  0  0  0  0  0  0  0  0  0
  -11.3580  -12.5280   -8.1630 C   0  0  0  0  0  0  0  0  0  0  0  0
  -10.1230  -12.0420   -8.5560 C   0  0  0  0  0  0  0  0  0  0  0  0
   -9.8160  -10.6770   -8.4260 C   0  0  0  0  0  0  0  0  0  0  0  0
  -15.6110   -6.0840   -9.1450 H   0  0  0  0  0  0  0  0  0  0  0  0
  -15.0050   -5.5020   -7.5990 H   0  0  0  0  0  0  0  0  0  0  0  0
  -16.7330   -5.8010   -7.7950 H   0  0  0  0  0  0  0  0  0  0  0  0
  -17.7580   -8.1040   -7.3240 H   0  0  0  0  0  0  0  0  0  0  0  0
  -17.3600  -10.4400   -6.5880 H   0  0  0  0  0  0  0  0  0  0  0  0
  -15.0050  -11.2840   -6.4450 H   0  0  0  0  0  0  0  0  0  0  0  0
  -12.4150   -7.2620   -7.0830 H   0  0  0  0  0  0  0  0  0  0  0  0
  -13.4610   -6.2610   -8.0220 H   0  0  0  0  0  0  0  0  0  0  0  0
  -12.7340   -8.7310   -9.2180 H   0  0  0  0  0  0  0  0  0  0  0  0
   -9.5870   -7.7270   -9.6860 H   0  0  0  0  0  0  0  0  0  0  0  0
  -10.9680   -7.8620   -7.0760 H   0  0  0  0  0  0  0  0  0  0  0  0
   -9.2890   -8.2840   -7.3990 H   0  0  0  0  0  0  0  0  0  0  0  0
  -12.6900   -9.4650   -7.0730 H   0  0  0  0  0  0  0  0  0  0  0  0
  -13.3400  -11.8990   -7.2710 H   0  0  0  0  0  0  0  0  0  0  0  0
  -11.5930  -13.5870   -8.2670 H   0  0  0  0  0  0  0  0  0  0  0  0
   -9.3910  -12.7280   -8.9720 H   0  0  0  0  0  0  0  0  0  0  0  0
   -8.8640  -10.3600   -8.7480 H   0  0  0  0  0  0  0  0  0  0  0  0
  1  2  1  0
  2  3  2  0
  3  4  1  0
  4  5  2  0
  5  6  1  0
  6  7  2  0
  7  8  1  0
  8  9  1  0
  9 10  1  0
 10 11  2  0
 10 12  1  0
 12 13  1  0
 13 14  1  0
 14 15  2  0
 15 16  1  0
 16 17  2  0
 17 18  1  0
 18 19  2  0
  7  2  1  0
 19 14  1  0
  1 20  1  0
  1 21  1  0
  1 22  1  0
  3 23  1  0
  4 24  1  0
  5 25  1  0
  8 26  1  0
  8 27  1  0
  9 28  1  0
 12 29  1  0
 13 30  1  0
 13 31  1  0
 15 32  1  0
 16 33  1  0
 17 34  1  0
 18 35  1  0
 19 36  1  0
A    1
 C1 
A    2
 C2 
A    3
 C3 
A    4
 C4 
A    5
 C5 
A    6
 N1 
A    7
 C6 
A    8
 C7 
A    9
 N2 
A   10
 C8 
A   11
 S1 
A   12
 N3 
A   13
 C9 
A   14
 C10
A   15
 C11
A   16
 C12
A   17
 C13
A   18
 C14
A   19
 C15
A   20
 H1 
A   21
 H2 
A   22
 H3 
A   23
 H4 
A   24
 H5 
A   25
 H6 
A   26
 H7 
A   27
 H8 
A   28
 H9 
A   29
 H10
A   30
 H11
A   31
 H12
A   32
 H13
A   33
 H14
A   34
 H15
A   35
 H16
A   36
 H17
M  END
>  <ref_pdb>  (58) 
x0051_0B

>  <ref_mols>  (58) 
x0051_0B

>  <original SMILES>  (58) 
[H]c1nc(C([H])([H])N([H])C(=S)N([H])C([H])([H])c2c([H])c([H])c([H])c([H])c2[H])c(C([H])([H])[H])c([H])c1[H]

>  <index>  (58) 
2432.0

>  <∆∆G>  (58) 
-3.509859

>  <comRMSD>  (58) 
0.604306

>  <N_constrained_atoms>  (58) 
19.0

>  <N_unconstrained_atoms>  (58) 
1.0

>  <LE>  (58) 
0.175493

>  <percent_hybrid>  (58) 
43.0

>  <largest_ring>  (58) 
6.0

>  <N_HA>  (58) 
19.0

>  <N_rotatable_bonds>  (58) 
5.0

>  <max_hit_Tanimoto>  (58) 
0.298824

>  <N_interactions_kept>  (58) 
0.0

>  <N_interactions_lost>  (58) 
1.5

>  <interaction_uniqueness_metric>  (58) 
0.323681

>  <N_interactions>  (58) 
7.0

>  <N_PAINS>  (58) 
0.0

>  <UFF_Gibbs>  (58) 
1867.061429

>  <strain_per_HA>  (58) 
98.265874

>  <ad_hoc_penalty>  (58) 
-25.60202

>  <cluster>  (58) 
1361.0

>  <intxn_cluster>  (58) 
2.0

>  <keep>  (58) 
1.0

>  <hydroph_interaction:GLN:74>  (58) 
2.0

>  <hydroph_interaction:THR:118>  (58) 
1.0

>  <hydroph_interaction:ILE:123>  (58) 
1.0

>  <hydroph_interaction:THR:166>  (58) 
1.0

>  <hbond:GLN:167>  (58) 
0.0

>  <hydroph_interaction:ALA:88>  (58) 
0.0

>  <hydroph_interaction:ASP:120>  (58) 
1.0

>  <hydroph_interaction:GLN:167>  (58) 
0.0

>  <hbond:THR:118>  (58) 
0.0

>  <hydroph_interaction:ALA:164>  (58) 
0.0

>  <hbond:ASP:120>  (58) 
0.0

>  <hbond:THR:166>  (58) 
0.0

>  <hydroph_interaction:LEU:76>  (58) 
1.0

>  <hbond:ILE:165>  (58) 
0.0

>  <halogenbond:GLN:74>  (58) 
0.0

>  <hbond:GLN:74>  (58) 
0.0

>  <hbond:LYS:73>  (58) 
0.0

>  <pistack:TRP:69>  (58) 
0.0

>  <hbond:TRP:83>  (58) 
0.0

>  <hydroph_interaction:TRP:83>  (58) 
0.0

>  <hydroph_interaction:TRP:69>  (58) 
0.0

>  <pication:TRP:69>  (58) 
0.0

>  <hydroph_interaction:PRO:82>  (58) 
0.0

>  <halogenbond:LYS:73>  (58) 
0.0

>  <hydroph_interaction:TYR:68>  (58) 
0.0

>  <halogenbond:GLN:167>  (58) 
0.0

>  <hydroph_interaction:PHE:116>  (58) 
0.0

>  <hbond:TYR:68>  (58) 
0.0

>  <hbond:ASP:122>  (58) 
0.0

>  <pistack:PHE:116>  (58) 
0.0

>  <hydroph_interaction:VAL:154>  (58) 
0.0

>  <hydroph_interaction:ASP:75>  (58) 
0.0

>  <hbond:GLY:121>  (58) 
0.0

>  <hydroph_interaction:ASN:152>  (58) 
0.0

>  <halogenbond:ILE:165>  (58) 
0.0

$$$$
PV-005455135738-Z198195906S5-x0214S3
     RDKit          3D

 28 29  0  0  0  0  0  0  0  0999 V2000
  -11.5510   -5.2410  -10.9510 C   0  0  0  0  0  0  0  0  0  0  0  0
  -12.2410   -6.1660  -10.0190 C   0  0  0  0  0  0  0  0  0  0  0  0
  -12.3370   -5.9560   -8.6380 C   0  0  0  0  0  0  0  0  0  0  0  0
  -12.9690   -6.8510   -7.7830 C   0  0  0  0  0  0  0  0  0  0  0  0
  -13.5380   -8.0050   -8.2680 C   0  0  0  0  0  0  0  0  0  0  0  0
  -14.0980   -8.8640   -7.6040 O   0  0  0  0  0  0  0  0  0  0  0  0
  -13.2770   -9.5580   -6.6540 C   0  0  0  0  0  0  0  0  0  0  0  0
  -12.2010  -10.4570   -7.2170 C   0  0  0  0  0  0  0  0  0  0  0  0
  -12.4420  -11.8280   -7.3620 C   0  0  0  0  0  0  0  0  0  0  0  0
  -11.3760  -12.7400   -7.9150 C   0  0  0  0  0  0  0  0  0  0  0  0
  -10.1620  -12.2240   -8.2760 C   0  0  0  0  0  0  0  0  0  0  0  0
   -9.9350  -10.7230   -8.1010 C   0  0  0  0  0  0  0  0  0  0  0  0
  -10.9430   -9.9190   -7.5960 C   0  0  0  0  0  0  0  0  0  0  0  0
  -10.4080   -7.8980   -7.4670 I   0  0  0  0  0  0  0  0  0  0  0  0
  -13.4860   -8.2470   -9.6180 C   0  0  0  0  0  0  0  0  0  0  0  0
  -12.8470   -7.3680  -10.5890 N   0  0  0  0  0  0  0  0  0  0  0  0
  -11.9920   -5.3290  -11.9440 H   0  0  0  0  0  0  0  0  0  0  0  0
  -11.6110   -4.2070  -10.5950 H   0  0  0  0  0  0  0  0  0  0  0  0
  -10.4850   -5.4840  -11.0280 H   0  0  0  0  0  0  0  0  0  0  0  0
  -11.9000   -5.0660   -8.2010 H   0  0  0  0  0  0  0  0  0  0  0  0
  -13.0070   -6.6380   -6.7190 H   0  0  0  0  0  0  0  0  0  0  0  0
  -13.9570  -10.1920   -6.0710 H   0  0  0  0  0  0  0  0  0  0  0  0
  -12.8380   -8.8420   -5.9520 H   0  0  0  0  0  0  0  0  0  0  0  0
  -13.3870  -12.2910   -7.0890 H   0  0  0  0  0  0  0  0  0  0  0  0
  -11.6620  -13.7960   -7.9920 H   0  0  0  0  0  0  0  0  0  0  0  0
   -9.3120  -12.7760   -8.6870 H   0  0  0  0  0  0  0  0  0  0  0  0
   -8.9880  -10.2920   -8.3790 H   0  0  0  0  0  0  0  0  0  0  0  0
  -13.9380   -9.1490  -10.0310 H   0  0  0  0  0  0  0  0  0  0  0  0
  1  2  1  0
  2  3  2  0
  3  4  1  0
  4  5  2  0
  5  6  1  0
  6  7  1  0
  7  8  1  0
  8  9  2  0
  9 10  1  0
 10 11  2  0
 11 12  1  0
 12 13  2  0
 13 14  1  0
  5 15  1  0
 15 16  2  0
 16  2  1  0
 13  8  1  0
  1 17  1  0
  1 18  1  0
  1 19  1  0
  3 20  1  0
  4 21  1  0
  7 22  1  0
  7 23  1  0
  9 24  1  0
 10 25  1  0
 11 26  1  0
 12 27  1  0
 15 28  1  0
A    1
 C1 
A    2
 C2 
A    3
 C3 
A    4
 C4 
A    5
 C5 
A    6
 O1 
A    7
 C6 
A    8
 C7 
A    9
 C8 
A   10
 C9 
A   11
 C10
A   12
 C11
A   13
 C12
A   14
 I1 
A   15
 C13
A   16
 N1 
A   17
 H1 
A   18
 H2 
A   19
 H3 
A   20
 H4 
A   21
 H5 
A   22
 H6 
A   23
 H7 
A   24
 H8 
A   25
 H9 
A   26
 H10
A   27
 H11
A   28
 H12
M  END
>  <ref_pdb>  (59) 
x0051_0B

>  <ref_mols>  (59) 
x0051_0B

>  <original SMILES>  (59) 
[H]c1nc(C([H])([H])[H])c([H])c([H])c1OC([H])([H])c1c([H])c([H])c([H])c([H])c1I

>  <index>  (59) 
1780.0

>  <∆∆G>  (59) 
-4.353369

>  <comRMSD>  (59) 
0.642059

>  <N_constrained_atoms>  (59) 
14.0

>  <N_unconstrained_atoms>  (59) 
2.0

>  <LE>  (59) 
0.272086

>  <percent_hybrid>  (59) 
43.0

>  <largest_ring>  (59) 
6.0

>  <N_HA>  (59) 
16.0

>  <N_rotatable_bonds>  (59) 
4.0

>  <max_hit_Tanimoto>  (59) 
0.097187

>  <N_interactions_kept>  (59) 
0.0

>  <N_interactions_lost>  (59) 
1.0

>  <interaction_uniqueness_metric>  (59) 
0.129186

>  <N_interactions>  (59) 
6.0

>  <N_PAINS>  (59) 
0.0

>  <UFF_Gibbs>  (59) 
95.497442

>  <strain_per_HA>  (59) 
5.968553

>  <ad_hoc_penalty>  (59) 
-25.541019

>  <cluster>  (59) 
5457.0

>  <intxn_cluster>  (59) 
18.0

>  <keep>  (59) 
1.0

>  <hydroph_interaction:GLN:74>  (59) 
0.0

>  <hydroph_interaction:THR:118>  (59) 
1.0

>  <hydroph_interaction:ILE:123>  (59) 
2.0

>  <hydroph_interaction:THR:166>  (59) 
1.0

>  <hbond:GLN:167>  (59) 
0.0

>  <hydroph_interaction:ALA:88>  (59) 
0.0

>  <hydroph_interaction:ASP:120>  (59) 
1.0

>  <hydroph_interaction:GLN:167>  (59) 
0.0

>  <hbond:THR:118>  (59) 
0.0

>  <hydroph_interaction:ALA:164>  (59) 
1.0

>  <hbond:ASP:120>  (59) 
0.0

>  <hbond:THR:166>  (59) 
0.0

>  <hydroph_interaction:LEU:76>  (59) 
0.0

>  <hbond:ILE:165>  (59) 
0.0

>  <halogenbond:GLN:74>  (59) 
0.0

>  <hbond:GLN:74>  (59) 
0.0

>  <hbond:LYS:73>  (59) 
0.0

>  <pistack:TRP:69>  (59) 
0.0

>  <hbond:TRP:83>  (59) 
0.0

>  <hydroph_interaction:TRP:83>  (59) 
0.0

>  <hydroph_interaction:TRP:69>  (59) 
0.0

>  <pication:TRP:69>  (59) 
0.0

>  <hydroph_interaction:PRO:82>  (59) 
0.0

>  <halogenbond:LYS:73>  (59) 
0.0

>  <hydroph_interaction:TYR:68>  (59) 
0.0

>  <halogenbond:GLN:167>  (59) 
0.0

>  <hydroph_interaction:PHE:116>  (59) 
0.0

>  <hbond:TYR:68>  (59) 
0.0

>  <hbond:ASP:122>  (59) 
0.0

>  <pistack:PHE:116>  (59) 
0.0

>  <hydroph_interaction:VAL:154>  (59) 
0.0

>  <hydroph_interaction:ASP:75>  (59) 
0.0

>  <hbond:GLY:121>  (59) 
0.0

>  <hydroph_interaction:ASN:152>  (59) 
0.0

>  <halogenbond:ILE:165>  (59) 
0.0

$$$$
Z1148966629-Z198195906S9-x0806S1
     RDKit          3D

 32 33  0  0  0  0  0  0  0  0999 V2000
   -9.3590   -7.9250   -6.5240 C   0  0  0  0  0  0  0  0  0  0  0  0
  -10.4810   -8.1280   -7.5300 C   0  0  1  0  0  0  0  0  0  0  0  0
  -10.1570   -7.4110   -8.7830 N   0  0  0  0  0  0  0  0  0  0  0  0
  -10.9450   -6.1900   -8.9570 C   0  0  0  0  0  0  0  0  0  0  0  0
  -12.2170   -6.6020   -9.2090 C   0  0  0  0  0  0  0  0  0  0  0  0
  -12.4770   -7.0350  -10.4570 C   0  0  0  0  0  0  0  0  0  0  0  0
  -13.7290   -7.4960  -10.7970 C   0  0  0  0  0  0  0  0  0  0  0  0
  -14.7560   -7.5310   -9.9430 N   0  0  0  0  0  0  0  0  0  0  0  0
  -14.4960   -7.0890   -8.6910 C   0  0  0  0  0  0  0  0  0  0  0  0
  -13.2530   -6.6170   -8.2660 C   0  0  0  0  0  0  0  0  0  0  0  0
  -10.8820   -9.5950   -7.7000 C   0  0  0  0  0  0  0  0  0  0  0  0
  -12.2530  -10.1180   -7.4800 C   0  0  0  0  0  0  0  0  0  0  0  0
  -12.5120  -11.5630   -7.6690 C   0  0  0  0  0  0  0  0  0  0  0  0
  -11.3710  -12.4250   -8.0780 C   0  0  0  0  0  0  0  0  0  0  0  0
  -10.1170  -11.8790   -8.2680 C   0  0  0  0  0  0  0  0  0  0  0  0
   -9.8920  -10.5070   -8.0780 C   0  0  0  0  0  0  0  0  0  0  0  0
   -8.3920   -7.8980   -7.0350 H   0  0  0  0  0  0  0  0  0  0  0  0
   -9.3190   -8.7460   -5.7980 H   0  0  0  0  0  0  0  0  0  0  0  0
   -9.4760   -6.9780   -5.9870 H   0  0  0  0  0  0  0  0  0  0  0  0
  -11.3790   -7.6330   -7.1430 H   0  0  0  0  0  0  0  0  0  0  0  0
  -10.3330   -8.0280   -9.5730 H   0  0  0  0  0  0  0  0  0  0  0  0
  -10.9200   -5.5530   -8.0650 H   0  0  0  0  0  0  0  0  0  0  0  0
  -10.6010   -5.5990   -9.8150 H   0  0  0  0  0  0  0  0  0  0  0  0
  -11.6930   -7.0210  -11.1900 H   0  0  0  0  0  0  0  0  0  0  0  0
  -13.9340   -7.8530  -11.8040 H   0  0  0  0  0  0  0  0  0  0  0  0
  -15.3280   -7.1140   -7.9870 H   0  0  0  0  0  0  0  0  0  0  0  0
  -13.1020   -6.2780   -7.2420 H   0  0  0  0  0  0  0  0  0  0  0  0
  -13.0550   -9.4430   -7.1820 H   0  0  0  0  0  0  0  0  0  0  0  0
  -13.4930  -12.0070   -7.5210 H   0  0  0  0  0  0  0  0  0  0  0  0
  -11.4590  -13.5030   -8.2450 H   0  0  0  0  0  0  0  0  0  0  0  0
   -9.3050  -12.5250   -8.5660 H   0  0  0  0  0  0  0  0  0  0  0  0
   -8.9110  -10.1240   -8.2300 H   0  0  0  0  0  0  0  0  0  0  0  0
  1  2  1  0
  2  3  1  0
  3  4  1  0
  4  5  1  0
  5  6  2  0
  6  7  1  0
  7  8  2  0
  8  9  1  0
  9 10  2  0
  2 11  1  0
 11 12  2  0
 12 13  1  0
 13 14  2  0
 14 15  1  0
 15 16  2  0
 10  5  1  0
 16 11  1  0
  1 17  1  0
  1 18  1  0
  1 19  1  0
  2 20  1  1
  3 21  1  0
  4 22  1  0
  4 23  1  0
  6 24  1  0
  7 25  1  0
  9 26  1  0
 10 27  1  0
 12 28  1  0
 13 29  1  0
 14 30  1  0
 15 31  1  0
 16 32  1  0
A    1
 C1 
A    2
 C2 
A    3
 N1 
A    4
 C3 
A    5
 C4 
A    6
 C5 
A    7
 C6 
A    8
 N2 
A    9
 C7 
A   10
 C8 
A   11
 C9 
A   12
 C10
A   13
 C11
A   14
 C12
A   15
 C13
A   16
 C14
A   17
 H1 
A   18
 H2 
A   19
 H3 
A   20
 H4 
A   21
 H5 
A   22
 H6 
A   23
 H7 
A   24
 H8 
A   25
 H9 
A   26
 H10
A   27
 H11
A   28
 H12
A   29
 H13
A   30
 H14
A   31
 H15
A   32
 H16
M  END
>  <ref_pdb>  (60) 
x0051_0B

>  <ref_mols>  (60) 
x0051_0B

>  <original SMILES>  (60) 
[H]c1nc([H])c([H])c(C([H])([H])N([H])[C@@]([H])(c2c([H])c([H])c([H])c([H])c2[H])C([H])([H])[H])c1[H]

>  <index>  (60) 
323.0

>  <∆∆G>  (60) 
-5.233367

>  <comRMSD>  (60) 
0.837789

>  <N_constrained_atoms>  (60) 
16.0

>  <N_unconstrained_atoms>  (60) 
1.0

>  <LE>  (60) 
0.307845

>  <percent_hybrid>  (60) 
34.0

>  <largest_ring>  (60) 
6.0

>  <N_HA>  (60) 
16.0

>  <N_rotatable_bonds>  (60) 
5.0

>  <max_hit_Tanimoto>  (60) 
0.323308

>  <N_interactions_kept>  (60) 
0.0

>  <N_interactions_lost>  (60) 
1.5

>  <interaction_uniqueness_metric>  (60) 
0.079356

>  <N_interactions>  (60) 
7.0

>  <N_PAINS>  (60) 
0.0

>  <UFF_Gibbs>  (60) 
48.706024

>  <strain_per_HA>  (60) 
3.044107

>  <ad_hoc_penalty>  (60) 
-25.310527

>  <cluster>  (60) 
3.0

>  <intxn_cluster>  (60) 
4.0

>  <keep>  (60) 
1.0

>  <hydroph_interaction:GLN:74>  (60) 
0.0

>  <hydroph_interaction:THR:118>  (60) 
1.0

>  <hydroph_interaction:ILE:123>  (60) 
3.0

>  <hydroph_interaction:THR:166>  (60) 
0.0

>  <hbond:GLN:167>  (60) 
2.0

>  <hydroph_interaction:ALA:88>  (60) 
0.0

>  <hydroph_interaction:ASP:120>  (60) 
1.0

>  <hydroph_interaction:GLN:167>  (60) 
0.0

>  <hbond:THR:118>  (60) 
0.0

>  <hydroph_interaction:ALA:164>  (60) 
0.0

>  <hbond:ASP:120>  (60) 
0.0

>  <hbond:THR:166>  (60) 
0.0

>  <hydroph_interaction:LEU:76>  (60) 
0.0

>  <hbond:ILE:165>  (60) 
0.0

>  <halogenbond:GLN:74>  (60) 
0.0

>  <hbond:GLN:74>  (60) 
0.0

>  <hbond:LYS:73>  (60) 
0.0

>  <pistack:TRP:69>  (60) 
0.0

>  <hbond:TRP:83>  (60) 
0.0

>  <hydroph_interaction:TRP:83>  (60) 
0.0

>  <hydroph_interaction:TRP:69>  (60) 
0.0

>  <pication:TRP:69>  (60) 
0.0

>  <hydroph_interaction:PRO:82>  (60) 
0.0

>  <halogenbond:LYS:73>  (60) 
0.0

>  <hydroph_interaction:TYR:68>  (60) 
0.0

>  <halogenbond:GLN:167>  (60) 
0.0

>  <hydroph_interaction:PHE:116>  (60) 
0.0

>  <hbond:TYR:68>  (60) 
0.0

>  <hbond:ASP:122>  (60) 
0.0

>  <pistack:PHE:116>  (60) 
0.0

>  <hydroph_interaction:VAL:154>  (60) 
0.0

>  <hydroph_interaction:ASP:75>  (60) 
0.0

>  <hbond:GLY:121>  (60) 
0.0

>  <hydroph_interaction:ASN:152>  (60) 
0.0

>  <halogenbond:ILE:165>  (60) 
0.0

$$$$
Z1948588436-Z198195906S1-x0214S3
     RDKit          3D

 15 15  0  0  0  0  0  0  0  0999 V2000
  -10.7970   -4.5690  -10.5320 N   0  0  0  0  0  0  0  0  0  0  0  0
  -10.7640   -5.9020  -10.2590 C   0  0  0  0  0  0  0  0  0  0  0  0
   -9.5950   -6.6510  -10.5300 O   0  0  0  0  0  0  0  0  0  0  0  0
  -11.9980   -6.4570   -9.6450 C   0  0  0  0  0  0  0  0  0  0  0  0
  -12.7770   -7.2320  -10.4790 N   0  0  0  0  0  0  0  0  0  0  0  0
  -13.8900   -7.7810   -9.9590 C   0  0  0  0  0  0  0  0  0  0  0  0
  -14.2750   -7.5900   -8.6340 C   0  0  0  0  0  0  0  0  0  0  0  0
  -13.4570   -6.7970   -7.8520 C   0  0  0  0  0  0  0  0  0  0  0  0
  -12.3070   -6.2110   -8.3220 C   0  0  0  0  0  0  0  0  0  0  0  0
  -11.2790   -5.1630   -7.1390 Br  0  0  0  0  0  0  0  0  0  0  0  0
  -11.5810   -4.1760  -11.0570 H   0  0  0  0  0  0  0  0  0  0  0  0
  -10.1580   -3.9610  -10.0310 H   0  0  0  0  0  0  0  0  0  0  0  0
  -14.4890   -8.3920  -10.6330 H   0  0  0  0  0  0  0  0  0  0  0  0
  -15.1770   -8.0380   -8.2340 H   0  0  0  0  0  0  0  0  0  0  0  0
  -13.7420   -6.6300   -6.8070 H   0  0  0  0  0  0  0  0  0  0  0  0
  1  2  1  0
  2  3  2  0
  2  4  1  0
  4  5  2  0
  5  6  1  0
  6  7  2  0
  7  8  1  0
  8  9  2  0
  9 10  1  0
  9  4  1  0
  1 11  1  0
  1 12  1  0
  6 13  1  0
  7 14  1  0
  8 15  1  0
A    1
 N1 
A    2
 C1 
A    3
 O1 
A    4
 C2 
A    5
 N2 
A    6
 C3 
A    7
 C4 
A    8
 C5 
A    9
 C6 
A   10
BR1 
A   11
 H1 
A   12
 H2 
A   13
 H3 
A   14
 H4 
A   15
 H5 
M  END
>  <ref_pdb>  (61) 
x0051_0B

>  <ref_mols>  (61) 
x0051_0B

>  <original SMILES>  (61) 
[H]c1nc(C(=O)N([H])[H])c(Br)c([H])c1[H]

>  <index>  (61) 
2173.0

>  <∆∆G>  (61) 
-3.505642

>  <comRMSD>  (61) 
0.931874

>  <N_constrained_atoms>  (61) 
9.0

>  <N_unconstrained_atoms>  (61) 
1.0

>  <LE>  (61) 
0.350564

>  <percent_hybrid>  (61) 
38.0

>  <largest_ring>  (61) 
6.0

>  <N_HA>  (61) 
10.0

>  <N_rotatable_bonds>  (61) 
1.0

>  <max_hit_Tanimoto>  (61) 
0.103679

>  <N_interactions_kept>  (61) 
0.0

>  <N_interactions_lost>  (61) 
0.0

>  <interaction_uniqueness_metric>  (61) 
0.31796

>  <N_interactions>  (61) 
2.0

>  <N_PAINS>  (61) 
0.0

>  <UFF_Gibbs>  (61) 
36.988554

>  <strain_per_HA>  (61) 
3.698818

>  <ad_hoc_penalty>  (61) 
-25.279811

>  <cluster>  (61) 
5297.0

>  <intxn_cluster>  (61) 
10.0

>  <keep>  (61) 
1.0

>  <hydroph_interaction:GLN:74>  (61) 
0.0

>  <hydroph_interaction:THR:118>  (61) 
0.0

>  <hydroph_interaction:ILE:123>  (61) 
0.0

>  <hydroph_interaction:THR:166>  (61) 
0.0

>  <hbond:GLN:167>  (61) 
0.0

>  <hydroph_interaction:ALA:88>  (61) 
0.0

>  <hydroph_interaction:ASP:120>  (61) 
0.0

>  <hydroph_interaction:GLN:167>  (61) 
0.0

>  <hbond:THR:118>  (61) 
0.0

>  <hydroph_interaction:ALA:164>  (61) 
0.0

>  <hbond:ASP:120>  (61) 
0.0

>  <hbond:THR:166>  (61) 
1.0

>  <hydroph_interaction:LEU:76>  (61) 
0.0

>  <hbond:ILE:165>  (61) 
0.0

>  <halogenbond:GLN:74>  (61) 
0.0

>  <hbond:GLN:74>  (61) 
0.0

>  <hbond:LYS:73>  (61) 
0.0

>  <pistack:TRP:69>  (61) 
0.0

>  <hbond:TRP:83>  (61) 
0.0

>  <hydroph_interaction:TRP:83>  (61) 
0.0

>  <hydroph_interaction:TRP:69>  (61) 
0.0

>  <pication:TRP:69>  (61) 
0.0

>  <hydroph_interaction:PRO:82>  (61) 
0.0

>  <halogenbond:LYS:73>  (61) 
1.0

>  <hydroph_interaction:TYR:68>  (61) 
0.0

>  <halogenbond:GLN:167>  (61) 
0.0

>  <hydroph_interaction:PHE:116>  (61) 
0.0

>  <hbond:TYR:68>  (61) 
0.0

>  <hbond:ASP:122>  (61) 
0.0

>  <pistack:PHE:116>  (61) 
0.0

>  <hydroph_interaction:VAL:154>  (61) 
0.0

>  <hydroph_interaction:ASP:75>  (61) 
0.0

>  <hbond:GLY:121>  (61) 
0.0

>  <hydroph_interaction:ASN:152>  (61) 
0.0

>  <halogenbond:ILE:165>  (61) 
0.0

$$$$
Z1565962253-Z2102283482-x0214S1
     RDKit          3D

 37 39  0  0  0  0  0  0  0  0999 V2000
  -11.7410  -14.8330   -9.6950 N   0  0  0  0  0  0  0  0  0  0  0  0
  -11.9430  -13.6900   -9.6450 C   0  0  0  0  0  0  0  0  0  0  0  0
  -13.2550  -13.6450  -10.2100 O   0  0  0  0  0  0  0  0  0  0  0  0
  -11.6660  -12.3170   -9.3450 C   0  0  0  0  0  0  0  0  0  0  0  0
  -10.3060  -12.0080   -9.2150 C   0  0  0  0  0  0  0  0  0  0  0  0
  -10.0940  -10.5280   -9.0480 C   0  0  0  0  0  0  0  0  0  0  0  0
   -8.9510   -9.9020   -9.5220 C   0  0  0  0  0  0  0  0  0  0  0  0
   -8.7330   -8.5160   -9.3830 C   0  0  0  0  0  0  0  0  0  0  0  0
   -9.6680   -7.7340   -8.7560 C   0  0  0  0  0  0  0  0  0  0  0  0
  -10.7970   -8.3810   -8.2950 C   0  0  0  0  0  0  0  0  0  0  0  0
  -11.0280   -9.7490   -8.4300 C   0  0  0  0  0  0  0  0  0  0  0  0
  -12.1970  -10.3590   -7.9530 N   0  0  0  0  0  0  0  0  0  0  0  0
  -12.7160   -9.7470   -6.8370 C   0  0  0  0  0  0  0  0  0  0  0  0
  -12.0480   -9.3540   -5.8820 O   0  0  0  0  0  0  0  0  0  0  0  0
  -14.0870   -9.5580   -6.8140 C   0  0  0  0  0  0  0  0  0  0  0  0
  -14.8470  -10.5590   -6.2300 C   0  0  0  0  0  0  0  0  0  0  0  0
  -16.2210  -10.4500   -6.1800 C   0  0  0  0  0  0  0  0  0  0  0  0
  -16.9160   -9.2300   -6.7660 C   0  0  0  0  0  0  0  0  0  0  0  0
  -18.7970   -9.0880   -6.7090 Br  0  0  0  0  0  0  0  0  0  0  0  0
  -16.0840   -8.2580   -7.3340 C   0  0  0  0  0  0  0  0  0  0  0  0
  -14.6980   -8.4130   -7.3650 C   0  0  0  0  0  0  0  0  0  0  0  0
  -13.7180   -7.0090   -8.1850 Br  0  0  0  0  0  0  0  0  0  0  0  0
  -12.4440  -11.7920   -8.2880 C   0  0  0  0  0  0  0  0  0  0  0  0
  -11.9360  -15.4120  -10.5020 H   0  0  0  0  0  0  0  0  0  0  0  0
  -11.1580  -15.2330   -8.9490 H   0  0  0  0  0  0  0  0  0  0  0  0
  -12.0030  -11.7840  -10.2490 H   0  0  0  0  0  0  0  0  0  0  0  0
   -9.7540  -12.6340   -8.5220 H   0  0  0  0  0  0  0  0  0  0  0  0
   -9.8180  -12.2490  -10.1650 H   0  0  0  0  0  0  0  0  0  0  0  0
   -8.2160  -10.5320  -10.0160 H   0  0  0  0  0  0  0  0  0  0  0  0
   -7.8230   -8.0620   -9.7700 H   0  0  0  0  0  0  0  0  0  0  0  0
   -9.5350   -6.6650   -8.6280 H   0  0  0  0  0  0  0  0  0  0  0  0
  -11.5600   -7.7750   -7.7900 H   0  0  0  0  0  0  0  0  0  0  0  0
  -14.3580  -11.4350   -5.8110 H   0  0  0  0  0  0  0  0  0  0  0  0
  -16.7960  -11.2480   -5.7180 H   0  0  0  0  0  0  0  0  0  0  0  0
  -16.5220   -7.3660   -7.7610 H   0  0  0  0  0  0  0  0  0  0  0  0
  -12.2690  -12.4180   -7.4080 H   0  0  0  0  0  0  0  0  0  0  0  0
  -13.5140  -11.8770   -8.5160 H   0  0  0  0  0  0  0  0  0  0  0  0
  1  2  1  0
  2  3  2  0
  2  4  1  0
  4  5  1  0
  5  6  1  0
  6  7  2  0
  7  8  1  0
  8  9  2  0
  9 10  1  0
 10 11  2  0
 11 12  1  0
 12 13  1  0
 13 14  2  0
 13 15  1  0
 15 16  2  0
 16 17  1  0
 17 18  2  0
 18 19  1  0
 18 20  1  0
 20 21  2  0
 21 22  1  0
 12 23  1  0
 23  4  1  0
 11  6  1  0
 21 15  1  0
  1 24  1  0
  1 25  1  0
  4 26  1  0
  5 27  1  0
  5 28  1  0
  7 29  1  0
  8 30  1  0
  9 31  1  0
 10 32  1  0
 16 33  1  0
 17 34  1  0
 20 35  1  0
 23 36  1  0
 23 37  1  0
A    1
 N1 
A    2
 C1 
A    3
 O1 
A    4
 C2 
A    5
 C3 
A    6
 C4 
A    7
 C5 
A    8
 C6 
A    9
 C7 
A   10
 C8 
A   11
 C9 
A   12
 N2 
A   13
 C10
A   14
 O2 
A   15
 C11
A   16
 C12
A   17
 C13
A   18
 C14
A   19
BR1 
A   20
 C15
A   21
 C16
A   22
BR2 
A   23
 C17
A   24
 H1 
A   25
 H2 
A   26
 H3 
A   27
 H4 
A   28
 H5 
A   29
 H6 
A   30
 H7 
A   31
 H8 
A   32
 H9 
A   33
 H10
A   34
 H11
A   35
 H12
A   36
 H13
A   37
 H14
M  END
>  <ref_pdb>  (62) 
x0051_0B

>  <ref_mols>  (62) 
x0051_0B

>  <original SMILES>  (62) 
[H]c1c([H])c([H])c2c(c1[H])N(C(=O)c1c([H])c([H])c(Br)c([H])c1Br)C([H])([H])C([H])(C(=O)N([H])[H])C2([H])[H]

>  <index>  (62) 
7370.0

>  <∆∆G>  (62) 
-3.097829

>  <comRMSD>  (62) 
0.649653

>  <N_constrained_atoms>  (62) 
23.0

>  <N_unconstrained_atoms>  (62) 
0.0

>  <LE>  (62) 
0.134688

>  <percent_hybrid>  (62) 
5.0

>  <largest_ring>  (62) 
6.0

>  <N_HA>  (62) 
23.0

>  <N_rotatable_bonds>  (62) 
2.0

>  <max_hit_Tanimoto>  (62) 
0.711737

>  <N_interactions_kept>  (62) 
1.0

>  <N_interactions_lost>  (62) 
1.0

>  <interaction_uniqueness_metric>  (62) 
0.083617

>  <N_interactions>  (62) 
5.0

>  <N_PAINS>  (62) 
0.0

>  <UFF_Gibbs>  (62) 
206.135228

>  <strain_per_HA>  (62) 
8.962362

>  <ad_hoc_penalty>  (62) 
-25.27756

>  <cluster>  (62) 
55.0

>  <intxn_cluster>  (62) 
13.0

>  <keep>  (62) 
1.0

>  <hydroph_interaction:GLN:74>  (62) 
0.0

>  <hydroph_interaction:THR:118>  (62) 
1.0

>  <hydroph_interaction:ILE:123>  (62) 
3.0

>  <hydroph_interaction:THR:166>  (62) 
0.0

>  <hbond:GLN:167>  (62) 
0.0

>  <hydroph_interaction:ALA:88>  (62) 
0.0

>  <hydroph_interaction:ASP:120>  (62) 
0.0

>  <hydroph_interaction:GLN:167>  (62) 
0.0

>  <hbond:THR:118>  (62) 
0.0

>  <hydroph_interaction:ALA:164>  (62) 
0.0

>  <hbond:ASP:120>  (62) 
1.0

>  <hbond:THR:166>  (62) 
0.0

>  <hydroph_interaction:LEU:76>  (62) 
0.0

>  <hbond:ILE:165>  (62) 
0.0

>  <halogenbond:GLN:74>  (62) 
0.0

>  <hbond:GLN:74>  (62) 
0.0

>  <hbond:LYS:73>  (62) 
0.0

>  <pistack:TRP:69>  (62) 
0.0

>  <hbond:TRP:83>  (62) 
0.0

>  <hydroph_interaction:TRP:83>  (62) 
0.0

>  <hydroph_interaction:TRP:69>  (62) 
0.0

>  <pication:TRP:69>  (62) 
0.0

>  <hydroph_interaction:PRO:82>  (62) 
0.0

>  <halogenbond:LYS:73>  (62) 
0.0

>  <hydroph_interaction:TYR:68>  (62) 
0.0

>  <halogenbond:GLN:167>  (62) 
0.0

>  <hydroph_interaction:PHE:116>  (62) 
0.0

>  <hbond:TYR:68>  (62) 
0.0

>  <hbond:ASP:122>  (62) 
0.0

>  <pistack:PHE:116>  (62) 
0.0

>  <hydroph_interaction:VAL:154>  (62) 
0.0

>  <hydroph_interaction:ASP:75>  (62) 
0.0

>  <hbond:GLY:121>  (62) 
0.0

>  <hydroph_interaction:ASN:152>  (62) 
0.0

>  <halogenbond:ILE:165>  (62) 
0.0

$$$$
Z1431481740-x0130S3-x0130S4
     RDKit          3D

 34 35  0  0  0  0  0  0  0  0999 V2000
  -29.6690   -6.7850    1.0960 C   0  0  0  0  0  0  0  0  0  0  0  0
  -28.2160   -7.1320    0.9200 C   0  0  0  0  0  0  0  0  0  0  0  0
  -27.7060   -6.7520   -0.4020 N   0  0  0  0  0  0  0  0  0  0  0  0
  -26.2330   -6.9320   -0.4800 C   0  0  0  0  0  0  0  0  0  0  0  0
  -25.7150   -6.7200   -1.7510 C   0  0  0  0  0  0  0  0  0  0  0  0
  -26.3620   -5.5680   -2.3700 N   0  0  0  0  0  0  0  0  0  0  0  0
  -26.1240   -5.2780   -3.7120 C   0  0  0  0  0  0  0  0  0  0  0  0
  -26.3890   -4.1810   -4.1920 O   0  0  0  0  0  0  0  0  0  0  0  0
  -25.5720   -6.2310   -4.5770 C   0  0  0  0  0  0  0  0  0  0  0  0
  -26.3980   -7.3790   -5.0890 C   0  0  0  0  0  0  0  0  0  0  0  0
  -25.8000   -8.2990   -5.9570 C   0  0  0  0  0  0  0  0  0  0  0  0
  -24.3600   -8.1930   -6.4110 C   0  0  0  0  0  0  0  0  0  0  0  0
  -23.8520   -9.1070   -7.2500 F   0  0  0  0  0  0  0  0  0  0  0  0
  -23.5970   -7.1450   -5.9480 C   0  0  0  0  0  0  0  0  0  0  0  0
  -21.6280   -6.9400   -6.5420 I   0  0  0  0  0  0  0  0  0  0  0  0
  -24.2470   -6.1400   -4.9950 C   0  0  0  0  0  0  0  0  0  0  0  0
  -27.1120   -4.7190   -1.4310 C   0  0  0  0  0  0  0  0  0  0  0  0
  -28.1540   -5.4190   -0.8650 C   0  0  0  0  0  0  0  0  0  0  0  0
  -29.7770   -5.7470    1.4260 H   0  0  0  0  0  0  0  0  0  0  0  0
  -30.1430   -7.4510    1.8260 H   0  0  0  0  0  0  0  0  0  0  0  0
  -30.2220   -6.8980    0.1580 H   0  0  0  0  0  0  0  0  0  0  0  0
  -27.6190   -6.6770    1.7190 H   0  0  0  0  0  0  0  0  0  0  0  0
  -28.1370   -8.2190    1.0450 H   0  0  0  0  0  0  0  0  0  0  0  0
  -25.9810   -7.9460   -0.1550 H   0  0  0  0  0  0  0  0  0  0  0  0
  -25.7330   -6.2330    0.2040 H   0  0  0  0  0  0  0  0  0  0  0  0
  -25.8670   -7.6040   -2.3790 H   0  0  0  0  0  0  0  0  0  0  0  0
  -24.6400   -6.5180   -1.7090 H   0  0  0  0  0  0  0  0  0  0  0  0
  -27.4390   -7.4930   -4.7900 H   0  0  0  0  0  0  0  0  0  0  0  0
  -26.3070   -9.1710   -6.3880 H   0  0  0  0  0  0  0  0  0  0  0  0
  -23.5840   -5.3660   -4.6950 H   0  0  0  0  0  0  0  0  0  0  0  0
  -26.4600   -4.4490   -0.6110 H   0  0  0  0  0  0  0  0  0  0  0  0
  -27.3160   -3.8080   -1.9730 H   0  0  0  0  0  0  0  0  0  0  0  0
  -28.5930   -4.9890    0.0310 H   0  0  0  0  0  0  0  0  0  0  0  0
  -29.0310   -5.5560   -1.4870 H   0  0  0  0  0  0  0  0  0  0  0  0
  1  2  1  0
  2  3  1  0
  3  4  1  0
  4  5  1  0
  5  6  1  0
  6  7  1  0
  7  8  2  0
  7  9  1  0
  9 10  2  0
 10 11  1  0
 11 12  2  0
 12 13  1  0
 12 14  1  0
 14 15  1  0
 14 16  2  0
  6 17  1  0
 17 18  1  0
 18  3  1  0
 16  9  1  0
  1 19  1  0
  1 20  1  0
  1 21  1  0
  2 22  1  0
  2 23  1  0
  4 24  1  0
  4 25  1  0
  5 26  1  0
  5 27  1  0
 10 28  1  0
 11 29  1  0
 16 30  1  0
 17 31  1  0
 17 32  1  0
 18 33  1  0
 18 34  1  0
A    1
 C1 
A    2
 C2 
A    3
 N1 
A    4
 C3 
A    5
 C4 
A    6
 N2 
A    7
 C5 
A    8
 O1 
A    9
 C6 
A   10
 C7 
A   11
 C8 
A   12
 C9 
A   13
 F1 
A   14
 C10
A   15
 I1 
A   16
 C11
A   17
 C12
A   18
 C13
A   19
 H1 
A   20
 H2 
A   21
 H3 
A   22
 H4 
A   23
 H5 
A   24
 H6 
A   25
 H7 
A   26
 H8 
A   27
 H9 
A   28
 H10
A   29
 H11
A   30
 H12
A   31
 H13
A   32
 H14
A   33
 H15
A   34
 H16
M  END
>  <ref_pdb>  (63) 
x0051_0B

>  <ref_mols>  (63) 
x0051_0B

>  <original SMILES>  (63) 
[H]c1c([H])c(C(=O)N2C([H])([H])C([H])([H])N(C([H])([H])C([H])([H])[H])C([H])([H])C2([H])[H])c([H])c(I)c1F

>  <index>  (63) 
1118.0

>  <∆∆G>  (63) 
-5.55842

>  <comRMSD>  (63) 
0.348066

>  <N_constrained_atoms>  (63) 
17.0

>  <N_unconstrained_atoms>  (63) 
1.0

>  <LE>  (63) 
0.308801

>  <percent_hybrid>  (63) 
48.0

>  <largest_ring>  (63) 
6.0

>  <N_HA>  (63) 
18.0

>  <N_rotatable_bonds>  (63) 
3.0

>  <max_hit_Tanimoto>  (63) 
0.156951

>  <N_interactions_kept>  (63) 
0.0

>  <N_interactions_lost>  (63) 
2.5

>  <interaction_uniqueness_metric>  (63) 
0.476394

>  <N_interactions>  (63) 
6.0

>  <N_PAINS>  (63) 
0.0

>  <UFF_Gibbs>  (63) 
79.55791

>  <strain_per_HA>  (63) 
4.419859

>  <ad_hoc_penalty>  (63) 
-25.260085

>  <cluster>  (63) 
439.0

>  <intxn_cluster>  (63) 
19.0

>  <keep>  (63) 
1.0

>  <hydroph_interaction:GLN:74>  (63) 
0.0

>  <hydroph_interaction:THR:118>  (63) 
0.0

>  <hydroph_interaction:ILE:123>  (63) 
0.0

>  <hydroph_interaction:THR:166>  (63) 
0.0

>  <hbond:GLN:167>  (63) 
0.0

>  <hydroph_interaction:ALA:88>  (63) 
0.0

>  <hydroph_interaction:ASP:120>  (63) 
0.0

>  <hydroph_interaction:GLN:167>  (63) 
0.0

>  <hbond:THR:118>  (63) 
0.0

>  <hydroph_interaction:ALA:164>  (63) 
0.0

>  <hbond:ASP:120>  (63) 
0.0

>  <hbond:THR:166>  (63) 
0.0

>  <hydroph_interaction:LEU:76>  (63) 
0.0

>  <hbond:ILE:165>  (63) 
0.0

>  <halogenbond:GLN:74>  (63) 
1.0

>  <hbond:GLN:74>  (63) 
0.0

>  <hbond:LYS:73>  (63) 
0.0

>  <pistack:TRP:69>  (63) 
2.0

>  <hbond:TRP:83>  (63) 
1.0

>  <hydroph_interaction:TRP:83>  (63) 
1.0

>  <hydroph_interaction:TRP:69>  (63) 
0.0

>  <pication:TRP:69>  (63) 
0.0

>  <hydroph_interaction:PRO:82>  (63) 
0.0

>  <halogenbond:LYS:73>  (63) 
0.0

>  <hydroph_interaction:TYR:68>  (63) 
0.0

>  <halogenbond:GLN:167>  (63) 
1.0

>  <hydroph_interaction:PHE:116>  (63) 
0.0

>  <hbond:TYR:68>  (63) 
0.0

>  <hbond:ASP:122>  (63) 
0.0

>  <pistack:PHE:116>  (63) 
0.0

>  <hydroph_interaction:VAL:154>  (63) 
0.0

>  <hydroph_interaction:ASP:75>  (63) 
0.0

>  <hbond:GLY:121>  (63) 
0.0

>  <hydroph_interaction:ASN:152>  (63) 
0.0

>  <halogenbond:ILE:165>  (63) 
0.0

$$$$
Z4444726010-Z198195906S1-Z1318054286
     RDKit          3D

 39 40  0  0  0  0  0  0  0  0999 V2000
   -7.4510   -7.3490   -9.2730 C   0  0  0  0  0  0  0  0  0  0  0  0
   -7.8490   -6.0030   -9.8310 C   0  0  0  0  0  0  0  0  0  0  0  0
   -6.6490   -5.3000  -10.4560 C   0  0  0  0  0  0  0  0  0  0  0  0
   -6.8480   -3.9130  -11.0760 C   0  0  0  0  0  0  0  0  0  0  0  0
   -8.2740   -3.4350  -10.9700 C   0  0  0  0  0  0  0  0  0  0  0  0
   -9.3170   -4.1620  -10.3700 C   0  0  0  0  0  0  0  0  0  0  0  0
   -9.1370   -5.4240   -9.8000 C   0  0  0  0  0  0  0  0  0  0  0  0
  -10.1980   -6.1360   -9.1870 N   0  0  0  0  0  0  0  0  0  0  0  0
  -11.5040   -6.3720   -9.5940 C   0  0  0  0  0  0  0  0  0  0  0  0
  -11.9990   -6.1520  -10.6860 O   0  0  0  0  0  0  0  0  0  0  0  0
  -12.2530   -6.9420   -8.5500 N   0  0  0  0  0  0  0  0  0  0  0  0
  -13.3190   -7.9110   -8.8540 C   0  0  0  0  0  0  0  0  0  0  0  0
  -14.1850   -8.2370   -7.6180 C   0  0  1  0  0  0  0  0  0  0  0  0
  -15.6280   -8.1140   -8.1040 C   0  0  0  0  0  0  0  0  0  0  0  0
  -16.5040   -9.3610   -7.9100 C   0  0  0  0  0  0  0  0  0  0  0  0
  -16.3690   -9.7840   -6.4590 C   0  0  0  0  0  0  0  0  0  0  0  0
  -14.9190  -10.0200   -6.0740 C   0  0  0  0  0  0  0  0  0  0  0  0
  -13.9380   -9.6040   -7.0900 N   0  0  0  0  0  0  0  0  0  0  0  0
   -7.2180   -8.0390  -10.0900 H   0  0  0  0  0  0  0  0  0  0  0  0
   -8.2440   -7.7810   -8.6560 H   0  0  0  0  0  0  0  0  0  0  0  0
   -6.5510   -7.2580   -8.6530 H   0  0  0  0  0  0  0  0  0  0  0  0
   -5.6640   -5.7570  -10.4700 H   0  0  0  0  0  0  0  0  0  0  0  0
   -6.0500   -3.3410  -11.5410 H   0  0  0  0  0  0  0  0  0  0  0  0
   -8.5140   -2.4760  -11.3780 H   0  0  0  0  0  0  0  0  0  0  0  0
  -10.2920   -3.6870  -10.3660 H   0  0  0  0  0  0  0  0  0  0  0  0
   -9.9730   -6.6040   -8.3220 H   0  0  0  0  0  0  0  0  0  0  0  0
  -11.6920   -7.2340   -7.7610 H   0  0  0  0  0  0  0  0  0  0  0  0
  -12.7920   -8.8140   -9.1700 H   0  0  0  0  0  0  0  0  0  0  0  0
  -13.8360   -7.5480   -9.7410 H   0  0  0  0  0  0  0  0  0  0  0  0
  -14.0880   -7.5690   -6.7680 H   0  0  0  0  0  0  0  0  0  0  0  0
  -16.0990   -7.2290   -7.6590 H   0  0  0  0  0  0  0  0  0  0  0  0
  -15.6190   -7.9040   -9.1800 H   0  0  0  0  0  0  0  0  0  0  0  0
  -16.1840  -10.1730   -8.5740 H   0  0  0  0  0  0  0  0  0  0  0  0
  -17.5520   -9.1460   -8.1460 H   0  0  0  0  0  0  0  0  0  0  0  0
  -16.9440  -10.6990   -6.2760 H   0  0  0  0  0  0  0  0  0  0  0  0
  -16.8090   -9.0060   -5.8200 H   0  0  0  0  0  0  0  0  0  0  0  0
  -14.6890   -9.4750   -5.1510 H   0  0  0  0  0  0  0  0  0  0  0  0
  -14.7730  -11.0810   -5.8470 H   0  0  0  0  0  0  0  0  0  0  0  0
  -14.0020  -10.2480   -7.8800 H   0  0  0  0  0  0  0  0  0  0  0  0
  1  2  1  0
  2  3  2  0
  3  4  1  0
  4  5  2  0
  5  6  1  0
  6  7  2  0
  7  8  1  0
  8  9  1  0
  9 10  2  0
  9 11  1  0
 11 12  1  0
 12 13  1  0
 13 14  1  0
 14 15  1  0
 15 16  1  0
 16 17  1  0
 17 18  1  0
  7  2  1  0
 18 13  1  0
  1 19  1  0
  1 20  1  0
  1 21  1  0
  3 22  1  0
  4 23  1  0
  5 24  1  0
  6 25  1  0
  8 26  1  0
 11 27  1  0
 12 28  1  0
 12 29  1  0
 13 30  1  1
 14 31  1  0
 14 32  1  0
 15 33  1  0
 15 34  1  0
 16 35  1  0
 16 36  1  0
 17 37  1  0
 17 38  1  0
 18 39  1  0
A    1
 C1 
A    2
 C2 
A    3
 C3 
A    4
 C4 
A    5
 C5 
A    6
 C6 
A    7
 C7 
A    8
 N1 
A    9
 C8 
A   10
 O1 
A   11
 N2 
A   12
 C9 
A   13
 C10
A   14
 C11
A   15
 C12
A   16
 C13
A   17
 C14
A   18
 N3 
A   19
 H1 
A   20
 H2 
A   21
 H3 
A   22
 H4 
A   23
 H5 
A   24
 H6 
A   25
 H7 
A   26
 H8 
A   27
 H9 
A   28
 H10
A   29
 H11
A   30
 H12
A   31
 H13
A   32
 H14
A   33
 H15
A   34
 H16
A   35
 H17
A   36
 H18
A   37
 H19
A   38
 H20
A   39
 H21
M  END
>  <ref_pdb>  (64) 
x0051_0B

>  <ref_mols>  (64) 
x0051_0B

>  <original SMILES>  (64) 
[H]c1c([H])c([H])c(C([H])([H])[H])c(N([H])C(=O)N([H])C([H])([H])[C@]2([H])N([H])C([H])([H])C([H])([H])C([H])([H])C2([H])[H])c1[H]

>  <index>  (64) 
5689.0

>  <∆∆G>  (64) 
-6.395752

>  <comRMSD>  (64) 
0.609715

>  <N_constrained_atoms>  (64) 
11.0

>  <N_unconstrained_atoms>  (64) 
8.0

>  <LE>  (64) 
0.336619

>  <percent_hybrid>  (64) 
28.0

>  <largest_ring>  (64) 
6.0

>  <N_HA>  (64) 
18.0

>  <N_rotatable_bonds>  (64) 
4.0

>  <max_hit_Tanimoto>  (64) 
0.175758

>  <N_interactions_kept>  (64) 
0.0

>  <N_interactions_lost>  (64) 
1.0

>  <interaction_uniqueness_metric>  (64) 
0.234663

>  <N_interactions>  (64) 
5.0

>  <N_PAINS>  (64) 
0.0

>  <UFF_Gibbs>  (64) 
83.863512

>  <strain_per_HA>  (64) 
4.659058

>  <ad_hoc_penalty>  (64) 
-25.256266

>  <cluster>  (64) 
1210.0

>  <intxn_cluster>  (64) 
15.0

>  <keep>  (64) 
1.0

>  <hydroph_interaction:GLN:74>  (64) 
0.0

>  <hydroph_interaction:THR:118>  (64) 
1.0

>  <hydroph_interaction:ILE:123>  (64) 
1.0

>  <hydroph_interaction:THR:166>  (64) 
0.0

>  <hbond:GLN:167>  (64) 
0.0

>  <hydroph_interaction:ALA:88>  (64) 
0.0

>  <hydroph_interaction:ASP:120>  (64) 
0.0

>  <hydroph_interaction:GLN:167>  (64) 
0.0

>  <hbond:THR:118>  (64) 
0.0

>  <hydroph_interaction:ALA:164>  (64) 
1.0

>  <hbond:ASP:120>  (64) 
0.0

>  <hbond:THR:166>  (64) 
0.0

>  <hydroph_interaction:LEU:76>  (64) 
0.0

>  <hbond:ILE:165>  (64) 
0.0

>  <halogenbond:GLN:74>  (64) 
0.0

>  <hbond:GLN:74>  (64) 
0.0

>  <hbond:LYS:73>  (64) 
0.0

>  <pistack:TRP:69>  (64) 
0.0

>  <hbond:TRP:83>  (64) 
0.0

>  <hydroph_interaction:TRP:83>  (64) 
0.0

>  <hydroph_interaction:TRP:69>  (64) 
0.0

>  <pication:TRP:69>  (64) 
0.0

>  <hydroph_interaction:PRO:82>  (64) 
0.0

>  <halogenbond:LYS:73>  (64) 
0.0

>  <hydroph_interaction:TYR:68>  (64) 
0.0

>  <halogenbond:GLN:167>  (64) 
0.0

>  <hydroph_interaction:PHE:116>  (64) 
2.0

>  <hbond:TYR:68>  (64) 
0.0

>  <hbond:ASP:122>  (64) 
0.0

>  <pistack:PHE:116>  (64) 
0.0

>  <hydroph_interaction:VAL:154>  (64) 
0.0

>  <hydroph_interaction:ASP:75>  (64) 
0.0

>  <hbond:GLY:121>  (64) 
0.0

>  <hydroph_interaction:ASN:152>  (64) 
0.0

>  <halogenbond:ILE:165>  (64) 
0.0

$$$$
Z1898229101-x0884S2-Z198195906S9
     RDKit          3D

 38 39  0  0  0  0  0  0  0  0999 V2000
   -9.7530   -4.2550  -10.0830 C   0  0  0  0  0  0  0  0  0  0  0  0
  -10.5780   -5.2230   -9.2520 C   0  0  0  0  0  0  0  0  0  0  0  0
  -10.9240   -6.4940  -10.0280 C   0  0  0  0  0  0  0  0  0  0  0  0
  -12.2420   -6.8050  -10.3320 C   0  0  0  0  0  0  0  0  0  0  0  0
  -10.3890   -7.6050   -9.1890 N   0  0  0  0  0  0  0  0  0  0  0  0
   -9.0470   -7.6100   -9.0600 C   0  0  0  0  0  0  0  0  0  0  0  0
  -11.1660   -7.9580   -7.9780 C   0  0  0  0  0  0  0  0  0  0  0  0
  -11.2930   -9.3520   -7.9260 C   0  0  0  0  0  0  0  0  0  0  0  0
  -10.1120  -10.1070   -8.0940 C   0  0  0  0  0  0  0  0  0  0  0  0
  -10.1190  -11.5070   -8.0840 C   0  0  0  0  0  0  0  0  0  0  0  0
  -11.3000  -12.1910   -7.8930 C   0  0  0  0  0  0  0  0  0  0  0  0
  -12.4590  -11.4570   -7.7170 C   0  0  0  0  0  0  0  0  0  0  0  0
  -12.5180  -10.0590   -7.7260 C   0  0  0  0  0  0  0  0  0  0  0  0
  -13.8010   -9.5010   -7.5390 C   0  0  0  0  0  0  0  0  0  0  0  0
  -14.7520  -10.2280   -6.8110 C   0  0  0  0  0  0  0  0  0  0  0  0
  -16.1140   -9.6800   -6.5990 C   0  0  0  0  0  0  0  0  0  0  0  0
  -16.4260   -8.4360   -7.1320 C   0  0  0  0  0  0  0  0  0  0  0  0
  -15.4650   -7.7250   -7.8530 C   0  0  0  0  0  0  0  0  0  0  0  0
  -14.1790   -8.2460   -8.0540 C   0  0  0  0  0  0  0  0  0  0  0  0
  -10.3970   -3.5700  -10.6450 H   0  0  0  0  0  0  0  0  0  0  0  0
  -10.3070   -6.5580  -10.9170 H   0  0  0  0  0  0  0  0  0  0  0  0
  -12.9920   -6.2300   -9.7930 H   0  0  0  0  0  0  0  0  0  0  0  0
  -12.5300   -7.8310  -10.1200 H   0  0  0  0  0  0  0  0  0  0  0  0
  -12.5250   -6.6650  -11.3680 H   0  0  0  0  0  0  0  0  0  0  0  0
   -8.6310   -8.3500   -9.7570 H   0  0  0  0  0  0  0  0  0  0  0  0
   -8.6140   -6.6420   -9.3360 H   0  0  0  0  0  0  0  0  0  0  0  0
   -8.7240   -7.8650   -8.0420 H   0  0  0  0  0  0  0  0  0  0  0  0
  -10.5940   -7.6730   -7.0890 H   0  0  0  0  0  0  0  0  0  0  0  0
  -12.0540   -7.3420   -7.9340 H   0  0  0  0  0  0  0  0  0  0  0  0
   -9.1720   -9.5960   -8.2430 H   0  0  0  0  0  0  0  0  0  0  0  0
   -9.2130  -12.0580   -8.2240 H   0  0  0  0  0  0  0  0  0  0  0  0
  -11.3280  -13.2770   -7.8800 H   0  0  0  0  0  0  0  0  0  0  0  0
  -13.3170  -12.1250   -7.5740 H   0  0  0  0  0  0  0  0  0  0  0  0
  -14.4960  -11.2010   -6.3980 H   0  0  0  0  0  0  0  0  0  0  0  0
  -16.8560  -10.2420   -6.0380 H   0  0  0  0  0  0  0  0  0  0  0  0
  -17.4180   -8.0150   -6.9900 H   0  0  0  0  0  0  0  0  0  0  0  0
  -15.7220   -6.7510   -8.2660 H   0  0  0  0  0  0  0  0  0  0  0  0
  -13.4630   -7.6630   -8.6230 H   0  0  0  0  0  0  0  0  0  0  0  0
  1  2  3  0
  2  3  1  0
  3  4  1  0
  3  5  1  0
  5  6  1  0
  5  7  1  0
  7  8  1  0
  8  9  2  0
  9 10  1  0
 10 11  2  0
 11 12  1  0
 12 13  2  0
 13 14  1  0
 14 15  2  0
 15 16  1  0
 16 17  2  0
 17 18  1  0
 18 19  2  0
 13  8  1  0
 19 14  1  0
  1 20  1  0
  3 21  1  0
  4 22  1  0
  4 23  1  0
  4 24  1  0
  6 25  1  0
  6 26  1  0
  6 27  1  0
  7 28  1  0
  7 29  1  0
  9 30  1  0
 10 31  1  0
 11 32  1  0
 12 33  1  0
 15 34  1  0
 16 35  1  0
 17 36  1  0
 18 37  1  0
 19 38  1  0
A    1
 C1 
A    2
 C2 
A    3
 C3 
A    4
 C4 
A    5
 N1 
A    6
 C5 
A    7
 C6 
A    8
 C7 
A    9
 C8 
A   10
 C9 
A   11
 C10
A   12
 C11
A   13
 C12
A   14
 C13
A   15
 C14
A   16
 C15
A   17
 C16
A   18
 C17
A   19
 C18
A   20
 H1 
A   21
 H2 
A   22
 H3 
A   23
 H4 
A   24
 H5 
A   25
 H6 
A   26
 H7 
A   27
 H8 
A   28
 H9 
A   29
 H10
A   30
 H11
A   31
 H12
A   32
 H13
A   33
 H14
A   34
 H15
A   35
 H16
A   36
 H17
A   37
 H18
A   38
 H19
M  END
>  <ref_pdb>  (65) 
x0051_0B

>  <ref_mols>  (65) 
x0051_0B

>  <original SMILES>  (65) 
[H]C#CC([H])(N(C([H])([H])[H])C([H])([H])c1c([H])c([H])c([H])c([H])c1-c1c([H])c([H])c([H])c([H])c1[H])C([H])([H])[H]

>  <index>  (65) 
2191.0

>  <∆∆G>  (65) 
-6.160965

>  <comRMSD>  (65) 
0.566307

>  <N_constrained_atoms>  (65) 
18.0

>  <N_unconstrained_atoms>  (65) 
2.0

>  <LE>  (65) 
0.308048

>  <percent_hybrid>  (65) 
44.0

>  <largest_ring>  (65) 
6.0

>  <N_HA>  (65) 
19.0

>  <N_rotatable_bonds>  (65) 
6.0

>  <max_hit_Tanimoto>  (65) 
0.224439

>  <N_interactions_kept>  (65) 
0.5

>  <N_interactions_lost>  (65) 
0.5

>  <interaction_uniqueness_metric>  (65) 
0.090031

>  <N_interactions>  (65) 
5.0

>  <N_PAINS>  (65) 
0.0

>  <UFF_Gibbs>  (65) 
380.072384

>  <strain_per_HA>  (65) 
20.003704

>  <ad_hoc_penalty>  (65) 
-25.107947

>  <cluster>  (65) 
5282.0

>  <intxn_cluster>  (65) 
18.0

>  <keep>  (65) 
1.0

>  <hydroph_interaction:GLN:74>  (65) 
0.0

>  <hydroph_interaction:THR:118>  (65) 
0.0

>  <hydroph_interaction:ILE:123>  (65) 
3.0

>  <hydroph_interaction:THR:166>  (65) 
0.0

>  <hbond:GLN:167>  (65) 
0.0

>  <hydroph_interaction:ALA:88>  (65) 
0.0

>  <hydroph_interaction:ASP:120>  (65) 
1.0

>  <hydroph_interaction:GLN:167>  (65) 
0.0

>  <hbond:THR:118>  (65) 
0.0

>  <hydroph_interaction:ALA:164>  (65) 
1.0

>  <hbond:ASP:120>  (65) 
0.0

>  <hbond:THR:166>  (65) 
0.0

>  <hydroph_interaction:LEU:76>  (65) 
0.0

>  <hbond:ILE:165>  (65) 
0.0

>  <halogenbond:GLN:74>  (65) 
0.0

>  <hbond:GLN:74>  (65) 
0.0

>  <hbond:LYS:73>  (65) 
0.0

>  <pistack:TRP:69>  (65) 
0.0

>  <hbond:TRP:83>  (65) 
0.0

>  <hydroph_interaction:TRP:83>  (65) 
0.0

>  <hydroph_interaction:TRP:69>  (65) 
0.0

>  <pication:TRP:69>  (65) 
0.0

>  <hydroph_interaction:PRO:82>  (65) 
0.0

>  <halogenbond:LYS:73>  (65) 
0.0

>  <hydroph_interaction:TYR:68>  (65) 
0.0

>  <halogenbond:GLN:167>  (65) 
0.0

>  <hydroph_interaction:PHE:116>  (65) 
0.0

>  <hbond:TYR:68>  (65) 
0.0

>  <hbond:ASP:122>  (65) 
0.0

>  <pistack:PHE:116>  (65) 
0.0

>  <hydroph_interaction:VAL:154>  (65) 
0.0

>  <hydroph_interaction:ASP:75>  (65) 
0.0

>  <hbond:GLY:121>  (65) 
0.0

>  <hydroph_interaction:ASN:152>  (65) 
0.0

>  <halogenbond:ILE:165>  (65) 
0.0

$$$$
PV-002937419702-x0884S2-Z1318055457S4
     RDKit          3D

 28 30  0  0  0  0  0  0  0  0999 V2000
  -12.6970   -6.5770   -8.7170 N   0  0  0  0  0  0  0  0  0  0  0  0
  -13.3790   -7.3580   -8.1970 C   0  0  0  0  0  0  0  0  0  0  0  0
  -14.3270   -8.3590   -7.5770 C   0  0  0  0  0  0  0  0  0  0  0  0
  -15.7750   -8.0170   -7.7850 C   0  0  0  0  0  0  0  0  0  0  0  0
  -16.7640   -8.8030   -7.3060 N   0  0  0  0  0  0  0  0  0  0  0  0
  -16.3770   -9.8990   -6.6410 C   0  0  0  0  0  0  0  0  0  0  0  0
  -15.1160  -10.2840   -6.3940 N   0  0  0  0  0  0  0  0  0  0  0  0
  -14.1030   -9.5090   -6.8570 C   0  0  0  0  0  0  0  0  0  0  0  0
  -12.8120   -9.9110   -6.5550 O   0  0  0  0  0  0  0  0  0  0  0  0
  -11.9050  -10.4240   -7.4420 C   0  0  0  0  0  0  0  0  0  0  0  0
  -11.9230  -11.9260   -7.7670 C   0  0  0  0  0  0  0  0  0  0  0  0
  -10.8300  -12.3590   -8.7360 C   0  0  0  0  0  0  0  0  0  0  0  0
   -9.9330  -11.4460   -9.2430 C   0  0  0  0  0  0  0  0  0  0  0  0
  -10.0180  -10.0810   -8.8800 C   0  0  0  0  0  0  0  0  0  0  0  0
   -8.9930   -9.2140   -9.5010 C   0  0  0  0  0  0  0  0  0  0  0  0
   -8.9250   -7.8410   -9.2710 C   0  0  0  0  0  0  0  0  0  0  0  0
   -9.9430   -7.2420   -8.3450 C   0  0  0  0  0  0  0  0  0  0  0  0
  -10.9560   -8.1700   -7.7300 C   0  0  0  0  0  0  0  0  0  0  0  0
  -10.9720   -9.5460   -8.0080 C   0  0  0  0  0  0  0  0  0  0  0  0
  -16.0710   -7.1280   -8.3210 H   0  0  0  0  0  0  0  0  0  0  0  0
  -17.1640  -10.5390   -6.2600 H   0  0  0  0  0  0  0  0  0  0  0  0
  -12.6390  -12.6220   -7.3430 H   0  0  0  0  0  0  0  0  0  0  0  0
  -10.7520  -13.4010   -9.0290 H   0  0  0  0  0  0  0  0  0  0  0  0
   -9.1600  -11.7940   -9.9270 H   0  0  0  0  0  0  0  0  0  0  0  0
   -8.2690   -9.6670  -10.1550 H   0  0  0  0  0  0  0  0  0  0  0  0
   -8.1610   -7.2300   -9.7440 H   0  0  0  0  0  0  0  0  0  0  0  0
   -9.9460   -6.1760   -8.1220 H   0  0  0  0  0  0  0  0  0  0  0  0
  -11.6920   -7.7440   -7.0530 H   0  0  0  0  0  0  0  0  0  0  0  0
  1  2  3  0
  2  3  1  0
  3  4  2  0
  4  5  1  0
  5  6  2  0
  6  7  1  0
  7  8  2  0
  8  9  1  0
  9 10  1  0
 10 11  2  0
 11 12  1  0
 12 13  2  0
 13 14  1  0
 14 15  2  0
 15 16  1  0
 16 17  2  0
 17 18  1  0
 18 19  2  0
  8  3  1  0
 19 10  1  0
 19 14  1  0
  4 20  1  0
  6 21  1  0
 11 22  1  0
 12 23  1  0
 13 24  1  0
 15 25  1  0
 16 26  1  0
 17 27  1  0
 18 28  1  0
A    1
 N1 
A    2
 C1 
A    3
 C2 
A    4
 C3 
A    5
 N2 
A    6
 C4 
A    7
 N3 
A    8
 C5 
A    9
 O1 
A   10
 C6 
A   11
 C7 
A   12
 C8 
A   13
 C9 
A   14
 C10
A   15
 C11
A   16
 C12
A   17
 C13
A   18
 C14
A   19
 C15
A   20
 H1 
A   21
 H2 
A   22
 H3 
A   23
 H4 
A   24
 H5 
A   25
 H6 
A   26
 H7 
A   27
 H8 
A   28
 H9 
M  END
>  <ref_pdb>  (66) 
x0051_0B

>  <ref_mols>  (66) 
x0051_0B

>  <original SMILES>  (66) 
[H]c1nc([H])c(C#N)c(Oc2c([H])c([H])c([H])c3c([H])c([H])c([H])c([H])c23)n1

>  <index>  (66) 
6933.0

>  <∆∆G>  (66) 
-2.33746

>  <comRMSD>  (66) 
0.553879

>  <N_constrained_atoms>  (66) 
18.0

>  <N_unconstrained_atoms>  (66) 
1.0

>  <LE>  (66) 
0.123024

>  <percent_hybrid>  (66) 
48.0

>  <largest_ring>  (66) 
6.0

>  <N_HA>  (66) 
19.0

>  <N_rotatable_bonds>  (66) 
2.0

>  <max_hit_Tanimoto>  (66) 
0.142857

>  <N_interactions_kept>  (66) 
0.0

>  <N_interactions_lost>  (66) 
0.5

>  <interaction_uniqueness_metric>  (66) 
0.037003

>  <N_interactions>  (66) 
5.0

>  <N_PAINS>  (66) 
0.0

>  <UFF_Gibbs>  (66) 
105.322259

>  <strain_per_HA>  (66) 
5.543248

>  <ad_hoc_penalty>  (66) 
-24.995307

>  <cluster>  (66) 
3261.0

>  <intxn_cluster>  (66) 
13.0

>  <keep>  (66) 
1.0

>  <hydroph_interaction:GLN:74>  (66) 
0.0

>  <hydroph_interaction:THR:118>  (66) 
1.0

>  <hydroph_interaction:ILE:123>  (66) 
4.0

>  <hydroph_interaction:THR:166>  (66) 
0.0

>  <hbond:GLN:167>  (66) 
0.0

>  <hydroph_interaction:ALA:88>  (66) 
0.0

>  <hydroph_interaction:ASP:120>  (66) 
0.0

>  <hydroph_interaction:GLN:167>  (66) 
0.0

>  <hbond:THR:118>  (66) 
0.0

>  <hydroph_interaction:ALA:164>  (66) 
0.0

>  <hbond:ASP:120>  (66) 
0.0

>  <hbond:THR:166>  (66) 
0.0

>  <hydroph_interaction:LEU:76>  (66) 
0.0

>  <hbond:ILE:165>  (66) 
0.0

>  <halogenbond:GLN:74>  (66) 
0.0

>  <hbond:GLN:74>  (66) 
0.0

>  <hbond:LYS:73>  (66) 
0.0

>  <pistack:TRP:69>  (66) 
0.0

>  <hbond:TRP:83>  (66) 
0.0

>  <hydroph_interaction:TRP:83>  (66) 
0.0

>  <hydroph_interaction:TRP:69>  (66) 
0.0

>  <pication:TRP:69>  (66) 
0.0

>  <hydroph_interaction:PRO:82>  (66) 
0.0

>  <halogenbond:LYS:73>  (66) 
0.0

>  <hydroph_interaction:TYR:68>  (66) 
0.0

>  <halogenbond:GLN:167>  (66) 
0.0

>  <hydroph_interaction:PHE:116>  (66) 
0.0

>  <hbond:TYR:68>  (66) 
0.0

>  <hbond:ASP:122>  (66) 
0.0

>  <pistack:PHE:116>  (66) 
0.0

>  <hydroph_interaction:VAL:154>  (66) 
0.0

>  <hydroph_interaction:ASP:75>  (66) 
0.0

>  <hbond:GLY:121>  (66) 
0.0

>  <hydroph_interaction:ASN:152>  (66) 
0.0

>  <halogenbond:ILE:165>  (66) 
0.0

$$$$
Z1536815726-Z2102283482-x0214S1
     RDKit          3D

 41 43  0  0  0  0  0  0  0  0999 V2000
  -13.8510   -7.1480   -8.0250 C   0  0  0  0  0  0  0  0  0  0  0  0
  -14.6660   -8.2530   -7.3590 C   0  0  0  0  0  0  0  0  0  0  0  0
  -16.1590   -8.0030   -7.2880 C   0  0  0  0  0  0  0  0  0  0  0  0
  -17.0900   -9.0320   -6.6550 C   0  0  0  0  0  0  0  0  0  0  0  0
  -18.2980   -8.8750   -6.5700 O   0  0  0  0  0  0  0  0  0  0  0  0
  -16.3440  -10.2590   -6.1390 C   0  0  0  0  0  0  0  0  0  0  0  0
  -14.9600  -10.4230   -6.2340 C   0  0  0  0  0  0  0  0  0  0  0  0
  -14.1530   -9.4430   -6.8260 C   0  0  0  0  0  0  0  0  0  0  0  0
  -12.6940   -9.8210   -6.8230 C   0  0  0  0  0  0  0  0  0  0  0  0
  -11.9950   -9.4600   -5.6390 O   0  0  0  0  0  0  0  0  0  0  0  0
  -12.0410  -10.4020   -7.8580 N   0  0  0  0  0  0  0  0  0  0  0  0
  -12.6850  -11.4010   -8.7250 C   0  0  0  0  0  0  0  0  0  0  0  0
  -11.6990  -12.5730   -8.8040 C   0  0  0  0  0  0  0  0  0  0  0  0
  -12.1960  -13.6900   -9.6900 C   0  0  0  0  0  0  0  0  0  0  0  0
  -11.4530  -14.8300   -9.8090 N   0  0  0  0  0  0  0  0  0  0  0  0
  -13.4490  -13.4740  -10.3390 O   0  0  0  0  0  0  0  0  0  0  0  0
  -10.2970  -12.0840   -9.2060 C   0  0  0  0  0  0  0  0  0  0  0  0
  -10.0740  -10.5840   -9.0350 C   0  0  0  0  0  0  0  0  0  0  0  0
   -8.9690   -9.9530   -9.5490 C   0  0  0  0  0  0  0  0  0  0  0  0
   -8.7580   -8.5660   -9.4080 C   0  0  0  0  0  0  0  0  0  0  0  0
   -9.6650   -7.7900   -8.7350 C   0  0  0  0  0  0  0  0  0  0  0  0
  -10.7740   -8.4130   -8.2120 C   0  0  0  0  0  0  0  0  0  0  0  0
  -10.9640   -9.7970   -8.3680 C   0  0  0  0  0  0  0  0  0  0  0  0
  -14.4760   -6.3360   -8.4090 H   0  0  0  0  0  0  0  0  0  0  0  0
  -13.1340   -6.7210   -7.3180 H   0  0  0  0  0  0  0  0  0  0  0  0
  -13.3020   -7.5390   -8.8870 H   0  0  0  0  0  0  0  0  0  0  0  0
  -16.5610   -7.0700   -7.6950 H   0  0  0  0  0  0  0  0  0  0  0  0
  -18.4350   -7.9350   -6.2890 H   0  0  0  0  0  0  0  0  0  0  0  0
  -16.9260  -11.0590   -5.6640 H   0  0  0  0  0  0  0  0  0  0  0  0
  -14.5070  -11.3280   -5.8390 H   0  0  0  0  0  0  0  0  0  0  0  0
  -13.6600  -11.6260   -8.3010 H   0  0  0  0  0  0  0  0  0  0  0  0
  -12.9450  -10.8950   -9.6490 H   0  0  0  0  0  0  0  0  0  0  0  0
  -11.6060  -13.0140   -7.8000 H   0  0  0  0  0  0  0  0  0  0  0  0
  -10.9820  -15.1720   -8.9630 H   0  0  0  0  0  0  0  0  0  0  0  0
  -11.6220  -15.4970  -10.5490 H   0  0  0  0  0  0  0  0  0  0  0  0
   -9.5740  -12.6290   -8.5880 H   0  0  0  0  0  0  0  0  0  0  0  0
  -10.0760  -12.3580  -10.2430 H   0  0  0  0  0  0  0  0  0  0  0  0
   -8.2300  -10.5500  -10.0900 H   0  0  0  0  0  0  0  0  0  0  0  0
   -7.8690   -8.1050   -9.8330 H   0  0  0  0  0  0  0  0  0  0  0  0
   -9.5150   -6.7200   -8.6170 H   0  0  0  0  0  0  0  0  0  0  0  0
  -11.4800   -7.7840   -7.6820 H   0  0  0  0  0  0  0  0  0  0  0  0
  1  2  1  0
  2  3  2  0
  3  4  1  0
  4  5  1  0
  4  6  2  0
  6  7  1  0
  7  8  2  0
  8  9  1  0
  9 10  2  0
  9 11  1  0
 11 12  1  0
 12 13  1  0
 13 14  1  0
 14 15  1  0
 14 16  2  0
 13 17  1  0
 17 18  1  0
 18 19  2  0
 19 20  1  0
 20 21  2  0
 21 22  1  0
 22 23  2  0
  8  2  1  0
 23 11  1  0
 23 18  1  0
  1 24  1  0
  1 25  1  0
  1 26  1  0
  3 27  1  0
  5 28  1  0
  6 29  1  0
  7 30  1  0
 12 31  1  0
 12 32  1  0
 13 33  1  0
 15 34  1  0
 15 35  1  0
 17 36  1  0
 17 37  1  0
 19 38  1  0
 20 39  1  0
 21 40  1  0
 22 41  1  0
A    1
 C1 
A    2
 C2 
A    3
 C3 
A    4
 C4 
A    5
 O1 
A    6
 C5 
A    7
 C6 
A    8
 C7 
A    9
 C8 
A   10
 O2 
A   11
 N1 
A   12
 C9 
A   13
 C10
A   14
 C11
A   15
 N2 
A   16
 O3 
A   17
 C12
A   18
 C13
A   19
 C14
A   20
 C15
A   21
 C16
A   22
 C17
A   23
 C18
A   24
 H1 
A   25
 H2 
A   26
 H3 
A   27
 H4 
A   28
 H5 
A   29
 H6 
A   30
 H7 
A   31
 H8 
A   32
 H9 
A   33
 H10
A   34
 H11
A   35
 H12
A   36
 H13
A   37
 H14
A   38
 H15
A   39
 H16
A   40
 H17
A   41
 H18
M  END
>  <ref_pdb>  (67) 
x0051_0B

>  <ref_mols>  (67) 
x0051_0B

>  <original SMILES>  (67) 
[H]Oc1c([H])c([H])c(C(=O)N2c3c([H])c([H])c([H])c([H])c3C([H])([H])C([H])(C(=O)N([H])[H])C2([H])[H])c(C([H])([H])[H])c1[H]

>  <index>  (67) 
7389.0

>  <∆∆G>  (67) 
-2.936582

>  <comRMSD>  (67) 
0.714256

>  <N_constrained_atoms>  (67) 
24.0

>  <N_unconstrained_atoms>  (67) 
0.0

>  <LE>  (67) 
0.122358

>  <percent_hybrid>  (67) 
5.0

>  <largest_ring>  (67) 
6.0

>  <N_HA>  (67) 
23.0

>  <N_rotatable_bonds>  (67) 
4.0

>  <max_hit_Tanimoto>  (67) 
0.739464

>  <N_interactions_kept>  (67) 
1.0

>  <N_interactions_lost>  (67) 
1.0

>  <interaction_uniqueness_metric>  (67) 
0.111568

>  <N_interactions>  (67) 
6.0

>  <N_PAINS>  (67) 
0.0

>  <UFF_Gibbs>  (67) 
144.211509

>  <strain_per_HA>  (67) 
6.270038

>  <ad_hoc_penalty>  (67) 
-24.580565

>  <cluster>  (67) 
30.0

>  <intxn_cluster>  (67) 
12.0

>  <keep>  (67) 
1.0

>  <hydroph_interaction:GLN:74>  (67) 
1.0

>  <hydroph_interaction:THR:118>  (67) 
1.0

>  <hydroph_interaction:ILE:123>  (67) 
3.0

>  <hydroph_interaction:THR:166>  (67) 
0.0

>  <hbond:GLN:167>  (67) 
0.0

>  <hydroph_interaction:ALA:88>  (67) 
0.0

>  <hydroph_interaction:ASP:120>  (67) 
0.0

>  <hydroph_interaction:GLN:167>  (67) 
0.0

>  <hbond:THR:118>  (67) 
0.0

>  <hydroph_interaction:ALA:164>  (67) 
0.0

>  <hbond:ASP:120>  (67) 
1.0

>  <hbond:THR:166>  (67) 
0.0

>  <hydroph_interaction:LEU:76>  (67) 
0.0

>  <hbond:ILE:165>  (67) 
0.0

>  <halogenbond:GLN:74>  (67) 
0.0

>  <hbond:GLN:74>  (67) 
0.0

>  <hbond:LYS:73>  (67) 
0.0

>  <pistack:TRP:69>  (67) 
0.0

>  <hbond:TRP:83>  (67) 
0.0

>  <hydroph_interaction:TRP:83>  (67) 
0.0

>  <hydroph_interaction:TRP:69>  (67) 
0.0

>  <pication:TRP:69>  (67) 
0.0

>  <hydroph_interaction:PRO:82>  (67) 
0.0

>  <halogenbond:LYS:73>  (67) 
0.0

>  <hydroph_interaction:TYR:68>  (67) 
0.0

>  <halogenbond:GLN:167>  (67) 
0.0

>  <hydroph_interaction:PHE:116>  (67) 
0.0

>  <hbond:TYR:68>  (67) 
0.0

>  <hbond:ASP:122>  (67) 
0.0

>  <pistack:PHE:116>  (67) 
0.0

>  <hydroph_interaction:VAL:154>  (67) 
0.0

>  <hydroph_interaction:ASP:75>  (67) 
0.0

>  <hbond:GLY:121>  (67) 
0.0

>  <hydroph_interaction:ASN:152>  (67) 
0.0

>  <halogenbond:ILE:165>  (67) 
0.0

$$$$
Z3344281404-Z198195906S1-Z1318054286
     RDKit          3D

 36 37  0  0  0  0  0  0  0  0999 V2000
  -10.1790   -3.5500  -10.2880 C   0  0  0  0  0  0  0  0  0  0  0  0
   -9.0840   -4.0360  -10.4290 C   0  0  0  0  0  0  0  0  0  0  0  0
   -7.6710   -3.9650  -10.9140 C   0  0  0  0  0  0  0  0  0  0  0  0
   -6.7210   -5.1280  -10.7190 C   0  0  0  0  0  0  0  0  0  0  0  0
   -7.1680   -6.3770  -10.0360 C   0  0  0  0  0  0  0  0  0  0  0  0
   -8.4700   -6.4050   -9.5980 C   0  0  0  0  0  0  0  0  0  0  0  0
   -9.3520   -5.3270   -9.7780 C   0  0  0  0  0  0  0  0  0  0  0  0
  -10.6670   -5.4950   -9.2610 N   0  0  0  0  0  0  0  0  0  0  0  0
  -11.6730   -6.3580   -9.6420 C   0  0  0  0  0  0  0  0  0  0  0  0
  -12.2320   -6.4950  -10.9490 O   0  0  0  0  0  0  0  0  0  0  0  0
  -12.1290   -7.1230   -8.5560 N   0  0  0  0  0  0  0  0  0  0  0  0
  -13.5580   -7.1660   -8.2330 C   0  0  0  0  0  0  0  0  0  0  0  0
  -14.2160   -8.5640   -8.0630 C   0  0  2  0  0  0  0  0  0  0  0  0
  -15.7250   -8.5370   -8.3860 C   0  0  0  0  0  0  0  0  0  0  0  0
  -16.4520   -9.6720   -7.9180 O   0  0  0  0  0  0  0  0  0  0  0  0
  -16.2820   -9.8230   -6.5160 C   0  0  0  0  0  0  0  0  0  0  0  0
  -14.8200  -10.0630   -6.1670 C   0  0  0  0  0  0  0  0  0  0  0  0
  -13.9210   -9.0840   -6.7370 O   0  0  0  0  0  0  0  0  0  0  0  0
  -11.0100   -2.8850  -10.3250 H   0  0  0  0  0  0  0  0  0  0  0  0
  -10.7570   -4.3810  -10.7030 H   0  0  0  0  0  0  0  0  0  0  0  0
  -10.1840   -3.6110   -9.2000 H   0  0  0  0  0  0  0  0  0  0  0  0
   -7.2950   -3.0830  -11.4150 H   0  0  0  0  0  0  0  0  0  0  0  0
   -5.6920   -5.0500  -11.0860 H   0  0  0  0  0  0  0  0  0  0  0  0
   -6.4860   -7.2210   -9.8940 H   0  0  0  0  0  0  0  0  0  0  0  0
   -8.7940   -7.3090   -9.0960 H   0  0  0  0  0  0  0  0  0  0  0  0
  -10.9590   -4.8180   -8.5740 H   0  0  0  0  0  0  0  0  0  0  0  0
  -11.5150   -7.0890   -7.7530 H   0  0  0  0  0  0  0  0  0  0  0  0
  -13.7240   -6.6040   -7.3020 H   0  0  0  0  0  0  0  0  0  0  0  0
  -14.0730   -6.5940   -9.0010 H   0  0  0  0  0  0  0  0  0  0  0  0
  -13.7310   -9.2450   -8.7760 H   0  0  0  0  0  0  0  0  0  0  0  0
  -15.8920   -8.4570   -9.4600 H   0  0  0  0  0  0  0  0  0  0  0  0
  -16.1790   -7.6490   -7.9260 H   0  0  0  0  0  0  0  0  0  0  0  0
  -16.9110  -10.6570   -6.1840 H   0  0  0  0  0  0  0  0  0  0  0  0
  -16.6510   -8.9070   -6.0390 H   0  0  0  0  0  0  0  0  0  0  0  0
  -14.6760  -10.0490   -5.0810 H   0  0  0  0  0  0  0  0  0  0  0  0
  -14.5030  -11.0480   -6.5220 H   0  0  0  0  0  0  0  0  0  0  0  0
  1  2  1  0
  2  3  2  0
  3  4  1  0
  4  5  2  0
  5  6  1  0
  6  7  2  0
  7  8  1  0
  8  9  1  0
  9 10  2  0
  9 11  1  0
 11 12  1  0
 12 13  1  0
 13 14  1  0
 14 15  1  0
 15 16  1  0
 16 17  1  0
 17 18  1  0
  7  2  1  0
 18 13  1  0
  1 19  1  0
  1 20  1  0
  1 21  1  0
  3 22  1  0
  4 23  1  0
  5 24  1  0
  6 25  1  0
  8 26  1  0
 11 27  1  0
 12 28  1  0
 12 29  1  0
 13 30  1  6
 14 31  1  0
 14 32  1  0
 16 33  1  0
 16 34  1  0
 17 35  1  0
 17 36  1  0
A    1
 C1 
A    2
 C2 
A    3
 C3 
A    4
 C4 
A    5
 C5 
A    6
 C6 
A    7
 C7 
A    8
 N1 
A    9
 C8 
A   10
 O1 
A   11
 N2 
A   12
 C9 
A   13
 C10
A   14
 C11
A   15
 O2 
A   16
 C12
A   17
 C13
A   18
 O3 
A   19
 H1 
A   20
 H2 
A   21
 H3 
A   22
 H4 
A   23
 H5 
A   24
 H6 
A   25
 H7 
A   26
 H8 
A   27
 H9 
A   28
 H10
A   29
 H11
A   30
 H12
A   31
 H13
A   32
 H14
A   33
 H15
A   34
 H16
A   35
 H17
A   36
 H18
M  END
>  <ref_pdb>  (68) 
x0051_0B

>  <ref_mols>  (68) 
x0051_0B

>  <original SMILES>  (68) 
[H]c1c([H])c([H])c(C([H])([H])[H])c(N([H])C(=O)N([H])C([H])([H])[C@@]2([H])OC([H])([H])C([H])([H])OC2([H])[H])c1[H]

>  <index>  (68) 
5688.0

>  <∆∆G>  (68) 
-5.977139

>  <comRMSD>  (68) 
0.76899

>  <N_constrained_atoms>  (68) 
12.0

>  <N_unconstrained_atoms>  (68) 
7.0

>  <LE>  (68) 
0.314586

>  <percent_hybrid>  (68) 
34.0

>  <largest_ring>  (68) 
6.0

>  <N_HA>  (68) 
18.0

>  <N_rotatable_bonds>  (68) 
4.0

>  <max_hit_Tanimoto>  (68) 
0.206107

>  <N_interactions_kept>  (68) 
0.5

>  <N_interactions_lost>  (68) 
0.5

>  <interaction_uniqueness_metric>  (68) 
0.217462

>  <N_interactions>  (68) 
4.0

>  <N_PAINS>  (68) 
0.0

>  <UFF_Gibbs>  (68) 
456.173354

>  <strain_per_HA>  (68) 
25.342823

>  <ad_hoc_penalty>  (68) 
-24.386767

>  <cluster>  (68) 
173.0

>  <intxn_cluster>  (68) 
3.0

>  <keep>  (68) 
1.0

>  <hydroph_interaction:GLN:74>  (68) 
0.0

>  <hydroph_interaction:THR:118>  (68) 
0.0

>  <hydroph_interaction:ILE:123>  (68) 
1.0

>  <hydroph_interaction:THR:166>  (68) 
0.0

>  <hbond:GLN:167>  (68) 
0.0

>  <hydroph_interaction:ALA:88>  (68) 
0.0

>  <hydroph_interaction:ASP:120>  (68) 
0.0

>  <hydroph_interaction:GLN:167>  (68) 
0.0

>  <hbond:THR:118>  (68) 
0.0

>  <hydroph_interaction:ALA:164>  (68) 
1.0

>  <hbond:ASP:120>  (68) 
0.0

>  <hbond:THR:166>  (68) 
0.0

>  <hydroph_interaction:LEU:76>  (68) 
0.0

>  <hbond:ILE:165>  (68) 
0.0

>  <halogenbond:GLN:74>  (68) 
0.0

>  <hbond:GLN:74>  (68) 
0.0

>  <hbond:LYS:73>  (68) 
0.0

>  <pistack:TRP:69>  (68) 
0.0

>  <hbond:TRP:83>  (68) 
0.0

>  <hydroph_interaction:TRP:83>  (68) 
0.0

>  <hydroph_interaction:TRP:69>  (68) 
0.0

>  <pication:TRP:69>  (68) 
0.0

>  <hydroph_interaction:PRO:82>  (68) 
0.0

>  <halogenbond:LYS:73>  (68) 
0.0

>  <hydroph_interaction:TYR:68>  (68) 
0.0

>  <halogenbond:GLN:167>  (68) 
0.0

>  <hydroph_interaction:PHE:116>  (68) 
2.0

>  <hbond:TYR:68>  (68) 
0.0

>  <hbond:ASP:122>  (68) 
0.0

>  <pistack:PHE:116>  (68) 
0.0

>  <hydroph_interaction:VAL:154>  (68) 
0.0

>  <hydroph_interaction:ASP:75>  (68) 
0.0

>  <hbond:GLY:121>  (68) 
0.0

>  <hydroph_interaction:ASN:152>  (68) 
0.0

>  <halogenbond:ILE:165>  (68) 
0.0

$$$$
Z2168901957-x0214S2-Z198195906S6
     RDKit          3D

 32 33  0  0  0  0  0  0  0  0999 V2000
   -9.7490   -7.4130   -9.1590 C   0  0  0  0  0  0  0  0  0  0  0  0
   -9.6720   -6.3840  -10.2140 N   0  0  0  0  0  0  0  0  0  0  0  0
  -10.9550   -5.6720  -10.3230 C   0  0  0  0  0  0  0  0  0  0  0  0
  -11.1820   -4.6110  -10.8540 O   0  0  0  0  0  0  0  0  0  0  0  0
  -11.9160   -6.5290   -9.6040 C   0  0  0  0  0  0  0  0  0  0  0  0
  -12.7200   -7.3660  -10.3560 C   0  0  0  0  0  0  0  0  0  0  0  0
  -13.5560   -8.2540   -9.6480 C   0  0  0  0  0  0  0  0  0  0  0  0
  -13.5360   -8.2440   -8.2550 C   0  0  0  0  0  0  0  0  0  0  0  0
  -14.3060   -9.1730   -7.4040 C   0  0  0  0  0  0  0  0  0  0  0  0
  -13.3720  -10.1680   -6.7020 C   0  0  0  0  0  0  0  0  0  0  0  0
  -12.9720   -9.5570   -5.5120 C   0  0  0  0  0  0  0  0  0  0  0  0
  -13.9480   -8.4700   -5.2140 C   0  0  0  0  0  0  0  0  0  0  0  0
  -14.9450   -8.4190   -6.2070 C   0  0  0  0  0  0  0  0  0  0  0  0
  -12.7400   -7.3450   -7.5830 C   0  0  0  0  0  0  0  0  0  0  0  0
  -11.9240   -6.4780   -8.2360 C   0  0  0  0  0  0  0  0  0  0  0  0
   -8.9250   -8.1230   -9.2680 H   0  0  0  0  0  0  0  0  0  0  0  0
  -10.6800   -7.9840   -9.2370 H   0  0  0  0  0  0  0  0  0  0  0  0
   -9.7140   -6.9730   -8.1580 H   0  0  0  0  0  0  0  0  0  0  0  0
   -9.1800   -6.6190  -11.0630 H   0  0  0  0  0  0  0  0  0  0  0  0
  -12.6950   -7.3560  -11.4380 H   0  0  0  0  0  0  0  0  0  0  0  0
  -14.1920   -8.9460  -10.1930 H   0  0  0  0  0  0  0  0  0  0  0  0
  -15.1140   -9.6570   -7.9650 H   0  0  0  0  0  0  0  0  0  0  0  0
  -12.4870  -10.3200   -7.3280 H   0  0  0  0  0  0  0  0  0  0  0  0
  -13.8030  -11.1590   -6.6300 H   0  0  0  0  0  0  0  0  0  0  0  0
  -12.9780  -10.2920   -4.6990 H   0  0  0  0  0  0  0  0  0  0  0  0
  -11.9580   -9.1490   -5.5850 H   0  0  0  0  0  0  0  0  0  0  0  0
  -13.4220   -7.5120   -5.1870 H   0  0  0  0  0  0  0  0  0  0  0  0
  -14.3960   -8.6100   -4.2260 H   0  0  0  0  0  0  0  0  0  0  0  0
  -15.8100   -8.9950   -5.8560 H   0  0  0  0  0  0  0  0  0  0  0  0
  -15.3290   -7.4440   -6.4820 H   0  0  0  0  0  0  0  0  0  0  0  0
  -12.6730   -7.2570   -6.4930 H   0  0  0  0  0  0  0  0  0  0  0  0
  -11.2890   -5.7910   -7.6650 H   0  0  0  0  0  0  0  0  0  0  0  0
  1  2  1  0
  2  3  1  0
  3  4  2  0
  3  5  1  0
  5  6  2  0
  6  7  1  0
  7  8  2  0
  8  9  1  0
  9 10  1  0
 10 11  1  0
 11 12  1  0
 12 13  1  0
  8 14  1  0
 14 15  2  0
 15  5  1  0
 13  9  1  0
  1 16  1  0
  1 17  1  0
  1 18  1  0
  2 19  1  0
  6 20  1  0
  7 21  1  0
  9 22  1  0
 10 23  1  0
 10 24  1  0
 11 25  1  0
 11 26  1  0
 12 27  1  0
 12 28  1  0
 13 29  1  0
 13 30  1  0
 14 31  1  0
 15 32  1  0
A    1
 C1 
A    2
 N1 
A    3
 C2 
A    4
 O1 
A    5
 C3 
A    6
 C4 
A    7
 C5 
A    8
 C6 
A    9
 C7 
A   10
 C8 
A   11
 C9 
A   12
 C10
A   13
 C11
A   14
 C12
A   15
 C13
A   16
 H1 
A   17
 H2 
A   18
 H3 
A   19
 H4 
A   20
 H5 
A   21
 H6 
A   22
 H7 
A   23
 H8 
A   24
 H9 
A   25
 H10
A   26
 H11
A   27
 H12
A   28
 H13
A   29
 H14
A   30
 H15
A   31
 H16
A   32
 H17
M  END
>  <ref_pdb>  (69) 
x0051_0B

>  <ref_mols>  (69) 
x0051_0B

>  <original SMILES>  (69) 
[H]c1c([H])c(C2([H])C([H])([H])C([H])([H])C([H])([H])C2([H])[H])c([H])c([H])c1C(=O)N([H])C([H])([H])[H]

>  <index>  (69) 
2596.0

>  <∆∆G>  (69) 
-4.742015

>  <comRMSD>  (69) 
0.945494

>  <N_constrained_atoms>  (69) 
15.0

>  <N_unconstrained_atoms>  (69) 
0.0

>  <LE>  (69) 
0.316134

>  <percent_hybrid>  (69) 
29.0

>  <largest_ring>  (69) 
6.0

>  <N_HA>  (69) 
15.0

>  <N_rotatable_bonds>  (69) 
3.0

>  <max_hit_Tanimoto>  (69) 
0.201597

>  <N_interactions_kept>  (69) 
0.0

>  <N_interactions_lost>  (69) 
0.0

>  <interaction_uniqueness_metric>  (69) 
0.041954

>  <N_interactions>  (69) 
3.0

>  <N_PAINS>  (69) 
0.0

>  <UFF_Gibbs>  (69) 
263.53362

>  <strain_per_HA>  (69) 
17.568791

>  <ad_hoc_penalty>  (69) 
-24.266716

>  <cluster>  (69) 
1353.0

>  <intxn_cluster>  (69) 
12.0

>  <keep>  (69) 
1.0

>  <hydroph_interaction:GLN:74>  (69) 
1.0

>  <hydroph_interaction:THR:118>  (69) 
0.0

>  <hydroph_interaction:ILE:123>  (69) 
2.0

>  <hydroph_interaction:THR:166>  (69) 
0.0

>  <hbond:GLN:167>  (69) 
0.0

>  <hydroph_interaction:ALA:88>  (69) 
0.0

>  <hydroph_interaction:ASP:120>  (69) 
0.0

>  <hydroph_interaction:GLN:167>  (69) 
0.0

>  <hbond:THR:118>  (69) 
0.0

>  <hydroph_interaction:ALA:164>  (69) 
0.0

>  <hbond:ASP:120>  (69) 
0.0

>  <hbond:THR:166>  (69) 
0.0

>  <hydroph_interaction:LEU:76>  (69) 
0.0

>  <hbond:ILE:165>  (69) 
0.0

>  <halogenbond:GLN:74>  (69) 
0.0

>  <hbond:GLN:74>  (69) 
0.0

>  <hbond:LYS:73>  (69) 
0.0

>  <pistack:TRP:69>  (69) 
0.0

>  <hbond:TRP:83>  (69) 
0.0

>  <hydroph_interaction:TRP:83>  (69) 
0.0

>  <hydroph_interaction:TRP:69>  (69) 
0.0

>  <pication:TRP:69>  (69) 
0.0

>  <hydroph_interaction:PRO:82>  (69) 
0.0

>  <halogenbond:LYS:73>  (69) 
0.0

>  <hydroph_interaction:TYR:68>  (69) 
0.0

>  <halogenbond:GLN:167>  (69) 
0.0

>  <hydroph_interaction:PHE:116>  (69) 
0.0

>  <hbond:TYR:68>  (69) 
0.0

>  <hbond:ASP:122>  (69) 
0.0

>  <pistack:PHE:116>  (69) 
0.0

>  <hydroph_interaction:VAL:154>  (69) 
0.0

>  <hydroph_interaction:ASP:75>  (69) 
0.0

>  <hbond:GLY:121>  (69) 
0.0

>  <hydroph_interaction:ASN:152>  (69) 
0.0

>  <halogenbond:ILE:165>  (69) 
0.0

$$$$
Z254210836-x0214S2-Z1318055457S4
     RDKit          3D

 41 43  0  0  0  0  0  0  0  0999 V2000
  -13.4980  -12.0360   -8.0840 O   0  0  0  0  0  0  0  0  0  0  0  0
  -12.5460  -11.3590   -7.6940 C   0  0  0  0  0  0  0  0  0  0  0  0
  -11.1200  -11.8530   -7.8820 C   0  0  0  0  0  0  0  0  0  0  0  0
  -10.4890  -11.3510   -9.0270 C   0  0  0  0  0  0  0  0  0  0  0  0
  -10.1970   -9.9920   -8.9190 C   0  0  0  0  0  0  0  0  0  0  0  0
  -11.0940   -9.1380   -8.3720 C   0  0  0  0  0  0  0  0  0  0  0  0
  -10.8410   -7.6830   -8.2290 C   0  0  0  0  0  0  0  0  0  0  0  0
   -9.5530   -7.1340   -8.7110 C   0  0  0  0  0  0  0  0  0  0  0  0
   -8.6730   -8.0560   -9.2610 C   0  0  0  0  0  0  0  0  0  0  0  0
   -8.9930   -9.4400   -9.3550 C   0  0  0  0  0  0  0  0  0  0  0  0
  -12.7560  -10.1130   -7.0600 N   0  0  0  0  0  0  0  0  0  0  0  0
  -12.2780   -9.6930   -5.7260 C   0  0  0  0  0  0  0  0  0  0  0  0
  -13.3750   -8.8010   -5.1400 C   0  0  0  0  0  0  0  0  0  0  0  0
  -14.5720   -8.9190   -6.0670 C   0  0  0  0  0  0  0  0  0  0  0  0
  -13.9110   -9.2440   -7.4220 C   0  0  0  0  0  0  0  0  0  0  0  0
  -13.5550   -8.1530   -8.2250 C   0  0  0  0  0  0  0  0  0  0  0  0
  -12.9040   -7.0470   -7.7210 C   0  0  0  0  0  0  0  0  0  0  0  0
  -12.5250   -5.9310   -8.5400 C   0  0  0  0  0  0  0  0  0  0  0  0
  -12.8580   -6.0350   -9.8660 C   0  0  0  0  0  0  0  0  0  0  0  0
  -13.5150   -7.0980  -10.3940 N   0  0  0  0  0  0  0  0  0  0  0  0
  -13.8420   -8.1220   -9.5790 C   0  0  0  0  0  0  0  0  0  0  0  0
  -10.5600  -11.4810   -7.0170 H   0  0  0  0  0  0  0  0  0  0  0  0
  -10.9560  -12.9290   -7.8940 H   0  0  0  0  0  0  0  0  0  0  0  0
   -9.6280  -11.9990   -9.1710 H   0  0  0  0  0  0  0  0  0  0  0  0
  -11.0460  -11.5840   -9.9250 H   0  0  0  0  0  0  0  0  0  0  0  0
  -12.0410   -9.5410   -8.0220 H   0  0  0  0  0  0  0  0  0  0  0  0
  -11.5900   -7.0340   -7.7790 H   0  0  0  0  0  0  0  0  0  0  0  0
   -9.3750   -6.0630   -8.6070 H   0  0  0  0  0  0  0  0  0  0  0  0
   -7.7110   -7.7120   -9.6310 H   0  0  0  0  0  0  0  0  0  0  0  0
   -8.2560  -10.1050   -9.7930 H   0  0  0  0  0  0  0  0  0  0  0  0
  -12.0660  -10.5480   -5.0780 H   0  0  0  0  0  0  0  0  0  0  0  0
  -11.3510   -9.1300   -5.8780 H   0  0  0  0  0  0  0  0  0  0  0  0
  -13.6200   -9.0800   -4.1120 H   0  0  0  0  0  0  0  0  0  0  0  0
  -13.0340   -7.7580   -5.1270 H   0  0  0  0  0  0  0  0  0  0  0  0
  -15.2210   -9.7350   -5.7200 H   0  0  0  0  0  0  0  0  0  0  0  0
  -15.1770   -8.0100   -6.1080 H   0  0  0  0  0  0  0  0  0  0  0  0
  -14.5910   -9.8910   -7.9910 H   0  0  0  0  0  0  0  0  0  0  0  0
  -12.6600   -7.0120   -6.6620 H   0  0  0  0  0  0  0  0  0  0  0  0
  -12.0070   -5.0630   -8.1450 H   0  0  0  0  0  0  0  0  0  0  0  0
  -12.6070   -5.2470  -10.5690 H   0  0  0  0  0  0  0  0  0  0  0  0
  -14.3590   -8.9420  -10.0710 H   0  0  0  0  0  0  0  0  0  0  0  0
  1  2  2  0
  2  3  1  0
  3  4  1  0
  4  5  1  0
  5  6  2  0
  6  7  1  0
  7  8  2  0
  8  9  1  0
  9 10  2  0
  2 11  1  0
 11 12  1  0
 12 13  1  0
 13 14  1  0
 14 15  1  0
 15 16  1  0
 16 17  2  0
 17 18  1  0
 18 19  2  0
 19 20  1  0
 20 21  2  0
 10  5  1  0
 15 11  1  0
 21 16  1  0
  3 22  1  0
  3 23  1  0
  4 24  1  0
  4 25  1  0
  6 26  1  0
  7 27  1  0
  8 28  1  0
  9 29  1  0
 10 30  1  0
 12 31  1  0
 12 32  1  0
 13 33  1  0
 13 34  1  0
 14 35  1  0
 14 36  1  0
 15 37  1  0
 17 38  1  0
 18 39  1  0
 19 40  1  0
 21 41  1  0
A    1
 O1 
A    2
 C1 
A    3
 C2 
A    4
 C3 
A    5
 C4 
A    6
 C5 
A    7
 C6 
A    8
 C7 
A    9
 C8 
A   10
 C9 
A   11
 N1 
A   12
 C10
A   13
 C11
A   14
 C12
A   15
 C13
A   16
 C14
A   17
 C15
A   18
 C16
A   19
 C17
A   20
 N2 
A   21
 C18
A   22
 H1 
A   23
 H2 
A   24
 H3 
A   25
 H4 
A   26
 H5 
A   27
 H6 
A   28
 H7 
A   29
 H8 
A   30
 H9 
A   31
 H10
A   32
 H11
A   33
 H12
A   34
 H13
A   35
 H14
A   36
 H15
A   37
 H16
A   38
 H17
A   39
 H18
A   40
 H19
A   41
 H20
M  END
>  <ref_pdb>  (70) 
x0051_0B

>  <ref_mols>  (70) 
x0051_0B

>  <original SMILES>  (70) 
[H]c1nc([H])c(C2([H])N(C(=O)C([H])([H])C([H])([H])c3c([H])c([H])c([H])c([H])c3[H])C([H])([H])C([H])([H])C2([H])[H])c([H])c1[H]

>  <index>  (70) 
5325.0

>  <∆∆G>  (70) 
-1.754951

>  <comRMSD>  (70) 
0.679826

>  <N_constrained_atoms>  (70) 
21.0

>  <N_unconstrained_atoms>  (70) 
1.0

>  <LE>  (70) 
0.079771

>  <percent_hybrid>  (70) 
48.0

>  <largest_ring>  (70) 
6.0

>  <N_HA>  (70) 
21.0

>  <N_rotatable_bonds>  (70) 
4.0

>  <max_hit_Tanimoto>  (70) 
0.242424

>  <N_interactions_kept>  (70) 
0.0

>  <N_interactions_lost>  (70) 
0.5

>  <interaction_uniqueness_metric>  (70) 
0.073038

>  <N_interactions>  (70) 
6.0

>  <N_PAINS>  (70) 
0.0

>  <UFF_Gibbs>  (70) 
8010.163244

>  <strain_per_HA>  (70) 
381.434529

>  <ad_hoc_penalty>  (70) 
-23.668032

>  <cluster>  (70) 
3949.0

>  <intxn_cluster>  (70) 
18.0

>  <keep>  (70) 
1.0

>  <hydroph_interaction:GLN:74>  (70) 
0.0

>  <hydroph_interaction:THR:118>  (70) 
1.0

>  <hydroph_interaction:ILE:123>  (70) 
3.0

>  <hydroph_interaction:THR:166>  (70) 
0.0

>  <hbond:GLN:167>  (70) 
1.0

>  <hydroph_interaction:ALA:88>  (70) 
0.0

>  <hydroph_interaction:ASP:120>  (70) 
1.0

>  <hydroph_interaction:GLN:167>  (70) 
0.0

>  <hbond:THR:118>  (70) 
0.0

>  <hydroph_interaction:ALA:164>  (70) 
0.0

>  <hbond:ASP:120>  (70) 
0.0

>  <hbond:THR:166>  (70) 
0.0

>  <hydroph_interaction:LEU:76>  (70) 
0.0

>  <hbond:ILE:165>  (70) 
0.0

>  <halogenbond:GLN:74>  (70) 
0.0

>  <hbond:GLN:74>  (70) 
0.0

>  <hbond:LYS:73>  (70) 
0.0

>  <pistack:TRP:69>  (70) 
0.0

>  <hbond:TRP:83>  (70) 
0.0

>  <hydroph_interaction:TRP:83>  (70) 
0.0

>  <hydroph_interaction:TRP:69>  (70) 
0.0

>  <pication:TRP:69>  (70) 
0.0

>  <hydroph_interaction:PRO:82>  (70) 
0.0

>  <halogenbond:LYS:73>  (70) 
0.0

>  <hydroph_interaction:TYR:68>  (70) 
0.0

>  <halogenbond:GLN:167>  (70) 
0.0

>  <hydroph_interaction:PHE:116>  (70) 
0.0

>  <hbond:TYR:68>  (70) 
0.0

>  <hbond:ASP:122>  (70) 
0.0

>  <pistack:PHE:116>  (70) 
0.0

>  <hydroph_interaction:VAL:154>  (70) 
0.0

>  <hydroph_interaction:ASP:75>  (70) 
0.0

>  <hbond:GLY:121>  (70) 
0.0

>  <hydroph_interaction:ASN:152>  (70) 
0.0

>  <halogenbond:ILE:165>  (70) 
0.0

$$$$
PV-002761101329-x0806-Z198195906S4
     RDKit          3D

 50 52  0  0  0  0  0  0  0  0999 V2000
  -13.0120   -9.5700   -6.7460 C   0  0  0  0  0  0  0  0  0  0  0  0
  -11.9460  -10.1990   -7.5960 C   0  0  0  0  0  0  0  0  0  0  0  0
  -12.0560  -11.5650   -7.9120 C   0  0  0  0  0  0  0  0  0  0  0  0
  -11.0930  -12.2030   -8.6940 C   0  0  0  0  0  0  0  0  0  0  0  0
  -10.0120  -11.4770   -9.1700 C   0  0  0  0  0  0  0  0  0  0  0  0
   -9.8940  -10.1170   -8.8670 C   0  0  0  0  0  0  0  0  0  0  0  0
  -10.8430   -9.4540   -8.0770 C   0  0  0  0  0  0  0  0  0  0  0  0
  -10.6530   -7.9760   -7.7610 C   0  0  0  0  0  0  0  0  0  0  0  0
  -10.1760   -7.1580   -8.8640 N   0  0  0  0  0  0  0  0  0  0  0  0
  -11.0270   -6.2100   -9.4140 C   0  0  0  0  0  0  0  0  0  0  0  0
  -10.6660   -5.2320  -10.0520 O   0  0  0  0  0  0  0  0  0  0  0  0
  -12.4560   -6.5230   -9.1290 C   0  0  0  0  0  0  0  0  0  0  0  0
  -13.1950   -7.4840   -9.8520 C   0  0  0  0  0  0  0  0  0  0  0  0
  -14.4710   -7.8090   -9.5790 C   0  0  0  0  0  0  0  0  0  0  0  0
  -15.0110   -8.8190  -10.4200 N   0  0  0  0  0  0  0  0  0  0  0  0
  -15.5580  -10.0240  -10.0680 C   0  0  0  0  0  0  0  0  0  0  0  0
  -15.9040  -10.6310  -11.2570 C   0  0  0  0  0  0  0  0  0  0  0  0
  -16.5430  -11.9760  -11.4880 C   0  0  0  0  0  0  0  0  0  0  0  0
  -16.7640  -12.2210  -12.9910 C   0  0  0  0  0  0  0  0  0  0  0  0
  -15.6410  -13.0990  -10.9330 C   0  0  0  0  0  0  0  0  0  0  0  0
  -17.9130  -12.0350  -10.7830 C   0  0  0  0  0  0  0  0  0  0  0  0
  -15.5660   -9.8010  -12.2840 N   0  0  0  0  0  0  0  0  0  0  0  0
  -15.0270   -8.7070  -11.7710 N   0  0  0  0  0  0  0  0  0  0  0  0
  -15.0980   -7.1620   -8.5360 C   0  0  0  0  0  0  0  0  0  0  0  0
  -14.4050   -6.1990   -7.8150 C   0  0  0  0  0  0  0  0  0  0  0  0
  -13.0880   -5.8730   -8.1040 C   0  0  0  0  0  0  0  0  0  0  0  0
  -13.8090  -10.2880   -6.5300 H   0  0  0  0  0  0  0  0  0  0  0  0
  -13.4330   -8.6960   -7.2540 H   0  0  0  0  0  0  0  0  0  0  0  0
  -12.6110   -9.2360   -5.7830 H   0  0  0  0  0  0  0  0  0  0  0  0
  -12.8990  -12.1500   -7.5470 H   0  0  0  0  0  0  0  0  0  0  0  0
  -11.1870  -13.2590   -8.9300 H   0  0  0  0  0  0  0  0  0  0  0  0
   -9.2550  -11.9650   -9.7830 H   0  0  0  0  0  0  0  0  0  0  0  0
   -9.0440   -9.5620   -9.2510 H   0  0  0  0  0  0  0  0  0  0  0  0
   -9.9190   -7.8560   -6.9570 H   0  0  0  0  0  0  0  0  0  0  0  0
  -11.5880   -7.5660   -7.3640 H   0  0  0  0  0  0  0  0  0  0  0  0
   -9.1820   -6.9870   -8.8970 H   0  0  0  0  0  0  0  0  0  0  0  0
  -12.8010   -8.0280  -10.6490 H   0  0  0  0  0  0  0  0  0  0  0  0
  -15.6570  -10.3510   -9.0470 H   0  0  0  0  0  0  0  0  0  0  0  0
  -16.7570  -13.2940  -13.2220 H   0  0  0  0  0  0  0  0  0  0  0  0
  -15.9810  -11.7470  -13.5940 H   0  0  0  0  0  0  0  0  0  0  0  0
  -17.7250  -11.8170  -13.3290 H   0  0  0  0  0  0  0  0  0  0  0  0
  -15.8260  -14.0470  -11.4510 H   0  0  0  0  0  0  0  0  0  0  0  0
  -14.5790  -12.8570  -11.0570 H   0  0  0  0  0  0  0  0  0  0  0  0
  -15.8210  -13.2630   -9.8660 H   0  0  0  0  0  0  0  0  0  0  0  0
  -18.7120  -11.6720  -11.4420 H   0  0  0  0  0  0  0  0  0  0  0  0
  -17.9290  -11.4150   -9.8770 H   0  0  0  0  0  0  0  0  0  0  0  0
  -18.1610  -13.0600  -10.4850 H   0  0  0  0  0  0  0  0  0  0  0  0
  -16.1150   -7.3640   -8.2390 H   0  0  0  0  0  0  0  0  0  0  0  0
  -14.9100   -5.7010   -7.0160 H   0  0  0  0  0  0  0  0  0  0  0  0
  -12.5810   -5.1170   -7.5100 H   0  0  0  0  0  0  0  0  0  0  0  0
  1  2  1  0
  2  3  2  0
  3  4  1  0
  4  5  2  0
  5  6  1  0
  6  7  2  0
  7  8  1  0
  8  9  1  0
  9 10  1  0
 10 11  2  0
 10 12  1  0
 12 13  2  0
 13 14  1  0
 14 15  1  0
 15 16  1  0
 16 17  2  0
 17 18  1  0
 18 19  1  0
 18 20  1  0
 18 21  1  0
 17 22  1  0
 22 23  2  0
 14 24  2  0
 24 25  1  0
 25 26  2  0
  7  2  1  0
 26 12  1  0
 23 15  1  0
  1 27  1  0
  1 28  1  0
  1 29  1  0
  3 30  1  0
  4 31  1  0
  5 32  1  0
  6 33  1  0
  8 34  1  0
  8 35  1  0
  9 36  1  0
 13 37  1  0
 16 38  1  0
 19 39  1  0
 19 40  1  0
 19 41  1  0
 20 42  1  0
 20 43  1  0
 20 44  1  0
 21 45  1  0
 21 46  1  0
 21 47  1  0
 24 48  1  0
 25 49  1  0
 26 50  1  0
A    1
 C1 
A    2
 C2 
A    3
 C3 
A    4
 C4 
A    5
 C5 
A    6
 C6 
A    7
 C7 
A    8
 C8 
A    9
 N1 
A   10
 C9 
A   11
 O1 
A   12
 C10
A   13
 C11
A   14
 C12
A   15
 N2 
A   16
 C13
A   17
 C14
A   18
 C15
A   19
 C16
A   20
 C17
A   21
 C18
A   22
 N3 
A   23
 N4 
A   24
 C19
A   25
 C20
A   26
 C21
A   27
 H1 
A   28
 H2 
A   29
 H3 
A   30
 H4 
A   31
 H5 
A   32
 H6 
A   33
 H7 
A   34
 H8 
A   35
 H9 
A   36
 H10
A   37
 H11
A   38
 H12
A   39
 H13
A   40
 H14
A   41
 H15
A   42
 H16
A   43
 H17
A   44
 H18
A   45
 H19
A   46
 H20
A   47
 H21
A   48
 H22
A   49
 H23
A   50
 H24
M  END
>  <ref_pdb>  (71) 
x0051_0B

>  <ref_mols>  (71) 
x0051_0B

>  <original SMILES>  (71) 
[H]c1c([H])c(C(=O)N([H])C([H])([H])c2c([H])c([H])c([H])c([H])c2C([H])([H])[H])c([H])c(-n2nnc(C(C([H])([H])[H])(C([H])([H])[H])C([H])([H])[H])c2[H])c1[H]

>  <index>  (71) 
10.0

>  <∆∆G>  (71) 
-6.882647

>  <comRMSD>  (71) 
0.529837

>  <N_constrained_atoms>  (71) 
25.0

>  <N_unconstrained_atoms>  (71) 
1.0

>  <LE>  (71) 
0.264717

>  <percent_hybrid>  (71) 
46.0

>  <largest_ring>  (71) 
6.0

>  <N_HA>  (71) 
26.0

>  <N_rotatable_bonds>  (71) 
5.0

>  <max_hit_Tanimoto>  (71) 
0.511379

>  <N_interactions_kept>  (71) 
0.5

>  <N_interactions_lost>  (71) 
3.0

>  <interaction_uniqueness_metric>  (71) 
0.146383

>  <N_interactions>  (71) 
8.0

>  <N_PAINS>  (71) 
0.0

>  <UFF_Gibbs>  (71) 
60.838387

>  <strain_per_HA>  (71) 
2.339929

>  <ad_hoc_penalty>  (71) 
-23.586986

>  <cluster>  (71) 
14.0

>  <intxn_cluster>  (71) 
14.0

>  <keep>  (71) 
1.0

>  <hydroph_interaction:GLN:74>  (71) 
1.0

>  <hydroph_interaction:THR:118>  (71) 
1.0

>  <hydroph_interaction:ILE:123>  (71) 
2.0

>  <hydroph_interaction:THR:166>  (71) 
1.0

>  <hbond:GLN:167>  (71) 
2.0

>  <hydroph_interaction:ALA:88>  (71) 
1.0

>  <hydroph_interaction:ASP:120>  (71) 
0.0

>  <hydroph_interaction:GLN:167>  (71) 
0.0

>  <hbond:THR:118>  (71) 
0.0

>  <hydroph_interaction:ALA:164>  (71) 
0.0

>  <hbond:ASP:120>  (71) 
0.0

>  <hbond:THR:166>  (71) 
0.0

>  <hydroph_interaction:LEU:76>  (71) 
0.0

>  <hbond:ILE:165>  (71) 
0.0

>  <halogenbond:GLN:74>  (71) 
0.0

>  <hbond:GLN:74>  (71) 
0.0

>  <hbond:LYS:73>  (71) 
0.0

>  <pistack:TRP:69>  (71) 
0.0

>  <hbond:TRP:83>  (71) 
0.0

>  <hydroph_interaction:TRP:83>  (71) 
0.0

>  <hydroph_interaction:TRP:69>  (71) 
0.0

>  <pication:TRP:69>  (71) 
0.0

>  <hydroph_interaction:PRO:82>  (71) 
0.0

>  <halogenbond:LYS:73>  (71) 
0.0

>  <hydroph_interaction:TYR:68>  (71) 
0.0

>  <halogenbond:GLN:167>  (71) 
0.0

>  <hydroph_interaction:PHE:116>  (71) 
0.0

>  <hbond:TYR:68>  (71) 
0.0

>  <hbond:ASP:122>  (71) 
0.0

>  <pistack:PHE:116>  (71) 
0.0

>  <hydroph_interaction:VAL:154>  (71) 
0.0

>  <hydroph_interaction:ASP:75>  (71) 
0.0

>  <hbond:GLY:121>  (71) 
0.0

>  <hydroph_interaction:ASN:152>  (71) 
0.0

>  <halogenbond:ILE:165>  (71) 
0.0

$$$$
Z1677488521-x0944S3-x0130S1
     RDKit          3D

 34 35  0  0  0  0  0  0  0  0999 V2000
  -29.0620   -6.1260    1.5610 C   0  0  0  0  0  0  0  0  0  0  0  0
  -28.3900   -7.1130    0.8580 C   0  0  0  0  0  0  0  0  0  0  0  0
  -27.6230   -6.6320   -0.1780 N   0  0  0  0  0  0  0  0  0  0  0  0
  -26.1890   -6.9080   -0.2970 C   0  0  0  0  0  0  0  0  0  0  0  0
  -25.7110   -6.8100   -1.6160 C   0  0  0  0  0  0  0  0  0  0  0  0
  -26.5420   -5.9670   -2.5970 C   0  0  0  0  0  0  0  0  0  0  0  0
  -25.6950   -5.5300   -3.6690 O   0  0  0  0  0  0  0  0  0  0  0  0
  -25.1790   -6.4180   -4.5820 C   0  0  0  0  0  0  0  0  0  0  0  0
  -23.6260   -6.4490   -4.6180 C   0  0  0  0  0  0  0  0  0  0  0  0
  -22.9980   -7.3370   -5.5700 C   0  0  0  0  0  0  0  0  0  0  0  0
  -23.9150   -7.9920   -6.2430 C   0  0  0  0  0  0  0  0  0  0  0  0
  -25.2430   -8.1440   -6.3780 C   0  0  0  0  0  0  0  0  0  0  0  0
  -26.0540   -9.3270   -7.5970 Br  0  0  0  0  0  0  0  0  0  0  0  0
  -25.9170   -7.2860   -5.4760 C   0  0  0  0  0  0  0  0  0  0  0  0
  -27.1680   -4.8020   -1.8250 C   0  0  0  0  0  0  0  0  0  0  0  0
  -28.1040   -5.3480   -0.7570 C   0  0  0  0  0  0  0  0  0  0  0  0
  -29.5840   -6.5730    2.4130 H   0  0  0  0  0  0  0  0  0  0  0  0
  -28.3510   -5.3680    1.9100 H   0  0  0  0  0  0  0  0  0  0  0  0
  -29.8070   -5.6310    0.9300 H   0  0  0  0  0  0  0  0  0  0  0  0
  -27.7360   -7.6590    1.5470 H   0  0  0  0  0  0  0  0  0  0  0  0
  -29.1270   -7.8330    0.4720 H   0  0  0  0  0  0  0  0  0  0  0  0
  -25.6880   -6.1730    0.3410 H   0  0  0  0  0  0  0  0  0  0  0  0
  -25.9930   -7.9070    0.1210 H   0  0  0  0  0  0  0  0  0  0  0  0
  -25.6060   -7.8260   -2.0110 H   0  0  0  0  0  0  0  0  0  0  0  0
  -24.6950   -6.4040   -1.5810 H   0  0  0  0  0  0  0  0  0  0  0  0
  -27.3130   -6.6580   -2.9750 H   0  0  0  0  0  0  0  0  0  0  0  0
  -23.0490   -5.8470   -3.9730 H   0  0  0  0  0  0  0  0  0  0  0  0
  -21.9240   -7.4470   -5.7030 H   0  0  0  0  0  0  0  0  0  0  0  0
  -23.4120   -8.6520   -6.9470 H   0  0  0  0  0  0  0  0  0  0  0  0
  -27.0080   -7.3410   -5.5260 H   0  0  0  0  0  0  0  0  0  0  0  0
  -26.3960   -4.2400   -1.3270 H   0  0  0  0  0  0  0  0  0  0  0  0
  -27.6790   -4.1180   -2.5010 H   0  0  0  0  0  0  0  0  0  0  0  0
  -28.1540   -4.6390    0.0740 H   0  0  0  0  0  0  0  0  0  0  0  0
  -29.1210   -5.4480   -1.1580 H   0  0  0  0  0  0  0  0  0  0  0  0
  1  2  1  0
  2  3  1  0
  3  4  1  0
  4  5  1  0
  5  6  1  0
  6  7  1  0
  7  8  1  0
  8  9  2  0
  9 10  1  0
 10 11  2  0
 11 12  1  0
 12 13  1  0
 12 14  2  0
  6 15  1  0
 15 16  1  0
 16  3  1  0
 14  8  1  0
  1 17  1  0
  1 18  1  0
  1 19  1  0
  2 20  1  0
  2 21  1  0
  4 22  1  0
  4 23  1  0
  5 24  1  0
  5 25  1  0
  6 26  1  0
  9 27  1  0
 10 28  1  0
 11 29  1  0
 14 30  1  0
 15 31  1  0
 15 32  1  0
 16 33  1  0
 16 34  1  0
A    1
 C1 
A    2
 C2 
A    3
 N1 
A    4
 C3 
A    5
 C4 
A    6
 C5 
A    7
 O1 
A    8
 C6 
A    9
 C7 
A   10
 C8 
A   11
 C9 
A   12
 C10
A   13
BR1 
A   14
 C11
A   15
 C12
A   16
 C13
A   17
 H1 
A   18
 H2 
A   19
 H3 
A   20
 H4 
A   21
 H5 
A   22
 H6 
A   23
 H7 
A   24
 H8 
A   25
 H9 
A   26
 H10
A   27
 H11
A   28
 H12
A   29
 H13
A   30
 H14
A   31
 H15
A   32
 H16
A   33
 H17
A   34
 H18
M  END
>  <ref_pdb>  (72) 
x0051_0B

>  <ref_mols>  (72) 
x0051_0B

>  <original SMILES>  (72) 
[H]c1c([H])c(Br)c([H])c(OC2([H])C([H])([H])C([H])([H])N(C([H])([H])C([H])([H])[H])C([H])([H])C2([H])[H])c1[H]

>  <index>  (72) 
6115.0

>  <∆∆G>  (72) 
-2.932625

>  <comRMSD>  (72) 
0.484492

>  <N_constrained_atoms>  (72) 
14.0

>  <N_unconstrained_atoms>  (72) 
2.0

>  <LE>  (72) 
0.183289

>  <percent_hybrid>  (72) 
50.0

>  <largest_ring>  (72) 
6.0

>  <N_HA>  (72) 
16.0

>  <N_rotatable_bonds>  (72) 
4.0

>  <max_hit_Tanimoto>  (72) 
0.069767

>  <N_interactions_kept>  (72) 
1.5

>  <N_interactions_lost>  (72) 
0.0

>  <interaction_uniqueness_metric>  (72) 
0.235172

>  <N_interactions>  (72) 
4.0

>  <N_PAINS>  (72) 
0.0

>  <UFF_Gibbs>  (72) 
111.812111

>  <strain_per_HA>  (72) 
6.988213

>  <ad_hoc_penalty>  (72) 
-23.371075

>  <cluster>  (72) 
1188.0

>  <intxn_cluster>  (72) 
10.0

>  <keep>  (72) 
1.0

>  <hydroph_interaction:GLN:74>  (72) 
0.0

>  <hydroph_interaction:THR:118>  (72) 
0.0

>  <hydroph_interaction:ILE:123>  (72) 
0.0

>  <hydroph_interaction:THR:166>  (72) 
0.0

>  <hbond:GLN:167>  (72) 
0.0

>  <hydroph_interaction:ALA:88>  (72) 
0.0

>  <hydroph_interaction:ASP:120>  (72) 
0.0

>  <hydroph_interaction:GLN:167>  (72) 
0.0

>  <hbond:THR:118>  (72) 
0.0

>  <hydroph_interaction:ALA:164>  (72) 
0.0

>  <hbond:ASP:120>  (72) 
0.0

>  <hbond:THR:166>  (72) 
0.0

>  <hydroph_interaction:LEU:76>  (72) 
0.0

>  <hbond:ILE:165>  (72) 
0.0

>  <halogenbond:GLN:74>  (72) 
0.0

>  <hbond:GLN:74>  (72) 
0.0

>  <hbond:LYS:73>  (72) 
0.0

>  <pistack:TRP:69>  (72) 
0.0

>  <hbond:TRP:83>  (72) 
1.0

>  <hydroph_interaction:TRP:83>  (72) 
0.0

>  <hydroph_interaction:TRP:69>  (72) 
2.0

>  <pication:TRP:69>  (72) 
0.0

>  <hydroph_interaction:PRO:82>  (72) 
1.0

>  <halogenbond:LYS:73>  (72) 
0.0

>  <hydroph_interaction:TYR:68>  (72) 
0.0

>  <halogenbond:GLN:167>  (72) 
0.0

>  <hydroph_interaction:PHE:116>  (72) 
0.0

>  <hbond:TYR:68>  (72) 
0.0

>  <hbond:ASP:122>  (72) 
0.0

>  <pistack:PHE:116>  (72) 
0.0

>  <hydroph_interaction:VAL:154>  (72) 
0.0

>  <hydroph_interaction:ASP:75>  (72) 
0.0

>  <hbond:GLY:121>  (72) 
0.0

>  <hydroph_interaction:ASN:152>  (72) 
0.0

>  <halogenbond:ILE:165>  (72) 
0.0

$$$$
Z1487417947-x0884-Z198195906
     RDKit          3D

 36 37  0  0  0  0  0  0  0  0999 V2000
   -9.8330  -12.5070   -9.6680 C   0  0  0  0  0  0  0  0  0  0  0  0
  -10.5100  -11.5590   -8.7640 C   0  0  0  0  0  0  0  0  0  0  0  0
  -11.5580  -12.0780   -8.0080 C   0  0  0  0  0  0  0  0  0  0  0  0
  -12.2550  -11.2690   -7.1270 C   0  0  0  0  0  0  0  0  0  0  0  0
  -11.9020   -9.9340   -7.0000 C   0  0  0  0  0  0  0  0  0  0  0  0
  -12.6190   -9.1450   -6.1080 C   0  0  0  0  0  0  0  0  0  0  0  0
  -10.8420   -9.3920   -7.7550 C   0  0  0  0  0  0  0  0  0  0  0  0
  -10.4910   -8.0210   -7.5970 N   0  0  0  0  0  0  0  0  0  0  0  0
  -10.2860   -7.3630   -8.8280 N   0  0  0  0  0  0  0  0  0  0  0  0
  -11.1280   -6.3100   -9.1180 C   0  0  0  0  0  0  0  0  0  0  0  0
  -10.7940   -5.3530   -9.8100 O   0  0  0  0  0  0  0  0  0  0  0  0
  -12.5400   -6.4160   -8.4990 C   0  0  0  0  0  0  0  0  0  0  0  0
  -13.5320   -7.2400   -9.0580 C   0  0  0  0  0  0  0  0  0  0  0  0
  -14.3830   -8.0520   -8.2880 C   0  0  0  0  0  0  0  0  0  0  0  0
  -14.0840   -9.4040   -8.0930 C   0  0  0  0  0  0  0  0  0  0  0  0
  -14.9310  -10.2160   -7.3290 C   0  0  0  0  0  0  0  0  0  0  0  0
  -16.0810   -9.6760   -6.7630 C   0  0  0  0  0  0  0  0  0  0  0  0
  -16.3850   -8.3330   -6.9580 C   0  0  0  0  0  0  0  0  0  0  0  0
  -15.5390   -7.5170   -7.7190 C   0  0  0  0  0  0  0  0  0  0  0  0
  -10.1480  -10.2190   -8.6440 C   0  0  0  0  0  0  0  0  0  0  0  0
   -9.5880  -13.4080   -9.1060 H   0  0  0  0  0  0  0  0  0  0  0  0
  -10.4950  -12.7980  -10.4860 H   0  0  0  0  0  0  0  0  0  0  0  0
   -8.9380  -12.0800  -10.1220 H   0  0  0  0  0  0  0  0  0  0  0  0
  -11.8440  -13.1260   -8.0990 H   0  0  0  0  0  0  0  0  0  0  0  0
  -13.0710  -11.6810   -6.5420 H   0  0  0  0  0  0  0  0  0  0  0  0
  -13.4990   -9.6720   -5.7380 H   0  0  0  0  0  0  0  0  0  0  0  0
  -13.0120   -8.2030   -6.4850 H   0  0  0  0  0  0  0  0  0  0  0  0
  -11.9840   -8.9250   -5.2430 H   0  0  0  0  0  0  0  0  0  0  0  0
   -9.6160   -7.9600   -7.0540 H   0  0  0  0  0  0  0  0  0  0  0  0
   -9.3750   -7.4710   -9.2570 H   0  0  0  0  0  0  0  0  0  0  0  0
  -13.1900   -9.8360   -8.5340 H   0  0  0  0  0  0  0  0  0  0  0  0
  -14.6900  -11.2650   -7.1800 H   0  0  0  0  0  0  0  0  0  0  0  0
  -16.7430  -10.3040   -6.1710 H   0  0  0  0  0  0  0  0  0  0  0  0
  -17.2820   -7.9140   -6.5200 H   0  0  0  0  0  0  0  0  0  0  0  0
  -15.7960   -6.4690   -7.8600 H   0  0  0  0  0  0  0  0  0  0  0  0
   -9.3280   -9.8200   -9.2360 H   0  0  0  0  0  0  0  0  0  0  0  0
  1  2  1  0
  2  3  2  0
  3  4  1  0
  4  5  2  0
  5  6  1  0
  5  7  1  0
  7  8  1  0
  8  9  1  0
  9 10  1  0
 10 11  2  0
 10 12  1  0
 12 13  3  0
 13 14  1  0
 14 15  2  0
 15 16  1  0
 16 17  2  0
 17 18  1  0
 18 19  2  0
  7 20  2  0
 20  2  1  0
 19 14  1  0
  1 21  1  0
  1 22  1  0
  1 23  1  0
  3 24  1  0
  4 25  1  0
  6 26  1  0
  6 27  1  0
  6 28  1  0
  8 29  1  0
  9 30  1  0
 15 31  1  0
 16 32  1  0
 17 33  1  0
 18 34  1  0
 19 35  1  0
 20 36  1  0
A    1
 C1 
A    2
 C2 
A    3
 C3 
A    4
 C4 
A    5
 C5 
A    6
 C6 
A    7
 C7 
A    8
 N1 
A    9
 N2 
A   10
 C8 
A   11
 O1 
A   12
 C9 
A   13
 C10
A   14
 C11
A   15
 C12
A   16
 C13
A   17
 C14
A   18
 C15
A   19
 C16
A   20
 C17
A   21
 H1 
A   22
 H2 
A   23
 H3 
A   24
 H4 
A   25
 H5 
A   26
 H6 
A   27
 H7 
A   28
 H8 
A   29
 H9 
A   30
 H10
A   31
 H11
A   32
 H12
A   33
 H13
A   34
 H14
A   35
 H15
A   36
 H16
M  END
>  <ref_pdb>  (73) 
x0051_0B

>  <ref_mols>  (73) 
x0051_0B

>  <original SMILES>  (73) 
[H]c1c([H])c([H])c(C#CC(=O)N([H])N([H])c2c([H])c(C([H])([H])[H])c([H])c([H])c2C([H])([H])[H])c([H])c1[H]

>  <index>  (73) 
3406.0

>  <∆∆G>  (73) 
-8.502378

>  <comRMSD>  (73) 
0.88254

>  <N_constrained_atoms>  (73) 
21.0

>  <N_unconstrained_atoms>  (73) 
1.0

>  <LE>  (73) 
0.386472

>  <percent_hybrid>  (73) 
30.0

>  <largest_ring>  (73) 
6.0

>  <N_HA>  (73) 
20.0

>  <N_rotatable_bonds>  (73) 
4.0

>  <max_hit_Tanimoto>  (73) 
0.17094

>  <N_interactions_kept>  (73) 
1.5

>  <N_interactions_lost>  (73) 
1.0

>  <interaction_uniqueness_metric>  (73) 
0.041954

>  <N_interactions>  (73) 
3.0

>  <N_PAINS>  (73) 
0.0

>  <UFF_Gibbs>  (73) 
306.560586

>  <strain_per_HA>  (73) 
15.327953

>  <ad_hoc_penalty>  (73) 
-23.217149

>  <cluster>  (73) 
1317.0

>  <intxn_cluster>  (73) 
12.0

>  <keep>  (73) 
1.0

>  <hydroph_interaction:GLN:74>  (73) 
1.0

>  <hydroph_interaction:THR:118>  (73) 
0.0

>  <hydroph_interaction:ILE:123>  (73) 
2.0

>  <hydroph_interaction:THR:166>  (73) 
0.0

>  <hbond:GLN:167>  (73) 
0.0

>  <hydroph_interaction:ALA:88>  (73) 
0.0

>  <hydroph_interaction:ASP:120>  (73) 
0.0

>  <hydroph_interaction:GLN:167>  (73) 
0.0

>  <hbond:THR:118>  (73) 
0.0

>  <hydroph_interaction:ALA:164>  (73) 
0.0

>  <hbond:ASP:120>  (73) 
0.0

>  <hbond:THR:166>  (73) 
0.0

>  <hydroph_interaction:LEU:76>  (73) 
0.0

>  <hbond:ILE:165>  (73) 
0.0

>  <halogenbond:GLN:74>  (73) 
0.0

>  <hbond:GLN:74>  (73) 
0.0

>  <hbond:LYS:73>  (73) 
0.0

>  <pistack:TRP:69>  (73) 
0.0

>  <hbond:TRP:83>  (73) 
0.0

>  <hydroph_interaction:TRP:83>  (73) 
0.0

>  <hydroph_interaction:TRP:69>  (73) 
0.0

>  <pication:TRP:69>  (73) 
0.0

>  <hydroph_interaction:PRO:82>  (73) 
0.0

>  <halogenbond:LYS:73>  (73) 
0.0

>  <hydroph_interaction:TYR:68>  (73) 
0.0

>  <halogenbond:GLN:167>  (73) 
0.0

>  <hydroph_interaction:PHE:116>  (73) 
0.0

>  <hbond:TYR:68>  (73) 
0.0

>  <hbond:ASP:122>  (73) 
0.0

>  <pistack:PHE:116>  (73) 
0.0

>  <hydroph_interaction:VAL:154>  (73) 
0.0

>  <hydroph_interaction:ASP:75>  (73) 
0.0

>  <hbond:GLY:121>  (73) 
0.0

>  <hydroph_interaction:ASN:152>  (73) 
0.0

>  <halogenbond:ILE:165>  (73) 
0.0

$$$$
Z3905080821-Z198195906S11-x0884S2
     RDKit          3D

 25 26  0  0  0  0  0  0  0  0999 V2000
  -12.5110   -6.6280   -9.1180 N   0  0  0  0  0  0  0  0  0  0  0  0
  -13.2430   -7.3820   -8.6350 C   0  0  0  0  0  0  0  0  0  0  0  0
  -14.2190   -8.2930   -7.9600 C   0  0  0  0  0  0  0  0  0  0  0  0
  -13.8510   -9.6360   -7.7020 C   0  0  0  0  0  0  0  0  0  0  0  0
  -12.5900  -10.1980   -8.0690 C   0  0  0  0  0  0  0  0  0  0  0  0
  -11.4390   -9.4090   -8.2810 C   0  0  0  0  0  0  0  0  0  0  0  0
  -10.1030  -10.0020   -8.6960 C   0  0  0  0  0  0  0  0  0  0  0  0
  -10.0410  -11.3870   -8.8610 C   0  0  0  0  0  0  0  0  0  0  0  0
  -11.3040  -12.2170   -8.6140 C   0  0  0  0  0  0  0  0  0  0  0  0
  -12.4970  -11.5970   -8.2370 C   0  0  0  0  0  0  0  0  0  0  0  0
  -14.7800  -10.4510   -7.0660 C   0  0  0  0  0  0  0  0  0  0  0  0
  -16.0330   -9.9110   -6.7200 C   0  0  0  0  0  0  0  0  0  0  0  0
  -16.3250   -8.5850   -7.0100 C   0  0  0  0  0  0  0  0  0  0  0  0
  -15.4700   -7.6500   -7.6460 C   0  0  0  0  0  0  0  0  0  0  0  0
  -15.1990   -6.6000   -8.0790 N   0  0  0  0  0  0  0  0  0  0  0  0
  -11.4960   -8.3310   -8.1510 H   0  0  0  0  0  0  0  0  0  0  0  0
   -9.2350   -9.3740   -8.8590 H   0  0  0  0  0  0  0  0  0  0  0  0
   -9.1140  -11.8660   -9.1590 H   0  0  0  0  0  0  0  0  0  0  0  0
  -11.2910  -13.3000   -8.7310 H   0  0  0  0  0  0  0  0  0  0  0  0
  -13.3770  -12.2140   -8.0730 H   0  0  0  0  0  0  0  0  0  0  0  0
  -14.5550  -11.4900   -6.8400 H   0  0  0  0  0  0  0  0  0  0  0  0
  -16.7740  -10.5340   -6.2260 H   0  0  0  0  0  0  0  0  0  0  0  0
  -17.3140   -8.2380   -6.7150 H   0  0  0  0  0  0  0  0  0  0  0  0
  -14.3430   -6.1930   -7.7410 H   0  0  0  0  0  0  0  0  0  0  0  0
  -15.9650   -5.9310   -8.0990 H   0  0  0  0  0  0  0  0  0  0  0  0
  1  2  3  0
  2  3  1  0
  3  4  2  0
  4  5  1  0
  5  6  2  0
  6  7  1  0
  7  8  2  0
  8  9  1  0
  9 10  2  0
  4 11  1  0
 11 12  2  0
 12 13  1  0
 13 14  2  0
 14 15  1  0
 14  3  1  0
 10  5  1  0
  6 16  1  0
  7 17  1  0
  8 18  1  0
  9 19  1  0
 10 20  1  0
 11 21  1  0
 12 22  1  0
 13 23  1  0
 15 24  1  0
 15 25  1  0
A    1
 N1 
A    2
 C1 
A    3
 C2 
A    4
 C3 
A    5
 C4 
A    6
 C5 
A    7
 C6 
A    8
 C7 
A    9
 C8 
A   10
 C9 
A   11
 C10
A   12
 C11
A   13
 C12
A   14
 C13
A   15
 N2 
A   16
 H1 
A   17
 H2 
A   18
 H3 
A   19
 H4 
A   20
 H5 
A   21
 H6 
A   22
 H7 
A   23
 H8 
A   24
 H9 
A   25
 H10
M  END
>  <ref_pdb>  (74) 
x0051_0B

>  <ref_mols>  (74) 
x0051_0B

>  <original SMILES>  (74) 
[H]c1c([H])c([H])c(-c2c([H])c([H])c([H])c(N([H])[H])c2C#N)c([H])c1[H]

>  <index>  (74) 
3282.0

>  <∆∆G>  (74) 
-2.93004

>  <comRMSD>  (74) 
0.449979

>  <N_constrained_atoms>  (74) 
14.0

>  <N_unconstrained_atoms>  (74) 
1.0

>  <LE>  (74) 
0.195336

>  <percent_hybrid>  (74) 
39.0

>  <largest_ring>  (74) 
6.0

>  <N_HA>  (74) 
15.0

>  <N_rotatable_bonds>  (74) 
2.0

>  <max_hit_Tanimoto>  (74) 
0.186893

>  <N_interactions_kept>  (74) 
0.5

>  <N_interactions_lost>  (74) 
0.5

>  <interaction_uniqueness_metric>  (74) 
0.143217

>  <N_interactions>  (74) 
4.0

>  <N_PAINS>  (74) 
0.0

>  <UFF_Gibbs>  (74) 
314.651908

>  <strain_per_HA>  (74) 
20.976654

>  <ad_hoc_penalty>  (74) 
-23.141348

>  <cluster>  (74) 
4822.0

>  <intxn_cluster>  (74) 
8.0

>  <keep>  (74) 
1.0

>  <hydroph_interaction:GLN:74>  (74) 
0.0

>  <hydroph_interaction:THR:118>  (74) 
0.0

>  <hydroph_interaction:ILE:123>  (74) 
2.0

>  <hydroph_interaction:THR:166>  (74) 
0.0

>  <hbond:GLN:167>  (74) 
1.0

>  <hydroph_interaction:ALA:88>  (74) 
0.0

>  <hydroph_interaction:ASP:120>  (74) 
0.0

>  <hydroph_interaction:GLN:167>  (74) 
0.0

>  <hbond:THR:118>  (74) 
0.0

>  <hydroph_interaction:ALA:164>  (74) 
0.0

>  <hbond:ASP:120>  (74) 
0.0

>  <hbond:THR:166>  (74) 
0.0

>  <hydroph_interaction:LEU:76>  (74) 
0.0

>  <hbond:ILE:165>  (74) 
0.0

>  <halogenbond:GLN:74>  (74) 
0.0

>  <hbond:GLN:74>  (74) 
1.0

>  <hbond:LYS:73>  (74) 
0.0

>  <pistack:TRP:69>  (74) 
0.0

>  <hbond:TRP:83>  (74) 
0.0

>  <hydroph_interaction:TRP:83>  (74) 
0.0

>  <hydroph_interaction:TRP:69>  (74) 
0.0

>  <pication:TRP:69>  (74) 
0.0

>  <hydroph_interaction:PRO:82>  (74) 
0.0

>  <halogenbond:LYS:73>  (74) 
0.0

>  <hydroph_interaction:TYR:68>  (74) 
0.0

>  <halogenbond:GLN:167>  (74) 
0.0

>  <hydroph_interaction:PHE:116>  (74) 
0.0

>  <hbond:TYR:68>  (74) 
0.0

>  <hbond:ASP:122>  (74) 
0.0

>  <pistack:PHE:116>  (74) 
0.0

>  <hydroph_interaction:VAL:154>  (74) 
0.0

>  <hydroph_interaction:ASP:75>  (74) 
0.0

>  <hbond:GLY:121>  (74) 
0.0

>  <hydroph_interaction:ASN:152>  (74) 
0.0

>  <halogenbond:ILE:165>  (74) 
0.0

$$$$
PV-002752977160-x0214S3-x0214S5
     RDKit          3D

 23 24  0  0  0  0  0  0  0  0999 V2000
  -14.7080   -8.2400   -6.6470 C   0  0  0  0  0  0  0  0  0  0  0  0
  -13.3990   -8.4940   -7.2460 C   0  0  0  0  0  0  0  0  0  0  0  0
  -13.0380   -7.6410   -8.4190 C   0  0  0  0  0  0  0  0  0  0  0  0
  -12.3630   -6.3360   -8.0780 C   0  0  0  0  0  0  0  0  0  0  0  0
  -11.9940   -5.4870   -9.2810 C   0  0  0  0  0  0  0  0  0  0  0  0
  -12.3420   -6.0500  -10.6220 C   0  0  0  0  0  0  0  0  0  0  0  0
  -13.0130   -7.3370  -10.8900 N   0  0  0  0  0  0  0  0  0  0  0  0
  -13.3400   -8.0870   -9.8330 C   0  0  0  0  0  0  0  0  0  0  0  0
  -12.5160   -9.5430   -6.6390 C   0  0  0  0  0  0  0  0  0  0  0  0
  -12.6330   -9.5920   -5.2420 C   0  0  0  0  0  0  0  0  0  0  0  0
  -13.8370   -9.0090   -4.6650 O   0  0  0  0  0  0  0  0  0  0  0  0
  -15.0350   -9.0220   -5.4640 C   0  0  0  0  0  0  0  0  0  0  0  0
  -15.3630   -7.4750   -7.0830 H   0  0  0  0  0  0  0  0  0  0  0  0
  -12.1560   -6.0250   -7.0610 H   0  0  0  0  0  0  0  0  0  0  0  0
  -11.5000   -4.5230   -9.1800 H   0  0  0  0  0  0  0  0  0  0  0  0
  -12.0980   -5.4850  -11.5200 H   0  0  0  0  0  0  0  0  0  0  0  0
  -13.8300   -9.0280  -10.0670 H   0  0  0  0  0  0  0  0  0  0  0  0
  -11.4810   -9.2930   -6.9010 H   0  0  0  0  0  0  0  0  0  0  0  0
  -12.7190  -10.5460   -7.0400 H   0  0  0  0  0  0  0  0  0  0  0  0
  -12.5520  -10.6290   -4.8930 H   0  0  0  0  0  0  0  0  0  0  0  0
  -11.7850   -9.0570   -4.8040 H   0  0  0  0  0  0  0  0  0  0  0  0
  -15.3250  -10.0480   -5.7200 H   0  0  0  0  0  0  0  0  0  0  0  0
  -15.8430   -8.5470   -4.8920 H   0  0  0  0  0  0  0  0  0  0  0  0
  1  2  2  0
  2  3  1  0
  3  4  2  0
  4  5  1  0
  5  6  2  0
  6  7  1  0
  7  8  2  0
  2  9  1  0
  9 10  1  0
 10 11  1  0
 11 12  1  0
 12  1  1  0
  8  3  1  0
  1 13  1  0
  4 14  1  0
  5 15  1  0
  6 16  1  0
  8 17  1  0
  9 18  1  0
  9 19  1  0
 10 20  1  0
 10 21  1  0
 12 22  1  0
 12 23  1  0
A    1
 C1 
A    2
 C2 
A    3
 C3 
A    4
 C4 
A    5
 C5 
A    6
 C6 
A    7
 N1 
A    8
 C7 
A    9
 C8 
A   10
 C9 
A   11
 O1 
A   12
 C10
A   13
 H1 
A   14
 H2 
A   15
 H3 
A   16
 H4 
A   17
 H5 
A   18
 H6 
A   19
 H7 
A   20
 H8 
A   21
 H9 
A   22
 H10
A   23
 H11
M  END
>  <ref_pdb>  (75) 
x0051_0B

>  <ref_mols>  (75) 
x0051_0B

>  <original SMILES>  (75) 
[H]C1=C(c2c([H])nc([H])c([H])c2[H])C([H])([H])C([H])([H])OC1([H])[H]

>  <index>  (75) 
7063.0

>  <∆∆G>  (75) 
-2.6838

>  <comRMSD>  (75) 
0.67546

>  <N_constrained_atoms>  (75) 
11.0

>  <N_unconstrained_atoms>  (75) 
1.0

>  <LE>  (75) 
0.22365

>  <percent_hybrid>  (75) 
46.0

>  <largest_ring>  (75) 
6.0

>  <N_HA>  (75) 
12.0

>  <N_rotatable_bonds>  (75) 
1.0

>  <max_hit_Tanimoto>  (75) 
0.080729

>  <N_interactions_kept>  (75) 
0.0

>  <N_interactions_lost>  (75) 
0.0

>  <interaction_uniqueness_metric>  (75) 
0.062955

>  <N_interactions>  (75) 
3.0

>  <N_PAINS>  (75) 
0.0

>  <UFF_Gibbs>  (75) 
77.22698

>  <strain_per_HA>  (75) 
6.435528

>  <ad_hoc_penalty>  (75) 
-23.091221

>  <cluster>  (75) 
3215.0

>  <intxn_cluster>  (75) 
2.0

>  <keep>  (75) 
1.0

>  <hydroph_interaction:GLN:74>  (75) 
1.0

>  <hydroph_interaction:THR:118>  (75) 
0.0

>  <hydroph_interaction:ILE:123>  (75) 
1.0

>  <hydroph_interaction:THR:166>  (75) 
1.0

>  <hbond:GLN:167>  (75) 
0.0

>  <hydroph_interaction:ALA:88>  (75) 
0.0

>  <hydroph_interaction:ASP:120>  (75) 
0.0

>  <hydroph_interaction:GLN:167>  (75) 
0.0

>  <hbond:THR:118>  (75) 
0.0

>  <hydroph_interaction:ALA:164>  (75) 
0.0

>  <hbond:ASP:120>  (75) 
0.0

>  <hbond:THR:166>  (75) 
0.0

>  <hydroph_interaction:LEU:76>  (75) 
0.0

>  <hbond:ILE:165>  (75) 
0.0

>  <halogenbond:GLN:74>  (75) 
0.0

>  <hbond:GLN:74>  (75) 
0.0

>  <hbond:LYS:73>  (75) 
0.0

>  <pistack:TRP:69>  (75) 
0.0

>  <hbond:TRP:83>  (75) 
0.0

>  <hydroph_interaction:TRP:83>  (75) 
0.0

>  <hydroph_interaction:TRP:69>  (75) 
0.0

>  <pication:TRP:69>  (75) 
0.0

>  <hydroph_interaction:PRO:82>  (75) 
0.0

>  <halogenbond:LYS:73>  (75) 
0.0

>  <hydroph_interaction:TYR:68>  (75) 
0.0

>  <halogenbond:GLN:167>  (75) 
0.0

>  <hydroph_interaction:PHE:116>  (75) 
0.0

>  <hbond:TYR:68>  (75) 
0.0

>  <hbond:ASP:122>  (75) 
0.0

>  <pistack:PHE:116>  (75) 
0.0

>  <hydroph_interaction:VAL:154>  (75) 
0.0

>  <hydroph_interaction:ASP:75>  (75) 
0.0

>  <hbond:GLY:121>  (75) 
0.0

>  <hydroph_interaction:ASN:152>  (75) 
0.0

>  <halogenbond:ILE:165>  (75) 
0.0

$$$$
PV-002130225019-x0884S2-Z198195906S9
     RDKit          3D

 38 39  0  0  0  0  0  0  0  0999 V2000
  -10.3070   -3.8500   -9.9920 C   0  0  0  0  0  0  0  0  0  0  0  0
  -10.4290   -5.1770   -9.3170 C   0  0  0  0  0  0  0  0  0  0  0  0
  -10.5730   -6.3820  -10.0050 C   0  0  0  0  0  0  0  0  0  0  0  0
  -11.8650   -6.6290  -10.4800 C   0  0  0  0  0  0  0  0  0  0  0  0
  -10.2350   -7.4720   -9.0450 N   0  0  0  0  0  0  0  0  0  0  0  0
  -11.2170   -7.9230   -8.0160 C   0  0  0  0  0  0  0  0  0  0  0  0
  -11.3310   -9.3260   -8.0060 C   0  0  0  0  0  0  0  0  0  0  0  0
  -10.1260  -10.0100   -8.2220 C   0  0  0  0  0  0  0  0  0  0  0  0
  -10.0830  -11.5210   -8.2680 C   0  0  0  0  0  0  0  0  0  0  0  0
  -11.3990  -12.1960   -8.0540 C   0  0  0  0  0  0  0  0  0  0  0  0
  -12.5610  -11.4870   -7.8300 C   0  0  0  0  0  0  0  0  0  0  0  0
  -12.5750  -10.0650   -7.7990 C   0  0  0  0  0  0  0  0  0  0  0  0
  -13.8540   -9.5060   -7.5600 C   0  0  0  0  0  0  0  0  0  0  0  0
  -14.8150  -10.2960   -6.6650 C   0  0  0  0  0  0  0  0  0  0  0  0
  -16.0930   -9.8040   -6.3920 C   0  0  0  0  0  0  0  0  0  0  0  0
  -16.4790   -8.5910   -6.9380 C   0  0  0  0  0  0  0  0  0  0  0  0
  -15.6380   -7.8420   -7.7540 C   0  0  0  0  0  0  0  0  0  0  0  0
  -14.3400   -8.2760   -8.0780 C   0  0  0  0  0  0  0  0  0  0  0  0
  -13.5380   -7.3930   -8.9710 C   0  0  0  0  0  0  0  0  0  0  0  0
  -11.2760   -3.5480  -10.4020 H   0  0  0  0  0  0  0  0  0  0  0  0
   -9.8310   -6.4820  -10.7920 H   0  0  0  0  0  0  0  0  0  0  0  0
  -12.5720   -5.9860   -9.9480 H   0  0  0  0  0  0  0  0  0  0  0  0
  -12.1510   -7.6660  -10.2900 H   0  0  0  0  0  0  0  0  0  0  0  0
  -12.0580   -6.4630  -11.5370 H   0  0  0  0  0  0  0  0  0  0  0  0
   -9.9320   -8.2730   -9.5740 H   0  0  0  0  0  0  0  0  0  0  0  0
  -12.1080   -7.3130   -8.0720 H   0  0  0  0  0  0  0  0  0  0  0  0
  -10.7850   -7.6640   -7.0410 H   0  0  0  0  0  0  0  0  0  0  0  0
   -9.2110   -9.4440   -8.3690 H   0  0  0  0  0  0  0  0  0  0  0  0
   -9.1200  -11.9760   -8.4510 H   0  0  0  0  0  0  0  0  0  0  0  0
  -11.4350  -13.2910   -8.0760 H   0  0  0  0  0  0  0  0  0  0  0  0
  -13.4870  -12.0410   -7.6780 H   0  0  0  0  0  0  0  0  0  0  0  0
  -14.5100  -11.2480   -6.2340 H   0  0  0  0  0  0  0  0  0  0  0  0
  -16.7750  -10.3630   -5.7610 H   0  0  0  0  0  0  0  0  0  0  0  0
  -17.4560   -8.1230   -6.7840 H   0  0  0  0  0  0  0  0  0  0  0  0
  -16.0030   -6.8980   -8.1490 H   0  0  0  0  0  0  0  0  0  0  0  0
  -12.7860   -7.9680   -9.5200 H   0  0  0  0  0  0  0  0  0  0  0  0
  -14.1870   -6.9160   -9.7150 H   0  0  0  0  0  0  0  0  0  0  0  0
  -13.0230   -6.6220   -8.3890 H   0  0  0  0  0  0  0  0  0  0  0  0
  1  2  3  0
  2  3  1  0
  3  4  1  0
  3  5  1  0
  5  6  1  0
  6  7  1  0
  7  8  2  0
  8  9  1  0
  9 10  2  0
 10 11  1  0
 11 12  2  0
 12 13  1  0
 13 14  2  0
 14 15  1  0
 15 16  2  0
 16 17  1  0
 17 18  2  0
 18 19  1  0
 12  7  1  0
 18 13  1  0
  1 20  1  0
  3 21  1  0
  4 22  1  0
  4 23  1  0
  4 24  1  0
  5 25  1  0
  6 26  1  0
  6 27  1  0
  8 28  1  0
  9 29  1  0
 10 30  1  0
 11 31  1  0
 14 32  1  0
 15 33  1  0
 16 34  1  0
 17 35  1  0
 19 36  1  0
 19 37  1  0
 19 38  1  0
A    1
 C1 
A    2
 C2 
A    3
 C3 
A    4
 C4 
A    5
 N1 
A    6
 C5 
A    7
 C6 
A    8
 C7 
A    9
 C8 
A   10
 C9 
A   11
 C10
A   12
 C11
A   13
 C12
A   14
 C13
A   15
 C14
A   16
 C15
A   17
 C16
A   18
 C17
A   19
 C18
A   20
 H1 
A   21
 H2 
A   22
 H3 
A   23
 H4 
A   24
 H5 
A   25
 H6 
A   26
 H7 
A   27
 H8 
A   28
 H9 
A   29
 H10
A   30
 H11
A   31
 H12
A   32
 H13
A   33
 H14
A   34
 H15
A   35
 H16
A   36
 H17
A   37
 H18
A   38
 H19
M  END
>  <ref_pdb>  (76) 
x0051_0B

>  <ref_mols>  (76) 
x0051_0B

>  <original SMILES>  (76) 
[H]C#CC([H])(N([H])C([H])([H])c1c([H])c([H])c([H])c([H])c1-c1c([H])c([H])c([H])c([H])c1C([H])([H])[H])C([H])([H])[H]

>  <index>  (76) 
2194.0

>  <∆∆G>  (76) 
-5.233214

>  <comRMSD>  (76) 
0.563687

>  <N_constrained_atoms>  (76) 
19.0

>  <N_unconstrained_atoms>  (76) 
1.0

>  <LE>  (76) 
0.261661

>  <percent_hybrid>  (76) 
45.0

>  <largest_ring>  (76) 
6.0

>  <N_HA>  (76) 
19.0

>  <N_rotatable_bonds>  (76) 
6.0

>  <max_hit_Tanimoto>  (76) 
0.233766

>  <N_interactions_kept>  (76) 
0.5

>  <N_interactions_lost>  (76) 
0.5

>  <interaction_uniqueness_metric>  (76) 
0.090031

>  <N_interactions>  (76) 
5.0

>  <N_PAINS>  (76) 
0.0

>  <UFF_Gibbs>  (76) 
11397.500571

>  <strain_per_HA>  (76) 
599.865294

>  <ad_hoc_penalty>  (76) 
-23.034021

>  <cluster>  (76) 
5281.0

>  <intxn_cluster>  (76) 
18.0

>  <keep>  (76) 
1.0

>  <hydroph_interaction:GLN:74>  (76) 
0.0

>  <hydroph_interaction:THR:118>  (76) 
0.0

>  <hydroph_interaction:ILE:123>  (76) 
3.0

>  <hydroph_interaction:THR:166>  (76) 
0.0

>  <hbond:GLN:167>  (76) 
0.0

>  <hydroph_interaction:ALA:88>  (76) 
0.0

>  <hydroph_interaction:ASP:120>  (76) 
1.0

>  <hydroph_interaction:GLN:167>  (76) 
0.0

>  <hbond:THR:118>  (76) 
0.0

>  <hydroph_interaction:ALA:164>  (76) 
1.0

>  <hbond:ASP:120>  (76) 
0.0

>  <hbond:THR:166>  (76) 
0.0

>  <hydroph_interaction:LEU:76>  (76) 
0.0

>  <hbond:ILE:165>  (76) 
0.0

>  <halogenbond:GLN:74>  (76) 
0.0

>  <hbond:GLN:74>  (76) 
0.0

>  <hbond:LYS:73>  (76) 
0.0

>  <pistack:TRP:69>  (76) 
0.0

>  <hbond:TRP:83>  (76) 
0.0

>  <hydroph_interaction:TRP:83>  (76) 
0.0

>  <hydroph_interaction:TRP:69>  (76) 
0.0

>  <pication:TRP:69>  (76) 
0.0

>  <hydroph_interaction:PRO:82>  (76) 
0.0

>  <halogenbond:LYS:73>  (76) 
0.0

>  <hydroph_interaction:TYR:68>  (76) 
0.0

>  <halogenbond:GLN:167>  (76) 
0.0

>  <hydroph_interaction:PHE:116>  (76) 
0.0

>  <hbond:TYR:68>  (76) 
0.0

>  <hbond:ASP:122>  (76) 
0.0

>  <pistack:PHE:116>  (76) 
0.0

>  <hydroph_interaction:VAL:154>  (76) 
0.0

>  <hydroph_interaction:ASP:75>  (76) 
0.0

>  <hbond:GLY:121>  (76) 
0.0

>  <hydroph_interaction:ASN:152>  (76) 
0.0

>  <halogenbond:ILE:165>  (76) 
0.0

$$$$
PV-002729700113-x0214S3-Z198195906S10
     RDKit          3D

 24 25  0  0  0  0  0  0  0  0999 V2000
  -11.2630  -12.4130   -8.1850 C   0  0  0  0  0  0  0  0  0  0  0  0
  -12.4010  -11.6250   -7.5580 C   0  0  0  0  0  0  0  0  0  0  0  0
  -12.0770  -10.1980   -7.2130 C   0  0  0  0  0  0  0  0  0  0  0  0
  -10.6820   -9.5900   -7.4900 C   0  0  0  0  0  0  0  0  0  0  0  0
  -10.4410   -8.2510   -7.1350 C   0  0  0  0  0  0  0  0  0  0  0  0
  -11.6990   -7.5910   -6.9860 O   0  0  0  0  0  0  0  0  0  0  0  0
  -12.3480   -7.4830   -8.1620 C   0  0  0  0  0  0  0  0  0  0  0  0
  -13.3850   -8.3050   -8.5820 C   0  0  0  0  0  0  0  0  0  0  0  0
  -13.9490   -8.1190   -9.8210 C   0  0  0  0  0  0  0  0  0  0  0  0
  -13.5500   -7.1670  -10.6760 N   0  0  0  0  0  0  0  0  0  0  0  0
  -12.4840   -6.3140  -10.2200 C   0  0  0  0  0  0  0  0  0  0  0  0
  -11.8900   -6.4620   -8.9850 C   0  0  0  0  0  0  0  0  0  0  0  0
   -9.6220  -10.3960   -8.1010 N   0  0  0  0  0  0  0  0  0  0  0  0
  -10.0180  -11.8180   -8.4130 C   0  0  0  0  0  0  0  0  0  0  0  0
  -11.5120  -13.4530   -8.4280 H   0  0  0  0  0  0  0  0  0  0  0  0
  -13.3800  -12.0910   -7.3780 H   0  0  0  0  0  0  0  0  0  0  0  0
  -12.8680   -9.5920   -6.7500 H   0  0  0  0  0  0  0  0  0  0  0  0
   -9.9260   -8.1130   -6.1880 H   0  0  0  0  0  0  0  0  0  0  0  0
   -9.8670   -7.6770   -7.8570 H   0  0  0  0  0  0  0  0  0  0  0  0
  -13.7510   -9.1000   -7.9400 H   0  0  0  0  0  0  0  0  0  0  0  0
  -14.7620   -8.7600  -10.1590 H   0  0  0  0  0  0  0  0  0  0  0  0
  -12.1810   -5.5450  -10.9290 H   0  0  0  0  0  0  0  0  0  0  0  0
  -11.0870   -5.7850   -8.7060 H   0  0  0  0  0  0  0  0  0  0  0  0
   -9.2160  -12.4160   -8.8710 H   0  0  0  0  0  0  0  0  0  0  0  0
  1  2  2  0
  2  3  1  0
  3  4  2  0
  4  5  1  0
  5  6  1  0
  6  7  1  0
  7  8  2  0
  8  9  1  0
  9 10  2  0
 10 11  1  0
 11 12  2  0
  4 13  1  0
 13 14  2  0
 14  1  1  0
 12  7  1  0
  1 15  1  0
  2 16  1  0
  3 17  1  0
  5 18  1  0
  5 19  1  0
  8 20  1  0
  9 21  1  0
 11 22  1  0
 12 23  1  0
 14 24  1  0
A    1
 C1 
A    2
 C2 
A    3
 C3 
A    4
 C4 
A    5
 C5 
A    6
 O1 
A    7
 C6 
A    8
 C7 
A    9
 C8 
A   10
 N1 
A   11
 C9 
A   12
 C10
A   13
 N2 
A   14
 C11
A   15
 H1 
A   16
 H2 
A   17
 H3 
A   18
 H4 
A   19
 H5 
A   20
 H6 
A   21
 H7 
A   22
 H8 
A   23
 H9 
A   24
 H10
M  END
>  <ref_pdb>  (77) 
x0051_0B

>  <ref_mols>  (77) 
x0051_0B

>  <original SMILES>  (77) 
[H]c1nc(C([H])([H])Oc2c([H])c([H])nc([H])c2[H])c([H])c([H])c1[H]

>  <index>  (77) 
6181.0

>  <∆∆G>  (77) 
-2.728231

>  <comRMSD>  (77) 
0.720176

>  <N_constrained_atoms>  (77) 
13.0

>  <N_unconstrained_atoms>  (77) 
1.0

>  <LE>  (77) 
0.194874

>  <percent_hybrid>  (77) 
47.0

>  <largest_ring>  (77) 
6.0

>  <N_HA>  (77) 
14.0

>  <N_rotatable_bonds>  (77) 
3.0

>  <max_hit_Tanimoto>  (77) 
0.128099

>  <N_interactions_kept>  (77) 
0.5

>  <N_interactions_lost>  (77) 
0.5

>  <interaction_uniqueness_metric>  (77) 
0.076137

>  <N_interactions>  (77) 
5.0

>  <N_PAINS>  (77) 
0.0

>  <UFF_Gibbs>  (77) 
184.341058

>  <strain_per_HA>  (77) 
13.167124

>  <ad_hoc_penalty>  (77) 
-22.935532

>  <cluster>  (77) 
1181.0

>  <intxn_cluster>  (77) 
6.0

>  <keep>  (77) 
1.0

>  <hydroph_interaction:GLN:74>  (77) 
0.0

>  <hydroph_interaction:THR:118>  (77) 
0.0

>  <hydroph_interaction:ILE:123>  (77) 
2.0

>  <hydroph_interaction:THR:166>  (77) 
0.0

>  <hbond:GLN:167>  (77) 
1.0

>  <hydroph_interaction:ALA:88>  (77) 
0.0

>  <hydroph_interaction:ASP:120>  (77) 
1.0

>  <hydroph_interaction:GLN:167>  (77) 
0.0

>  <hbond:THR:118>  (77) 
1.0

>  <hydroph_interaction:ALA:164>  (77) 
0.0

>  <hbond:ASP:120>  (77) 
0.0

>  <hbond:THR:166>  (77) 
0.0

>  <hydroph_interaction:LEU:76>  (77) 
0.0

>  <hbond:ILE:165>  (77) 
0.0

>  <halogenbond:GLN:74>  (77) 
0.0

>  <hbond:GLN:74>  (77) 
0.0

>  <hbond:LYS:73>  (77) 
0.0

>  <pistack:TRP:69>  (77) 
0.0

>  <hbond:TRP:83>  (77) 
0.0

>  <hydroph_interaction:TRP:83>  (77) 
0.0

>  <hydroph_interaction:TRP:69>  (77) 
0.0

>  <pication:TRP:69>  (77) 
0.0

>  <hydroph_interaction:PRO:82>  (77) 
0.0

>  <halogenbond:LYS:73>  (77) 
0.0

>  <hydroph_interaction:TYR:68>  (77) 
0.0

>  <halogenbond:GLN:167>  (77) 
0.0

>  <hydroph_interaction:PHE:116>  (77) 
0.0

>  <hbond:TYR:68>  (77) 
0.0

>  <hbond:ASP:122>  (77) 
0.0

>  <pistack:PHE:116>  (77) 
0.0

>  <hydroph_interaction:VAL:154>  (77) 
0.0

>  <hydroph_interaction:ASP:75>  (77) 
0.0

>  <hbond:GLY:121>  (77) 
0.0

>  <hydroph_interaction:ASN:152>  (77) 
0.0

>  <halogenbond:ILE:165>  (77) 
0.0

$$$$
Z3369589514-x0214S2-x0884S1
     RDKit          3D

 31 32  0  0  0  0  0  0  0  0999 V2000
  -14.7770   -6.3210   -8.1860 C   0  0  0  0  0  0  0  0  0  0  0  0
  -13.3190   -6.7680   -8.0370 C   0  0  0  0  0  0  0  0  0  0  0  0
  -13.0680   -8.1780   -8.4470 N   0  0  0  0  0  0  0  0  0  0  0  0
  -13.5230   -9.2660   -7.5610 C   0  0  2  0  0  0  0  0  0  0  0  0
  -14.2510   -8.7240   -6.3070 C   0  0  0  0  0  0  0  0  0  0  0  0
  -13.2450   -8.5870   -5.2870 O   0  0  0  0  0  0  0  0  0  0  0  0
  -12.0680   -9.3150   -5.7130 C   0  0  0  0  0  0  0  0  0  0  0  0
  -12.4590  -10.1790   -6.9100 C   0  0  2  0  0  0  0  0  0  0  0  0
  -11.3470  -10.6390   -7.7670 N   0  0  0  0  0  0  0  0  0  0  0  0
  -10.3090   -9.9380   -8.3120 C   0  0  0  0  0  0  0  0  0  0  0  0
   -9.5240  -10.9760   -9.0880 C   0  0  0  0  0  0  0  0  0  0  0  0
  -10.2310  -12.1560   -8.8700 C   0  0  0  0  0  0  0  0  0  0  0  0
  -11.3030  -11.9680   -8.0920 N   0  0  0  0  0  0  0  0  0  0  0  0
  -12.4080   -5.8230   -8.8310 C   0  0  0  0  0  0  0  0  0  0  0  0
  -12.2760   -5.8120  -10.0410 O   0  0  0  0  0  0  0  0  0  0  0  0
  -11.7220   -4.9490   -8.0640 O   0  0  0  0  0  0  0  0  0  0  0  0
  -15.4160   -6.8250   -7.4550 H   0  0  0  0  0  0  0  0  0  0  0  0
  -14.8860   -5.2440   -8.0260 H   0  0  0  0  0  0  0  0  0  0  0  0
  -15.1600   -6.5580   -9.1850 H   0  0  0  0  0  0  0  0  0  0  0  0
  -13.0120   -6.6730   -6.9900 H   0  0  0  0  0  0  0  0  0  0  0  0
  -12.0480   -8.2670   -8.5720 H   0  0  0  0  0  0  0  0  0  0  0  0
  -14.1930   -9.9190   -8.1350 H   0  0  0  0  0  0  0  0  0  0  0  0
  -14.7000   -7.7410   -6.4700 H   0  0  0  0  0  0  0  0  0  0  0  0
  -15.0340   -9.3970   -5.9470 H   0  0  0  0  0  0  0  0  0  0  0  0
  -11.7670   -9.9450   -4.8690 H   0  0  0  0  0  0  0  0  0  0  0  0
  -11.2550   -8.6100   -5.9100 H   0  0  0  0  0  0  0  0  0  0  0  0
  -12.9260  -11.1030   -6.5440 H   0  0  0  0  0  0  0  0  0  0  0  0
  -10.1660   -8.8770   -8.1710 H   0  0  0  0  0  0  0  0  0  0  0  0
   -8.6310  -10.8340   -9.6730 H   0  0  0  0  0  0  0  0  0  0  0  0
  -10.0120  -13.1500   -9.2410 H   0  0  0  0  0  0  0  0  0  0  0  0
  -10.9650   -4.6780   -8.6140 H   0  0  0  0  0  0  0  0  0  0  0  0
  1  2  1  0
  2  3  1  0
  3  4  1  0
  4  5  1  0
  5  6  1  0
  6  7  1  0
  7  8  1  0
  8  9  1  0
  9 10  1  0
 10 11  2  0
 11 12  1  0
 12 13  2  0
  2 14  1  0
 14 15  2  0
 14 16  1  0
  8  4  1  0
 13  9  1  0
  1 17  1  0
  1 18  1  0
  1 19  1  0
  2 20  1  0
  3 21  1  0
  4 22  1  6
  5 23  1  0
  5 24  1  0
  7 25  1  0
  7 26  1  0
  8 27  1  1
 10 28  1  0
 11 29  1  0
 12 30  1  0
 16 31  1  0
A    1
 C1 
A    2
 C2 
A    3
 N1 
A    4
 C3 
A    5
 C4 
A    6
 O1 
A    7
 C5 
A    8
 C6 
A    9
 N2 
A   10
 C7 
A   11
 C8 
A   12
 C9 
A   13
 N3 
A   14
 C10
A   15
 O2 
A   16
 O3 
A   17
 H1 
A   18
 H2 
A   19
 H3 
A   20
 H4 
A   21
 H5 
A   22
 H6 
A   23
 H7 
A   24
 H8 
A   25
 H9 
A   26
 H10
A   27
 H11
A   28
 H12
A   29
 H13
A   30
 H14
A   31
 H15
M  END
>  <ref_pdb>  (78) 
x0051_0B

>  <ref_mols>  (78) 
x0051_0B

>  <original SMILES>  (78) 
[H]OC(=O)C([H])(N([H])[C@]1([H])C([H])([H])OC([H])([H])[C@]1([H])n1nc([H])c([H])c1[H])C([H])([H])[H]

>  <index>  (78) 
7884.0

>  <∆∆G>  (78) 
-3.881455

>  <comRMSD>  (78) 
0.693177

>  <N_constrained_atoms>  (78) 
13.0

>  <N_unconstrained_atoms>  (78) 
4.0

>  <LE>  (78) 
0.228321

>  <percent_hybrid>  (78) 
25.0

>  <largest_ring>  (78) 
5.0

>  <N_HA>  (78) 
16.0

>  <N_rotatable_bonds>  (78) 
5.0

>  <max_hit_Tanimoto>  (78) 
0.135453

>  <N_interactions_kept>  (78) 
1.0

>  <N_interactions_lost>  (78) 
0.5

>  <interaction_uniqueness_metric>  (78) 
0.276271

>  <N_interactions>  (78) 
5.0

>  <N_PAINS>  (78) 
0.0

>  <UFF_Gibbs>  (78) 
159.159408

>  <strain_per_HA>  (78) 
9.947401

>  <ad_hoc_penalty>  (78) 
-22.905241

>  <cluster>  (78) 
2921.0

>  <intxn_cluster>  (78) 
2.0

>  <keep>  (78) 
1.0

>  <hydroph_interaction:GLN:74>  (78) 
1.0

>  <hydroph_interaction:THR:118>  (78) 
1.0

>  <hydroph_interaction:ILE:123>  (78) 
1.0

>  <hydroph_interaction:THR:166>  (78) 
1.0

>  <hbond:GLN:167>  (78) 
0.0

>  <hydroph_interaction:ALA:88>  (78) 
0.0

>  <hydroph_interaction:ASP:120>  (78) 
0.0

>  <hydroph_interaction:GLN:167>  (78) 
0.0

>  <hbond:THR:118>  (78) 
0.0

>  <hydroph_interaction:ALA:164>  (78) 
0.0

>  <hbond:ASP:120>  (78) 
0.0

>  <hbond:THR:166>  (78) 
0.0

>  <hydroph_interaction:LEU:76>  (78) 
0.0

>  <hbond:ILE:165>  (78) 
0.0

>  <halogenbond:GLN:74>  (78) 
0.0

>  <hbond:GLN:74>  (78) 
0.0

>  <hbond:LYS:73>  (78) 
1.0

>  <pistack:TRP:69>  (78) 
0.0

>  <hbond:TRP:83>  (78) 
0.0

>  <hydroph_interaction:TRP:83>  (78) 
0.0

>  <hydroph_interaction:TRP:69>  (78) 
0.0

>  <pication:TRP:69>  (78) 
0.0

>  <hydroph_interaction:PRO:82>  (78) 
0.0

>  <halogenbond:LYS:73>  (78) 
0.0

>  <hydroph_interaction:TYR:68>  (78) 
0.0

>  <halogenbond:GLN:167>  (78) 
0.0

>  <hydroph_interaction:PHE:116>  (78) 
0.0

>  <hbond:TYR:68>  (78) 
0.0

>  <hbond:ASP:122>  (78) 
0.0

>  <pistack:PHE:116>  (78) 
0.0

>  <hydroph_interaction:VAL:154>  (78) 
0.0

>  <hydroph_interaction:ASP:75>  (78) 
0.0

>  <hbond:GLY:121>  (78) 
0.0

>  <hydroph_interaction:ASN:152>  (78) 
0.0

>  <halogenbond:ILE:165>  (78) 
0.0

$$$$
Z3382297084-Z198195906S1-x0214S2
     RDKit          3D

 29 30  0  0  0  0  0  0  0  0999 V2000
  -12.3990   -9.4890   -5.5720 N   0  0  0  0  0  0  0  0  0  0  0  0
  -13.3300   -9.8890   -6.5600 N   0  0  0  0  0  0  0  0  0  0  0  0
  -14.1370   -8.9010   -7.1170 C   0  0  0  0  0  0  0  0  0  0  0  0
  -15.2980   -8.7230   -6.7880 O   0  0  0  0  0  0  0  0  0  0  0  0
  -13.4420   -8.0590   -8.1140 C   0  0  0  0  0  0  0  0  0  0  0  0
  -13.5660   -8.1230   -9.5150 C   0  0  0  0  0  0  0  0  0  0  0  0
  -12.7870   -7.2690  -10.3140 C   0  0  0  0  0  0  0  0  0  0  0  0
  -11.8890   -6.3630   -9.7190 C   0  0  0  0  0  0  0  0  0  0  0  0
  -11.0740   -5.5690  -10.4720 C   0  0  0  0  0  0  0  0  0  0  0  0
  -10.7540   -4.2850  -10.0500 C   0  0  0  0  0  0  0  0  0  0  0  0
   -9.4560   -3.8740  -10.3510 C   0  0  0  0  0  0  0  0  0  0  0  0
   -8.7320   -5.0940  -10.5440 O   0  0  0  0  0  0  0  0  0  0  0  0
   -9.6690   -6.1780  -10.4750 C   0  0  0  0  0  0  0  0  0  0  0  0
  -11.7280   -6.2150   -8.3480 C   0  0  0  0  0  0  0  0  0  0  0  0
  -12.5270   -7.0870   -7.4310 C   0  0  0  0  0  0  0  0  0  0  0  0
  -12.9230   -8.9230   -4.8880 H   0  0  0  0  0  0  0  0  0  0  0  0
  -11.7820   -8.7970   -6.0120 H   0  0  0  0  0  0  0  0  0  0  0  0
  -13.6190  -10.8680   -6.5790 H   0  0  0  0  0  0  0  0  0  0  0  0
  -14.2480   -8.8320   -9.9840 H   0  0  0  0  0  0  0  0  0  0  0  0
  -12.8670   -7.3190  -11.3970 H   0  0  0  0  0  0  0  0  0  0  0  0
  -11.4390   -5.5040  -11.4990 H   0  0  0  0  0  0  0  0  0  0  0  0
  -10.8510   -4.3210   -8.9620 H   0  0  0  0  0  0  0  0  0  0  0  0
  -11.5120   -3.5570  -10.3070 H   0  0  0  0  0  0  0  0  0  0  0  0
   -8.9150   -3.3340   -9.5790 H   0  0  0  0  0  0  0  0  0  0  0  0
   -9.3390   -3.2750  -11.2650 H   0  0  0  0  0  0  0  0  0  0  0  0
   -9.4640   -6.8190  -11.3340 H   0  0  0  0  0  0  0  0  0  0  0  0
   -9.4690   -6.7590   -9.5700 H   0  0  0  0  0  0  0  0  0  0  0  0
  -11.0240   -5.4890   -7.9290 H   0  0  0  0  0  0  0  0  0  0  0  0
  -12.4380   -7.0260   -6.3530 H   0  0  0  0  0  0  0  0  0  0  0  0
  1  2  1  0
  2  3  1  0
  3  4  2  0
  3  5  1  0
  5  6  2  0
  6  7  1  0
  7  8  2  0
  8  9  1  0
  9 10  1  0
 10 11  1  0
 11 12  1  0
 12 13  1  0
  8 14  1  0
 14 15  2  0
 15  5  1  0
 13  9  1  0
  1 16  1  0
  1 17  1  0
  2 18  1  0
  6 19  1  0
  7 20  1  0
  9 21  1  0
 10 22  1  0
 10 23  1  0
 11 24  1  0
 11 25  1  0
 13 26  1  0
 13 27  1  0
 14 28  1  0
 15 29  1  0
A    1
 N1 
A    2
 N2 
A    3
 C1 
A    4
 O1 
A    5
 C2 
A    6
 C3 
A    7
 C4 
A    8
 C5 
A    9
 C6 
A   10
 C7 
A   11
 C8 
A   12
 O2 
A   13
 C9 
A   14
 C10
A   15
 C11
A   16
 H1 
A   17
 H2 
A   18
 H3 
A   19
 H4 
A   20
 H5 
A   21
 H6 
A   22
 H7 
A   23
 H8 
A   24
 H9 
A   25
 H10
A   26
 H11
A   27
 H12
A   28
 H13
A   29
 H14
M  END
>  <ref_pdb>  (79) 
x0051_0B

>  <ref_mols>  (79) 
x0051_0B

>  <original SMILES>  (79) 
[H]c1c([H])c(C2([H])C([H])([H])OC([H])([H])C2([H])[H])c([H])c([H])c1C(=O)N([H])N([H])[H]

>  <index>  (79) 
1582.0

>  <∆∆G>  (79) 
-4.379958

>  <comRMSD>  (79) 
0.916097

>  <N_constrained_atoms>  (79) 
14.0

>  <N_unconstrained_atoms>  (79) 
2.0

>  <LE>  (79) 
0.273747

>  <percent_hybrid>  (79) 
24.0

>  <largest_ring>  (79) 
6.0

>  <N_HA>  (79) 
15.0

>  <N_rotatable_bonds>  (79) 
3.0

>  <max_hit_Tanimoto>  (79) 
0.431624

>  <N_interactions_kept>  (79) 
0.0

>  <N_interactions_lost>  (79) 
0.0

>  <interaction_uniqueness_metric>  (79) 
0.074602

>  <N_interactions>  (79) 
3.0

>  <N_PAINS>  (79) 
0.0

>  <UFF_Gibbs>  (79) 
154.048392

>  <strain_per_HA>  (79) 
10.269824

>  <ad_hoc_penalty>  (79) 
-22.863531

>  <cluster>  (79) 
123.0

>  <intxn_cluster>  (79) 
3.0

>  <keep>  (79) 
1.0

>  <hydroph_interaction:GLN:74>  (79) 
0.0

>  <hydroph_interaction:THR:118>  (79) 
0.0

>  <hydroph_interaction:ILE:123>  (79) 
1.0

>  <hydroph_interaction:THR:166>  (79) 
0.0

>  <hbond:GLN:167>  (79) 
1.0

>  <hydroph_interaction:ALA:88>  (79) 
0.0

>  <hydroph_interaction:ASP:120>  (79) 
0.0

>  <hydroph_interaction:GLN:167>  (79) 
0.0

>  <hbond:THR:118>  (79) 
0.0

>  <hydroph_interaction:ALA:164>  (79) 
1.0

>  <hbond:ASP:120>  (79) 
0.0

>  <hbond:THR:166>  (79) 
0.0

>  <hydroph_interaction:LEU:76>  (79) 
0.0

>  <hbond:ILE:165>  (79) 
0.0

>  <halogenbond:GLN:74>  (79) 
0.0

>  <hbond:GLN:74>  (79) 
0.0

>  <hbond:LYS:73>  (79) 
0.0

>  <pistack:TRP:69>  (79) 
0.0

>  <hbond:TRP:83>  (79) 
0.0

>  <hydroph_interaction:TRP:83>  (79) 
0.0

>  <hydroph_interaction:TRP:69>  (79) 
0.0

>  <pication:TRP:69>  (79) 
0.0

>  <hydroph_interaction:PRO:82>  (79) 
0.0

>  <halogenbond:LYS:73>  (79) 
0.0

>  <hydroph_interaction:TYR:68>  (79) 
0.0

>  <halogenbond:GLN:167>  (79) 
0.0

>  <hydroph_interaction:PHE:116>  (79) 
0.0

>  <hbond:TYR:68>  (79) 
0.0

>  <hbond:ASP:122>  (79) 
0.0

>  <pistack:PHE:116>  (79) 
0.0

>  <hydroph_interaction:VAL:154>  (79) 
0.0

>  <hydroph_interaction:ASP:75>  (79) 
0.0

>  <hbond:GLY:121>  (79) 
0.0

>  <hydroph_interaction:ASN:152>  (79) 
0.0

>  <halogenbond:ILE:165>  (79) 
0.0

$$$$
PV-002593198552-Z198195906S1-x0214S3
     RDKit          3D

 16 16  0  0  0  0  0  0  0  0999 V2000
  -10.6320   -4.5200  -10.3570 N   0  0  0  0  0  0  0  0  0  0  0  0
  -10.7190   -5.8590  -10.1200 C   0  0  0  0  0  0  0  0  0  0  0  0
   -9.5770   -6.6660  -10.3210 O   0  0  0  0  0  0  0  0  0  0  0  0
  -12.0160   -6.4350   -9.6220 C   0  0  0  0  0  0  0  0  0  0  0  0
  -12.4480   -6.1200   -8.2440 C   0  0  0  0  0  0  0  0  0  0  0  0
  -13.6160   -6.6770   -7.7680 C   0  0  0  0  0  0  0  0  0  0  0  0
  -14.3050   -7.5120   -8.6570 C   0  0  0  0  0  0  0  0  0  0  0  0
  -15.4580   -8.0780   -8.2000 O   0  0  0  0  0  0  0  0  0  0  0  0
  -13.8370   -7.7540   -9.9530 C   0  0  0  0  0  0  0  0  0  0  0  0
  -12.7140   -7.2310  -10.4560 N   0  0  0  0  0  0  0  0  0  0  0  0
   -9.7640   -4.1060  -10.6610 H   0  0  0  0  0  0  0  0  0  0  0  0
  -11.2240   -3.9520   -9.7620 H   0  0  0  0  0  0  0  0  0  0  0  0
  -11.8620   -5.4680   -7.6030 H   0  0  0  0  0  0  0  0  0  0  0  0
  -14.0650   -6.5520   -6.7900 H   0  0  0  0  0  0  0  0  0  0  0  0
  -16.2440   -7.6890   -8.6700 H   0  0  0  0  0  0  0  0  0  0  0  0
  -14.3750   -8.4010  -10.6450 H   0  0  0  0  0  0  0  0  0  0  0  0
  1  2  1  0
  2  3  2  0
  2  4  1  0
  4  5  2  0
  5  6  1  0
  6  7  2  0
  7  8  1  0
  7  9  1  0
  9 10  2  0
 10  4  1  0
  1 11  1  0
  1 12  1  0
  5 13  1  0
  6 14  1  0
  8 15  1  0
  9 16  1  0
A    1
 N1 
A    2
 C1 
A    3
 O1 
A    4
 C2 
A    5
 C3 
A    6
 C4 
A    7
 C5 
A    8
 O2 
A    9
 C6 
A   10
 N2 
A   11
 H1 
A   12
 H2 
A   13
 H3 
A   14
 H4 
A   15
 H5 
A   16
 H6 
M  END
>  <ref_pdb>  (80) 
x0051_0B

>  <ref_mols>  (80) 
x0051_0B

>  <original SMILES>  (80) 
[H]Oc1c([H])nc(C(=O)N([H])[H])c([H])c1[H]

>  <index>  (80) 
2170.0

>  <∆∆G>  (80) 
-3.513699

>  <comRMSD>  (80) 
0.905786

>  <N_constrained_atoms>  (80) 
9.0

>  <N_unconstrained_atoms>  (80) 
1.0

>  <LE>  (80) 
0.35137

>  <percent_hybrid>  (80) 
38.0

>  <largest_ring>  (80) 
6.0

>  <N_HA>  (80) 
10.0

>  <N_rotatable_bonds>  (80) 
2.0

>  <max_hit_Tanimoto>  (80) 
0.111913

>  <N_interactions_kept>  (80) 
0.0

>  <N_interactions_lost>  (80) 
0.0

>  <interaction_uniqueness_metric>  (80) 
0.081333

>  <N_interactions>  (80) 
3.0

>  <N_PAINS>  (80) 
0.0

>  <UFF_Gibbs>  (80) 
51.561472

>  <strain_per_HA>  (80) 
5.156096

>  <ad_hoc_penalty>  (80) 
-22.57967

>  <cluster>  (80) 
5300.0

>  <intxn_cluster>  (80) 
8.0

>  <keep>  (80) 
1.0

>  <hydroph_interaction:GLN:74>  (80) 
0.0

>  <hydroph_interaction:THR:118>  (80) 
0.0

>  <hydroph_interaction:ILE:123>  (80) 
0.0

>  <hydroph_interaction:THR:166>  (80) 
0.0

>  <hbond:GLN:167>  (80) 
2.0

>  <hydroph_interaction:ALA:88>  (80) 
0.0

>  <hydroph_interaction:ASP:120>  (80) 
0.0

>  <hydroph_interaction:GLN:167>  (80) 
0.0

>  <hbond:THR:118>  (80) 
0.0

>  <hydroph_interaction:ALA:164>  (80) 
0.0

>  <hbond:ASP:120>  (80) 
0.0

>  <hbond:THR:166>  (80) 
1.0

>  <hydroph_interaction:LEU:76>  (80) 
0.0

>  <hbond:ILE:165>  (80) 
0.0

>  <halogenbond:GLN:74>  (80) 
0.0

>  <hbond:GLN:74>  (80) 
0.0

>  <hbond:LYS:73>  (80) 
0.0

>  <pistack:TRP:69>  (80) 
0.0

>  <hbond:TRP:83>  (80) 
0.0

>  <hydroph_interaction:TRP:83>  (80) 
0.0

>  <hydroph_interaction:TRP:69>  (80) 
0.0

>  <pication:TRP:69>  (80) 
0.0

>  <hydroph_interaction:PRO:82>  (80) 
0.0

>  <halogenbond:LYS:73>  (80) 
0.0

>  <hydroph_interaction:TYR:68>  (80) 
0.0

>  <halogenbond:GLN:167>  (80) 
0.0

>  <hydroph_interaction:PHE:116>  (80) 
0.0

>  <hbond:TYR:68>  (80) 
0.0

>  <hbond:ASP:122>  (80) 
0.0

>  <pistack:PHE:116>  (80) 
0.0

>  <hydroph_interaction:VAL:154>  (80) 
0.0

>  <hydroph_interaction:ASP:75>  (80) 
0.0

>  <hbond:GLY:121>  (80) 
0.0

>  <hydroph_interaction:ASN:152>  (80) 
0.0

>  <halogenbond:ILE:165>  (80) 
0.0

$$$$
Z1323878242-x0884S4-Z198195906S9
     RDKit          3D

 30 31  0  0  0  0  0  0  0  0999 V2000
  -11.1990   -5.9940  -10.6020 O   0  0  0  0  0  0  0  0  0  0  0  0
  -11.2160   -6.8210   -9.7110 C   0  0  0  0  0  0  0  0  0  0  0  0
  -12.5280   -7.2760   -9.1160 C   0  0  0  0  0  0  0  0  0  0  0  0
  -13.4970   -7.7150   -8.6040 C   0  0  0  0  0  0  0  0  0  0  0  0
  -14.6580   -8.4050   -7.8940 C   0  0  0  0  0  0  0  0  0  0  0  0
  -14.3250   -9.8440   -7.5170 C   0  0  0  0  0  0  0  0  0  0  0  0
  -15.4150  -10.6210   -6.8000 C   0  0  0  0  0  0  0  0  0  0  0  0
  -16.7040   -9.8550   -6.5590 C   0  0  0  0  0  0  0  0  0  0  0  0
  -16.8760   -8.5290   -6.9650 C   0  0  0  0  0  0  0  0  0  0  0  0
  -15.8730   -7.8100   -7.6190 C   0  0  0  0  0  0  0  0  0  0  0  0
  -10.1460   -7.4400   -9.1330 N   0  0  0  0  0  0  0  0  0  0  0  0
  -10.2740   -8.0640   -7.8170 C   0  0  0  0  0  0  0  0  0  0  0  0
  -10.6190   -9.5530   -7.8450 C   0  0  0  0  0  0  0  0  0  0  0  0
  -11.8860  -10.0110   -7.4490 C   0  0  0  0  0  0  0  0  0  0  0  0
  -12.1710  -11.3860   -7.4960 C   0  0  0  0  0  0  0  0  0  0  0  0
  -11.1980  -12.2690   -7.9350 C   0  0  0  0  0  0  0  0  0  0  0  0
   -9.9740  -11.7460   -8.3030 C   0  0  0  0  0  0  0  0  0  0  0  0
   -9.6630  -10.4250   -8.2650 N   0  0  0  0  0  0  0  0  0  0  0  0
  -13.3670  -10.2950   -7.7430 H   0  0  0  0  0  0  0  0  0  0  0  0
  -15.2810  -11.6510   -6.4850 H   0  0  0  0  0  0  0  0  0  0  0  0
  -17.5250  -10.3570   -6.0520 H   0  0  0  0  0  0  0  0  0  0  0  0
  -17.8230   -8.0360   -6.7660 H   0  0  0  0  0  0  0  0  0  0  0  0
  -16.0620   -6.7790   -7.9100 H   0  0  0  0  0  0  0  0  0  0  0  0
   -9.2020   -7.2720   -9.4660 H   0  0  0  0  0  0  0  0  0  0  0  0
  -11.0460   -7.5200   -7.2650 H   0  0  0  0  0  0  0  0  0  0  0  0
   -9.3200   -7.9260   -7.2960 H   0  0  0  0  0  0  0  0  0  0  0  0
  -12.6390   -9.3070   -7.1100 H   0  0  0  0  0  0  0  0  0  0  0  0
  -13.1470  -11.7610   -7.1950 H   0  0  0  0  0  0  0  0  0  0  0  0
  -11.3830  -13.3360   -7.9910 H   0  0  0  0  0  0  0  0  0  0  0  0
   -9.1920  -12.4040   -8.6550 H   0  0  0  0  0  0  0  0  0  0  0  0
  1  2  2  0
  2  3  1  0
  3  4  3  0
  4  5  1  0
  5  6  2  0
  6  7  1  0
  7  8  2  0
  8  9  1  0
  9 10  2  0
  2 11  1  0
 11 12  1  0
 12 13  1  0
 13 14  2  0
 14 15  1  0
 15 16  2  0
 16 17  1  0
 17 18  2  0
 10  5  1  0
 18 13  1  0
  6 19  1  0
  7 20  1  0
  8 21  1  0
  9 22  1  0
 10 23  1  0
 11 24  1  0
 12 25  1  0
 12 26  1  0
 14 27  1  0
 15 28  1  0
 16 29  1  0
 17 30  1  0
A    1
 O1 
A    2
 C1 
A    3
 C2 
A    4
 C3 
A    5
 C4 
A    6
 C5 
A    7
 C6 
A    8
 C7 
A    9
 C8 
A   10
 C9 
A   11
 N1 
A   12
 C10
A   13
 C11
A   14
 C12
A   15
 C13
A   16
 C14
A   17
 C15
A   18
 N2 
A   19
 H1 
A   20
 H2 
A   21
 H3 
A   22
 H4 
A   23
 H5 
A   24
 H6 
A   25
 H7 
A   26
 H8 
A   27
 H9 
A   28
 H10
A   29
 H11
A   30
 H12
M  END
>  <ref_pdb>  (81) 
x0051_0B

>  <ref_mols>  (81) 
x0051_0B

>  <original SMILES>  (81) 
[H]c1nc(C([H])([H])N([H])C(=O)C#Cc2c([H])c([H])c([H])c([H])c2[H])c([H])c([H])c1[H]

>  <index>  (81) 
1486.0

>  <∆∆G>  (81) 
-2.847482

>  <comRMSD>  (81) 
0.575055

>  <N_constrained_atoms>  (81) 
18.0

>  <N_unconstrained_atoms>  (81) 
0.0

>  <LE>  (81) 
0.158193

>  <percent_hybrid>  (81) 
45.0

>  <largest_ring>  (81) 
6.0

>  <N_HA>  (81) 
18.0

>  <N_rotatable_bonds>  (81) 
2.0

>  <max_hit_Tanimoto>  (81) 
0.212435

>  <N_interactions_kept>  (81) 
0.5

>  <N_interactions_lost>  (81) 
0.5

>  <interaction_uniqueness_metric>  (81) 
0.060884

>  <N_interactions>  (81) 
4.0

>  <N_PAINS>  (81) 
0.0

>  <UFF_Gibbs>  (81) 
1612.010771

>  <strain_per_HA>  (81) 
89.555656

>  <ad_hoc_penalty>  (81) 
-22.572551

>  <cluster>  (81) 
5522.0

>  <intxn_cluster>  (81) 
6.0

>  <keep>  (81) 
1.0

>  <hydroph_interaction:GLN:74>  (81) 
0.0

>  <hydroph_interaction:THR:118>  (81) 
0.0

>  <hydroph_interaction:ILE:123>  (81) 
2.0

>  <hydroph_interaction:THR:166>  (81) 
0.0

>  <hbond:GLN:167>  (81) 
0.0

>  <hydroph_interaction:ALA:88>  (81) 
0.0

>  <hydroph_interaction:ASP:120>  (81) 
1.0

>  <hydroph_interaction:GLN:167>  (81) 
0.0

>  <hbond:THR:118>  (81) 
1.0

>  <hydroph_interaction:ALA:164>  (81) 
0.0

>  <hbond:ASP:120>  (81) 
0.0

>  <hbond:THR:166>  (81) 
0.0

>  <hydroph_interaction:LEU:76>  (81) 
0.0

>  <hbond:ILE:165>  (81) 
0.0

>  <halogenbond:GLN:74>  (81) 
0.0

>  <hbond:GLN:74>  (81) 
0.0

>  <hbond:LYS:73>  (81) 
0.0

>  <pistack:TRP:69>  (81) 
0.0

>  <hbond:TRP:83>  (81) 
0.0

>  <hydroph_interaction:TRP:83>  (81) 
0.0

>  <hydroph_interaction:TRP:69>  (81) 
0.0

>  <pication:TRP:69>  (81) 
0.0

>  <hydroph_interaction:PRO:82>  (81) 
0.0

>  <halogenbond:LYS:73>  (81) 
0.0

>  <hydroph_interaction:TYR:68>  (81) 
0.0

>  <halogenbond:GLN:167>  (81) 
0.0

>  <hydroph_interaction:PHE:116>  (81) 
0.0

>  <hbond:TYR:68>  (81) 
0.0

>  <hbond:ASP:122>  (81) 
0.0

>  <pistack:PHE:116>  (81) 
0.0

>  <hydroph_interaction:VAL:154>  (81) 
0.0

>  <hydroph_interaction:ASP:75>  (81) 
0.0

>  <hbond:GLY:121>  (81) 
0.0

>  <hydroph_interaction:ASN:152>  (81) 
0.0

>  <halogenbond:ILE:165>  (81) 
0.0

$$$$
Z1838209605-x0884S4-Z198195906S10
     RDKit          3D

 27 28  0  0  0  0  0  0  0  0999 V2000
  -12.5800   -7.1050   -8.9850 C   0  0  0  0  0  0  0  0  0  0  0  0
  -14.0900   -7.0120   -9.0500 C   0  0  0  0  0  0  0  0  0  0  0  0
  -14.7960   -8.0550   -8.1410 C   0  0  0  0  0  0  0  0  0  0  0  0
  -14.2530   -9.4380   -7.8990 C   0  0  0  0  0  0  0  0  0  0  0  0
  -14.9630  -10.3210   -7.0690 C   0  0  0  0  0  0  0  0  0  0  0  0
  -16.1610   -9.9170   -6.4760 C   0  0  0  0  0  0  0  0  0  0  0  0
  -16.6630   -8.6330   -6.7000 C   0  0  0  0  0  0  0  0  0  0  0  0
  -15.9930   -7.7170   -7.5130 C   0  0  0  0  0  0  0  0  0  0  0  0
  -11.1270   -7.2060   -8.8880 C   0  0  0  0  0  0  0  0  0  0  0  0
  -10.6920   -8.0450   -7.3350 S   0  0  0  0  0  0  0  0  0  0  0  0
  -10.9740   -9.7720   -7.6800 C   0  0  0  0  0  0  0  0  0  0  0  0
   -9.8440  -10.5410   -8.2940 C   0  0  0  0  0  0  0  0  0  0  0  0
  -10.0100  -12.0070   -8.6090 C   0  0  0  0  0  0  0  0  0  0  0  0
  -11.3260  -12.6600   -8.2940 C   0  0  0  0  0  0  0  0  0  0  0  0
  -12.3400  -11.6980   -7.6700 C   0  0  0  0  0  0  0  0  0  0  0  0
  -12.1510  -10.3710   -7.3960 N   0  0  0  0  0  0  0  0  0  0  0  0
  -13.3260   -9.7510   -8.3660 H   0  0  0  0  0  0  0  0  0  0  0  0
  -14.5810  -11.3220   -6.8880 H   0  0  0  0  0  0  0  0  0  0  0  0
  -16.7060  -10.6060   -5.8370 H   0  0  0  0  0  0  0  0  0  0  0  0
  -17.6010   -8.3380   -6.2290 H   0  0  0  0  0  0  0  0  0  0  0  0
  -16.4220   -6.7270   -7.6550 H   0  0  0  0  0  0  0  0  0  0  0  0
  -10.6950   -6.2010   -8.8850 H   0  0  0  0  0  0  0  0  0  0  0  0
  -10.7240   -7.7490   -9.7450 H   0  0  0  0  0  0  0  0  0  0  0  0
   -8.9280  -10.0380   -8.5070 H   0  0  0  0  0  0  0  0  0  0  0  0
   -9.1970  -12.5850   -9.0590 H   0  0  0  0  0  0  0  0  0  0  0  0
  -11.5350  -13.7060   -8.4870 H   0  0  0  0  0  0  0  0  0  0  0  0
  -13.3260  -12.0670   -7.4010 H   0  0  0  0  0  0  0  0  0  0  0  0
  1  2  3  0
  2  3  1  0
  3  4  2  0
  4  5  1  0
  5  6  2  0
  6  7  1  0
  7  8  2  0
  1  9  1  0
  9 10  1  0
 10 11  1  0
 11 12  2  0
 12 13  1  0
 13 14  2  0
 14 15  1  0
 15 16  2  0
  8  3  1  0
 16 11  1  0
  4 17  1  0
  5 18  1  0
  6 19  1  0
  7 20  1  0
  8 21  1  0
  9 22  1  0
  9 23  1  0
 12 24  1  0
 13 25  1  0
 14 26  1  0
 15 27  1  0
A    1
 C1 
A    2
 C2 
A    3
 C3 
A    4
 C4 
A    5
 C5 
A    6
 C6 
A    7
 C7 
A    8
 C8 
A    9
 C9 
A   10
 S1 
A   11
 C10
A   12
 C11
A   13
 C12
A   14
 C13
A   15
 C14
A   16
 N1 
A   17
 H1 
A   18
 H2 
A   19
 H3 
A   20
 H4 
A   21
 H5 
A   22
 H6 
A   23
 H7 
A   24
 H8 
A   25
 H9 
A   26
 H10
A   27
 H11
M  END
>  <ref_pdb>  (82) 
x0051_0B

>  <ref_mols>  (82) 
x0051_0B

>  <original SMILES>  (82) 
[H]c1nc(SC([H])([H])C#Cc2c([H])c([H])c([H])c([H])c2[H])c([H])c([H])c1[H]

>  <index>  (82) 
5751.0

>  <∆∆G>  (82) 
-2.889293

>  <comRMSD>  (82) 
0.585785

>  <N_constrained_atoms>  (82) 
15.0

>  <N_unconstrained_atoms>  (82) 
1.0

>  <LE>  (82) 
0.180581

>  <percent_hybrid>  (82) 
47.0

>  <largest_ring>  (82) 
6.0

>  <N_HA>  (82) 
16.0

>  <N_rotatable_bonds>  (82) 
2.0

>  <max_hit_Tanimoto>  (82) 
0.14841

>  <N_interactions_kept>  (82) 
0.0

>  <N_interactions_lost>  (82) 
1.0

>  <interaction_uniqueness_metric>  (82) 
0.103589

>  <N_interactions>  (82) 
5.0

>  <N_PAINS>  (82) 
0.0

>  <UFF_Gibbs>  (82) 
492.888754

>  <strain_per_HA>  (82) 
30.805355

>  <ad_hoc_penalty>  (82) 
-22.388068

>  <cluster>  (82) 
3750.0

>  <intxn_cluster>  (82) 
2.0

>  <keep>  (82) 
1.0

>  <hydroph_interaction:GLN:74>  (82) 
1.0

>  <hydroph_interaction:THR:118>  (82) 
1.0

>  <hydroph_interaction:ILE:123>  (82) 
1.0

>  <hydroph_interaction:THR:166>  (82) 
1.0

>  <hbond:GLN:167>  (82) 
0.0

>  <hydroph_interaction:ALA:88>  (82) 
0.0

>  <hydroph_interaction:ASP:120>  (82) 
1.0

>  <hydroph_interaction:GLN:167>  (82) 
0.0

>  <hbond:THR:118>  (82) 
0.0

>  <hydroph_interaction:ALA:164>  (82) 
0.0

>  <hbond:ASP:120>  (82) 
0.0

>  <hbond:THR:166>  (82) 
0.0

>  <hydroph_interaction:LEU:76>  (82) 
0.0

>  <hbond:ILE:165>  (82) 
0.0

>  <halogenbond:GLN:74>  (82) 
0.0

>  <hbond:GLN:74>  (82) 
0.0

>  <hbond:LYS:73>  (82) 
0.0

>  <pistack:TRP:69>  (82) 
0.0

>  <hbond:TRP:83>  (82) 
0.0

>  <hydroph_interaction:TRP:83>  (82) 
0.0

>  <hydroph_interaction:TRP:69>  (82) 
0.0

>  <pication:TRP:69>  (82) 
0.0

>  <hydroph_interaction:PRO:82>  (82) 
0.0

>  <halogenbond:LYS:73>  (82) 
0.0

>  <hydroph_interaction:TYR:68>  (82) 
0.0

>  <halogenbond:GLN:167>  (82) 
0.0

>  <hydroph_interaction:PHE:116>  (82) 
0.0

>  <hbond:TYR:68>  (82) 
0.0

>  <hbond:ASP:122>  (82) 
0.0

>  <pistack:PHE:116>  (82) 
0.0

>  <hydroph_interaction:VAL:154>  (82) 
0.0

>  <hydroph_interaction:ASP:75>  (82) 
0.0

>  <hbond:GLY:121>  (82) 
0.0

>  <hydroph_interaction:ASN:152>  (82) 
0.0

>  <halogenbond:ILE:165>  (82) 
0.0

$$$$
Z1949002806-x0806S1-Z198195906S4
     RDKit          3D

 32 33  0  0  0  0  0  0  0  0999 V2000
  -12.2250   -6.6010  -11.2720 C   0  0  0  0  0  0  0  0  0  0  0  0
  -12.9180   -6.7820   -9.9950 C   0  0  0  0  0  0  0  0  0  0  0  0
  -14.2420   -7.1960   -9.8850 C   0  0  0  0  0  0  0  0  0  0  0  0
  -14.7990   -7.3020   -8.6170 C   0  0  0  0  0  0  0  0  0  0  0  0
  -14.1180   -7.0250   -7.4910 N   0  0  0  0  0  0  0  0  0  0  0  0
  -12.8370   -6.6450   -7.6450 C   0  0  0  0  0  0  0  0  0  0  0  0
  -12.2090   -6.5240   -8.8580 C   0  0  0  0  0  0  0  0  0  0  0  0
  -10.7760   -6.1370   -8.9550 C   0  0  0  0  0  0  0  0  0  0  0  0
  -10.0570   -7.3850   -8.7650 N   0  0  0  0  0  0  0  0  0  0  0  0
  -10.3530   -8.1480   -7.6380 C   0  0  0  0  0  0  0  0  0  0  0  0
  -10.7950   -9.5790   -7.7860 C   0  0  0  0  0  0  0  0  0  0  0  0
  -12.1920  -10.0430   -7.5980 C   0  0  0  0  0  0  0  0  0  0  0  0
  -12.4870  -11.4110   -7.7560 C   0  0  0  0  0  0  0  0  0  0  0  0
  -11.4790  -12.3310   -8.0920 C   0  0  0  0  0  0  0  0  0  0  0  0
  -10.1780  -11.8970   -8.2660 C   0  0  0  0  0  0  0  0  0  0  0  0
   -9.8550  -10.5500   -8.1110 C   0  0  0  0  0  0  0  0  0  0  0  0
  -12.3340   -5.5800  -11.6340 H   0  0  0  0  0  0  0  0  0  0  0  0
  -12.5920   -7.3080  -12.0160 H   0  0  0  0  0  0  0  0  0  0  0  0
  -11.1570   -6.7320  -11.1200 H   0  0  0  0  0  0  0  0  0  0  0  0
  -14.8330   -7.4280  -10.7630 H   0  0  0  0  0  0  0  0  0  0  0  0
  -15.8270   -7.6180   -8.4820 H   0  0  0  0  0  0  0  0  0  0  0  0
  -12.2970   -6.4360   -6.7240 H   0  0  0  0  0  0  0  0  0  0  0  0
  -10.5220   -5.6540   -9.9030 H   0  0  0  0  0  0  0  0  0  0  0  0
  -10.5050   -5.4530   -8.1410 H   0  0  0  0  0  0  0  0  0  0  0  0
   -9.1300   -7.4180   -9.1690 H   0  0  0  0  0  0  0  0  0  0  0  0
   -9.4360   -8.1870   -7.0380 H   0  0  0  0  0  0  0  0  0  0  0  0
  -11.0680   -7.6040   -7.0120 H   0  0  0  0  0  0  0  0  0  0  0  0
  -12.9870   -9.3470   -7.3400 H   0  0  0  0  0  0  0  0  0  0  0  0
  -13.5070  -11.7600   -7.6170 H   0  0  0  0  0  0  0  0  0  0  0  0
  -11.7170  -13.3840   -8.2140 H   0  0  0  0  0  0  0  0  0  0  0  0
   -9.4060  -12.6150   -8.5260 H   0  0  0  0  0  0  0  0  0  0  0  0
   -8.8500  -10.2440   -8.2450 H   0  0  0  0  0  0  0  0  0  0  0  0
  1  2  1  0
  2  3  2  0
  3  4  1  0
  4  5  2  0
  5  6  1  0
  6  7  2  0
  7  8  1  0
  8  9  1  0
  9 10  1  0
 10 11  1  0
 11 12  2  0
 12 13  1  0
 13 14  2  0
 14 15  1  0
 15 16  2  0
  7  2  1  0
 16 11  1  0
  1 17  1  0
  1 18  1  0
  1 19  1  0
  3 20  1  0
  4 21  1  0
  6 22  1  0
  8 23  1  0
  8 24  1  0
  9 25  1  0
 10 26  1  0
 10 27  1  0
 12 28  1  0
 13 29  1  0
 14 30  1  0
 15 31  1  0
 16 32  1  0
A    1
 C1 
A    2
 C2 
A    3
 C3 
A    4
 C4 
A    5
 N1 
A    6
 C5 
A    7
 C6 
A    8
 C7 
A    9
 N2 
A   10
 C8 
A   11
 C9 
A   12
 C10
A   13
 C11
A   14
 C12
A   15
 C13
A   16
 C14
A   17
 H1 
A   18
 H2 
A   19
 H3 
A   20
 H4 
A   21
 H5 
A   22
 H6 
A   23
 H7 
A   24
 H8 
A   25
 H9 
A   26
 H10
A   27
 H11
A   28
 H12
A   29
 H13
A   30
 H14
A   31
 H15
A   32
 H16
M  END
>  <ref_pdb>  (83) 
x0051_0B

>  <ref_mols>  (83) 
x0051_0B

>  <original SMILES>  (83) 
[H]c1nc([H])c(C([H])([H])N([H])C([H])([H])c2c([H])c([H])c([H])c([H])c2[H])c(C([H])([H])[H])c1[H]

>  <index>  (83) 
63.0

>  <∆∆G>  (83) 
-5.446221

>  <comRMSD>  (83) 
0.887223

>  <N_constrained_atoms>  (83) 
17.0

>  <N_unconstrained_atoms>  (83) 
1.0

>  <LE>  (83) 
0.302568

>  <percent_hybrid>  (83) 
32.0

>  <largest_ring>  (83) 
6.0

>  <N_HA>  (83) 
16.0

>  <N_rotatable_bonds>  (83) 
5.0

>  <max_hit_Tanimoto>  (83) 
0.376543

>  <N_interactions_kept>  (83) 
0.0

>  <N_interactions_lost>  (83) 
2.0

>  <interaction_uniqueness_metric>  (83) 
0.132333

>  <N_interactions>  (83) 
7.0

>  <N_PAINS>  (83) 
0.0

>  <UFF_Gibbs>  (83) 
100.408869

>  <strain_per_HA>  (83) 
6.275515

>  <ad_hoc_penalty>  (83) 
-22.261871

>  <cluster>  (83) 
5920.0

>  <intxn_cluster>  (83) 
18.0

>  <keep>  (83) 
1.0

>  <hydroph_interaction:GLN:74>  (83) 
0.0

>  <hydroph_interaction:THR:118>  (83) 
1.0

>  <hydroph_interaction:ILE:123>  (83) 
3.0

>  <hydroph_interaction:THR:166>  (83) 
1.0

>  <hbond:GLN:167>  (83) 
0.0

>  <hydroph_interaction:ALA:88>  (83) 
0.0

>  <hydroph_interaction:ASP:120>  (83) 
1.0

>  <hydroph_interaction:GLN:167>  (83) 
0.0

>  <hbond:THR:118>  (83) 
0.0

>  <hydroph_interaction:ALA:164>  (83) 
1.0

>  <hbond:ASP:120>  (83) 
0.0

>  <hbond:THR:166>  (83) 
0.0

>  <hydroph_interaction:LEU:76>  (83) 
0.0

>  <hbond:ILE:165>  (83) 
0.0

>  <halogenbond:GLN:74>  (83) 
0.0

>  <hbond:GLN:74>  (83) 
0.0

>  <hbond:LYS:73>  (83) 
0.0

>  <pistack:TRP:69>  (83) 
0.0

>  <hbond:TRP:83>  (83) 
0.0

>  <hydroph_interaction:TRP:83>  (83) 
0.0

>  <hydroph_interaction:TRP:69>  (83) 
0.0

>  <pication:TRP:69>  (83) 
0.0

>  <hydroph_interaction:PRO:82>  (83) 
0.0

>  <halogenbond:LYS:73>  (83) 
0.0

>  <hydroph_interaction:TYR:68>  (83) 
0.0

>  <halogenbond:GLN:167>  (83) 
0.0

>  <hydroph_interaction:PHE:116>  (83) 
0.0

>  <hbond:TYR:68>  (83) 
0.0

>  <hbond:ASP:122>  (83) 
0.0

>  <pistack:PHE:116>  (83) 
0.0

>  <hydroph_interaction:VAL:154>  (83) 
0.0

>  <hydroph_interaction:ASP:75>  (83) 
0.0

>  <hbond:GLY:121>  (83) 
0.0

>  <hydroph_interaction:ASN:152>  (83) 
0.0

>  <halogenbond:ILE:165>  (83) 
0.0

$$$$
PV-002836684155-Z198195906S1-x0214S2
     RDKit          3D

 28 29  0  0  0  0  0  0  0  0999 V2000
  -10.7530   -4.3120  -10.4790 C   0  0  0  0  0  0  0  0  0  0  0  0
  -10.6330   -5.7440  -10.2350 C   0  0  0  0  0  0  0  0  0  0  0  0
   -9.4950   -6.4680  -10.5880 C   0  0  0  0  0  0  0  0  0  0  0  0
  -11.6510   -6.5380   -9.5770 C   0  0  0  0  0  0  0  0  0  0  0  0
  -11.7530   -6.4390   -8.2160 C   0  0  0  0  0  0  0  0  0  0  0  0
  -12.6820   -7.2820   -7.4920 C   0  0  0  0  0  0  0  0  0  0  0  0
  -13.4810   -8.2010   -8.1660 C   0  0  0  0  0  0  0  0  0  0  0  0
  -14.2760   -8.9950   -7.3780 C   0  0  0  0  0  0  0  0  0  0  0  0
  -13.4300  -10.1530   -6.7890 C   0  0  0  0  0  0  0  0  0  0  0  0
  -13.3800   -9.6470   -5.5640 C   0  0  0  0  0  0  0  0  0  0  0  0
  -14.3570   -8.5130   -5.8400 C   0  0  0  0  0  0  0  0  0  0  0  0
  -13.3850   -8.2440   -9.5550 C   0  0  0  0  0  0  0  0  0  0  0  0
  -12.4800   -7.4280  -10.3640 N   0  0  0  0  0  0  0  0  0  0  0  0
   -9.9390   -3.7620  -10.9680 H   0  0  0  0  0  0  0  0  0  0  0  0
  -11.6410   -3.7420  -10.1880 H   0  0  0  0  0  0  0  0  0  0  0  0
   -8.6240   -5.8720  -10.3030 H   0  0  0  0  0  0  0  0  0  0  0  0
   -9.3480   -7.4180  -10.0820 H   0  0  0  0  0  0  0  0  0  0  0  0
   -9.3620   -6.7120  -11.6350 H   0  0  0  0  0  0  0  0  0  0  0  0
  -11.1140   -5.7380   -7.6870 H   0  0  0  0  0  0  0  0  0  0  0  0
  -12.7290   -7.1960   -6.4070 H   0  0  0  0  0  0  0  0  0  0  0  0
  -15.2820   -9.2080   -7.7280 H   0  0  0  0  0  0  0  0  0  0  0  0
  -13.8160  -11.1640   -6.8900 H   0  0  0  0  0  0  0  0  0  0  0  0
  -12.4050  -10.1980   -7.1770 H   0  0  0  0  0  0  0  0  0  0  0  0
  -12.3720   -9.2850   -5.3350 H   0  0  0  0  0  0  0  0  0  0  0  0
  -13.7470  -10.3680   -4.8230 H   0  0  0  0  0  0  0  0  0  0  0  0
  -15.3010   -8.6660   -5.3000 H   0  0  0  0  0  0  0  0  0  0  0  0
  -14.0600   -7.4810   -5.6860 H   0  0  0  0  0  0  0  0  0  0  0  0
  -14.0010   -8.9330  -10.1400 H   0  0  0  0  0  0  0  0  0  0  0  0
  1  2  2  0
  2  3  1  0
  2  4  1  0
  4  5  2  0
  5  6  1  0
  6  7  2  0
  7  8  1  0
  8  9  1  0
  9 10  1  0
 10 11  1  0
  7 12  1  0
 12 13  2  0
 13  4  1  0
 11  8  1  0
  1 14  1  0
  1 15  1  0
  3 16  1  0
  3 17  1  0
  3 18  1  0
  5 19  1  0
  6 20  1  0
  8 21  1  0
  9 22  1  0
  9 23  1  0
 10 24  1  0
 10 25  1  0
 11 26  1  0
 11 27  1  0
 12 28  1  0
A    1
 C1 
A    2
 C2 
A    3
 C3 
A    4
 C4 
A    5
 C5 
A    6
 C6 
A    7
 C7 
A    8
 C8 
A    9
 C9 
A   10
 C10
A   11
 C11
A   12
 C12
A   13
 N1 
A   14
 H1 
A   15
 H2 
A   16
 H3 
A   17
 H4 
A   18
 H5 
A   19
 H6 
A   20
 H7 
A   21
 H8 
A   22
 H9 
A   23
 H10
A   24
 H11
A   25
 H12
A   26
 H13
A   27
 H14
A   28
 H15
M  END
>  <ref_pdb>  (84) 
x0051_0B

>  <ref_mols>  (84) 
x0051_0B

>  <original SMILES>  (84) 
[H]C([H])=C(c1nc([H])c(C2([H])C([H])([H])C([H])([H])C2([H])[H])c([H])c1[H])C([H])([H])[H]

>  <index>  (84) 
1587.0

>  <∆∆G>  (84) 
-3.755308

>  <comRMSD>  (84) 
0.973752

>  <N_constrained_atoms>  (84) 
14.0

>  <N_unconstrained_atoms>  (84) 
0.0

>  <LE>  (84) 
0.268236

>  <percent_hybrid>  (84) 
24.0

>  <largest_ring>  (84) 
6.0

>  <N_HA>  (84) 
13.0

>  <N_rotatable_bonds>  (84) 
3.0

>  <max_hit_Tanimoto>  (84) 
0.37911

>  <N_interactions_kept>  (84) 
0.0

>  <N_interactions_lost>  (84) 
0.0

>  <interaction_uniqueness_metric>  (84) 
0.087299

>  <N_interactions>  (84) 
3.0

>  <N_PAINS>  (84) 
0.0

>  <UFF_Gibbs>  (84) 
180.556297

>  <strain_per_HA>  (84) 
13.888839

>  <ad_hoc_penalty>  (84) 
-22.191017

>  <cluster>  (84) 
5499.0

>  <intxn_cluster>  (84) 
3.0

>  <keep>  (84) 
1.0

>  <hydroph_interaction:GLN:74>  (84) 
1.0

>  <hydroph_interaction:THR:118>  (84) 
0.0

>  <hydroph_interaction:ILE:123>  (84) 
1.0

>  <hydroph_interaction:THR:166>  (84) 
0.0

>  <hbond:GLN:167>  (84) 
0.0

>  <hydroph_interaction:ALA:88>  (84) 
0.0

>  <hydroph_interaction:ASP:120>  (84) 
0.0

>  <hydroph_interaction:GLN:167>  (84) 
0.0

>  <hbond:THR:118>  (84) 
0.0

>  <hydroph_interaction:ALA:164>  (84) 
1.0

>  <hbond:ASP:120>  (84) 
0.0

>  <hbond:THR:166>  (84) 
0.0

>  <hydroph_interaction:LEU:76>  (84) 
0.0

>  <hbond:ILE:165>  (84) 
0.0

>  <halogenbond:GLN:74>  (84) 
0.0

>  <hbond:GLN:74>  (84) 
0.0

>  <hbond:LYS:73>  (84) 
0.0

>  <pistack:TRP:69>  (84) 
0.0

>  <hbond:TRP:83>  (84) 
0.0

>  <hydroph_interaction:TRP:83>  (84) 
0.0

>  <hydroph_interaction:TRP:69>  (84) 
0.0

>  <pication:TRP:69>  (84) 
0.0

>  <hydroph_interaction:PRO:82>  (84) 
0.0

>  <halogenbond:LYS:73>  (84) 
0.0

>  <hydroph_interaction:TYR:68>  (84) 
0.0

>  <halogenbond:GLN:167>  (84) 
0.0

>  <hydroph_interaction:PHE:116>  (84) 
0.0

>  <hbond:TYR:68>  (84) 
0.0

>  <hbond:ASP:122>  (84) 
0.0

>  <pistack:PHE:116>  (84) 
0.0

>  <hydroph_interaction:VAL:154>  (84) 
0.0

>  <hydroph_interaction:ASP:75>  (84) 
0.0

>  <hbond:GLY:121>  (84) 
0.0

>  <hydroph_interaction:ASN:152>  (84) 
0.0

>  <halogenbond:ILE:165>  (84) 
0.0

$$$$
PV-003793810495-x0806S1-Z198195906S1
     RDKit          3D

 26 26  0  0  0  0  0  0  0  0999 V2000
   -8.4700   -6.6570  -10.3860 C   0  0  0  0  0  0  0  0  0  0  0  0
   -9.6320   -6.5310   -9.5100 N   0  0  0  0  0  0  0  0  0  0  0  0
  -10.7730   -5.9330  -10.2260 C   0  0  0  0  0  0  0  0  0  0  0  0
  -10.6050   -4.4270  -10.1490 C   0  0  0  0  0  0  0  0  0  0  0  0
  -12.0710   -6.3920   -9.6790 C   0  0  0  0  0  0  0  0  0  0  0  0
  -13.0060   -7.1180  -10.4390 C   0  0  0  0  0  0  0  0  0  0  0  0
  -14.2920   -7.5730   -9.8410 C   0  0  0  0  0  0  0  0  0  0  0  0
  -14.4740   -7.1780   -8.3770 C   0  0  0  0  0  0  0  0  0  0  0  0
  -15.7500   -7.6030   -7.6910 C   0  0  0  0  0  0  0  0  0  0  0  0
  -13.5010   -6.4610   -7.7190 C   0  0  0  0  0  0  0  0  0  0  0  0
  -12.3540   -6.0880   -8.3510 C   0  0  0  0  0  0  0  0  0  0  0  0
   -8.6980   -7.2510  -11.2770 H   0  0  0  0  0  0  0  0  0  0  0  0
   -7.6230   -7.1260   -9.8720 H   0  0  0  0  0  0  0  0  0  0  0  0
   -8.1550   -5.6610  -10.7180 H   0  0  0  0  0  0  0  0  0  0  0  0
   -9.3830   -5.9330   -8.7190 H   0  0  0  0  0  0  0  0  0  0  0  0
  -10.7170   -6.1930  -11.2830 H   0  0  0  0  0  0  0  0  0  0  0  0
  -11.5250   -3.9150  -10.4520 H   0  0  0  0  0  0  0  0  0  0  0  0
   -9.7950   -4.0690  -10.7970 H   0  0  0  0  0  0  0  0  0  0  0  0
  -10.3740   -4.1120   -9.1240 H   0  0  0  0  0  0  0  0  0  0  0  0
  -12.7920   -7.3560  -11.4800 H   0  0  0  0  0  0  0  0  0  0  0  0
  -15.0320   -8.1370  -10.4050 H   0  0  0  0  0  0  0  0  0  0  0  0
  -16.4230   -6.7590   -7.5800 H   0  0  0  0  0  0  0  0  0  0  0  0
  -15.5450   -7.9800   -6.6840 H   0  0  0  0  0  0  0  0  0  0  0  0
  -16.2480   -8.3880   -8.2650 H   0  0  0  0  0  0  0  0  0  0  0  0
  -13.5700   -6.1480   -6.6730 H   0  0  0  0  0  0  0  0  0  0  0  0
  -11.6980   -5.5280   -7.6680 H   0  0  0  0  0  0  0  0  0  0  0  0
  1  2  1  0
  2  3  1  0
  3  4  1  0
  3  5  1  0
  5  6  2  0
  6  7  1  0
  7  8  2  0
  8  9  1  0
  8 10  1  0
 10 11  2  0
 11  5  1  0
  1 12  1  0
  1 13  1  0
  1 14  1  0
  2 15  1  0
  3 16  1  0
  4 17  1  0
  4 18  1  0
  4 19  1  0
  6 20  1  0
  7 21  1  0
  9 22  1  0
  9 23  1  0
  9 24  1  0
 10 25  1  0
 11 26  1  0
A    1
 C1 
A    2
 N1 
A    3
 C2 
A    4
 C3 
A    5
 C4 
A    6
 C5 
A    7
 C6 
A    8
 C7 
A    9
 C8 
A   10
 C9 
A   11
 C10
A   12
 H1 
A   13
 H2 
A   14
 H3 
A   15
 H4 
A   16
 H5 
A   17
 H6 
A   18
 H7 
A   19
 H8 
A   20
 H9 
A   21
 H10
A   22
 H11
A   23
 H12
A   24
 H13
A   25
 H14
A   26
 H15
M  END
>  <ref_pdb>  (85) 
x0051_0B

>  <ref_mols>  (85) 
x0051_0B

>  <original SMILES>  (85) 
[H]c1c([H])c(C([H])(N([H])C([H])([H])[H])C([H])([H])[H])c([H])c([H])c1C([H])([H])[H]

>  <index>  (85) 
880.0

>  <∆∆G>  (85) 
-6.481191

>  <comRMSD>  (85) 
0.673502

>  <N_constrained_atoms>  (85) 
9.0

>  <N_unconstrained_atoms>  (85) 
2.0

>  <LE>  (85) 
0.589199

>  <percent_hybrid>  (85) 
38.0

>  <largest_ring>  (85) 
6.0

>  <N_HA>  (85) 
11.0

>  <N_rotatable_bonds>  (85) 
5.0

>  <max_hit_Tanimoto>  (85) 
0.076923

>  <N_interactions_kept>  (85) 
0.0

>  <N_interactions_lost>  (85) 
0.5

>  <interaction_uniqueness_metric>  (85) 
0.0914

>  <N_interactions>  (85) 
4.0

>  <N_PAINS>  (85) 
0.0

>  <UFF_Gibbs>  (85) 
25.191839

>  <strain_per_HA>  (85) 
2.290146

>  <ad_hoc_penalty>  (85) 
-22.148504

>  <cluster>  (85) 
5707.0

>  <intxn_cluster>  (85) 
7.0

>  <keep>  (85) 
1.0

>  <hydroph_interaction:GLN:74>  (85) 
1.0

>  <hydroph_interaction:THR:118>  (85) 
0.0

>  <hydroph_interaction:ILE:123>  (85) 
2.0

>  <hydroph_interaction:THR:166>  (85) 
0.0

>  <hbond:GLN:167>  (85) 
0.0

>  <hydroph_interaction:ALA:88>  (85) 
0.0

>  <hydroph_interaction:ASP:120>  (85) 
0.0

>  <hydroph_interaction:GLN:167>  (85) 
0.0

>  <hbond:THR:118>  (85) 
0.0

>  <hydroph_interaction:ALA:164>  (85) 
1.0

>  <hbond:ASP:120>  (85) 
0.0

>  <hbond:THR:166>  (85) 
0.0

>  <hydroph_interaction:LEU:76>  (85) 
0.0

>  <hbond:ILE:165>  (85) 
0.0

>  <halogenbond:GLN:74>  (85) 
0.0

>  <hbond:GLN:74>  (85) 
0.0

>  <hbond:LYS:73>  (85) 
0.0

>  <pistack:TRP:69>  (85) 
0.0

>  <hbond:TRP:83>  (85) 
0.0

>  <hydroph_interaction:TRP:83>  (85) 
0.0

>  <hydroph_interaction:TRP:69>  (85) 
0.0

>  <pication:TRP:69>  (85) 
0.0

>  <hydroph_interaction:PRO:82>  (85) 
0.0

>  <halogenbond:LYS:73>  (85) 
0.0

>  <hydroph_interaction:TYR:68>  (85) 
0.0

>  <halogenbond:GLN:167>  (85) 
0.0

>  <hydroph_interaction:PHE:116>  (85) 
0.0

>  <hbond:TYR:68>  (85) 
0.0

>  <hbond:ASP:122>  (85) 
0.0

>  <pistack:PHE:116>  (85) 
0.0

>  <hydroph_interaction:VAL:154>  (85) 
0.0

>  <hydroph_interaction:ASP:75>  (85) 
0.0

>  <hbond:GLY:121>  (85) 
0.0

>  <hydroph_interaction:ASN:152>  (85) 
0.0

>  <halogenbond:ILE:165>  (85) 
0.0

$$$$
Z2573382557-x0944S1-x0130S2
     RDKit          3D

 28 29  0  0  0  0  0  0  0  0999 V2000
  -26.4160   -4.2120   -4.1840 O   0  0  0  0  0  0  0  0  0  0  0  0
  -26.0610   -5.2820   -3.7050 C   0  0  0  0  0  0  0  0  0  0  0  0
  -25.4190   -6.2820   -4.6590 C   0  0  0  0  0  0  0  0  0  0  0  0
  -26.3060   -7.3920   -5.1820 C   0  0  0  0  0  0  0  0  0  0  0  0
  -25.7160   -8.2940   -6.0570 C   0  0  0  0  0  0  0  0  0  0  0  0
  -24.3710   -8.1660   -6.4290 C   0  0  0  0  0  0  0  0  0  0  0  0
  -23.8490   -9.0610   -7.2810 F   0  0  0  0  0  0  0  0  0  0  0  0
  -23.5800   -7.1350   -5.9330 C   0  0  0  0  0  0  0  0  0  0  0  0
  -21.6040   -6.9760   -6.5210 I   0  0  0  0  0  0  0  0  0  0  0  0
  -24.1000   -6.2010   -5.0500 C   0  0  0  0  0  0  0  0  0  0  0  0
  -26.2190   -5.6050   -2.3610 N   0  0  0  0  0  0  0  0  0  0  0  0
  -25.6160   -6.7480   -1.6900 C   0  0  0  0  0  0  0  0  0  0  0  0
  -26.4190   -7.0980   -0.4040 C   0  0  0  0  0  0  0  0  0  0  0  0
  -27.7700   -6.9100   -0.4370 N   0  0  0  0  0  0  0  0  0  0  0  0
  -28.1430   -5.6640   -0.8500 C   0  0  0  0  0  0  0  0  0  0  0  0
  -27.0990   -4.7820   -1.5400 C   0  0  0  0  0  0  0  0  0  0  0  0
  -27.3470   -7.4870   -4.8950 H   0  0  0  0  0  0  0  0  0  0  0  0
  -26.2960   -9.1160   -6.4660 H   0  0  0  0  0  0  0  0  0  0  0  0
  -23.5010   -5.4210   -4.6750 H   0  0  0  0  0  0  0  0  0  0  0  0
  -24.5900   -6.4710   -1.4270 H   0  0  0  0  0  0  0  0  0  0  0  0
  -25.5900   -7.6230   -2.3400 H   0  0  0  0  0  0  0  0  0  0  0  0
  -26.0150   -6.4970    0.4190 H   0  0  0  0  0  0  0  0  0  0  0  0
  -26.2260   -8.1470   -0.1480 H   0  0  0  0  0  0  0  0  0  0  0  0
  -28.1890   -7.6160   -1.0430 H   0  0  0  0  0  0  0  0  0  0  0  0
  -28.9460   -5.8030   -1.5890 H   0  0  0  0  0  0  0  0  0  0  0  0
  -28.6490   -5.2390    0.0080 H   0  0  0  0  0  0  0  0  0  0  0  0
  -27.5910   -4.1060   -2.2360 H   0  0  0  0  0  0  0  0  0  0  0  0
  -26.5030   -4.1570   -0.8980 H   0  0  0  0  0  0  0  0  0  0  0  0
  1  2  2  0
  2  3  1  0
  3  4  2  0
  4  5  1  0
  5  6  2  0
  6  7  1  0
  6  8  1  0
  8  9  1  0
  8 10  2  0
  2 11  1  0
 11 12  1  0
 12 13  1  0
 13 14  1  0
 14 15  1  0
 15 16  1  0
 10  3  1  0
 16 11  1  0
  4 17  1  0
  5 18  1  0
 10 19  1  0
 12 20  1  0
 12 21  1  0
 13 22  1  0
 13 23  1  0
 14 24  1  0
 15 25  1  0
 15 26  1  0
 16 27  1  0
 16 28  1  0
A    1
 O1 
A    2
 C1 
A    3
 C2 
A    4
 C3 
A    5
 C4 
A    6
 C5 
A    7
 F1 
A    8
 C6 
A    9
 I1 
A   10
 C7 
A   11
 N1 
A   12
 C8 
A   13
 C9 
A   14
 N2 
A   15
 C10
A   16
 C11
A   17
 H1 
A   18
 H2 
A   19
 H3 
A   20
 H4 
A   21
 H5 
A   22
 H6 
A   23
 H7 
A   24
 H8 
A   25
 H9 
A   26
 H10
A   27
 H11
A   28
 H12
M  END
>  <ref_pdb>  (86) 
x0051_0B

>  <ref_mols>  (86) 
x0051_0B

>  <original SMILES>  (86) 
[H]c1c([H])c(C(=O)N2C([H])([H])C([H])([H])N([H])C([H])([H])C2([H])[H])c([H])c(I)c1F

>  <index>  (86) 
1016.0

>  <∆∆G>  (86) 
-5.409856

>  <comRMSD>  (86) 
0.380316

>  <N_constrained_atoms>  (86) 
16.0

>  <N_unconstrained_atoms>  (86) 
0.0

>  <LE>  (86) 
0.338116

>  <percent_hybrid>  (86) 
38.0

>  <largest_ring>  (86) 
6.0

>  <N_HA>  (86) 
16.0

>  <N_rotatable_bonds>  (86) 
1.0

>  <max_hit_Tanimoto>  (86) 
0.231405

>  <N_interactions_kept>  (86) 
0.0

>  <N_interactions_lost>  (86) 
2.5

>  <interaction_uniqueness_metric>  (86) 
0.27227

>  <N_interactions>  (86) 
5.0

>  <N_PAINS>  (86) 
0.0

>  <UFF_Gibbs>  (86) 
43.678384

>  <strain_per_HA>  (86) 
2.729882

>  <ad_hoc_penalty>  (86) 
-22.106364

>  <cluster>  (86) 
35.0

>  <intxn_cluster>  (86) 
19.0

>  <keep>  (86) 
1.0

>  <hydroph_interaction:GLN:74>  (86) 
0.0

>  <hydroph_interaction:THR:118>  (86) 
0.0

>  <hydroph_interaction:ILE:123>  (86) 
0.0

>  <hydroph_interaction:THR:166>  (86) 
0.0

>  <hbond:GLN:167>  (86) 
0.0

>  <hydroph_interaction:ALA:88>  (86) 
0.0

>  <hydroph_interaction:ASP:120>  (86) 
0.0

>  <hydroph_interaction:GLN:167>  (86) 
0.0

>  <hbond:THR:118>  (86) 
0.0

>  <hydroph_interaction:ALA:164>  (86) 
0.0

>  <hbond:ASP:120>  (86) 
0.0

>  <hbond:THR:166>  (86) 
0.0

>  <hydroph_interaction:LEU:76>  (86) 
0.0

>  <hbond:ILE:165>  (86) 
0.0

>  <halogenbond:GLN:74>  (86) 
1.0

>  <hbond:GLN:74>  (86) 
0.0

>  <hbond:LYS:73>  (86) 
0.0

>  <pistack:TRP:69>  (86) 
2.0

>  <hbond:TRP:83>  (86) 
1.0

>  <hydroph_interaction:TRP:83>  (86) 
1.0

>  <hydroph_interaction:TRP:69>  (86) 
0.0

>  <pication:TRP:69>  (86) 
0.0

>  <hydroph_interaction:PRO:82>  (86) 
0.0

>  <halogenbond:LYS:73>  (86) 
0.0

>  <hydroph_interaction:TYR:68>  (86) 
0.0

>  <halogenbond:GLN:167>  (86) 
0.0

>  <hydroph_interaction:PHE:116>  (86) 
0.0

>  <hbond:TYR:68>  (86) 
0.0

>  <hbond:ASP:122>  (86) 
0.0

>  <pistack:PHE:116>  (86) 
0.0

>  <hydroph_interaction:VAL:154>  (86) 
0.0

>  <hydroph_interaction:ASP:75>  (86) 
0.0

>  <hbond:GLY:121>  (86) 
0.0

>  <hydroph_interaction:ASN:152>  (86) 
0.0

>  <halogenbond:ILE:165>  (86) 
0.0

$$$$
Z1252002253-x0130S3-x0130S4
     RDKit          3D

 30 31  0  0  0  0  0  0  0  0999 V2000
  -28.4160   -7.1310    0.9000 C   0  0  0  0  0  0  0  0  0  0  0  0
  -27.8300   -6.8450   -0.4040 N   0  0  0  0  0  0  0  0  0  0  0  0
  -26.3520   -6.9530   -0.3820 C   0  0  0  0  0  0  0  0  0  0  0  0
  -25.7710   -6.7640   -1.7870 C   0  0  0  0  0  0  0  0  0  0  0  0
  -26.2860   -5.5380   -2.3920 N   0  0  0  0  0  0  0  0  0  0  0  0
  -26.0710   -5.2790   -3.7400 C   0  0  0  0  0  0  0  0  0  0  0  0
  -26.3530   -4.1940   -4.2330 O   0  0  0  0  0  0  0  0  0  0  0  0
  -25.5160   -6.2400   -4.6000 C   0  0  0  0  0  0  0  0  0  0  0  0
  -26.3370   -7.3320   -5.1370 C   0  0  0  0  0  0  0  0  0  0  0  0
  -25.7270   -8.3580   -6.0800 C   0  0  0  0  0  0  0  0  0  0  0  0
  -24.2600   -8.1380   -6.3850 C   0  0  0  0  0  0  0  0  0  0  0  0
  -23.6220   -8.9770   -7.2080 F   0  0  0  0  0  0  0  0  0  0  0  0
  -23.5670   -7.0780   -5.8260 C   0  0  0  0  0  0  0  0  0  0  0  0
  -22.2710   -6.9120   -6.1190 F   0  0  0  0  0  0  0  0  0  0  0  0
  -24.1790   -6.1700   -4.9680 C   0  0  0  0  0  0  0  0  0  0  0  0
  -27.1240   -4.7210   -1.5100 C   0  0  0  0  0  0  0  0  0  0  0  0
  -28.2800   -5.5420   -0.9500 C   0  0  0  0  0  0  0  0  0  0  0  0
  -29.4670   -5.1640   -0.9620 O   0  0  0  0  0  0  0  0  0  0  0  0
  -29.2640   -6.4750    1.1240 H   0  0  0  0  0  0  0  0  0  0  0  0
  -28.7630   -8.1700    0.9660 H   0  0  0  0  0  0  0  0  0  0  0  0
  -27.6610   -6.9810    1.6790 H   0  0  0  0  0  0  0  0  0  0  0  0
  -25.8920   -6.2040    0.2760 H   0  0  0  0  0  0  0  0  0  0  0  0
  -26.0470   -7.9460   -0.0220 H   0  0  0  0  0  0  0  0  0  0  0  0
  -26.0220   -7.6170   -2.4300 H   0  0  0  0  0  0  0  0  0  0  0  0
  -24.6790   -6.6810   -1.7620 H   0  0  0  0  0  0  0  0  0  0  0  0
  -27.3940   -7.4000   -4.8550 H   0  0  0  0  0  0  0  0  0  0  0  0
  -26.3060   -9.1770   -6.4970 H   0  0  0  0  0  0  0  0  0  0  0  0
  -23.5870   -5.3960   -4.5930 H   0  0  0  0  0  0  0  0  0  0  0  0
  -26.5100   -4.3760   -0.6760 H   0  0  0  0  0  0  0  0  0  0  0  0
  -27.4900   -3.8540   -2.0530 H   0  0  0  0  0  0  0  0  0  0  0  0
  1  2  1  0
  2  3  1  0
  3  4  1  0
  4  5  1  0
  5  6  1  0
  6  7  2  0
  6  8  1  0
  8  9  2  0
  9 10  1  0
 10 11  2  0
 11 12  1  0
 11 13  1  0
 13 14  1  0
 13 15  2  0
  5 16  1  0
 16 17  1  0
 17 18  2  0
 17  2  1  0
 15  8  1  0
  1 19  1  0
  1 20  1  0
  1 21  1  0
  3 22  1  0
  3 23  1  0
  4 24  1  0
  4 25  1  0
  9 26  1  0
 10 27  1  0
 15 28  1  0
 16 29  1  0
 16 30  1  0
A    1
 C1 
A    2
 N1 
A    3
 C2 
A    4
 C3 
A    5
 N2 
A    6
 C4 
A    7
 O1 
A    8
 C5 
A    9
 C6 
A   10
 C7 
A   11
 C8 
A   12
 F1 
A   13
 C9 
A   14
 F2 
A   15
 C10
A   16
 C11
A   17
 C12
A   18
 O2 
A   19
 H1 
A   20
 H2 
A   21
 H3 
A   22
 H4 
A   23
 H5 
A   24
 H6 
A   25
 H7 
A   26
 H8 
A   27
 H9 
A   28
 H10
A   29
 H11
A   30
 H12
M  END
>  <ref_pdb>  (87) 
x0051_0B

>  <ref_mols>  (87) 
x0051_0B

>  <original SMILES>  (87) 
[H]c1c([H])c(C(=O)N2C([H])([H])C(=O)N(C([H])([H])[H])C([H])([H])C2([H])[H])c([H])c(F)c1F

>  <index>  (87) 
1110.0

>  <∆∆G>  (87) 
-5.222687

>  <comRMSD>  (87) 
0.311783

>  <N_constrained_atoms>  (87) 
17.0

>  <N_unconstrained_atoms>  (87) 
1.0

>  <LE>  (87) 
0.290149

>  <percent_hybrid>  (87) 
48.0

>  <largest_ring>  (87) 
6.0

>  <N_HA>  (87) 
18.0

>  <N_rotatable_bonds>  (87) 
2.0

>  <max_hit_Tanimoto>  (87) 
0.1417

>  <N_interactions_kept>  (87) 
0.0

>  <N_interactions_lost>  (87) 
2.5

>  <interaction_uniqueness_metric>  (87) 
0.466873

>  <N_interactions>  (87) 
5.0

>  <N_PAINS>  (87) 
0.0

>  <UFF_Gibbs>  (87) 
57.433582

>  <strain_per_HA>  (87) 
3.190737

>  <ad_hoc_penalty>  (87) 
-22.047214

>  <cluster>  (87) 
5633.0

>  <intxn_cluster>  (87) 
19.0

>  <keep>  (87) 
1.0

>  <hydroph_interaction:GLN:74>  (87) 
0.0

>  <hydroph_interaction:THR:118>  (87) 
0.0

>  <hydroph_interaction:ILE:123>  (87) 
0.0

>  <hydroph_interaction:THR:166>  (87) 
0.0

>  <hbond:GLN:167>  (87) 
0.0

>  <hydroph_interaction:ALA:88>  (87) 
0.0

>  <hydroph_interaction:ASP:120>  (87) 
0.0

>  <hydroph_interaction:GLN:167>  (87) 
0.0

>  <hbond:THR:118>  (87) 
0.0

>  <hydroph_interaction:ALA:164>  (87) 
0.0

>  <hbond:ASP:120>  (87) 
0.0

>  <hbond:THR:166>  (87) 
0.0

>  <hydroph_interaction:LEU:76>  (87) 
0.0

>  <hbond:ILE:165>  (87) 
0.0

>  <halogenbond:GLN:74>  (87) 
0.0

>  <hbond:GLN:74>  (87) 
0.0

>  <hbond:LYS:73>  (87) 
0.0

>  <pistack:TRP:69>  (87) 
2.0

>  <hbond:TRP:83>  (87) 
1.0

>  <hydroph_interaction:TRP:83>  (87) 
1.0

>  <hydroph_interaction:TRP:69>  (87) 
0.0

>  <pication:TRP:69>  (87) 
0.0

>  <hydroph_interaction:PRO:82>  (87) 
0.0

>  <halogenbond:LYS:73>  (87) 
0.0

>  <hydroph_interaction:TYR:68>  (87) 
0.0

>  <halogenbond:GLN:167>  (87) 
0.0

>  <hydroph_interaction:PHE:116>  (87) 
0.0

>  <hbond:TYR:68>  (87) 
1.0

>  <hbond:ASP:122>  (87) 
0.0

>  <pistack:PHE:116>  (87) 
0.0

>  <hydroph_interaction:VAL:154>  (87) 
0.0

>  <hydroph_interaction:ASP:75>  (87) 
0.0

>  <hbond:GLY:121>  (87) 
0.0

>  <hydroph_interaction:ASN:152>  (87) 
0.0

>  <halogenbond:ILE:165>  (87) 
0.0

$$$$
Z1148965788-x0806S1-Z198195906S4
     RDKit          3D

 36 37  0  0  0  0  0  0  0  0999 V2000
  -13.3330   -9.3310   -7.0580 C   0  0  0  0  0  0  0  0  0  0  0  0
  -12.1340  -10.1320   -7.5110 C   0  0  0  0  0  0  0  0  0  0  0  0
  -12.3840  -11.6160   -7.6400 C   0  0  0  0  0  0  0  0  0  0  0  0
  -11.3180  -12.4240   -8.0530 C   0  0  0  0  0  0  0  0  0  0  0  0
  -10.0850  -11.8590   -8.3240 C   0  0  0  0  0  0  0  0  0  0  0  0
   -9.8820  -10.4770   -8.1930 C   0  0  0  0  0  0  0  0  0  0  0  0
  -10.8670   -9.5920   -7.8000 C   0  0  0  0  0  0  0  0  0  0  0  0
  -10.5060   -8.1100   -7.7040 C   0  0  0  0  0  0  0  0  0  0  0  0
   -9.9490   -7.5360   -8.9540 N   0  0  0  0  0  0  0  0  0  0  0  0
  -10.6220   -6.2830   -9.3280 C   0  0  1  0  0  0  0  0  0  0  0  0
  -10.2550   -5.7360  -10.6910 C   0  0  0  0  0  0  0  0  0  0  0  0
  -12.0860   -6.5910   -9.2490 C   0  0  0  0  0  0  0  0  0  0  0  0
  -12.7850   -6.1540   -8.1330 C   0  0  0  0  0  0  0  0  0  0  0  0
  -14.1320   -6.4500   -7.9970 C   0  0  0  0  0  0  0  0  0  0  0  0
  -14.7730   -7.1800   -8.9790 C   0  0  0  0  0  0  0  0  0  0  0  0
  -14.0950   -7.6120  -10.1120 C   0  0  0  0  0  0  0  0  0  0  0  0
  -12.7470   -7.3150  -10.2500 C   0  0  0  0  0  0  0  0  0  0  0  0
  -14.2450   -9.9370   -7.0700 H   0  0  0  0  0  0  0  0  0  0  0  0
  -13.2030   -8.9420   -6.0440 H   0  0  0  0  0  0  0  0  0  0  0  0
  -13.4870   -8.4820   -7.7240 H   0  0  0  0  0  0  0  0  0  0  0  0
  -13.3520  -12.0570   -7.4240 H   0  0  0  0  0  0  0  0  0  0  0  0
  -11.4560  -13.4980   -8.1590 H   0  0  0  0  0  0  0  0  0  0  0  0
   -9.2730  -12.4980   -8.6420 H   0  0  0  0  0  0  0  0  0  0  0  0
   -8.9210  -10.0780   -8.4120 H   0  0  0  0  0  0  0  0  0  0  0  0
  -11.4110   -7.5700   -7.4070 H   0  0  0  0  0  0  0  0  0  0  0  0
   -9.8030   -7.9710   -6.8760 H   0  0  0  0  0  0  0  0  0  0  0  0
  -10.0900   -8.2090   -9.7040 H   0  0  0  0  0  0  0  0  0  0  0  0
  -10.3980   -5.5170   -8.5760 H   0  0  0  0  0  0  0  0  0  0  0  0
   -9.8860   -4.7060  -10.6290 H   0  0  0  0  0  0  0  0  0  0  0  0
   -9.4840   -6.3420  -11.1810 H   0  0  0  0  0  0  0  0  0  0  0  0
  -11.1370   -5.7250  -11.3400 H   0  0  0  0  0  0  0  0  0  0  0  0
  -12.2790   -5.5860   -7.3550 H   0  0  0  0  0  0  0  0  0  0  0  0
  -14.6770   -6.1150   -7.1230 H   0  0  0  0  0  0  0  0  0  0  0  0
  -15.8120   -7.4110   -8.8570 H   0  0  0  0  0  0  0  0  0  0  0  0
  -14.6160   -8.1800  -10.8810 H   0  0  0  0  0  0  0  0  0  0  0  0
  -12.2220   -7.6580  -11.1310 H   0  0  0  0  0  0  0  0  0  0  0  0
  1  2  1  0
  2  3  2  0
  3  4  1  0
  4  5  2  0
  5  6  1  0
  6  7  2  0
  7  8  1  0
  8  9  1  0
  9 10  1  0
 10 11  1  0
 10 12  1  0
 12 13  2  0
 13 14  1  0
 14 15  2  0
 15 16  1  0
 16 17  2  0
  7  2  1  0
 17 12  1  0
  1 18  1  0
  1 19  1  0
  1 20  1  0
  3 21  1  0
  4 22  1  0
  5 23  1  0
  6 24  1  0
  8 25  1  0
  8 26  1  0
  9 27  1  0
 10 28  1  1
 11 29  1  0
 11 30  1  0
 11 31  1  0
 13 32  1  0
 14 33  1  0
 15 34  1  0
 16 35  1  0
 17 36  1  0
A    1
 C1 
A    2
 C2 
A    3
 C3 
A    4
 C4 
A    5
 C5 
A    6
 C6 
A    7
 C7 
A    8
 C8 
A    9
 N1 
A   10
 C9 
A   11
 C10
A   12
 C11
A   13
 C12
A   14
 C13
A   15
 C14
A   16
 C15
A   17
 C16
A   18
 H1 
A   19
 H2 
A   20
 H3 
A   21
 H4 
A   22
 H5 
A   23
 H6 
A   24
 H7 
A   25
 H8 
A   26
 H9 
A   27
 H10
A   28
 H11
A   29
 H12
A   30
 H13
A   31
 H14
A   32
 H15
A   33
 H16
A   34
 H17
A   35
 H18
A   36
 H19
M  END
>  <ref_pdb>  (88) 
x0051_0B

>  <ref_mols>  (88) 
x0051_0B

>  <original SMILES>  (88) 
[H]c1c([H])c([H])c([C@@]([H])(N([H])C([H])([H])c2c([H])c([H])c([H])c([H])c2C([H])([H])[H])C([H])([H])[H])c([H])c1[H]

>  <index>  (88) 
52.0

>  <∆∆G>  (88) 
-7.966884

>  <comRMSD>  (88) 
0.645271

>  <N_constrained_atoms>  (88) 
17.0

>  <N_unconstrained_atoms>  (88) 
0.0

>  <LE>  (88) 
0.46864

>  <percent_hybrid>  (88) 
32.0

>  <largest_ring>  (88) 
6.0

>  <N_HA>  (88) 
17.0

>  <N_rotatable_bonds>  (88) 
6.0

>  <max_hit_Tanimoto>  (88) 
0.460208

>  <N_interactions_kept>  (88) 
0.0

>  <N_interactions_lost>  (88) 
2.0

>  <interaction_uniqueness_metric>  (88) 
0.107231

>  <N_interactions>  (88) 
6.0

>  <N_PAINS>  (88) 
0.0

>  <UFF_Gibbs>  (88) 
75.578247

>  <strain_per_HA>  (88) 
4.445753

>  <ad_hoc_penalty>  (88) 
-21.905483

>  <cluster>  (88) 
461.0

>  <intxn_cluster>  (88) 
18.0

>  <keep>  (88) 
1.0

>  <hydroph_interaction:GLN:74>  (88) 
0.0

>  <hydroph_interaction:THR:118>  (88) 
1.0

>  <hydroph_interaction:ILE:123>  (88) 
3.0

>  <hydroph_interaction:THR:166>  (88) 
0.0

>  <hbond:GLN:167>  (88) 
0.0

>  <hydroph_interaction:ALA:88>  (88) 
0.0

>  <hydroph_interaction:ASP:120>  (88) 
1.0

>  <hydroph_interaction:GLN:167>  (88) 
0.0

>  <hbond:THR:118>  (88) 
0.0

>  <hydroph_interaction:ALA:164>  (88) 
1.0

>  <hbond:ASP:120>  (88) 
0.0

>  <hbond:THR:166>  (88) 
0.0

>  <hydroph_interaction:LEU:76>  (88) 
0.0

>  <hbond:ILE:165>  (88) 
0.0

>  <halogenbond:GLN:74>  (88) 
0.0

>  <hbond:GLN:74>  (88) 
0.0

>  <hbond:LYS:73>  (88) 
0.0

>  <pistack:TRP:69>  (88) 
0.0

>  <hbond:TRP:83>  (88) 
0.0

>  <hydroph_interaction:TRP:83>  (88) 
0.0

>  <hydroph_interaction:TRP:69>  (88) 
0.0

>  <pication:TRP:69>  (88) 
0.0

>  <hydroph_interaction:PRO:82>  (88) 
0.0

>  <halogenbond:LYS:73>  (88) 
0.0

>  <hydroph_interaction:TYR:68>  (88) 
0.0

>  <halogenbond:GLN:167>  (88) 
0.0

>  <hydroph_interaction:PHE:116>  (88) 
0.0

>  <hbond:TYR:68>  (88) 
0.0

>  <hbond:ASP:122>  (88) 
0.0

>  <pistack:PHE:116>  (88) 
0.0

>  <hydroph_interaction:VAL:154>  (88) 
0.0

>  <hydroph_interaction:ASP:75>  (88) 
0.0

>  <hbond:GLY:121>  (88) 
0.0

>  <hydroph_interaction:ASN:152>  (88) 
0.0

>  <halogenbond:ILE:165>  (88) 
0.0

$$$$
PV-002953087267-x0214S3-Z1318054286S4
     RDKit          3D

 28 29  0  0  0  0  0  0  0  0999 V2000
  -12.9560   -9.9610   -6.7220 C   0  0  0  0  0  0  0  0  0  0  0  0
  -14.4010   -9.8550   -6.8110 N   0  0  0  0  0  0  0  0  0  0  0  0
  -15.2320  -10.4440   -5.9070 C   0  0  0  0  0  0  0  0  0  0  0  0
  -16.5920  -10.1990   -6.1640 C   0  0  0  0  0  0  0  0  0  0  0  0
  -16.8200   -9.7670   -7.5100 O   0  0  0  0  0  0  0  0  0  0  0  0
  -16.1380   -8.5360   -7.7640 C   0  0  0  0  0  0  0  0  0  0  0  0
  -14.9040   -8.5020   -7.1360 C   0  0  0  0  0  0  0  0  0  0  0  0
  -13.9850   -7.7000   -7.9790 C   0  0  0  0  0  0  0  0  0  0  0  0
  -13.9990   -8.0440   -9.4820 C   0  0  0  0  0  0  0  0  0  0  0  0
  -13.1020   -7.2560  -10.2480 C   0  0  0  0  0  0  0  0  0  0  0  0
  -12.9580   -7.3790  -11.5410 F   0  0  0  0  0  0  0  0  0  0  0  0
  -12.4440   -6.3960   -9.5050 C   0  0  0  0  0  0  0  0  0  0  0  0
  -12.2790   -5.9470   -8.2590 C   0  0  0  0  0  0  0  0  0  0  0  0
  -13.1270   -6.6660   -7.4410 C   0  0  0  0  0  0  0  0  0  0  0  0
  -12.6190   -9.5280   -5.7770 H   0  0  0  0  0  0  0  0  0  0  0  0
  -12.6350  -11.0060   -6.7900 H   0  0  0  0  0  0  0  0  0  0  0  0
  -12.4720   -9.4100   -7.5340 H   0  0  0  0  0  0  0  0  0  0  0  0
  -14.9830  -10.0720   -4.9080 H   0  0  0  0  0  0  0  0  0  0  0  0
  -15.0860  -11.5320   -5.9050 H   0  0  0  0  0  0  0  0  0  0  0  0
  -17.0030   -9.4180   -5.5140 H   0  0  0  0  0  0  0  0  0  0  0  0
  -17.1910  -11.1010   -5.9850 H   0  0  0  0  0  0  0  0  0  0  0  0
  -16.0320   -8.4350   -8.8500 H   0  0  0  0  0  0  0  0  0  0  0  0
  -16.7860   -7.7260   -7.4100 H   0  0  0  0  0  0  0  0  0  0  0  0
  -15.0420   -7.9640   -6.1910 H   0  0  0  0  0  0  0  0  0  0  0  0
  -14.6380   -8.8180   -9.9040 H   0  0  0  0  0  0  0  0  0  0  0  0
  -11.7810   -5.8360  -10.1620 H   0  0  0  0  0  0  0  0  0  0  0  0
  -11.5990   -5.1550   -7.9460 H   0  0  0  0  0  0  0  0  0  0  0  0
  -13.0840   -6.3870   -6.3850 H   0  0  0  0  0  0  0  0  0  0  0  0
  1  2  1  0
  2  3  1  0
  3  4  1  0
  4  5  1  0
  5  6  1  0
  6  7  1  0
  7  8  1  0
  8  9  2  0
  9 10  1  0
 10 11  1  0
 10 12  2  0
 12 13  1  0
 13 14  2  0
  7  2  1  0
 14  8  1  0
  1 15  1  0
  1 16  1  0
  1 17  1  0
  3 18  1  0
  3 19  1  0
  4 20  1  0
  4 21  1  0
  6 22  1  0
  6 23  1  0
  7 24  1  0
  9 25  1  0
 12 26  1  0
 13 27  1  0
 14 28  1  0
A    1
 C1 
A    2
 N1 
A    3
 C2 
A    4
 C3 
A    5
 O1 
A    6
 C4 
A    7
 C5 
A    8
 C6 
A    9
 C7 
A   10
 C8 
A   11
 F1 
A   12
 C9 
A   13
 C10
A   14
 C11
A   15
 H1 
A   16
 H2 
A   17
 H3 
A   18
 H4 
A   19
 H5 
A   20
 H6 
A   21
 H7 
A   22
 H8 
A   23
 H9 
A   24
 H10
A   25
 H11
A   26
 H12
A   27
 H13
A   28
 H14
M  END
>  <ref_pdb>  (89) 
x0051_0B

>  <ref_mols>  (89) 
x0051_0B

>  <original SMILES>  (89) 
[H]c1c([H])c(F)c([H])c(C2([H])N(C([H])([H])[H])C([H])([H])C([H])([H])OC2([H])[H])c1[H]

>  <index>  (89) 
5858.0

>  <∆∆G>  (89) 
-1.954103

>  <comRMSD>  (89) 
0.996836

>  <N_constrained_atoms>  (89) 
12.0

>  <N_unconstrained_atoms>  (89) 
2.0

>  <LE>  (89) 
0.139579

>  <percent_hybrid>  (89) 
30.0

>  <largest_ring>  (89) 
6.0

>  <N_HA>  (89) 
14.0

>  <N_rotatable_bonds>  (89) 
2.0

>  <max_hit_Tanimoto>  (89) 
0.137177

>  <N_interactions_kept>  (89) 
0.0

>  <N_interactions_lost>  (89) 
0.0

>  <interaction_uniqueness_metric>  (89) 
0.525102

>  <N_interactions>  (89) 
2.0

>  <N_PAINS>  (89) 
0.0

>  <UFF_Gibbs>  (89) 
131.331762

>  <strain_per_HA>  (89) 
9.380773

>  <ad_hoc_penalty>  (89) 
-21.90153

>  <cluster>  (89) 
3734.0

>  <intxn_cluster>  (89) 
5.0

>  <keep>  (89) 
1.0

>  <hydroph_interaction:GLN:74>  (89) 
0.0

>  <hydroph_interaction:THR:118>  (89) 
0.0

>  <hydroph_interaction:ILE:123>  (89) 
0.0

>  <hydroph_interaction:THR:166>  (89) 
1.0

>  <hbond:GLN:167>  (89) 
0.0

>  <hydroph_interaction:ALA:88>  (89) 
0.0

>  <hydroph_interaction:ASP:120>  (89) 
0.0

>  <hydroph_interaction:GLN:167>  (89) 
0.0

>  <hbond:THR:118>  (89) 
0.0

>  <hydroph_interaction:ALA:164>  (89) 
0.0

>  <hbond:ASP:120>  (89) 
0.0

>  <hbond:THR:166>  (89) 
0.0

>  <hydroph_interaction:LEU:76>  (89) 
0.0

>  <hbond:ILE:165>  (89) 
0.0

>  <halogenbond:GLN:74>  (89) 
0.0

>  <hbond:GLN:74>  (89) 
0.0

>  <hbond:LYS:73>  (89) 
0.0

>  <pistack:TRP:69>  (89) 
0.0

>  <hbond:TRP:83>  (89) 
0.0

>  <hydroph_interaction:TRP:83>  (89) 
0.0

>  <hydroph_interaction:TRP:69>  (89) 
0.0

>  <pication:TRP:69>  (89) 
0.0

>  <hydroph_interaction:PRO:82>  (89) 
0.0

>  <halogenbond:LYS:73>  (89) 
0.0

>  <hydroph_interaction:TYR:68>  (89) 
0.0

>  <halogenbond:GLN:167>  (89) 
0.0

>  <hydroph_interaction:PHE:116>  (89) 
0.0

>  <hbond:TYR:68>  (89) 
0.0

>  <hbond:ASP:122>  (89) 
0.0

>  <pistack:PHE:116>  (89) 
0.0

>  <hydroph_interaction:VAL:154>  (89) 
0.0

>  <hydroph_interaction:ASP:75>  (89) 
0.0

>  <hbond:GLY:121>  (89) 
0.0

>  <hydroph_interaction:ASN:152>  (89) 
0.0

>  <halogenbond:ILE:165>  (89) 
1.0

$$$$
PV-003460441981-Z198195906S1-x0214S2
     RDKit          3D

 33 34  0  0  0  0  0  0  0  0999 V2000
  -10.9950   -4.1210  -10.0070 C   0  0  0  0  0  0  0  0  0  0  0  0
  -10.9800   -5.5100  -10.5410 C   0  0  0  0  0  0  0  0  0  0  0  0
   -9.5780   -6.1730  -10.5370 C   0  0  0  0  0  0  0  0  0  0  0  0
  -11.8680   -6.3950   -9.7470 C   0  0  0  0  0  0  0  0  0  0  0  0
  -12.0070   -6.1920   -8.2930 C   0  0  0  0  0  0  0  0  0  0  0  0
  -12.7740   -7.1000   -7.6140 C   0  0  0  0  0  0  0  0  0  0  0  0
  -13.4090   -8.1670   -8.2260 C   0  0  0  0  0  0  0  0  0  0  0  0
  -14.1240   -9.0650   -7.4600 C   0  0  0  0  0  0  0  0  0  0  0  0
  -13.1560  -10.0520   -6.8030 C   0  0  0  0  0  0  0  0  0  0  0  0
  -12.7930   -9.3580   -5.5380 C   0  0  0  0  0  0  0  0  0  0  0  0
  -13.6490   -8.2970   -5.2320 C   0  0  0  0  0  0  0  0  0  0  0  0
  -14.6930   -8.3980   -6.1920 C   0  0  0  0  0  0  0  0  0  0  0  0
  -13.2910   -8.3080   -9.5980 C   0  0  0  0  0  0  0  0  0  0  0  0
  -12.4960   -7.3940  -10.4090 N   0  0  0  0  0  0  0  0  0  0  0  0
  -12.0000   -3.8260   -9.6960 H   0  0  0  0  0  0  0  0  0  0  0  0
  -10.3200   -4.0220   -9.1500 H   0  0  0  0  0  0  0  0  0  0  0  0
  -10.6800   -3.4110  -10.7810 H   0  0  0  0  0  0  0  0  0  0  0  0
  -11.3800   -5.5220  -11.5540 H   0  0  0  0  0  0  0  0  0  0  0  0
   -8.6890   -5.5540  -10.5720 H   0  0  0  0  0  0  0  0  0  0  0  0
   -9.4730   -6.7940   -9.6500 H   0  0  0  0  0  0  0  0  0  0  0  0
   -9.4900   -6.8560  -11.3850 H   0  0  0  0  0  0  0  0  0  0  0  0
  -11.5020   -5.3690   -7.7920 H   0  0  0  0  0  0  0  0  0  0  0  0
  -12.8730   -6.9610   -6.5350 H   0  0  0  0  0  0  0  0  0  0  0  0
  -15.0040   -9.4930   -7.9270 H   0  0  0  0  0  0  0  0  0  0  0  0
  -13.5770  -11.0160   -6.5300 H   0  0  0  0  0  0  0  0  0  0  0  0
  -12.3060  -10.3410   -7.4190 H   0  0  0  0  0  0  0  0  0  0  0  0
  -12.8160  -10.0030   -4.6500 H   0  0  0  0  0  0  0  0  0  0  0  0
  -11.7340   -9.0950   -5.6330 H   0  0  0  0  0  0  0  0  0  0  0  0
  -13.0740   -7.3780   -5.4110 H   0  0  0  0  0  0  0  0  0  0  0  0
  -13.9620   -8.2180   -4.1920 H   0  0  0  0  0  0  0  0  0  0  0  0
  -15.2500   -7.4990   -6.4380 H   0  0  0  0  0  0  0  0  0  0  0  0
  -15.4440   -9.0790   -5.7740 H   0  0  0  0  0  0  0  0  0  0  0  0
  -13.7680   -9.1170  -10.1480 H   0  0  0  0  0  0  0  0  0  0  0  0
  1  2  1  0
  2  3  1  0
  2  4  1  0
  4  5  2  0
  5  6  1  0
  6  7  2  0
  7  8  1  0
  8  9  1  0
  9 10  1  0
 10 11  1  0
 11 12  1  0
  7 13  1  0
 13 14  2  0
 14  4  1  0
 12  8  1  0
  1 15  1  0
  1 16  1  0
  1 17  1  0
  2 18  1  0
  3 19  1  0
  3 20  1  0
  3 21  1  0
  5 22  1  0
  6 23  1  0
  8 24  1  0
  9 25  1  0
  9 26  1  0
 10 27  1  0
 10 28  1  0
 11 29  1  0
 11 30  1  0
 12 31  1  0
 12 32  1  0
 13 33  1  0
A    1
 C1 
A    2
 C2 
A    3
 C3 
A    4
 C4 
A    5
 C5 
A    6
 C6 
A    7
 C7 
A    8
 C8 
A    9
 C9 
A   10
 C10
A   11
 C11
A   12
 C12
A   13
 C13
A   14
 N1 
A   15
 H1 
A   16
 H2 
A   17
 H3 
A   18
 H4 
A   19
 H5 
A   20
 H6 
A   21
 H7 
A   22
 H8 
A   23
 H9 
A   24
 H10
A   25
 H11
A   26
 H12
A   27
 H13
A   28
 H14
A   29
 H15
A   30
 H16
A   31
 H17
A   32
 H18
A   33
 H19
M  END
>  <ref_pdb>  (90) 
x0051_0B

>  <ref_mols>  (90) 
x0051_0B

>  <original SMILES>  (90) 
[H]c1nc(C([H])(C([H])([H])[H])C([H])([H])[H])c([H])c([H])c1C1([H])C([H])([H])C([H])([H])C([H])([H])C1([H])[H]

>  <index>  (90) 
1567.0

>  <∆∆G>  (90) 
-4.601346

>  <comRMSD>  (90) 
0.857132

>  <N_constrained_atoms>  (90) 
14.0

>  <N_unconstrained_atoms>  (90) 
0.0

>  <LE>  (90) 
0.328668

>  <percent_hybrid>  (90) 
24.0

>  <largest_ring>  (90) 
6.0

>  <N_HA>  (90) 
14.0

>  <N_rotatable_bonds>  (90) 
4.0

>  <max_hit_Tanimoto>  (90) 
0.402923

>  <N_interactions_kept>  (90) 
0.0

>  <N_interactions_lost>  (90) 
0.0

>  <interaction_uniqueness_metric>  (90) 
0.087299

>  <N_interactions>  (90) 
3.0

>  <N_PAINS>  (90) 
0.0

>  <UFF_Gibbs>  (90) 
1494.390515

>  <strain_per_HA>  (90) 
106.741417

>  <ad_hoc_penalty>  (90) 
-21.752942

>  <cluster>  (90) 
425.0

>  <intxn_cluster>  (90) 
3.0

>  <keep>  (90) 
1.0

>  <hydroph_interaction:GLN:74>  (90) 
1.0

>  <hydroph_interaction:THR:118>  (90) 
0.0

>  <hydroph_interaction:ILE:123>  (90) 
1.0

>  <hydroph_interaction:THR:166>  (90) 
0.0

>  <hbond:GLN:167>  (90) 
0.0

>  <hydroph_interaction:ALA:88>  (90) 
0.0

>  <hydroph_interaction:ASP:120>  (90) 
0.0

>  <hydroph_interaction:GLN:167>  (90) 
0.0

>  <hbond:THR:118>  (90) 
0.0

>  <hydroph_interaction:ALA:164>  (90) 
1.0

>  <hbond:ASP:120>  (90) 
0.0

>  <hbond:THR:166>  (90) 
0.0

>  <hydroph_interaction:LEU:76>  (90) 
0.0

>  <hbond:ILE:165>  (90) 
0.0

>  <halogenbond:GLN:74>  (90) 
0.0

>  <hbond:GLN:74>  (90) 
0.0

>  <hbond:LYS:73>  (90) 
0.0

>  <pistack:TRP:69>  (90) 
0.0

>  <hbond:TRP:83>  (90) 
0.0

>  <hydroph_interaction:TRP:83>  (90) 
0.0

>  <hydroph_interaction:TRP:69>  (90) 
0.0

>  <pication:TRP:69>  (90) 
0.0

>  <hydroph_interaction:PRO:82>  (90) 
0.0

>  <halogenbond:LYS:73>  (90) 
0.0

>  <hydroph_interaction:TYR:68>  (90) 
0.0

>  <halogenbond:GLN:167>  (90) 
0.0

>  <hydroph_interaction:PHE:116>  (90) 
0.0

>  <hbond:TYR:68>  (90) 
0.0

>  <hbond:ASP:122>  (90) 
0.0

>  <pistack:PHE:116>  (90) 
0.0

>  <hydroph_interaction:VAL:154>  (90) 
0.0

>  <hydroph_interaction:ASP:75>  (90) 
0.0

>  <hbond:GLY:121>  (90) 
0.0

>  <hydroph_interaction:ASN:152>  (90) 
0.0

>  <halogenbond:ILE:165>  (90) 
0.0

$$$$
Z86182533-Z198195906S9-x0806S1
     RDKit          3D

 32 33  0  0  0  0  0  0  0  0999 V2000
  -10.4140   -4.9940   -9.6970 C   0  0  0  0  0  0  0  0  0  0  0  0
  -10.8260   -6.4100   -9.9740 C   0  0  0  0  0  0  0  0  0  0  0  0
  -10.0250   -7.4230   -9.2340 N   0  0  0  0  0  0  0  0  0  0  0  0
  -10.6330   -7.9140   -7.9660 C   0  0  0  0  0  0  0  0  0  0  0  0
  -10.9710   -9.2800   -7.9970 C   0  0  0  0  0  0  0  0  0  0  0  0
  -12.2900   -9.6710   -8.2260 C   0  0  0  0  0  0  0  0  0  0  0  0
  -12.6720  -11.0240   -8.2740 C   0  0  0  0  0  0  0  0  0  0  0  0
  -11.6300  -12.0660   -8.0750 C   0  0  0  0  0  0  0  0  0  0  0  0
  -10.3440  -11.6510   -7.8440 C   0  0  0  0  0  0  0  0  0  0  0  0
  -10.0150  -10.2800   -7.8020 C   0  0  0  0  0  0  0  0  0  0  0  0
  -12.2600   -6.6430   -9.5640 C   0  0  0  0  0  0  0  0  0  0  0  0
  -12.7280   -6.1530   -8.2520 C   0  0  0  0  0  0  0  0  0  0  0  0
  -14.0430   -6.4240   -7.9120 C   0  0  0  0  0  0  0  0  0  0  0  0
  -14.9290   -7.0850   -8.6640 N   0  0  0  0  0  0  0  0  0  0  0  0
  -14.4640   -7.5340   -9.9230 C   0  0  0  0  0  0  0  0  0  0  0  0
  -13.1740   -7.3260  -10.3800 C   0  0  0  0  0  0  0  0  0  0  0  0
  -10.9440   -4.2840  -10.3480 H   0  0  0  0  0  0  0  0  0  0  0  0
   -9.3430   -4.8610   -9.8880 H   0  0  0  0  0  0  0  0  0  0  0  0
  -10.6420   -4.7220   -8.6610 H   0  0  0  0  0  0  0  0  0  0  0  0
  -10.7430   -6.5890  -11.0450 H   0  0  0  0  0  0  0  0  0  0  0  0
   -9.1250   -6.9930   -9.0060 H   0  0  0  0  0  0  0  0  0  0  0  0
   -9.9670   -7.7300   -7.1150 H   0  0  0  0  0  0  0  0  0  0  0  0
  -11.5440   -7.3590   -7.7350 H   0  0  0  0  0  0  0  0  0  0  0  0
  -13.0510   -8.9110   -8.3760 H   0  0  0  0  0  0  0  0  0  0  0  0
  -13.7090  -11.2980   -8.4560 H   0  0  0  0  0  0  0  0  0  0  0  0
  -11.8780  -13.1270   -8.1080 H   0  0  0  0  0  0  0  0  0  0  0  0
   -9.5740  -12.3960   -7.6980 H   0  0  0  0  0  0  0  0  0  0  0  0
   -8.9780  -10.0110   -7.6160 H   0  0  0  0  0  0  0  0  0  0  0  0
  -12.0910   -5.6070   -7.5600 H   0  0  0  0  0  0  0  0  0  0  0  0
  -14.3600   -6.0530   -6.9370 H   0  0  0  0  0  0  0  0  0  0  0  0
  -15.2000   -8.0650  -10.5250 H   0  0  0  0  0  0  0  0  0  0  0  0
  -12.9130   -7.7000  -11.3500 H   0  0  0  0  0  0  0  0  0  0  0  0
  1  2  1  0
  2  3  1  0
  3  4  1  0
  4  5  1  0
  5  6  2  0
  6  7  1  0
  7  8  2  0
  8  9  1  0
  9 10  2  0
  2 11  1  0
 11 12  2  0
 12 13  1  0
 13 14  2  0
 14 15  1  0
 15 16  2  0
 10  5  1  0
 16 11  1  0
  1 17  1  0
  1 18  1  0
  1 19  1  0
  2 20  1  0
  3 21  1  0
  4 22  1  0
  4 23  1  0
  6 24  1  0
  7 25  1  0
  8 26  1  0
  9 27  1  0
 10 28  1  0
 12 29  1  0
 13 30  1  0
 15 31  1  0
 16 32  1  0
A    1
 C1 
A    2
 C2 
A    3
 N1 
A    4
 C3 
A    5
 C4 
A    6
 C5 
A    7
 C6 
A    8
 C7 
A    9
 C8 
A   10
 C9 
A   11
 C10
A   12
 C11
A   13
 C12
A   14
 N2 
A   15
 C13
A   16
 C14
A   17
 H1 
A   18
 H2 
A   19
 H3 
A   20
 H4 
A   21
 H5 
A   22
 H6 
A   23
 H7 
A   24
 H8 
A   25
 H9 
A   26
 H10
A   27
 H11
A   28
 H12
A   29
 H13
A   30
 H14
A   31
 H15
A   32
 H16
M  END
>  <ref_pdb>  (91) 
x0051_0B

>  <ref_mols>  (91) 
x0051_0B

>  <original SMILES>  (91) 
[H]c1nc([H])c([H])c(C([H])(N([H])C([H])([H])c2c([H])c([H])c([H])c([H])c2[H])C([H])([H])[H])c1[H]

>  <index>  (91) 
315.0

>  <∆∆G>  (91) 
-3.895275

>  <comRMSD>  (91) 
0.725118

>  <N_constrained_atoms>  (91) 
16.0

>  <N_unconstrained_atoms>  (91) 
0.0

>  <LE>  (91) 
0.243455

>  <percent_hybrid>  (91) 
34.0

>  <largest_ring>  (91) 
6.0

>  <N_HA>  (91) 
16.0

>  <N_rotatable_bonds>  (91) 
5.0

>  <max_hit_Tanimoto>  (91) 
0.322097

>  <N_interactions_kept>  (91) 
0.5

>  <N_interactions_lost>  (91) 
1.0

>  <interaction_uniqueness_metric>  (91) 
0.062155

>  <N_interactions>  (91) 
6.0

>  <N_PAINS>  (91) 
0.0

>  <UFF_Gibbs>  (91) 
198.152995

>  <strain_per_HA>  (91) 
12.384485

>  <ad_hoc_penalty>  (91) 
-21.451028

>  <cluster>  (91) 
3.0

>  <intxn_cluster>  (91) 
3.0

>  <keep>  (91) 
1.0

>  <hydroph_interaction:GLN:74>  (91) 
0.0

>  <hydroph_interaction:THR:118>  (91) 
0.0

>  <hydroph_interaction:ILE:123>  (91) 
3.0

>  <hydroph_interaction:THR:166>  (91) 
0.0

>  <hbond:GLN:167>  (91) 
2.0

>  <hydroph_interaction:ALA:88>  (91) 
0.0

>  <hydroph_interaction:ASP:120>  (91) 
1.0

>  <hydroph_interaction:GLN:167>  (91) 
0.0

>  <hbond:THR:118>  (91) 
0.0

>  <hydroph_interaction:ALA:164>  (91) 
0.0

>  <hbond:ASP:120>  (91) 
0.0

>  <hbond:THR:166>  (91) 
0.0

>  <hydroph_interaction:LEU:76>  (91) 
0.0

>  <hbond:ILE:165>  (91) 
0.0

>  <halogenbond:GLN:74>  (91) 
0.0

>  <hbond:GLN:74>  (91) 
0.0

>  <hbond:LYS:73>  (91) 
0.0

>  <pistack:TRP:69>  (91) 
0.0

>  <hbond:TRP:83>  (91) 
0.0

>  <hydroph_interaction:TRP:83>  (91) 
0.0

>  <hydroph_interaction:TRP:69>  (91) 
0.0

>  <pication:TRP:69>  (91) 
0.0

>  <hydroph_interaction:PRO:82>  (91) 
0.0

>  <halogenbond:LYS:73>  (91) 
0.0

>  <hydroph_interaction:TYR:68>  (91) 
0.0

>  <halogenbond:GLN:167>  (91) 
0.0

>  <hydroph_interaction:PHE:116>  (91) 
0.0

>  <hbond:TYR:68>  (91) 
0.0

>  <hbond:ASP:122>  (91) 
0.0

>  <pistack:PHE:116>  (91) 
0.0

>  <hydroph_interaction:VAL:154>  (91) 
0.0

>  <hydroph_interaction:ASP:75>  (91) 
0.0

>  <hbond:GLY:121>  (91) 
0.0

>  <hydroph_interaction:ASN:152>  (91) 
0.0

>  <halogenbond:ILE:165>  (91) 
0.0

$$$$
Z1462586871-Z2102283482-x0214S1
     RDKit          3D

 43 45  0  0  0  0  0  0  0  0999 V2000
  -13.2030   -6.2300   -8.0920 C   0  0  0  0  0  0  0  0  0  0  0  0
  -14.0170   -7.3590   -8.6950 C   0  0  0  0  0  0  0  0  0  0  0  0
  -14.6670   -8.3080   -7.6560 C   0  0  0  0  0  0  0  0  0  0  0  0
  -15.9770   -7.9690   -7.3860 C   0  0  0  0  0  0  0  0  0  0  0  0
  -16.7860   -8.6800   -6.5100 C   0  0  0  0  0  0  0  0  0  0  0  0
  -16.2520   -9.7880   -5.8580 C   0  0  0  0  0  0  0  0  0  0  0  0
  -14.9250  -10.1480   -6.1020 C   0  0  0  0  0  0  0  0  0  0  0  0
  -14.1250   -9.4180   -6.9960 C   0  0  0  0  0  0  0  0  0  0  0  0
  -12.8030   -9.8720   -7.1880 C   0  0  0  0  0  0  0  0  0  0  0  0
  -12.2180   -9.1630   -6.3670 O   0  0  0  0  0  0  0  0  0  0  0  0
  -12.0100  -10.4970   -7.6510 N   0  0  0  0  0  0  0  0  0  0  0  0
  -12.2900  -11.8810   -7.9970 C   0  0  0  0  0  0  0  0  0  0  0  0
  -11.8100  -12.2350   -9.3710 C   0  0  0  0  0  0  0  0  0  0  0  0
  -12.3190  -13.5300   -9.9550 C   0  0  0  0  0  0  0  0  0  0  0  0
  -11.4380  -14.5480  -10.0610 N   0  0  0  0  0  0  0  0  0  0  0  0
  -13.4770  -13.7000  -10.3260 O   0  0  0  0  0  0  0  0  0  0  0  0
  -10.2880  -12.1080   -9.2590 C   0  0  0  0  0  0  0  0  0  0  0  0
  -10.0260  -10.6240   -9.0130 C   0  0  0  0  0  0  0  0  0  0  0  0
   -8.9190   -9.9830   -9.5680 C   0  0  0  0  0  0  0  0  0  0  0  0
   -8.6910   -8.6130   -9.3810 C   0  0  0  0  0  0  0  0  0  0  0  0
   -9.5500   -7.8660   -8.6340 C   0  0  0  0  0  0  0  0  0  0  0  0
  -10.6450   -8.4930   -8.0630 C   0  0  0  0  0  0  0  0  0  0  0  0
  -10.8930   -9.8650   -8.2400 C   0  0  0  0  0  0  0  0  0  0  0  0
  -13.8000   -5.3170   -7.9810 H   0  0  0  0  0  0  0  0  0  0  0  0
  -12.3190   -5.9960   -8.6960 H   0  0  0  0  0  0  0  0  0  0  0  0
  -12.8510   -6.5020   -7.0900 H   0  0  0  0  0  0  0  0  0  0  0  0
  -13.3890   -7.9230   -9.3910 H   0  0  0  0  0  0  0  0  0  0  0  0
  -14.8080   -6.9230   -9.3240 H   0  0  0  0  0  0  0  0  0  0  0  0
  -16.4080   -7.1010   -7.8820 H   0  0  0  0  0  0  0  0  0  0  0  0
  -17.8140   -8.3750   -6.3370 H   0  0  0  0  0  0  0  0  0  0  0  0
  -16.8590  -10.3620   -5.1690 H   0  0  0  0  0  0  0  0  0  0  0  0
  -14.5020  -11.0110   -5.5940 H   0  0  0  0  0  0  0  0  0  0  0  0
  -13.3720  -12.0440   -7.8910 H   0  0  0  0  0  0  0  0  0  0  0  0
  -11.7920  -12.5370   -7.2740 H   0  0  0  0  0  0  0  0  0  0  0  0
  -12.1510  -11.4500  -10.0590 H   0  0  0  0  0  0  0  0  0  0  0  0
  -11.0240  -14.7040  -10.9740 H   0  0  0  0  0  0  0  0  0  0  0  0
  -11.7020  -15.3820   -9.5520 H   0  0  0  0  0  0  0  0  0  0  0  0
   -9.8100  -12.5840  -10.1110 H   0  0  0  0  0  0  0  0  0  0  0  0
   -9.9600  -12.6770   -8.3790 H   0  0  0  0  0  0  0  0  0  0  0  0
   -8.2260  -10.5640  -10.1660 H   0  0  0  0  0  0  0  0  0  0  0  0
   -7.8140   -8.1640   -9.8440 H   0  0  0  0  0  0  0  0  0  0  0  0
   -9.3850   -6.8030   -8.4830 H   0  0  0  0  0  0  0  0  0  0  0  0
  -11.2970   -7.8630   -7.4750 H   0  0  0  0  0  0  0  0  0  0  0  0
  1  2  1  0
  2  3  1  0
  3  4  2  0
  4  5  1  0
  5  6  2  0
  6  7  1  0
  7  8  2  0
  8  9  1  0
  9 10  2  0
  9 11  1  0
 11 12  1  0
 12 13  1  0
 13 14  1  0
 14 15  1  0
 14 16  2  0
 13 17  1  0
 17 18  1  0
 18 19  2  0
 19 20  1  0
 20 21  2  0
 21 22  1  0
 22 23  2  0
  8  3  1  0
 23 11  1  0
 23 18  1  0
  1 24  1  0
  1 25  1  0
  1 26  1  0
  2 27  1  0
  2 28  1  0
  4 29  1  0
  5 30  1  0
  6 31  1  0
  7 32  1  0
 12 33  1  0
 12 34  1  0
 13 35  1  0
 15 36  1  0
 15 37  1  0
 17 38  1  0
 17 39  1  0
 19 40  1  0
 20 41  1  0
 21 42  1  0
 22 43  1  0
A    1
 C1 
A    2
 C2 
A    3
 C3 
A    4
 C4 
A    5
 C5 
A    6
 C6 
A    7
 C7 
A    8
 C8 
A    9
 C9 
A   10
 O1 
A   11
 N1 
A   12
 C10
A   13
 C11
A   14
 C12
A   15
 N2 
A   16
 O2 
A   17
 C13
A   18
 C14
A   19
 C15
A   20
 C16
A   21
 C17
A   22
 C18
A   23
 C19
A   24
 H1 
A   25
 H2 
A   26
 H3 
A   27
 H4 
A   28
 H5 
A   29
 H6 
A   30
 H7 
A   31
 H8 
A   32
 H9 
A   33
 H10
A   34
 H11
A   35
 H12
A   36
 H13
A   37
 H14
A   38
 H15
A   39
 H16
A   40
 H17
A   41
 H18
A   42
 H19
A   43
 H20
M  END
>  <ref_pdb>  (92) 
x0051_0B

>  <ref_mols>  (92) 
x0051_0B

>  <original SMILES>  (92) 
[H]c1c([H])c([H])c(C([H])([H])C([H])([H])[H])c(C(=O)N2c3c([H])c([H])c([H])c([H])c3C([H])([H])C([H])(C(=O)N([H])[H])C2([H])[H])c1[H]

>  <index>  (92) 
7385.0

>  <∆∆G>  (92) 
-4.685379

>  <comRMSD>  (92) 
0.722036

>  <N_constrained_atoms>  (92) 
24.0

>  <N_unconstrained_atoms>  (92) 
0.0

>  <LE>  (92) 
0.195224

>  <percent_hybrid>  (92) 
5.0

>  <largest_ring>  (92) 
6.0

>  <N_HA>  (92) 
23.0

>  <N_rotatable_bonds>  (92) 
4.0

>  <max_hit_Tanimoto>  (92) 
0.747563

>  <N_interactions_kept>  (92) 
0.0

>  <N_interactions_lost>  (92) 
2.0

>  <interaction_uniqueness_metric>  (92) 
0.185393

>  <N_interactions>  (92) 
6.0

>  <N_PAINS>  (92) 
0.0

>  <UFF_Gibbs>  (92) 
214.328503

>  <strain_per_HA>  (92) 
9.31859

>  <ad_hoc_penalty>  (92) 
-21.311556

>  <cluster>  (92) 
233.0

>  <intxn_cluster>  (92) 
12.0

>  <keep>  (92) 
1.0

>  <hydroph_interaction:GLN:74>  (92) 
1.0

>  <hydroph_interaction:THR:118>  (92) 
1.0

>  <hydroph_interaction:ILE:123>  (92) 
3.0

>  <hydroph_interaction:THR:166>  (92) 
0.0

>  <hbond:GLN:167>  (92) 
0.0

>  <hydroph_interaction:ALA:88>  (92) 
0.0

>  <hydroph_interaction:ASP:120>  (92) 
0.0

>  <hydroph_interaction:GLN:167>  (92) 
0.0

>  <hbond:THR:118>  (92) 
0.0

>  <hydroph_interaction:ALA:164>  (92) 
0.0

>  <hbond:ASP:120>  (92) 
0.0

>  <hbond:THR:166>  (92) 
0.0

>  <hydroph_interaction:LEU:76>  (92) 
0.0

>  <hbond:ILE:165>  (92) 
0.0

>  <halogenbond:GLN:74>  (92) 
0.0

>  <hbond:GLN:74>  (92) 
0.0

>  <hbond:LYS:73>  (92) 
0.0

>  <pistack:TRP:69>  (92) 
0.0

>  <hbond:TRP:83>  (92) 
0.0

>  <hydroph_interaction:TRP:83>  (92) 
0.0

>  <hydroph_interaction:TRP:69>  (92) 
0.0

>  <pication:TRP:69>  (92) 
0.0

>  <hydroph_interaction:PRO:82>  (92) 
0.0

>  <halogenbond:LYS:73>  (92) 
0.0

>  <hydroph_interaction:TYR:68>  (92) 
0.0

>  <halogenbond:GLN:167>  (92) 
0.0

>  <hydroph_interaction:PHE:116>  (92) 
0.0

>  <hbond:TYR:68>  (92) 
0.0

>  <hbond:ASP:122>  (92) 
0.0

>  <pistack:PHE:116>  (92) 
0.0

>  <hydroph_interaction:VAL:154>  (92) 
0.0

>  <hydroph_interaction:ASP:75>  (92) 
0.0

>  <hbond:GLY:121>  (92) 
1.0

>  <hydroph_interaction:ASN:152>  (92) 
0.0

>  <halogenbond:ILE:165>  (92) 
0.0

$$$$
PV-002854327824-x0806S1-Z198195906S1
     RDKit          3D

 24 24  0  0  0  0  0  0  0  0999 V2000
  -15.3220   -9.7050  -11.5500 C   0  0  0  0  0  0  0  0  0  0  0  0
  -15.4180   -8.8670  -10.3090 C   0  0  0  0  0  0  0  0  0  0  0  0
  -14.3580   -8.0410   -9.9260 C   0  0  0  0  0  0  0  0  0  0  0  0
  -14.1420   -7.6530   -8.6010 C   0  0  0  0  0  0  0  0  0  0  0  0
  -13.0420   -6.8570   -8.2760 C   0  0  0  0  0  0  0  0  0  0  0  0
  -12.1580   -6.4450   -9.2930 C   0  0  0  0  0  0  0  0  0  0  0  0
  -10.9700   -5.6540   -8.9980 C   0  0  2  0  0  0  0  0  0  0  0  0
  -10.5020   -4.7930  -10.1700 C   0  0  0  0  0  0  0  0  0  0  0  0
   -9.8850   -6.4390   -8.6170 N   0  0  0  0  0  0  0  0  0  0  0  0
  -12.4070   -6.8160  -10.5930 C   0  0  0  0  0  0  0  0  0  0  0  0
  -13.4880   -7.6100  -10.9070 C   0  0  0  0  0  0  0  0  0  0  0  0
  -16.1560  -10.3530  -11.8380 H   0  0  0  0  0  0  0  0  0  0  0  0
  -14.4290   -9.6780  -12.1810 H   0  0  0  0  0  0  0  0  0  0  0  0
  -16.3070   -8.8900   -9.6820 H   0  0  0  0  0  0  0  0  0  0  0  0
  -14.8260   -7.9800   -7.8210 H   0  0  0  0  0  0  0  0  0  0  0  0
  -12.8620   -6.5650   -7.2440 H   0  0  0  0  0  0  0  0  0  0  0  0
  -11.2120   -4.9730   -8.1720 H   0  0  0  0  0  0  0  0  0  0  0  0
  -10.0500   -3.8480   -9.8430 H   0  0  0  0  0  0  0  0  0  0  0  0
   -9.7570   -5.3260  -10.7720 H   0  0  0  0  0  0  0  0  0  0  0  0
  -11.3440   -4.5430  -10.8270 H   0  0  0  0  0  0  0  0  0  0  0  0
  -10.2150   -7.3430   -8.2820 H   0  0  0  0  0  0  0  0  0  0  0  0
   -9.3090   -6.6270   -9.4380 H   0  0  0  0  0  0  0  0  0  0  0  0
  -11.7520   -6.5040  -11.3990 H   0  0  0  0  0  0  0  0  0  0  0  0
  -13.6470   -7.9020  -11.9530 H   0  0  0  0  0  0  0  0  0  0  0  0
  1  2  2  0
  2  3  1  0
  3  4  2  0
  4  5  1  0
  5  6  2  0
  6  7  1  0
  7  8  1  0
  7  9  1  0
  6 10  1  0
 10 11  2  0
 11  3  1  0
  1 12  1  0
  1 13  1  0
  2 14  1  0
  4 15  1  0
  5 16  1  0
  7 17  1  1
  8 18  1  0
  8 19  1  0
  8 20  1  0
  9 21  1  0
  9 22  1  0
 10 23  1  0
 11 24  1  0
A    1
 C1 
A    2
 C2 
A    3
 C3 
A    4
 C4 
A    5
 C5 
A    6
 C6 
A    7
 C7 
A    8
 C8 
A    9
 N1 
A   10
 C9 
A   11
 C10
A   12
 H1 
A   13
 H2 
A   14
 H3 
A   15
 H4 
A   16
 H5 
A   17
 H6 
A   18
 H7 
A   19
 H8 
A   20
 H9 
A   21
 H10
A   22
 H11
A   23
 H12
A   24
 H13
M  END
>  <ref_pdb>  (93) 
x0051_0B

>  <ref_mols>  (93) 
x0051_0B

>  <original SMILES>  (93) 
[H]C([H])=C([H])c1c([H])c([H])c([C@@]([H])(N([H])[H])C([H])([H])[H])c([H])c1[H]

>  <index>  (93) 
877.0

>  <∆∆G>  (93) 
-4.846825

>  <comRMSD>  (93) 
0.802783

>  <N_constrained_atoms>  (93) 
9.0

>  <N_unconstrained_atoms>  (93) 
2.0

>  <LE>  (93) 
0.44062

>  <percent_hybrid>  (93) 
38.0

>  <largest_ring>  (93) 
6.0

>  <N_HA>  (93) 
11.0

>  <N_rotatable_bonds>  (93) 
4.0

>  <max_hit_Tanimoto>  (93) 
0.076923

>  <N_interactions_kept>  (93) 
0.0

>  <N_interactions_lost>  (93) 
0.5

>  <interaction_uniqueness_metric>  (93) 
0.141536

>  <N_interactions>  (93) 
4.0

>  <N_PAINS>  (93) 
0.0

>  <UFF_Gibbs>  (93) 
49.565737

>  <strain_per_HA>  (93) 
4.505935

>  <ad_hoc_penalty>  (93) 
-21.248128

>  <cluster>  (93) 
782.0

>  <intxn_cluster>  (93) 
7.0

>  <keep>  (93) 
1.0

>  <hydroph_interaction:GLN:74>  (93) 
0.0

>  <hydroph_interaction:THR:118>  (93) 
0.0

>  <hydroph_interaction:ILE:123>  (93) 
2.0

>  <hydroph_interaction:THR:166>  (93) 
0.0

>  <hbond:GLN:167>  (93) 
0.0

>  <hydroph_interaction:ALA:88>  (93) 
0.0

>  <hydroph_interaction:ASP:120>  (93) 
0.0

>  <hydroph_interaction:GLN:167>  (93) 
1.0

>  <hbond:THR:118>  (93) 
0.0

>  <hydroph_interaction:ALA:164>  (93) 
1.0

>  <hbond:ASP:120>  (93) 
0.0

>  <hbond:THR:166>  (93) 
0.0

>  <hydroph_interaction:LEU:76>  (93) 
0.0

>  <hbond:ILE:165>  (93) 
0.0

>  <halogenbond:GLN:74>  (93) 
0.0

>  <hbond:GLN:74>  (93) 
0.0

>  <hbond:LYS:73>  (93) 
0.0

>  <pistack:TRP:69>  (93) 
0.0

>  <hbond:TRP:83>  (93) 
0.0

>  <hydroph_interaction:TRP:83>  (93) 
0.0

>  <hydroph_interaction:TRP:69>  (93) 
0.0

>  <pication:TRP:69>  (93) 
0.0

>  <hydroph_interaction:PRO:82>  (93) 
0.0

>  <halogenbond:LYS:73>  (93) 
0.0

>  <hydroph_interaction:TYR:68>  (93) 
0.0

>  <halogenbond:GLN:167>  (93) 
0.0

>  <hydroph_interaction:PHE:116>  (93) 
0.0

>  <hbond:TYR:68>  (93) 
0.0

>  <hbond:ASP:122>  (93) 
0.0

>  <pistack:PHE:116>  (93) 
0.0

>  <hydroph_interaction:VAL:154>  (93) 
0.0

>  <hydroph_interaction:ASP:75>  (93) 
0.0

>  <hbond:GLY:121>  (93) 
0.0

>  <hydroph_interaction:ASN:152>  (93) 
0.0

>  <halogenbond:ILE:165>  (93) 
0.0

$$$$
PV-005017713156-Z198195906S6-Z1318054286
     RDKit          3D

 37 38  0  0  0  0  0  0  0  0999 V2000
   -8.2470   -4.0280  -10.6600 C   0  0  0  0  0  0  0  0  0  0  0  0
   -9.3580   -3.5770   -9.6410 C   0  0  0  0  0  0  0  0  0  0  0  0
   -9.0570   -2.2560   -8.9880 C   0  0  0  0  0  0  0  0  0  0  0  0
  -10.0840   -1.7320   -7.9870 C   0  0  0  0  0  0  0  0  0  0  0  0
  -11.3350   -2.5790   -7.7250 C   0  0  0  0  0  0  0  0  0  0  0  0
  -11.4680   -3.7950   -8.4120 C   0  0  0  0  0  0  0  0  0  0  0  0
  -10.5310   -4.3090   -9.3400 C   0  0  0  0  0  0  0  0  0  0  0  0
  -10.7350   -5.5490   -9.9810 N   0  0  0  0  0  0  0  0  0  0  0  0
  -11.3490   -6.6830   -9.4910 C   0  0  0  0  0  0  0  0  0  0  0  0
  -10.3420   -7.5720   -9.2630 N   0  0  0  0  0  0  0  0  0  0  0  0
  -12.6140   -6.9160   -9.2790 N   0  0  0  0  0  0  0  0  0  0  0  0
  -13.0830   -8.2410   -8.7900 C   0  0  0  0  0  0  0  0  0  0  0  0
  -14.1790   -8.2610   -7.6920 C   0  0  0  0  0  0  0  0  0  0  0  0
  -15.6050   -8.2940   -8.2340 C   0  0  0  0  0  0  0  0  0  0  0  0
  -16.1890   -9.3590   -8.0420 O   0  0  0  0  0  0  0  0  0  0  0  0
  -16.3810   -9.6410   -6.6560 C   0  0  0  0  0  0  0  0  0  0  0  0
  -15.0230   -9.7590   -5.9720 C   0  0  0  0  0  0  0  0  0  0  0  0
  -13.9450   -9.4490   -6.8760 O   0  0  0  0  0  0  0  0  0  0  0  0
   -8.2490   -3.3890  -11.5490 H   0  0  0  0  0  0  0  0  0  0  0  0
   -8.4210   -5.0600  -10.9820 H   0  0  0  0  0  0  0  0  0  0  0  0
   -7.2540   -3.9770  -10.2050 H   0  0  0  0  0  0  0  0  0  0  0  0
   -8.1780   -1.6230   -9.1530 H   0  0  0  0  0  0  0  0  0  0  0  0
   -9.9340   -0.7860   -7.4760 H   0  0  0  0  0  0  0  0  0  0  0  0
  -12.0870   -2.2430   -7.0280 H   0  0  0  0  0  0  0  0  0  0  0  0
  -12.3670   -4.3780   -8.2030 H   0  0  0  0  0  0  0  0  0  0  0  0
   -9.8930   -5.8330  -10.4580 H   0  0  0  0  0  0  0  0  0  0  0  0
  -10.7040   -8.4520   -8.9120 H   0  0  0  0  0  0  0  0  0  0  0  0
   -9.8060   -7.7470  -10.1160 H   0  0  0  0  0  0  0  0  0  0  0  0
  -12.1870   -8.7380   -8.3970 H   0  0  0  0  0  0  0  0  0  0  0  0
  -13.4010   -8.8470   -9.6490 H   0  0  0  0  0  0  0  0  0  0  0  0
  -14.0640   -7.3910   -7.0330 H   0  0  0  0  0  0  0  0  0  0  0  0
  -16.2110   -7.5080   -7.7700 H   0  0  0  0  0  0  0  0  0  0  0  0
  -15.6040   -8.1230   -9.3180 H   0  0  0  0  0  0  0  0  0  0  0  0
  -16.9530  -10.5710   -6.5730 H   0  0  0  0  0  0  0  0  0  0  0  0
  -16.9740   -8.8280   -6.2220 H   0  0  0  0  0  0  0  0  0  0  0  0
  -14.9550   -9.0730   -5.1220 H   0  0  0  0  0  0  0  0  0  0  0  0
  -14.8640  -10.7780   -5.6040 H   0  0  0  0  0  0  0  0  0  0  0  0
  1  2  1  0
  2  3  2  0
  3  4  1  0
  4  5  2  0
  5  6  1  0
  6  7  2  0
  7  8  1  0
  8  9  1  0
  9 10  1  0
  9 11  2  3
 11 12  1  0
 12 13  1  0
 13 14  1  0
 14 15  1  0
 15 16  1  0
 16 17  1  0
 17 18  1  0
  7  2  1  0
 18 13  1  0
  1 19  1  0
  1 20  1  0
  1 21  1  0
  3 22  1  0
  4 23  1  0
  5 24  1  0
  6 25  1  0
  8 26  1  0
 10 27  1  0
 10 28  1  0
 12 29  1  0
 12 30  1  0
 13 31  1  0
 14 32  1  0
 14 33  1  0
 16 34  1  0
 16 35  1  0
 17 36  1  0
 17 37  1  0
A    1
 C1 
A    2
 C2 
A    3
 C3 
A    4
 C4 
A    5
 C5 
A    6
 C6 
A    7
 C7 
A    8
 N1 
A    9
 C8 
A   10
 N2 
A   11
 N3 
A   12
 C9 
A   13
 C10
A   14
 C11
A   15
 O1 
A   16
 C12
A   17
 C13
A   18
 O2 
A   19
 H1 
A   20
 H2 
A   21
 H3 
A   22
 H4 
A   23
 H5 
A   24
 H6 
A   25
 H7 
A   26
 H8 
A   27
 H9 
A   28
 H10
A   29
 H11
A   30
 H12
A   31
 H13
A   32
 H14
A   33
 H15
A   34
 H16
A   35
 H17
A   36
 H18
A   37
 H19
M  END
>  <ref_pdb>  (94) 
x0051_0B

>  <ref_mols>  (94) 
x0051_0B

>  <original SMILES>  (94) 
[H]c1c([H])c([H])c(C([H])([H])[H])c(N([H])C(=NC([H])([H])C2([H])OC([H])([H])C([H])([H])OC2([H])[H])N([H])[H])c1[H]

>  <index>  (94) 
2944.0

>  <∆∆G>  (94) 
-5.564402

>  <comRMSD>  (94) 
0.729882

>  <N_constrained_atoms>  (94) 
14.0

>  <N_unconstrained_atoms>  (94) 
7.0

>  <LE>  (94) 
0.264972

>  <percent_hybrid>  (94) 
25.0

>  <largest_ring>  (94) 
6.0

>  <N_HA>  (94) 
18.0

>  <N_rotatable_bonds>  (94) 
4.0

>  <max_hit_Tanimoto>  (94) 
0.172205

>  <N_interactions_kept>  (94) 
1.0

>  <N_interactions_lost>  (94) 
0.0

>  <interaction_uniqueness_metric>  (94) 
0.350958

>  <N_interactions>  (94) 
2.0

>  <N_PAINS>  (94) 
0.0

>  <UFF_Gibbs>  (94) 
191.654438

>  <strain_per_HA>  (94) 
10.64741

>  <ad_hoc_penalty>  (94) 
-21.184576

>  <cluster>  (94) 
4962.0

>  <intxn_cluster>  (94) 
7.0

>  <keep>  (94) 
1.0

>  <hydroph_interaction:GLN:74>  (94) 
0.0

>  <hydroph_interaction:THR:118>  (94) 
0.0

>  <hydroph_interaction:ILE:123>  (94) 
0.0

>  <hydroph_interaction:THR:166>  (94) 
0.0

>  <hbond:GLN:167>  (94) 
0.0

>  <hydroph_interaction:ALA:88>  (94) 
0.0

>  <hydroph_interaction:ASP:120>  (94) 
0.0

>  <hydroph_interaction:GLN:167>  (94) 
0.0

>  <hbond:THR:118>  (94) 
0.0

>  <hydroph_interaction:ALA:164>  (94) 
1.0

>  <hbond:ASP:120>  (94) 
0.0

>  <hbond:THR:166>  (94) 
0.0

>  <hydroph_interaction:LEU:76>  (94) 
0.0

>  <hbond:ILE:165>  (94) 
0.0

>  <halogenbond:GLN:74>  (94) 
0.0

>  <hbond:GLN:74>  (94) 
0.0

>  <hbond:LYS:73>  (94) 
0.0

>  <pistack:TRP:69>  (94) 
0.0

>  <hbond:TRP:83>  (94) 
0.0

>  <hydroph_interaction:TRP:83>  (94) 
0.0

>  <hydroph_interaction:TRP:69>  (94) 
0.0

>  <pication:TRP:69>  (94) 
0.0

>  <hydroph_interaction:PRO:82>  (94) 
0.0

>  <halogenbond:LYS:73>  (94) 
0.0

>  <hydroph_interaction:TYR:68>  (94) 
0.0

>  <halogenbond:GLN:167>  (94) 
0.0

>  <hydroph_interaction:PHE:116>  (94) 
0.0

>  <hbond:TYR:68>  (94) 
0.0

>  <hbond:ASP:122>  (94) 
0.0

>  <pistack:PHE:116>  (94) 
0.0

>  <hydroph_interaction:VAL:154>  (94) 
0.0

>  <hydroph_interaction:ASP:75>  (94) 
1.0

>  <hbond:GLY:121>  (94) 
0.0

>  <hydroph_interaction:ASN:152>  (94) 
0.0

>  <halogenbond:ILE:165>  (94) 
0.0

$$$$
Z1185043445-Z2102283482-x0214S1
     RDKit          3D

 41 43  0  0  0  0  0  0  0  0999 V2000
  -13.7730   -6.9610   -9.0840 C   0  0  0  0  0  0  0  0  0  0  0  0
  -13.9030   -7.1110   -7.6710 O   0  0  0  0  0  0  0  0  0  0  0  0
  -14.6640   -8.1710   -7.2490 C   0  0  0  0  0  0  0  0  0  0  0  0
  -16.1950   -8.0210   -7.2550 C   0  0  0  0  0  0  0  0  0  0  0  0
  -16.9720   -9.1150   -6.8250 C   0  0  0  0  0  0  0  0  0  0  0  0
  -18.8530   -9.0750   -6.7930 Br  0  0  0  0  0  0  0  0  0  0  0  0
  -16.2550  -10.3750   -6.3750 C   0  0  0  0  0  0  0  0  0  0  0  0
  -14.8780  -10.4540   -6.3880 C   0  0  0  0  0  0  0  0  0  0  0  0
  -14.1120   -9.3820   -6.8150 C   0  0  0  0  0  0  0  0  0  0  0  0
  -12.6660   -9.7630   -6.7360 C   0  0  0  0  0  0  0  0  0  0  0  0
  -11.9970   -9.4630   -5.7420 O   0  0  0  0  0  0  0  0  0  0  0  0
  -12.1470  -10.4380   -7.8810 N   0  0  0  0  0  0  0  0  0  0  0  0
  -12.3850  -11.8700   -8.1990 C   0  0  0  0  0  0  0  0  0  0  0  0
  -11.8480  -12.2530   -9.4360 C   0  0  0  0  0  0  0  0  0  0  0  0
  -12.2180  -13.5530   -9.8070 C   0  0  0  0  0  0  0  0  0  0  0  0
  -11.3230  -14.5910   -9.7250 N   0  0  0  0  0  0  0  0  0  0  0  0
  -13.3660  -13.7840  -10.2220 O   0  0  0  0  0  0  0  0  0  0  0  0
  -10.3400  -12.0380   -9.2370 C   0  0  0  0  0  0  0  0  0  0  0  0
  -10.1020  -10.6510   -9.0570 C   0  0  0  0  0  0  0  0  0  0  0  0
   -8.8750  -10.0150   -9.5950 C   0  0  0  0  0  0  0  0  0  0  0  0
   -8.6760   -8.4960   -9.3940 C   0  0  0  0  0  0  0  0  0  0  0  0
   -9.6610   -7.8210   -8.7070 C   0  0  0  0  0  0  0  0  0  0  0  0
  -10.7780   -8.4810   -8.2250 C   0  0  0  0  0  0  0  0  0  0  0  0
  -10.9950   -9.8540   -8.3940 C   0  0  0  0  0  0  0  0  0  0  0  0
  -13.5310   -7.9350   -9.5210 H   0  0  0  0  0  0  0  0  0  0  0  0
  -14.7170   -6.6300   -9.5330 H   0  0  0  0  0  0  0  0  0  0  0  0
  -12.9880   -6.2430   -9.3440 H   0  0  0  0  0  0  0  0  0  0  0  0
  -16.6740   -7.1010   -7.5790 H   0  0  0  0  0  0  0  0  0  0  0  0
  -16.9510  -11.1600   -6.0610 H   0  0  0  0  0  0  0  0  0  0  0  0
  -14.3620  -11.3650   -6.0650 H   0  0  0  0  0  0  0  0  0  0  0  0
  -13.4770  -11.9740   -8.2510 H   0  0  0  0  0  0  0  0  0  0  0  0
  -12.0870  -12.4710   -7.3450 H   0  0  0  0  0  0  0  0  0  0  0  0
  -12.0450  -11.5340  -10.2250 H   0  0  0  0  0  0  0  0  0  0  0  0
  -11.3760  -15.3650  -10.3900 H   0  0  0  0  0  0  0  0  0  0  0  0
  -11.0450  -14.8820   -8.7750 H   0  0  0  0  0  0  0  0  0  0  0  0
  -10.0440  -12.5330   -8.3020 H   0  0  0  0  0  0  0  0  0  0  0  0
   -9.7960  -12.5540  -10.0250 H   0  0  0  0  0  0  0  0  0  0  0  0
   -8.1310  -10.6050  -10.1280 H   0  0  0  0  0  0  0  0  0  0  0  0
   -7.7980   -7.9800   -9.7720 H   0  0  0  0  0  0  0  0  0  0  0  0
   -9.5680   -6.7510   -8.5360 H   0  0  0  0  0  0  0  0  0  0  0  0
  -11.5010   -7.8670   -7.6940 H   0  0  0  0  0  0  0  0  0  0  0  0
  1  2  1  0
  2  3  1  0
  3  4  2  0
  4  5  1  0
  5  6  1  0
  5  7  2  0
  7  8  1  0
  8  9  2  0
  9 10  1  0
 10 11  2  0
 10 12  1  0
 12 13  1  0
 13 14  1  0
 14 15  1  0
 15 16  1  0
 15 17  2  0
 14 18  1  0
 18 19  1  0
 19 20  2  0
 20 21  1  0
 21 22  2  0
 22 23  1  0
 23 24  2  0
  9  3  1  0
 24 12  1  0
 24 19  1  0
  1 25  1  0
  1 26  1  0
  1 27  1  0
  4 28  1  0
  7 29  1  0
  8 30  1  0
 13 31  1  0
 13 32  1  0
 14 33  1  0
 16 34  1  0
 16 35  1  0
 18 36  1  0
 18 37  1  0
 20 38  1  0
 21 39  1  0
 22 40  1  0
 23 41  1  0
A    1
 C1 
A    2
 O1 
A    3
 C2 
A    4
 C3 
A    5
 C4 
A    6
BR1 
A    7
 C5 
A    8
 C6 
A    9
 C7 
A   10
 C8 
A   11
 O2 
A   12
 N1 
A   13
 C9 
A   14
 C10
A   15
 C11
A   16
 N2 
A   17
 O3 
A   18
 C12
A   19
 C13
A   20
 C14
A   21
 C15
A   22
 C16
A   23
 C17
A   24
 C18
A   25
 H1 
A   26
 H2 
A   27
 H3 
A   28
 H4 
A   29
 H5 
A   30
 H6 
A   31
 H7 
A   32
 H8 
A   33
 H9 
A   34
 H10
A   35
 H11
A   36
 H12
A   37
 H13
A   38
 H14
A   39
 H15
A   40
 H16
A   41
 H17
M  END
>  <ref_pdb>  (95) 
x0051_0B

>  <ref_mols>  (95) 
x0051_0B

>  <original SMILES>  (95) 
[H]c1c([H])c([H])c2c(c1[H])N(C(=O)c1c([H])c([H])c(Br)c([H])c1OC([H])([H])[H])C([H])([H])C([H])(C(=O)N([H])[H])C2([H])[H]

>  <index>  (95) 
7377.0

>  <∆∆G>  (95) 
-4.574867

>  <comRMSD>  (95) 
0.642765

>  <N_constrained_atoms>  (95) 
24.0

>  <N_unconstrained_atoms>  (95) 
0.0

>  <LE>  (95) 
0.190619

>  <percent_hybrid>  (95) 
5.0

>  <largest_ring>  (95) 
6.0

>  <N_HA>  (95) 
24.0

>  <N_rotatable_bonds>  (95) 
4.0

>  <max_hit_Tanimoto>  (95) 
0.666959

>  <N_interactions_kept>  (95) 
0.0

>  <N_interactions_lost>  (95) 
2.0

>  <interaction_uniqueness_metric>  (95) 
0.185393

>  <N_interactions>  (95) 
6.0

>  <N_PAINS>  (95) 
0.0

>  <UFF_Gibbs>  (95) 
109.551791

>  <strain_per_HA>  (95) 
4.564639

>  <ad_hoc_penalty>  (95) 
-20.899413

>  <cluster>  (95) 
55.0

>  <intxn_cluster>  (95) 
12.0

>  <keep>  (95) 
1.0

>  <hydroph_interaction:GLN:74>  (95) 
1.0

>  <hydroph_interaction:THR:118>  (95) 
1.0

>  <hydroph_interaction:ILE:123>  (95) 
3.0

>  <hydroph_interaction:THR:166>  (95) 
0.0

>  <hbond:GLN:167>  (95) 
0.0

>  <hydroph_interaction:ALA:88>  (95) 
0.0

>  <hydroph_interaction:ASP:120>  (95) 
0.0

>  <hydroph_interaction:GLN:167>  (95) 
0.0

>  <hbond:THR:118>  (95) 
0.0

>  <hydroph_interaction:ALA:164>  (95) 
0.0

>  <hbond:ASP:120>  (95) 
0.0

>  <hbond:THR:166>  (95) 
0.0

>  <hydroph_interaction:LEU:76>  (95) 
0.0

>  <hbond:ILE:165>  (95) 
0.0

>  <halogenbond:GLN:74>  (95) 
0.0

>  <hbond:GLN:74>  (95) 
0.0

>  <hbond:LYS:73>  (95) 
0.0

>  <pistack:TRP:69>  (95) 
0.0

>  <hbond:TRP:83>  (95) 
0.0

>  <hydroph_interaction:TRP:83>  (95) 
0.0

>  <hydroph_interaction:TRP:69>  (95) 
0.0

>  <pication:TRP:69>  (95) 
0.0

>  <hydroph_interaction:PRO:82>  (95) 
0.0

>  <halogenbond:LYS:73>  (95) 
0.0

>  <hydroph_interaction:TYR:68>  (95) 
0.0

>  <halogenbond:GLN:167>  (95) 
0.0

>  <hydroph_interaction:PHE:116>  (95) 
0.0

>  <hbond:TYR:68>  (95) 
0.0

>  <hbond:ASP:122>  (95) 
0.0

>  <pistack:PHE:116>  (95) 
0.0

>  <hydroph_interaction:VAL:154>  (95) 
0.0

>  <hydroph_interaction:ASP:75>  (95) 
0.0

>  <hbond:GLY:121>  (95) 
1.0

>  <hydroph_interaction:ASN:152>  (95) 
0.0

>  <halogenbond:ILE:165>  (95) 
0.0

$$$$
PV-006080406658-Z198195906S1-x0214S2
     RDKit          3D

 26 27  0  0  0  0  0  0  0  0999 V2000
   -9.7790   -5.4830  -10.4810 C   0  0  0  0  0  0  0  0  0  0  0  0
  -11.2670   -5.3740  -10.6970 C   0  0  0  0  0  0  0  0  0  0  0  0
  -11.9860   -6.2740   -9.9500 C   0  0  0  0  0  0  0  0  0  0  0  0
  -12.0250   -6.2350   -8.5580 C   0  0  0  0  0  0  0  0  0  0  0  0
  -12.6930   -7.1600   -7.7790 C   0  0  0  0  0  0  0  0  0  0  0  0
  -13.3790   -8.2060   -8.3310 C   0  0  0  0  0  0  0  0  0  0  0  0
  -14.0370   -9.1970   -7.4240 C   0  0  0  0  0  0  0  0  0  0  0  0
  -13.0380  -10.0860   -6.7220 C   0  0  0  0  0  0  0  0  0  0  0  0
  -12.6720   -9.3860   -5.4350 C   0  0  0  0  0  0  0  0  0  0  0  0
  -13.6400   -8.2830   -5.1170 C   0  0  0  0  0  0  0  0  0  0  0  0
  -14.7100   -8.4570   -6.2370 C   0  0  0  0  0  0  0  0  0  0  0  0
  -13.4170   -8.3040   -9.7040 C   0  0  0  0  0  0  0  0  0  0  0  0
  -12.7470   -7.3630  -10.5900 N   0  0  0  0  0  0  0  0  0  0  0  0
   -9.2680   -4.5540  -10.7630 H   0  0  0  0  0  0  0  0  0  0  0  0
  -11.4840   -5.4330   -8.0650 H   0  0  0  0  0  0  0  0  0  0  0  0
  -12.6490   -7.0440   -6.7010 H   0  0  0  0  0  0  0  0  0  0  0  0
  -14.7840   -9.8650   -7.8460 H   0  0  0  0  0  0  0  0  0  0  0  0
  -12.1660  -10.1890   -7.3740 H   0  0  0  0  0  0  0  0  0  0  0  0
  -13.4760  -11.0710   -6.5230 H   0  0  0  0  0  0  0  0  0  0  0  0
  -11.6400   -9.0210   -5.5030 H   0  0  0  0  0  0  0  0  0  0  0  0
  -12.6760  -10.1290   -4.6280 H   0  0  0  0  0  0  0  0  0  0  0  0
  -13.1800   -7.2910   -5.1130 H   0  0  0  0  0  0  0  0  0  0  0  0
  -14.1200   -8.4530   -4.1450 H   0  0  0  0  0  0  0  0  0  0  0  0
  -15.5610   -9.0150   -5.8390 H   0  0  0  0  0  0  0  0  0  0  0  0
  -15.0900   -7.4780   -6.5480 H   0  0  0  0  0  0  0  0  0  0  0  0
  -13.9470   -9.0980  -10.2480 H   0  0  0  0  0  0  0  0  0  0  0  0
  1  2  3  0
  2  3  1  0
  3  4  2  0
  4  5  1  0
  5  6  2  0
  6  7  1  0
  7  8  1  0
  8  9  1  0
  9 10  1  0
 10 11  1  0
  6 12  1  0
 12 13  2  0
 13  3  1  0
 11  7  1  0
  1 14  1  0
  4 15  1  0
  5 16  1  0
  7 17  1  0
  8 18  1  0
  8 19  1  0
  9 20  1  0
  9 21  1  0
 10 22  1  0
 10 23  1  0
 11 24  1  0
 11 25  1  0
 12 26  1  0
A    1
 C1 
A    2
 C2 
A    3
 C3 
A    4
 C4 
A    5
 C5 
A    6
 C6 
A    7
 C7 
A    8
 C8 
A    9
 C9 
A   10
 C10
A   11
 C11
A   12
 C12
A   13
 N1 
A   14
 H1 
A   15
 H2 
A   16
 H3 
A   17
 H4 
A   18
 H5 
A   19
 H6 
A   20
 H7 
A   21
 H8 
A   22
 H9 
A   23
 H10
A   24
 H11
A   25
 H12
A   26
 H13
M  END
>  <ref_pdb>  (96) 
x0051_0B

>  <ref_mols>  (96) 
x0051_0B

>  <original SMILES>  (96) 
[H]C#Cc1nc([H])c(C2([H])C([H])([H])C([H])([H])C([H])([H])C2([H])[H])c([H])c1[H]

>  <index>  (96) 
1578.0

>  <∆∆G>  (96) 
-3.004913

>  <comRMSD>  (96) 
0.916063

>  <N_constrained_atoms>  (96) 
14.0

>  <N_unconstrained_atoms>  (96) 
0.0

>  <LE>  (96) 
0.214637

>  <percent_hybrid>  (96) 
24.0

>  <largest_ring>  (96) 
6.0

>  <N_HA>  (96) 
13.0

>  <N_rotatable_bonds>  (96) 
1.0

>  <max_hit_Tanimoto>  (96) 
0.406709

>  <N_interactions_kept>  (96) 
0.0

>  <N_interactions_lost>  (96) 
0.0

>  <interaction_uniqueness_metric>  (96) 
0.077398

>  <N_interactions>  (96) 
2.0

>  <N_PAINS>  (96) 
0.0

>  <UFF_Gibbs>  (96) 
261.209925

>  <strain_per_HA>  (96) 
20.092917

>  <ad_hoc_penalty>  (96) 
-20.769402

>  <cluster>  (96) 
1392.0

>  <intxn_cluster>  (96) 
7.0

>  <keep>  (96) 
1.0

>  <hydroph_interaction:GLN:74>  (96) 
1.0

>  <hydroph_interaction:THR:118>  (96) 
0.0

>  <hydroph_interaction:ILE:123>  (96) 
0.0

>  <hydroph_interaction:THR:166>  (96) 
0.0

>  <hbond:GLN:167>  (96) 
0.0

>  <hydroph_interaction:ALA:88>  (96) 
0.0

>  <hydroph_interaction:ASP:120>  (96) 
0.0

>  <hydroph_interaction:GLN:167>  (96) 
0.0

>  <hbond:THR:118>  (96) 
0.0

>  <hydroph_interaction:ALA:164>  (96) 
1.0

>  <hbond:ASP:120>  (96) 
0.0

>  <hbond:THR:166>  (96) 
0.0

>  <hydroph_interaction:LEU:76>  (96) 
0.0

>  <hbond:ILE:165>  (96) 
0.0

>  <halogenbond:GLN:74>  (96) 
0.0

>  <hbond:GLN:74>  (96) 
0.0

>  <hbond:LYS:73>  (96) 
0.0

>  <pistack:TRP:69>  (96) 
0.0

>  <hbond:TRP:83>  (96) 
0.0

>  <hydroph_interaction:TRP:83>  (96) 
0.0

>  <hydroph_interaction:TRP:69>  (96) 
0.0

>  <pication:TRP:69>  (96) 
0.0

>  <hydroph_interaction:PRO:82>  (96) 
0.0

>  <halogenbond:LYS:73>  (96) 
0.0

>  <hydroph_interaction:TYR:68>  (96) 
0.0

>  <halogenbond:GLN:167>  (96) 
0.0

>  <hydroph_interaction:PHE:116>  (96) 
0.0

>  <hbond:TYR:68>  (96) 
0.0

>  <hbond:ASP:122>  (96) 
0.0

>  <pistack:PHE:116>  (96) 
0.0

>  <hydroph_interaction:VAL:154>  (96) 
0.0

>  <hydroph_interaction:ASP:75>  (96) 
0.0

>  <hbond:GLY:121>  (96) 
0.0

>  <hydroph_interaction:ASN:152>  (96) 
0.0

>  <halogenbond:ILE:165>  (96) 
0.0

$$$$
PV-002713333960-Z1318054286S3-Z1318055457S7
     RDKit          3D

 21 22  0  0  0  0  0  0  0  0999 V2000
   -6.9630   -6.9220  -10.2130 C   0  0  0  0  0  0  0  0  0  0  0  0
   -8.2750   -6.3960   -9.6350 C   0  0  0  0  0  0  0  0  0  0  0  0
   -9.2550   -7.4870   -9.1530 C   0  0  0  0  0  0  0  0  0  0  0  0
  -10.5080   -7.1380   -8.3460 C   0  0  0  0  0  0  0  0  0  0  0  0
  -11.3870   -8.0500   -7.9110 N   0  0  0  0  0  0  0  0  0  0  0  0
  -11.1520   -9.3480   -8.1980 C   0  0  0  0  0  0  0  0  0  0  0  0
  -12.0350  -10.3470   -7.7770 C   0  0  0  0  0  0  0  0  0  0  0  0
  -11.8820  -11.7090   -8.0270 C   0  0  0  0  0  0  0  0  0  0  0  0
  -10.7660  -12.1180   -8.7470 C   0  0  0  0  0  0  0  0  0  0  0  0
   -9.8460  -11.1660   -9.1930 C   0  0  0  0  0  0  0  0  0  0  0  0
  -10.0360   -9.7920   -8.9270 C   0  0  0  0  0  0  0  0  0  0  0  0
   -9.1190   -8.8440   -9.3880 C   0  0  0  0  0  0  0  0  0  0  0  0
   -6.7630   -7.9940  -10.2710 H   0  0  0  0  0  0  0  0  0  0  0  0
   -6.1900   -6.2400  -10.5880 H   0  0  0  0  0  0  0  0  0  0  0  0
   -8.5250   -5.3390   -9.5570 H   0  0  0  0  0  0  0  0  0  0  0  0
  -10.7460   -6.1080   -8.0860 H   0  0  0  0  0  0  0  0  0  0  0  0
  -12.9160  -10.0330   -7.2060 H   0  0  0  0  0  0  0  0  0  0  0  0
  -12.6110  -12.4270   -7.6670 H   0  0  0  0  0  0  0  0  0  0  0  0
  -10.6030  -13.1720   -8.9640 H   0  0  0  0  0  0  0  0  0  0  0  0
   -8.9760  -11.4970   -9.7550 H   0  0  0  0  0  0  0  0  0  0  0  0
   -8.2760   -9.1780   -9.9530 H   0  0  0  0  0  0  0  0  0  0  0  0
  1  2  2  0
  2  3  1  0
  3  4  2  0
  4  5  1  0
  5  6  2  0
  6  7  1  0
  7  8  2  0
  8  9  1  0
  9 10  2  0
 10 11  1  0
 11 12  2  0
 12  3  1  0
 11  6  1  0
  1 13  1  0
  1 14  1  0
  2 15  1  0
  4 16  1  0
  7 17  1  0
  8 18  1  0
  9 19  1  0
 10 20  1  0
 12 21  1  0
A    1
 C1 
A    2
 C2 
A    3
 C3 
A    4
 C4 
A    5
 N1 
A    6
 C5 
A    7
 C6 
A    8
 C7 
A    9
 C8 
A   10
 C9 
A   11
 C10
A   12
 C11
A   13
 H1 
A   14
 H2 
A   15
 H3 
A   16
 H4 
A   17
 H5 
A   18
 H6 
A   19
 H7 
A   20
 H8 
A   21
 H9 
M  END
>  <ref_pdb>  (97) 
x0051_0B

>  <ref_mols>  (97) 
x0051_0B

>  <original SMILES>  (97) 
[H]C([H])=C([H])c1c([H])nc2c([H])c([H])c([H])c([H])c2c1[H]

>  <index>  (97) 
6276.0

>  <∆∆G>  (97) 
-3.32505

>  <comRMSD>  (97) 
0.629539

>  <N_constrained_atoms>  (97) 
10.0

>  <N_unconstrained_atoms>  (97) 
2.0

>  <LE>  (97) 
0.277087

>  <percent_hybrid>  (97) 
43.0

>  <largest_ring>  (97) 
6.0

>  <N_HA>  (97) 
12.0

>  <N_rotatable_bonds>  (97) 
1.0

>  <max_hit_Tanimoto>  (97) 
0.053968

>  <N_interactions_kept>  (97) 
1.0

>  <N_interactions_lost>  (97) 
1.0

>  <interaction_uniqueness_metric>  (97) 
0.128953

>  <N_interactions>  (97) 
4.0

>  <N_PAINS>  (97) 
0.0

>  <UFF_Gibbs>  (97) 
43.610585

>  <strain_per_HA>  (97) 
3.634185

>  <ad_hoc_penalty>  (97) 
-20.608183

>  <cluster>  (97) 
3475.0

>  <intxn_cluster>  (97) 
3.0

>  <keep>  (97) 
1.0

>  <hydroph_interaction:GLN:74>  (97) 
0.0

>  <hydroph_interaction:THR:118>  (97) 
0.0

>  <hydroph_interaction:ILE:123>  (97) 
3.0

>  <hydroph_interaction:THR:166>  (97) 
0.0

>  <hbond:GLN:167>  (97) 
0.0

>  <hydroph_interaction:ALA:88>  (97) 
0.0

>  <hydroph_interaction:ASP:120>  (97) 
0.0

>  <hydroph_interaction:GLN:167>  (97) 
0.0

>  <hbond:THR:118>  (97) 
0.0

>  <hydroph_interaction:ALA:164>  (97) 
0.0

>  <hbond:ASP:120>  (97) 
0.0

>  <hbond:THR:166>  (97) 
0.0

>  <hydroph_interaction:LEU:76>  (97) 
0.0

>  <hbond:ILE:165>  (97) 
0.0

>  <halogenbond:GLN:74>  (97) 
0.0

>  <hbond:GLN:74>  (97) 
0.0

>  <hbond:LYS:73>  (97) 
0.0

>  <pistack:TRP:69>  (97) 
0.0

>  <hbond:TRP:83>  (97) 
0.0

>  <hydroph_interaction:TRP:83>  (97) 
0.0

>  <hydroph_interaction:TRP:69>  (97) 
0.0

>  <pication:TRP:69>  (97) 
0.0

>  <hydroph_interaction:PRO:82>  (97) 
0.0

>  <halogenbond:LYS:73>  (97) 
0.0

>  <hydroph_interaction:TYR:68>  (97) 
0.0

>  <halogenbond:GLN:167>  (97) 
0.0

>  <hydroph_interaction:PHE:116>  (97) 
1.0

>  <hbond:TYR:68>  (97) 
0.0

>  <hbond:ASP:122>  (97) 
0.0

>  <pistack:PHE:116>  (97) 
0.0

>  <hydroph_interaction:VAL:154>  (97) 
0.0

>  <hydroph_interaction:ASP:75>  (97) 
0.0

>  <hbond:GLY:121>  (97) 
0.0

>  <hydroph_interaction:ASN:152>  (97) 
0.0

>  <halogenbond:ILE:165>  (97) 
0.0

$$$$
PV-005490180949-x0214S2-Z198195906S6
     RDKit          3D

 38 38  0  0  0  0  0  0  0  0999 V2000
  -15.0340   -8.6280   -5.2050 C   0  0  0  0  0  0  0  0  0  0  0  0
  -13.5710   -8.4170   -4.9350 C   0  0  0  0  0  0  0  0  0  0  0  0
  -12.6970   -9.4010   -5.7290 C   0  0  0  0  0  0  0  0  0  0  0  0
  -13.4750  -10.1230   -6.8320 C   0  0  0  0  0  0  0  0  0  0  0  0
  -14.3760   -9.1750   -7.6040 C   0  0  0  0  0  0  0  0  0  0  0  0
  -13.6260   -8.3000   -8.3650 C   0  0  0  0  0  0  0  0  0  0  0  0
  -13.6720   -8.3350   -9.7460 C   0  0  0  0  0  0  0  0  0  0  0  0
  -12.8660   -7.4970  -10.4690 C   0  0  0  0  0  0  0  0  0  0  0  0
  -12.0120   -6.6260   -9.7950 C   0  0  0  0  0  0  0  0  0  0  0  0
  -11.0480   -5.7560  -10.4690 C   0  0  0  0  0  0  0  0  0  0  0  0
  -11.1470   -4.3750  -10.0270 N   0  0  0  0  0  0  0  0  0  0  0  0
   -9.6710   -6.3800  -10.1410 C   0  0  0  0  0  0  0  0  0  0  0  0
   -9.7640   -7.4680   -9.0480 C   0  0  0  0  0  0  0  0  0  0  0  0
  -12.0040   -6.5670   -8.4180 C   0  0  0  0  0  0  0  0  0  0  0  0
  -12.8060   -7.3990   -7.7000 C   0  0  0  0  0  0  0  0  0  0  0  0
  -15.2110   -9.6810   -5.4420 H   0  0  0  0  0  0  0  0  0  0  0  0
  -15.3460   -8.0020   -6.0450 H   0  0  0  0  0  0  0  0  0  0  0  0
  -15.6410   -8.3780   -4.3290 H   0  0  0  0  0  0  0  0  0  0  0  0
  -13.3010   -7.3800   -5.1740 H   0  0  0  0  0  0  0  0  0  0  0  0
  -13.3610   -8.5450   -3.8650 H   0  0  0  0  0  0  0  0  0  0  0  0
  -11.8330   -8.8830   -6.1620 H   0  0  0  0  0  0  0  0  0  0  0  0
  -12.2820  -10.1480   -5.0380 H   0  0  0  0  0  0  0  0  0  0  0  0
  -14.1250  -10.8800   -6.3740 H   0  0  0  0  0  0  0  0  0  0  0  0
  -12.7930  -10.6530   -7.5090 H   0  0  0  0  0  0  0  0  0  0  0  0
  -15.0280   -8.6090   -6.9330 H   0  0  0  0  0  0  0  0  0  0  0  0
  -15.0450   -9.7340   -8.2720 H   0  0  0  0  0  0  0  0  0  0  0  0
  -14.3290   -9.0320  -10.2660 H   0  0  0  0  0  0  0  0  0  0  0  0
  -12.8920   -7.5380  -11.5530 H   0  0  0  0  0  0  0  0  0  0  0  0
  -11.2310   -5.7900  -11.5410 H   0  0  0  0  0  0  0  0  0  0  0  0
  -10.2530   -3.9070  -10.1600 H   0  0  0  0  0  0  0  0  0  0  0  0
  -11.8190   -3.9020  -10.6450 H   0  0  0  0  0  0  0  0  0  0  0  0
   -8.9510   -5.6160   -9.8270 H   0  0  0  0  0  0  0  0  0  0  0  0
   -9.2560   -6.8430  -11.0470 H   0  0  0  0  0  0  0  0  0  0  0  0
  -10.6790   -8.0570   -9.1460 H   0  0  0  0  0  0  0  0  0  0  0  0
   -8.9110   -8.1510   -9.1330 H   0  0  0  0  0  0  0  0  0  0  0  0
   -9.7380   -7.0330   -8.0440 H   0  0  0  0  0  0  0  0  0  0  0  0
  -11.3460   -5.8730   -7.8950 H   0  0  0  0  0  0  0  0  0  0  0  0
  -12.7820   -7.3610   -6.6170 H   0  0  0  0  0  0  0  0  0  0  0  0
  1  2  1  0
  2  3  1  0
  3  4  1  0
  4  5  1  0
  5  6  1  0
  6  7  2  0
  7  8  1  0
  8  9  2  0
  9 10  1  0
 10 11  1  0
 10 12  1  0
 12 13  1  0
  9 14  1  0
 14 15  2  0
 15  6  1  0
  1 16  1  0
  1 17  1  0
  1 18  1  0
  2 19  1  0
  2 20  1  0
  3 21  1  0
  3 22  1  0
  4 23  1  0
  4 24  1  0
  5 25  1  0
  5 26  1  0
  7 27  1  0
  8 28  1  0
 10 29  1  0
 11 30  1  0
 11 31  1  0
 12 32  1  0
 12 33  1  0
 13 34  1  0
 13 35  1  0
 13 36  1  0
 14 37  1  0
 15 38  1  0
A    1
 C1 
A    2
 C2 
A    3
 C3 
A    4
 C4 
A    5
 C5 
A    6
 C6 
A    7
 C7 
A    8
 C8 
A    9
 C9 
A   10
 C10
A   11
 N1 
A   12
 C11
A   13
 C12
A   14
 C13
A   15
 C14
A   16
 H1 
A   17
 H2 
A   18
 H3 
A   19
 H4 
A   20
 H5 
A   21
 H6 
A   22
 H7 
A   23
 H8 
A   24
 H9 
A   25
 H10
A   26
 H11
A   27
 H12
A   28
 H13
A   29
 H14
A   30
 H15
A   31
 H16
A   32
 H17
A   33
 H18
A   34
 H19
A   35
 H20
A   36
 H21
A   37
 H22
A   38
 H23
M  END
>  <ref_pdb>  (98) 
x0051_0B

>  <ref_mols>  (98) 
x0051_0B

>  <original SMILES>  (98) 
[H]c1c([H])c(C([H])(N([H])[H])C([H])([H])C([H])([H])[H])c([H])c([H])c1C([H])([H])C([H])([H])C([H])([H])C([H])([H])C([H])([H])[H]

>  <index>  (98) 
2602.0

>  <∆∆G>  (98) 
-5.850464

>  <comRMSD>  (98) 
0.939401

>  <N_constrained_atoms>  (98) 
15.0

>  <N_unconstrained_atoms>  (98) 
0.0

>  <LE>  (98) 
0.390031

>  <percent_hybrid>  (98) 
29.0

>  <largest_ring>  (98) 
6.0

>  <N_HA>  (98) 
15.0

>  <N_rotatable_bonds>  (98) 
9.0

>  <max_hit_Tanimoto>  (98) 
0.157407

>  <N_interactions_kept>  (98) 
0.0

>  <N_interactions_lost>  (98) 
0.0

>  <interaction_uniqueness_metric>  (98) 
0.094548

>  <N_interactions>  (98) 
5.0

>  <N_PAINS>  (98) 
0.0

>  <UFF_Gibbs>  (98) 
4117.443361

>  <strain_per_HA>  (98) 
274.494394

>  <ad_hoc_penalty>  (98) 
-20.599749

>  <cluster>  (98) 
5121.0

>  <intxn_cluster>  (98) 
7.0

>  <keep>  (98) 
1.0

>  <hydroph_interaction:GLN:74>  (98) 
1.0

>  <hydroph_interaction:THR:118>  (98) 
0.0

>  <hydroph_interaction:ILE:123>  (98) 
3.0

>  <hydroph_interaction:THR:166>  (98) 
0.0

>  <hbond:GLN:167>  (98) 
0.0

>  <hydroph_interaction:ALA:88>  (98) 
0.0

>  <hydroph_interaction:ASP:120>  (98) 
0.0

>  <hydroph_interaction:GLN:167>  (98) 
0.0

>  <hbond:THR:118>  (98) 
0.0

>  <hydroph_interaction:ALA:164>  (98) 
1.0

>  <hbond:ASP:120>  (98) 
0.0

>  <hbond:THR:166>  (98) 
0.0

>  <hydroph_interaction:LEU:76>  (98) 
0.0

>  <hbond:ILE:165>  (98) 
0.0

>  <halogenbond:GLN:74>  (98) 
0.0

>  <hbond:GLN:74>  (98) 
0.0

>  <hbond:LYS:73>  (98) 
0.0

>  <pistack:TRP:69>  (98) 
0.0

>  <hbond:TRP:83>  (98) 
0.0

>  <hydroph_interaction:TRP:83>  (98) 
0.0

>  <hydroph_interaction:TRP:69>  (98) 
0.0

>  <pication:TRP:69>  (98) 
0.0

>  <hydroph_interaction:PRO:82>  (98) 
0.0

>  <halogenbond:LYS:73>  (98) 
0.0

>  <hydroph_interaction:TYR:68>  (98) 
0.0

>  <halogenbond:GLN:167>  (98) 
0.0

>  <hydroph_interaction:PHE:116>  (98) 
0.0

>  <hbond:TYR:68>  (98) 
0.0

>  <hbond:ASP:122>  (98) 
0.0

>  <pistack:PHE:116>  (98) 
0.0

>  <hydroph_interaction:VAL:154>  (98) 
0.0

>  <hydroph_interaction:ASP:75>  (98) 
0.0

>  <hbond:GLY:121>  (98) 
0.0

>  <hydroph_interaction:ASN:152>  (98) 
0.0

>  <halogenbond:ILE:165>  (98) 
0.0

$$$$
PV-002293446640-Z198195906S1-x0214S2
     RDKit          3D

 26 27  0  0  0  0  0  0  0  0999 V2000
  -13.4390  -10.1400   -6.6760 N   0  0  0  0  0  0  0  0  0  0  0  0
  -14.1190   -9.0260   -7.0940 C   0  0  0  0  0  0  0  0  0  0  0  0
  -15.3740   -8.6480   -6.5570 O   0  0  0  0  0  0  0  0  0  0  0  0
  -13.4690   -8.1890   -8.1080 C   0  0  0  0  0  0  0  0  0  0  0  0
  -13.5930   -8.2520   -9.5090 C   0  0  0  0  0  0  0  0  0  0  0  0
  -12.8370   -7.3800  -10.3240 C   0  0  0  0  0  0  0  0  0  0  0  0
  -11.9470   -6.4420   -9.7610 C   0  0  0  0  0  0  0  0  0  0  0  0
  -11.1670   -5.6590  -10.5450 C   0  0  0  0  0  0  0  0  0  0  0  0
   -9.7550   -6.0150  -10.5330 C   0  0  0  0  0  0  0  0  0  0  0  0
   -9.3240   -4.8960  -10.1580 C   0  0  0  0  0  0  0  0  0  0  0  0
  -10.5360   -4.2530   -9.9950 C   0  0  0  0  0  0  0  0  0  0  0  0
  -11.8000   -6.3000   -8.3900 C   0  0  0  0  0  0  0  0  0  0  0  0
  -12.5670   -7.1810   -7.4650 C   0  0  0  0  0  0  0  0  0  0  0  0
  -12.6540   -9.9440   -6.0740 H   0  0  0  0  0  0  0  0  0  0  0  0
  -14.0160  -10.9350   -6.4340 H   0  0  0  0  0  0  0  0  0  0  0  0
  -14.2610   -8.9800   -9.9640 H   0  0  0  0  0  0  0  0  0  0  0  0
  -12.9290   -7.4440  -11.4050 H   0  0  0  0  0  0  0  0  0  0  0  0
  -11.5690   -5.5610  -11.5650 H   0  0  0  0  0  0  0  0  0  0  0  0
   -9.3490   -6.3830  -11.4770 H   0  0  0  0  0  0  0  0  0  0  0  0
   -9.5510   -6.7640   -9.7640 H   0  0  0  0  0  0  0  0  0  0  0  0
   -8.7320   -4.9500   -9.2360 H   0  0  0  0  0  0  0  0  0  0  0  0
   -8.7000   -4.4180  -10.9260 H   0  0  0  0  0  0  0  0  0  0  0  0
  -10.6490   -3.3700  -10.6390 H   0  0  0  0  0  0  0  0  0  0  0  0
  -10.7550   -3.9660   -8.9600 H   0  0  0  0  0  0  0  0  0  0  0  0
  -11.1300   -5.5790   -7.9070 H   0  0  0  0  0  0  0  0  0  0  0  0
  -12.4030   -7.0350   -6.3910 H   0  0  0  0  0  0  0  0  0  0  0  0
  1  2  1  0
  2  3  2  0
  2  4  1  0
  4  5  2  0
  5  6  1  0
  6  7  2  0
  7  8  1  0
  8  9  1  0
  9 10  1  0
 10 11  1  0
  7 12  1  0
 12 13  2  0
 13  4  1  0
 11  8  1  0
  1 14  1  0
  1 15  1  0
  5 16  1  0
  6 17  1  0
  8 18  1  0
  9 19  1  0
  9 20  1  0
 10 21  1  0
 10 22  1  0
 11 23  1  0
 11 24  1  0
 12 25  1  0
 13 26  1  0
A    1
 N1 
A    2
 C1 
A    3
 O1 
A    4
 C2 
A    5
 C3 
A    6
 C4 
A    7
 C5 
A    8
 C6 
A    9
 C7 
A   10
 C8 
A   11
 C9 
A   12
 C10
A   13
 C11
A   14
 H1 
A   15
 H2 
A   16
 H3 
A   17
 H4 
A   18
 H5 
A   19
 H6 
A   20
 H7 
A   21
 H8 
A   22
 H9 
A   23
 H10
A   24
 H11
A   25
 H12
A   26
 H13
M  END
>  <ref_pdb>  (99) 
x0051_0B

>  <ref_mols>  (99) 
x0051_0B

>  <original SMILES>  (99) 
[H]c1c([H])c(C2([H])C([H])([H])C([H])([H])C2([H])[H])c([H])c([H])c1C(=O)N([H])[H]

>  <index>  (99) 
1588.0

>  <∆∆G>  (99) 
-4.361175

>  <comRMSD>  (99) 
0.965965

>  <N_constrained_atoms>  (99) 
13.0

>  <N_unconstrained_atoms>  (99) 
1.0

>  <LE>  (99) 
0.311512

>  <percent_hybrid>  (99) 
25.0

>  <largest_ring>  (99) 
6.0

>  <N_HA>  (99) 
13.0

>  <N_rotatable_bonds>  (99) 
2.0

>  <max_hit_Tanimoto>  (99) 
0.210989

>  <N_interactions_kept>  (99) 
0.0

>  <N_interactions_lost>  (99) 
0.0

>  <interaction_uniqueness_metric>  (99) 
0.059348

>  <N_interactions>  (99) 
2.0

>  <N_PAINS>  (99) 
0.0

>  <UFF_Gibbs>  (99) 
122.723152

>  <strain_per_HA>  (99) 
9.44017

>  <ad_hoc_penalty>  (99) 
-20.581479

>  <cluster>  (99) 
5498.0

>  <intxn_cluster>  (99) 
3.0

>  <keep>  (99) 
1.0

>  <hydroph_interaction:GLN:74>  (99) 
0.0

>  <hydroph_interaction:THR:118>  (99) 
0.0

>  <hydroph_interaction:ILE:123>  (99) 
1.0

>  <hydroph_interaction:THR:166>  (99) 
0.0

>  <hbond:GLN:167>  (99) 
0.0

>  <hydroph_interaction:ALA:88>  (99) 
0.0

>  <hydroph_interaction:ASP:120>  (99) 
0.0

>  <hydroph_interaction:GLN:167>  (99) 
0.0

>  <hbond:THR:118>  (99) 
0.0

>  <hydroph_interaction:ALA:164>  (99) 
1.0

>  <hbond:ASP:120>  (99) 
0.0

>  <hbond:THR:166>  (99) 
0.0

>  <hydroph_interaction:LEU:76>  (99) 
0.0

>  <hbond:ILE:165>  (99) 
0.0

>  <halogenbond:GLN:74>  (99) 
0.0

>  <hbond:GLN:74>  (99) 
0.0

>  <hbond:LYS:73>  (99) 
0.0

>  <pistack:TRP:69>  (99) 
0.0

>  <hbond:TRP:83>  (99) 
0.0

>  <hydroph_interaction:TRP:83>  (99) 
0.0

>  <hydroph_interaction:TRP:69>  (99) 
0.0

>  <pication:TRP:69>  (99) 
0.0

>  <hydroph_interaction:PRO:82>  (99) 
0.0

>  <halogenbond:LYS:73>  (99) 
0.0

>  <hydroph_interaction:TYR:68>  (99) 
0.0

>  <halogenbond:GLN:167>  (99) 
0.0

>  <hydroph_interaction:PHE:116>  (99) 
0.0

>  <hbond:TYR:68>  (99) 
0.0

>  <hbond:ASP:122>  (99) 
0.0

>  <pistack:PHE:116>  (99) 
0.0

>  <hydroph_interaction:VAL:154>  (99) 
0.0

>  <hydroph_interaction:ASP:75>  (99) 
0.0

>  <hbond:GLY:121>  (99) 
0.0

>  <hydroph_interaction:ASN:152>  (99) 
0.0

>  <halogenbond:ILE:165>  (99) 
0.0

$$$$
PV-006944469931-x0130S1-x0944S4
     RDKit          3D

 27 27  0  0  0  0  0  0  0  0999 V2000
  -25.6640   -7.8330    0.5260 C   0  0  0  0  0  0  0  0  0  0  0  0
  -26.1920   -6.7350   -0.4420 C   0  0  0  0  0  0  0  0  0  0  0  0
  -25.8380   -6.8430   -1.7880 C   0  0  0  0  0  0  0  0  0  0  0  0
  -26.6550   -6.0370   -2.7000 C   0  0  0  0  0  0  0  0  0  0  0  0
  -26.0210   -5.5930   -3.8680 C   0  0  0  0  0  0  0  0  0  0  0  0
  -26.3310   -4.2510   -4.2030 O   0  0  0  0  0  0  0  0  0  0  0  0
  -27.2250   -4.9230   -1.8210 C   0  0  0  0  0  0  0  0  0  0  0  0
  -28.0980   -5.4650   -0.8540 C   0  0  0  0  0  0  0  0  0  0  0  0
  -27.6550   -6.6290   -0.3180 N   0  0  0  0  0  0  0  0  0  0  0  0
  -28.1610   -6.8330    1.0360 C   0  0  0  0  0  0  0  0  0  0  0  0
  -25.6910   -7.4750    1.5630 H   0  0  0  0  0  0  0  0  0  0  0  0
  -26.2860   -8.7330    0.4870 H   0  0  0  0  0  0  0  0  0  0  0  0
  -24.6350   -8.1150    0.2830 H   0  0  0  0  0  0  0  0  0  0  0  0
  -25.7970   -5.7860   -0.0770 H   0  0  0  0  0  0  0  0  0  0  0  0
  -25.9320   -7.8970   -2.0680 H   0  0  0  0  0  0  0  0  0  0  0  0
  -24.7880   -6.5630   -1.9140 H   0  0  0  0  0  0  0  0  0  0  0  0
  -27.5050   -6.6610   -3.0050 H   0  0  0  0  0  0  0  0  0  0  0  0
  -26.2910   -6.2320   -4.7160 H   0  0  0  0  0  0  0  0  0  0  0  0
  -24.9340   -5.6840   -3.7910 H   0  0  0  0  0  0  0  0  0  0  0  0
  -26.4150   -3.7580   -3.3670 H   0  0  0  0  0  0  0  0  0  0  0  0
  -27.7220   -4.1680   -2.4250 H   0  0  0  0  0  0  0  0  0  0  0  0
  -26.4340   -4.4230   -1.2950 H   0  0  0  0  0  0  0  0  0  0  0  0
  -29.0890   -5.6210   -1.2920 H   0  0  0  0  0  0  0  0  0  0  0  0
  -28.2360   -4.7320   -0.0500 H   0  0  0  0  0  0  0  0  0  0  0  0
  -28.1620   -7.8970    1.3010 H   0  0  0  0  0  0  0  0  0  0  0  0
  -29.1720   -6.4400    1.1790 H   0  0  0  0  0  0  0  0  0  0  0  0
  -27.5010   -6.3470    1.7640 H   0  0  0  0  0  0  0  0  0  0  0  0
  1  2  1  0
  2  3  1  0
  3  4  1  0
  4  5  1  0
  5  6  1  0
  4  7  1  0
  7  8  1  0
  8  9  1  0
  9 10  1  0
  9  2  1  0
  1 11  1  0
  1 12  1  0
  1 13  1  0
  2 14  1  0
  3 15  1  0
  3 16  1  0
  4 17  1  0
  5 18  1  0
  5 19  1  0
  6 20  1  0
  7 21  1  0
  7 22  1  0
  8 23  1  0
  8 24  1  0
 10 25  1  0
 10 26  1  0
 10 27  1  0
A    1
 C1 
A    2
 C2 
A    3
 C3 
A    4
 C4 
A    5
 C5 
A    6
 O1 
A    7
 C6 
A    8
 C7 
A    9
 N1 
A   10
 C8 
A   11
 H1 
A   12
 H2 
A   13
 H3 
A   14
 H4 
A   15
 H5 
A   16
 H6 
A   17
 H7 
A   18
 H8 
A   19
 H9 
A   20
 H10
A   21
 H11
A   22
 H12
A   23
 H13
A   24
 H14
A   25
 H15
A   26
 H16
A   27
 H17
M  END
>  <ref_pdb>  (100) 
x0051_0B

>  <ref_mols>  (100) 
x0051_0B

>  <original SMILES>  (100) 
[H]OC([H])([H])C1([H])C([H])([H])C([H])([H])N(C([H])([H])[H])C([H])(C([H])([H])[H])C1([H])[H]

>  <index>  (100) 
8802.0

>  <∆∆G>  (100) 
-3.691968

>  <comRMSD>  (100) 
0.477292

>  <N_constrained_atoms>  (100) 
9.0

>  <N_unconstrained_atoms>  (100) 
1.0

>  <LE>  (100) 
0.369197

>  <percent_hybrid>  (100) 
34.0

>  <largest_ring>  (100) 
6.0

>  <N_HA>  (100) 
10.0

>  <N_rotatable_bonds>  (100) 
4.0

>  <max_hit_Tanimoto>  (100) 
0.107317

>  <N_interactions_kept>  (100) 
0.0

>  <N_interactions_lost>  (100) 
1.0

>  <interaction_uniqueness_metric>  (100) 
0.253341

>  <N_interactions>  (100) 
5.0

>  <N_PAINS>  (100) 
0.0

>  <UFF_Gibbs>  (100) 
123.068224

>  <strain_per_HA>  (100) 
12.306699

>  <ad_hoc_penalty>  (100) 
-20.550045

>  <cluster>  (100) 
1022.0

>  <intxn_cluster>  (100) 
10.0

>  <keep>  (100) 
1.0

>  <hydroph_interaction:GLN:74>  (100) 
0.0

>  <hydroph_interaction:THR:118>  (100) 
0.0

>  <hydroph_interaction:ILE:123>  (100) 
0.0

>  <hydroph_interaction:THR:166>  (100) 
0.0

>  <hbond:GLN:167>  (100) 
0.0

>  <hydroph_interaction:ALA:88>  (100) 
0.0

>  <hydroph_interaction:ASP:120>  (100) 
0.0

>  <hydroph_interaction:GLN:167>  (100) 
0.0

>  <hbond:THR:118>  (100) 
0.0

>  <hydroph_interaction:ALA:164>  (100) 
0.0

>  <hbond:ASP:120>  (100) 
0.0

>  <hbond:THR:166>  (100) 
0.0

>  <hydroph_interaction:LEU:76>  (100) 
0.0

>  <hbond:ILE:165>  (100) 
0.0

>  <halogenbond:GLN:74>  (100) 
0.0

>  <hbond:GLN:74>  (100) 
0.0

>  <hbond:LYS:73>  (100) 
0.0

>  <pistack:TRP:69>  (100) 
0.0

>  <hbond:TRP:83>  (100) 
1.0

>  <hydroph_interaction:TRP:83>  (100) 
0.0

>  <hydroph_interaction:TRP:69>  (100) 
3.0

>  <pication:TRP:69>  (100) 
0.0

>  <hydroph_interaction:PRO:82>  (100) 
1.0

>  <halogenbond:LYS:73>  (100) 
0.0

>  <hydroph_interaction:TYR:68>  (100) 
0.0

>  <halogenbond:GLN:167>  (100) 
0.0

>  <hydroph_interaction:PHE:116>  (100) 
0.0

>  <hbond:TYR:68>  (100) 
0.0

>  <hbond:ASP:122>  (100) 
0.0

>  <pistack:PHE:116>  (100) 
0.0

>  <hydroph_interaction:VAL:154>  (100) 
0.0

>  <hydroph_interaction:ASP:75>  (100) 
0.0

>  <hbond:GLY:121>  (100) 
0.0

>  <hydroph_interaction:ASN:152>  (100) 
0.0

>  <halogenbond:ILE:165>  (100) 
0.0

$$$$
PV-003283216697-x0806-Z198195906S9
     RDKit          3D

 47 49  0  0  0  0  0  0  0  0999 V2000
  -16.8190  -12.1900  -12.9730 C   0  0  0  0  0  0  0  0  0  0  0  0
  -16.5370  -12.0220  -11.5050 C   0  0  0  0  0  0  0  0  0  0  0  0
  -15.7070  -12.9810  -10.8950 C   0  0  0  0  0  0  0  0  0  0  0  0
  -17.9130  -12.0530  -10.8060 C   0  0  0  0  0  0  0  0  0  0  0  0
  -15.9220  -10.6790  -11.2430 C   0  0  0  0  0  0  0  0  0  0  0  0
  -15.5890  -10.0690  -10.0570 C   0  0  0  0  0  0  0  0  0  0  0  0
  -15.0620   -8.8700  -10.4010 N   0  0  0  0  0  0  0  0  0  0  0  0
  -14.5360   -7.8620   -9.5580 C   0  0  0  0  0  0  0  0  0  0  0  0
  -15.2150   -7.1700   -8.4490 C   0  0  0  0  0  0  0  0  0  0  0  0
  -14.4480   -6.1700   -7.7280 C   0  0  0  0  0  0  0  0  0  0  0  0
  -13.0510   -5.8640   -8.0550 C   0  0  0  0  0  0  0  0  0  0  0  0
  -12.4830   -6.5670   -9.0890 C   0  0  0  0  0  0  0  0  0  0  0  0
  -11.1370   -6.3030   -9.3450 C   0  0  0  0  0  0  0  0  0  0  0  0
  -10.7490   -5.3340   -9.9900 O   0  0  0  0  0  0  0  0  0  0  0  0
  -10.2900   -7.2850   -8.7610 N   0  0  0  0  0  0  0  0  0  0  0  0
  -10.6460   -8.0860   -7.6870 C   0  0  0  0  0  0  0  0  0  0  0  0
  -10.7040   -9.4220   -8.0890 C   0  0  0  0  0  0  0  0  0  0  0  0
   -9.6930   -9.9770   -9.0610 C   0  0  0  0  0  0  0  0  0  0  0  0
  -10.1570  -11.4400   -9.1500 C   0  0  0  0  0  0  0  0  0  0  0  0
  -11.2060  -12.0980   -8.5400 C   0  0  0  0  0  0  0  0  0  0  0  0
  -12.0300  -11.4370   -7.6960 C   0  0  0  0  0  0  0  0  0  0  0  0
  -11.7710  -10.1160   -7.4800 C   0  0  0  0  0  0  0  0  0  0  0  0
  -13.2590   -7.5290   -9.8040 C   0  0  0  0  0  0  0  0  0  0  0  0
  -15.0750   -8.7450  -11.7520 N   0  0  0  0  0  0  0  0  0  0  0  0
  -15.5980   -9.8430  -12.2740 N   0  0  0  0  0  0  0  0  0  0  0  0
  -15.8970  -12.4460  -13.5040 H   0  0  0  0  0  0  0  0  0  0  0  0
  -17.5650  -12.9710  -13.1340 H   0  0  0  0  0  0  0  0  0  0  0  0
  -17.2180  -11.2690  -13.4130 H   0  0  0  0  0  0  0  0  0  0  0  0
  -14.6340  -12.9260  -11.0710 H   0  0  0  0  0  0  0  0  0  0  0  0
  -15.8390  -12.9480   -9.8080 H   0  0  0  0  0  0  0  0  0  0  0  0
  -16.0100  -13.9870  -11.2150 H   0  0  0  0  0  0  0  0  0  0  0  0
  -18.1200  -13.0350  -10.3650 H   0  0  0  0  0  0  0  0  0  0  0  0
  -18.7220  -11.8340  -11.5140 H   0  0  0  0  0  0  0  0  0  0  0  0
  -17.9660  -11.3110  -10.0000 H   0  0  0  0  0  0  0  0  0  0  0  0
  -15.6850  -10.3980   -9.0340 H   0  0  0  0  0  0  0  0  0  0  0  0
  -16.2350   -7.3650   -8.1490 H   0  0  0  0  0  0  0  0  0  0  0  0
  -14.9990   -5.6980   -6.9470 H   0  0  0  0  0  0  0  0  0  0  0  0
  -12.4910   -5.1190   -7.4930 H   0  0  0  0  0  0  0  0  0  0  0  0
   -9.3160   -7.3030   -9.0290 H   0  0  0  0  0  0  0  0  0  0  0  0
  -11.6340   -7.7890   -7.3190 H   0  0  0  0  0  0  0  0  0  0  0  0
   -9.9520   -7.8200   -6.8940 H   0  0  0  0  0  0  0  0  0  0  0  0
   -8.8670   -9.4810   -9.5560 H   0  0  0  0  0  0  0  0  0  0  0  0
   -9.5540  -12.0620   -9.8120 H   0  0  0  0  0  0  0  0  0  0  0  0
  -11.3710  -13.1540   -8.7400 H   0  0  0  0  0  0  0  0  0  0  0  0
  -12.8630  -11.9400   -7.2100 H   0  0  0  0  0  0  0  0  0  0  0  0
  -12.4280   -9.5820   -6.7960 H   0  0  0  0  0  0  0  0  0  0  0  0
  -12.8750   -8.0780  -10.5940 H   0  0  0  0  0  0  0  0  0  0  0  0
  1  2  1  0
  2  3  1  0
  2  4  1  0
  2  5  1  0
  5  6  2  0
  6  7  1  0
  7  8  1  0
  8  9  2  0
  9 10  1  0
 10 11  2  0
 11 12  1  0
 12 13  1  0
 13 14  2  0
 13 15  1  0
 15 16  1  0
 16 17  1  0
 17 18  2  0
 18 19  1  0
 19 20  2  0
 20 21  1  0
 21 22  2  0
 12 23  2  0
  7 24  1  0
 24 25  2  0
 25  5  1  0
 23  8  1  0
 22 17  1  0
  1 26  1  0
  1 27  1  0
  1 28  1  0
  3 29  1  0
  3 30  1  0
  3 31  1  0
  4 32  1  0
  4 33  1  0
  4 34  1  0
  6 35  1  0
  9 36  1  0
 10 37  1  0
 11 38  1  0
 15 39  1  0
 16 40  1  0
 16 41  1  0
 18 42  1  0
 19 43  1  0
 20 44  1  0
 21 45  1  0
 22 46  1  0
 23 47  1  0
A    1
 C1 
A    2
 C2 
A    3
 C3 
A    4
 C4 
A    5
 C5 
A    6
 C6 
A    7
 N1 
A    8
 C7 
A    9
 C8 
A   10
 C9 
A   11
 C10
A   12
 C11
A   13
 C12
A   14
 O1 
A   15
 N2 
A   16
 C13
A   17
 C14
A   18
 C15
A   19
 C16
A   20
 C17
A   21
 C18
A   22
 C19
A   23
 C20
A   24
 N3 
A   25
 N4 
A   26
 H1 
A   27
 H2 
A   28
 H3 
A   29
 H4 
A   30
 H5 
A   31
 H6 
A   32
 H7 
A   33
 H8 
A   34
 H9 
A   35
 H10
A   36
 H11
A   37
 H12
A   38
 H13
A   39
 H14
A   40
 H15
A   41
 H16
A   42
 H17
A   43
 H18
A   44
 H19
A   45
 H20
A   46
 H21
A   47
 H22
M  END
>  <ref_pdb>  (101) 
x0051_0B

>  <ref_mols>  (101) 
x0051_0B

>  <original SMILES>  (101) 
[H]c1c([H])c([H])c(C([H])([H])N([H])C(=O)c2c([H])c([H])c([H])c(-n3nnc(C(C([H])([H])[H])(C([H])([H])[H])C([H])([H])[H])c3[H])c2[H])c([H])c1[H]

>  <index>  (101) 
113.0

>  <∆∆G>  (101) 
-4.910745

>  <comRMSD>  (101) 
0.588075

>  <N_constrained_atoms>  (101) 
24.0

>  <N_unconstrained_atoms>  (101) 
1.0

>  <LE>  (101) 
0.19643

>  <percent_hybrid>  (101) 
44.0

>  <largest_ring>  (101) 
6.0

>  <N_HA>  (101) 
25.0

>  <N_rotatable_bonds>  (101) 
4.0

>  <max_hit_Tanimoto>  (101) 
0.533145

>  <N_interactions_kept>  (101) 
0.0

>  <N_interactions_lost>  (101) 
3.0

>  <interaction_uniqueness_metric>  (101) 
0.146383

>  <N_interactions>  (101) 
8.0

>  <N_PAINS>  (101) 
0.0

>  <UFF_Gibbs>  (101) 
130.845567

>  <strain_per_HA>  (101) 
5.233802

>  <ad_hoc_penalty>  (101) 
-20.493045

>  <cluster>  (101) 
4.0

>  <intxn_cluster>  (101) 
14.0

>  <keep>  (101) 
1.0

>  <hydroph_interaction:GLN:74>  (101) 
1.0

>  <hydroph_interaction:THR:118>  (101) 
1.0

>  <hydroph_interaction:ILE:123>  (101) 
2.0

>  <hydroph_interaction:THR:166>  (101) 
1.0

>  <hbond:GLN:167>  (101) 
2.0

>  <hydroph_interaction:ALA:88>  (101) 
1.0

>  <hydroph_interaction:ASP:120>  (101) 
0.0

>  <hydroph_interaction:GLN:167>  (101) 
0.0

>  <hbond:THR:118>  (101) 
0.0

>  <hydroph_interaction:ALA:164>  (101) 
0.0

>  <hbond:ASP:120>  (101) 
0.0

>  <hbond:THR:166>  (101) 
0.0

>  <hydroph_interaction:LEU:76>  (101) 
0.0

>  <hbond:ILE:165>  (101) 
0.0

>  <halogenbond:GLN:74>  (101) 
0.0

>  <hbond:GLN:74>  (101) 
0.0

>  <hbond:LYS:73>  (101) 
0.0

>  <pistack:TRP:69>  (101) 
0.0

>  <hbond:TRP:83>  (101) 
0.0

>  <hydroph_interaction:TRP:83>  (101) 
0.0

>  <hydroph_interaction:TRP:69>  (101) 
0.0

>  <pication:TRP:69>  (101) 
0.0

>  <hydroph_interaction:PRO:82>  (101) 
0.0

>  <halogenbond:LYS:73>  (101) 
0.0

>  <hydroph_interaction:TYR:68>  (101) 
0.0

>  <halogenbond:GLN:167>  (101) 
0.0

>  <hydroph_interaction:PHE:116>  (101) 
0.0

>  <hbond:TYR:68>  (101) 
0.0

>  <hbond:ASP:122>  (101) 
0.0

>  <pistack:PHE:116>  (101) 
0.0

>  <hydroph_interaction:VAL:154>  (101) 
0.0

>  <hydroph_interaction:ASP:75>  (101) 
0.0

>  <hbond:GLY:121>  (101) 
0.0

>  <hydroph_interaction:ASN:152>  (101) 
0.0

>  <halogenbond:ILE:165>  (101) 
0.0

$$$$
Z4027773334-x0944S1-x0130S2
     RDKit          3D

 28 29  0  0  0  0  0  0  0  0999 V2000
  -26.3680   -4.1900   -4.1540 O   0  0  0  0  0  0  0  0  0  0  0  0
  -26.1290   -5.3270   -3.7600 C   0  0  0  0  0  0  0  0  0  0  0  0
  -25.4380   -6.2790   -4.6710 C   0  0  0  0  0  0  0  0  0  0  0  0
  -26.2600   -7.4370   -5.2430 C   0  0  0  0  0  0  0  0  0  0  0  0
  -27.5550   -7.6080   -4.9380 F   0  0  0  0  0  0  0  0  0  0  0  0
  -25.6540   -8.3440   -6.1090 C   0  0  0  0  0  0  0  0  0  0  0  0
  -24.2290   -8.1680   -6.4580 C   0  0  0  0  0  0  0  0  0  0  0  0
  -23.6470   -9.0400   -7.2950 F   0  0  0  0  0  0  0  0  0  0  0  0
  -23.5080   -7.1050   -5.9210 C   0  0  0  0  0  0  0  0  0  0  0  0
  -21.8550   -6.8910   -6.3290 Cl  0  0  0  0  0  0  0  0  0  0  0  0
  -24.1030   -6.1900   -5.0490 C   0  0  0  0  0  0  0  0  0  0  0  0
  -26.5330   -5.7690   -2.4300 N   0  0  0  0  0  0  0  0  0  0  0  0
  -27.1130   -4.8190   -1.4900 C   0  0  0  0  0  0  0  0  0  0  0  0
  -28.0800   -5.4380   -0.7240 C   0  0  0  0  0  0  0  0  0  0  0  0
  -27.7290   -6.8450   -0.4090 N   0  0  0  0  0  0  0  0  0  0  0  0
  -26.2580   -7.0430   -0.4060 C   0  0  0  0  0  0  0  0  0  0  0  0
  -25.6530   -6.7540   -1.7960 C   0  0  0  0  0  0  0  0  0  0  0  0
  -26.2210   -9.1680   -6.5220 H   0  0  0  0  0  0  0  0  0  0  0  0
  -23.5260   -5.3990   -4.6650 H   0  0  0  0  0  0  0  0  0  0  0  0
  -27.5100   -3.9780   -2.0640 H   0  0  0  0  0  0  0  0  0  0  0  0
  -26.3580   -4.4380   -0.8110 H   0  0  0  0  0  0  0  0  0  0  0  0
  -29.0390   -5.4160   -1.2550 H   0  0  0  0  0  0  0  0  0  0  0  0
  -28.2230   -4.8870    0.2140 H   0  0  0  0  0  0  0  0  0  0  0  0
  -28.1410   -7.4460   -1.1230 H   0  0  0  0  0  0  0  0  0  0  0  0
  -25.8330   -6.3080    0.2870 H   0  0  0  0  0  0  0  0  0  0  0  0
  -26.0650   -8.0080    0.0520 H   0  0  0  0  0  0  0  0  0  0  0  0
  -24.6070   -6.4670   -1.8500 H   0  0  0  0  0  0  0  0  0  0  0  0
  -25.7000   -7.6930   -2.3630 H   0  0  0  0  0  0  0  0  0  0  0  0
  1  2  2  0
  2  3  1  0
  3  4  2  0
  4  5  1  0
  4  6  1  0
  6  7  2  0
  7  8  1  0
  7  9  1  0
  9 10  1  0
  9 11  2  0
  2 12  1  0
 12 13  1  0
 13 14  1  0
 14 15  1  0
 15 16  1  0
 16 17  1  0
 11  3  1  0
 17 12  1  0
  6 18  1  0
 11 19  1  0
 13 20  1  0
 13 21  1  0
 14 22  1  0
 14 23  1  0
 15 24  1  0
 16 25  1  0
 16 26  1  0
 17 27  1  0
 17 28  1  0
A    1
 O1 
A    2
 C1 
A    3
 C2 
A    4
 C3 
A    5
 F1 
A    6
 C4 
A    7
 C5 
A    8
 F2 
A    9
 C6 
A   10
CL1 
A   11
 C7 
A   12
 N1 
A   13
 C8 
A   14
 C9 
A   15
 N2 
A   16
 C10
A   17
 C11
A   18
 H1 
A   19
 H2 
A   20
 H3 
A   21
 H4 
A   22
 H5 
A   23
 H6 
A   24
 H7 
A   25
 H8 
A   26
 H9 
A   27
 H10
A   28
 H11
M  END
>  <ref_pdb>  (102) 
x0051_0B

>  <ref_mols>  (102) 
x0051_0B

>  <original SMILES>  (102) 
[H]c1c(F)c(Cl)c([H])c(C(=O)N2C([H])([H])C([H])([H])N([H])C([H])([H])C2([H])[H])c1F

>  <index>  (102) 
1037.0

>  <∆∆G>  (102) 
-4.990544

>  <comRMSD>  (102) 
0.357921

>  <N_constrained_atoms>  (102) 
16.0

>  <N_unconstrained_atoms>  (102) 
1.0

>  <LE>  (102) 
0.293561

>  <percent_hybrid>  (102) 
38.0

>  <largest_ring>  (102) 
6.0

>  <N_HA>  (102) 
17.0

>  <N_rotatable_bonds>  (102) 
1.0

>  <max_hit_Tanimoto>  (102) 
0.226027

>  <N_interactions_kept>  (102) 
0.0

>  <N_interactions_lost>  (102) 
2.5

>  <interaction_uniqueness_metric>  (102) 
0.27227

>  <N_interactions>  (102) 
5.0

>  <N_PAINS>  (102) 
0.0

>  <UFF_Gibbs>  (102) 
42.521001

>  <strain_per_HA>  (102) 
2.501221

>  <ad_hoc_penalty>  (102) 
-20.343052

>  <cluster>  (102) 
443.0

>  <intxn_cluster>  (102) 
19.0

>  <keep>  (102) 
1.0

>  <hydroph_interaction:GLN:74>  (102) 
0.0

>  <hydroph_interaction:THR:118>  (102) 
0.0

>  <hydroph_interaction:ILE:123>  (102) 
0.0

>  <hydroph_interaction:THR:166>  (102) 
0.0

>  <hbond:GLN:167>  (102) 
0.0

>  <hydroph_interaction:ALA:88>  (102) 
0.0

>  <hydroph_interaction:ASP:120>  (102) 
0.0

>  <hydroph_interaction:GLN:167>  (102) 
0.0

>  <hbond:THR:118>  (102) 
0.0

>  <hydroph_interaction:ALA:164>  (102) 
0.0

>  <hbond:ASP:120>  (102) 
0.0

>  <hbond:THR:166>  (102) 
0.0

>  <hydroph_interaction:LEU:76>  (102) 
0.0

>  <hbond:ILE:165>  (102) 
0.0

>  <halogenbond:GLN:74>  (102) 
1.0

>  <hbond:GLN:74>  (102) 
0.0

>  <hbond:LYS:73>  (102) 
0.0

>  <pistack:TRP:69>  (102) 
2.0

>  <hbond:TRP:83>  (102) 
1.0

>  <hydroph_interaction:TRP:83>  (102) 
1.0

>  <hydroph_interaction:TRP:69>  (102) 
0.0

>  <pication:TRP:69>  (102) 
0.0

>  <hydroph_interaction:PRO:82>  (102) 
0.0

>  <halogenbond:LYS:73>  (102) 
0.0

>  <hydroph_interaction:TYR:68>  (102) 
0.0

>  <halogenbond:GLN:167>  (102) 
0.0

>  <hydroph_interaction:PHE:116>  (102) 
0.0

>  <hbond:TYR:68>  (102) 
0.0

>  <hbond:ASP:122>  (102) 
0.0

>  <pistack:PHE:116>  (102) 
0.0

>  <hydroph_interaction:VAL:154>  (102) 
0.0

>  <hydroph_interaction:ASP:75>  (102) 
0.0

>  <hbond:GLY:121>  (102) 
0.0

>  <hydroph_interaction:ASN:152>  (102) 
0.0

>  <halogenbond:ILE:165>  (102) 
0.0

$$$$
PV-002918512600-x0806S1-Z198195906S1
     RDKit          3D

 23 23  0  0  0  0  0  0  0  0999 V2000
  -10.3340   -7.9880   -8.5450 C   0  0  0  0  0  0  0  0  0  0  0  0
   -9.9080   -7.1390   -9.6310 N   0  0  0  0  0  0  0  0  0  0  0  0
  -10.7830   -6.2250  -10.1910 C   0  0  0  0  0  0  0  0  0  0  0  0
  -10.4400   -4.7970  -10.0000 C   0  0  0  0  0  0  0  0  0  0  0  0
  -12.1740   -6.5540   -9.7010 C   0  0  0  0  0  0  0  0  0  0  0  0
  -13.0730   -7.2560  -10.5110 C   0  0  0  0  0  0  0  0  0  0  0  0
  -14.3400   -7.5680  -10.0510 C   0  0  0  0  0  0  0  0  0  0  0  0
  -14.7350   -7.1810   -8.7820 C   0  0  0  0  0  0  0  0  0  0  0  0
  -13.8550   -6.4770   -7.9650 C   0  0  0  0  0  0  0  0  0  0  0  0
  -12.5880   -6.1710   -8.4270 C   0  0  0  0  0  0  0  0  0  0  0  0
  -11.7660   -5.5000   -7.6130 F   0  0  0  0  0  0  0  0  0  0  0  0
   -9.5670   -8.7390   -8.3290 H   0  0  0  0  0  0  0  0  0  0  0  0
  -11.2670   -8.4820   -8.8300 H   0  0  0  0  0  0  0  0  0  0  0  0
  -10.4990   -7.3740   -7.6550 H   0  0  0  0  0  0  0  0  0  0  0  0
   -9.0930   -7.4200  -10.1590 H   0  0  0  0  0  0  0  0  0  0  0  0
  -10.7920   -6.3640  -11.2700 H   0  0  0  0  0  0  0  0  0  0  0  0
  -10.2060   -4.5790   -8.9540 H   0  0  0  0  0  0  0  0  0  0  0  0
  -11.2600   -4.1350  -10.3070 H   0  0  0  0  0  0  0  0  0  0  0  0
   -9.5630   -4.5190  -10.5980 H   0  0  0  0  0  0  0  0  0  0  0  0
  -12.8010   -7.5670  -11.5050 H   0  0  0  0  0  0  0  0  0  0  0  0
  -15.0260   -8.1150  -10.6960 H   0  0  0  0  0  0  0  0  0  0  0  0
  -15.7280   -7.4240   -8.4230 H   0  0  0  0  0  0  0  0  0  0  0  0
  -14.1520   -6.1690   -6.9700 H   0  0  0  0  0  0  0  0  0  0  0  0
  1  2  1  0
  2  3  1  0
  3  4  1  0
  3  5  1  0
  5  6  2  0
  6  7  1  0
  7  8  2  0
  8  9  1  0
  9 10  2  0
 10 11  1  0
 10  5  1  0
  1 12  1  0
  1 13  1  0
  1 14  1  0
  2 15  1  0
  3 16  1  0
  4 17  1  0
  4 18  1  0
  4 19  1  0
  6 20  1  0
  7 21  1  0
  8 22  1  0
  9 23  1  0
A    1
 C1 
A    2
 N1 
A    3
 C2 
A    4
 C3 
A    5
 C4 
A    6
 C5 
A    7
 C6 
A    8
 C7 
A    9
 C8 
A   10
 C9 
A   11
 F1 
A   12
 H1 
A   13
 H2 
A   14
 H3 
A   15
 H4 
A   16
 H5 
A   17
 H6 
A   18
 H7 
A   19
 H8 
A   20
 H9 
A   21
 H10
A   22
 H11
A   23
 H12
M  END
>  <ref_pdb>  (103) 
x0051_0B

>  <ref_mols>  (103) 
x0051_0B

>  <original SMILES>  (103) 
[H]c1c([H])c([H])c(C([H])(N([H])C([H])([H])[H])C([H])([H])[H])c(F)c1[H]

>  <index>  (103) 
892.0

>  <∆∆G>  (103) 
-5.02049

>  <comRMSD>  (103) 
0.475278

>  <N_constrained_atoms>  (103) 
9.0

>  <N_unconstrained_atoms>  (103) 
2.0

>  <LE>  (103) 
0.456408

>  <percent_hybrid>  (103) 
38.0

>  <largest_ring>  (103) 
6.0

>  <N_HA>  (103) 
11.0

>  <N_rotatable_bonds>  (103) 
4.0

>  <max_hit_Tanimoto>  (103) 
0.04898

>  <N_interactions_kept>  (103) 
0.0

>  <N_interactions_lost>  (103) 
0.5

>  <interaction_uniqueness_metric>  (103) 
0.317547

>  <N_interactions>  (103) 
3.0

>  <N_PAINS>  (103) 
0.0

>  <UFF_Gibbs>  (103) 
32.797356

>  <strain_per_HA>  (103) 
2.981551

>  <ad_hoc_penalty>  (103) 
-20.261393

>  <cluster>  (103) 
5695.0

>  <intxn_cluster>  (103) 
3.0

>  <keep>  (103) 
1.0

>  <hydroph_interaction:GLN:74>  (103) 
0.0

>  <hydroph_interaction:THR:118>  (103) 
0.0

>  <hydroph_interaction:ILE:123>  (103) 
1.0

>  <hydroph_interaction:THR:166>  (103) 
0.0

>  <hbond:GLN:167>  (103) 
0.0

>  <hydroph_interaction:ALA:88>  (103) 
0.0

>  <hydroph_interaction:ASP:120>  (103) 
0.0

>  <hydroph_interaction:GLN:167>  (103) 
0.0

>  <hbond:THR:118>  (103) 
0.0

>  <hydroph_interaction:ALA:164>  (103) 
1.0

>  <hbond:ASP:120>  (103) 
0.0

>  <hbond:THR:166>  (103) 
0.0

>  <hydroph_interaction:LEU:76>  (103) 
0.0

>  <hbond:ILE:165>  (103) 
0.0

>  <halogenbond:GLN:74>  (103) 
0.0

>  <hbond:GLN:74>  (103) 
0.0

>  <hbond:LYS:73>  (103) 
0.0

>  <pistack:TRP:69>  (103) 
0.0

>  <hbond:TRP:83>  (103) 
0.0

>  <hydroph_interaction:TRP:83>  (103) 
0.0

>  <hydroph_interaction:TRP:69>  (103) 
0.0

>  <pication:TRP:69>  (103) 
0.0

>  <hydroph_interaction:PRO:82>  (103) 
0.0

>  <halogenbond:LYS:73>  (103) 
1.0

>  <hydroph_interaction:TYR:68>  (103) 
0.0

>  <halogenbond:GLN:167>  (103) 
0.0

>  <hydroph_interaction:PHE:116>  (103) 
0.0

>  <hbond:TYR:68>  (103) 
0.0

>  <hbond:ASP:122>  (103) 
0.0

>  <pistack:PHE:116>  (103) 
0.0

>  <hydroph_interaction:VAL:154>  (103) 
0.0

>  <hydroph_interaction:ASP:75>  (103) 
0.0

>  <hbond:GLY:121>  (103) 
0.0

>  <hydroph_interaction:ASN:152>  (103) 
0.0

>  <halogenbond:ILE:165>  (103) 
0.0

$$$$
Z2188593150-x0214S2-Z198195906S6
     RDKit          3D

 33 34  0  0  0  0  0  0  0  0999 V2000
   -9.7080   -7.4240   -9.0610 C   0  0  0  0  0  0  0  0  0  0  0  0
   -9.8190   -6.2920   -9.8350 N   0  0  0  0  0  0  0  0  0  0  0  0
  -11.0570   -5.6390  -10.2320 C   0  0  0  0  0  0  0  0  0  0  0  0
  -11.9740   -6.5350   -9.7630 C   0  0  0  0  0  0  0  0  0  0  0  0
  -12.8490   -7.2430  -10.5160 C   0  0  0  0  0  0  0  0  0  0  0  0
  -13.7100   -8.1750  -10.0000 C   0  0  0  0  0  0  0  0  0  0  0  0
  -13.7680   -8.5180   -8.5570 C   0  0  0  0  0  0  0  0  0  0  0  0
  -14.2550   -9.2620   -7.3430 C   0  0  0  0  0  0  0  0  0  0  0  0
  -13.1150  -10.0700   -6.7240 C   0  0  0  0  0  0  0  0  0  0  0  0
  -12.6290   -9.3050   -5.5140 C   0  0  0  0  0  0  0  0  0  0  0  0
  -13.5750   -8.1730   -5.1400 C   0  0  0  0  0  0  0  0  0  0  0  0
  -14.6860   -8.2780   -6.2200 C   0  0  0  0  0  0  0  0  0  0  0  0
  -12.8340   -7.6920   -7.8690 C   0  0  0  0  0  0  0  0  0  0  0  0
  -11.9920   -6.7580   -8.4260 C   0  0  0  0  0  0  0  0  0  0  0  0
  -10.5860   -8.0680   -9.1640 H   0  0  0  0  0  0  0  0  0  0  0  0
   -9.6250   -7.1400   -8.0080 H   0  0  0  0  0  0  0  0  0  0  0  0
   -8.8380   -8.0230   -9.3480 H   0  0  0  0  0  0  0  0  0  0  0  0
   -9.0900   -6.2850  -10.5340 H   0  0  0  0  0  0  0  0  0  0  0  0
  -11.1840   -4.6540   -9.7660 H   0  0  0  0  0  0  0  0  0  0  0  0
  -11.1590   -5.5370  -11.3140 H   0  0  0  0  0  0  0  0  0  0  0  0
  -12.8590   -7.0680  -11.5990 H   0  0  0  0  0  0  0  0  0  0  0  0
  -14.3760   -8.7040  -10.6820 H   0  0  0  0  0  0  0  0  0  0  0  0
  -15.1530   -9.8560   -7.4720 H   0  0  0  0  0  0  0  0  0  0  0  0
  -12.2810  -10.0510   -7.4400 H   0  0  0  0  0  0  0  0  0  0  0  0
  -13.3160  -11.1300   -6.5810 H   0  0  0  0  0  0  0  0  0  0  0  0
  -12.5920  -10.0140   -4.6760 H   0  0  0  0  0  0  0  0  0  0  0  0
  -11.6100   -8.9330   -5.6610 H   0  0  0  0  0  0  0  0  0  0  0  0
  -13.0700   -7.2010   -5.1890 H   0  0  0  0  0  0  0  0  0  0  0  0
  -14.0220   -8.2820   -4.1450 H   0  0  0  0  0  0  0  0  0  0  0  0
  -14.8320   -7.2890   -6.6680 H   0  0  0  0  0  0  0  0  0  0  0  0
  -15.6260   -8.5470   -5.7160 H   0  0  0  0  0  0  0  0  0  0  0  0
  -12.7690   -7.8140   -6.7970 H   0  0  0  0  0  0  0  0  0  0  0  0
  -11.3150   -6.1990   -7.7830 H   0  0  0  0  0  0  0  0  0  0  0  0
  1  2  1  0
  2  3  1  0
  3  4  1  0
  4  5  2  0
  5  6  1  0
  6  7  2  0
  7  8  1  0
  8  9  1  0
  9 10  1  0
 10 11  1  0
 11 12  1  0
  7 13  1  0
 13 14  2  0
 14  4  1  0
 12  8  1  0
  1 15  1  0
  1 16  1  0
  1 17  1  0
  2 18  1  0
  3 19  1  0
  3 20  1  0
  5 21  1  0
  6 22  1  0
  8 23  1  0
  9 24  1  0
  9 25  1  0
 10 26  1  0
 10 27  1  0
 11 28  1  0
 11 29  1  0
 12 30  1  0
 12 31  1  0
 13 32  1  0
 14 33  1  0
A    1
 C1 
A    2
 N1 
A    3
 C2 
A    4
 C3 
A    5
 C4 
A    6
 C5 
A    7
 C6 
A    8
 C7 
A    9
 C8 
A   10
 C9 
A   11
 C10
A   12
 C11
A   13
 C12
A   14
 C13
A   15
 H1 
A   16
 H2 
A   17
 H3 
A   18
 H4 
A   19
 H5 
A   20
 H6 
A   21
 H7 
A   22
 H8 
A   23
 H9 
A   24
 H10
A   25
 H11
A   26
 H12
A   27
 H13
A   28
 H14
A   29
 H15
A   30
 H16
A   31
 H17
A   32
 H18
A   33
 H19
M  END
>  <ref_pdb>  (104) 
x0051_0B

>  <ref_mols>  (104) 
x0051_0B

>  <original SMILES>  (104) 
[H]c1c([H])c(C2([H])C([H])([H])C([H])([H])C([H])([H])C2([H])[H])c([H])c([H])c1C([H])([H])N([H])C([H])([H])[H]

>  <index>  (104) 
2577.0

>  <∆∆G>  (104) 
-4.366642

>  <comRMSD>  (104) 
0.867882

>  <N_constrained_atoms>  (104) 
15.0

>  <N_unconstrained_atoms>  (104) 
0.0

>  <LE>  (104) 
0.291109

>  <percent_hybrid>  (104) 
29.0

>  <largest_ring>  (104) 
6.0

>  <N_HA>  (104) 
14.0

>  <N_rotatable_bonds>  (104) 
4.0

>  <max_hit_Tanimoto>  (104) 
0.214932

>  <N_interactions_kept>  (104) 
0.0

>  <N_interactions_lost>  (104) 
0.0

>  <interaction_uniqueness_metric>  (104) 
0.041954

>  <N_interactions>  (104) 
3.0

>  <N_PAINS>  (104) 
0.0

>  <UFF_Gibbs>  (104) 
360.183914

>  <strain_per_HA>  (104) 
25.727239

>  <ad_hoc_penalty>  (104) 
-20.15393

>  <cluster>  (104) 
5133.0

>  <intxn_cluster>  (104) 
12.0

>  <keep>  (104) 
1.0

>  <hydroph_interaction:GLN:74>  (104) 
1.0

>  <hydroph_interaction:THR:118>  (104) 
0.0

>  <hydroph_interaction:ILE:123>  (104) 
2.0

>  <hydroph_interaction:THR:166>  (104) 
0.0

>  <hbond:GLN:167>  (104) 
0.0

>  <hydroph_interaction:ALA:88>  (104) 
0.0

>  <hydroph_interaction:ASP:120>  (104) 
0.0

>  <hydroph_interaction:GLN:167>  (104) 
0.0

>  <hbond:THR:118>  (104) 
0.0

>  <hydroph_interaction:ALA:164>  (104) 
0.0

>  <hbond:ASP:120>  (104) 
0.0

>  <hbond:THR:166>  (104) 
0.0

>  <hydroph_interaction:LEU:76>  (104) 
0.0

>  <hbond:ILE:165>  (104) 
0.0

>  <halogenbond:GLN:74>  (104) 
0.0

>  <hbond:GLN:74>  (104) 
0.0

>  <hbond:LYS:73>  (104) 
0.0

>  <pistack:TRP:69>  (104) 
0.0

>  <hbond:TRP:83>  (104) 
0.0

>  <hydroph_interaction:TRP:83>  (104) 
0.0

>  <hydroph_interaction:TRP:69>  (104) 
0.0

>  <pication:TRP:69>  (104) 
0.0

>  <hydroph_interaction:PRO:82>  (104) 
0.0

>  <halogenbond:LYS:73>  (104) 
0.0

>  <hydroph_interaction:TYR:68>  (104) 
0.0

>  <halogenbond:GLN:167>  (104) 
0.0

>  <hydroph_interaction:PHE:116>  (104) 
0.0

>  <hbond:TYR:68>  (104) 
0.0

>  <hbond:ASP:122>  (104) 
0.0

>  <pistack:PHE:116>  (104) 
0.0

>  <hydroph_interaction:VAL:154>  (104) 
0.0

>  <hydroph_interaction:ASP:75>  (104) 
0.0

>  <hbond:GLY:121>  (104) 
0.0

>  <hydroph_interaction:ASN:152>  (104) 
0.0

>  <halogenbond:ILE:165>  (104) 
0.0

$$$$
Z900639002-Z198195906S9-x0214S3
     RDKit          3D

 31 32  0  0  0  0  0  0  0  0999 V2000
  -10.2540   -5.6640  -10.6870 C   0  0  0  0  0  0  0  0  0  0  0  0
  -10.5630   -6.2440   -9.3260 C   0  0  2  0  0  0  0  0  0  0  0  0
   -9.8020   -7.4490   -8.9570 N   0  0  0  0  0  0  0  0  0  0  0  0
  -10.3010   -8.0730   -7.7140 C   0  0  0  0  0  0  0  0  0  0  0  0
  -10.5700   -9.5910   -7.8200 C   0  0  0  0  0  0  0  0  0  0  0  0
  -12.0000   -9.9270   -7.4380 C   0  0  0  0  0  0  0  0  0  0  0  0
  -12.2870  -11.4170   -7.5320 C   0  0  0  0  0  0  0  0  0  0  0  0
  -11.2890  -12.3060   -7.9380 C   0  0  0  0  0  0  0  0  0  0  0  0
  -10.0240  -11.8250   -8.2540 C   0  0  0  0  0  0  0  0  0  0  0  0
   -9.6480  -10.5110   -8.2020 N   0  0  0  0  0  0  0  0  0  0  0  0
  -12.0070   -6.6140   -9.2370 C   0  0  0  0  0  0  0  0  0  0  0  0
  -12.7170   -6.2570   -8.1380 C   0  0  0  0  0  0  0  0  0  0  0  0
  -14.1050   -6.6650   -8.0090 C   0  0  0  0  0  0  0  0  0  0  0  0
  -14.6390   -7.4140   -9.0410 C   0  0  0  0  0  0  0  0  0  0  0  0
  -13.8380   -7.7140  -10.1320 C   0  0  0  0  0  0  0  0  0  0  0  0
  -12.5510   -7.3310  -10.2590 N   0  0  0  0  0  0  0  0  0  0  0  0
   -9.8540   -4.6480  -10.5890 H   0  0  0  0  0  0  0  0  0  0  0  0
   -9.5020   -6.2690  -11.2080 H   0  0  0  0  0  0  0  0  0  0  0  0
  -11.1760   -5.6040  -11.2760 H   0  0  0  0  0  0  0  0  0  0  0  0
  -10.3630   -5.4540   -8.5860 H   0  0  0  0  0  0  0  0  0  0  0  0
   -9.8760   -8.1190   -9.7200 H   0  0  0  0  0  0  0  0  0  0  0  0
  -11.2380   -7.6000   -7.4050 H   0  0  0  0  0  0  0  0  0  0  0  0
   -9.5850   -7.9150   -6.8990 H   0  0  0  0  0  0  0  0  0  0  0  0
  -12.7410   -9.1780   -7.1280 H   0  0  0  0  0  0  0  0  0  0  0  0
  -13.3090  -11.7070   -7.2630 H   0  0  0  0  0  0  0  0  0  0  0  0
  -11.4980  -13.3710   -8.0090 H   0  0  0  0  0  0  0  0  0  0  0  0
   -9.2550  -12.5150   -8.5720 H   0  0  0  0  0  0  0  0  0  0  0  0
  -12.1580   -5.6720   -7.3990 H   0  0  0  0  0  0  0  0  0  0  0  0
  -14.7650   -6.4370   -7.1670 H   0  0  0  0  0  0  0  0  0  0  0  0
  -15.6690   -7.7490   -8.9860 H   0  0  0  0  0  0  0  0  0  0  0  0
  -14.2260   -8.2930  -10.9660 H   0  0  0  0  0  0  0  0  0  0  0  0
  1  2  1  0
  2  3  1  0
  3  4  1  0
  4  5  1  0
  5  6  2  0
  6  7  1  0
  7  8  2  0
  8  9  1  0
  9 10  2  0
  2 11  1  0
 11 12  2  0
 12 13  1  0
 13 14  2  0
 14 15  1  0
 15 16  2  0
 10  5  1  0
 16 11  1  0
  1 17  1  0
  1 18  1  0
  1 19  1  0
  2 20  1  1
  3 21  1  0
  4 22  1  0
  4 23  1  0
  6 24  1  0
  7 25  1  0
  8 26  1  0
  9 27  1  0
 12 28  1  0
 13 29  1  0
 14 30  1  0
 15 31  1  0
A    1
 C1 
A    2
 C2 
A    3
 N1 
A    4
 C3 
A    5
 C4 
A    6
 C5 
A    7
 C6 
A    8
 C7 
A    9
 C8 
A   10
 N2 
A   11
 C9 
A   12
 C10
A   13
 C11
A   14
 C12
A   15
 C13
A   16
 N3 
A   17
 H1 
A   18
 H2 
A   19
 H3 
A   20
 H4 
A   21
 H5 
A   22
 H6 
A   23
 H7 
A   24
 H8 
A   25
 H9 
A   26
 H10
A   27
 H11
A   28
 H12
A   29
 H13
A   30
 H14
A   31
 H15
M  END
>  <ref_pdb>  (105) 
x0051_0B

>  <ref_mols>  (105) 
x0051_0B

>  <original SMILES>  (105) 
[H]c1nc(C([H])([H])N([H])[C@]([H])(c2nc([H])c([H])c([H])c2[H])C([H])([H])[H])c([H])c([H])c1[H]

>  <index>  (105) 
1645.0

>  <∆∆G>  (105) 
-4.890606

>  <comRMSD>  (105) 
0.868778

>  <N_constrained_atoms>  (105) 
16.0

>  <N_unconstrained_atoms>  (105) 
0.0

>  <LE>  (105) 
0.305663

>  <percent_hybrid>  (105) 
34.0

>  <largest_ring>  (105) 
6.0

>  <N_HA>  (105) 
16.0

>  <N_rotatable_bonds>  (105) 
5.0

>  <max_hit_Tanimoto>  (105) 
0.140992

>  <N_interactions_kept>  (105) 
0.5

>  <N_interactions_lost>  (105) 
0.5

>  <interaction_uniqueness_metric>  (105) 
0.106229

>  <N_interactions>  (105) 
4.0

>  <N_PAINS>  (105) 
0.0

>  <UFF_Gibbs>  (105) 
73.298066

>  <strain_per_HA>  (105) 
4.5811

>  <ad_hoc_penalty>  (105) 
-20.137391

>  <cluster>  (105) 
764.0

>  <intxn_cluster>  (105) 
11.0

>  <keep>  (105) 
1.0

>  <hydroph_interaction:GLN:74>  (105) 
0.0

>  <hydroph_interaction:THR:118>  (105) 
0.0

>  <hydroph_interaction:ILE:123>  (105) 
1.0

>  <hydroph_interaction:THR:166>  (105) 
0.0

>  <hbond:GLN:167>  (105) 
0.0

>  <hydroph_interaction:ALA:88>  (105) 
0.0

>  <hydroph_interaction:ASP:120>  (105) 
1.0

>  <hydroph_interaction:GLN:167>  (105) 
0.0

>  <hbond:THR:118>  (105) 
1.0

>  <hydroph_interaction:ALA:164>  (105) 
1.0

>  <hbond:ASP:120>  (105) 
0.0

>  <hbond:THR:166>  (105) 
0.0

>  <hydroph_interaction:LEU:76>  (105) 
0.0

>  <hbond:ILE:165>  (105) 
0.0

>  <halogenbond:GLN:74>  (105) 
0.0

>  <hbond:GLN:74>  (105) 
0.0

>  <hbond:LYS:73>  (105) 
0.0

>  <pistack:TRP:69>  (105) 
0.0

>  <hbond:TRP:83>  (105) 
0.0

>  <hydroph_interaction:TRP:83>  (105) 
0.0

>  <hydroph_interaction:TRP:69>  (105) 
0.0

>  <pication:TRP:69>  (105) 
0.0

>  <hydroph_interaction:PRO:82>  (105) 
0.0

>  <halogenbond:LYS:73>  (105) 
0.0

>  <hydroph_interaction:TYR:68>  (105) 
0.0

>  <halogenbond:GLN:167>  (105) 
0.0

>  <hydroph_interaction:PHE:116>  (105) 
0.0

>  <hbond:TYR:68>  (105) 
0.0

>  <hbond:ASP:122>  (105) 
0.0

>  <pistack:PHE:116>  (105) 
0.0

>  <hydroph_interaction:VAL:154>  (105) 
0.0

>  <hydroph_interaction:ASP:75>  (105) 
0.0

>  <hbond:GLY:121>  (105) 
0.0

>  <hydroph_interaction:ASN:152>  (105) 
0.0

>  <halogenbond:ILE:165>  (105) 
0.0

$$$$
Z1011724098-Z198195906S9-x0884S2
     RDKit          3D

 37 38  0  0  0  0  0  0  0  0999 V2000
   -9.4710   -4.4510  -10.3610 C   0  0  0  0  0  0  0  0  0  0  0  0
   -9.8430   -5.7840   -9.9050 N   0  0  0  0  0  0  0  0  0  0  0  0
  -11.1320   -6.0380   -9.5530 C   0  0  0  0  0  0  0  0  0  0  0  0
  -11.9790   -5.1690   -9.4590 O   0  0  0  0  0  0  0  0  0  0  0  0
  -11.3990   -7.3490   -9.3420 N   0  0  0  0  0  0  0  0  0  0  0  0
  -12.6220   -7.8660   -9.9400 C   0  0  0  0  0  0  0  0  0  0  0  0
  -11.1210   -7.8990   -7.9890 C   0  0  0  0  0  0  0  0  0  0  0  0
  -11.2450   -9.4090   -7.9130 C   0  0  0  0  0  0  0  0  0  0  0  0
  -10.0880  -10.2070   -8.0940 C   0  0  0  0  0  0  0  0  0  0  0  0
  -10.1450  -11.6130   -8.0620 C   0  0  0  0  0  0  0  0  0  0  0  0
  -11.3510  -12.2460   -7.8350 C   0  0  0  0  0  0  0  0  0  0  0  0
  -12.4830  -11.4820   -7.6430 C   0  0  0  0  0  0  0  0  0  0  0  0
  -12.4680  -10.0920   -7.6770 C   0  0  0  0  0  0  0  0  0  0  0  0
  -13.9000   -9.5580   -7.4380 C   0  0  0  0  0  0  0  0  0  0  0  0
  -14.1740   -8.1040   -7.8650 C   0  0  0  0  0  0  0  0  0  0  0  0
  -15.6040   -7.6270   -7.6240 C   0  0  0  0  0  0  0  0  0  0  0  0
  -16.6780   -8.5140   -7.0080 C   0  0  0  0  0  0  0  0  0  0  0  0
  -16.3020   -9.9220   -6.6210 C   0  0  0  0  0  0  0  0  0  0  0  0
  -14.8870  -10.3930   -6.8610 C   0  0  0  0  0  0  0  0  0  0  0  0
   -9.2160   -3.8240   -9.4990 H   0  0  0  0  0  0  0  0  0  0  0  0
  -10.2970   -3.9700  -10.8990 H   0  0  0  0  0  0  0  0  0  0  0  0
   -8.5990   -4.4810  -11.0240 H   0  0  0  0  0  0  0  0  0  0  0  0
   -9.3470   -6.5160  -10.4000 H   0  0  0  0  0  0  0  0  0  0  0  0
  -13.4900   -7.2250   -9.7430 H   0  0  0  0  0  0  0  0  0  0  0  0
  -12.8370   -8.8680   -9.5500 H   0  0  0  0  0  0  0  0  0  0  0  0
  -12.5100   -7.9430  -11.0210 H   0  0  0  0  0  0  0  0  0  0  0  0
  -10.1210   -7.6020   -7.6510 H   0  0  0  0  0  0  0  0  0  0  0  0
  -11.8390   -7.4540   -7.2870 H   0  0  0  0  0  0  0  0  0  0  0  0
   -9.1410   -9.7170   -8.2690 H   0  0  0  0  0  0  0  0  0  0  0  0
   -9.2580  -12.1980   -8.2120 H   0  0  0  0  0  0  0  0  0  0  0  0
  -11.4940  -13.3310   -7.7900 H   0  0  0  0  0  0  0  0  0  0  0  0
  -13.4360  -11.9940   -7.4610 H   0  0  0  0  0  0  0  0  0  0  0  0
  -13.4180   -7.4560   -8.3070 H   0  0  0  0  0  0  0  0  0  0  0  0
  -15.8720   -6.6010   -7.9070 H   0  0  0  0  0  0  0  0  0  0  0  0
  -17.6620   -8.0370   -6.8970 H   0  0  0  0  0  0  0  0  0  0  0  0
  -17.0400  -10.5890   -6.1770 H   0  0  0  0  0  0  0  0  0  0  0  0
  -14.6270  -11.4110   -6.5800 H   0  0  0  0  0  0  0  0  0  0  0  0
  1  2  1  0
  2  3  1  0
  3  4  2  0
  3  5  1  0
  5  6  1  0
  5  7  1  0
  7  8  1  0
  8  9  2  0
  9 10  1  0
 10 11  2  0
 11 12  1  0
 12 13  2  0
 13 14  1  0
 14 15  2  0
 15 16  1  0
 16 17  2  0
 17 18  1  0
 18 19  2  0
 13  8  1  0
 19 14  1  0
  1 20  1  0
  1 21  1  0
  1 22  1  0
  2 23  1  0
  6 24  1  0
  6 25  1  0
  6 26  1  0
  7 27  1  0
  7 28  1  0
  9 29  1  0
 10 30  1  0
 11 31  1  0
 12 32  1  0
 15 33  1  0
 16 34  1  0
 17 35  1  0
 18 36  1  0
 19 37  1  0
A    1
 C1 
A    2
 N1 
A    3
 C2 
A    4
 O1 
A    5
 N2 
A    6
 C3 
A    7
 C4 
A    8
 C5 
A    9
 C6 
A   10
 C7 
A   11
 C8 
A   12
 C9 
A   13
 C10
A   14
 C11
A   15
 C12
A   16
 C13
A   17
 C14
A   18
 C15
A   19
 C16
A   20
 H1 
A   21
 H2 
A   22
 H3 
A   23
 H4 
A   24
 H5 
A   25
 H6 
A   26
 H7 
A   27
 H8 
A   28
 H9 
A   29
 H10
A   30
 H11
A   31
 H12
A   32
 H13
A   33
 H14
A   34
 H15
A   35
 H16
A   36
 H17
A   37
 H18
M  END
>  <ref_pdb>  (106) 
x0051_0B

>  <ref_mols>  (106) 
x0051_0B

>  <original SMILES>  (106) 
[H]c1c([H])c([H])c(-c2c([H])c([H])c([H])c([H])c2C([H])([H])N(C(=O)N([H])C([H])([H])[H])C([H])([H])[H])c([H])c1[H]

>  <index>  (106) 
6037.0

>  <∆∆G>  (106) 
-5.300169

>  <comRMSD>  (106) 
0.668348

>  <N_constrained_atoms>  (106) 
18.0

>  <N_unconstrained_atoms>  (106) 
2.0

>  <LE>  (106) 
0.265008

>  <percent_hybrid>  (106) 
44.0

>  <largest_ring>  (106) 
6.0

>  <N_HA>  (106) 
19.0

>  <N_rotatable_bonds>  (106) 
5.0

>  <max_hit_Tanimoto>  (106) 
0.324675

>  <N_interactions_kept>  (106) 
0.5

>  <N_interactions_lost>  (106) 
0.5

>  <interaction_uniqueness_metric>  (106) 
0.065388

>  <N_interactions>  (106) 
4.0

>  <N_PAINS>  (106) 
0.0

>  <UFF_Gibbs>  (106) 
418.752957

>  <strain_per_HA>  (106) 
22.039513

>  <ad_hoc_penalty>  (106) 
-20.132934

>  <cluster>  (106) 
1192.0

>  <intxn_cluster>  (106) 
12.0

>  <keep>  (106) 
1.0

>  <hydroph_interaction:GLN:74>  (106) 
1.0

>  <hydroph_interaction:THR:118>  (106) 
0.0

>  <hydroph_interaction:ILE:123>  (106) 
2.0

>  <hydroph_interaction:THR:166>  (106) 
0.0

>  <hbond:GLN:167>  (106) 
0.0

>  <hydroph_interaction:ALA:88>  (106) 
0.0

>  <hydroph_interaction:ASP:120>  (106) 
1.0

>  <hydroph_interaction:GLN:167>  (106) 
0.0

>  <hbond:THR:118>  (106) 
0.0

>  <hydroph_interaction:ALA:164>  (106) 
0.0

>  <hbond:ASP:120>  (106) 
0.0

>  <hbond:THR:166>  (106) 
0.0

>  <hydroph_interaction:LEU:76>  (106) 
0.0

>  <hbond:ILE:165>  (106) 
0.0

>  <halogenbond:GLN:74>  (106) 
0.0

>  <hbond:GLN:74>  (106) 
0.0

>  <hbond:LYS:73>  (106) 
0.0

>  <pistack:TRP:69>  (106) 
0.0

>  <hbond:TRP:83>  (106) 
0.0

>  <hydroph_interaction:TRP:83>  (106) 
0.0

>  <hydroph_interaction:TRP:69>  (106) 
0.0

>  <pication:TRP:69>  (106) 
0.0

>  <hydroph_interaction:PRO:82>  (106) 
0.0

>  <halogenbond:LYS:73>  (106) 
0.0

>  <hydroph_interaction:TYR:68>  (106) 
0.0

>  <halogenbond:GLN:167>  (106) 
0.0

>  <hydroph_interaction:PHE:116>  (106) 
0.0

>  <hbond:TYR:68>  (106) 
0.0

>  <hbond:ASP:122>  (106) 
0.0

>  <pistack:PHE:116>  (106) 
0.0

>  <hydroph_interaction:VAL:154>  (106) 
0.0

>  <hydroph_interaction:ASP:75>  (106) 
0.0

>  <hbond:GLY:121>  (106) 
0.0

>  <hydroph_interaction:ASN:152>  (106) 
0.0

>  <halogenbond:ILE:165>  (106) 
0.0

$$$$
PV-002440233548-Z198195906S6-x0214S1
     RDKit          3D

 18 18  0  0  0  0  0  0  0  0999 V2000
  -11.4740  -10.7130   -6.7880 C   0  0  0  0  0  0  0  0  0  0  0  0
  -10.5940   -9.7040   -7.2890 N   0  0  0  0  0  0  0  0  0  0  0  0
   -9.3210   -9.4790   -6.8370 C   0  0  0  0  0  0  0  0  0  0  0  0
   -8.8150   -8.3530   -7.6610 C   0  0  0  0  0  0  0  0  0  0  0  0
   -9.9340   -8.0110   -8.5980 C   0  0  0  0  0  0  0  0  0  0  0  0
  -10.0090   -7.0780   -9.5900 N   0  0  0  0  0  0  0  0  0  0  0  0
  -11.0120   -6.2100   -9.8410 C   0  0  0  0  0  0  0  0  0  0  0  0
  -10.5760   -4.9250   -9.7500 N   0  0  0  0  0  0  0  0  0  0  0  0
  -12.3700   -6.4890  -10.1690 O   0  0  0  0  0  0  0  0  0  0  0  0
  -10.9780   -8.8510   -8.3140 N   0  0  0  0  0  0  0  0  0  0  0  0
  -12.4380  -10.6410   -7.2970 H   0  0  0  0  0  0  0  0  0  0  0  0
  -11.6100  -10.5830   -5.7110 H   0  0  0  0  0  0  0  0  0  0  0  0
  -11.0820  -11.7190   -6.9830 H   0  0  0  0  0  0  0  0  0  0  0  0
   -8.6840   -9.9310   -6.0670 H   0  0  0  0  0  0  0  0  0  0  0  0
   -7.8270   -7.8810   -7.6040 H   0  0  0  0  0  0  0  0  0  0  0  0
   -9.2120   -7.0910  -10.2060 H   0  0  0  0  0  0  0  0  0  0  0  0
  -10.4990   -4.5380   -8.8200 H   0  0  0  0  0  0  0  0  0  0  0  0
  -11.0320   -4.3050  -10.4130 H   0  0  0  0  0  0  0  0  0  0  0  0
  1  2  1  0
  2  3  1  0
  3  4  2  0
  4  5  1  0
  5  6  1  0
  6  7  1  0
  7  8  1  0
  7  9  2  0
  5 10  2  0
 10  2  1  0
  1 11  1  0
  1 12  1  0
  1 13  1  0
  3 14  1  0
  4 15  1  0
  6 16  1  0
  8 17  1  0
  8 18  1  0
A    1
 C1 
A    2
 N1 
A    3
 C2 
A    4
 C3 
A    5
 C4 
A    6
 N2 
A    7
 C5 
A    8
 N3 
A    9
 O1 
A   10
 N4 
A   11
 H1 
A   12
 H2 
A   13
 H3 
A   14
 H4 
A   15
 H5 
A   16
 H6 
A   17
 H7 
A   18
 H8 
M  END
>  <ref_pdb>  (107) 
x0051_0B

>  <ref_mols>  (107) 
x0051_0B

>  <original SMILES>  (107) 
[H]c1c(N([H])C(=O)N([H])[H])nn(C([H])([H])[H])c1[H]

>  <index>  (107) 
9843.0

>  <∆∆G>  (107) 
-2.850654

>  <comRMSD>  (107) 
0.931882

>  <N_constrained_atoms>  (107) 
9.0

>  <N_unconstrained_atoms>  (107) 
2.0

>  <LE>  (107) 
0.25915

>  <percent_hybrid>  (107) 
45.0

>  <largest_ring>  (107) 
5.0

>  <N_HA>  (107) 
10.0

>  <N_rotatable_bonds>  (107) 
2.0

>  <max_hit_Tanimoto>  (107) 
0.041825

>  <N_interactions_kept>  (107) 
0.0

>  <N_interactions_lost>  (107) 
0.0

>  <interaction_uniqueness_metric>  (107) 
0.086863

>  <N_interactions>  (107) 
3.0

>  <N_PAINS>  (107) 
0.0

>  <UFF_Gibbs>  (107) 
83.778439

>  <strain_per_HA>  (107) 
8.37776

>  <ad_hoc_penalty>  (107) 
-20.131055

>  <cluster>  (107) 
2119.0

>  <intxn_cluster>  (107) 
15.0

>  <keep>  (107) 
1.0

>  <hydroph_interaction:GLN:74>  (107) 
0.0

>  <hydroph_interaction:THR:118>  (107) 
1.0

>  <hydroph_interaction:ILE:123>  (107) 
1.0

>  <hydroph_interaction:THR:166>  (107) 
0.0

>  <hbond:GLN:167>  (107) 
0.0

>  <hydroph_interaction:ALA:88>  (107) 
0.0

>  <hydroph_interaction:ASP:120>  (107) 
0.0

>  <hydroph_interaction:GLN:167>  (107) 
0.0

>  <hbond:THR:118>  (107) 
0.0

>  <hydroph_interaction:ALA:164>  (107) 
0.0

>  <hbond:ASP:120>  (107) 
0.0

>  <hbond:THR:166>  (107) 
1.0

>  <hydroph_interaction:LEU:76>  (107) 
0.0

>  <hbond:ILE:165>  (107) 
0.0

>  <halogenbond:GLN:74>  (107) 
0.0

>  <hbond:GLN:74>  (107) 
0.0

>  <hbond:LYS:73>  (107) 
0.0

>  <pistack:TRP:69>  (107) 
0.0

>  <hbond:TRP:83>  (107) 
0.0

>  <hydroph_interaction:TRP:83>  (107) 
0.0

>  <hydroph_interaction:TRP:69>  (107) 
0.0

>  <pication:TRP:69>  (107) 
0.0

>  <hydroph_interaction:PRO:82>  (107) 
0.0

>  <halogenbond:LYS:73>  (107) 
0.0

>  <hydroph_interaction:TYR:68>  (107) 
0.0

>  <halogenbond:GLN:167>  (107) 
0.0

>  <hydroph_interaction:PHE:116>  (107) 
0.0

>  <hbond:TYR:68>  (107) 
0.0

>  <hbond:ASP:122>  (107) 
0.0

>  <pistack:PHE:116>  (107) 
0.0

>  <hydroph_interaction:VAL:154>  (107) 
0.0

>  <hydroph_interaction:ASP:75>  (107) 
0.0

>  <hbond:GLY:121>  (107) 
0.0

>  <hydroph_interaction:ASN:152>  (107) 
0.0

>  <halogenbond:ILE:165>  (107) 
0.0

$$$$
Z1454286610-x0884S4-Z198195906S9
     RDKit          3D

 32 33  0  0  0  0  0  0  0  0999 V2000
  -11.4120   -6.2190  -10.4830 O   0  0  0  0  0  0  0  0  0  0  0  0
  -11.4210   -6.9070   -9.4680 C   0  0  0  0  0  0  0  0  0  0  0  0
  -12.6760   -6.9060   -8.6480 C   0  0  0  0  0  0  0  0  0  0  0  0
  -13.8170   -7.5500   -9.1220 C   0  0  0  0  0  0  0  0  0  0  0  0
  -14.6110   -8.2990   -8.2640 C   0  0  0  0  0  0  0  0  0  0  0  0
  -14.2440   -9.5970   -7.9740 C   0  0  0  0  0  0  0  0  0  0  0  0
  -15.0140  -10.3870   -7.1220 C   0  0  0  0  0  0  0  0  0  0  0  0
  -16.2590   -9.8060   -6.5270 C   0  0  0  0  0  0  0  0  0  0  0  0
  -16.5880   -8.4990   -6.8470 C   0  0  0  0  0  0  0  0  0  0  0  0
  -15.7750   -7.7510   -7.7020 C   0  0  0  0  0  0  0  0  0  0  0  0
  -10.3590   -7.6860   -9.0250 N   0  0  0  0  0  0  0  0  0  0  0  0
  -10.4390   -8.3490   -7.7380 C   0  0  0  0  0  0  0  0  0  0  0  0
  -10.7620   -9.7200   -7.8160 C   0  0  0  0  0  0  0  0  0  0  0  0
  -11.9890  -10.1550   -7.3170 C   0  0  0  0  0  0  0  0  0  0  0  0
  -12.3630  -11.5040   -7.3680 C   0  0  0  0  0  0  0  0  0  0  0  0
  -11.4240  -12.5190   -7.9720 C   0  0  0  0  0  0  0  0  0  0  0  0
  -11.7540  -13.8490   -8.0460 O   0  0  0  0  0  0  0  0  0  0  0  0
  -10.1100  -12.0030   -8.4890 C   0  0  0  0  0  0  0  0  0  0  0  0
   -9.8570  -10.6290   -8.3820 C   0  0  0  0  0  0  0  0  0  0  0  0
  -13.3430  -10.0140   -8.4140 H   0  0  0  0  0  0  0  0  0  0  0  0
  -14.7220  -11.4080   -6.8950 H   0  0  0  0  0  0  0  0  0  0  0  0
  -16.8860  -10.3930   -5.8620 H   0  0  0  0  0  0  0  0  0  0  0  0
  -17.4850   -8.0530   -6.4310 H   0  0  0  0  0  0  0  0  0  0  0  0
  -16.0610   -6.7270   -7.9320 H   0  0  0  0  0  0  0  0  0  0  0  0
   -9.4470   -7.5670   -9.4640 H   0  0  0  0  0  0  0  0  0  0  0  0
  -11.1810   -7.8270   -7.1240 H   0  0  0  0  0  0  0  0  0  0  0  0
   -9.4680   -8.2220   -7.2470 H   0  0  0  0  0  0  0  0  0  0  0  0
  -12.6730   -9.4350   -6.8780 H   0  0  0  0  0  0  0  0  0  0  0  0
  -13.3270  -11.8020   -6.9720 H   0  0  0  0  0  0  0  0  0  0  0  0
  -11.0230  -14.4320   -7.7400 H   0  0  0  0  0  0  0  0  0  0  0  0
   -9.3850  -12.6760   -8.9360 H   0  0  0  0  0  0  0  0  0  0  0  0
   -8.9330  -10.2640   -8.7560 H   0  0  0  0  0  0  0  0  0  0  0  0
  1  2  2  0
  2  3  1  0
  3  4  3  0
  4  5  1  0
  5  6  2  0
  6  7  1  0
  7  8  2  0
  8  9  1  0
  9 10  2  0
  2 11  1  0
 11 12  1  0
 12 13  1  0
 13 14  2  0
 14 15  1  0
 15 16  2  0
 16 17  1  0
 16 18  1  0
 18 19  2  0
 10  5  1  0
 19 13  1  0
  6 20  1  0
  7 21  1  0
  8 22  1  0
  9 23  1  0
 10 24  1  0
 11 25  1  0
 12 26  1  0
 12 27  1  0
 14 28  1  0
 15 29  1  0
 17 30  1  0
 18 31  1  0
 19 32  1  0
A    1
 O1 
A    2
 C1 
A    3
 C2 
A    4
 C3 
A    5
 C4 
A    6
 C5 
A    7
 C6 
A    8
 C7 
A    9
 C8 
A   10
 C9 
A   11
 N1 
A   12
 C10
A   13
 C11
A   14
 C12
A   15
 C13
A   16
 C14
A   17
 O2 
A   18
 C15
A   19
 C16
A   20
 H1 
A   21
 H2 
A   22
 H3 
A   23
 H4 
A   24
 H5 
A   25
 H6 
A   26
 H7 
A   27
 H8 
A   28
 H9 
A   29
 H10
A   30
 H11
A   31
 H12
A   32
 H13
M  END
>  <ref_pdb>  (108) 
x0051_0B

>  <ref_mols>  (108) 
x0051_0B

>  <original SMILES>  (108) 
[H]Oc1c([H])c([H])c(C([H])([H])N([H])C(=O)C#Cc2c([H])c([H])c([H])c([H])c2[H])c([H])c1[H]

>  <index>  (108) 
1483.0

>  <∆∆G>  (108) 
-4.544174

>  <comRMSD>  (108) 
0.581843

>  <N_constrained_atoms>  (108) 
18.0

>  <N_unconstrained_atoms>  (108) 
1.0

>  <LE>  (108) 
0.239167

>  <percent_hybrid>  (108) 
45.0

>  <largest_ring>  (108) 
6.0

>  <N_HA>  (108) 
19.0

>  <N_rotatable_bonds>  (108) 
3.0

>  <max_hit_Tanimoto>  (108) 
0.32899

>  <N_interactions_kept>  (108) 
0.0

>  <N_interactions_lost>  (108) 
1.0

>  <interaction_uniqueness_metric>  (108) 
0.099802

>  <N_interactions>  (108) 
4.0

>  <N_PAINS>  (108) 
0.0

>  <UFF_Gibbs>  (108) 
637.045863

>  <strain_per_HA>  (108) 
33.528553

>  <ad_hoc_penalty>  (108) 
-20.057561

>  <cluster>  (108) 
126.0

>  <intxn_cluster>  (108) 
15.0

>  <keep>  (108) 
1.0

>  <hydroph_interaction:GLN:74>  (108) 
0.0

>  <hydroph_interaction:THR:118>  (108) 
1.0

>  <hydroph_interaction:ILE:123>  (108) 
1.0

>  <hydroph_interaction:THR:166>  (108) 
0.0

>  <hbond:GLN:167>  (108) 
0.0

>  <hydroph_interaction:ALA:88>  (108) 
0.0

>  <hydroph_interaction:ASP:120>  (108) 
1.0

>  <hydroph_interaction:GLN:167>  (108) 
0.0

>  <hbond:THR:118>  (108) 
0.0

>  <hydroph_interaction:ALA:164>  (108) 
0.0

>  <hbond:ASP:120>  (108) 
1.0

>  <hbond:THR:166>  (108) 
0.0

>  <hydroph_interaction:LEU:76>  (108) 
0.0

>  <hbond:ILE:165>  (108) 
0.0

>  <halogenbond:GLN:74>  (108) 
0.0

>  <hbond:GLN:74>  (108) 
0.0

>  <hbond:LYS:73>  (108) 
0.0

>  <pistack:TRP:69>  (108) 
0.0

>  <hbond:TRP:83>  (108) 
0.0

>  <hydroph_interaction:TRP:83>  (108) 
0.0

>  <hydroph_interaction:TRP:69>  (108) 
0.0

>  <pication:TRP:69>  (108) 
0.0

>  <hydroph_interaction:PRO:82>  (108) 
0.0

>  <halogenbond:LYS:73>  (108) 
0.0

>  <hydroph_interaction:TYR:68>  (108) 
0.0

>  <halogenbond:GLN:167>  (108) 
0.0

>  <hydroph_interaction:PHE:116>  (108) 
0.0

>  <hbond:TYR:68>  (108) 
0.0

>  <hbond:ASP:122>  (108) 
0.0

>  <pistack:PHE:116>  (108) 
0.0

>  <hydroph_interaction:VAL:154>  (108) 
0.0

>  <hydroph_interaction:ASP:75>  (108) 
0.0

>  <hbond:GLY:121>  (108) 
0.0

>  <hydroph_interaction:ASN:152>  (108) 
0.0

>  <halogenbond:ILE:165>  (108) 
0.0

$$$$
Z2706382398-Z198195906S6-Z1318054286
     RDKit          3D

 37 38  0  0  0  0  0  0  0  0999 V2000
  -11.4370   -3.1560   -9.7770 C   0  0  0  0  0  0  0  0  0  0  0  0
  -10.6060   -3.6420   -8.6160 C   0  0  0  0  0  0  0  0  0  0  0  0
  -10.2910   -2.6020   -7.5780 C   0  0  0  0  0  0  0  0  0  0  0  0
   -9.4660   -2.9960   -6.3900 C   0  0  0  0  0  0  0  0  0  0  0  0
   -9.0330   -4.3380   -6.3200 C   0  0  0  0  0  0  0  0  0  0  0  0
   -9.3530   -5.2790   -7.3120 C   0  0  0  0  0  0  0  0  0  0  0  0
  -10.1200   -4.9460   -8.4360 C   0  0  0  0  0  0  0  0  0  0  0  0
  -10.4230   -5.9180   -9.4170 N   0  0  0  0  0  0  0  0  0  0  0  0
  -11.6420   -6.5070   -9.7060 C   0  0  0  0  0  0  0  0  0  0  0  0
  -12.2710   -6.3870  -10.7410 O   0  0  0  0  0  0  0  0  0  0  0  0
  -12.1170   -7.3080   -8.6520 N   0  0  0  0  0  0  0  0  0  0  0  0
  -13.4790   -7.2240   -8.2450 C   0  0  0  0  0  0  0  0  0  0  0  0
  -14.1900   -8.6060   -8.0790 C   0  0  0  0  0  0  0  0  0  0  0  0
  -15.6840   -8.5120   -8.3680 C   0  0  0  0  0  0  0  0  0  0  0  0
  -16.4430   -9.6580   -7.9710 O   0  0  0  0  0  0  0  0  0  0  0  0
  -16.3380   -9.8850   -6.5730 C   0  0  0  0  0  0  0  0  0  0  0  0
  -14.8810  -10.0940   -6.1350 C   0  0  0  0  0  0  0  0  0  0  0  0
  -13.9270   -9.1070   -6.6850 N   0  0  0  0  0  0  0  0  0  0  0  0
  -10.8310   -2.8150  -10.6230 H   0  0  0  0  0  0  0  0  0  0  0  0
  -12.0610   -3.9680  -10.1570 H   0  0  0  0  0  0  0  0  0  0  0  0
  -12.0920   -2.3340   -9.4640 H   0  0  0  0  0  0  0  0  0  0  0  0
  -10.6500   -1.5700   -7.6710 H   0  0  0  0  0  0  0  0  0  0  0  0
   -9.2110   -2.2790   -5.6130 H   0  0  0  0  0  0  0  0  0  0  0  0
   -8.4360   -4.6610   -5.4730 H   0  0  0  0  0  0  0  0  0  0  0  0
   -8.9930   -6.2970   -7.2050 H   0  0  0  0  0  0  0  0  0  0  0  0
   -9.6970   -6.1340  -10.0790 H   0  0  0  0  0  0  0  0  0  0  0  0
  -11.4470   -7.4090   -7.9020 H   0  0  0  0  0  0  0  0  0  0  0  0
  -13.5140   -6.7630   -7.2520 H   0  0  0  0  0  0  0  0  0  0  0  0
  -13.9760   -6.5110   -8.9150 H   0  0  0  0  0  0  0  0  0  0  0  0
  -13.6120   -9.3030   -8.6980 H   0  0  0  0  0  0  0  0  0  0  0  0
  -16.1140   -7.6330   -7.8710 H   0  0  0  0  0  0  0  0  0  0  0  0
  -15.8340   -8.3980   -9.4500 H   0  0  0  0  0  0  0  0  0  0  0  0
  -16.7840   -9.0290   -6.0540 H   0  0  0  0  0  0  0  0  0  0  0  0
  -16.9300  -10.7770   -6.3220 H   0  0  0  0  0  0  0  0  0  0  0  0
  -14.8240  -10.0440   -5.0400 H   0  0  0  0  0  0  0  0  0  0  0  0
  -14.5580  -11.1050   -6.4160 H   0  0  0  0  0  0  0  0  0  0  0  0
  -12.9740   -9.4640   -6.6520 H   0  0  0  0  0  0  0  0  0  0  0  0
  1  2  1  0
  2  3  2  0
  3  4  1  0
  4  5  2  0
  5  6  1  0
  6  7  2  0
  7  8  1  0
  8  9  1  0
  9 10  2  0
  9 11  1  0
 11 12  1  0
 12 13  1  0
 13 14  1  0
 14 15  1  0
 15 16  1  0
 16 17  1  0
 17 18  1  0
  7  2  1  0
 18 13  1  0
  1 19  1  0
  1 20  1  0
  1 21  1  0
  3 22  1  0
  4 23  1  0
  5 24  1  0
  6 25  1  0
  8 26  1  0
 11 27  1  0
 12 28  1  0
 12 29  1  0
 13 30  1  0
 14 31  1  0
 14 32  1  0
 16 33  1  0
 16 34  1  0
 17 35  1  0
 17 36  1  0
 18 37  1  0
A    1
 C1 
A    2
 C2 
A    3
 C3 
A    4
 C4 
A    5
 C5 
A    6
 C6 
A    7
 C7 
A    8
 N1 
A    9
 C8 
A   10
 O1 
A   11
 N2 
A   12
 C9 
A   13
 C10
A   14
 C11
A   15
 O2 
A   16
 C12
A   17
 C13
A   18
 N3 
A   19
 H1 
A   20
 H2 
A   21
 H3 
A   22
 H4 
A   23
 H5 
A   24
 H6 
A   25
 H7 
A   26
 H8 
A   27
 H9 
A   28
 H10
A   29
 H11
A   30
 H12
A   31
 H13
A   32
 H14
A   33
 H15
A   34
 H16
A   35
 H17
A   36
 H18
A   37
 H19
M  END
>  <ref_pdb>  (109) 
x0051_0B

>  <ref_mols>  (109) 
x0051_0B

>  <original SMILES>  (109) 
[H]c1c([H])c([H])c(C([H])([H])[H])c(N([H])C(=O)N([H])C([H])([H])C2([H])N([H])C([H])([H])C([H])([H])OC2([H])[H])c1[H]

>  <index>  (109) 
2946.0

>  <∆∆G>  (109) 
-4.127927

>  <comRMSD>  (109) 
0.563328

>  <N_constrained_atoms>  (109) 
12.0

>  <N_unconstrained_atoms>  (109) 
7.0

>  <LE>  (109) 
0.217259

>  <percent_hybrid>  (109) 
28.0

>  <largest_ring>  (109) 
6.0

>  <N_HA>  (109) 
18.0

>  <N_rotatable_bonds>  (109) 
4.0

>  <max_hit_Tanimoto>  (109) 
0.23053

>  <N_interactions_kept>  (109) 
1.0

>  <N_interactions_lost>  (109) 
0.0

>  <interaction_uniqueness_metric>  (109) 
0.525102

>  <N_interactions>  (109) 
2.0

>  <N_PAINS>  (109) 
0.0

>  <UFF_Gibbs>  (109) 
58.301314

>  <strain_per_HA>  (109) 
3.238944

>  <ad_hoc_penalty>  (109) 
-20.016354

>  <cluster>  (109) 
4960.0

>  <intxn_cluster>  (109) 
5.0

>  <keep>  (109) 
1.0

>  <hydroph_interaction:GLN:74>  (109) 
0.0

>  <hydroph_interaction:THR:118>  (109) 
0.0

>  <hydroph_interaction:ILE:123>  (109) 
0.0

>  <hydroph_interaction:THR:166>  (109) 
1.0

>  <hbond:GLN:167>  (109) 
0.0

>  <hydroph_interaction:ALA:88>  (109) 
0.0

>  <hydroph_interaction:ASP:120>  (109) 
0.0

>  <hydroph_interaction:GLN:167>  (109) 
0.0

>  <hbond:THR:118>  (109) 
0.0

>  <hydroph_interaction:ALA:164>  (109) 
0.0

>  <hbond:ASP:120>  (109) 
0.0

>  <hbond:THR:166>  (109) 
0.0

>  <hydroph_interaction:LEU:76>  (109) 
0.0

>  <hbond:ILE:165>  (109) 
0.0

>  <halogenbond:GLN:74>  (109) 
0.0

>  <hbond:GLN:74>  (109) 
0.0

>  <hbond:LYS:73>  (109) 
0.0

>  <pistack:TRP:69>  (109) 
0.0

>  <hbond:TRP:83>  (109) 
0.0

>  <hydroph_interaction:TRP:83>  (109) 
0.0

>  <hydroph_interaction:TRP:69>  (109) 
0.0

>  <pication:TRP:69>  (109) 
0.0

>  <hydroph_interaction:PRO:82>  (109) 
0.0

>  <halogenbond:LYS:73>  (109) 
0.0

>  <hydroph_interaction:TYR:68>  (109) 
0.0

>  <halogenbond:GLN:167>  (109) 
0.0

>  <hydroph_interaction:PHE:116>  (109) 
0.0

>  <hbond:TYR:68>  (109) 
0.0

>  <hbond:ASP:122>  (109) 
0.0

>  <pistack:PHE:116>  (109) 
0.0

>  <hydroph_interaction:VAL:154>  (109) 
0.0

>  <hydroph_interaction:ASP:75>  (109) 
0.0

>  <hbond:GLY:121>  (109) 
0.0

>  <hydroph_interaction:ASN:152>  (109) 
1.0

>  <halogenbond:ILE:165>  (109) 
0.0

$$$$
Z2518878627-Z198195906S9-x0884S2
     RDKit          3D

 37 38  0  0  0  0  0  0  0  0999 V2000
   -8.2480   -3.6540  -10.7300 C   0  0  0  0  0  0  0  0  0  0  0  0
   -9.6000   -4.0640  -10.1690 C   0  0  0  0  0  0  0  0  0  0  0  0
   -9.6300   -5.5030  -10.0250 N   0  0  0  0  0  0  0  0  0  0  0  0
  -10.5830   -6.2040   -9.3640 C   0  0  0  0  0  0  0  0  0  0  0  0
  -11.8040   -5.6790   -9.6510 N   0  0  0  0  0  0  0  0  0  0  0  0
  -10.2710   -7.2000   -8.6260 N   0  0  0  0  0  0  0  0  0  0  0  0
  -11.3160   -7.9490   -7.9340 C   0  0  0  0  0  0  0  0  0  0  0  0
  -11.3120   -9.4470   -8.2110 C   0  0  0  0  0  0  0  0  0  0  0  0
  -10.1190  -10.0820   -8.6120 C   0  0  0  0  0  0  0  0  0  0  0  0
  -10.0640  -11.4500   -8.8760 C   0  0  0  0  0  0  0  0  0  0  0  0
  -11.2060  -12.2190   -8.7400 C   0  0  0  0  0  0  0  0  0  0  0  0
  -12.4060  -11.6180   -8.3470 C   0  0  0  0  0  0  0  0  0  0  0  0
  -12.5000  -10.2320   -8.0790 C   0  0  0  0  0  0  0  0  0  0  0  0
  -13.8440   -9.7040   -7.6890 C   0  0  0  0  0  0  0  0  0  0  0  0
  -14.3030   -8.4490   -8.1300 C   0  0  0  0  0  0  0  0  0  0  0  0
  -15.5690   -8.0190   -7.7470 C   0  0  0  0  0  0  0  0  0  0  0  0
  -16.4030   -8.7390   -6.9690 N   0  0  0  0  0  0  0  0  0  0  0  0
  -15.9540   -9.9360   -6.5470 C   0  0  0  0  0  0  0  0  0  0  0  0
  -14.7060  -10.4540   -6.8720 C   0  0  0  0  0  0  0  0  0  0  0  0
   -7.6930   -3.0270  -10.0250 H   0  0  0  0  0  0  0  0  0  0  0  0
   -8.3630   -3.0930  -11.6570 H   0  0  0  0  0  0  0  0  0  0  0  0
   -7.6440   -4.5410  -10.9420 H   0  0  0  0  0  0  0  0  0  0  0  0
  -10.3890   -3.7560  -10.8660 H   0  0  0  0  0  0  0  0  0  0  0  0
   -9.7970   -3.5620   -9.2150 H   0  0  0  0  0  0  0  0  0  0  0  0
   -8.7050   -5.9020   -9.9200 H   0  0  0  0  0  0  0  0  0  0  0  0
  -12.5560   -6.2580   -9.3030 H   0  0  0  0  0  0  0  0  0  0  0  0
  -11.9320   -4.7220   -9.3390 H   0  0  0  0  0  0  0  0  0  0  0  0
  -11.1830   -7.8130   -6.8530 H   0  0  0  0  0  0  0  0  0  0  0  0
  -12.2950   -7.5580   -8.2320 H   0  0  0  0  0  0  0  0  0  0  0  0
   -9.2120   -9.4920   -8.7220 H   0  0  0  0  0  0  0  0  0  0  0  0
   -9.1280  -11.9080   -9.1850 H   0  0  0  0  0  0  0  0  0  0  0  0
  -11.1680  -13.2870   -8.9420 H   0  0  0  0  0  0  0  0  0  0  0  0
  -13.2920  -12.2460   -8.2540 H   0  0  0  0  0  0  0  0  0  0  0  0
  -13.6870   -7.8200   -8.7620 H   0  0  0  0  0  0  0  0  0  0  0  0
  -15.9540   -7.0550   -8.0700 H   0  0  0  0  0  0  0  0  0  0  0  0
  -16.6460  -10.4920   -5.9200 H   0  0  0  0  0  0  0  0  0  0  0  0
  -14.4120  -11.4300   -6.4970 H   0  0  0  0  0  0  0  0  0  0  0  0
  1  2  1  0
  2  3  1  0
  3  4  1  0
  4  5  1  0
  4  6  2  3
  6  7  1  0
  7  8  1  0
  8  9  2  0
  9 10  1  0
 10 11  2  0
 11 12  1  0
 12 13  2  0
 13 14  1  0
 14 15  2  0
 15 16  1  0
 16 17  2  0
 17 18  1  0
 18 19  2  0
 13  8  1  0
 19 14  1  0
  1 20  1  0
  1 21  1  0
  1 22  1  0
  2 23  1  0
  2 24  1  0
  3 25  1  0
  5 26  1  0
  5 27  1  0
  7 28  1  0
  7 29  1  0
  9 30  1  0
 10 31  1  0
 11 32  1  0
 12 33  1  0
 15 34  1  0
 16 35  1  0
 18 36  1  0
 19 37  1  0
A    1
 C1 
A    2
 C2 
A    3
 N1 
A    4
 C3 
A    5
 N2 
A    6
 N3 
A    7
 C4 
A    8
 C5 
A    9
 C6 
A   10
 C7 
A   11
 C8 
A   12
 C9 
A   13
 C10
A   14
 C11
A   15
 C12
A   16
 C13
A   17
 N4 
A   18
 C14
A   19
 C15
A   20
 H1 
A   21
 H2 
A   22
 H3 
A   23
 H4 
A   24
 H5 
A   25
 H6 
A   26
 H7 
A   27
 H8 
A   28
 H9 
A   29
 H10
A   30
 H11
A   31
 H12
A   32
 H13
A   33
 H14
A   34
 H15
A   35
 H16
A   36
 H17
A   37
 H18
M  END
>  <ref_pdb>  (110) 
x0051_0B

>  <ref_mols>  (110) 
x0051_0B

>  <original SMILES>  (110) 
[H]c1nc([H])c([H])c(-c2c([H])c([H])c([H])c([H])c2C([H])([H])N=C(N([H])[H])N([H])C([H])([H])C([H])([H])[H])c1[H]

>  <index>  (110) 
6028.0

>  <∆∆G>  (110) 
-4.844052

>  <comRMSD>  (110) 
0.711448

>  <N_constrained_atoms>  (110) 
19.0

>  <N_unconstrained_atoms>  (110) 
2.0

>  <LE>  (110) 
0.230669

>  <percent_hybrid>  (110) 
45.0

>  <largest_ring>  (110) 
6.0

>  <N_HA>  (110) 
19.0

>  <N_rotatable_bonds>  (110) 
5.0

>  <max_hit_Tanimoto>  (110) 
0.171111

>  <N_interactions_kept>  (110) 
0.5

>  <N_interactions_lost>  (110) 
0.5

>  <interaction_uniqueness_metric>  (110) 
0.123211

>  <N_interactions>  (110) 
4.0

>  <N_PAINS>  (110) 
0.0

>  <UFF_Gibbs>  (110) 
186.8818

>  <strain_per_HA>  (110) 
9.835832

>  <ad_hoc_penalty>  (110) 
-19.967488

>  <cluster>  (110) 
172.0

>  <intxn_cluster>  (110) 
7.0

>  <keep>  (110) 
1.0

>  <hydroph_interaction:GLN:74>  (110) 
0.0

>  <hydroph_interaction:THR:118>  (110) 
0.0

>  <hydroph_interaction:ILE:123>  (110) 
2.0

>  <hydroph_interaction:THR:166>  (110) 
0.0

>  <hbond:GLN:167>  (110) 
0.0

>  <hydroph_interaction:ALA:88>  (110) 
0.0

>  <hydroph_interaction:ASP:120>  (110) 
0.0

>  <hydroph_interaction:GLN:167>  (110) 
0.0

>  <hbond:THR:118>  (110) 
0.0

>  <hydroph_interaction:ALA:164>  (110) 
1.0

>  <hbond:ASP:120>  (110) 
0.0

>  <hbond:THR:166>  (110) 
1.0

>  <hydroph_interaction:LEU:76>  (110) 
0.0

>  <hbond:ILE:165>  (110) 
0.0

>  <halogenbond:GLN:74>  (110) 
0.0

>  <hbond:GLN:74>  (110) 
0.0

>  <hbond:LYS:73>  (110) 
0.0

>  <pistack:TRP:69>  (110) 
0.0

>  <hbond:TRP:83>  (110) 
0.0

>  <hydroph_interaction:TRP:83>  (110) 
0.0

>  <hydroph_interaction:TRP:69>  (110) 
0.0

>  <pication:TRP:69>  (110) 
0.0

>  <hydroph_interaction:PRO:82>  (110) 
0.0

>  <halogenbond:LYS:73>  (110) 
0.0

>  <hydroph_interaction:TYR:68>  (110) 
0.0

>  <halogenbond:GLN:167>  (110) 
0.0

>  <hydroph_interaction:PHE:116>  (110) 
0.0

>  <hbond:TYR:68>  (110) 
0.0

>  <hbond:ASP:122>  (110) 
0.0

>  <pistack:PHE:116>  (110) 
0.0

>  <hydroph_interaction:VAL:154>  (110) 
0.0

>  <hydroph_interaction:ASP:75>  (110) 
0.0

>  <hbond:GLY:121>  (110) 
0.0

>  <hydroph_interaction:ASN:152>  (110) 
0.0

>  <halogenbond:ILE:165>  (110) 
0.0

$$$$
Z4863061715-Z198195906S6-x0806
     RDKit          3D

 35 36  0  0  0  0  0  0  0  0999 V2000
  -16.8770  -12.2280  -12.9140 C   0  0  0  0  0  0  0  0  0  0  0  0
  -16.3660  -12.0610  -11.5080 C   0  0  0  0  0  0  0  0  0  0  0  0
  -15.4570  -13.0310  -11.0280 C   0  0  0  0  0  0  0  0  0  0  0  0
  -15.7480  -10.7050  -11.3500 C   0  0  0  0  0  0  0  0  0  0  0  0
  -15.6210   -9.8500  -12.3800 N   0  0  0  0  0  0  0  0  0  0  0  0
  -15.0120   -8.7220  -11.8550 O   0  0  0  0  0  0  0  0  0  0  0  0
  -14.7710   -8.9100  -10.5260 C   0  0  0  0  0  0  0  0  0  0  0  0
  -14.1400   -7.8980   -9.8030 C   0  0  0  0  0  0  0  0  0  0  0  0
  -14.8490   -7.2300   -8.6940 C   0  0  0  0  0  0  0  0  0  0  0  0
  -14.1330   -6.1690   -7.9350 C   0  0  0  0  0  0  0  0  0  0  0  0
  -12.7510   -5.8040   -8.2810 C   0  0  0  0  0  0  0  0  0  0  0  0
  -12.1350   -6.4830   -9.3400 C   0  0  0  0  0  0  0  0  0  0  0  0
  -10.8160   -6.1230   -9.6150 C   0  0  0  0  0  0  0  0  0  0  0  0
  -10.6570   -5.1300  -10.5770 C   0  0  0  0  0  0  0  0  0  0  0  0
  -10.0570   -7.2340   -9.7510 N   0  0  0  0  0  0  0  0  0  0  0  0
  -12.8260   -7.4900  -10.0720 C   0  0  0  0  0  0  0  0  0  0  0  0
  -15.2290  -10.1490  -10.1690 C   0  0  0  0  0  0  0  0  0  0  0  0
  -16.5570  -13.1700  -13.3690 H   0  0  0  0  0  0  0  0  0  0  0  0
  -16.4860  -11.4490  -13.5770 H   0  0  0  0  0  0  0  0  0  0  0  0
  -17.9720  -12.1870  -12.9220 H   0  0  0  0  0  0  0  0  0  0  0  0
  -17.2450  -12.0640  -10.8500 H   0  0  0  0  0  0  0  0  0  0  0  0
  -14.5270  -13.0490  -11.6090 H   0  0  0  0  0  0  0  0  0  0  0  0
  -15.1970  -12.8060   -9.9850 H   0  0  0  0  0  0  0  0  0  0  0  0
  -15.9000  -14.0310  -11.0620 H   0  0  0  0  0  0  0  0  0  0  0  0
  -15.8720   -7.5660   -8.4970 H   0  0  0  0  0  0  0  0  0  0  0  0
  -14.7400   -5.7370   -7.1400 H   0  0  0  0  0  0  0  0  0  0  0  0
  -12.2330   -5.0300   -7.7170 H   0  0  0  0  0  0  0  0  0  0  0  0
  -10.4800   -5.6610   -8.6800 H   0  0  0  0  0  0  0  0  0  0  0  0
  -10.7980   -4.1190  -10.1720 H   0  0  0  0  0  0  0  0  0  0  0  0
  -11.3870   -5.2620  -11.3850 H   0  0  0  0  0  0  0  0  0  0  0  0
   -9.6560   -5.1780  -11.0150 H   0  0  0  0  0  0  0  0  0  0  0  0
   -9.4730   -7.3360   -8.9210 H   0  0  0  0  0  0  0  0  0  0  0  0
  -10.6720   -8.0470   -9.7560 H   0  0  0  0  0  0  0  0  0  0  0  0
  -12.3120   -7.9810  -10.8750 H   0  0  0  0  0  0  0  0  0  0  0  0
  -15.1920  -10.6030   -9.1910 H   0  0  0  0  0  0  0  0  0  0  0  0
  1  2  1  0
  2  3  1  0
  2  4  1  0
  4  5  2  0
  5  6  1  0
  6  7  1  0
  7  8  1  0
  8  9  2  0
  9 10  1  0
 10 11  2  0
 11 12  1  0
 12 13  1  0
 13 14  1  0
 13 15  1  0
 12 16  2  0
  7 17  2  0
 17  4  1  0
 16  8  1  0
  1 18  1  0
  1 19  1  0
  1 20  1  0
  2 21  1  0
  3 22  1  0
  3 23  1  0
  3 24  1  0
  9 25  1  0
 10 26  1  0
 11 27  1  0
 13 28  1  0
 14 29  1  0
 14 30  1  0
 14 31  1  0
 15 32  1  0
 15 33  1  0
 16 34  1  0
 17 35  1  0
A    1
 C1 
A    2
 C2 
A    3
 C3 
A    4
 C4 
A    5
 N1 
A    6
 O1 
A    7
 C5 
A    8
 C6 
A    9
 C7 
A   10
 C8 
A   11
 C9 
A   12
 C10
A   13
 C11
A   14
 C12
A   15
 N2 
A   16
 C13
A   17
 C14
A   18
 H1 
A   19
 H2 
A   20
 H3 
A   21
 H4 
A   22
 H5 
A   23
 H6 
A   24
 H7 
A   25
 H8 
A   26
 H9 
A   27
 H10
A   28
 H11
A   29
 H12
A   30
 H13
A   31
 H14
A   32
 H15
A   33
 H16
A   34
 H17
A   35
 H18
M  END
>  <ref_pdb>  (111) 
x0051_0B

>  <ref_mols>  (111) 
x0051_0B

>  <original SMILES>  (111) 
[H]c1c(C([H])(C([H])([H])[H])C([H])([H])[H])noc1-c1c([H])c([H])c([H])c(C([H])(N([H])[H])C([H])([H])[H])c1[H]

>  <index>  (111) 
178.0

>  <∆∆G>  (111) 
-6.243794

>  <comRMSD>  (111) 
0.646493

>  <N_constrained_atoms>  (111) 
18.0

>  <N_unconstrained_atoms>  (111) 
0.0

>  <LE>  (111) 
0.346877

>  <percent_hybrid>  (111) 
24.0

>  <largest_ring>  (111) 
6.0

>  <N_HA>  (111) 
17.0

>  <N_rotatable_bonds>  (111) 
7.0

>  <max_hit_Tanimoto>  (111) 
0.169048

>  <N_interactions_kept>  (111) 
0.0

>  <N_interactions_lost>  (111) 
2.0

>  <interaction_uniqueness_metric>  (111) 
0.172311

>  <N_interactions>  (111) 
7.0

>  <N_PAINS>  (111) 
0.0

>  <UFF_Gibbs>  (111) 
104.975851

>  <strain_per_HA>  (111) 
6.175014

>  <ad_hoc_penalty>  (111) 
-19.946658

>  <cluster>  (111) 
807.0

>  <intxn_cluster>  (111) 
14.0

>  <keep>  (111) 
1.0

>  <hydroph_interaction:GLN:74>  (111) 
1.0

>  <hydroph_interaction:THR:118>  (111) 
0.0

>  <hydroph_interaction:ILE:123>  (111) 
2.0

>  <hydroph_interaction:THR:166>  (111) 
1.0

>  <hbond:GLN:167>  (111) 
1.0

>  <hydroph_interaction:ALA:88>  (111) 
1.0

>  <hydroph_interaction:ASP:120>  (111) 
0.0

>  <hydroph_interaction:GLN:167>  (111) 
0.0

>  <hbond:THR:118>  (111) 
0.0

>  <hydroph_interaction:ALA:164>  (111) 
1.0

>  <hbond:ASP:120>  (111) 
0.0

>  <hbond:THR:166>  (111) 
0.0

>  <hydroph_interaction:LEU:76>  (111) 
0.0

>  <hbond:ILE:165>  (111) 
0.0

>  <halogenbond:GLN:74>  (111) 
0.0

>  <hbond:GLN:74>  (111) 
0.0

>  <hbond:LYS:73>  (111) 
0.0

>  <pistack:TRP:69>  (111) 
0.0

>  <hbond:TRP:83>  (111) 
0.0

>  <hydroph_interaction:TRP:83>  (111) 
0.0

>  <hydroph_interaction:TRP:69>  (111) 
0.0

>  <pication:TRP:69>  (111) 
0.0

>  <hydroph_interaction:PRO:82>  (111) 
0.0

>  <halogenbond:LYS:73>  (111) 
0.0

>  <hydroph_interaction:TYR:68>  (111) 
0.0

>  <halogenbond:GLN:167>  (111) 
0.0

>  <hydroph_interaction:PHE:116>  (111) 
0.0

>  <hbond:TYR:68>  (111) 
0.0

>  <hbond:ASP:122>  (111) 
0.0

>  <pistack:PHE:116>  (111) 
0.0

>  <hydroph_interaction:VAL:154>  (111) 
0.0

>  <hydroph_interaction:ASP:75>  (111) 
0.0

>  <hbond:GLY:121>  (111) 
0.0

>  <hydroph_interaction:ASN:152>  (111) 
0.0

>  <halogenbond:ILE:165>  (111) 
0.0

$$$$
PV-002765278765-x0214S3-Z1318054286S3
     RDKit          3D

 21 22  0  0  0  0  0  0  0  0999 V2000
  -13.3480  -10.6970   -6.9470 F   0  0  0  0  0  0  0  0  0  0  0  0
  -12.2370  -10.8680   -7.6800 C   0  0  0  0  0  0  0  0  0  0  0  0
  -11.9100  -12.2190   -8.2160 C   0  0  0  0  0  0  0  0  0  0  0  0
  -10.7680  -12.3300   -8.9420 N   0  0  0  0  0  0  0  0  0  0  0  0
   -9.8830  -11.2050   -9.2110 C   0  0  0  0  0  0  0  0  0  0  0  0
  -10.2280   -9.9470   -8.7000 C   0  0  0  0  0  0  0  0  0  0  0  0
   -9.2440   -8.5550   -8.9850 Cl  0  0  0  0  0  0  0  0  0  0  0  0
  -11.3830   -9.8200   -7.9500 C   0  0  0  0  0  0  0  0  0  0  0  0
  -11.6400   -8.5880   -7.4740 O   0  0  0  0  0  0  0  0  0  0  0  0
  -12.4780   -7.6840   -8.1640 C   0  0  0  0  0  0  0  0  0  0  0  0
  -12.3630   -6.2310   -7.8370 C   0  0  0  0  0  0  0  0  0  0  0  0
  -13.2070   -5.3970   -8.5390 C   0  0  0  0  0  0  0  0  0  0  0  0
  -14.2140   -5.9050   -9.5940 C   0  0  0  0  0  0  0  0  0  0  0  0
  -14.3270   -7.2110   -9.9130 N   0  0  0  0  0  0  0  0  0  0  0  0
  -13.4710   -8.1460   -9.2120 C   0  0  0  0  0  0  0  0  0  0  0  0
  -12.5210  -13.1000   -8.0560 H   0  0  0  0  0  0  0  0  0  0  0  0
   -8.9920  -11.3990   -9.8040 H   0  0  0  0  0  0  0  0  0  0  0  0
  -11.6710   -5.8360   -7.0970 H   0  0  0  0  0  0  0  0  0  0  0  0
  -13.1720   -4.3300   -8.3390 H   0  0  0  0  0  0  0  0  0  0  0  0
  -14.8670   -5.2420  -10.1100 H   0  0  0  0  0  0  0  0  0  0  0  0
  -13.5820   -9.1910   -9.4800 H   0  0  0  0  0  0  0  0  0  0  0  0
  1  2  1  0
  2  3  2  0
  3  4  1  0
  4  5  2  0
  5  6  1  0
  6  7  1  0
  6  8  2  0
  8  9  1  0
  9 10  1  0
 10 11  2  0
 11 12  1  0
 12 13  2  0
 13 14  1  0
 14 15  2  0
  8  2  1  0
 15 10  1  0
  3 16  1  0
  5 17  1  0
 11 18  1  0
 12 19  1  0
 13 20  1  0
 15 21  1  0
A    1
 F1 
A    2
 C1 
A    3
 C2 
A    4
 N1 
A    5
 C3 
A    6
 C4 
A    7
CL1 
A    8
 C5 
A    9
 O1 
A   10
 C6 
A   11
 C7 
A   12
 C8 
A   13
 C9 
A   14
 N2 
A   15
 C10
A   16
 H1 
A   17
 H2 
A   18
 H3 
A   19
 H4 
A   20
 H5 
A   21
 H6 
M  END
>  <ref_pdb>  (112) 
x0051_0B

>  <ref_mols>  (112) 
x0051_0B

>  <original SMILES>  (112) 
[H]c1nc([H])c(Oc2c(F)c([H])nc([H])c2Cl)c([H])c1[H]

>  <index>  (112) 
6147.0

>  <∆∆G>  (112) 
-2.785981

>  <comRMSD>  (112) 
0.938157

>  <N_constrained_atoms>  (112) 
13.0

>  <N_unconstrained_atoms>  (112) 
2.0

>  <LE>  (112) 
0.185732

>  <percent_hybrid>  (112) 
47.0

>  <largest_ring>  (112) 
6.0

>  <N_HA>  (112) 
15.0

>  <N_rotatable_bonds>  (112) 
2.0

>  <max_hit_Tanimoto>  (112) 
0.074341

>  <N_interactions_kept>  (112) 
1.0

>  <N_interactions_lost>  (112) 
0.0

>  <interaction_uniqueness_metric>  (112) 
0.045018

>  <N_interactions>  (112) 
3.0

>  <N_PAINS>  (112) 
0.0

>  <UFF_Gibbs>  (112) 
50.36362

>  <strain_per_HA>  (112) 
3.357552

>  <ad_hoc_penalty>  (112) 
-19.932651

>  <cluster>  (112) 
3564.0

>  <intxn_cluster>  (112) 
6.0

>  <keep>  (112) 
1.0

>  <hydroph_interaction:GLN:74>  (112) 
0.0

>  <hydroph_interaction:THR:118>  (112) 
0.0

>  <hydroph_interaction:ILE:123>  (112) 
0.0

>  <hydroph_interaction:THR:166>  (112) 
0.0

>  <hbond:GLN:167>  (112) 
2.0

>  <hydroph_interaction:ALA:88>  (112) 
0.0

>  <hydroph_interaction:ASP:120>  (112) 
0.0

>  <hydroph_interaction:GLN:167>  (112) 
0.0

>  <hbond:THR:118>  (112) 
1.0

>  <hydroph_interaction:ALA:164>  (112) 
0.0

>  <hbond:ASP:120>  (112) 
0.0

>  <hbond:THR:166>  (112) 
0.0

>  <hydroph_interaction:LEU:76>  (112) 
0.0

>  <hbond:ILE:165>  (112) 
0.0

>  <halogenbond:GLN:74>  (112) 
0.0

>  <hbond:GLN:74>  (112) 
0.0

>  <hbond:LYS:73>  (112) 
0.0

>  <pistack:TRP:69>  (112) 
0.0

>  <hbond:TRP:83>  (112) 
0.0

>  <hydroph_interaction:TRP:83>  (112) 
0.0

>  <hydroph_interaction:TRP:69>  (112) 
0.0

>  <pication:TRP:69>  (112) 
0.0

>  <hydroph_interaction:PRO:82>  (112) 
0.0

>  <halogenbond:LYS:73>  (112) 
0.0

>  <hydroph_interaction:TYR:68>  (112) 
0.0

>  <halogenbond:GLN:167>  (112) 
0.0

>  <hydroph_interaction:PHE:116>  (112) 
0.0

>  <hbond:TYR:68>  (112) 
0.0

>  <hbond:ASP:122>  (112) 
0.0

>  <pistack:PHE:116>  (112) 
0.0

>  <hydroph_interaction:VAL:154>  (112) 
0.0

>  <hydroph_interaction:ASP:75>  (112) 
0.0

>  <hbond:GLY:121>  (112) 
0.0

>  <hydroph_interaction:ASN:152>  (112) 
0.0

>  <halogenbond:ILE:165>  (112) 
0.0

$$$$
Z1617013803-Z198195906S3-Z198195906S9
     RDKit          3D

 37 38  0  0  0  0  0  0  0  0999 V2000
  -10.0660   -5.4030  -10.1480 C   0  0  0  0  0  0  0  0  0  0  0  0
  -10.9510   -6.5690   -9.7580 C   0  0  0  0  0  0  0  0  0  0  0  0
  -12.2540   -6.5050  -10.3260 O   0  0  0  0  0  0  0  0  0  0  0  0
  -10.4200   -7.5390   -8.9300 N   0  0  0  0  0  0  0  0  0  0  0  0
  -11.1070   -8.0170   -7.7380 C   0  0  0  0  0  0  0  0  0  0  0  0
  -11.3350   -9.5510   -7.7150 C   0  0  0  0  0  0  0  0  0  0  0  0
  -10.0530  -10.3220   -8.0510 C   0  0  0  0  0  0  0  0  0  0  0  0
  -10.1210  -11.8470   -8.0960 C   0  0  0  0  0  0  0  0  0  0  0  0
  -11.4330  -12.4700   -7.7870 C   0  0  0  0  0  0  0  0  0  0  0  0
  -12.6460  -11.6000   -7.4490 C   0  0  0  0  0  0  0  0  0  0  0  0
  -12.5840  -10.2070   -7.4210 C   0  0  0  0  0  0  0  0  0  0  0  0
  -13.7670   -9.4540   -7.1060 N   0  0  0  0  0  0  0  0  0  0  0  0
  -14.1500   -8.2900   -7.9140 C   0  0  0  0  0  0  0  0  0  0  0  0
  -15.5910   -8.3580   -8.3070 C   0  0  0  0  0  0  0  0  0  0  0  0
  -16.3130   -9.6300   -7.8850 C   0  0  0  0  0  0  0  0  0  0  0  0
  -16.1580   -9.8390   -6.3920 C   0  0  0  0  0  0  0  0  0  0  0  0
  -14.6680   -9.9370   -6.0160 C   0  0  0  0  0  0  0  0  0  0  0  0
   -9.6050   -4.9420   -9.2700 H   0  0  0  0  0  0  0  0  0  0  0  0
  -10.6440   -4.6400  -10.6770 H   0  0  0  0  0  0  0  0  0  0  0  0
   -9.2510   -5.7400  -10.7960 H   0  0  0  0  0  0  0  0  0  0  0  0
   -9.7840   -8.2220   -9.3340 H   0  0  0  0  0  0  0  0  0  0  0  0
  -10.5340   -7.7180   -6.8550 H   0  0  0  0  0  0  0  0  0  0  0  0
  -12.0740   -7.5050   -7.6870 H   0  0  0  0  0  0  0  0  0  0  0  0
   -9.1330   -9.7910   -8.2580 H   0  0  0  0  0  0  0  0  0  0  0  0
   -9.2660  -12.4580   -8.3370 H   0  0  0  0  0  0  0  0  0  0  0  0
  -11.5190  -13.5560   -7.8050 H   0  0  0  0  0  0  0  0  0  0  0  0
  -13.5770  -12.1100   -7.2300 H   0  0  0  0  0  0  0  0  0  0  0  0
  -13.5390   -8.2340   -8.8230 H   0  0  0  0  0  0  0  0  0  0  0  0
  -14.0020   -7.3610   -7.3520 H   0  0  0  0  0  0  0  0  0  0  0  0
  -16.0980   -7.4850   -7.8780 H   0  0  0  0  0  0  0  0  0  0  0  0
  -15.6740   -8.2560   -9.3950 H   0  0  0  0  0  0  0  0  0  0  0  0
  -15.8830  -10.4880   -8.4140 H   0  0  0  0  0  0  0  0  0  0  0  0
  -17.3730   -9.5890   -8.1580 H   0  0  0  0  0  0  0  0  0  0  0  0
  -16.6300   -9.0190   -5.8360 H   0  0  0  0  0  0  0  0  0  0  0  0
  -16.6780  -10.7590   -6.0960 H   0  0  0  0  0  0  0  0  0  0  0  0
  -14.4350  -10.9850   -5.7980 H   0  0  0  0  0  0  0  0  0  0  0  0
  -14.5160   -9.3690   -5.0900 H   0  0  0  0  0  0  0  0  0  0  0  0
  1  2  1  0
  2  3  2  0
  2  4  1  0
  4  5  1  0
  5  6  1  0
  6  7  2  0
  7  8  1  0
  8  9  2  0
  9 10  1  0
 10 11  2  0
 11 12  1  0
 12 13  1  0
 13 14  1  0
 14 15  1  0
 15 16  1  0
 16 17  1  0
 11  6  1  0
 17 12  1  0
  1 18  1  0
  1 19  1  0
  1 20  1  0
  4 21  1  0
  5 22  1  0
  5 23  1  0
  7 24  1  0
  8 25  1  0
  9 26  1  0
 10 27  1  0
 13 28  1  0
 13 29  1  0
 14 30  1  0
 14 31  1  0
 15 32  1  0
 15 33  1  0
 16 34  1  0
 16 35  1  0
 17 36  1  0
 17 37  1  0
A    1
 C1 
A    2
 C2 
A    3
 O1 
A    4
 N1 
A    5
 C3 
A    6
 C4 
A    7
 C5 
A    8
 C6 
A    9
 C7 
A   10
 C8 
A   11
 C9 
A   12
 N2 
A   13
 C10
A   14
 C11
A   15
 C12
A   16
 C13
A   17
 C14
A   18
 H1 
A   19
 H2 
A   20
 H3 
A   21
 H4 
A   22
 H5 
A   23
 H6 
A   24
 H7 
A   25
 H8 
A   26
 H9 
A   27
 H10
A   28
 H11
A   29
 H12
A   30
 H13
A   31
 H14
A   32
 H15
A   33
 H16
A   34
 H17
A   35
 H18
A   36
 H19
A   37
 H20
M  END
>  <ref_pdb>  (113) 
x0051_0B

>  <ref_mols>  (113) 
x0051_0B

>  <original SMILES>  (113) 
[H]c1c([H])c([H])c(C([H])([H])N([H])C(=O)C([H])([H])[H])c(N2C([H])([H])C([H])([H])C([H])([H])C([H])([H])C2([H])[H])c1[H]

>  <index>  (113) 
4361.0

>  <∆∆G>  (113) 
-3.850632

>  <comRMSD>  (113) 
0.613454

>  <N_constrained_atoms>  (113) 
17.0

>  <N_unconstrained_atoms>  (113) 
0.0

>  <LE>  (113) 
0.226508

>  <percent_hybrid>  (113) 
36.0

>  <largest_ring>  (113) 
6.0

>  <N_HA>  (113) 
17.0

>  <N_rotatable_bonds>  (113) 
4.0

>  <max_hit_Tanimoto>  (113) 
0.23516

>  <N_interactions_kept>  (113) 
0.5

>  <N_interactions_lost>  (113) 
0.5

>  <interaction_uniqueness_metric>  (113) 
0.086884

>  <N_interactions>  (113) 
4.0

>  <N_PAINS>  (113) 
0.0

>  <UFF_Gibbs>  (113) 
102.397885

>  <strain_per_HA>  (113) 
6.02337

>  <ad_hoc_penalty>  (113) 
-19.924726

>  <cluster>  (113) 
258.0

>  <intxn_cluster>  (113) 
7.0

>  <keep>  (113) 
1.0

>  <hydroph_interaction:GLN:74>  (113) 
0.0

>  <hydroph_interaction:THR:118>  (113) 
0.0

>  <hydroph_interaction:ILE:123>  (113) 
2.0

>  <hydroph_interaction:THR:166>  (113) 
0.0

>  <hbond:GLN:167>  (113) 
0.0

>  <hydroph_interaction:ALA:88>  (113) 
0.0

>  <hydroph_interaction:ASP:120>  (113) 
1.0

>  <hydroph_interaction:GLN:167>  (113) 
0.0

>  <hbond:THR:118>  (113) 
0.0

>  <hydroph_interaction:ALA:164>  (113) 
1.0

>  <hbond:ASP:120>  (113) 
0.0

>  <hbond:THR:166>  (113) 
0.0

>  <hydroph_interaction:LEU:76>  (113) 
0.0

>  <hbond:ILE:165>  (113) 
0.0

>  <halogenbond:GLN:74>  (113) 
0.0

>  <hbond:GLN:74>  (113) 
0.0

>  <hbond:LYS:73>  (113) 
0.0

>  <pistack:TRP:69>  (113) 
0.0

>  <hbond:TRP:83>  (113) 
0.0

>  <hydroph_interaction:TRP:83>  (113) 
0.0

>  <hydroph_interaction:TRP:69>  (113) 
0.0

>  <pication:TRP:69>  (113) 
0.0

>  <hydroph_interaction:PRO:82>  (113) 
0.0

>  <halogenbond:LYS:73>  (113) 
0.0

>  <hydroph_interaction:TYR:68>  (113) 
0.0

>  <halogenbond:GLN:167>  (113) 
0.0

>  <hydroph_interaction:PHE:116>  (113) 
0.0

>  <hbond:TYR:68>  (113) 
0.0

>  <hbond:ASP:122>  (113) 
0.0

>  <pistack:PHE:116>  (113) 
0.0

>  <hydroph_interaction:VAL:154>  (113) 
0.0

>  <hydroph_interaction:ASP:75>  (113) 
0.0

>  <hbond:GLY:121>  (113) 
0.0

>  <hydroph_interaction:ASN:152>  (113) 
0.0

>  <halogenbond:ILE:165>  (113) 
0.0

$$$$
Z4203195045-x0944S1-x0130S2
     RDKit          3D

 28 29  0  0  0  0  0  0  0  0999 V2000
  -26.4040   -4.1810   -4.1660 O   0  0  0  0  0  0  0  0  0  0  0  0
  -26.0810   -5.2750   -3.7240 C   0  0  0  0  0  0  0  0  0  0  0  0
  -25.4730   -6.3100   -4.6600 C   0  0  0  0  0  0  0  0  0  0  0  0
  -26.3860   -7.4440   -5.1380 C   0  0  0  0  0  0  0  0  0  0  0  0
  -27.6700   -7.5790   -4.7770 F   0  0  0  0  0  0  0  0  0  0  0  0
  -25.7160   -8.4460   -6.0980 C   0  0  0  0  0  0  0  0  0  0  0  0
  -24.2550   -8.1910   -6.4440 C   0  0  0  0  0  0  0  0  0  0  0  0
  -23.6400   -9.0380   -7.2770 F   0  0  0  0  0  0  0  0  0  0  0  0
  -23.5580   -7.1140   -5.9260 C   0  0  0  0  0  0  0  0  0  0  0  0
  -21.7600   -6.8750   -6.4230 Br  0  0  0  0  0  0  0  0  0  0  0  0
  -24.1480   -6.2070   -5.0600 C   0  0  0  0  0  0  0  0  0  0  0  0
  -26.2640   -5.6290   -2.3180 N   0  0  0  0  0  0  0  0  0  0  0  0
  -25.6310   -6.7560   -1.6280 C   0  0  0  0  0  0  0  0  0  0  0  0
  -26.2750   -7.0560   -0.4220 C   0  0  0  0  0  0  0  0  0  0  0  0
  -27.7350   -6.8330   -0.4320 N   0  0  0  0  0  0  0  0  0  0  0  0
  -28.1150   -5.4900   -0.9030 C   0  0  0  0  0  0  0  0  0  0  0  0
  -27.0910   -4.7570   -1.4800 C   0  0  0  0  0  0  0  0  0  0  0  0
  -26.2580   -9.2900   -6.5080 H   0  0  0  0  0  0  0  0  0  0  0  0
  -23.5810   -5.3970   -4.6890 H   0  0  0  0  0  0  0  0  0  0  0  0
  -25.6710   -7.6180   -2.3050 H   0  0  0  0  0  0  0  0  0  0  0  0
  -24.5780   -6.5290   -1.4350 H   0  0  0  0  0  0  0  0  0  0  0  0
  -26.0870   -8.1090   -0.1770 H   0  0  0  0  0  0  0  0  0  0  0  0
  -25.8380   -6.4560    0.3840 H   0  0  0  0  0  0  0  0  0  0  0  0
  -28.0970   -6.9860    0.5080 H   0  0  0  0  0  0  0  0  0  0  0  0
  -28.9510   -5.5770   -1.6070 H   0  0  0  0  0  0  0  0  0  0  0  0
  -28.5000   -4.9330   -0.0380 H   0  0  0  0  0  0  0  0  0  0  0  0
  -26.4790   -4.3710   -0.6630 H   0  0  0  0  0  0  0  0  0  0  0  0
  -27.3390   -3.9050   -2.1000 H   0  0  0  0  0  0  0  0  0  0  0  0
  1  2  2  0
  2  3  1  0
  3  4  2  0
  4  5  1  0
  4  6  1  0
  6  7  2  0
  7  8  1  0
  7  9  1  0
  9 10  1  0
  9 11  2  0
  2 12  1  0
 12 13  1  0
 13 14  1  0
 14 15  1  0
 15 16  1  0
 16 17  1  0
 11  3  1  0
 17 12  1  0
  6 18  1  0
 11 19  1  0
 13 20  1  0
 13 21  1  0
 14 22  1  0
 14 23  1  0
 15 24  1  0
 16 25  1  0
 16 26  1  0
 17 27  1  0
 17 28  1  0
A    1
 O1 
A    2
 C1 
A    3
 C2 
A    4
 C3 
A    5
 F1 
A    6
 C4 
A    7
 C5 
A    8
 F2 
A    9
 C6 
A   10
BR1 
A   11
 C7 
A   12
 N1 
A   13
 C8 
A   14
 C9 
A   15
 N2 
A   16
 C10
A   17
 C11
A   18
 H1 
A   19
 H2 
A   20
 H3 
A   21
 H4 
A   22
 H5 
A   23
 H6 
A   24
 H7 
A   25
 H8 
A   26
 H9 
A   27
 H10
A   28
 H11
M  END
>  <ref_pdb>  (114) 
x0051_0B

>  <ref_mols>  (114) 
x0051_0B

>  <original SMILES>  (114) 
[H]c1c(F)c(Br)c([H])c(C(=O)N2C([H])([H])C([H])([H])N([H])C([H])([H])C2([H])[H])c1F

>  <index>  (114) 
1036.0

>  <∆∆G>  (114) 
-4.819802

>  <comRMSD>  (114) 
0.349212

>  <N_constrained_atoms>  (114) 
16.0

>  <N_unconstrained_atoms>  (114) 
1.0

>  <LE>  (114) 
0.283518

>  <percent_hybrid>  (114) 
38.0

>  <largest_ring>  (114) 
6.0

>  <N_HA>  (114) 
17.0

>  <N_rotatable_bonds>  (114) 
1.0

>  <max_hit_Tanimoto>  (114) 
0.216949

>  <N_interactions_kept>  (114) 
0.0

>  <N_interactions_lost>  (114) 
2.5

>  <interaction_uniqueness_metric>  (114) 
0.27227

>  <N_interactions>  (114) 
5.0

>  <N_PAINS>  (114) 
0.0

>  <UFF_Gibbs>  (114) 
61.582291

>  <strain_per_HA>  (114) 
3.622466

>  <ad_hoc_penalty>  (114) 
-19.821746

>  <cluster>  (114) 
1422.0

>  <intxn_cluster>  (114) 
19.0

>  <keep>  (114) 
1.0

>  <hydroph_interaction:GLN:74>  (114) 
0.0

>  <hydroph_interaction:THR:118>  (114) 
0.0

>  <hydroph_interaction:ILE:123>  (114) 
0.0

>  <hydroph_interaction:THR:166>  (114) 
0.0

>  <hbond:GLN:167>  (114) 
0.0

>  <hydroph_interaction:ALA:88>  (114) 
0.0

>  <hydroph_interaction:ASP:120>  (114) 
0.0

>  <hydroph_interaction:GLN:167>  (114) 
0.0

>  <hbond:THR:118>  (114) 
0.0

>  <hydroph_interaction:ALA:164>  (114) 
0.0

>  <hbond:ASP:120>  (114) 
0.0

>  <hbond:THR:166>  (114) 
0.0

>  <hydroph_interaction:LEU:76>  (114) 
0.0

>  <hbond:ILE:165>  (114) 
0.0

>  <halogenbond:GLN:74>  (114) 
1.0

>  <hbond:GLN:74>  (114) 
0.0

>  <hbond:LYS:73>  (114) 
0.0

>  <pistack:TRP:69>  (114) 
2.0

>  <hbond:TRP:83>  (114) 
1.0

>  <hydroph_interaction:TRP:83>  (114) 
1.0

>  <hydroph_interaction:TRP:69>  (114) 
0.0

>  <pication:TRP:69>  (114) 
0.0

>  <hydroph_interaction:PRO:82>  (114) 
0.0

>  <halogenbond:LYS:73>  (114) 
0.0

>  <hydroph_interaction:TYR:68>  (114) 
0.0

>  <halogenbond:GLN:167>  (114) 
0.0

>  <hydroph_interaction:PHE:116>  (114) 
0.0

>  <hbond:TYR:68>  (114) 
0.0

>  <hbond:ASP:122>  (114) 
0.0

>  <pistack:PHE:116>  (114) 
0.0

>  <hydroph_interaction:VAL:154>  (114) 
0.0

>  <hydroph_interaction:ASP:75>  (114) 
0.0

>  <hbond:GLY:121>  (114) 
0.0

>  <hydroph_interaction:ASN:152>  (114) 
0.0

>  <halogenbond:ILE:165>  (114) 
0.0

$$$$
Z3506860788-Z198195906S1-Z1318054286
     RDKit          3D

 38 39  0  0  0  0  0  0  0  0999 V2000
   -9.3400   -3.4380  -10.5330 C   0  0  0  0  0  0  0  0  0  0  0  0
   -8.5770   -4.7250  -10.3640 C   0  0  0  0  0  0  0  0  0  0  0  0
   -7.1170   -4.6520  -10.7890 C   0  0  0  0  0  0  0  0  0  0  0  0
   -6.3130   -5.9370  -10.6360 C   0  0  0  0  0  0  0  0  0  0  0  0
   -7.0550   -7.1630  -10.0830 C   0  0  0  0  0  0  0  0  0  0  0  0
   -8.4090   -7.0710   -9.7310 C   0  0  0  0  0  0  0  0  0  0  0  0
   -9.1580   -5.8920   -9.8590 C   0  0  0  0  0  0  0  0  0  0  0  0
  -10.5230   -5.7940   -9.4830 N   0  0  0  0  0  0  0  0  0  0  0  0
  -11.6140   -6.5820   -9.7890 C   0  0  0  0  0  0  0  0  0  0  0  0
  -12.2140   -6.6110  -10.8440 O   0  0  0  0  0  0  0  0  0  0  0  0
  -11.9980   -7.3640   -8.7220 N   0  0  0  0  0  0  0  0  0  0  0  0
  -13.4580   -7.3290   -8.4400 C   0  0  0  0  0  0  0  0  0  0  0  0
  -14.1380   -8.6690   -8.0900 C   0  0  0  0  0  0  0  0  0  0  0  0
  -15.6000   -8.3810   -8.3810 C   0  0  0  0  0  0  0  0  0  0  0  0
  -16.4610   -9.5210   -8.0330 N   0  0  0  0  0  0  0  0  0  0  0  0
  -16.3260   -9.7490   -6.5890 C   0  0  0  0  0  0  0  0  0  0  0  0
  -14.8810  -10.0970   -6.1670 C   0  0  0  0  0  0  0  0  0  0  0  0
  -13.8540   -9.1880   -6.7170 N   0  0  0  0  0  0  0  0  0  0  0  0
  -10.3820   -3.6240  -10.8200 H   0  0  0  0  0  0  0  0  0  0  0  0
   -9.3470   -2.8540   -9.6080 H   0  0  0  0  0  0  0  0  0  0  0  0
   -8.8720   -2.8450  -11.3160 H   0  0  0  0  0  0  0  0  0  0  0  0
   -6.6370   -3.7630  -11.1820 H   0  0  0  0  0  0  0  0  0  0  0  0
   -5.2620   -5.9880  -10.9120 H   0  0  0  0  0  0  0  0  0  0  0  0
   -6.5280   -8.0920   -9.9660 H   0  0  0  0  0  0  0  0  0  0  0  0
   -8.9010   -7.9560   -9.3370 H   0  0  0  0  0  0  0  0  0  0  0  0
  -10.7630   -4.9930   -8.9200 H   0  0  0  0  0  0  0  0  0  0  0  0
  -11.4000   -7.2620   -7.9160 H   0  0  0  0  0  0  0  0  0  0  0  0
  -13.9580   -6.8700   -9.3010 H   0  0  0  0  0  0  0  0  0  0  0  0
  -13.5790   -6.6280   -7.6070 H   0  0  0  0  0  0  0  0  0  0  0  0
  -13.7910   -9.4420   -8.7840 H   0  0  0  0  0  0  0  0  0  0  0  0
  -16.0280   -7.5020   -7.9050 H   0  0  0  0  0  0  0  0  0  0  0  0
  -15.7140   -8.2080   -9.4610 H   0  0  0  0  0  0  0  0  0  0  0  0
  -17.4190   -9.1820   -8.1810 H   0  0  0  0  0  0  0  0  0  0  0  0
  -17.0050  -10.5530   -6.2800 H   0  0  0  0  0  0  0  0  0  0  0  0
  -16.6560   -8.8360   -6.0750 H   0  0  0  0  0  0  0  0  0  0  0  0
  -14.6540  -11.1210   -6.4870 H   0  0  0  0  0  0  0  0  0  0  0  0
  -14.8120  -10.0910   -5.0710 H   0  0  0  0  0  0  0  0  0  0  0  0
  -12.9370   -9.6380   -6.7250 H   0  0  0  0  0  0  0  0  0  0  0  0
  1  2  1  0
  2  3  2  0
  3  4  1  0
  4  5  2  0
  5  6  1  0
  6  7  2  0
  7  8  1  0
  8  9  1  0
  9 10  2  0
  9 11  1  0
 11 12  1  0
 12 13  1  0
 13 14  1  0
 14 15  1  0
 15 16  1  0
 16 17  1  0
 17 18  1  0
  7  2  1  0
 18 13  1  0
  1 19  1  0
  1 20  1  0
  1 21  1  0
  3 22  1  0
  4 23  1  0
  5 24  1  0
  6 25  1  0
  8 26  1  0
 11 27  1  0
 12 28  1  0
 12 29  1  0
 13 30  1  0
 14 31  1  0
 14 32  1  0
 15 33  1  0
 16 34  1  0
 16 35  1  0
 17 36  1  0
 17 37  1  0
 18 38  1  0
A    1
 C1 
A    2
 C2 
A    3
 C3 
A    4
 C4 
A    5
 C5 
A    6
 C6 
A    7
 C7 
A    8
 N1 
A    9
 C8 
A   10
 O1 
A   11
 N2 
A   12
 C9 
A   13
 C10
A   14
 C11
A   15
 N3 
A   16
 C12
A   17
 C13
A   18
 N4 
A   19
 H1 
A   20
 H2 
A   21
 H3 
A   22
 H4 
A   23
 H5 
A   24
 H6 
A   25
 H7 
A   26
 H8 
A   27
 H9 
A   28
 H10
A   29
 H11
A   30
 H12
A   31
 H13
A   32
 H14
A   33
 H15
A   34
 H16
A   35
 H17
A   36
 H18
A   37
 H19
A   38
 H20
M  END
>  <ref_pdb>  (115) 
x0051_0B

>  <ref_mols>  (115) 
x0051_0B

>  <original SMILES>  (115) 
[H]c1c([H])c([H])c(C([H])([H])[H])c(N([H])C(=O)N([H])C([H])([H])C2([H])N([H])C([H])([H])C([H])([H])N([H])C2([H])[H])c1[H]

>  <index>  (115) 
5686.0

>  <∆∆G>  (115) 
-6.343779

>  <comRMSD>  (115) 
0.590295

>  <N_constrained_atoms>  (115) 
12.0

>  <N_unconstrained_atoms>  (115) 
7.0

>  <LE>  (115) 
0.333883

>  <percent_hybrid>  (115) 
25.0

>  <largest_ring>  (115) 
6.0

>  <N_HA>  (115) 
18.0

>  <N_rotatable_bonds>  (115) 
4.0

>  <max_hit_Tanimoto>  (115) 
0.172628

>  <N_interactions_kept>  (115) 
0.5

>  <N_interactions_lost>  (115) 
0.5

>  <interaction_uniqueness_metric>  (115) 
0.178451

>  <N_interactions>  (115) 
3.0

>  <N_PAINS>  (115) 
0.0

>  <UFF_Gibbs>  (115) 
86.7344

>  <strain_per_HA>  (115) 
4.818551

>  <ad_hoc_penalty>  (115) 
-19.67298

>  <cluster>  (115) 
3793.0

>  <intxn_cluster>  (115) 
7.0

>  <keep>  (115) 
1.0

>  <hydroph_interaction:GLN:74>  (115) 
0.0

>  <hydroph_interaction:THR:118>  (115) 
1.0

>  <hydroph_interaction:ILE:123>  (115) 
0.0

>  <hydroph_interaction:THR:166>  (115) 
0.0

>  <hbond:GLN:167>  (115) 
0.0

>  <hydroph_interaction:ALA:88>  (115) 
0.0

>  <hydroph_interaction:ASP:120>  (115) 
0.0

>  <hydroph_interaction:GLN:167>  (115) 
0.0

>  <hbond:THR:118>  (115) 
0.0

>  <hydroph_interaction:ALA:164>  (115) 
1.0

>  <hbond:ASP:120>  (115) 
0.0

>  <hbond:THR:166>  (115) 
0.0

>  <hydroph_interaction:LEU:76>  (115) 
0.0

>  <hbond:ILE:165>  (115) 
0.0

>  <halogenbond:GLN:74>  (115) 
0.0

>  <hbond:GLN:74>  (115) 
0.0

>  <hbond:LYS:73>  (115) 
0.0

>  <pistack:TRP:69>  (115) 
0.0

>  <hbond:TRP:83>  (115) 
0.0

>  <hydroph_interaction:TRP:83>  (115) 
0.0

>  <hydroph_interaction:TRP:69>  (115) 
0.0

>  <pication:TRP:69>  (115) 
0.0

>  <hydroph_interaction:PRO:82>  (115) 
0.0

>  <halogenbond:LYS:73>  (115) 
0.0

>  <hydroph_interaction:TYR:68>  (115) 
0.0

>  <halogenbond:GLN:167>  (115) 
0.0

>  <hydroph_interaction:PHE:116>  (115) 
1.0

>  <hbond:TYR:68>  (115) 
0.0

>  <hbond:ASP:122>  (115) 
0.0

>  <pistack:PHE:116>  (115) 
0.0

>  <hydroph_interaction:VAL:154>  (115) 
0.0

>  <hydroph_interaction:ASP:75>  (115) 
0.0

>  <hbond:GLY:121>  (115) 
0.0

>  <hydroph_interaction:ASN:152>  (115) 
0.0

>  <halogenbond:ILE:165>  (115) 
0.0

$$$$
PV-004184978998-x0214S3-Z198195906S6
     RDKit          3D

 25 25  0  0  0  0  0  0  0  0999 V2000
  -10.2070   -8.1700   -8.2370 C   0  0  0  0  0  0  0  0  0  0  0  0
   -9.6780   -7.3270   -9.1530 N   0  0  0  0  0  0  0  0  0  0  0  0
  -10.4970   -6.1290   -9.3530 C   0  0  0  0  0  0  0  0  0  0  0  0
  -10.1380   -5.3690  -10.6160 C   0  0  0  0  0  0  0  0  0  0  0  0
  -11.9080   -6.6030   -9.3500 C   0  0  0  0  0  0  0  0  0  0  0  0
  -12.8840   -6.0160   -8.3680 C   0  0  0  0  0  0  0  0  0  0  0  0
  -14.2350   -6.6810   -8.5320 C   0  0  0  0  0  0  0  0  0  0  0  0
  -15.2670   -6.2840   -7.7270 C   0  0  0  0  0  0  0  0  0  0  0  0
  -14.4590   -7.6730   -9.4660 C   0  0  0  0  0  0  0  0  0  0  0  0
  -13.4390   -8.0730  -10.2890 C   0  0  0  0  0  0  0  0  0  0  0  0
  -12.2150   -7.5610  -10.2430 N   0  0  0  0  0  0  0  0  0  0  0  0
  -10.4400   -7.6340   -7.3130 H   0  0  0  0  0  0  0  0  0  0  0  0
   -9.4610   -8.9360   -7.9980 H   0  0  0  0  0  0  0  0  0  0  0  0
  -11.1270   -8.6390   -8.5940 H   0  0  0  0  0  0  0  0  0  0  0  0
   -9.5940   -7.7990  -10.0560 H   0  0  0  0  0  0  0  0  0  0  0  0
  -10.3710   -5.4670   -8.4870 H   0  0  0  0  0  0  0  0  0  0  0  0
   -9.6180   -4.4340  -10.3830 H   0  0  0  0  0  0  0  0  0  0  0  0
   -9.4750   -5.9780  -11.2390 H   0  0  0  0  0  0  0  0  0  0  0  0
  -11.0290   -5.1250  -11.2040 H   0  0  0  0  0  0  0  0  0  0  0  0
  -12.6510   -5.2350   -7.6480 H   0  0  0  0  0  0  0  0  0  0  0  0
  -16.0420   -7.0030   -7.4670 H   0  0  0  0  0  0  0  0  0  0  0  0
  -14.8210   -5.9650   -6.7980 H   0  0  0  0  0  0  0  0  0  0  0  0
  -15.7580   -5.4170   -8.1810 H   0  0  0  0  0  0  0  0  0  0  0  0
  -15.4370   -8.1350   -9.5600 H   0  0  0  0  0  0  0  0  0  0  0  0
  -13.5950   -8.8480  -11.0340 H   0  0  0  0  0  0  0  0  0  0  0  0
  1  2  1  0
  2  3  1  0
  3  4  1  0
  3  5  1  0
  5  6  2  0
  6  7  1  0
  7  8  1  0
  7  9  2  0
  9 10  1  0
 10 11  2  0
 11  5  1  0
  1 12  1  0
  1 13  1  0
  1 14  1  0
  2 15  1  0
  3 16  1  0
  4 17  1  0
  4 18  1  0
  4 19  1  0
  6 20  1  0
  8 21  1  0
  8 22  1  0
  8 23  1  0
  9 24  1  0
 10 25  1  0
A    1
 C1 
A    2
 N1 
A    3
 C2 
A    4
 C3 
A    5
 C4 
A    6
 C5 
A    7
 C6 
A    8
 C7 
A    9
 C8 
A   10
 C9 
A   11
 N2 
A   12
 H1 
A   13
 H2 
A   14
 H3 
A   15
 H4 
A   16
 H5 
A   17
 H6 
A   18
 H7 
A   19
 H8 
A   20
 H9 
A   21
 H10
A   22
 H11
A   23
 H12
A   24
 H13
A   25
 H14
M  END
>  <ref_pdb>  (116) 
x0051_0B

>  <ref_mols>  (116) 
x0051_0B

>  <original SMILES>  (116) 
[H]c1nc(C([H])(N([H])C([H])([H])[H])C([H])([H])[H])c([H])c(C([H])([H])[H])c1[H]

>  <index>  (116) 
1831.0

>  <∆∆G>  (116) 
-5.324785

>  <comRMSD>  (116) 
0.964451

>  <N_constrained_atoms>  (116) 
10.0

>  <N_unconstrained_atoms>  (116) 
1.0

>  <LE>  (116) 
0.484071

>  <percent_hybrid>  (116) 
45.0

>  <largest_ring>  (116) 
6.0

>  <N_HA>  (116) 
11.0

>  <N_rotatable_bonds>  (116) 
5.0

>  <max_hit_Tanimoto>  (116) 
0.100324

>  <N_interactions_kept>  (116) 
0.0

>  <N_interactions_lost>  (116) 
0.0

>  <interaction_uniqueness_metric>  (116) 
0.1025

>  <N_interactions>  (116) 
3.0

>  <N_PAINS>  (116) 
0.0

>  <UFF_Gibbs>  (116) 
61.932611

>  <strain_per_HA>  (116) 
5.630186

>  <ad_hoc_penalty>  (116) 
-19.624677

>  <cluster>  (116) 
5429.0

>  <intxn_cluster>  (116) 
5.0

>  <keep>  (116) 
1.0

>  <hydroph_interaction:GLN:74>  (116) 
1.0

>  <hydroph_interaction:THR:118>  (116) 
0.0

>  <hydroph_interaction:ILE:123>  (116) 
0.0

>  <hydroph_interaction:THR:166>  (116) 
1.0

>  <hbond:GLN:167>  (116) 
0.0

>  <hydroph_interaction:ALA:88>  (116) 
0.0

>  <hydroph_interaction:ASP:120>  (116) 
0.0

>  <hydroph_interaction:GLN:167>  (116) 
0.0

>  <hbond:THR:118>  (116) 
0.0

>  <hydroph_interaction:ALA:164>  (116) 
1.0

>  <hbond:ASP:120>  (116) 
0.0

>  <hbond:THR:166>  (116) 
0.0

>  <hydroph_interaction:LEU:76>  (116) 
0.0

>  <hbond:ILE:165>  (116) 
0.0

>  <halogenbond:GLN:74>  (116) 
0.0

>  <hbond:GLN:74>  (116) 
0.0

>  <hbond:LYS:73>  (116) 
0.0

>  <pistack:TRP:69>  (116) 
0.0

>  <hbond:TRP:83>  (116) 
0.0

>  <hydroph_interaction:TRP:83>  (116) 
0.0

>  <hydroph_interaction:TRP:69>  (116) 
0.0

>  <pication:TRP:69>  (116) 
0.0

>  <hydroph_interaction:PRO:82>  (116) 
0.0

>  <halogenbond:LYS:73>  (116) 
0.0

>  <hydroph_interaction:TYR:68>  (116) 
0.0

>  <halogenbond:GLN:167>  (116) 
0.0

>  <hydroph_interaction:PHE:116>  (116) 
0.0

>  <hbond:TYR:68>  (116) 
0.0

>  <hbond:ASP:122>  (116) 
0.0

>  <pistack:PHE:116>  (116) 
0.0

>  <hydroph_interaction:VAL:154>  (116) 
0.0

>  <hydroph_interaction:ASP:75>  (116) 
0.0

>  <hbond:GLY:121>  (116) 
0.0

>  <hydroph_interaction:ASN:152>  (116) 
0.0

>  <halogenbond:ILE:165>  (116) 
0.0

$$$$
Z3863990818-x0944S1-x0130S2
     RDKit          3D

 28 29  0  0  0  0  0  0  0  0999 V2000
  -26.3680   -4.2780   -4.2040 O   0  0  0  0  0  0  0  0  0  0  0  0
  -26.0580   -5.3660   -3.7230 C   0  0  0  0  0  0  0  0  0  0  0  0
  -25.4890   -6.3760   -4.6390 C   0  0  0  0  0  0  0  0  0  0  0  0
  -26.2110   -7.4800   -5.1090 C   0  0  0  0  0  0  0  0  0  0  0  0
  -27.8440   -7.8120   -4.6710 Cl  0  0  0  0  0  0  0  0  0  0  0  0
  -25.5930   -8.3790   -5.9830 C   0  0  0  0  0  0  0  0  0  0  0  0
  -24.2750   -8.1720   -6.3760 C   0  0  0  0  0  0  0  0  0  0  0  0
  -23.7040   -9.0410   -7.2200 F   0  0  0  0  0  0  0  0  0  0  0  0
  -23.5640   -7.0850   -5.9090 C   0  0  0  0  0  0  0  0  0  0  0  0
  -21.7850   -6.8170   -6.4620 Br  0  0  0  0  0  0  0  0  0  0  0  0
  -24.1700   -6.1900   -5.0400 C   0  0  0  0  0  0  0  0  0  0  0  0
  -26.2220   -5.6810   -2.3880 N   0  0  0  0  0  0  0  0  0  0  0  0
  -25.6090   -6.8050   -1.6800 C   0  0  0  0  0  0  0  0  0  0  0  0
  -26.3370   -7.1020   -0.3560 C   0  0  0  0  0  0  0  0  0  0  0  0
  -27.8000   -6.8820   -0.3690 N   0  0  0  0  0  0  0  0  0  0  0  0
  -28.1910   -5.5670   -0.9110 C   0  0  0  0  0  0  0  0  0  0  0  0
  -27.0440   -4.7980   -1.5590 C   0  0  0  0  0  0  0  0  0  0  0  0
  -26.1280   -9.2420   -6.3630 H   0  0  0  0  0  0  0  0  0  0  0  0
  -23.6430   -5.3530   -4.6780 H   0  0  0  0  0  0  0  0  0  0  0  0
  -25.6110   -7.6980   -2.3110 H   0  0  0  0  0  0  0  0  0  0  0  0
  -24.5650   -6.5300   -1.4850 H   0  0  0  0  0  0  0  0  0  0  0  0
  -26.1350   -8.1340   -0.0470 H   0  0  0  0  0  0  0  0  0  0  0  0
  -25.9110   -6.4590    0.4270 H   0  0  0  0  0  0  0  0  0  0  0  0
  -28.2590   -7.6100   -0.9140 H   0  0  0  0  0  0  0  0  0  0  0  0
  -28.5960   -4.9590   -0.0910 H   0  0  0  0  0  0  0  0  0  0  0  0
  -29.0010   -5.7100   -1.6340 H   0  0  0  0  0  0  0  0  0  0  0  0
  -26.4100   -4.3840   -0.7750 H   0  0  0  0  0  0  0  0  0  0  0  0
  -27.4200   -3.9670   -2.1570 H   0  0  0  0  0  0  0  0  0  0  0  0
  1  2  2  0
  2  3  1  0
  3  4  2  0
  4  5  1  0
  4  6  1  0
  6  7  2  0
  7  8  1  0
  7  9  1  0
  9 10  1  0
  9 11  2  0
  2 12  1  0
 12 13  1  0
 13 14  1  0
 14 15  1  0
 15 16  1  0
 16 17  1  0
 11  3  1  0
 17 12  1  0
  6 18  1  0
 11 19  1  0
 13 20  1  0
 13 21  1  0
 14 22  1  0
 14 23  1  0
 15 24  1  0
 16 25  1  0
 16 26  1  0
 17 27  1  0
 17 28  1  0
A    1
 O1 
A    2
 C1 
A    3
 C2 
A    4
 C3 
A    5
CL1 
A    6
 C4 
A    7
 C5 
A    8
 F1 
A    9
 C6 
A   10
BR1 
A   11
 C7 
A   12
 N1 
A   13
 C8 
A   14
 C9 
A   15
 N2 
A   16
 C10
A   17
 C11
A   18
 H1 
A   19
 H2 
A   20
 H3 
A   21
 H4 
A   22
 H5 
A   23
 H6 
A   24
 H7 
A   25
 H8 
A   26
 H9 
A   27
 H10
A   28
 H11
M  END
>  <ref_pdb>  (117) 
x0051_0B

>  <ref_mols>  (117) 
x0051_0B

>  <original SMILES>  (117) 
[H]c1c(F)c(Br)c([H])c(C(=O)N2C([H])([H])C([H])([H])N([H])C([H])([H])C2([H])[H])c1Cl

>  <index>  (117) 
1032.0

>  <∆∆G>  (117) 
-4.757536

>  <comRMSD>  (117) 
0.343524

>  <N_constrained_atoms>  (117) 
16.0

>  <N_unconstrained_atoms>  (117) 
1.0

>  <LE>  (117) 
0.279855

>  <percent_hybrid>  (117) 
38.0

>  <largest_ring>  (117) 
6.0

>  <N_HA>  (117) 
17.0

>  <N_rotatable_bonds>  (117) 
1.0

>  <max_hit_Tanimoto>  (117) 
0.187005

>  <N_interactions_kept>  (117) 
0.0

>  <N_interactions_lost>  (117) 
2.5

>  <interaction_uniqueness_metric>  (117) 
0.27227

>  <N_interactions>  (117) 
5.0

>  <N_PAINS>  (117) 
0.0

>  <UFF_Gibbs>  (117) 
14.506504

>  <strain_per_HA>  (117) 
0.853319

>  <ad_hoc_penalty>  (117) 
-19.605005

>  <cluster>  (117) 
1423.0

>  <intxn_cluster>  (117) 
19.0

>  <keep>  (117) 
1.0

>  <hydroph_interaction:GLN:74>  (117) 
0.0

>  <hydroph_interaction:THR:118>  (117) 
0.0

>  <hydroph_interaction:ILE:123>  (117) 
0.0

>  <hydroph_interaction:THR:166>  (117) 
0.0

>  <hbond:GLN:167>  (117) 
0.0

>  <hydroph_interaction:ALA:88>  (117) 
0.0

>  <hydroph_interaction:ASP:120>  (117) 
0.0

>  <hydroph_interaction:GLN:167>  (117) 
0.0

>  <hbond:THR:118>  (117) 
0.0

>  <hydroph_interaction:ALA:164>  (117) 
0.0

>  <hbond:ASP:120>  (117) 
0.0

>  <hbond:THR:166>  (117) 
0.0

>  <hydroph_interaction:LEU:76>  (117) 
0.0

>  <hbond:ILE:165>  (117) 
0.0

>  <halogenbond:GLN:74>  (117) 
1.0

>  <hbond:GLN:74>  (117) 
0.0

>  <hbond:LYS:73>  (117) 
0.0

>  <pistack:TRP:69>  (117) 
2.0

>  <hbond:TRP:83>  (117) 
1.0

>  <hydroph_interaction:TRP:83>  (117) 
1.0

>  <hydroph_interaction:TRP:69>  (117) 
0.0

>  <pication:TRP:69>  (117) 
0.0

>  <hydroph_interaction:PRO:82>  (117) 
0.0

>  <halogenbond:LYS:73>  (117) 
0.0

>  <hydroph_interaction:TYR:68>  (117) 
0.0

>  <halogenbond:GLN:167>  (117) 
0.0

>  <hydroph_interaction:PHE:116>  (117) 
0.0

>  <hbond:TYR:68>  (117) 
0.0

>  <hbond:ASP:122>  (117) 
0.0

>  <pistack:PHE:116>  (117) 
0.0

>  <hydroph_interaction:VAL:154>  (117) 
0.0

>  <hydroph_interaction:ASP:75>  (117) 
0.0

>  <hbond:GLY:121>  (117) 
0.0

>  <hydroph_interaction:ASN:152>  (117) 
0.0

>  <halogenbond:ILE:165>  (117) 
0.0

$$$$
PV-005752315376-x0214S3-Z1318054286S3
     RDKit          3D

 21 22  0  0  0  0  0  0  0  0999 V2000
  -13.7140   -9.4710   -9.4870 F   0  0  0  0  0  0  0  0  0  0  0  0
  -13.5070   -8.1850   -9.1640 C   0  0  0  0  0  0  0  0  0  0  0  0
  -14.2770   -7.2080   -9.8950 N   0  0  0  0  0  0  0  0  0  0  0  0
  -14.0980   -5.9060   -9.5870 C   0  0  0  0  0  0  0  0  0  0  0  0
  -13.0940   -5.5190   -8.5050 C   0  0  0  0  0  0  0  0  0  0  0  0
  -12.3950   -6.4950   -7.8510 C   0  0  0  0  0  0  0  0  0  0  0  0
  -12.5890   -7.8370   -8.1660 C   0  0  0  0  0  0  0  0  0  0  0  0
  -11.8140   -8.6660   -7.4180 O   0  0  0  0  0  0  0  0  0  0  0  0
  -11.3750   -9.8240   -7.9690 C   0  0  0  0  0  0  0  0  0  0  0  0
  -12.1800  -10.9270   -7.7340 C   0  0  0  0  0  0  0  0  0  0  0  0
  -11.8030  -12.1490   -8.2510 C   0  0  0  0  0  0  0  0  0  0  0  0
  -10.6570  -12.3110   -8.9850 N   0  0  0  0  0  0  0  0  0  0  0  0
   -9.8860  -11.2120   -9.1970 C   0  0  0  0  0  0  0  0  0  0  0  0
  -10.2080   -9.9310   -8.7130 C   0  0  0  0  0  0  0  0  0  0  0  0
   -9.2180   -8.5490   -9.0140 Cl  0  0  0  0  0  0  0  0  0  0  0  0
  -14.6750   -5.1950  -10.1110 H   0  0  0  0  0  0  0  0  0  0  0  0
  -12.9400   -4.4710   -8.2510 H   0  0  0  0  0  0  0  0  0  0  0  0
  -11.6830   -6.2060   -7.0790 H   0  0  0  0  0  0  0  0  0  0  0  0
  -13.0920  -10.8340   -7.1550 H   0  0  0  0  0  0  0  0  0  0  0  0
  -12.3930  -13.0490   -8.1030 H   0  0  0  0  0  0  0  0  0  0  0  0
   -8.9860  -11.3950   -9.7840 H   0  0  0  0  0  0  0  0  0  0  0  0
  1  2  1  0
  2  3  2  0
  3  4  1  0
  4  5  2  0
  5  6  1  0
  6  7  2  0
  7  8  1  0
  8  9  1  0
  9 10  2  0
 10 11  1  0
 11 12  2  0
 12 13  1  0
 13 14  2  0
 14 15  1  0
  7  2  1  0
 14  9  1  0
  4 16  1  0
  5 17  1  0
  6 18  1  0
 10 19  1  0
 11 20  1  0
 13 21  1  0
A    1
 F1 
A    2
 C1 
A    3
 N1 
A    4
 C2 
A    5
 C3 
A    6
 C4 
A    7
 C5 
A    8
 O1 
A    9
 C6 
A   10
 C7 
A   11
 C8 
A   12
 N2 
A   13
 C9 
A   14
 C10
A   15
CL1 
A   16
 H1 
A   17
 H2 
A   18
 H3 
A   19
 H4 
A   20
 H5 
A   21
 H6 
M  END
>  <ref_pdb>  (118) 
x0051_0B

>  <ref_mols>  (118) 
x0051_0B

>  <original SMILES>  (118) 
[H]c1nc(F)c(Oc2c([H])c([H])nc([H])c2Cl)c([H])c1[H]

>  <index>  (118) 
6151.0

>  <∆∆G>  (118) 
-2.66641

>  <comRMSD>  (118) 
0.890573

>  <N_constrained_atoms>  (118) 
13.0

>  <N_unconstrained_atoms>  (118) 
2.0

>  <LE>  (118) 
0.177761

>  <percent_hybrid>  (118) 
47.0

>  <largest_ring>  (118) 
6.0

>  <N_HA>  (118) 
15.0

>  <N_rotatable_bonds>  (118) 
2.0

>  <max_hit_Tanimoto>  (118) 
0.079082

>  <N_interactions_kept>  (118) 
1.0

>  <N_interactions_lost>  (118) 
0.0

>  <interaction_uniqueness_metric>  (118) 
0.045018

>  <N_interactions>  (118) 
3.0

>  <N_PAINS>  (118) 
0.0

>  <UFF_Gibbs>  (118) 
29.831702

>  <strain_per_HA>  (118) 
1.988767

>  <ad_hoc_penalty>  (118) 
-19.578681

>  <cluster>  (118) 
3560.0

>  <intxn_cluster>  (118) 
6.0

>  <keep>  (118) 
1.0

>  <hydroph_interaction:GLN:74>  (118) 
0.0

>  <hydroph_interaction:THR:118>  (118) 
0.0

>  <hydroph_interaction:ILE:123>  (118) 
0.0

>  <hydroph_interaction:THR:166>  (118) 
0.0

>  <hbond:GLN:167>  (118) 
2.0

>  <hydroph_interaction:ALA:88>  (118) 
0.0

>  <hydroph_interaction:ASP:120>  (118) 
0.0

>  <hydroph_interaction:GLN:167>  (118) 
0.0

>  <hbond:THR:118>  (118) 
1.0

>  <hydroph_interaction:ALA:164>  (118) 
0.0

>  <hbond:ASP:120>  (118) 
0.0

>  <hbond:THR:166>  (118) 
0.0

>  <hydroph_interaction:LEU:76>  (118) 
0.0

>  <hbond:ILE:165>  (118) 
0.0

>  <halogenbond:GLN:74>  (118) 
0.0

>  <hbond:GLN:74>  (118) 
0.0

>  <hbond:LYS:73>  (118) 
0.0

>  <pistack:TRP:69>  (118) 
0.0

>  <hbond:TRP:83>  (118) 
0.0

>  <hydroph_interaction:TRP:83>  (118) 
0.0

>  <hydroph_interaction:TRP:69>  (118) 
0.0

>  <pication:TRP:69>  (118) 
0.0

>  <hydroph_interaction:PRO:82>  (118) 
0.0

>  <halogenbond:LYS:73>  (118) 
0.0

>  <hydroph_interaction:TYR:68>  (118) 
0.0

>  <halogenbond:GLN:167>  (118) 
0.0

>  <hydroph_interaction:PHE:116>  (118) 
0.0

>  <hbond:TYR:68>  (118) 
0.0

>  <hbond:ASP:122>  (118) 
0.0

>  <pistack:PHE:116>  (118) 
0.0

>  <hydroph_interaction:VAL:154>  (118) 
0.0

>  <hydroph_interaction:ASP:75>  (118) 
0.0

>  <hbond:GLY:121>  (118) 
0.0

>  <hydroph_interaction:ASN:152>  (118) 
0.0

>  <halogenbond:ILE:165>  (118) 
0.0

$$$$
Z1839077873-x0884S4-Z198195906S10
     RDKit          3D

 32 33  0  0  0  0  0  0  0  0999 V2000
   -9.6570   -8.1900   -8.1400 C   0  0  0  0  0  0  0  0  0  0  0  0
  -10.3210   -9.5030   -8.4370 C   0  0  0  0  0  0  0  0  0  0  0  0
   -9.6400  -10.7540   -8.0710 C   0  0  0  0  0  0  0  0  0  0  0  0
  -10.1810  -11.9450   -8.3210 C   0  0  0  0  0  0  0  0  0  0  0  0
  -11.4790  -12.0260   -8.9570 C   0  0  0  0  0  0  0  0  0  0  0  0
  -12.1330  -10.8470   -9.3030 C   0  0  0  0  0  0  0  0  0  0  0  0
  -11.5610   -9.5670   -9.0590 C   0  0  0  0  0  0  0  0  0  0  0  0
  -12.1840   -8.3710   -9.4340 N   0  0  0  0  0  0  0  0  0  0  0  0
  -11.8350   -7.0010   -9.0370 C   0  0  0  0  0  0  0  0  0  0  0  0
  -13.0070   -6.9510   -8.2770 C   0  0  0  0  0  0  0  0  0  0  0  0
  -13.9510   -7.3470   -7.7720 C   0  0  0  0  0  0  0  0  0  0  0  0
  -14.9440   -8.2030   -7.3110 C   0  0  0  0  0  0  0  0  0  0  0  0
  -14.5220   -9.4740   -6.9240 C   0  0  0  0  0  0  0  0  0  0  0  0
  -15.4410  -10.3940   -6.4640 C   0  0  0  0  0  0  0  0  0  0  0  0
  -16.7870  -10.0350   -6.3970 C   0  0  0  0  0  0  0  0  0  0  0  0
  -17.1980   -8.7620   -6.7880 C   0  0  0  0  0  0  0  0  0  0  0  0
  -16.2700   -7.8350   -7.2470 C   0  0  0  0  0  0  0  0  0  0  0  0
  -10.2670   -7.5770   -7.4690 H   0  0  0  0  0  0  0  0  0  0  0  0
   -9.4970   -7.6390   -9.0720 H   0  0  0  0  0  0  0  0  0  0  0  0
   -8.6790   -8.3690   -7.6810 H   0  0  0  0  0  0  0  0  0  0  0  0
   -8.6750  -10.7180   -7.5860 H   0  0  0  0  0  0  0  0  0  0  0  0
   -9.6550  -12.8530   -8.0480 H   0  0  0  0  0  0  0  0  0  0  0  0
  -11.9360  -12.9930   -9.1620 H   0  0  0  0  0  0  0  0  0  0  0  0
  -13.1020  -10.9380   -9.7830 H   0  0  0  0  0  0  0  0  0  0  0  0
  -13.1860   -8.4820   -9.5730 H   0  0  0  0  0  0  0  0  0  0  0  0
  -11.9070   -6.3060   -9.8850 H   0  0  0  0  0  0  0  0  0  0  0  0
  -10.8570   -6.9340   -8.5830 H   0  0  0  0  0  0  0  0  0  0  0  0
  -13.4720   -9.7450   -6.9840 H   0  0  0  0  0  0  0  0  0  0  0  0
  -15.1200  -11.3850   -6.1580 H   0  0  0  0  0  0  0  0  0  0  0  0
  -17.5170  -10.7540   -6.0370 H   0  0  0  0  0  0  0  0  0  0  0  0
  -18.2500   -8.4860   -6.7350 H   0  0  0  0  0  0  0  0  0  0  0  0
  -16.5900   -6.8420   -7.5520 H   0  0  0  0  0  0  0  0  0  0  0  0
  1  2  1  0
  2  3  2  0
  3  4  1  0
  4  5  2  0
  5  6  1  0
  6  7  2  0
  7  8  1  0
  8  9  1  0
  9 10  1  0
 10 11  3  0
 11 12  1  0
 12 13  2  0
 13 14  1  0
 14 15  2  0
 15 16  1  0
 16 17  2  0
  7  2  1  0
 17 12  1  0
  1 18  1  0
  1 19  1  0
  1 20  1  0
  3 21  1  0
  4 22  1  0
  5 23  1  0
  6 24  1  0
  8 25  1  0
  9 26  1  0
  9 27  1  0
 13 28  1  0
 14 29  1  0
 15 30  1  0
 16 31  1  0
 17 32  1  0
A    1
 C1 
A    2
 C2 
A    3
 C3 
A    4
 C4 
A    5
 C5 
A    6
 C6 
A    7
 C7 
A    8
 N1 
A    9
 C8 
A   10
 C9 
A   11
 C10
A   12
 C11
A   13
 C12
A   14
 C13
A   15
 C14
A   16
 C15
A   17
 C16
A   18
 H1 
A   19
 H2 
A   20
 H3 
A   21
 H4 
A   22
 H5 
A   23
 H6 
A   24
 H7 
A   25
 H8 
A   26
 H9 
A   27
 H10
A   28
 H11
A   29
 H12
A   30
 H13
A   31
 H14
A   32
 H15
M  END
>  <ref_pdb>  (119) 
x0051_0B

>  <ref_mols>  (119) 
x0051_0B

>  <original SMILES>  (119) 
[H]c1c([H])c([H])c(C#CC([H])([H])N([H])c2c([H])c([H])c([H])c([H])c2C([H])([H])[H])c([H])c1[H]

>  <index>  (119) 
5732.0

>  <∆∆G>  (119) 
-4.951723

>  <comRMSD>  (119) 
0.969237

>  <N_constrained_atoms>  (119) 
15.0

>  <N_unconstrained_atoms>  (119) 
2.0

>  <LE>  (119) 
0.291278

>  <percent_hybrid>  (119) 
47.0

>  <largest_ring>  (119) 
6.0

>  <N_HA>  (119) 
17.0

>  <N_rotatable_bonds>  (119) 
3.0

>  <max_hit_Tanimoto>  (119) 
0.147482

>  <N_interactions_kept>  (119) 
0.0

>  <N_interactions_lost>  (119) 
1.0

>  <interaction_uniqueness_metric>  (119) 
0.078487

>  <N_interactions>  (119) 
4.0

>  <N_PAINS>  (119) 
0.0

>  <UFF_Gibbs>  (119) 
485.897086

>  <strain_per_HA>  (119) 
28.582013

>  <ad_hoc_penalty>  (119) 
-19.572387

>  <cluster>  (119) 
3769.0

>  <intxn_cluster>  (119) 
15.0

>  <keep>  (119) 
1.0

>  <hydroph_interaction:GLN:74>  (119) 
1.0

>  <hydroph_interaction:THR:118>  (119) 
1.0

>  <hydroph_interaction:ILE:123>  (119) 
1.0

>  <hydroph_interaction:THR:166>  (119) 
0.0

>  <hbond:GLN:167>  (119) 
0.0

>  <hydroph_interaction:ALA:88>  (119) 
0.0

>  <hydroph_interaction:ASP:120>  (119) 
1.0

>  <hydroph_interaction:GLN:167>  (119) 
0.0

>  <hbond:THR:118>  (119) 
0.0

>  <hydroph_interaction:ALA:164>  (119) 
0.0

>  <hbond:ASP:120>  (119) 
0.0

>  <hbond:THR:166>  (119) 
0.0

>  <hydroph_interaction:LEU:76>  (119) 
0.0

>  <hbond:ILE:165>  (119) 
0.0

>  <halogenbond:GLN:74>  (119) 
0.0

>  <hbond:GLN:74>  (119) 
0.0

>  <hbond:LYS:73>  (119) 
0.0

>  <pistack:TRP:69>  (119) 
0.0

>  <hbond:TRP:83>  (119) 
0.0

>  <hydroph_interaction:TRP:83>  (119) 
0.0

>  <hydroph_interaction:TRP:69>  (119) 
0.0

>  <pication:TRP:69>  (119) 
0.0

>  <hydroph_interaction:PRO:82>  (119) 
0.0

>  <halogenbond:LYS:73>  (119) 
0.0

>  <hydroph_interaction:TYR:68>  (119) 
0.0

>  <halogenbond:GLN:167>  (119) 
0.0

>  <hydroph_interaction:PHE:116>  (119) 
0.0

>  <hbond:TYR:68>  (119) 
0.0

>  <hbond:ASP:122>  (119) 
0.0

>  <pistack:PHE:116>  (119) 
0.0

>  <hydroph_interaction:VAL:154>  (119) 
0.0

>  <hydroph_interaction:ASP:75>  (119) 
0.0

>  <hbond:GLY:121>  (119) 
0.0

>  <hydroph_interaction:ASN:152>  (119) 
0.0

>  <halogenbond:ILE:165>  (119) 
0.0

$$$$
PV-002878416526-x0214S3-Z1318054286S3
     RDKit          3D

 21 22  0  0  0  0  0  0  0  0999 V2000
   -9.2390   -8.5480   -8.9820 Cl  0  0  0  0  0  0  0  0  0  0  0  0
  -10.2150   -9.9480   -8.7170 C   0  0  0  0  0  0  0  0  0  0  0  0
   -9.8170  -11.2980   -9.2570 C   0  0  0  0  0  0  0  0  0  0  0  0
  -10.7010  -12.4400   -9.0080 N   0  0  0  0  0  0  0  0  0  0  0  0
  -11.9180  -12.2050   -8.2370 C   0  0  0  0  0  0  0  0  0  0  0  0
  -12.2240  -10.9420   -7.7580 C   0  0  0  0  0  0  0  0  0  0  0  0
  -13.8210  -10.7570   -6.7630 Br  0  0  0  0  0  0  0  0  0  0  0  0
  -11.3950   -9.8550   -7.9950 C   0  0  0  0  0  0  0  0  0  0  0  0
  -11.7820   -8.6650   -7.4790 O   0  0  0  0  0  0  0  0  0  0  0  0
  -12.5650   -7.8290   -8.2100 C   0  0  0  0  0  0  0  0  0  0  0  0
  -12.3340   -6.3970   -7.8180 C   0  0  0  0  0  0  0  0  0  0  0  0
  -13.1000   -5.3050   -8.5000 C   0  0  0  0  0  0  0  0  0  0  0  0
  -14.0560   -5.8510   -9.5490 C   0  0  0  0  0  0  0  0  0  0  0  0
  -14.2440   -7.2590   -9.9080 N   0  0  0  0  0  0  0  0  0  0  0  0
  -13.4880   -8.1550   -9.2150 C   0  0  0  0  0  0  0  0  0  0  0  0
   -8.9120  -11.4850   -9.8300 H   0  0  0  0  0  0  0  0  0  0  0  0
  -12.5500  -13.0730   -8.0690 H   0  0  0  0  0  0  0  0  0  0  0  0
  -11.6150   -6.1520   -7.0390 H   0  0  0  0  0  0  0  0  0  0  0  0
  -12.9930   -4.2480   -8.2720 H   0  0  0  0  0  0  0  0  0  0  0  0
  -14.6730   -5.1880  -10.0960 H   0  0  0  0  0  0  0  0  0  0  0  0
  -13.6680   -9.1830   -9.5170 H   0  0  0  0  0  0  0  0  0  0  0  0
  1  2  1  0
  2  3  2  0
  3  4  1  0
  4  5  2  0
  5  6  1  0
  6  7  1  0
  6  8  2  0
  8  9  1  0
  9 10  1  0
 10 11  2  0
 11 12  1  0
 12 13  2  0
 13 14  1  0
 14 15  2  0
  8  2  1  0
 15 10  1  0
  3 16  1  0
  5 17  1  0
 11 18  1  0
 12 19  1  0
 13 20  1  0
 15 21  1  0
A    1
CL1 
A    2
 C1 
A    3
 C2 
A    4
 N1 
A    5
 C3 
A    6
 C4 
A    7
BR1 
A    8
 C5 
A    9
 O1 
A   10
 C6 
A   11
 C7 
A   12
 C8 
A   13
 C9 
A   14
 N2 
A   15
 C10
A   16
 H1 
A   17
 H2 
A   18
 H3 
A   19
 H4 
A   20
 H5 
A   21
 H6 
M  END
>  <ref_pdb>  (120) 
x0051_0B

>  <ref_mols>  (120) 
x0051_0B

>  <original SMILES>  (120) 
[H]c1nc([H])c(Oc2c(Cl)c([H])nc([H])c2Br)c([H])c1[H]

>  <index>  (120) 
6146.0

>  <∆∆G>  (120) 
-2.59869

>  <comRMSD>  (120) 
0.900883

>  <N_constrained_atoms>  (120) 
13.0

>  <N_unconstrained_atoms>  (120) 
2.0

>  <LE>  (120) 
0.173246

>  <percent_hybrid>  (120) 
47.0

>  <largest_ring>  (120) 
6.0

>  <N_HA>  (120) 
15.0

>  <N_rotatable_bonds>  (120) 
2.0

>  <max_hit_Tanimoto>  (120) 
0.073113

>  <N_interactions_kept>  (120) 
1.0

>  <N_interactions_lost>  (120) 
0.0

>  <interaction_uniqueness_metric>  (120) 
0.045018

>  <N_interactions>  (120) 
3.0

>  <N_PAINS>  (120) 
0.0

>  <UFF_Gibbs>  (120) 
69.731483

>  <strain_per_HA>  (120) 
4.648735

>  <ad_hoc_penalty>  (120) 
-19.36955

>  <cluster>  (120) 
3565.0

>  <intxn_cluster>  (120) 
6.0

>  <keep>  (120) 
1.0

>  <hydroph_interaction:GLN:74>  (120) 
0.0

>  <hydroph_interaction:THR:118>  (120) 
0.0

>  <hydroph_interaction:ILE:123>  (120) 
0.0

>  <hydroph_interaction:THR:166>  (120) 
0.0

>  <hbond:GLN:167>  (120) 
2.0

>  <hydroph_interaction:ALA:88>  (120) 
0.0

>  <hydroph_interaction:ASP:120>  (120) 
0.0

>  <hydroph_interaction:GLN:167>  (120) 
0.0

>  <hbond:THR:118>  (120) 
1.0

>  <hydroph_interaction:ALA:164>  (120) 
0.0

>  <hbond:ASP:120>  (120) 
0.0

>  <hbond:THR:166>  (120) 
0.0

>  <hydroph_interaction:LEU:76>  (120) 
0.0

>  <hbond:ILE:165>  (120) 
0.0

>  <halogenbond:GLN:74>  (120) 
0.0

>  <hbond:GLN:74>  (120) 
0.0

>  <hbond:LYS:73>  (120) 
0.0

>  <pistack:TRP:69>  (120) 
0.0

>  <hbond:TRP:83>  (120) 
0.0

>  <hydroph_interaction:TRP:83>  (120) 
0.0

>  <hydroph_interaction:TRP:69>  (120) 
0.0

>  <pication:TRP:69>  (120) 
0.0

>  <hydroph_interaction:PRO:82>  (120) 
0.0

>  <halogenbond:LYS:73>  (120) 
0.0

>  <hydroph_interaction:TYR:68>  (120) 
0.0

>  <halogenbond:GLN:167>  (120) 
0.0

>  <hydroph_interaction:PHE:116>  (120) 
0.0

>  <hbond:TYR:68>  (120) 
0.0

>  <hbond:ASP:122>  (120) 
0.0

>  <pistack:PHE:116>  (120) 
0.0

>  <hydroph_interaction:VAL:154>  (120) 
0.0

>  <hydroph_interaction:ASP:75>  (120) 
0.0

>  <hbond:GLY:121>  (120) 
0.0

>  <hydroph_interaction:ASN:152>  (120) 
0.0

>  <halogenbond:ILE:165>  (120) 
0.0

$$$$
PV-002746154138-Z198195906S1-x0214S3
     RDKit          3D

 17 17  0  0  0  0  0  0  0  0999 V2000
  -10.5730   -4.5540  -10.1860 N   0  0  0  0  0  0  0  0  0  0  0  0
  -10.6620   -5.9040  -10.1980 C   0  0  0  0  0  0  0  0  0  0  0  0
   -9.7400   -6.5790  -10.6110 O   0  0  0  0  0  0  0  0  0  0  0  0
  -11.9340   -6.4730   -9.6300 C   0  0  0  0  0  0  0  0  0  0  0  0
  -12.2830   -6.0650   -8.1970 C   0  0  0  0  0  0  0  0  0  0  0  0
  -13.4210   -6.6270   -7.6780 C   0  0  0  0  0  0  0  0  0  0  0  0
  -14.2400   -7.5760   -8.5050 C   0  0  0  0  0  0  0  0  0  0  0  0
  -15.3950   -8.1550   -7.9720 N   0  0  0  0  0  0  0  0  0  0  0  0
  -13.7950   -7.8400   -9.8120 C   0  0  0  0  0  0  0  0  0  0  0  0
  -12.6860   -7.3200  -10.3890 N   0  0  0  0  0  0  0  0  0  0  0  0
  -11.2180   -4.0290   -9.6080 H   0  0  0  0  0  0  0  0  0  0  0  0
   -9.7520   -4.1050  -10.5680 H   0  0  0  0  0  0  0  0  0  0  0  0
  -11.6520   -5.3780   -7.6310 H   0  0  0  0  0  0  0  0  0  0  0  0
  -13.7970   -6.4370   -6.6680 H   0  0  0  0  0  0  0  0  0  0  0  0
  -15.9270   -8.7190   -8.6340 H   0  0  0  0  0  0  0  0  0  0  0  0
  -15.2600   -8.6330   -7.0840 H   0  0  0  0  0  0  0  0  0  0  0  0
  -14.3660   -8.5210  -10.4550 H   0  0  0  0  0  0  0  0  0  0  0  0
  1  2  1  0
  2  3  2  0
  2  4  1  0
  4  5  2  0
  5  6  1  0
  6  7  2  0
  7  8  1  0
  7  9  1  0
  9 10  2  0
 10  4  1  0
  1 11  1  0
  1 12  1  0
  5 13  1  0
  6 14  1  0
  8 15  1  0
  8 16  1  0
  9 17  1  0
A    1
 N1 
A    2
 C1 
A    3
 O1 
A    4
 C2 
A    5
 C3 
A    6
 C4 
A    7
 C5 
A    8
 N2 
A    9
 C6 
A   10
 N3 
A   11
 H1 
A   12
 H2 
A   13
 H3 
A   14
 H4 
A   15
 H5 
A   16
 H6 
A   17
 H7 
M  END
>  <ref_pdb>  (121) 
x0051_0B

>  <ref_mols>  (121) 
x0051_0B

>  <original SMILES>  (121) 
[H]c1nc(C(=O)N([H])[H])c([H])c([H])c1N([H])[H]

>  <index>  (121) 
2169.0

>  <∆∆G>  (121) 
-2.441041

>  <comRMSD>  (121) 
0.908725

>  <N_constrained_atoms>  (121) 
9.0

>  <N_unconstrained_atoms>  (121) 
1.0

>  <LE>  (121) 
0.244104

>  <percent_hybrid>  (121) 
38.0

>  <largest_ring>  (121) 
6.0

>  <N_HA>  (121) 
10.0

>  <N_rotatable_bonds>  (121) 
2.0

>  <max_hit_Tanimoto>  (121) 
0.116105

>  <N_interactions_kept>  (121) 
0.0

>  <N_interactions_lost>  (121) 
0.0

>  <interaction_uniqueness_metric>  (121) 
0.081333

>  <N_interactions>  (121) 
3.0

>  <N_PAINS>  (121) 
0.0

>  <UFF_Gibbs>  (121) 
40.807151

>  <strain_per_HA>  (121) 
4.080674

>  <ad_hoc_penalty>  (121) 
-19.365887

>  <cluster>  (121) 
5301.0

>  <intxn_cluster>  (121) 
8.0

>  <keep>  (121) 
1.0

>  <hydroph_interaction:GLN:74>  (121) 
0.0

>  <hydroph_interaction:THR:118>  (121) 
0.0

>  <hydroph_interaction:ILE:123>  (121) 
0.0

>  <hydroph_interaction:THR:166>  (121) 
0.0

>  <hbond:GLN:167>  (121) 
2.0

>  <hydroph_interaction:ALA:88>  (121) 
0.0

>  <hydroph_interaction:ASP:120>  (121) 
0.0

>  <hydroph_interaction:GLN:167>  (121) 
0.0

>  <hbond:THR:118>  (121) 
0.0

>  <hydroph_interaction:ALA:164>  (121) 
0.0

>  <hbond:ASP:120>  (121) 
0.0

>  <hbond:THR:166>  (121) 
1.0

>  <hydroph_interaction:LEU:76>  (121) 
0.0

>  <hbond:ILE:165>  (121) 
0.0

>  <halogenbond:GLN:74>  (121) 
0.0

>  <hbond:GLN:74>  (121) 
0.0

>  <hbond:LYS:73>  (121) 
0.0

>  <pistack:TRP:69>  (121) 
0.0

>  <hbond:TRP:83>  (121) 
0.0

>  <hydroph_interaction:TRP:83>  (121) 
0.0

>  <hydroph_interaction:TRP:69>  (121) 
0.0

>  <pication:TRP:69>  (121) 
0.0

>  <hydroph_interaction:PRO:82>  (121) 
0.0

>  <halogenbond:LYS:73>  (121) 
0.0

>  <hydroph_interaction:TYR:68>  (121) 
0.0

>  <halogenbond:GLN:167>  (121) 
0.0

>  <hydroph_interaction:PHE:116>  (121) 
0.0

>  <hbond:TYR:68>  (121) 
0.0

>  <hbond:ASP:122>  (121) 
0.0

>  <pistack:PHE:116>  (121) 
0.0

>  <hydroph_interaction:VAL:154>  (121) 
0.0

>  <hydroph_interaction:ASP:75>  (121) 
0.0

>  <hbond:GLY:121>  (121) 
0.0

>  <hydroph_interaction:ASN:152>  (121) 
0.0

>  <halogenbond:ILE:165>  (121) 
0.0

$$$$
PV-002462202501-x0214S3-Z198195906S10
     RDKit          3D

 28 29  0  0  0  0  0  0  0  0999 V2000
  -11.7860   -5.0170  -10.3740 C   0  0  0  0  0  0  0  0  0  0  0  0
  -12.4310   -6.0380   -9.6930 C   0  0  0  0  0  0  0  0  0  0  0  0
  -11.9510   -6.3550   -8.4570 C   0  0  0  0  0  0  0  0  0  0  0  0
  -12.5190   -7.3790   -7.7180 C   0  0  0  0  0  0  0  0  0  0  0  0
  -11.7940   -7.7380   -6.1650 S   0  0  0  0  0  0  0  0  0  0  0  0
  -10.3480   -8.3560   -7.0940 C   0  0  0  0  0  0  0  0  0  0  0  0
  -10.6720   -9.7420   -7.6730 C   0  0  0  0  0  0  0  0  0  0  0  0
  -11.8500  -10.5230   -7.1530 C   0  0  0  0  0  0  0  0  0  0  0  0
  -12.1460  -11.9030   -7.7170 C   0  0  0  0  0  0  0  0  0  0  0  0
  -11.3360  -12.4370   -8.7040 C   0  0  0  0  0  0  0  0  0  0  0  0
  -10.1560  -11.6130   -9.2090 C   0  0  0  0  0  0  0  0  0  0  0  0
   -9.8910  -10.3340   -8.6870 C   0  0  0  0  0  0  0  0  0  0  0  0
  -13.5890   -8.0970   -8.2020 C   0  0  0  0  0  0  0  0  0  0  0  0
  -14.0720   -7.6880   -9.5730 C   0  0  0  0  0  0  0  0  0  0  0  0
  -13.4840   -6.6960  -10.2560 N   0  0  0  0  0  0  0  0  0  0  0  0
  -10.7060   -5.0610  -10.1990 H   0  0  0  0  0  0  0  0  0  0  0  0
  -12.1310   -4.0290  -10.0560 H   0  0  0  0  0  0  0  0  0  0  0  0
  -11.9370   -5.1110  -11.4480 H   0  0  0  0  0  0  0  0  0  0  0  0
  -11.1050   -5.8100   -8.0410 H   0  0  0  0  0  0  0  0  0  0  0  0
  -10.0940   -7.5880   -7.8180 H   0  0  0  0  0  0  0  0  0  0  0  0
   -9.5270   -8.3190   -6.3790 H   0  0  0  0  0  0  0  0  0  0  0  0
  -12.4970  -10.1120   -6.3690 H   0  0  0  0  0  0  0  0  0  0  0  0
  -13.0190  -12.4080   -7.2830 H   0  0  0  0  0  0  0  0  0  0  0  0
  -11.5330  -13.4240   -9.1130 H   0  0  0  0  0  0  0  0  0  0  0  0
   -9.5130  -12.0230   -9.9840 H   0  0  0  0  0  0  0  0  0  0  0  0
   -9.0480   -9.7870   -9.0830 H   0  0  0  0  0  0  0  0  0  0  0  0
  -14.0600   -8.9050   -7.6510 H   0  0  0  0  0  0  0  0  0  0  0  0
  -14.9090   -8.1820  -10.0610 H   0  0  0  0  0  0  0  0  0  0  0  0
  1  2  1  0
  2  3  2  0
  3  4  1  0
  4  5  1  0
  5  6  1  0
  6  7  1  0
  7  8  2  0
  8  9  1  0
  9 10  2  0
 10 11  1  0
 11 12  2  0
  4 13  2  0
 13 14  1  0
 14 15  2  0
 15  2  1  0
 12  7  1  0
  1 16  1  0
  1 17  1  0
  1 18  1  0
  3 19  1  0
  6 20  1  0
  6 21  1  0
  8 22  1  0
  9 23  1  0
 10 24  1  0
 11 25  1  0
 12 26  1  0
 13 27  1  0
 14 28  1  0
A    1
 C1 
A    2
 C2 
A    3
 C3 
A    4
 C4 
A    5
 S1 
A    6
 C5 
A    7
 C6 
A    8
 C7 
A    9
 C8 
A   10
 C9 
A   11
 C10
A   12
 C11
A   13
 C12
A   14
 C13
A   15
 N1 
A   16
 H1 
A   17
 H2 
A   18
 H3 
A   19
 H4 
A   20
 H5 
A   21
 H6 
A   22
 H7 
A   23
 H8 
A   24
 H9 
A   25
 H10
A   26
 H11
A   27
 H12
A   28
 H13
M  END
>  <ref_pdb>  (122) 
x0051_0B

>  <ref_mols>  (122) 
x0051_0B

>  <original SMILES>  (122) 
[H]c1nc(C([H])([H])[H])c([H])c(SC([H])([H])c2c([H])c([H])c([H])c([H])c2[H])c1[H]

>  <index>  (122) 
6195.0

>  <∆∆G>  (122) 
-4.084998

>  <comRMSD>  (122) 
0.652601

>  <N_constrained_atoms>  (122) 
13.0

>  <N_unconstrained_atoms>  (122) 
2.0

>  <LE>  (122) 
0.272333

>  <percent_hybrid>  (122) 
47.0

>  <largest_ring>  (122) 
6.0

>  <N_HA>  (122) 
15.0

>  <N_rotatable_bonds>  (122) 
4.0

>  <max_hit_Tanimoto>  (122) 
0.144531

>  <N_interactions_kept>  (122) 
0.0

>  <N_interactions_lost>  (122) 
1.0

>  <interaction_uniqueness_metric>  (122) 
0.116904

>  <N_interactions>  (122) 
5.0

>  <N_PAINS>  (122) 
0.0

>  <UFF_Gibbs>  (122) 
62.336311

>  <strain_per_HA>  (122) 
4.155726

>  <ad_hoc_penalty>  (122) 
-19.337612

>  <cluster>  (122) 
3519.0

>  <intxn_cluster>  (122) 
2.0

>  <keep>  (122) 
1.0

>  <hydroph_interaction:GLN:74>  (122) 
0.0

>  <hydroph_interaction:THR:118>  (122) 
1.0

>  <hydroph_interaction:ILE:123>  (122) 
1.0

>  <hydroph_interaction:THR:166>  (122) 
1.0

>  <hbond:GLN:167>  (122) 
1.0

>  <hydroph_interaction:ALA:88>  (122) 
0.0

>  <hydroph_interaction:ASP:120>  (122) 
0.0

>  <hydroph_interaction:GLN:167>  (122) 
0.0

>  <hbond:THR:118>  (122) 
0.0

>  <hydroph_interaction:ALA:164>  (122) 
1.0

>  <hbond:ASP:120>  (122) 
0.0

>  <hbond:THR:166>  (122) 
0.0

>  <hydroph_interaction:LEU:76>  (122) 
0.0

>  <hbond:ILE:165>  (122) 
0.0

>  <halogenbond:GLN:74>  (122) 
0.0

>  <hbond:GLN:74>  (122) 
0.0

>  <hbond:LYS:73>  (122) 
0.0

>  <pistack:TRP:69>  (122) 
0.0

>  <hbond:TRP:83>  (122) 
0.0

>  <hydroph_interaction:TRP:83>  (122) 
0.0

>  <hydroph_interaction:TRP:69>  (122) 
0.0

>  <pication:TRP:69>  (122) 
0.0

>  <hydroph_interaction:PRO:82>  (122) 
0.0

>  <halogenbond:LYS:73>  (122) 
0.0

>  <hydroph_interaction:TYR:68>  (122) 
0.0

>  <halogenbond:GLN:167>  (122) 
0.0

>  <hydroph_interaction:PHE:116>  (122) 
0.0

>  <hbond:TYR:68>  (122) 
0.0

>  <hbond:ASP:122>  (122) 
0.0

>  <pistack:PHE:116>  (122) 
0.0

>  <hydroph_interaction:VAL:154>  (122) 
0.0

>  <hydroph_interaction:ASP:75>  (122) 
0.0

>  <hbond:GLY:121>  (122) 
0.0

>  <hydroph_interaction:ASN:152>  (122) 
0.0

>  <halogenbond:ILE:165>  (122) 
0.0

$$$$
PV-002724759163-x0214S3-Z198195906S10
     RDKit          3D

 28 29  0  0  0  0  0  0  0  0999 V2000
  -11.6400   -4.8000  -10.4450 C   0  0  0  0  0  0  0  0  0  0  0  0
  -12.3020   -5.9460   -9.7090 C   0  0  0  0  0  0  0  0  0  0  0  0
  -11.6930   -6.3730   -8.4250 C   0  0  0  0  0  0  0  0  0  0  0  0
  -12.3480   -7.5430   -7.7120 C   0  0  0  0  0  0  0  0  0  0  0  0
  -11.8890   -8.0630   -6.5750 O   0  0  0  0  0  0  0  0  0  0  0  0
  -10.6970   -8.6430   -6.8280 C   0  0  0  0  0  0  0  0  0  0  0  0
  -10.8610   -9.8590   -7.5050 C   0  0  0  0  0  0  0  0  0  0  0  0
  -11.9530  -10.6610   -7.2260 C   0  0  0  0  0  0  0  0  0  0  0  0
  -12.1210  -11.8750   -7.8680 C   0  0  0  0  0  0  0  0  0  0  0  0
  -11.1090  -12.3870   -8.9130 C   0  0  0  0  0  0  0  0  0  0  0  0
  -10.0500  -11.5020   -9.1260 C   0  0  0  0  0  0  0  0  0  0  0  0
   -9.9310  -10.2860   -8.4560 C   0  0  0  0  0  0  0  0  0  0  0  0
  -13.4690   -8.1310   -8.2700 C   0  0  0  0  0  0  0  0  0  0  0  0
  -14.0030   -7.6850   -9.4740 C   0  0  0  0  0  0  0  0  0  0  0  0
  -13.4940   -6.6660  -10.2020 N   0  0  0  0  0  0  0  0  0  0  0  0
  -12.0770   -3.8400  -10.1560 H   0  0  0  0  0  0  0  0  0  0  0  0
  -10.5690   -4.7510  -10.2330 H   0  0  0  0  0  0  0  0  0  0  0  0
  -11.7530   -4.9400  -11.5190 H   0  0  0  0  0  0  0  0  0  0  0  0
  -10.8120   -5.8900   -8.0080 H   0  0  0  0  0  0  0  0  0  0  0  0
  -10.2660   -8.8390   -5.8390 H   0  0  0  0  0  0  0  0  0  0  0  0
  -10.0310   -7.9050   -7.2680 H   0  0  0  0  0  0  0  0  0  0  0  0
  -12.6900  -10.3420   -6.4930 H   0  0  0  0  0  0  0  0  0  0  0  0
  -12.9880  -12.4850   -7.6280 H   0  0  0  0  0  0  0  0  0  0  0  0
  -11.2090  -13.3370   -9.4300 H   0  0  0  0  0  0  0  0  0  0  0  0
   -9.2840  -11.7780   -9.8500 H   0  0  0  0  0  0  0  0  0  0  0  0
   -9.0790   -9.6470   -8.6790 H   0  0  0  0  0  0  0  0  0  0  0  0
  -14.0130   -8.9730   -7.8310 H   0  0  0  0  0  0  0  0  0  0  0  0
  -14.8830   -8.1530   -9.9020 H   0  0  0  0  0  0  0  0  0  0  0  0
  1  2  1  0
  2  3  2  0
  3  4  1  0
  4  5  1  0
  5  6  1  0
  6  7  1  0
  7  8  2  0
  8  9  1  0
  9 10  2  0
 10 11  1  0
 11 12  2  0
  4 13  2  0
 13 14  1  0
 14 15  2  0
 15  2  1  0
 12  7  1  0
  1 16  1  0
  1 17  1  0
  1 18  1  0
  3 19  1  0
  6 20  1  0
  6 21  1  0
  8 22  1  0
  9 23  1  0
 10 24  1  0
 11 25  1  0
 12 26  1  0
 13 27  1  0
 14 28  1  0
A    1
 C1 
A    2
 C2 
A    3
 C3 
A    4
 C4 
A    5
 O1 
A    6
 C5 
A    7
 C6 
A    8
 C7 
A    9
 C8 
A   10
 C9 
A   11
 C10
A   12
 C11
A   13
 C12
A   14
 C13
A   15
 N1 
A   16
 H1 
A   17
 H2 
A   18
 H3 
A   19
 H4 
A   20
 H5 
A   21
 H6 
A   22
 H7 
A   23
 H8 
A   24
 H9 
A   25
 H10
A   26
 H11
A   27
 H12
A   28
 H13
M  END
>  <ref_pdb>  (123) 
x0051_0B

>  <ref_mols>  (123) 
x0051_0B

>  <original SMILES>  (123) 
[H]c1nc(C([H])([H])[H])c([H])c(OC([H])([H])c2c([H])c([H])c([H])c([H])c2[H])c1[H]

>  <index>  (123) 
6173.0

>  <∆∆G>  (123) 
-4.03775

>  <comRMSD>  (123) 
0.756285

>  <N_constrained_atoms>  (123) 
13.0

>  <N_unconstrained_atoms>  (123) 
2.0

>  <LE>  (123) 
0.269183

>  <percent_hybrid>  (123) 
47.0

>  <largest_ring>  (123) 
6.0

>  <N_HA>  (123) 
15.0

>  <N_rotatable_bonds>  (123) 
4.0

>  <max_hit_Tanimoto>  (123) 
0.149194

>  <N_interactions_kept>  (123) 
0.0

>  <N_interactions_lost>  (123) 
1.0

>  <interaction_uniqueness_metric>  (123) 
0.116904

>  <N_interactions>  (123) 
5.0

>  <N_PAINS>  (123) 
0.0

>  <UFF_Gibbs>  (123) 
72.497435

>  <strain_per_HA>  (123) 
4.83313

>  <ad_hoc_penalty>  (123) 
-19.200532

>  <cluster>  (123) 
3538.0

>  <intxn_cluster>  (123) 
2.0

>  <keep>  (123) 
1.0

>  <hydroph_interaction:GLN:74>  (123) 
0.0

>  <hydroph_interaction:THR:118>  (123) 
1.0

>  <hydroph_interaction:ILE:123>  (123) 
1.0

>  <hydroph_interaction:THR:166>  (123) 
1.0

>  <hbond:GLN:167>  (123) 
1.0

>  <hydroph_interaction:ALA:88>  (123) 
0.0

>  <hydroph_interaction:ASP:120>  (123) 
0.0

>  <hydroph_interaction:GLN:167>  (123) 
0.0

>  <hbond:THR:118>  (123) 
0.0

>  <hydroph_interaction:ALA:164>  (123) 
1.0

>  <hbond:ASP:120>  (123) 
0.0

>  <hbond:THR:166>  (123) 
0.0

>  <hydroph_interaction:LEU:76>  (123) 
0.0

>  <hbond:ILE:165>  (123) 
0.0

>  <halogenbond:GLN:74>  (123) 
0.0

>  <hbond:GLN:74>  (123) 
0.0

>  <hbond:LYS:73>  (123) 
0.0

>  <pistack:TRP:69>  (123) 
0.0

>  <hbond:TRP:83>  (123) 
0.0

>  <hydroph_interaction:TRP:83>  (123) 
0.0

>  <hydroph_interaction:TRP:69>  (123) 
0.0

>  <pication:TRP:69>  (123) 
0.0

>  <hydroph_interaction:PRO:82>  (123) 
0.0

>  <halogenbond:LYS:73>  (123) 
0.0

>  <hydroph_interaction:TYR:68>  (123) 
0.0

>  <halogenbond:GLN:167>  (123) 
0.0

>  <hydroph_interaction:PHE:116>  (123) 
0.0

>  <hbond:TYR:68>  (123) 
0.0

>  <hbond:ASP:122>  (123) 
0.0

>  <pistack:PHE:116>  (123) 
0.0

>  <hydroph_interaction:VAL:154>  (123) 
0.0

>  <hydroph_interaction:ASP:75>  (123) 
0.0

>  <hbond:GLY:121>  (123) 
0.0

>  <hydroph_interaction:ASN:152>  (123) 
0.0

>  <halogenbond:ILE:165>  (123) 
0.0

$$$$
Z1787516679-x0214S3-Z1318054286S3
     RDKit          3D

 20 21  0  0  0  0  0  0  0  0999 V2000
   -9.2460   -8.5220   -8.9220 Cl  0  0  0  0  0  0  0  0  0  0  0  0
  -10.2200   -9.9190   -8.6550 C   0  0  0  0  0  0  0  0  0  0  0  0
   -9.8260  -11.2800   -9.2530 C   0  0  0  0  0  0  0  0  0  0  0  0
  -10.7350  -12.3960   -8.9790 N   0  0  0  0  0  0  0  0  0  0  0  0
  -11.8500  -12.1860   -8.2230 C   0  0  0  0  0  0  0  0  0  0  0  0
  -12.2150  -10.9160   -7.6500 N   0  0  0  0  0  0  0  0  0  0  0  0
  -11.3870   -9.8800   -7.8980 C   0  0  0  0  0  0  0  0  0  0  0  0
  -11.7630   -8.6470   -7.3120 O   0  0  0  0  0  0  0  0  0  0  0  0
  -12.4670   -7.7820   -8.1160 C   0  0  0  0  0  0  0  0  0  0  0  0
  -12.2890   -6.4370   -7.8040 C   0  0  0  0  0  0  0  0  0  0  0  0
  -12.9310   -5.4770   -8.5340 C   0  0  0  0  0  0  0  0  0  0  0  0
  -13.7370   -5.8870   -9.5650 C   0  0  0  0  0  0  0  0  0  0  0  0
  -13.9580   -7.2850   -9.9400 N   0  0  0  0  0  0  0  0  0  0  0  0
  -13.2960   -8.1630   -9.1680 C   0  0  0  0  0  0  0  0  0  0  0  0
   -8.9390  -11.4620   -9.8560 H   0  0  0  0  0  0  0  0  0  0  0  0
  -12.5040  -13.0350   -8.0400 H   0  0  0  0  0  0  0  0  0  0  0  0
  -11.6410   -6.1500   -6.9810 H   0  0  0  0  0  0  0  0  0  0  0  0
  -12.8100   -4.4190   -8.3070 H   0  0  0  0  0  0  0  0  0  0  0  0
  -14.2520   -5.1670  -10.1450 H   0  0  0  0  0  0  0  0  0  0  0  0
  -13.4530   -9.2140   -9.4300 H   0  0  0  0  0  0  0  0  0  0  0  0
  1  2  1  0
  2  3  2  0
  3  4  1  0
  4  5  2  0
  5  6  1  0
  6  7  2  0
  7  8  1  0
  8  9  1  0
  9 10  2  0
 10 11  1  0
 11 12  2  0
 12 13  1  0
 13 14  2  0
  7  2  1  0
 14  9  1  0
  3 15  1  0
  5 16  1  0
 10 17  1  0
 11 18  1  0
 12 19  1  0
 14 20  1  0
A    1
CL1 
A    2
 C1 
A    3
 C2 
A    4
 N1 
A    5
 C3 
A    6
 N2 
A    7
 C4 
A    8
 O1 
A    9
 C5 
A   10
 C6 
A   11
 C7 
A   12
 C8 
A   13
 N3 
A   14
 C9 
A   15
 H1 
A   16
 H2 
A   17
 H3 
A   18
 H4 
A   19
 H5 
A   20
 H6 
M  END
>  <ref_pdb>  (124) 
x0051_0B

>  <ref_mols>  (124) 
x0051_0B

>  <original SMILES>  (124) 
[H]c1nc([H])c(Cl)c(Oc2c([H])nc([H])c([H])c2[H])n1

>  <index>  (124) 
6155.0

>  <∆∆G>  (124) 
-2.329806

>  <comRMSD>  (124) 
0.845385

>  <N_constrained_atoms>  (124) 
13.0

>  <N_unconstrained_atoms>  (124) 
1.0

>  <LE>  (124) 
0.166415

>  <percent_hybrid>  (124) 
47.0

>  <largest_ring>  (124) 
6.0

>  <N_HA>  (124) 
14.0

>  <N_rotatable_bonds>  (124) 
2.0

>  <max_hit_Tanimoto>  (124) 
0.081579

>  <N_interactions_kept>  (124) 
1.0

>  <N_interactions_lost>  (124) 
0.0

>  <interaction_uniqueness_metric>  (124) 
0.045018

>  <N_interactions>  (124) 
3.0

>  <N_PAINS>  (124) 
0.0

>  <UFF_Gibbs>  (124) 
50.238676

>  <strain_per_HA>  (124) 
3.588451

>  <ad_hoc_penalty>  (124) 
-19.071364

>  <cluster>  (124) 
3556.0

>  <intxn_cluster>  (124) 
6.0

>  <keep>  (124) 
1.0

>  <hydroph_interaction:GLN:74>  (124) 
0.0

>  <hydroph_interaction:THR:118>  (124) 
0.0

>  <hydroph_interaction:ILE:123>  (124) 
0.0

>  <hydroph_interaction:THR:166>  (124) 
0.0

>  <hbond:GLN:167>  (124) 
2.0

>  <hydroph_interaction:ALA:88>  (124) 
0.0

>  <hydroph_interaction:ASP:120>  (124) 
0.0

>  <hydroph_interaction:GLN:167>  (124) 
0.0

>  <hbond:THR:118>  (124) 
1.0

>  <hydroph_interaction:ALA:164>  (124) 
0.0

>  <hbond:ASP:120>  (124) 
0.0

>  <hbond:THR:166>  (124) 
0.0

>  <hydroph_interaction:LEU:76>  (124) 
0.0

>  <hbond:ILE:165>  (124) 
0.0

>  <halogenbond:GLN:74>  (124) 
0.0

>  <hbond:GLN:74>  (124) 
0.0

>  <hbond:LYS:73>  (124) 
0.0

>  <pistack:TRP:69>  (124) 
0.0

>  <hbond:TRP:83>  (124) 
0.0

>  <hydroph_interaction:TRP:83>  (124) 
0.0

>  <hydroph_interaction:TRP:69>  (124) 
0.0

>  <pication:TRP:69>  (124) 
0.0

>  <hydroph_interaction:PRO:82>  (124) 
0.0

>  <halogenbond:LYS:73>  (124) 
0.0

>  <hydroph_interaction:TYR:68>  (124) 
0.0

>  <halogenbond:GLN:167>  (124) 
0.0

>  <hydroph_interaction:PHE:116>  (124) 
0.0

>  <hbond:TYR:68>  (124) 
0.0

>  <hbond:ASP:122>  (124) 
0.0

>  <pistack:PHE:116>  (124) 
0.0

>  <hydroph_interaction:VAL:154>  (124) 
0.0

>  <hydroph_interaction:ASP:75>  (124) 
0.0

>  <hbond:GLY:121>  (124) 
0.0

>  <hydroph_interaction:ASN:152>  (124) 
0.0

>  <halogenbond:ILE:165>  (124) 
0.0

$$$$
PV-002213921911-x0214S1-Z198195906S6
     RDKit          3D

 20 20  0  0  0  0  0  0  0  0999 V2000
  -10.5550   -6.4980   -9.9910 C   0  0  0  0  0  0  0  0  0  0  0  0
  -10.3100   -7.5570   -9.0330 N   0  0  0  0  0  0  0  0  0  0  0  0
   -9.0070   -7.7860   -8.4670 C   0  0  0  0  0  0  0  0  0  0  0  0
   -9.2560   -8.8980   -7.4290 C   0  0  0  0  0  0  0  0  0  0  0  0
  -10.7640   -9.0610   -7.2150 C   0  0  0  0  0  0  0  0  0  0  0  0
  -11.2150  -10.3600   -7.3760 C   0  0  0  0  0  0  0  0  0  0  0  0
  -11.0070  -11.1820   -6.3270 N   0  0  0  0  0  0  0  0  0  0  0  0
  -11.7710  -10.7780   -8.3830 O   0  0  0  0  0  0  0  0  0  0  0  0
  -11.3300   -8.0960   -8.2430 C   0  0  0  0  0  0  0  0  0  0  0  0
  -12.5200   -7.8360   -8.3580 O   0  0  0  0  0  0  0  0  0  0  0  0
   -9.8030   -6.5360  -10.7880 H   0  0  0  0  0  0  0  0  0  0  0  0
  -11.5470   -6.6030  -10.4510 H   0  0  0  0  0  0  0  0  0  0  0  0
  -10.4930   -5.5260   -9.4940 H   0  0  0  0  0  0  0  0  0  0  0  0
   -8.3300   -8.0910   -9.2700 H   0  0  0  0  0  0  0  0  0  0  0  0
   -8.6190   -6.8750   -8.0040 H   0  0  0  0  0  0  0  0  0  0  0  0
   -8.7850   -8.6200   -6.4780 H   0  0  0  0  0  0  0  0  0  0  0  0
   -8.8180   -9.8440   -7.7460 H   0  0  0  0  0  0  0  0  0  0  0  0
  -11.0810   -8.7120   -6.2270 H   0  0  0  0  0  0  0  0  0  0  0  0
  -11.6390  -11.9660   -6.1840 H   0  0  0  0  0  0  0  0  0  0  0  0
  -10.6330  -10.7480   -5.4890 H   0  0  0  0  0  0  0  0  0  0  0  0
  1  2  1  0
  2  3  1  0
  3  4  1  0
  4  5  1  0
  5  6  1  0
  6  7  1  0
  6  8  2  0
  5  9  1  0
  9 10  2  0
  9  2  1  0
  1 11  1  0
  1 12  1  0
  1 13  1  0
  3 14  1  0
  3 15  1  0
  4 16  1  0
  4 17  1  0
  5 18  1  0
  7 19  1  0
  7 20  1  0
A    1
 C1 
A    2
 N1 
A    3
 C2 
A    4
 C3 
A    5
 C4 
A    6
 C5 
A    7
 N2 
A    8
 O1 
A    9
 C6 
A   10
 O2 
A   11
 H1 
A   12
 H2 
A   13
 H3 
A   14
 H4 
A   15
 H5 
A   16
 H6 
A   17
 H7 
A   18
 H8 
A   19
 H9 
A   20
 H10
M  END
>  <ref_pdb>  (125) 
x0051_0B

>  <ref_mols>  (125) 
x0051_0B

>  <original SMILES>  (125) 
[H]N([H])C(=O)C1([H])C(=O)N(C([H])([H])[H])C([H])([H])C1([H])[H]

>  <index>  (125) 
8038.0

>  <∆∆G>  (125) 
-2.72609

>  <comRMSD>  (125) 
0.740411

>  <N_constrained_atoms>  (125) 
9.0

>  <N_unconstrained_atoms>  (125) 
3.0

>  <LE>  (125) 
0.227174

>  <percent_hybrid>  (125) 
45.0

>  <largest_ring>  (125) 
5.0

>  <N_HA>  (125) 
10.0

>  <N_rotatable_bonds>  (125) 
2.0

>  <max_hit_Tanimoto>  (125) 
0.04065

>  <N_interactions_kept>  (125) 
0.0

>  <N_interactions_lost>  (125) 
0.0

>  <interaction_uniqueness_metric>  (125) 
0.076368

>  <N_interactions>  (125) 
3.0

>  <N_PAINS>  (125) 
0.0

>  <UFF_Gibbs>  (125) 
24.349886

>  <strain_per_HA>  (125) 
2.434964

>  <ad_hoc_penalty>  (125) 
-19.046288

>  <cluster>  (125) 
2842.0

>  <intxn_cluster>  (125) 
15.0

>  <keep>  (125) 
1.0

>  <hydroph_interaction:GLN:74>  (125) 
0.0

>  <hydroph_interaction:THR:118>  (125) 
1.0

>  <hydroph_interaction:ILE:123>  (125) 
1.0

>  <hydroph_interaction:THR:166>  (125) 
0.0

>  <hbond:GLN:167>  (125) 
0.0

>  <hydroph_interaction:ALA:88>  (125) 
0.0

>  <hydroph_interaction:ASP:120>  (125) 
0.0

>  <hydroph_interaction:GLN:167>  (125) 
0.0

>  <hbond:THR:118>  (125) 
0.0

>  <hydroph_interaction:ALA:164>  (125) 
0.0

>  <hbond:ASP:120>  (125) 
1.0

>  <hbond:THR:166>  (125) 
0.0

>  <hydroph_interaction:LEU:76>  (125) 
0.0

>  <hbond:ILE:165>  (125) 
0.0

>  <halogenbond:GLN:74>  (125) 
0.0

>  <hbond:GLN:74>  (125) 
0.0

>  <hbond:LYS:73>  (125) 
0.0

>  <pistack:TRP:69>  (125) 
0.0

>  <hbond:TRP:83>  (125) 
0.0

>  <hydroph_interaction:TRP:83>  (125) 
0.0

>  <hydroph_interaction:TRP:69>  (125) 
0.0

>  <pication:TRP:69>  (125) 
0.0

>  <hydroph_interaction:PRO:82>  (125) 
0.0

>  <halogenbond:LYS:73>  (125) 
0.0

>  <hydroph_interaction:TYR:68>  (125) 
0.0

>  <halogenbond:GLN:167>  (125) 
0.0

>  <hydroph_interaction:PHE:116>  (125) 
0.0

>  <hbond:TYR:68>  (125) 
0.0

>  <hbond:ASP:122>  (125) 
0.0

>  <pistack:PHE:116>  (125) 
0.0

>  <hydroph_interaction:VAL:154>  (125) 
0.0

>  <hydroph_interaction:ASP:75>  (125) 
0.0

>  <hbond:GLY:121>  (125) 
0.0

>  <hydroph_interaction:ASN:152>  (125) 
0.0

>  <halogenbond:ILE:165>  (125) 
0.0

$$$$
Z2298312870-x0214S4-x0214S2
     RDKit          3D

 34 35  0  0  0  0  0  0  0  0999 V2000
   -9.3660   -9.3460   -7.5270 C   0  0  0  0  0  0  0  0  0  0  0  0
  -10.6700   -9.0480   -7.0380 O   0  0  0  0  0  0  0  0  0  0  0  0
  -11.6230   -9.8380   -7.5960 C   0  0  0  0  0  0  0  0  0  0  0  0
  -11.3670  -10.9800   -7.9350 O   0  0  0  0  0  0  0  0  0  0  0  0
  -12.8860   -9.2390   -7.7360 N   0  0  0  0  0  0  0  0  0  0  0  0
  -14.0840   -9.8940   -7.2030 C   0  0  0  0  0  0  0  0  0  0  0  0
  -14.4530   -9.3770   -5.9680 C   0  0  0  0  0  0  0  0  0  0  0  0
  -13.9990   -8.0360   -5.8050 O   0  0  0  0  0  0  0  0  0  0  0  0
  -14.1160   -7.2780   -7.0110 C   0  0  0  0  0  0  0  0  0  0  0  0
  -13.1470   -7.8050   -8.1050 C   0  0  0  0  0  0  0  0  0  0  0  0
  -13.7870   -7.6500   -9.5080 C   0  0  0  0  0  0  0  0  0  0  0  0
  -12.6240   -7.4680  -10.4680 C   0  0  0  0  0  0  0  0  0  0  0  0
  -12.1110   -6.0470  -10.2850 C   0  0  0  0  0  0  0  0  0  0  0  0
  -12.0340   -5.6640   -8.8190 C   0  0  0  0  0  0  0  0  0  0  0  0
  -11.9140   -6.8980   -7.9460 C   0  0  0  0  0  0  0  0  0  0  0  0
   -9.1090   -8.7090   -8.3830 H   0  0  0  0  0  0  0  0  0  0  0  0
   -8.6380   -9.1760   -6.7190 H   0  0  0  0  0  0  0  0  0  0  0  0
   -9.2790  -10.4000   -7.8220 H   0  0  0  0  0  0  0  0  0  0  0  0
  -13.9440  -10.9760   -7.1060 H   0  0  0  0  0  0  0  0  0  0  0  0
  -14.8790   -9.7200   -7.9400 H   0  0  0  0  0  0  0  0  0  0  0  0
  -15.4450   -9.3480   -5.5430 H   0  0  0  0  0  0  0  0  0  0  0  0
  -13.8780   -9.9410   -5.2270 H   0  0  0  0  0  0  0  0  0  0  0  0
  -13.9140   -6.2380   -6.7570 H   0  0  0  0  0  0  0  0  0  0  0  0
  -15.1610   -7.3290   -7.3460 H   0  0  0  0  0  0  0  0  0  0  0  0
  -14.4270   -6.7610   -9.5510 H   0  0  0  0  0  0  0  0  0  0  0  0
  -14.4040   -8.5140   -9.7760 H   0  0  0  0  0  0  0  0  0  0  0  0
  -12.9830   -7.6000  -11.4950 H   0  0  0  0  0  0  0  0  0  0  0  0
  -11.8390   -8.1940  -10.2790 H   0  0  0  0  0  0  0  0  0  0  0  0
  -11.1060   -5.9500  -10.7000 H   0  0  0  0  0  0  0  0  0  0  0  0
  -12.7450   -5.3400  -10.8020 H   0  0  0  0  0  0  0  0  0  0  0  0
  -12.9340   -5.1080   -8.5280 H   0  0  0  0  0  0  0  0  0  0  0  0
  -11.1900   -4.9850   -8.6550 H   0  0  0  0  0  0  0  0  0  0  0  0
  -11.7930   -6.5670   -6.9080 H   0  0  0  0  0  0  0  0  0  0  0  0
  -10.9920   -7.4400   -8.1930 H   0  0  0  0  0  0  0  0  0  0  0  0
  1  2  1  0
  2  3  1  0
  3  4  2  0
  3  5  1  0
  5  6  1  0
  6  7  1  0
  7  8  1  0
  8  9  1  0
  9 10  1  0
 10 11  1  0
 11 12  1  0
 12 13  1  0
 13 14  1  0
 14 15  1  0
 10  5  1  0
 15 10  1  0
  1 16  1  0
  1 17  1  0
  1 18  1  0
  6 19  1  0
  6 20  1  0
  7 21  1  0
  7 22  1  0
  9 23  1  0
  9 24  1  0
 11 25  1  0
 11 26  1  0
 12 27  1  0
 12 28  1  0
 13 29  1  0
 13 30  1  0
 14 31  1  0
 14 32  1  0
 15 33  1  0
 15 34  1  0
A    1
 C1 
A    2
 O1 
A    3
 C2 
A    4
 O2 
A    5
 N1 
A    6
 C3 
A    7
 C4 
A    8
 O3 
A    9
 C5 
A   10
 C6 
A   11
 C7 
A   12
 C8 
A   13
 C9 
A   14
 C10
A   15
 C11
A   16
 H1 
A   17
 H2 
A   18
 H3 
A   19
 H4 
A   20
 H5 
A   21
 H6 
A   22
 H7 
A   23
 H8 
A   24
 H9 
A   25
 H10
A   26
 H11
A   27
 H12
A   28
 H13
A   29
 H14
A   30
 H15
A   31
 H16
A   32
 H17
A   33
 H18
A   34
 H19
M  END
>  <ref_pdb>  (126) 
x0051_0B

>  <ref_mols>  (126) 
x0051_0B

>  <original SMILES>  (126) 
[H]C([H])([H])OC(=O)N1C([H])([H])C([H])([H])OC([H])([H])C12C([H])([H])C([H])([H])C([H])([H])C([H])([H])C2([H])[H]

>  <index>  (126) 
9275.0

>  <∆∆G>  (126) 
-3.135394

>  <comRMSD>  (126) 
0.956987

>  <N_constrained_atoms>  (126) 
14.0

>  <N_unconstrained_atoms>  (126) 
2.0

>  <LE>  (126) 
0.195962

>  <percent_hybrid>  (126) 
40.0

>  <largest_ring>  (126) 
6.0

>  <N_HA>  (126) 
15.0

>  <N_rotatable_bonds>  (126) 
1.0

>  <max_hit_Tanimoto>  (126) 
0.120739

>  <N_interactions_kept>  (126) 
0.0

>  <N_interactions_lost>  (126) 
0.0

>  <interaction_uniqueness_metric>  (126) 
0.035004

>  <N_interactions>  (126) 
2.0

>  <N_PAINS>  (126) 
0.0

>  <UFF_Gibbs>  (126) 
76.910007

>  <strain_per_HA>  (126) 
5.1273

>  <ad_hoc_penalty>  (126) 
-19.026994

>  <cluster>  (126) 
2355.0

>  <intxn_cluster>  (126) 
2.0

>  <keep>  (126) 
1.0

>  <hydroph_interaction:GLN:74>  (126) 
0.0

>  <hydroph_interaction:THR:118>  (126) 
0.0

>  <hydroph_interaction:ILE:123>  (126) 
1.0

>  <hydroph_interaction:THR:166>  (126) 
1.0

>  <hbond:GLN:167>  (126) 
0.0

>  <hydroph_interaction:ALA:88>  (126) 
0.0

>  <hydroph_interaction:ASP:120>  (126) 
0.0

>  <hydroph_interaction:GLN:167>  (126) 
0.0

>  <hbond:THR:118>  (126) 
0.0

>  <hydroph_interaction:ALA:164>  (126) 
0.0

>  <hbond:ASP:120>  (126) 
0.0

>  <hbond:THR:166>  (126) 
0.0

>  <hydroph_interaction:LEU:76>  (126) 
0.0

>  <hbond:ILE:165>  (126) 
0.0

>  <halogenbond:GLN:74>  (126) 
0.0

>  <hbond:GLN:74>  (126) 
0.0

>  <hbond:LYS:73>  (126) 
0.0

>  <pistack:TRP:69>  (126) 
0.0

>  <hbond:TRP:83>  (126) 
0.0

>  <hydroph_interaction:TRP:83>  (126) 
0.0

>  <hydroph_interaction:TRP:69>  (126) 
0.0

>  <pication:TRP:69>  (126) 
0.0

>  <hydroph_interaction:PRO:82>  (126) 
0.0

>  <halogenbond:LYS:73>  (126) 
0.0

>  <hydroph_interaction:TYR:68>  (126) 
0.0

>  <halogenbond:GLN:167>  (126) 
0.0

>  <hydroph_interaction:PHE:116>  (126) 
0.0

>  <hbond:TYR:68>  (126) 
0.0

>  <hbond:ASP:122>  (126) 
0.0

>  <pistack:PHE:116>  (126) 
0.0

>  <hydroph_interaction:VAL:154>  (126) 
0.0

>  <hydroph_interaction:ASP:75>  (126) 
0.0

>  <hbond:GLY:121>  (126) 
0.0

>  <hydroph_interaction:ASN:152>  (126) 
0.0

>  <halogenbond:ILE:165>  (126) 
0.0

$$$$
Z410021164-Z198195906S1-Z198195906S2
     RDKit          3D

 33 34  0  0  0  0  0  0  0  0999 V2000
  -14.9710   -9.8080   -6.1210 N   0  0  0  0  0  0  0  0  0  0  0  0
  -14.1640   -9.2180   -7.0470 C   0  0  0  0  0  0  0  0  0  0  0  0
  -14.6220   -8.6840   -8.0410 O   0  0  0  0  0  0  0  0  0  0  0  0
  -12.8400   -9.2930   -6.7180 N   0  0  0  0  0  0  0  0  0  0  0  0
  -11.8700   -9.9690   -7.5590 C   0  0  0  0  0  0  0  0  0  0  0  0
  -12.0790  -11.4330   -7.7870 C   0  0  0  0  0  0  0  0  0  0  0  0
  -11.1860  -12.1500   -8.5710 C   0  0  0  0  0  0  0  0  0  0  0  0
  -10.0950  -11.4970   -9.1450 C   0  0  0  0  0  0  0  0  0  0  0  0
   -9.8960  -10.1110   -8.9360 C   0  0  0  0  0  0  0  0  0  0  0  0
  -10.7470   -9.3070   -8.1550 C   0  0  0  0  0  0  0  0  0  0  0  0
  -10.4770   -7.8900   -7.9600 N   0  0  0  0  0  0  0  0  0  0  0  0
   -9.0570   -7.6750   -7.6600 C   0  0  0  0  0  0  0  0  0  0  0  0
   -8.4020   -7.3310   -8.9790 C   0  0  0  0  0  0  0  0  0  0  0  0
   -8.9080   -6.0970   -9.6800 C   0  0  0  0  0  0  0  0  0  0  0  0
  -10.3890   -5.7390   -9.4560 C   0  0  0  0  0  0  0  0  0  0  0  0
  -11.2240   -6.8070   -8.6840 C   0  0  0  0  0  0  0  0  0  0  0  0
  -14.8940  -10.8140   -6.0460 H   0  0  0  0  0  0  0  0  0  0  0  0
  -15.9260   -9.4690   -6.1750 H   0  0  0  0  0  0  0  0  0  0  0  0
  -12.4990   -8.5140   -6.1780 H   0  0  0  0  0  0  0  0  0  0  0  0
  -12.9640  -11.8450   -7.2890 H   0  0  0  0  0  0  0  0  0  0  0  0
  -11.2550  -13.2210   -8.7900 H   0  0  0  0  0  0  0  0  0  0  0  0
   -9.3730  -12.0220   -9.7640 H   0  0  0  0  0  0  0  0  0  0  0  0
   -9.0400   -9.6430   -9.4030 H   0  0  0  0  0  0  0  0  0  0  0  0
   -8.9690   -6.7940   -7.0090 H   0  0  0  0  0  0  0  0  0  0  0  0
   -8.6610   -8.5130   -7.0920 H   0  0  0  0  0  0  0  0  0  0  0  0
   -8.4900   -8.1810   -9.6590 H   0  0  0  0  0  0  0  0  0  0  0  0
   -7.3240   -7.2050   -8.8060 H   0  0  0  0  0  0  0  0  0  0  0  0
   -8.3040   -5.2360   -9.3680 H   0  0  0  0  0  0  0  0  0  0  0  0
   -8.7140   -6.2100  -10.7540 H   0  0  0  0  0  0  0  0  0  0  0  0
  -10.3720   -4.8580   -8.8040 H   0  0  0  0  0  0  0  0  0  0  0  0
  -10.8970   -5.3520  -10.3390 H   0  0  0  0  0  0  0  0  0  0  0  0
  -12.0140   -7.3140   -9.2190 H   0  0  0  0  0  0  0  0  0  0  0  0
  -11.8000   -6.2350   -7.9450 H   0  0  0  0  0  0  0  0  0  0  0  0
  1  2  1  0
  2  3  2  0
  2  4  1  0
  4  5  1  0
  5  6  2  0
  6  7  1  0
  7  8  2  0
  8  9  1  0
  9 10  2  0
 10 11  1  0
 11 12  1  0
 12 13  1  0
 13 14  1  0
 14 15  1  0
 15 16  1  0
 10  5  1  0
 16 11  1  0
  1 17  1  0
  1 18  1  0
  4 19  1  0
  6 20  1  0
  7 21  1  0
  8 22  1  0
  9 23  1  0
 12 24  1  0
 12 25  1  0
 13 26  1  0
 13 27  1  0
 14 28  1  0
 14 29  1  0
 15 30  1  0
 15 31  1  0
 16 32  1  0
 16 33  1  0
A    1
 N1 
A    2
 C1 
A    3
 O1 
A    4
 N2 
A    5
 C2 
A    6
 C3 
A    7
 C4 
A    8
 C5 
A    9
 C6 
A   10
 C7 
A   11
 N3 
A   12
 C8 
A   13
 C9 
A   14
 C10
A   15
 C11
A   16
 C12
A   17
 H1 
A   18
 H2 
A   19
 H3 
A   20
 H4 
A   21
 H5 
A   22
 H6 
A   23
 H7 
A   24
 H8 
A   25
 H9 
A   26
 H10
A   27
 H11
A   28
 H12
A   29
 H13
A   30
 H14
A   31
 H15
A   32
 H16
A   33
 H17
M  END
>  <ref_pdb>  (127) 
x0051_0B

>  <ref_mols>  (127) 
x0051_0B

>  <original SMILES>  (127) 
[H]c1c([H])c([H])c(N2C([H])([H])C([H])([H])C([H])([H])C([H])([H])C2([H])[H])c(N([H])C(=O)N([H])[H])c1[H]

>  <index>  (127) 
3538.0

>  <∆∆G>  (127) 
-4.15138

>  <comRMSD>  (127) 
0.869151

>  <N_constrained_atoms>  (127) 
16.0

>  <N_unconstrained_atoms>  (127) 
3.0

>  <LE>  (127) 
0.218494

>  <percent_hybrid>  (127) 
25.0

>  <largest_ring>  (127) 
6.0

>  <N_HA>  (127) 
16.0

>  <N_rotatable_bonds>  (127) 
2.0

>  <max_hit_Tanimoto>  (127) 
0.104205

>  <N_interactions_kept>  (127) 
1.0

>  <N_interactions_lost>  (127) 
0.5

>  <interaction_uniqueness_metric>  (127) 
0.029256

>  <N_interactions>  (127) 
3.0

>  <N_PAINS>  (127) 
0.0

>  <UFF_Gibbs>  (127) 
122.601241

>  <strain_per_HA>  (127) 
7.66253

>  <ad_hoc_penalty>  (127) 
-18.84347

>  <cluster>  (127) 
4731.0

>  <intxn_cluster>  (127) 
8.0

>  <keep>  (127) 
1.0

>  <hydroph_interaction:GLN:74>  (127) 
0.0

>  <hydroph_interaction:THR:118>  (127) 
0.0

>  <hydroph_interaction:ILE:123>  (127) 
2.0

>  <hydroph_interaction:THR:166>  (127) 
0.0

>  <hbond:GLN:167>  (127) 
1.0

>  <hydroph_interaction:ALA:88>  (127) 
0.0

>  <hydroph_interaction:ASP:120>  (127) 
0.0

>  <hydroph_interaction:GLN:167>  (127) 
0.0

>  <hbond:THR:118>  (127) 
0.0

>  <hydroph_interaction:ALA:164>  (127) 
0.0

>  <hbond:ASP:120>  (127) 
0.0

>  <hbond:THR:166>  (127) 
0.0

>  <hydroph_interaction:LEU:76>  (127) 
0.0

>  <hbond:ILE:165>  (127) 
0.0

>  <halogenbond:GLN:74>  (127) 
0.0

>  <hbond:GLN:74>  (127) 
0.0

>  <hbond:LYS:73>  (127) 
0.0

>  <pistack:TRP:69>  (127) 
0.0

>  <hbond:TRP:83>  (127) 
0.0

>  <hydroph_interaction:TRP:83>  (127) 
0.0

>  <hydroph_interaction:TRP:69>  (127) 
0.0

>  <pication:TRP:69>  (127) 
0.0

>  <hydroph_interaction:PRO:82>  (127) 
0.0

>  <halogenbond:LYS:73>  (127) 
0.0

>  <hydroph_interaction:TYR:68>  (127) 
0.0

>  <halogenbond:GLN:167>  (127) 
0.0

>  <hydroph_interaction:PHE:116>  (127) 
0.0

>  <hbond:TYR:68>  (127) 
0.0

>  <hbond:ASP:122>  (127) 
0.0

>  <pistack:PHE:116>  (127) 
0.0

>  <hydroph_interaction:VAL:154>  (127) 
0.0

>  <hydroph_interaction:ASP:75>  (127) 
0.0

>  <hbond:GLY:121>  (127) 
0.0

>  <hydroph_interaction:ASN:152>  (127) 
0.0

>  <halogenbond:ILE:165>  (127) 
0.0

$$$$
PV-002727834100-x0884S2-Z1318055457S4
     RDKit          3D

 28 30  0  0  0  0  0  0  0  0999 V2000
  -13.2380   -6.3250   -8.4800 N   0  0  0  0  0  0  0  0  0  0  0  0
  -13.3580   -7.7620   -8.7280 C   0  0  0  0  0  0  0  0  0  0  0  0
  -14.4040   -8.4880   -7.8910 C   0  0  0  0  0  0  0  0  0  0  0  0
  -15.6640   -8.0370   -8.0890 N   0  0  0  0  0  0  0  0  0  0  0  0
  -16.6460   -8.6330   -7.3970 C   0  0  0  0  0  0  0  0  0  0  0  0
  -16.4900   -9.6350   -6.5320 N   0  0  0  0  0  0  0  0  0  0  0  0
  -15.2250  -10.0450   -6.3620 C   0  0  0  0  0  0  0  0  0  0  0  0
  -14.1310   -9.5150   -7.0060 C   0  0  0  0  0  0  0  0  0  0  0  0
  -12.9650  -10.1080   -6.6400 O   0  0  0  0  0  0  0  0  0  0  0  0
  -11.9610  -10.4440   -7.4970 C   0  0  0  0  0  0  0  0  0  0  0  0
  -11.8370  -11.9170   -7.8390 C   0  0  0  0  0  0  0  0  0  0  0  0
  -10.7080  -12.3230   -8.7670 C   0  0  0  0  0  0  0  0  0  0  0  0
   -9.8650  -11.3350   -9.2410 C   0  0  0  0  0  0  0  0  0  0  0  0
  -10.0770   -9.9820   -8.8690 C   0  0  0  0  0  0  0  0  0  0  0  0
   -9.0610   -9.0940   -9.5050 C   0  0  0  0  0  0  0  0  0  0  0  0
   -9.0640   -7.5860   -9.2660 C   0  0  0  0  0  0  0  0  0  0  0  0
  -10.0720   -7.0880   -8.4180 C   0  0  0  0  0  0  0  0  0  0  0  0
  -11.0820   -8.0000   -7.7860 C   0  0  0  0  0  0  0  0  0  0  0  0
  -11.0680   -9.5050   -8.0360 C   0  0  0  0  0  0  0  0  0  0  0  0
  -17.6580   -8.2680   -7.5550 H   0  0  0  0  0  0  0  0  0  0  0  0
  -15.1060  -10.8590   -5.6490 H   0  0  0  0  0  0  0  0  0  0  0  0
  -12.5210  -12.6590   -7.4340 H   0  0  0  0  0  0  0  0  0  0  0  0
  -10.5620  -13.3650   -9.0480 H   0  0  0  0  0  0  0  0  0  0  0  0
   -9.0460  -11.6190   -9.9030 H   0  0  0  0  0  0  0  0  0  0  0  0
   -8.3130   -9.5250  -10.1420 H   0  0  0  0  0  0  0  0  0  0  0  0
   -8.3280   -6.9360   -9.7270 H   0  0  0  0  0  0  0  0  0  0  0  0
  -10.1160   -6.0210   -8.2180 H   0  0  0  0  0  0  0  0  0  0  0  0
  -11.8290   -7.5470   -7.1400 H   0  0  0  0  0  0  0  0  0  0  0  0
  1  2  3  0
  2  3  1  0
  3  4  2  0
  4  5  1  0
  5  6  2  0
  6  7  1  0
  7  8  2  0
  8  9  1  0
  9 10  1  0
 10 11  2  0
 11 12  1  0
 12 13  2  0
 13 14  1  0
 14 15  2  0
 15 16  1  0
 16 17  2  0
 17 18  1  0
 18 19  2  0
  8  3  1  0
 19 10  1  0
 19 14  1  0
  5 20  1  0
  7 21  1  0
 11 22  1  0
 12 23  1  0
 13 24  1  0
 15 25  1  0
 16 26  1  0
 17 27  1  0
 18 28  1  0
A    1
 N1 
A    2
 C1 
A    3
 C2 
A    4
 N2 
A    5
 C3 
A    6
 N3 
A    7
 C4 
A    8
 C5 
A    9
 O1 
A   10
 C6 
A   11
 C7 
A   12
 C8 
A   13
 C9 
A   14
 C10
A   15
 C11
A   16
 C12
A   17
 C13
A   18
 C14
A   19
 C15
A   20
 H1 
A   21
 H2 
A   22
 H3 
A   23
 H4 
A   24
 H5 
A   25
 H6 
A   26
 H7 
A   27
 H8 
A   28
 H9 
M  END
>  <ref_pdb>  (128) 
x0051_0B

>  <ref_mols>  (128) 
x0051_0B

>  <original SMILES>  (128) 
[H]c1nc([H])c(Oc2c([H])c([H])c([H])c3c([H])c([H])c([H])c([H])c23)c(C#N)n1

>  <index>  (128) 
6936.0

>  <∆∆G>  (128) 
-1.748606

>  <comRMSD>  (128) 
0.581115

>  <N_constrained_atoms>  (128) 
19.0

>  <N_unconstrained_atoms>  (128) 
0.0

>  <LE>  (128) 
0.092032

>  <percent_hybrid>  (128) 
48.0

>  <largest_ring>  (128) 
6.0

>  <N_HA>  (128) 
19.0

>  <N_rotatable_bonds>  (128) 
2.0

>  <max_hit_Tanimoto>  (128) 
0.148374

>  <N_interactions_kept>  (128) 
0.0

>  <N_interactions_lost>  (128) 
0.5

>  <interaction_uniqueness_metric>  (128) 
0.032403

>  <N_interactions>  (128) 
4.0

>  <N_PAINS>  (128) 
0.0

>  <UFF_Gibbs>  (128) 
310.384729

>  <strain_per_HA>  (128) 
16.335952

>  <ad_hoc_penalty>  (128) 
-18.842258

>  <cluster>  (128) 
3258.0

>  <intxn_cluster>  (128) 
8.0

>  <keep>  (128) 
1.0

>  <hydroph_interaction:GLN:74>  (128) 
0.0

>  <hydroph_interaction:THR:118>  (128) 
0.0

>  <hydroph_interaction:ILE:123>  (128) 
3.0

>  <hydroph_interaction:THR:166>  (128) 
0.0

>  <hbond:GLN:167>  (128) 
1.0

>  <hydroph_interaction:ALA:88>  (128) 
0.0

>  <hydroph_interaction:ASP:120>  (128) 
0.0

>  <hydroph_interaction:GLN:167>  (128) 
0.0

>  <hbond:THR:118>  (128) 
0.0

>  <hydroph_interaction:ALA:164>  (128) 
0.0

>  <hbond:ASP:120>  (128) 
0.0

>  <hbond:THR:166>  (128) 
0.0

>  <hydroph_interaction:LEU:76>  (128) 
0.0

>  <hbond:ILE:165>  (128) 
0.0

>  <halogenbond:GLN:74>  (128) 
0.0

>  <hbond:GLN:74>  (128) 
0.0

>  <hbond:LYS:73>  (128) 
0.0

>  <pistack:TRP:69>  (128) 
0.0

>  <hbond:TRP:83>  (128) 
0.0

>  <hydroph_interaction:TRP:83>  (128) 
0.0

>  <hydroph_interaction:TRP:69>  (128) 
0.0

>  <pication:TRP:69>  (128) 
0.0

>  <hydroph_interaction:PRO:82>  (128) 
0.0

>  <halogenbond:LYS:73>  (128) 
0.0

>  <hydroph_interaction:TYR:68>  (128) 
0.0

>  <halogenbond:GLN:167>  (128) 
0.0

>  <hydroph_interaction:PHE:116>  (128) 
0.0

>  <hbond:TYR:68>  (128) 
0.0

>  <hbond:ASP:122>  (128) 
0.0

>  <pistack:PHE:116>  (128) 
0.0

>  <hydroph_interaction:VAL:154>  (128) 
0.0

>  <hydroph_interaction:ASP:75>  (128) 
0.0

>  <hbond:GLY:121>  (128) 
0.0

>  <hydroph_interaction:ASN:152>  (128) 
0.0

>  <halogenbond:ILE:165>  (128) 
0.0

$$$$
Z1082362506-Z2102283482-x0214S1
     RDKit          3D

 37 39  0  0  0  0  0  0  0  0999 V2000
  -11.4390  -14.4930   -9.9140 N   0  0  0  0  0  0  0  0  0  0  0  0
  -12.3330  -13.4350   -9.8430 C   0  0  0  0  0  0  0  0  0  0  0  0
  -13.6810  -13.6980  -10.2260 O   0  0  0  0  0  0  0  0  0  0  0  0
  -11.9290  -12.1670   -9.4280 C   0  0  0  0  0  0  0  0  0  0  0  0
  -10.4310  -11.9630   -9.2290 C   0  0  0  0  0  0  0  0  0  0  0  0
  -10.1500  -10.5880   -9.0520 C   0  0  0  0  0  0  0  0  0  0  0  0
   -8.9120   -9.9680   -9.5750 C   0  0  0  0  0  0  0  0  0  0  0  0
   -8.6390   -8.4670   -9.4030 C   0  0  0  0  0  0  0  0  0  0  0  0
   -9.6740   -7.6220   -8.6660 C   0  0  0  0  0  0  0  0  0  0  0  0
  -10.8210   -8.2470   -8.1820 C   0  0  0  0  0  0  0  0  0  0  0  0
  -11.0310   -9.7800   -8.4030 C   0  0  0  0  0  0  0  0  0  0  0  0
  -12.2090  -10.3530   -7.8950 N   0  0  0  0  0  0  0  0  0  0  0  0
  -12.6890   -9.7520   -6.8310 C   0  0  0  0  0  0  0  0  0  0  0  0
  -12.0040   -9.3950   -5.8750 O   0  0  0  0  0  0  0  0  0  0  0  0
  -14.1250   -9.4760   -6.8260 C   0  0  0  0  0  0  0  0  0  0  0  0
  -14.9240  -10.6180   -6.2270 C   0  0  0  0  0  0  0  0  0  0  0  0
  -16.4590  -10.4100   -6.1990 C   0  0  0  0  0  0  0  0  0  0  0  0
  -17.0530   -9.1080   -6.7550 C   0  0  0  0  0  0  0  0  0  0  0  0
  -18.3850   -8.9420   -6.7280 F   0  0  0  0  0  0  0  0  0  0  0  0
  -16.1980   -8.1240   -7.2770 C   0  0  0  0  0  0  0  0  0  0  0  0
  -14.6960   -8.3110   -7.3190 C   0  0  0  0  0  0  0  0  0  0  0  0
  -13.9330   -7.3350   -7.8430 F   0  0  0  0  0  0  0  0  0  0  0  0
  -12.5930  -11.7300   -8.2850 C   0  0  0  0  0  0  0  0  0  0  0  0
  -11.0160  -14.5630  -10.8410 H   0  0  0  0  0  0  0  0  0  0  0  0
  -10.7630  -14.5200   -9.1530 H   0  0  0  0  0  0  0  0  0  0  0  0
  -12.1820  -11.3920  -10.1470 H   0  0  0  0  0  0  0  0  0  0  0  0
   -9.9170  -12.4990  -10.0240 H   0  0  0  0  0  0  0  0  0  0  0  0
  -10.1160  -12.5010   -8.3290 H   0  0  0  0  0  0  0  0  0  0  0  0
   -8.2300  -10.6540  -10.0900 H   0  0  0  0  0  0  0  0  0  0  0  0
   -7.7290   -7.9900   -9.7890 H   0  0  0  0  0  0  0  0  0  0  0  0
   -9.5040   -6.5470   -8.5280 H   0  0  0  0  0  0  0  0  0  0  0  0
  -11.6140   -7.7150   -7.6400 H   0  0  0  0  0  0  0  0  0  0  0  0
  -14.4530  -11.5210   -5.8470 H   0  0  0  0  0  0  0  0  0  0  0  0
  -17.1200  -11.1720   -5.7920 H   0  0  0  0  0  0  0  0  0  0  0  0
  -16.6220   -7.2070   -7.6610 H   0  0  0  0  0  0  0  0  0  0  0  0
  -13.6700  -11.7730   -8.4730 H   0  0  0  0  0  0  0  0  0  0  0  0
  -12.3870  -12.3860   -7.4270 H   0  0  0  0  0  0  0  0  0  0  0  0
  1  2  1  0
  2  3  2  0
  2  4  1  0
  4  5  1  0
  5  6  1  0
  6  7  2  0
  7  8  1  0
  8  9  2  0
  9 10  1  0
 10 11  2  0
 11 12  1  0
 12 13  1  0
 13 14  2  0
 13 15  1  0
 15 16  2  0
 16 17  1  0
 17 18  2  0
 18 19  1  0
 18 20  1  0
 20 21  2  0
 21 22  1  0
 12 23  1  0
 23  4  1  0
 11  6  1  0
 21 15  1  0
  1 24  1  0
  1 25  1  0
  4 26  1  0
  5 27  1  0
  5 28  1  0
  7 29  1  0
  8 30  1  0
  9 31  1  0
 10 32  1  0
 16 33  1  0
 17 34  1  0
 20 35  1  0
 23 36  1  0
 23 37  1  0
A    1
 N1 
A    2
 C1 
A    3
 O1 
A    4
 C2 
A    5
 C3 
A    6
 C4 
A    7
 C5 
A    8
 C6 
A    9
 C7 
A   10
 C8 
A   11
 C9 
A   12
 N2 
A   13
 C10
A   14
 O2 
A   15
 C11
A   16
 C12
A   17
 C13
A   18
 C14
A   19
 F1 
A   20
 C15
A   21
 C16
A   22
 F2 
A   23
 C17
A   24
 H1 
A   25
 H2 
A   26
 H3 
A   27
 H4 
A   28
 H5 
A   29
 H6 
A   30
 H7 
A   31
 H8 
A   32
 H9 
A   33
 H10
A   34
 H11
A   35
 H12
A   36
 H13
A   37
 H14
M  END
>  <ref_pdb>  (129) 
x0051_0B

>  <ref_mols>  (129) 
x0051_0B

>  <original SMILES>  (129) 
[H]c1c([H])c([H])c2c(c1[H])N(C(=O)c1c([H])c([H])c(F)c([H])c1F)C([H])([H])C([H])(C(=O)N([H])[H])C2([H])[H]

>  <index>  (129) 
7402.0

>  <∆∆G>  (129) 
-1.861739

>  <comRMSD>  (129) 
0.633051

>  <N_constrained_atoms>  (129) 
23.0

>  <N_unconstrained_atoms>  (129) 
0.0

>  <LE>  (129) 
0.080945

>  <percent_hybrid>  (129) 
5.0

>  <largest_ring>  (129) 
6.0

>  <N_HA>  (129) 
23.0

>  <N_rotatable_bonds>  (129) 
2.0

>  <max_hit_Tanimoto>  (129) 
0.672146

>  <N_interactions_kept>  (129) 
0.0

>  <N_interactions_lost>  (129) 
2.0

>  <interaction_uniqueness_metric>  (129) 
0.185393

>  <N_interactions>  (129) 
6.0

>  <N_PAINS>  (129) 
0.0

>  <UFF_Gibbs>  (129) 
163.653322

>  <strain_per_HA>  (129) 
7.115331

>  <ad_hoc_penalty>  (129) 
-18.565216

>  <cluster>  (129) 
44.0

>  <intxn_cluster>  (129) 
12.0

>  <keep>  (129) 
1.0

>  <hydroph_interaction:GLN:74>  (129) 
1.0

>  <hydroph_interaction:THR:118>  (129) 
1.0

>  <hydroph_interaction:ILE:123>  (129) 
3.0

>  <hydroph_interaction:THR:166>  (129) 
0.0

>  <hbond:GLN:167>  (129) 
0.0

>  <hydroph_interaction:ALA:88>  (129) 
0.0

>  <hydroph_interaction:ASP:120>  (129) 
0.0

>  <hydroph_interaction:GLN:167>  (129) 
0.0

>  <hbond:THR:118>  (129) 
0.0

>  <hydroph_interaction:ALA:164>  (129) 
0.0

>  <hbond:ASP:120>  (129) 
0.0

>  <hbond:THR:166>  (129) 
0.0

>  <hydroph_interaction:LEU:76>  (129) 
0.0

>  <hbond:ILE:165>  (129) 
0.0

>  <halogenbond:GLN:74>  (129) 
0.0

>  <hbond:GLN:74>  (129) 
0.0

>  <hbond:LYS:73>  (129) 
0.0

>  <pistack:TRP:69>  (129) 
0.0

>  <hbond:TRP:83>  (129) 
0.0

>  <hydroph_interaction:TRP:83>  (129) 
0.0

>  <hydroph_interaction:TRP:69>  (129) 
0.0

>  <pication:TRP:69>  (129) 
0.0

>  <hydroph_interaction:PRO:82>  (129) 
0.0

>  <halogenbond:LYS:73>  (129) 
0.0

>  <hydroph_interaction:TYR:68>  (129) 
0.0

>  <halogenbond:GLN:167>  (129) 
0.0

>  <hydroph_interaction:PHE:116>  (129) 
0.0

>  <hbond:TYR:68>  (129) 
0.0

>  <hbond:ASP:122>  (129) 
0.0

>  <pistack:PHE:116>  (129) 
0.0

>  <hydroph_interaction:VAL:154>  (129) 
0.0

>  <hydroph_interaction:ASP:75>  (129) 
0.0

>  <hbond:GLY:121>  (129) 
1.0

>  <hydroph_interaction:ASN:152>  (129) 
0.0

>  <halogenbond:ILE:165>  (129) 
0.0

$$$$
PV-002900316958-x0806S1-Z198195906S1
     RDKit          3D

 21 21  0  0  0  0  0  0  0  0999 V2000
  -10.8190   -3.9660  -10.3430 C   0  0  0  0  0  0  0  0  0  0  0  0
  -10.9030   -5.4720  -10.0680 C   0  0  0  0  0  0  0  0  0  0  0  0
   -9.6750   -6.3440  -10.1970 C   0  0  0  0  0  0  0  0  0  0  0  0
   -9.7380   -7.5300   -9.3530 N   0  0  0  0  0  0  0  0  0  0  0  0
  -12.1720   -6.1280   -9.6520 C   0  0  0  0  0  0  0  0  0  0  0  0
  -12.9340   -7.0040  -10.5610 C   0  0  0  0  0  0  0  0  0  0  0  0
  -14.1710   -7.6200  -10.0660 C   0  0  0  0  0  0  0  0  0  0  0  0
  -14.6090   -7.3770   -8.7720 C   0  0  0  0  0  0  0  0  0  0  0  0
  -13.8680   -6.5380   -7.9310 C   0  0  0  0  0  0  0  0  0  0  0  0
  -12.6800   -5.9300   -8.3610 C   0  0  0  0  0  0  0  0  0  0  0  0
   -9.8730   -3.5050  -10.6450 H   0  0  0  0  0  0  0  0  0  0  0  0
  -11.6970   -3.3160  -10.2430 H   0  0  0  0  0  0  0  0  0  0  0  0
   -9.5480   -6.6660  -11.2390 H   0  0  0  0  0  0  0  0  0  0  0  0
   -8.7870   -5.7710   -9.9160 H   0  0  0  0  0  0  0  0  0  0  0  0
   -8.8290   -7.9910   -9.3800 H   0  0  0  0  0  0  0  0  0  0  0  0
   -9.8740   -7.2360   -8.3890 H   0  0  0  0  0  0  0  0  0  0  0  0
  -12.6090   -7.2020  -11.5730 H   0  0  0  0  0  0  0  0  0  0  0  0
  -14.6880   -8.2590  -10.7870 H   0  0  0  0  0  0  0  0  0  0  0  0
  -15.5290   -7.8370   -8.4100 H   0  0  0  0  0  0  0  0  0  0  0  0
  -14.2240   -6.3570   -6.9230 H   0  0  0  0  0  0  0  0  0  0  0  0
  -12.1440   -5.2870   -7.6650 H   0  0  0  0  0  0  0  0  0  0  0  0
  1  2  2  0
  2  3  1  0
  3  4  1  0
  2  5  1  0
  5  6  2  0
  6  7  1  0
  7  8  2  0
  8  9  1  0
  9 10  2  0
 10  5  1  0
  1 11  1  0
  1 12  1  0
  3 13  1  0
  3 14  1  0
  4 15  1  0
  4 16  1  0
  6 17  1  0
  7 18  1  0
  8 19  1  0
  9 20  1  0
 10 21  1  0
A    1
 C1 
A    2
 C2 
A    3
 C3 
A    4
 N1 
A    5
 C4 
A    6
 C5 
A    7
 C6 
A    8
 C7 
A    9
 C8 
A   10
 C9 
A   11
 H1 
A   12
 H2 
A   13
 H3 
A   14
 H4 
A   15
 H5 
A   16
 H6 
A   17
 H7 
A   18
 H8 
A   19
 H9 
A   20
 H10
A   21
 H11
M  END
>  <ref_pdb>  (130) 
x0051_0B

>  <ref_mols>  (130) 
x0051_0B

>  <original SMILES>  (130) 
[H]C([H])=C(c1c([H])c([H])c([H])c([H])c1[H])C([H])([H])N([H])[H]

>  <index>  (130) 
869.0

>  <∆∆G>  (130) 
-4.798307

>  <comRMSD>  (130) 
0.601953

>  <N_constrained_atoms>  (130) 
9.0

>  <N_unconstrained_atoms>  (130) 
1.0

>  <LE>  (130) 
0.479831

>  <percent_hybrid>  (130) 
38.0

>  <largest_ring>  (130) 
6.0

>  <N_HA>  (130) 
10.0

>  <N_rotatable_bonds>  (130) 
3.0

>  <max_hit_Tanimoto>  (130) 
0.086957

>  <N_interactions_kept>  (130) 
0.0

>  <N_interactions_lost>  (130) 
0.5

>  <interaction_uniqueness_metric>  (130) 
0.08445

>  <N_interactions>  (130) 
3.0

>  <N_PAINS>  (130) 
0.0

>  <UFF_Gibbs>  (130) 
33.11439

>  <strain_per_HA>  (130) 
3.311406

>  <ad_hoc_penalty>  (130) 
-18.470887

>  <cluster>  (130) 
5715.0

>  <intxn_cluster>  (130) 
2.0

>  <keep>  (130) 
1.0

>  <hydroph_interaction:GLN:74>  (130) 
0.0

>  <hydroph_interaction:THR:118>  (130) 
0.0

>  <hydroph_interaction:ILE:123>  (130) 
1.0

>  <hydroph_interaction:THR:166>  (130) 
1.0

>  <hbond:GLN:167>  (130) 
0.0

>  <hydroph_interaction:ALA:88>  (130) 
0.0

>  <hydroph_interaction:ASP:120>  (130) 
0.0

>  <hydroph_interaction:GLN:167>  (130) 
0.0

>  <hbond:THR:118>  (130) 
0.0

>  <hydroph_interaction:ALA:164>  (130) 
1.0

>  <hbond:ASP:120>  (130) 
0.0

>  <hbond:THR:166>  (130) 
0.0

>  <hydroph_interaction:LEU:76>  (130) 
0.0

>  <hbond:ILE:165>  (130) 
0.0

>  <halogenbond:GLN:74>  (130) 
0.0

>  <hbond:GLN:74>  (130) 
0.0

>  <hbond:LYS:73>  (130) 
0.0

>  <pistack:TRP:69>  (130) 
0.0

>  <hbond:TRP:83>  (130) 
0.0

>  <hydroph_interaction:TRP:83>  (130) 
0.0

>  <hydroph_interaction:TRP:69>  (130) 
0.0

>  <pication:TRP:69>  (130) 
0.0

>  <hydroph_interaction:PRO:82>  (130) 
0.0

>  <halogenbond:LYS:73>  (130) 
0.0

>  <hydroph_interaction:TYR:68>  (130) 
0.0

>  <halogenbond:GLN:167>  (130) 
0.0

>  <hydroph_interaction:PHE:116>  (130) 
0.0

>  <hbond:TYR:68>  (130) 
0.0

>  <hbond:ASP:122>  (130) 
0.0

>  <pistack:PHE:116>  (130) 
0.0

>  <hydroph_interaction:VAL:154>  (130) 
0.0

>  <hydroph_interaction:ASP:75>  (130) 
0.0

>  <hbond:GLY:121>  (130) 
0.0

>  <hydroph_interaction:ASN:152>  (130) 
0.0

>  <halogenbond:ILE:165>  (130) 
0.0

$$$$
PV-004429652104-x0884S4-Z198195906S10
     RDKit          3D

 31 32  0  0  0  0  0  0  0  0999 V2000
  -13.1980  -10.0820   -9.2560 C   0  0  0  0  0  0  0  0  0  0  0  0
  -14.3050   -9.5590   -8.3690 C   0  0  0  0  0  0  0  0  0  0  0  0
  -15.1040  -10.5550   -7.5380 C   0  0  0  0  0  0  0  0  0  0  0  0
  -16.2240  -10.0330   -6.6760 C   0  0  0  0  0  0  0  0  0  0  0  0
  -16.4630   -8.5350   -6.7120 C   0  0  0  0  0  0  0  0  0  0  0  0
  -15.6670   -7.6970   -7.5020 C   0  0  0  0  0  0  0  0  0  0  0  0
  -14.6130   -8.1780   -8.3080 C   0  0  0  0  0  0  0  0  0  0  0  0
  -13.8730   -7.2680   -9.0560 C   0  0  0  0  0  0  0  0  0  0  0  0
  -12.6260   -6.6080   -8.4450 C   0  0  0  0  0  0  0  0  0  0  0  0
  -11.3470   -7.3520   -8.7960 C   0  0  0  0  0  0  0  0  0  0  0  0
  -10.8510   -8.1700   -7.7370 O   0  0  0  0  0  0  0  0  0  0  0  0
  -10.9610   -9.5300   -7.8870 C   0  0  0  0  0  0  0  0  0  0  0  0
  -11.8880  -10.3560   -7.2320 C   0  0  0  0  0  0  0  0  0  0  0  0
  -11.9710  -11.8690   -7.4420 C   0  0  0  0  0  0  0  0  0  0  0  0
  -11.0130  -12.4820   -8.3900 C   0  0  0  0  0  0  0  0  0  0  0  0
  -10.0030  -11.5900   -9.1000 C   0  0  0  0  0  0  0  0  0  0  0  0
  -10.0480  -10.0960   -8.7830 C   0  0  0  0  0  0  0  0  0  0  0  0
  -13.5150  -10.0280  -10.2990 H   0  0  0  0  0  0  0  0  0  0  0  0
  -12.2970   -9.4920   -9.1130 H   0  0  0  0  0  0  0  0  0  0  0  0
  -12.9860  -11.1250   -9.0130 H   0  0  0  0  0  0  0  0  0  0  0  0
  -14.8760  -11.6280   -7.5700 H   0  0  0  0  0  0  0  0  0  0  0  0
  -16.7860  -10.7690   -6.0930 H   0  0  0  0  0  0  0  0  0  0  0  0
  -17.2250   -7.9910   -6.1630 H   0  0  0  0  0  0  0  0  0  0  0  0
  -15.8780   -6.6280   -7.4870 H   0  0  0  0  0  0  0  0  0  0  0  0
  -10.5690   -6.6980   -9.1990 H   0  0  0  0  0  0  0  0  0  0  0  0
  -11.5900   -8.0550   -9.5900 H   0  0  0  0  0  0  0  0  0  0  0  0
  -12.6010   -9.9350   -6.5350 H   0  0  0  0  0  0  0  0  0  0  0  0
  -12.7070  -12.4690   -6.9130 H   0  0  0  0  0  0  0  0  0  0  0  0
  -11.0260  -13.5550   -8.5760 H   0  0  0  0  0  0  0  0  0  0  0  0
   -9.2830  -12.0040   -9.7980 H   0  0  0  0  0  0  0  0  0  0  0  0
   -9.3420   -9.4400   -9.2750 H   0  0  0  0  0  0  0  0  0  0  0  0
  1  2  1  0
  2  3  2  0
  3  4  1  0
  4  5  2  0
  5  6  1  0
  6  7  2  0
  7  8  1  0
  8  9  3  0
  9 10  1  0
 10 11  1  0
 11 12  1  0
 12 13  2  0
 13 14  1  0
 14 15  2  0
 15 16  1  0
 16 17  2  0
  7  2  1  0
 17 12  1  0
  1 18  1  0
  1 19  1  0
  1 20  1  0
  3 21  1  0
  4 22  1  0
  5 23  1  0
  6 24  1  0
 10 25  1  0
 10 26  1  0
 13 27  1  0
 14 28  1  0
 15 29  1  0
 16 30  1  0
 17 31  1  0
A    1
 C1 
A    2
 C2 
A    3
 C3 
A    4
 C4 
A    5
 C5 
A    6
 C6 
A    7
 C7 
A    8
 C8 
A    9
 C9 
A   10
 C10
A   11
 O1 
A   12
 C11
A   13
 C12
A   14
 C13
A   15
 C14
A   16
 C15
A   17
 C16
A   18
 H1 
A   19
 H2 
A   20
 H3 
A   21
 H4 
A   22
 H5 
A   23
 H6 
A   24
 H7 
A   25
 H8 
A   26
 H9 
A   27
 H10
A   28
 H11
A   29
 H12
A   30
 H13
A   31
 H14
M  END
>  <ref_pdb>  (131) 
x0051_0B

>  <ref_mols>  (131) 
x0051_0B

>  <original SMILES>  (131) 
[H]c1c([H])c([H])c(OC([H])([H])C#Cc2c([H])c([H])c([H])c([H])c2C([H])([H])[H])c([H])c1[H]

>  <index>  (131) 
5731.0

>  <∆∆G>  (131) 
-4.525266

>  <comRMSD>  (131) 
0.549126

>  <N_constrained_atoms>  (131) 
15.0

>  <N_unconstrained_atoms>  (131) 
2.0

>  <LE>  (131) 
0.266192

>  <percent_hybrid>  (131) 
47.0

>  <largest_ring>  (131) 
6.0

>  <N_HA>  (131) 
17.0

>  <N_rotatable_bonds>  (131) 
3.0

>  <max_hit_Tanimoto>  (131) 
0.154167

>  <N_interactions_kept>  (131) 
0.0

>  <N_interactions_lost>  (131) 
1.0

>  <interaction_uniqueness_metric>  (131) 
0.078487

>  <N_interactions>  (131) 
4.0

>  <N_PAINS>  (131) 
0.0

>  <UFF_Gibbs>  (131) 
517.420186

>  <strain_per_HA>  (131) 
30.436303

>  <ad_hoc_penalty>  (131) 
-18.299701

>  <cluster>  (131) 
3770.0

>  <intxn_cluster>  (131) 
15.0

>  <keep>  (131) 
1.0

>  <hydroph_interaction:GLN:74>  (131) 
1.0

>  <hydroph_interaction:THR:118>  (131) 
1.0

>  <hydroph_interaction:ILE:123>  (131) 
1.0

>  <hydroph_interaction:THR:166>  (131) 
0.0

>  <hbond:GLN:167>  (131) 
0.0

>  <hydroph_interaction:ALA:88>  (131) 
0.0

>  <hydroph_interaction:ASP:120>  (131) 
1.0

>  <hydroph_interaction:GLN:167>  (131) 
0.0

>  <hbond:THR:118>  (131) 
0.0

>  <hydroph_interaction:ALA:164>  (131) 
0.0

>  <hbond:ASP:120>  (131) 
0.0

>  <hbond:THR:166>  (131) 
0.0

>  <hydroph_interaction:LEU:76>  (131) 
0.0

>  <hbond:ILE:165>  (131) 
0.0

>  <halogenbond:GLN:74>  (131) 
0.0

>  <hbond:GLN:74>  (131) 
0.0

>  <hbond:LYS:73>  (131) 
0.0

>  <pistack:TRP:69>  (131) 
0.0

>  <hbond:TRP:83>  (131) 
0.0

>  <hydroph_interaction:TRP:83>  (131) 
0.0

>  <hydroph_interaction:TRP:69>  (131) 
0.0

>  <pication:TRP:69>  (131) 
0.0

>  <hydroph_interaction:PRO:82>  (131) 
0.0

>  <halogenbond:LYS:73>  (131) 
0.0

>  <hydroph_interaction:TYR:68>  (131) 
0.0

>  <halogenbond:GLN:167>  (131) 
0.0

>  <hydroph_interaction:PHE:116>  (131) 
0.0

>  <hbond:TYR:68>  (131) 
0.0

>  <hbond:ASP:122>  (131) 
0.0

>  <pistack:PHE:116>  (131) 
0.0

>  <hydroph_interaction:VAL:154>  (131) 
0.0

>  <hydroph_interaction:ASP:75>  (131) 
0.0

>  <hbond:GLY:121>  (131) 
0.0

>  <hydroph_interaction:ASN:152>  (131) 
0.0

>  <halogenbond:ILE:165>  (131) 
0.0

$$$$
Z1823658897-x0214S3-Z1318054286S3
     RDKit          3D

 21 22  0  0  0  0  0  0  0  0999 V2000
   -9.3030   -8.5500   -8.8750 Cl  0  0  0  0  0  0  0  0  0  0  0  0
  -10.2680   -9.9600   -8.6440 C   0  0  0  0  0  0  0  0  0  0  0  0
   -9.8470  -11.2970   -9.2540 C   0  0  0  0  0  0  0  0  0  0  0  0
  -10.7420  -12.4050   -9.0070 N   0  0  0  0  0  0  0  0  0  0  0  0
  -11.8960  -12.2860   -8.2720 C   0  0  0  0  0  0  0  0  0  0  0  0
  -12.2440  -11.0710   -7.7240 C   0  0  0  0  0  0  0  0  0  0  0  0
  -11.4540   -9.9440   -7.9020 C   0  0  0  0  0  0  0  0  0  0  0  0
  -11.9060   -8.8070   -7.2960 O   0  0  0  0  0  0  0  0  0  0  0  0
  -12.3250   -7.7810   -8.0680 C   0  0  0  0  0  0  0  0  0  0  0  0
  -13.2760   -8.1020   -9.0370 C   0  0  0  0  0  0  0  0  0  0  0  0
  -13.7800   -7.1810   -9.8780 N   0  0  0  0  0  0  0  0  0  0  0  0
  -13.2960   -5.9250   -9.7080 C   0  0  0  0  0  0  0  0  0  0  0  0
  -12.3600   -5.5410   -8.7820 C   0  0  0  0  0  0  0  0  0  0  0  0
  -11.7550   -3.7500   -8.6650 Br  0  0  0  0  0  0  0  0  0  0  0  0
  -11.8610   -6.4940   -7.9330 C   0  0  0  0  0  0  0  0  0  0  0  0
   -8.9510  -11.4570   -9.8460 H   0  0  0  0  0  0  0  0  0  0  0  0
  -12.4960  -13.1870   -8.1530 H   0  0  0  0  0  0  0  0  0  0  0  0
  -13.1570  -11.0070   -7.1430 H   0  0  0  0  0  0  0  0  0  0  0  0
  -13.6530   -9.1140   -9.1580 H   0  0  0  0  0  0  0  0  0  0  0  0
  -13.7080   -5.2110  -10.3710 H   0  0  0  0  0  0  0  0  0  0  0  0
  -11.1220   -6.2350   -7.1820 H   0  0  0  0  0  0  0  0  0  0  0  0
  1  2  1  0
  2  3  2  0
  3  4  1  0
  4  5  2  0
  5  6  1  0
  6  7  2  0
  7  8  1  0
  8  9  1  0
  9 10  2  0
 10 11  1  0
 11 12  2  0
 12 13  1  0
 13 14  1  0
 13 15  2  0
  7  2  1  0
 15  9  1  0
  3 16  1  0
  5 17  1  0
  6 18  1  0
 10 19  1  0
 12 20  1  0
 15 21  1  0
A    1
CL1 
A    2
 C1 
A    3
 C2 
A    4
 N1 
A    5
 C3 
A    6
 C4 
A    7
 C5 
A    8
 O1 
A    9
 C6 
A   10
 C7 
A   11
 N2 
A   12
 C8 
A   13
 C9 
A   14
BR1 
A   15
 C10
A   16
 H1 
A   17
 H2 
A   18
 H3 
A   19
 H4 
A   20
 H5 
A   21
 H6 
M  END
>  <ref_pdb>  (132) 
x0051_0B

>  <ref_mols>  (132) 
x0051_0B

>  <original SMILES>  (132) 
[H]c1nc([H])c(Cl)c(Oc2c([H])nc([H])c(Br)c2[H])c1[H]

>  <index>  (132) 
6144.0

>  <∆∆G>  (132) 
-2.133761

>  <comRMSD>  (132) 
0.860133

>  <N_constrained_atoms>  (132) 
13.0

>  <N_unconstrained_atoms>  (132) 
2.0

>  <LE>  (132) 
0.142251

>  <percent_hybrid>  (132) 
47.0

>  <largest_ring>  (132) 
6.0

>  <N_HA>  (132) 
15.0

>  <N_rotatable_bonds>  (132) 
2.0

>  <max_hit_Tanimoto>  (132) 
0.085399

>  <N_interactions_kept>  (132) 
1.0

>  <N_interactions_lost>  (132) 
0.0

>  <interaction_uniqueness_metric>  (132) 
0.045018

>  <N_interactions>  (132) 
3.0

>  <N_PAINS>  (132) 
0.0

>  <UFF_Gibbs>  (132) 
34.529126

>  <strain_per_HA>  (132) 
2.301926

>  <ad_hoc_penalty>  (132) 
-17.987049

>  <cluster>  (132) 
3567.0

>  <intxn_cluster>  (132) 
6.0

>  <keep>  (132) 
1.0

>  <hydroph_interaction:GLN:74>  (132) 
0.0

>  <hydroph_interaction:THR:118>  (132) 
0.0

>  <hydroph_interaction:ILE:123>  (132) 
0.0

>  <hydroph_interaction:THR:166>  (132) 
0.0

>  <hbond:GLN:167>  (132) 
2.0

>  <hydroph_interaction:ALA:88>  (132) 
0.0

>  <hydroph_interaction:ASP:120>  (132) 
0.0

>  <hydroph_interaction:GLN:167>  (132) 
0.0

>  <hbond:THR:118>  (132) 
1.0

>  <hydroph_interaction:ALA:164>  (132) 
0.0

>  <hbond:ASP:120>  (132) 
0.0

>  <hbond:THR:166>  (132) 
0.0

>  <hydroph_interaction:LEU:76>  (132) 
0.0

>  <hbond:ILE:165>  (132) 
0.0

>  <halogenbond:GLN:74>  (132) 
0.0

>  <hbond:GLN:74>  (132) 
0.0

>  <hbond:LYS:73>  (132) 
0.0

>  <pistack:TRP:69>  (132) 
0.0

>  <hbond:TRP:83>  (132) 
0.0

>  <hydroph_interaction:TRP:83>  (132) 
0.0

>  <hydroph_interaction:TRP:69>  (132) 
0.0

>  <pication:TRP:69>  (132) 
0.0

>  <hydroph_interaction:PRO:82>  (132) 
0.0

>  <halogenbond:LYS:73>  (132) 
0.0

>  <hydroph_interaction:TYR:68>  (132) 
0.0

>  <halogenbond:GLN:167>  (132) 
0.0

>  <hydroph_interaction:PHE:116>  (132) 
0.0

>  <hbond:TYR:68>  (132) 
0.0

>  <hbond:ASP:122>  (132) 
0.0

>  <pistack:PHE:116>  (132) 
0.0

>  <hydroph_interaction:VAL:154>  (132) 
0.0

>  <hydroph_interaction:ASP:75>  (132) 
0.0

>  <hbond:GLY:121>  (132) 
0.0

>  <hydroph_interaction:ASN:152>  (132) 
0.0

>  <halogenbond:ILE:165>  (132) 
0.0

$$$$
Z245334260-x0214S2-x0182S1
     RDKit          3D

 35 37  0  0  0  0  0  0  0  0999 V2000
  -13.6510  -12.0600   -6.9030 O   0  0  0  0  0  0  0  0  0  0  0  0
  -12.9740  -11.0650   -7.1500 C   0  0  0  0  0  0  0  0  0  0  0  0
  -11.7570  -11.1750   -8.0040 C   0  0  0  0  0  0  0  0  0  0  0  0
  -11.0090  -10.1300   -8.3830 C   0  0  0  0  0  0  0  0  0  0  0  0
   -9.8810  -10.2660   -9.1480 C   0  0  0  0  0  0  0  0  0  0  0  0
   -9.1830   -9.1780   -9.4940 F   0  0  0  0  0  0  0  0  0  0  0  0
   -9.5040  -11.5490   -9.5450 C   0  0  0  0  0  0  0  0  0  0  0  0
  -10.2760  -12.6360   -9.1760 C   0  0  0  0  0  0  0  0  0  0  0  0
  -11.3950  -12.4520   -8.4090 C   0  0  0  0  0  0  0  0  0  0  0  0
  -13.2270   -9.8110   -6.7090 N   0  0  0  0  0  0  0  0  0  0  0  0
  -12.7830   -9.1910   -5.4630 C   0  0  0  0  0  0  0  0  0  0  0  0
  -13.8120   -8.3130   -5.1790 C   0  0  0  0  0  0  0  0  0  0  0  0
  -14.9680   -8.4910   -6.1670 C   0  0  0  0  0  0  0  0  0  0  0  0
  -14.2600   -9.0650   -7.3740 C   0  0  0  0  0  0  0  0  0  0  0  0
  -13.6610   -7.9150   -8.1970 C   0  0  0  0  0  0  0  0  0  0  0  0
  -12.8310   -6.9470   -7.6300 C   0  0  0  0  0  0  0  0  0  0  0  0
  -12.3150   -5.9280   -8.4220 C   0  0  0  0  0  0  0  0  0  0  0  0
  -12.6510   -5.9190   -9.7530 C   0  0  0  0  0  0  0  0  0  0  0  0
  -13.4560   -6.8380  -10.3190 N   0  0  0  0  0  0  0  0  0  0  0  0
  -13.9350   -7.8070   -9.5410 C   0  0  0  0  0  0  0  0  0  0  0  0
  -11.3010   -9.1310   -8.0690 H   0  0  0  0  0  0  0  0  0  0  0  0
   -8.6140  -11.6850  -10.1480 H   0  0  0  0  0  0  0  0  0  0  0  0
   -9.9930  -13.6350   -9.4910 H   0  0  0  0  0  0  0  0  0  0  0  0
  -11.9920  -13.3120   -8.1170 H   0  0  0  0  0  0  0  0  0  0  0  0
  -11.8200   -8.6840   -5.5640 H   0  0  0  0  0  0  0  0  0  0  0  0
  -12.7160   -9.9760   -4.7010 H   0  0  0  0  0  0  0  0  0  0  0  0
  -14.1900   -8.5360   -4.1730 H   0  0  0  0  0  0  0  0  0  0  0  0
  -13.4550   -7.2810   -5.1570 H   0  0  0  0  0  0  0  0  0  0  0  0
  -15.4920   -7.5730   -6.4290 H   0  0  0  0  0  0  0  0  0  0  0  0
  -15.7060   -9.1840   -5.7430 H   0  0  0  0  0  0  0  0  0  0  0  0
  -14.7900   -9.8080   -7.9670 H   0  0  0  0  0  0  0  0  0  0  0  0
  -12.5820   -6.9790   -6.5740 H   0  0  0  0  0  0  0  0  0  0  0  0
  -11.6680   -5.1660   -8.0050 H   0  0  0  0  0  0  0  0  0  0  0  0
  -12.2750   -5.1490  -10.4210 H   0  0  0  0  0  0  0  0  0  0  0  0
  -14.5760   -8.5230  -10.0500 H   0  0  0  0  0  0  0  0  0  0  0  0
  1  2  2  0
  2  3  1  0
  3  4  2  0
  4  5  1  0
  5  6  1  0
  5  7  2  0
  7  8  1  0
  8  9  2  0
  2 10  1  0
 10 11  1  0
 11 12  1  0
 12 13  1  0
 13 14  1  0
 14 15  1  0
 15 16  2  0
 16 17  1  0
 17 18  2  0
 18 19  1  0
 19 20  2  0
  9  3  1  0
 14 10  1  0
 20 15  1  0
  4 21  1  0
  7 22  1  0
  8 23  1  0
  9 24  1  0
 11 25  1  0
 11 26  1  0
 12 27  1  0
 12 28  1  0
 13 29  1  0
 13 30  1  0
 14 31  1  0
 16 32  1  0
 17 33  1  0
 18 34  1  0
 20 35  1  0
A    1
 O1 
A    2
 C1 
A    3
 C2 
A    4
 C3 
A    5
 C4 
A    6
 F1 
A    7
 C5 
A    8
 C6 
A    9
 C7 
A   10
 N1 
A   11
 C8 
A   12
 C9 
A   13
 C10
A   14
 C11
A   15
 C12
A   16
 C13
A   17
 C14
A   18
 C15
A   19
 N2 
A   20
 C16
A   21
 H1 
A   22
 H2 
A   23
 H3 
A   24
 H4 
A   25
 H5 
A   26
 H6 
A   27
 H7 
A   28
 H8 
A   29
 H9 
A   30
 H10
A   31
 H11
A   32
 H12
A   33
 H13
A   34
 H14
A   35
 H15
M  END
>  <ref_pdb>  (133) 
x0051_0B

>  <ref_mols>  (133) 
x0051_0B

>  <original SMILES>  (133) 
[H]c1nc([H])c(C2([H])N(C(=O)c3c([H])c([H])c([H])c(F)c3[H])C([H])([H])C([H])([H])C2([H])[H])c([H])c1[H]

>  <index>  (133) 
7340.0

>  <∆∆G>  (133) 
-3.22469

>  <comRMSD>  (133) 
0.821614

>  <N_constrained_atoms>  (133) 
18.0

>  <N_unconstrained_atoms>  (133) 
2.0

>  <LE>  (133) 
0.161235

>  <percent_hybrid>  (133) 
39.0

>  <largest_ring>  (133) 
6.0

>  <N_HA>  (133) 
20.0

>  <N_rotatable_bonds>  (133) 
2.0

>  <max_hit_Tanimoto>  (133) 
0.222222

>  <N_interactions_kept>  (133) 
0.0

>  <N_interactions_lost>  (133) 
1.0

>  <interaction_uniqueness_metric>  (133) 
0.070306

>  <N_interactions>  (133) 
4.0

>  <N_PAINS>  (133) 
0.0

>  <UFF_Gibbs>  (133) 
82.368205

>  <strain_per_HA>  (133) 
4.11839

>  <ad_hoc_penalty>  (133) 
-17.902418

>  <cluster>  (133) 
3095.0

>  <intxn_cluster>  (133) 
15.0

>  <keep>  (133) 
1.0

>  <hydroph_interaction:GLN:74>  (133) 
1.0

>  <hydroph_interaction:THR:118>  (133) 
1.0

>  <hydroph_interaction:ILE:123>  (133) 
1.0

>  <hydroph_interaction:THR:166>  (133) 
0.0

>  <hbond:GLN:167>  (133) 
1.0

>  <hydroph_interaction:ALA:88>  (133) 
0.0

>  <hydroph_interaction:ASP:120>  (133) 
0.0

>  <hydroph_interaction:GLN:167>  (133) 
0.0

>  <hbond:THR:118>  (133) 
0.0

>  <hydroph_interaction:ALA:164>  (133) 
0.0

>  <hbond:ASP:120>  (133) 
0.0

>  <hbond:THR:166>  (133) 
0.0

>  <hydroph_interaction:LEU:76>  (133) 
0.0

>  <hbond:ILE:165>  (133) 
0.0

>  <halogenbond:GLN:74>  (133) 
0.0

>  <hbond:GLN:74>  (133) 
0.0

>  <hbond:LYS:73>  (133) 
0.0

>  <pistack:TRP:69>  (133) 
0.0

>  <hbond:TRP:83>  (133) 
0.0

>  <hydroph_interaction:TRP:83>  (133) 
0.0

>  <hydroph_interaction:TRP:69>  (133) 
0.0

>  <pication:TRP:69>  (133) 
0.0

>  <hydroph_interaction:PRO:82>  (133) 
0.0

>  <halogenbond:LYS:73>  (133) 
0.0

>  <hydroph_interaction:TYR:68>  (133) 
0.0

>  <halogenbond:GLN:167>  (133) 
0.0

>  <hydroph_interaction:PHE:116>  (133) 
0.0

>  <hbond:TYR:68>  (133) 
0.0

>  <hbond:ASP:122>  (133) 
0.0

>  <pistack:PHE:116>  (133) 
0.0

>  <hydroph_interaction:VAL:154>  (133) 
0.0

>  <hydroph_interaction:ASP:75>  (133) 
0.0

>  <hbond:GLY:121>  (133) 
0.0

>  <hydroph_interaction:ASN:152>  (133) 
0.0

>  <halogenbond:ILE:165>  (133) 
0.0

$$$$
PV-002881382648-Z198195906S10-x0884S2
     RDKit          3D

 22 23  0  0  0  0  0  0  0  0999 V2000
  -13.3900   -6.7240   -9.5630 N   0  0  0  0  0  0  0  0  0  0  0  0
  -13.1760   -7.2530   -8.3330 C   0  0  0  0  0  0  0  0  0  0  0  0
  -14.1800   -8.2630   -7.8260 C   0  0  0  0  0  0  0  0  0  0  0  0
  -15.5350   -7.6670   -7.4850 C   0  0  0  0  0  0  0  0  0  0  0  0
  -16.5470   -8.6570   -6.9680 C   0  0  0  0  0  0  0  0  0  0  0  0
  -16.1840  -10.0130   -6.8370 C   0  0  0  0  0  0  0  0  0  0  0  0
  -14.9150  -10.4790   -7.1780 C   0  0  0  0  0  0  0  0  0  0  0  0
  -13.9030   -9.6520   -7.6730 C   0  0  0  0  0  0  0  0  0  0  0  0
  -12.5270  -10.2640   -8.0510 C   0  0  0  0  0  0  0  0  0  0  0  0
  -11.4240   -9.4510   -8.2850 C   0  0  0  0  0  0  0  0  0  0  0  0
  -10.0740  -10.0680   -8.6900 C   0  0  0  0  0  0  0  0  0  0  0  0
   -9.9860  -11.5380   -8.8160 N   0  0  0  0  0  0  0  0  0  0  0  0
  -11.1330  -12.2040   -8.5500 C   0  0  0  0  0  0  0  0  0  0  0  0
  -12.3690  -11.6480   -8.1830 C   0  0  0  0  0  0  0  0  0  0  0  0
  -15.7710   -6.6080   -7.5980 H   0  0  0  0  0  0  0  0  0  0  0  0
  -17.5440   -8.3340   -6.6970 H   0  0  0  0  0  0  0  0  0  0  0  0
  -16.9130  -10.7260   -6.4600 H   0  0  0  0  0  0  0  0  0  0  0  0
  -14.7130  -11.5410   -7.0550 H   0  0  0  0  0  0  0  0  0  0  0  0
  -11.5110   -8.3730   -8.1910 H   0  0  0  0  0  0  0  0  0  0  0  0
   -9.1910   -9.4740   -8.8890 H   0  0  0  0  0  0  0  0  0  0  0  0
  -11.0470  -13.2830   -8.6440 H   0  0  0  0  0  0  0  0  0  0  0  0
  -13.2080  -12.3120   -8.0040 H   0  0  0  0  0  0  0  0  0  0  0  0
  1  2  3  0
  2  3  1  0
  3  4  2  0
  4  5  1  0
  5  6  2  0
  6  7  1  0
  7  8  2  0
  8  9  1  0
  9 10  2  0
 10 11  1  0
 11 12  2  0
 12 13  1  0
 13 14  2  0
  8  3  1  0
 14  9  1  0
  4 15  1  0
  5 16  1  0
  6 17  1  0
  7 18  1  0
 10 19  1  0
 11 20  1  0
 13 21  1  0
 14 22  1  0
A    1
 N1 
A    2
 C1 
A    3
 C2 
A    4
 C3 
A    5
 C4 
A    6
 C5 
A    7
 C6 
A    8
 C7 
A    9
 C8 
A   10
 C9 
A   11
 C10
A   12
 N2 
A   13
 C11
A   14
 C12
A   15
 H1 
A   16
 H2 
A   17
 H3 
A   18
 H4 
A   19
 H5 
A   20
 H6 
A   21
 H7 
A   22
 H8 
M  END
>  <ref_pdb>  (134) 
x0051_0B

>  <ref_mols>  (134) 
x0051_0B

>  <original SMILES>  (134) 
[H]c1nc([H])c([H])c(-c2c([H])c([H])c([H])c([H])c2C#N)c1[H]

>  <index>  (134) 
2938.0

>  <∆∆G>  (134) 
-2.057626

>  <comRMSD>  (134) 
0.516295

>  <N_constrained_atoms>  (134) 
15.0

>  <N_unconstrained_atoms>  (134) 
0.0

>  <LE>  (134) 
0.137175

>  <percent_hybrid>  (134) 
43.0

>  <largest_ring>  (134) 
6.0

>  <N_HA>  (134) 
14.0

>  <N_rotatable_bonds>  (134) 
1.0

>  <max_hit_Tanimoto>  (134) 
0.218289

>  <N_interactions_kept>  (134) 
0.5

>  <N_interactions_lost>  (134) 
0.5

>  <interaction_uniqueness_metric>  (134) 
0.061299

>  <N_interactions>  (134) 
3.0

>  <N_PAINS>  (134) 
0.0

>  <UFF_Gibbs>  (134) 
217.969258

>  <strain_per_HA>  (134) 
15.569122

>  <ad_hoc_penalty>  (134) 
-17.617151

>  <cluster>  (134) 
4965.0

>  <intxn_cluster>  (134) 
16.0

>  <keep>  (134) 
1.0

>  <hydroph_interaction:GLN:74>  (134) 
1.0

>  <hydroph_interaction:THR:118>  (134) 
0.0

>  <hydroph_interaction:ILE:123>  (134) 
1.0

>  <hydroph_interaction:THR:166>  (134) 
0.0

>  <hbond:GLN:167>  (134) 
0.0

>  <hydroph_interaction:ALA:88>  (134) 
0.0

>  <hydroph_interaction:ASP:120>  (134) 
0.0

>  <hydroph_interaction:GLN:167>  (134) 
0.0

>  <hbond:THR:118>  (134) 
1.0

>  <hydroph_interaction:ALA:164>  (134) 
0.0

>  <hbond:ASP:120>  (134) 
0.0

>  <hbond:THR:166>  (134) 
0.0

>  <hydroph_interaction:LEU:76>  (134) 
0.0

>  <hbond:ILE:165>  (134) 
0.0

>  <halogenbond:GLN:74>  (134) 
0.0

>  <hbond:GLN:74>  (134) 
0.0

>  <hbond:LYS:73>  (134) 
0.0

>  <pistack:TRP:69>  (134) 
0.0

>  <hbond:TRP:83>  (134) 
0.0

>  <hydroph_interaction:TRP:83>  (134) 
0.0

>  <hydroph_interaction:TRP:69>  (134) 
0.0

>  <pication:TRP:69>  (134) 
0.0

>  <hydroph_interaction:PRO:82>  (134) 
0.0

>  <halogenbond:LYS:73>  (134) 
0.0

>  <hydroph_interaction:TYR:68>  (134) 
0.0

>  <halogenbond:GLN:167>  (134) 
0.0

>  <hydroph_interaction:PHE:116>  (134) 
0.0

>  <hbond:TYR:68>  (134) 
0.0

>  <hbond:ASP:122>  (134) 
0.0

>  <pistack:PHE:116>  (134) 
0.0

>  <hydroph_interaction:VAL:154>  (134) 
0.0

>  <hydroph_interaction:ASP:75>  (134) 
0.0

>  <hbond:GLY:121>  (134) 
0.0

>  <hydroph_interaction:ASN:152>  (134) 
0.0

>  <halogenbond:ILE:165>  (134) 
0.0

$$$$
PV-003489661083-x0884S4-Z198195906S7
     RDKit          3D

 23 24  0  0  0  0  0  0  0  0999 V2000
  -12.1300   -6.8520   -8.1310 N   0  0  0  0  0  0  0  0  0  0  0  0
  -12.9900   -7.4940   -7.6880 C   0  0  0  0  0  0  0  0  0  0  0  0
  -14.1690   -8.2980   -7.2080 C   0  0  0  0  0  0  0  0  0  0  0  0
  -14.0970   -9.4980   -6.5090 C   0  0  0  0  0  0  0  0  0  0  0  0
  -12.6240  -10.3160   -5.9610 S   0  0  0  0  0  0  0  0  0  0  0  0
  -11.5990  -10.8200   -7.3060 C   0  0  0  0  0  0  0  0  0  0  0  0
  -11.6650  -12.1400   -7.7040 C   0  0  0  0  0  0  0  0  0  0  0  0
  -10.8580  -12.6120   -8.7260 C   0  0  0  0  0  0  0  0  0  0  0  0
   -9.9780  -11.7520   -9.3530 C   0  0  0  0  0  0  0  0  0  0  0  0
   -9.9140  -10.4090   -8.9620 C   0  0  0  0  0  0  0  0  0  0  0  0
  -10.7230   -9.9370   -7.9390 C   0  0  0  0  0  0  0  0  0  0  0  0
  -15.3070  -10.1130   -6.1760 C   0  0  0  0  0  0  0  0  0  0  0  0
  -16.5310   -9.6200   -6.4730 N   0  0  0  0  0  0  0  0  0  0  0  0
  -16.5460   -8.4370   -7.1260 C   0  0  0  0  0  0  0  0  0  0  0  0
  -15.3860   -7.7760   -7.4880 C   0  0  0  0  0  0  0  0  0  0  0  0
  -15.3710   -6.1330   -8.3500 Br  0  0  0  0  0  0  0  0  0  0  0  0
  -12.3470  -12.8330   -7.2150 H   0  0  0  0  0  0  0  0  0  0  0  0
  -10.9130  -13.6560   -9.0310 H   0  0  0  0  0  0  0  0  0  0  0  0
   -9.3380  -12.1220  -10.1510 H   0  0  0  0  0  0  0  0  0  0  0  0
   -9.2250   -9.7340   -9.4620 H   0  0  0  0  0  0  0  0  0  0  0  0
  -10.6590   -8.8960   -7.6410 H   0  0  0  0  0  0  0  0  0  0  0  0
  -15.3280  -11.0560   -5.6340 H   0  0  0  0  0  0  0  0  0  0  0  0
  -17.5350   -8.0370   -7.3440 H   0  0  0  0  0  0  0  0  0  0  0  0
  1  2  3  0
  2  3  1  0
  3  4  2  0
  4  5  1  0
  5  6  1  0
  6  7  2  0
  7  8  1  0
  8  9  2  0
  9 10  1  0
 10 11  2  0
  4 12  1  0
 12 13  2  0
 13 14  1  0
 14 15  2  0
 15 16  1  0
 15  3  1  0
 11  6  1  0
  7 17  1  0
  8 18  1  0
  9 19  1  0
 10 20  1  0
 11 21  1  0
 12 22  1  0
 14 23  1  0
A    1
 N1 
A    2
 C1 
A    3
 C2 
A    4
 C3 
A    5
 S1 
A    6
 C4 
A    7
 C5 
A    8
 C6 
A    9
 C7 
A   10
 C8 
A   11
 C9 
A   12
 C10
A   13
 N2 
A   14
 C11
A   15
 C12
A   16
BR1 
A   17
 H1 
A   18
 H2 
A   19
 H3 
A   20
 H4 
A   21
 H5 
A   22
 H6 
A   23
 H7 
M  END
>  <ref_pdb>  (135) 
x0051_0B

>  <ref_mols>  (135) 
x0051_0B

>  <original SMILES>  (135) 
[H]c1nc([H])c(Sc2c([H])c([H])c([H])c([H])c2[H])c(C#N)c1Br

>  <index>  (135) 
3627.0

>  <∆∆G>  (135) 
-2.686415

>  <comRMSD>  (135) 
0.733736

>  <N_constrained_atoms>  (135) 
15.0

>  <N_unconstrained_atoms>  (135) 
1.0

>  <LE>  (135) 
0.167901

>  <percent_hybrid>  (135) 
23.0

>  <largest_ring>  (135) 
6.0

>  <N_HA>  (135) 
16.0

>  <N_rotatable_bonds>  (135) 
2.0

>  <max_hit_Tanimoto>  (135) 
0.108808

>  <N_interactions_kept>  (135) 
0.0

>  <N_interactions_lost>  (135) 
1.0

>  <interaction_uniqueness_metric>  (135) 
0.144608

>  <N_interactions>  (135) 
4.0

>  <N_PAINS>  (135) 
0.0

>  <UFF_Gibbs>  (135) 
35.891804

>  <strain_per_HA>  (135) 
2.243224

>  <ad_hoc_penalty>  (135) 
-17.560212

>  <cluster>  (135) 
4699.0

>  <intxn_cluster>  (135) 
15.0

>  <keep>  (135) 
1.0

>  <hydroph_interaction:GLN:74>  (135) 
0.0

>  <hydroph_interaction:THR:118>  (135) 
1.0

>  <hydroph_interaction:ILE:123>  (135) 
1.0

>  <hydroph_interaction:THR:166>  (135) 
0.0

>  <hbond:GLN:167>  (135) 
0.0

>  <hydroph_interaction:ALA:88>  (135) 
0.0

>  <hydroph_interaction:ASP:120>  (135) 
1.0

>  <hydroph_interaction:GLN:167>  (135) 
0.0

>  <hbond:THR:118>  (135) 
0.0

>  <hydroph_interaction:ALA:164>  (135) 
0.0

>  <hbond:ASP:120>  (135) 
0.0

>  <hbond:THR:166>  (135) 
0.0

>  <hydroph_interaction:LEU:76>  (135) 
0.0

>  <hbond:ILE:165>  (135) 
0.0

>  <halogenbond:GLN:74>  (135) 
1.0

>  <hbond:GLN:74>  (135) 
0.0

>  <hbond:LYS:73>  (135) 
0.0

>  <pistack:TRP:69>  (135) 
0.0

>  <hbond:TRP:83>  (135) 
0.0

>  <hydroph_interaction:TRP:83>  (135) 
0.0

>  <hydroph_interaction:TRP:69>  (135) 
0.0

>  <pication:TRP:69>  (135) 
0.0

>  <hydroph_interaction:PRO:82>  (135) 
0.0

>  <halogenbond:LYS:73>  (135) 
0.0

>  <hydroph_interaction:TYR:68>  (135) 
0.0

>  <halogenbond:GLN:167>  (135) 
0.0

>  <hydroph_interaction:PHE:116>  (135) 
0.0

>  <hbond:TYR:68>  (135) 
0.0

>  <hbond:ASP:122>  (135) 
0.0

>  <pistack:PHE:116>  (135) 
0.0

>  <hydroph_interaction:VAL:154>  (135) 
0.0

>  <hydroph_interaction:ASP:75>  (135) 
0.0

>  <hbond:GLY:121>  (135) 
0.0

>  <hydroph_interaction:ASN:152>  (135) 
0.0

>  <halogenbond:ILE:165>  (135) 
0.0

$$$$
Z90516130-x0884S4-Z198195906S9
     RDKit          3D

 38 39  0  0  0  0  0  0  0  0999 V2000
  -11.4780   -6.1570  -10.8560 C   0  0  0  0  0  0  0  0  0  0  0  0
  -11.8260   -6.4970   -9.4190 C   0  0  0  0  0  0  0  0  0  0  0  0
  -12.4810   -6.7710   -8.4700 C   0  0  0  0  0  0  0  0  0  0  0  0
  -13.6140   -6.7250   -7.4420 C   0  0  0  0  0  0  0  0  0  0  0  0
  -14.5020   -7.9660   -7.2660 C   0  0  0  0  0  0  0  0  0  0  0  0
  -15.9690   -7.7260   -7.4770 C   0  0  0  0  0  0  0  0  0  0  0  0
  -16.9130   -8.8860   -7.3070 C   0  0  0  0  0  0  0  0  0  0  0  0
  -16.3810  -10.1280   -6.9640 C   0  0  0  0  0  0  0  0  0  0  0  0
  -14.9960  -10.3050   -6.7780 C   0  0  0  0  0  0  0  0  0  0  0  0
  -14.0760   -9.2510   -6.9240 C   0  0  0  0  0  0  0  0  0  0  0  0
  -10.6610   -7.4090   -9.1900 N   0  0  0  0  0  0  0  0  0  0  0  0
  -10.5530   -8.1370   -7.8940 C   0  0  0  0  0  0  0  0  0  0  0  0
  -10.7990   -9.5300   -7.9740 C   0  0  0  0  0  0  0  0  0  0  0  0
  -12.0740  -10.0430   -7.7410 C   0  0  0  0  0  0  0  0  0  0  0  0
  -12.3120  -11.4200   -7.8160 C   0  0  0  0  0  0  0  0  0  0  0  0
  -11.2670  -12.2630   -8.1300 C   0  0  0  0  0  0  0  0  0  0  0  0
  -10.0240  -11.6870   -8.3520 C   0  0  0  0  0  0  0  0  0  0  0  0
   -9.7630  -10.3510   -8.2800 N   0  0  0  0  0  0  0  0  0  0  0  0
  -10.4210   -6.3450  -11.0620 H   0  0  0  0  0  0  0  0  0  0  0  0
  -11.6700   -5.0960  -11.0580 H   0  0  0  0  0  0  0  0  0  0  0  0
  -12.0830   -6.7340  -11.5680 H   0  0  0  0  0  0  0  0  0  0  0  0
  -11.5160   -5.5190   -9.0280 H   0  0  0  0  0  0  0  0  0  0  0  0
  -12.5830   -7.8450   -8.6870 H   0  0  0  0  0  0  0  0  0  0  0  0
  -11.6760   -6.7320   -7.7280 H   0  0  0  0  0  0  0  0  0  0  0  0
  -14.2850   -5.8930   -7.7050 H   0  0  0  0  0  0  0  0  0  0  0  0
  -13.1850   -6.4600   -6.4630 H   0  0  0  0  0  0  0  0  0  0  0  0
  -16.3510   -6.7310   -7.7430 H   0  0  0  0  0  0  0  0  0  0  0  0
  -17.9820   -8.7540   -7.4490 H   0  0  0  0  0  0  0  0  0  0  0  0
  -17.0480  -10.9740   -6.8370 H   0  0  0  0  0  0  0  0  0  0  0  0
  -14.6230  -11.2900   -6.5100 H   0  0  0  0  0  0  0  0  0  0  0  0
  -13.0210   -9.4500   -6.7630 H   0  0  0  0  0  0  0  0  0  0  0  0
  -10.6080   -8.0910   -9.9400 H   0  0  0  0  0  0  0  0  0  0  0  0
   -9.5440   -8.0230   -7.4860 H   0  0  0  0  0  0  0  0  0  0  0  0
  -11.2360   -7.7300   -7.1430 H   0  0  0  0  0  0  0  0  0  0  0  0
  -12.8840   -9.3690   -7.4990 H   0  0  0  0  0  0  0  0  0  0  0  0
  -13.3030  -11.8210   -7.6350 H   0  0  0  0  0  0  0  0  0  0  0  0
  -11.4030  -13.3400   -8.2040 H   0  0  0  0  0  0  0  0  0  0  0  0
   -9.1880  -12.3130   -8.6040 H   0  0  0  0  0  0  0  0  0  0  0  0
  1  2  1  0
  2  3  1  0
  3  4  1  0
  4  5  1  0
  5  6  2  0
  6  7  1  0
  7  8  2  0
  8  9  1  0
  9 10  2  0
  2 11  1  0
 11 12  1  0
 12 13  1  0
 13 14  2  0
 14 15  1  0
 15 16  2  0
 16 17  1  0
 17 18  2  0
 10  5  1  0
 18 13  1  0
  1 19  1  0
  1 20  1  0
  1 21  1  0
  2 22  1  0
  3 23  1  0
  3 24  1  0
  4 25  1  0
  4 26  1  0
  6 27  1  0
  7 28  1  0
  8 29  1  0
  9 30  1  0
 10 31  1  0
 11 32  1  0
 12 33  1  0
 12 34  1  0
 14 35  1  0
 15 36  1  0
 16 37  1  0
 17 38  1  0
A    1
 C1 
A    2
 C2 
A    3
 C3 
A    4
 C4 
A    5
 C5 
A    6
 C6 
A    7
 C7 
A    8
 C8 
A    9
 C9 
A   10
 C10
A   11
 N1 
A   12
 C11
A   13
 C12
A   14
 C13
A   15
 C14
A   16
 C15
A   17
 C16
A   18
 N2 
A   19
 H1 
A   20
 H2 
A   21
 H3 
A   22
 H4 
A   23
 H5 
A   24
 H6 
A   25
 H7 
A   26
 H8 
A   27
 H9 
A   28
 H10
A   29
 H11
A   30
 H12
A   31
 H13
A   32
 H14
A   33
 H15
A   34
 H16
A   35
 H17
A   36
 H18
A   37
 H19
A   38
 H20
M  END
>  <ref_pdb>  (136) 
x0051_0B

>  <ref_mols>  (136) 
x0051_0B

>  <original SMILES>  (136) 
[H]c1nc(C([H])([H])N([H])C([H])(C([H])([H])[H])C([H])([H])C([H])([H])c2c([H])c([H])c([H])c([H])c2[H])c([H])c([H])c1[H]

>  <index>  (136) 
1515.0

>  <∆∆G>  (136) 
-2.354448

>  <comRMSD>  (136) 
0.859778

>  <N_constrained_atoms>  (136) 
19.0

>  <N_unconstrained_atoms>  (136) 
1.0

>  <LE>  (136) 
0.117722

>  <percent_hybrid>  (136) 
43.0

>  <largest_ring>  (136) 
6.0

>  <N_HA>  (136) 
18.0

>  <N_rotatable_bonds>  (136) 
7.0

>  <max_hit_Tanimoto>  (136) 
0.191781

>  <N_interactions_kept>  (136) 
0.5

>  <N_interactions_lost>  (136) 
0.5

>  <interaction_uniqueness_metric>  (136) 
0.138281

>  <N_interactions>  (136) 
6.0

>  <N_PAINS>  (136) 
0.0

>  <UFF_Gibbs>  (136) 
448612.567775

>  <strain_per_HA>  (136) 
24922.781972

>  <ad_hoc_penalty>  (136) 
-17.320749

>  <cluster>  (136) 
5509.0

>  <intxn_cluster>  (136) 
11.0

>  <keep>  (136) 
1.0

>  <hydroph_interaction:GLN:74>  (136) 
1.0

>  <hydroph_interaction:THR:118>  (136) 
0.0

>  <hydroph_interaction:ILE:123>  (136) 
2.0

>  <hydroph_interaction:THR:166>  (136) 
0.0

>  <hbond:GLN:167>  (136) 
0.0

>  <hydroph_interaction:ALA:88>  (136) 
0.0

>  <hydroph_interaction:ASP:120>  (136) 
1.0

>  <hydroph_interaction:GLN:167>  (136) 
0.0

>  <hbond:THR:118>  (136) 
1.0

>  <hydroph_interaction:ALA:164>  (136) 
1.0

>  <hbond:ASP:120>  (136) 
0.0

>  <hbond:THR:166>  (136) 
0.0

>  <hydroph_interaction:LEU:76>  (136) 
0.0

>  <hbond:ILE:165>  (136) 
0.0

>  <halogenbond:GLN:74>  (136) 
0.0

>  <hbond:GLN:74>  (136) 
0.0

>  <hbond:LYS:73>  (136) 
0.0

>  <pistack:TRP:69>  (136) 
0.0

>  <hbond:TRP:83>  (136) 
0.0

>  <hydroph_interaction:TRP:83>  (136) 
0.0

>  <hydroph_interaction:TRP:69>  (136) 
0.0

>  <pication:TRP:69>  (136) 
0.0

>  <hydroph_interaction:PRO:82>  (136) 
0.0

>  <halogenbond:LYS:73>  (136) 
0.0

>  <hydroph_interaction:TYR:68>  (136) 
0.0

>  <halogenbond:GLN:167>  (136) 
0.0

>  <hydroph_interaction:PHE:116>  (136) 
0.0

>  <hbond:TYR:68>  (136) 
0.0

>  <hbond:ASP:122>  (136) 
0.0

>  <pistack:PHE:116>  (136) 
0.0

>  <hydroph_interaction:VAL:154>  (136) 
0.0

>  <hydroph_interaction:ASP:75>  (136) 
0.0

>  <hbond:GLY:121>  (136) 
0.0

>  <hydroph_interaction:ASN:152>  (136) 
0.0

>  <halogenbond:ILE:165>  (136) 
0.0

$$$$
Z1621248262-Z198195906S7-Z198195906S1
     RDKit          3D

 36 37  0  0  0  0  0  0  0  0999 V2000
  -10.5440   -4.8330   -9.8860 N   0  0  0  0  0  0  0  0  0  0  0  0
  -10.5300   -6.0840   -9.3800 C   0  0  0  0  0  0  0  0  0  0  0  0
  -11.7260   -6.3430   -9.4210 O   0  0  0  0  0  0  0  0  0  0  0  0
   -9.8810   -7.3450   -8.8160 C   0  0  0  0  0  0  0  0  0  0  0  0
   -8.7050   -7.5360   -9.0850 O   0  0  0  0  0  0  0  0  0  0  0  0
  -10.7400   -8.1240   -8.0600 N   0  0  0  0  0  0  0  0  0  0  0  0
  -10.8540   -9.5310   -8.1400 C   0  0  0  0  0  0  0  0  0  0  0  0
   -9.8940  -10.3260   -9.0240 C   0  0  0  0  0  0  0  0  0  0  0  0
  -10.0030  -11.7080   -9.1170 C   0  0  0  0  0  0  0  0  0  0  0  0
  -11.1030  -12.4250   -8.3150 C   0  0  0  0  0  0  0  0  0  0  0  0
  -11.9650  -11.6430   -7.5050 C   0  0  0  0  0  0  0  0  0  0  0  0
  -11.8400  -10.2450   -7.4220 C   0  0  0  0  0  0  0  0  0  0  0  0
  -12.7850   -9.6560   -6.5570 C   0  0  0  0  0  0  0  0  0  0  0  0
  -14.1610   -9.7560   -7.0520 N   0  0  0  0  0  0  0  0  0  0  0  0
  -15.1510   -9.7970   -5.9470 C   0  0  0  0  0  0  0  0  0  0  0  0
  -16.4540   -9.7600   -6.4390 C   0  0  0  0  0  0  0  0  0  0  0  0
  -16.4210   -9.7960   -7.8670 O   0  0  0  0  0  0  0  0  0  0  0  0
  -15.7720   -8.6120   -8.3440 C   0  0  0  0  0  0  0  0  0  0  0  0
  -14.4580   -8.5830   -7.8990 C   0  0  0  0  0  0  0  0  0  0  0  0
  -11.2200   -4.2380   -9.4240 H   0  0  0  0  0  0  0  0  0  0  0  0
   -9.6440   -4.3960  -10.0160 H   0  0  0  0  0  0  0  0  0  0  0  0
  -11.2840   -7.6570   -7.3450 H   0  0  0  0  0  0  0  0  0  0  0  0
   -9.1110   -9.8440   -9.6010 H   0  0  0  0  0  0  0  0  0  0  0  0
   -9.3250  -12.2860   -9.7470 H   0  0  0  0  0  0  0  0  0  0  0  0
  -11.1390  -13.5130   -8.4280 H   0  0  0  0  0  0  0  0  0  0  0  0
  -12.7430  -12.1410   -6.9320 H   0  0  0  0  0  0  0  0  0  0  0  0
  -12.7230  -10.2460   -5.6310 H   0  0  0  0  0  0  0  0  0  0  0  0
  -12.5930   -8.6420   -6.2130 H   0  0  0  0  0  0  0  0  0  0  0  0
  -15.0220   -8.9330   -5.2860 H   0  0  0  0  0  0  0  0  0  0  0  0
  -14.9960  -10.7020   -5.3500 H   0  0  0  0  0  0  0  0  0  0  0  0
  -16.9680  -10.6720   -6.1200 H   0  0  0  0  0  0  0  0  0  0  0  0
  -17.0930   -8.9280   -6.1440 H   0  0  0  0  0  0  0  0  0  0  0  0
  -15.9540   -8.5420   -9.4110 H   0  0  0  0  0  0  0  0  0  0  0  0
  -16.2990   -7.7730   -7.8780 H   0  0  0  0  0  0  0  0  0  0  0  0
  -13.7890   -8.5700   -8.7690 H   0  0  0  0  0  0  0  0  0  0  0  0
  -14.3000   -7.6560   -7.3340 H   0  0  0  0  0  0  0  0  0  0  0  0
  1  2  1  0
  2  3  2  0
  2  4  1  0
  4  5  2  0
  4  6  1  0
  6  7  1  0
  7  8  2  0
  8  9  1  0
  9 10  2  0
 10 11  1  0
 11 12  2  0
 12 13  1  0
 13 14  1  0
 14 15  1  0
 15 16  1  0
 16 17  1  0
 17 18  1  0
 18 19  1  0
 12  7  1  0
 19 14  1  0
  1 20  1  0
  1 21  1  0
  6 22  1  0
  8 23  1  0
  9 24  1  0
 10 25  1  0
 11 26  1  0
 13 27  1  0
 13 28  1  0
 15 29  1  0
 15 30  1  0
 16 31  1  0
 16 32  1  0
 18 33  1  0
 18 34  1  0
 19 35  1  0
 19 36  1  0
A    1
 N1 
A    2
 C1 
A    3
 O1 
A    4
 C2 
A    5
 O2 
A    6
 N2 
A    7
 C3 
A    8
 C4 
A    9
 C5 
A   10
 C6 
A   11
 C7 
A   12
 C8 
A   13
 C9 
A   14
 N3 
A   15
 C10
A   16
 C11
A   17
 O3 
A   18
 C12
A   19
 C13
A   20
 H1 
A   21
 H2 
A   22
 H3 
A   23
 H4 
A   24
 H5 
A   25
 H6 
A   26
 H7 
A   27
 H8 
A   28
 H9 
A   29
 H10
A   30
 H11
A   31
 H12
A   32
 H13
A   33
 H14
A   34
 H15
A   35
 H16
A   36
 H17
M  END
>  <ref_pdb>  (137) 
x0051_0B

>  <ref_mols>  (137) 
x0051_0B

>  <original SMILES>  (137) 
[H]c1c([H])c([H])c(C([H])([H])N2C([H])([H])C([H])([H])OC([H])([H])C2([H])[H])c(N([H])C(=O)C(=O)N([H])[H])c1[H]

>  <index>  (137) 
3350.0

>  <∆∆G>  (137) 
-3.765692

>  <comRMSD>  (137) 
0.430531

>  <N_constrained_atoms>  (137) 
17.0

>  <N_unconstrained_atoms>  (137) 
2.0

>  <LE>  (137) 
0.198194

>  <percent_hybrid>  (137) 
24.0

>  <largest_ring>  (137) 
6.0

>  <N_HA>  (137) 
19.0

>  <N_rotatable_bonds>  (137) 
3.0

>  <max_hit_Tanimoto>  (137) 
0.385263

>  <N_interactions_kept>  (137) 
0.0

>  <N_interactions_lost>  (137) 
1.0

>  <interaction_uniqueness_metric>  (137) 
0.110297

>  <N_interactions>  (137) 
4.0

>  <N_PAINS>  (137) 
0.0

>  <UFF_Gibbs>  (137) 
158.121735

>  <strain_per_HA>  (137) 
8.322153

>  <ad_hoc_penalty>  (137) 
-17.288287

>  <cluster>  (137) 
46.0

>  <intxn_cluster>  (137) 
15.0

>  <keep>  (137) 
1.0

>  <hydroph_interaction:GLN:74>  (137) 
0.0

>  <hydroph_interaction:THR:118>  (137) 
1.0

>  <hydroph_interaction:ILE:123>  (137) 
1.0

>  <hydroph_interaction:THR:166>  (137) 
0.0

>  <hbond:GLN:167>  (137) 
0.0

>  <hydroph_interaction:ALA:88>  (137) 
0.0

>  <hydroph_interaction:ASP:120>  (137) 
1.0

>  <hydroph_interaction:GLN:167>  (137) 
0.0

>  <hbond:THR:118>  (137) 
0.0

>  <hydroph_interaction:ALA:164>  (137) 
0.0

>  <hbond:ASP:120>  (137) 
0.0

>  <hbond:THR:166>  (137) 
1.0

>  <hydroph_interaction:LEU:76>  (137) 
0.0

>  <hbond:ILE:165>  (137) 
0.0

>  <halogenbond:GLN:74>  (137) 
0.0

>  <hbond:GLN:74>  (137) 
0.0

>  <hbond:LYS:73>  (137) 
0.0

>  <pistack:TRP:69>  (137) 
0.0

>  <hbond:TRP:83>  (137) 
0.0

>  <hydroph_interaction:TRP:83>  (137) 
0.0

>  <hydroph_interaction:TRP:69>  (137) 
0.0

>  <pication:TRP:69>  (137) 
0.0

>  <hydroph_interaction:PRO:82>  (137) 
0.0

>  <halogenbond:LYS:73>  (137) 
0.0

>  <hydroph_interaction:TYR:68>  (137) 
0.0

>  <halogenbond:GLN:167>  (137) 
0.0

>  <hydroph_interaction:PHE:116>  (137) 
0.0

>  <hbond:TYR:68>  (137) 
0.0

>  <hbond:ASP:122>  (137) 
0.0

>  <pistack:PHE:116>  (137) 
0.0

>  <hydroph_interaction:VAL:154>  (137) 
0.0

>  <hydroph_interaction:ASP:75>  (137) 
0.0

>  <hbond:GLY:121>  (137) 
0.0

>  <hydroph_interaction:ASN:152>  (137) 
0.0

>  <halogenbond:ILE:165>  (137) 
0.0

$$$$
PV-005318119400-Z198195906S10-x0884S2
     RDKit          3D

 28 29  0  0  0  0  0  0  0  0999 V2000
  -11.3600   -7.8690   -7.8330 C   0  0  0  0  0  0  0  0  0  0  0  0
  -11.3900   -9.3310   -8.1470 C   0  0  0  0  0  0  0  0  0  0  0  0
  -10.2060   -9.9010   -8.5710 C   0  0  0  0  0  0  0  0  0  0  0  0
   -9.1060   -8.9510   -8.6610 N   0  0  0  0  0  0  0  0  0  0  0  0
  -10.1190  -11.2570   -8.8770 C   0  0  0  0  0  0  0  0  0  0  0  0
  -11.2190  -12.0940   -8.7700 C   0  0  0  0  0  0  0  0  0  0  0  0
  -12.4120  -11.5150   -8.3530 C   0  0  0  0  0  0  0  0  0  0  0  0
  -12.5660  -10.1390   -8.0330 C   0  0  0  0  0  0  0  0  0  0  0  0
  -13.9430   -9.6110   -7.6080 C   0  0  0  0  0  0  0  0  0  0  0  0
  -14.7380  -10.4930   -6.8780 C   0  0  0  0  0  0  0  0  0  0  0  0
  -16.1500  -10.0760   -6.4160 C   0  0  0  0  0  0  0  0  0  0  0  0
  -16.6810   -8.6980   -6.7540 C   0  0  0  0  0  0  0  0  0  0  0  0
  -15.7620   -7.7730   -7.5510 C   0  0  0  0  0  0  0  0  0  0  0  0
  -14.3940   -8.3010   -7.9500 C   0  0  0  0  0  0  0  0  0  0  0  0
  -13.5990   -7.3720   -8.6970 C   0  0  0  0  0  0  0  0  0  0  0  0
  -12.9840   -6.5700   -9.2670 N   0  0  0  0  0  0  0  0  0  0  0  0
  -11.2590   -7.2720   -8.7410 H   0  0  0  0  0  0  0  0  0  0  0  0
  -12.2680   -7.5760   -7.2990 H   0  0  0  0  0  0  0  0  0  0  0  0
  -10.4960   -7.6330   -7.2030 H   0  0  0  0  0  0  0  0  0  0  0  0
   -8.6170   -8.8190   -7.7810 H   0  0  0  0  0  0  0  0  0  0  0  0
   -8.4610   -9.1590   -9.4180 H   0  0  0  0  0  0  0  0  0  0  0  0
   -9.1620  -11.6710   -9.2100 H   0  0  0  0  0  0  0  0  0  0  0  0
  -11.0540  -13.1470   -9.0290 H   0  0  0  0  0  0  0  0  0  0  0  0
  -13.2980  -12.1510   -8.2660 H   0  0  0  0  0  0  0  0  0  0  0  0
  -14.3640  -11.4880   -6.6310 H   0  0  0  0  0  0  0  0  0  0  0  0
  -16.7630  -10.7720   -5.8500 H   0  0  0  0  0  0  0  0  0  0  0  0
  -17.6740   -8.3770   -6.4400 H   0  0  0  0  0  0  0  0  0  0  0  0
  -16.0890   -6.7670   -7.8210 H   0  0  0  0  0  0  0  0  0  0  0  0
  1  2  1  0
  2  3  2  0
  3  4  1  0
  3  5  1  0
  5  6  2  0
  6  7  1  0
  7  8  2  0
  8  9  1  0
  9 10  2  0
 10 11  1  0
 11 12  2  0
 12 13  1  0
 13 14  2  0
 14 15  1  0
 15 16  3  0
  8  2  1  0
 14  9  1  0
  1 17  1  0
  1 18  1  0
  1 19  1  0
  4 20  1  0
  4 21  1  0
  5 22  1  0
  6 23  1  0
  7 24  1  0
 10 25  1  0
 11 26  1  0
 12 27  1  0
 13 28  1  0
A    1
 C1 
A    2
 C2 
A    3
 C3 
A    4
 N1 
A    5
 C4 
A    6
 C5 
A    7
 C6 
A    8
 C7 
A    9
 C8 
A   10
 C9 
A   11
 C10
A   12
 C11
A   13
 C12
A   14
 C13
A   15
 C14
A   16
 N2 
A   17
 H1 
A   18
 H2 
A   19
 H3 
A   20
 H4 
A   21
 H5 
A   22
 H6 
A   23
 H7 
A   24
 H8 
A   25
 H9 
A   26
 H10
A   27
 H11
A   28
 H12
M  END
>  <ref_pdb>  (138) 
x0051_0B

>  <ref_mols>  (138) 
x0051_0B

>  <original SMILES>  (138) 
[H]c1c([H])c([H])c(-c2c([H])c([H])c([H])c(N([H])[H])c2C([H])([H])[H])c(C#N)c1[H]

>  <index>  (138) 
2912.0

>  <∆∆G>  (138) 
-2.542235

>  <comRMSD>  (138) 
0.465276

>  <N_constrained_atoms>  (138) 
15.0

>  <N_unconstrained_atoms>  (138) 
1.0

>  <LE>  (138) 
0.15889

>  <percent_hybrid>  (138) 
43.0

>  <largest_ring>  (138) 
6.0

>  <N_HA>  (138) 
16.0

>  <N_rotatable_bonds>  (138) 
3.0

>  <max_hit_Tanimoto>  (138) 
0.186603

>  <N_interactions_kept>  (138) 
0.5

>  <N_interactions_lost>  (138) 
0.5

>  <interaction_uniqueness_metric>  (138) 
0.047162

>  <N_interactions>  (138) 
4.0

>  <N_PAINS>  (138) 
0.0

>  <UFF_Gibbs>  (138) 
166.304378

>  <strain_per_HA>  (138) 
10.393959

>  <ad_hoc_penalty>  (138) 
-17.25654

>  <cluster>  (138) 
4987.0

>  <intxn_cluster>  (138) 
9.0

>  <keep>  (138) 
1.0

>  <hydroph_interaction:GLN:74>  (138) 
0.0

>  <hydroph_interaction:THR:118>  (138) 
0.0

>  <hydroph_interaction:ILE:123>  (138) 
2.0

>  <hydroph_interaction:THR:166>  (138) 
0.0

>  <hbond:GLN:167>  (138) 
0.0

>  <hydroph_interaction:ALA:88>  (138) 
0.0

>  <hydroph_interaction:ASP:120>  (138) 
0.0

>  <hydroph_interaction:GLN:167>  (138) 
0.0

>  <hbond:THR:118>  (138) 
2.0

>  <hydroph_interaction:ALA:164>  (138) 
0.0

>  <hbond:ASP:120>  (138) 
0.0

>  <hbond:THR:166>  (138) 
0.0

>  <hydroph_interaction:LEU:76>  (138) 
0.0

>  <hbond:ILE:165>  (138) 
0.0

>  <halogenbond:GLN:74>  (138) 
0.0

>  <hbond:GLN:74>  (138) 
0.0

>  <hbond:LYS:73>  (138) 
0.0

>  <pistack:TRP:69>  (138) 
0.0

>  <hbond:TRP:83>  (138) 
0.0

>  <hydroph_interaction:TRP:83>  (138) 
0.0

>  <hydroph_interaction:TRP:69>  (138) 
0.0

>  <pication:TRP:69>  (138) 
0.0

>  <hydroph_interaction:PRO:82>  (138) 
0.0

>  <halogenbond:LYS:73>  (138) 
0.0

>  <hydroph_interaction:TYR:68>  (138) 
0.0

>  <halogenbond:GLN:167>  (138) 
0.0

>  <hydroph_interaction:PHE:116>  (138) 
0.0

>  <hbond:TYR:68>  (138) 
0.0

>  <hbond:ASP:122>  (138) 
0.0

>  <pistack:PHE:116>  (138) 
0.0

>  <hydroph_interaction:VAL:154>  (138) 
0.0

>  <hydroph_interaction:ASP:75>  (138) 
0.0

>  <hbond:GLY:121>  (138) 
0.0

>  <hydroph_interaction:ASN:152>  (138) 
0.0

>  <halogenbond:ILE:165>  (138) 
0.0

$$$$
PV-002854001263-x0214S3-Z198195906S6
     RDKit          3D

 21 21  0  0  0  0  0  0  0  0999 V2000
  -10.1700   -8.1410   -8.2690 C   0  0  0  0  0  0  0  0  0  0  0  0
   -9.6250   -7.3380   -9.3580 N   0  0  0  0  0  0  0  0  0  0  0  0
  -10.5730   -6.3210   -9.8170 C   0  0  0  0  0  0  0  0  0  0  0  0
  -10.3130   -5.0680  -10.4320 O   0  0  0  0  0  0  0  0  0  0  0  0
  -11.9730   -6.6910   -9.5590 C   0  0  0  0  0  0  0  0  0  0  0  0
  -12.7950   -6.1610   -8.6170 C   0  0  0  0  0  0  0  0  0  0  0  0
  -14.0700   -6.6640   -8.5010 C   0  0  0  0  0  0  0  0  0  0  0  0
  -14.9210   -6.1540   -7.5640 C   0  0  0  0  0  0  0  0  0  0  0  0
  -14.4960   -7.6810   -9.3270 C   0  0  0  0  0  0  0  0  0  0  0  0
  -13.6260   -8.1600  -10.2560 C   0  0  0  0  0  0  0  0  0  0  0  0
  -12.3850   -7.6810  -10.3850 N   0  0  0  0  0  0  0  0  0  0  0  0
   -9.4540   -8.9300   -8.0130 H   0  0  0  0  0  0  0  0  0  0  0  0
  -10.3690   -7.5420   -7.3750 H   0  0  0  0  0  0  0  0  0  0  0  0
  -11.1000   -8.6440   -8.5610 H   0  0  0  0  0  0  0  0  0  0  0  0
   -9.4040   -7.9400  -10.1540 H   0  0  0  0  0  0  0  0  0  0  0  0
  -12.4500   -5.3610   -7.9630 H   0  0  0  0  0  0  0  0  0  0  0  0
  -15.1290   -5.1130   -7.8360 H   0  0  0  0  0  0  0  0  0  0  0  0
  -15.8860   -6.6210   -7.3730 H   0  0  0  0  0  0  0  0  0  0  0  0
  -14.3760   -6.1330   -6.6270 H   0  0  0  0  0  0  0  0  0  0  0  0
  -15.4980   -8.0950   -9.2490 H   0  0  0  0  0  0  0  0  0  0  0  0
  -13.9040   -8.9580  -10.9380 H   0  0  0  0  0  0  0  0  0  0  0  0
  1  2  1  0
  2  3  1  0
  3  4  2  0
  3  5  1  0
  5  6  2  0
  6  7  1  0
  7  8  1  0
  7  9  2  0
  9 10  1  0
 10 11  2  0
 11  5  1  0
  1 12  1  0
  1 13  1  0
  1 14  1  0
  2 15  1  0
  6 16  1  0
  8 17  1  0
  8 18  1  0
  8 19  1  0
  9 20  1  0
 10 21  1  0
A    1
 C1 
A    2
 N1 
A    3
 C2 
A    4
 O1 
A    5
 C3 
A    6
 C4 
A    7
 C5 
A    8
 C6 
A    9
 C7 
A   10
 C8 
A   11
 N2 
A   12
 H1 
A   13
 H2 
A   14
 H3 
A   15
 H4 
A   16
 H5 
A   17
 H6 
A   18
 H7 
A   19
 H8 
A   20
 H9 
A   21
 H10
M  END
>  <ref_pdb>  (139) 
x0051_0B

>  <ref_mols>  (139) 
x0051_0B

>  <original SMILES>  (139) 
[H]c1nc(C(=O)N([H])C([H])([H])[H])c([H])c(C([H])([H])[H])c1[H]

>  <index>  (139) 
1855.0

>  <∆∆G>  (139) 
-4.45099

>  <comRMSD>  (139) 
0.878159

>  <N_constrained_atoms>  (139) 
10.0

>  <N_unconstrained_atoms>  (139) 
1.0

>  <LE>  (139) 
0.404635

>  <percent_hybrid>  (139) 
45.0

>  <largest_ring>  (139) 
6.0

>  <N_HA>  (139) 
11.0

>  <N_rotatable_bonds>  (139) 
3.0

>  <max_hit_Tanimoto>  (139) 
0.101307

>  <N_interactions_kept>  (139) 
0.0

>  <N_interactions_lost>  (139) 
0.0

>  <interaction_uniqueness_metric>  (139) 
0.053053

>  <N_interactions>  (139) 
2.0

>  <N_PAINS>  (139) 
0.0

>  <UFF_Gibbs>  (139) 
74.77576

>  <strain_per_HA>  (139) 
6.797735

>  <ad_hoc_penalty>  (139) 
-17.015339

>  <cluster>  (139) 
5405.0

>  <intxn_cluster>  (139) 
5.0

>  <keep>  (139) 
1.0

>  <hydroph_interaction:GLN:74>  (139) 
1.0

>  <hydroph_interaction:THR:118>  (139) 
0.0

>  <hydroph_interaction:ILE:123>  (139) 
0.0

>  <hydroph_interaction:THR:166>  (139) 
1.0

>  <hbond:GLN:167>  (139) 
0.0

>  <hydroph_interaction:ALA:88>  (139) 
0.0

>  <hydroph_interaction:ASP:120>  (139) 
0.0

>  <hydroph_interaction:GLN:167>  (139) 
0.0

>  <hbond:THR:118>  (139) 
0.0

>  <hydroph_interaction:ALA:164>  (139) 
0.0

>  <hbond:ASP:120>  (139) 
0.0

>  <hbond:THR:166>  (139) 
0.0

>  <hydroph_interaction:LEU:76>  (139) 
0.0

>  <hbond:ILE:165>  (139) 
0.0

>  <halogenbond:GLN:74>  (139) 
0.0

>  <hbond:GLN:74>  (139) 
0.0

>  <hbond:LYS:73>  (139) 
0.0

>  <pistack:TRP:69>  (139) 
0.0

>  <hbond:TRP:83>  (139) 
0.0

>  <hydroph_interaction:TRP:83>  (139) 
0.0

>  <hydroph_interaction:TRP:69>  (139) 
0.0

>  <pication:TRP:69>  (139) 
0.0

>  <hydroph_interaction:PRO:82>  (139) 
0.0

>  <halogenbond:LYS:73>  (139) 
0.0

>  <hydroph_interaction:TYR:68>  (139) 
0.0

>  <halogenbond:GLN:167>  (139) 
0.0

>  <hydroph_interaction:PHE:116>  (139) 
0.0

>  <hbond:TYR:68>  (139) 
0.0

>  <hbond:ASP:122>  (139) 
0.0

>  <pistack:PHE:116>  (139) 
0.0

>  <hydroph_interaction:VAL:154>  (139) 
0.0

>  <hydroph_interaction:ASP:75>  (139) 
0.0

>  <hbond:GLY:121>  (139) 
0.0

>  <hydroph_interaction:ASN:152>  (139) 
0.0

>  <halogenbond:ILE:165>  (139) 
0.0

$$$$
PV-002958716235-x0130S1-x0944S4
     RDKit          3D

 23 23  0  0  0  0  0  0  0  0999 V2000
  -26.1660   -5.2480   -3.7800 C   0  0  0  0  0  0  0  0  0  0  0  0
  -26.0660   -5.7260   -2.3480 C   0  0  0  0  0  0  0  0  0  0  0  0
  -26.2630   -7.2040   -2.0950 C   0  0  0  0  0  0  0  0  0  0  0  0
  -26.6070   -7.3900   -0.6310 C   0  0  0  0  0  0  0  0  0  0  0  0
  -27.9160   -6.8140   -0.3570 N   0  0  0  0  0  0  0  0  0  0  0  0
  -28.2430   -6.7830    1.0620 C   0  0  0  0  0  0  0  0  0  0  0  0
  -28.1650   -5.5270   -1.0390 C   0  0  0  0  0  0  0  0  0  0  0  0
  -26.9850   -4.8730   -1.4350 C   0  0  0  0  0  0  0  0  0  0  0  0
  -25.1710   -5.2430   -4.2370 H   0  0  0  0  0  0  0  0  0  0  0  0
  -26.5540   -4.2250   -3.8000 H   0  0  0  0  0  0  0  0  0  0  0  0
  -26.8130   -5.9110   -4.3560 H   0  0  0  0  0  0  0  0  0  0  0  0
  -25.0520   -5.5460   -2.0180 H   0  0  0  0  0  0  0  0  0  0  0  0
  -25.3510   -7.7550   -2.3560 H   0  0  0  0  0  0  0  0  0  0  0  0
  -27.0730   -7.6030   -2.7200 H   0  0  0  0  0  0  0  0  0  0  0  0
  -25.8450   -6.9540    0.0180 H   0  0  0  0  0  0  0  0  0  0  0  0
  -26.6490   -8.4480   -0.3530 H   0  0  0  0  0  0  0  0  0  0  0  0
  -28.7280   -7.7080    1.3940 H   0  0  0  0  0  0  0  0  0  0  0  0
  -27.3400   -6.6640    1.6680 H   0  0  0  0  0  0  0  0  0  0  0  0
  -28.8980   -5.9380    1.2990 H   0  0  0  0  0  0  0  0  0  0  0  0
  -28.7810   -5.7320   -1.9250 H   0  0  0  0  0  0  0  0  0  0  0  0
  -28.7400   -4.8490   -0.4060 H   0  0  0  0  0  0  0  0  0  0  0  0
  -27.2420   -3.9310   -1.9290 H   0  0  0  0  0  0  0  0  0  0  0  0
  -26.4250   -4.5940   -0.5340 H   0  0  0  0  0  0  0  0  0  0  0  0
  1  2  1  0
  2  3  1  0
  3  4  1  0
  4  5  1  0
  5  6  1  0
  5  7  1  0
  7  8  1  0
  8  2  1  0
  1  9  1  0
  1 10  1  0
  1 11  1  0
  2 12  1  0
  3 13  1  0
  3 14  1  0
  4 15  1  0
  4 16  1  0
  6 17  1  0
  6 18  1  0
  6 19  1  0
  7 20  1  0
  7 21  1  0
  8 22  1  0
  8 23  1  0
A    1
 C1 
A    2
 C2 
A    3
 C3 
A    4
 C4 
A    5
 N1 
A    6
 C5 
A    7
 C6 
A    8
 C7 
A    9
 H1 
A   10
 H2 
A   11
 H3 
A   12
 H4 
A   13
 H5 
A   14
 H6 
A   15
 H7 
A   16
 H8 
A   17
 H9 
A   18
 H10
A   19
 H11
A   20
 H12
A   21
 H13
A   22
 H14
A   23
 H15
M  END
>  <ref_pdb>  (140) 
x0051_0B

>  <ref_mols>  (140) 
x0051_0B

>  <original SMILES>  (140) 
[H]C([H])([H])N1C([H])([H])C([H])([H])C([H])(C([H])([H])[H])C([H])([H])C1([H])[H]

>  <index>  (140) 
8788.0

>  <∆∆G>  (140) 
-2.659016

>  <comRMSD>  (140) 
0.52418

>  <N_constrained_atoms>  (140) 
9.0

>  <N_unconstrained_atoms>  (140) 
0.0

>  <LE>  (140) 
0.295446

>  <percent_hybrid>  (140) 
34.0

>  <largest_ring>  (140) 
6.0

>  <N_HA>  (140) 
8.0

>  <N_rotatable_bonds>  (140) 
2.0

>  <max_hit_Tanimoto>  (140) 
0.213483

>  <N_interactions_kept>  (140) 
1.0

>  <N_interactions_lost>  (140) 
0.0

>  <interaction_uniqueness_metric>  (140) 
0.145555

>  <N_interactions>  (140) 
2.0

>  <N_PAINS>  (140) 
0.0

>  <UFF_Gibbs>  (140) 
24.416479

>  <strain_per_HA>  (140) 
3.052022

>  <ad_hoc_penalty>  (140) 
-16.901622

>  <cluster>  (140) 
2568.0

>  <intxn_cluster>  (140) 
10.0

>  <keep>  (140) 
1.0

>  <hydroph_interaction:GLN:74>  (140) 
0.0

>  <hydroph_interaction:THR:118>  (140) 
0.0

>  <hydroph_interaction:ILE:123>  (140) 
0.0

>  <hydroph_interaction:THR:166>  (140) 
0.0

>  <hbond:GLN:167>  (140) 
0.0

>  <hydroph_interaction:ALA:88>  (140) 
0.0

>  <hydroph_interaction:ASP:120>  (140) 
0.0

>  <hydroph_interaction:GLN:167>  (140) 
0.0

>  <hbond:THR:118>  (140) 
0.0

>  <hydroph_interaction:ALA:164>  (140) 
0.0

>  <hbond:ASP:120>  (140) 
0.0

>  <hbond:THR:166>  (140) 
0.0

>  <hydroph_interaction:LEU:76>  (140) 
0.0

>  <hbond:ILE:165>  (140) 
0.0

>  <halogenbond:GLN:74>  (140) 
0.0

>  <hbond:GLN:74>  (140) 
0.0

>  <hbond:LYS:73>  (140) 
0.0

>  <pistack:TRP:69>  (140) 
0.0

>  <hbond:TRP:83>  (140) 
0.0

>  <hydroph_interaction:TRP:83>  (140) 
0.0

>  <hydroph_interaction:TRP:69>  (140) 
1.0

>  <pication:TRP:69>  (140) 
0.0

>  <hydroph_interaction:PRO:82>  (140) 
1.0

>  <halogenbond:LYS:73>  (140) 
0.0

>  <hydroph_interaction:TYR:68>  (140) 
0.0

>  <halogenbond:GLN:167>  (140) 
0.0

>  <hydroph_interaction:PHE:116>  (140) 
0.0

>  <hbond:TYR:68>  (140) 
0.0

>  <hbond:ASP:122>  (140) 
0.0

>  <pistack:PHE:116>  (140) 
0.0

>  <hydroph_interaction:VAL:154>  (140) 
0.0

>  <hydroph_interaction:ASP:75>  (140) 
0.0

>  <hbond:GLY:121>  (140) 
0.0

>  <hydroph_interaction:ASN:152>  (140) 
0.0

>  <halogenbond:ILE:165>  (140) 
0.0

$$$$
PV-002831307914-Z1318055457-x0806S2
     RDKit          3D

 47 50  0  0  0  0  0  0  0  0999 V2000
  -17.1940  -12.1780  -12.6130 C   0  0  0  0  0  0  0  0  0  0  0  0
  -15.8060  -12.1260  -12.0210 C   0  0  0  0  0  0  0  0  0  0  0  0
  -15.7810  -12.9420  -10.8450 O   0  0  0  0  0  0  0  0  0  0  0  0
  -15.4160  -10.6950  -11.6910 C   0  0  0  0  0  0  0  0  0  0  0  0
  -15.0460  -10.3050  -10.2960 C   0  0  0  0  0  0  0  0  0  0  0  0
  -14.7770   -8.9980  -10.4250 N   0  0  0  0  0  0  0  0  0  0  0  0
  -14.4200   -8.4120   -9.2320 C   0  0  0  0  0  0  0  0  0  0  0  0
  -15.1080   -8.9890   -8.0150 C   0  0  2  0  0  0  0  0  0  0  0  0
  -15.8090   -8.1540   -7.1310 C   0  0  0  0  0  0  0  0  0  0  0  0
  -16.2920   -8.9680   -6.0340 C   0  0  0  0  0  0  0  0  0  0  0  0
  -15.3470  -10.1190   -6.1000 C   0  0  0  0  0  0  0  0  0  0  0  0
  -14.3990   -9.8150   -7.1480 N   0  0  0  0  0  0  0  0  0  0  0  0
  -13.0550   -9.7020   -6.7650 C   0  0  0  0  0  0  0  0  0  0  0  0
  -12.7250   -9.1130   -5.7250 O   0  0  0  0  0  0  0  0  0  0  0  0
  -12.0030  -10.2830   -7.5890 C   0  0  0  0  0  0  0  0  0  0  0  0
  -11.9220  -11.6620   -7.8280 C   0  0  0  0  0  0  0  0  0  0  0  0
  -10.7970  -12.2430   -8.6810 C   0  0  0  0  0  0  0  0  0  0  0  0
   -9.7730  -11.2620   -9.2540 C   0  0  0  0  0  0  0  0  0  0  0  0
  -10.0550   -9.9340   -8.8960 C   0  0  0  0  0  0  0  0  0  0  0  0
   -9.0790   -8.9570   -9.4560 C   0  0  0  0  0  0  0  0  0  0  0  0
   -9.0810   -7.6270   -9.2870 N   0  0  0  0  0  0  0  0  0  0  0  0
  -10.0930   -7.1810   -8.5260 C   0  0  0  0  0  0  0  0  0  0  0  0
  -11.0710   -7.9980   -7.9490 C   0  0  0  0  0  0  0  0  0  0  0  0
  -11.0660   -9.4080   -8.1290 C   0  0  0  0  0  0  0  0  0  0  0  0
  -14.9280   -8.5440  -11.6970 N   0  0  0  0  0  0  0  0  0  0  0  0
  -15.3230   -9.5830  -12.4870 N   0  0  0  0  0  0  0  0  0  0  0  0
  -17.2230  -11.5980  -13.5420 H   0  0  0  0  0  0  0  0  0  0  0  0
  -17.9280  -11.7840  -11.9010 H   0  0  0  0  0  0  0  0  0  0  0  0
  -17.4750  -13.2070  -12.8510 H   0  0  0  0  0  0  0  0  0  0  0  0
  -15.0980  -12.5350  -12.7490 H   0  0  0  0  0  0  0  0  0  0  0  0
  -16.2020  -12.4120  -10.1450 H   0  0  0  0  0  0  0  0  0  0  0  0
  -15.0460  -11.0350   -9.4740 H   0  0  0  0  0  0  0  0  0  0  0  0
  -14.6360   -7.3450   -9.3460 H   0  0  0  0  0  0  0  0  0  0  0  0
  -13.3350   -8.5250   -9.1390 H   0  0  0  0  0  0  0  0  0  0  0  0
  -15.8500   -9.6920   -8.4070 H   0  0  0  0  0  0  0  0  0  0  0  0
  -15.1540   -7.3850   -6.7200 H   0  0  0  0  0  0  0  0  0  0  0  0
  -16.5680   -7.6390   -7.7220 H   0  0  0  0  0  0  0  0  0  0  0  0
  -17.3260   -9.2840   -6.2120 H   0  0  0  0  0  0  0  0  0  0  0  0
  -16.2170   -8.4830   -5.0540 H   0  0  0  0  0  0  0  0  0  0  0  0
  -14.7900  -10.2320   -5.1640 H   0  0  0  0  0  0  0  0  0  0  0  0
  -15.9040  -11.0450   -6.3030 H   0  0  0  0  0  0  0  0  0  0  0  0
  -12.6670  -12.3290   -7.3970 H   0  0  0  0  0  0  0  0  0  0  0  0
  -10.7240  -13.3230   -8.8710 H   0  0  0  0  0  0  0  0  0  0  0  0
   -8.9320  -11.5770   -9.8710 H   0  0  0  0  0  0  0  0  0  0  0  0
   -8.2960   -9.3890  -10.0610 H   0  0  0  0  0  0  0  0  0  0  0  0
  -10.1130   -6.0960   -8.3750 H   0  0  0  0  0  0  0  0  0  0  0  0
  -11.8430   -7.5210   -7.3520 H   0  0  0  0  0  0  0  0  0  0  0  0
  1  2  1  0
  2  3  1  0
  2  4  1  0
  4  5  2  0
  5  6  1  0
  6  7  1  0
  7  8  1  0
  8  9  1  0
  9 10  1  0
 10 11  1  0
 11 12  1  0
 12 13  1  0
 13 14  2  0
 13 15  1  0
 15 16  2  0
 16 17  1  0
 17 18  2  0
 18 19  1  0
 19 20  2  0
 20 21  1  0
 21 22  2  0
 22 23  1  0
 23 24  2  0
  6 25  1  0
 25 26  2  0
 26  4  1  0
 12  8  1  0
 24 15  1  0
 24 19  1  0
  1 27  1  0
  1 28  1  0
  1 29  1  0
  2 30  1  0
  3 31  1  0
  5 32  1  0
  7 33  1  0
  7 34  1  0
  8 35  1  6
  9 36  1  0
  9 37  1  0
 10 38  1  0
 10 39  1  0
 11 40  1  0
 11 41  1  0
 16 42  1  0
 17 43  1  0
 18 44  1  0
 20 45  1  0
 22 46  1  0
 23 47  1  0
A    1
 C1 
A    2
 C2 
A    3
 O1 
A    4
 C3 
A    5
 C4 
A    6
 N1 
A    7
 C5 
A    8
 C6 
A    9
 C7 
A   10
 C8 
A   11
 C9 
A   12
 N2 
A   13
 C10
A   14
 O2 
A   15
 C11
A   16
 C12
A   17
 C13
A   18
 C14
A   19
 C15
A   20
 C16
A   21
 N3 
A   22
 C17
A   23
 C18
A   24
 C19
A   25
 N4 
A   26
 N5 
A   27
 H1 
A   28
 H2 
A   29
 H3 
A   30
 H4 
A   31
 H5 
A   32
 H6 
A   33
 H7 
A   34
 H8 
A   35
 H9 
A   36
 H10
A   37
 H11
A   38
 H12
A   39
 H13
A   40
 H14
A   41
 H15
A   42
 H16
A   43
 H17
A   44
 H18
A   45
 H19
A   46
 H20
A   47
 H21
M  END
>  <ref_pdb>  (141) 
x0051_0B

>  <ref_mols>  (141) 
x0051_0B

>  <original SMILES>  (141) 
[H]OC([H])(c1nnn(C([H])([H])[C@@]2([H])N(C(=O)c3c([H])c([H])c([H])c4c([H])nc([H])c([H])c34)C([H])([H])C([H])([H])C2([H])[H])c1[H])C([H])([H])[H]

>  <index>  (141) 
9194.0

>  <∆∆G>  (141) 
-3.96472

>  <comRMSD>  (141) 
0.792357

>  <N_constrained_atoms>  (141) 
27.0

>  <N_unconstrained_atoms>  (141) 
1.0

>  <LE>  (141) 
0.141597

>  <percent_hybrid>  (141) 
30.0

>  <largest_ring>  (141) 
6.0

>  <N_HA>  (141) 
26.0

>  <N_rotatable_bonds>  (141) 
6.0

>  <max_hit_Tanimoto>  (141) 
0.298949

>  <N_interactions_kept>  (141) 
0.0

>  <N_interactions_lost>  (141) 
2.0

>  <interaction_uniqueness_metric>  (141) 
0.121281

>  <N_interactions>  (141) 
7.0

>  <N_PAINS>  (141) 
0.0

>  <UFF_Gibbs>  (141) 
161.212941

>  <strain_per_HA>  (141) 
6.200474

>  <ad_hoc_penalty>  (141) 
-16.518731

>  <cluster>  (141) 
42.0

>  <intxn_cluster>  (141) 
14.0

>  <keep>  (141) 
1.0

>  <hydroph_interaction:GLN:74>  (141) 
1.0

>  <hydroph_interaction:THR:118>  (141) 
1.0

>  <hydroph_interaction:ILE:123>  (141) 
2.0

>  <hydroph_interaction:THR:166>  (141) 
0.0

>  <hbond:GLN:167>  (141) 
2.0

>  <hydroph_interaction:ALA:88>  (141) 
1.0

>  <hydroph_interaction:ASP:120>  (141) 
0.0

>  <hydroph_interaction:GLN:167>  (141) 
0.0

>  <hbond:THR:118>  (141) 
0.0

>  <hydroph_interaction:ALA:164>  (141) 
0.0

>  <hbond:ASP:120>  (141) 
0.0

>  <hbond:THR:166>  (141) 
0.0

>  <hydroph_interaction:LEU:76>  (141) 
0.0

>  <hbond:ILE:165>  (141) 
0.0

>  <halogenbond:GLN:74>  (141) 
0.0

>  <hbond:GLN:74>  (141) 
0.0

>  <hbond:LYS:73>  (141) 
0.0

>  <pistack:TRP:69>  (141) 
0.0

>  <hbond:TRP:83>  (141) 
0.0

>  <hydroph_interaction:TRP:83>  (141) 
0.0

>  <hydroph_interaction:TRP:69>  (141) 
0.0

>  <pication:TRP:69>  (141) 
0.0

>  <hydroph_interaction:PRO:82>  (141) 
0.0

>  <halogenbond:LYS:73>  (141) 
0.0

>  <hydroph_interaction:TYR:68>  (141) 
0.0

>  <halogenbond:GLN:167>  (141) 
0.0

>  <hydroph_interaction:PHE:116>  (141) 
0.0

>  <hbond:TYR:68>  (141) 
0.0

>  <hbond:ASP:122>  (141) 
0.0

>  <pistack:PHE:116>  (141) 
0.0

>  <hydroph_interaction:VAL:154>  (141) 
0.0

>  <hydroph_interaction:ASP:75>  (141) 
0.0

>  <hbond:GLY:121>  (141) 
0.0

>  <hydroph_interaction:ASN:152>  (141) 
0.0

>  <halogenbond:ILE:165>  (141) 
0.0

$$$$
PV-002995346922-Z1318055457-x0806S2
     RDKit          3D

 47 50  0  0  0  0  0  0  0  0999 V2000
  -16.7990  -12.7870  -12.6140 C   0  0  0  0  0  0  0  0  0  0  0  0
  -16.3210  -11.9070  -11.9530 C   0  0  0  0  0  0  0  0  0  0  0  0
  -15.5000  -12.7950  -11.1760 O   0  0  0  0  0  0  0  0  0  0  0  0
  -15.6660  -10.6140  -11.5320 C   0  0  0  0  0  0  0  0  0  0  0  0
  -15.3170  -10.2790  -10.2510 C   0  0  0  0  0  0  0  0  0  0  0  0
  -14.7780   -9.0470  -10.2890 N   0  0  0  0  0  0  0  0  0  0  0  0
  -14.2980   -8.3160   -9.1300 C   0  0  0  0  0  0  0  0  0  0  0  0
  -15.1750   -8.8020   -8.1620 C   0  0  2  0  0  0  0  0  0  0  0  0
  -15.6820   -7.9660   -7.1950 C   0  0  0  0  0  0  0  0  0  0  0  0
  -16.3110   -8.8660   -6.1300 C   0  0  0  0  0  0  0  0  0  0  0  0
  -15.5460  -10.1730   -6.2800 C   0  0  0  0  0  0  0  0  0  0  0  0
  -14.5250   -9.7640   -7.2390 N   0  0  0  0  0  0  0  0  0  0  0  0
  -13.2260   -9.5710   -6.8480 C   0  0  0  0  0  0  0  0  0  0  0  0
  -12.9250   -8.9490   -5.8300 O   0  0  0  0  0  0  0  0  0  0  0  0
  -12.0960  -10.1460   -7.6870 C   0  0  0  0  0  0  0  0  0  0  0  0
  -12.0700  -11.6410   -7.9560 C   0  0  0  0  0  0  0  0  0  0  0  0
  -10.9080  -12.1350   -8.7870 C   0  0  0  0  0  0  0  0  0  0  0  0
   -9.9870  -11.2640   -9.2300 N   0  0  0  0  0  0  0  0  0  0  0  0
  -10.1000   -9.9300   -8.9400 C   0  0  0  0  0  0  0  0  0  0  0  0
   -9.1390   -9.0960   -9.4250 C   0  0  0  0  0  0  0  0  0  0  0  0
   -9.0790   -7.7190   -9.2330 C   0  0  0  0  0  0  0  0  0  0  0  0
  -10.0680   -7.1190   -8.4970 C   0  0  0  0  0  0  0  0  0  0  0  0
  -11.0800   -7.9160   -7.9760 C   0  0  0  0  0  0  0  0  0  0  0  0
  -11.1060   -9.3180   -8.1910 C   0  0  0  0  0  0  0  0  0  0  0  0
  -14.7750   -8.6040  -11.5740 N   0  0  0  0  0  0  0  0  0  0  0  0
  -15.3220   -9.5670  -12.3500 N   0  0  0  0  0  0  0  0  0  0  0  0
  -17.4310  -13.2840  -13.3490 H   0  0  0  0  0  0  0  0  0  0  0  0
  -16.9720  -13.5720  -11.8750 H   0  0  0  0  0  0  0  0  0  0  0  0
  -15.8630  -13.0760  -13.1010 H   0  0  0  0  0  0  0  0  0  0  0  0
  -17.2300  -11.7880  -11.3490 H   0  0  0  0  0  0  0  0  0  0  0  0
  -14.7920  -13.0940  -11.7780 H   0  0  0  0  0  0  0  0  0  0  0  0
  -15.5080  -10.9820   -9.4310 H   0  0  0  0  0  0  0  0  0  0  0  0
  -14.3850   -7.2650   -9.3960 H   0  0  0  0  0  0  0  0  0  0  0  0
  -13.2310   -8.4950   -9.0220 H   0  0  0  0  0  0  0  0  0  0  0  0
  -15.9620   -9.4000   -8.6140 H   0  0  0  0  0  0  0  0  0  0  0  0
  -16.2970   -7.1410   -7.5430 H   0  0  0  0  0  0  0  0  0  0  0  0
  -14.8210   -7.4700   -6.7280 H   0  0  0  0  0  0  0  0  0  0  0  0
  -17.3750   -9.0190   -6.3540 H   0  0  0  0  0  0  0  0  0  0  0  0
  -16.2310   -8.4440   -5.1220 H   0  0  0  0  0  0  0  0  0  0  0  0
  -16.1580  -10.9570   -6.7390 H   0  0  0  0  0  0  0  0  0  0  0  0
  -15.1110  -10.5330   -5.3450 H   0  0  0  0  0  0  0  0  0  0  0  0
  -12.8470  -12.3080   -7.5660 H   0  0  0  0  0  0  0  0  0  0  0  0
  -10.7630  -13.1800   -9.0550 H   0  0  0  0  0  0  0  0  0  0  0  0
   -8.3700   -9.5610  -10.0020 H   0  0  0  0  0  0  0  0  0  0  0  0
   -8.2680   -7.1360   -9.6590 H   0  0  0  0  0  0  0  0  0  0  0  0
  -10.0580   -6.0470   -8.3240 H   0  0  0  0  0  0  0  0  0  0  0  0
  -11.8610   -7.4370   -7.3920 H   0  0  0  0  0  0  0  0  0  0  0  0
  1  2  1  0
  2  3  1  0
  2  4  1  0
  4  5  2  0
  5  6  1  0
  6  7  1  0
  7  8  1  0
  8  9  1  0
  9 10  1  0
 10 11  1  0
 11 12  1  0
 12 13  1  0
 13 14  2  0
 13 15  1  0
 15 16  2  0
 16 17  1  0
 17 18  2  0
 18 19  1  0
 19 20  2  0
 20 21  1  0
 21 22  2  0
 22 23  1  0
 23 24  2  0
  6 25  1  0
 25 26  2  0
 26  4  1  0
 12  8  1  0
 24 15  1  0
 24 19  1  0
  1 27  1  0
  1 28  1  0
  1 29  1  0
  2 30  1  0
  3 31  1  0
  5 32  1  0
  7 33  1  0
  7 34  1  0
  8 35  1  6
  9 36  1  0
  9 37  1  0
 10 38  1  0
 10 39  1  0
 11 40  1  0
 11 41  1  0
 16 42  1  0
 17 43  1  0
 20 44  1  0
 21 45  1  0
 22 46  1  0
 23 47  1  0
A    1
 C1 
A    2
 C2 
A    3
 O1 
A    4
 C3 
A    5
 C4 
A    6
 N1 
A    7
 C5 
A    8
 C6 
A    9
 C7 
A   10
 C8 
A   11
 C9 
A   12
 N2 
A   13
 C10
A   14
 O2 
A   15
 C11
A   16
 C12
A   17
 C13
A   18
 N3 
A   19
 C14
A   20
 C15
A   21
 C16
A   22
 C17
A   23
 C18
A   24
 C19
A   25
 N4 
A   26
 N5 
A   27
 H1 
A   28
 H2 
A   29
 H3 
A   30
 H4 
A   31
 H5 
A   32
 H6 
A   33
 H7 
A   34
 H8 
A   35
 H9 
A   36
 H10
A   37
 H11
A   38
 H12
A   39
 H13
A   40
 H14
A   41
 H15
A   42
 H16
A   43
 H17
A   44
 H18
A   45
 H19
A   46
 H20
A   47
 H21
M  END
>  <ref_pdb>  (142) 
x0051_0B

>  <ref_mols>  (142) 
x0051_0B

>  <original SMILES>  (142) 
[H]OC([H])(c1nnn(C([H])([H])[C@@]2([H])N(C(=O)c3c([H])c([H])nc4c([H])c([H])c([H])c([H])c34)C([H])([H])C([H])([H])C2([H])[H])c1[H])C([H])([H])[H]

>  <index>  (142) 
9196.0

>  <∆∆G>  (142) 
-2.123294

>  <comRMSD>  (142) 
0.795244

>  <N_constrained_atoms>  (142) 
27.0

>  <N_unconstrained_atoms>  (142) 
1.0

>  <LE>  (142) 
0.075832

>  <percent_hybrid>  (142) 
30.0

>  <largest_ring>  (142) 
6.0

>  <N_HA>  (142) 
26.0

>  <N_rotatable_bonds>  (142) 
6.0

>  <max_hit_Tanimoto>  (142) 
0.270927

>  <N_interactions_kept>  (142) 
0.0

>  <N_interactions_lost>  (142) 
2.0

>  <interaction_uniqueness_metric>  (142) 
0.144728

>  <N_interactions>  (142) 
8.0

>  <N_PAINS>  (142) 
0.0

>  <UFF_Gibbs>  (142) 
386.142892

>  <strain_per_HA>  (142) 
14.851593

>  <ad_hoc_penalty>  (142) 
-16.435367

>  <cluster>  (142) 
334.0

>  <intxn_cluster>  (142) 
14.0

>  <keep>  (142) 
1.0

>  <hydroph_interaction:GLN:74>  (142) 
1.0

>  <hydroph_interaction:THR:118>  (142) 
1.0

>  <hydroph_interaction:ILE:123>  (142) 
2.0

>  <hydroph_interaction:THR:166>  (142) 
0.0

>  <hbond:GLN:167>  (142) 
2.0

>  <hydroph_interaction:ALA:88>  (142) 
1.0

>  <hydroph_interaction:ASP:120>  (142) 
0.0

>  <hydroph_interaction:GLN:167>  (142) 
0.0

>  <hbond:THR:118>  (142) 
1.0

>  <hydroph_interaction:ALA:164>  (142) 
0.0

>  <hbond:ASP:120>  (142) 
0.0

>  <hbond:THR:166>  (142) 
0.0

>  <hydroph_interaction:LEU:76>  (142) 
0.0

>  <hbond:ILE:165>  (142) 
0.0

>  <halogenbond:GLN:74>  (142) 
0.0

>  <hbond:GLN:74>  (142) 
0.0

>  <hbond:LYS:73>  (142) 
0.0

>  <pistack:TRP:69>  (142) 
0.0

>  <hbond:TRP:83>  (142) 
0.0

>  <hydroph_interaction:TRP:83>  (142) 
0.0

>  <hydroph_interaction:TRP:69>  (142) 
0.0

>  <pication:TRP:69>  (142) 
0.0

>  <hydroph_interaction:PRO:82>  (142) 
0.0

>  <halogenbond:LYS:73>  (142) 
0.0

>  <hydroph_interaction:TYR:68>  (142) 
0.0

>  <halogenbond:GLN:167>  (142) 
0.0

>  <hydroph_interaction:PHE:116>  (142) 
0.0

>  <hbond:TYR:68>  (142) 
0.0

>  <hbond:ASP:122>  (142) 
0.0

>  <pistack:PHE:116>  (142) 
0.0

>  <hydroph_interaction:VAL:154>  (142) 
0.0

>  <hydroph_interaction:ASP:75>  (142) 
0.0

>  <hbond:GLY:121>  (142) 
0.0

>  <hydroph_interaction:ASN:152>  (142) 
0.0

>  <halogenbond:ILE:165>  (142) 
0.0

$$$$
PV-002800415591-Z198195906S1-x0214S3
     RDKit          3D

 15 15  0  0  0  0  0  0  0  0999 V2000
   -9.5100   -6.5860   -9.4500 N   0  0  0  0  0  0  0  0  0  0  0  0
  -10.5870   -5.9130   -9.9640 C   0  0  0  0  0  0  0  0  0  0  0  0
  -10.4340   -4.9480  -10.6800 O   0  0  0  0  0  0  0  0  0  0  0  0
  -11.9400   -6.4490   -9.5350 C   0  0  0  0  0  0  0  0  0  0  0  0
  -12.6520   -7.1370  -10.4940 N   0  0  0  0  0  0  0  0  0  0  0  0
  -13.8300   -7.6460  -10.1190 C   0  0  0  0  0  0  0  0  0  0  0  0
  -14.3510   -7.4650   -8.7210 C   0  0  0  0  0  0  0  0  0  0  0  0
  -13.5790   -6.7500   -7.8180 C   0  0  0  0  0  0  0  0  0  0  0  0
  -12.3620   -6.2340   -8.2180 C   0  0  0  0  0  0  0  0  0  0  0  0
  -11.4530   -5.3750   -7.0460 Cl  0  0  0  0  0  0  0  0  0  0  0  0
   -8.7390   -6.7940  -10.0710 H   0  0  0  0  0  0  0  0  0  0  0  0
   -9.5810   -7.0250   -8.5430 H   0  0  0  0  0  0  0  0  0  0  0  0
  -14.3860   -8.1930  -10.8740 H   0  0  0  0  0  0  0  0  0  0  0  0
  -15.3130   -7.8820   -8.4200 H   0  0  0  0  0  0  0  0  0  0  0  0
  -13.9300   -6.6000   -6.7990 H   0  0  0  0  0  0  0  0  0  0  0  0
  1  2  1  0
  2  3  2  0
  2  4  1  0
  4  5  2  0
  5  6  1  0
  6  7  2  0
  7  8  1  0
  8  9  2  0
  9 10  1  0
  9  4  1  0
  1 11  1  0
  1 12  1  0
  6 13  1  0
  7 14  1  0
  8 15  1  0
A    1
 N1 
A    2
 C1 
A    3
 O1 
A    4
 C2 
A    5
 N2 
A    6
 C3 
A    7
 C4 
A    8
 C5 
A    9
 C6 
A   10
CL1 
A   11
 H1 
A   12
 H2 
A   13
 H3 
A   14
 H4 
A   15
 H5 
M  END
>  <ref_pdb>  (143) 
x0051_0B

>  <ref_mols>  (143) 
x0051_0B

>  <original SMILES>  (143) 
[H]c1nc(C(=O)N([H])[H])c(Cl)c([H])c1[H]

>  <index>  (143) 
2174.0

>  <∆∆G>  (143) 
-2.619051

>  <comRMSD>  (143) 
0.874185

>  <N_constrained_atoms>  (143) 
9.0

>  <N_unconstrained_atoms>  (143) 
1.0

>  <LE>  (143) 
0.261905

>  <percent_hybrid>  (143) 
38.0

>  <largest_ring>  (143) 
6.0

>  <N_HA>  (143) 
10.0

>  <N_rotatable_bonds>  (143) 
1.0

>  <max_hit_Tanimoto>  (143) 
0.101639

>  <N_interactions_kept>  (143) 
0.0

>  <N_interactions_lost>  (143) 
0.0

>  <interaction_uniqueness_metric>  (143) 
0.258199

>  <N_interactions>  (143) 
1.0

>  <N_PAINS>  (143) 
0.0

>  <UFF_Gibbs>  (143) 
24.883378

>  <strain_per_HA>  (143) 
2.488313

>  <ad_hoc_penalty>  (143) 
-16.422769

>  <cluster>  (143) 
5296.0

>  <intxn_cluster>  (143) 
10.0

>  <keep>  (143) 
1.0

>  <hydroph_interaction:GLN:74>  (143) 
0.0

>  <hydroph_interaction:THR:118>  (143) 
0.0

>  <hydroph_interaction:ILE:123>  (143) 
0.0

>  <hydroph_interaction:THR:166>  (143) 
0.0

>  <hbond:GLN:167>  (143) 
0.0

>  <hydroph_interaction:ALA:88>  (143) 
0.0

>  <hydroph_interaction:ASP:120>  (143) 
0.0

>  <hydroph_interaction:GLN:167>  (143) 
0.0

>  <hbond:THR:118>  (143) 
0.0

>  <hydroph_interaction:ALA:164>  (143) 
0.0

>  <hbond:ASP:120>  (143) 
0.0

>  <hbond:THR:166>  (143) 
0.0

>  <hydroph_interaction:LEU:76>  (143) 
0.0

>  <hbond:ILE:165>  (143) 
0.0

>  <halogenbond:GLN:74>  (143) 
0.0

>  <hbond:GLN:74>  (143) 
0.0

>  <hbond:LYS:73>  (143) 
0.0

>  <pistack:TRP:69>  (143) 
0.0

>  <hbond:TRP:83>  (143) 
0.0

>  <hydroph_interaction:TRP:83>  (143) 
0.0

>  <hydroph_interaction:TRP:69>  (143) 
0.0

>  <pication:TRP:69>  (143) 
0.0

>  <hydroph_interaction:PRO:82>  (143) 
0.0

>  <halogenbond:LYS:73>  (143) 
1.0

>  <hydroph_interaction:TYR:68>  (143) 
0.0

>  <halogenbond:GLN:167>  (143) 
0.0

>  <hydroph_interaction:PHE:116>  (143) 
0.0

>  <hbond:TYR:68>  (143) 
0.0

>  <hbond:ASP:122>  (143) 
0.0

>  <pistack:PHE:116>  (143) 
0.0

>  <hydroph_interaction:VAL:154>  (143) 
0.0

>  <hydroph_interaction:ASP:75>  (143) 
0.0

>  <hbond:GLY:121>  (143) 
0.0

>  <hydroph_interaction:ASN:152>  (143) 
0.0

>  <halogenbond:ILE:165>  (143) 
0.0

$$$$
PV-002830631872-x0806-x0214S1
     RDKit          3D

 41 42  0  0  0  0  0  0  0  0999 V2000
   -9.2400   -8.6040   -7.7570 C   0  0  0  0  0  0  0  0  0  0  0  0
   -9.9900   -9.5860   -6.8880 C   0  0  0  0  0  0  0  0  0  0  0  0
   -9.0250  -10.3750   -6.0870 C   0  0  0  0  0  0  0  0  0  0  0  0
  -10.8590  -10.4920   -7.7550 C   0  0  0  0  0  0  0  0  0  0  0  0
  -10.5950  -11.6420   -8.0270 O   0  0  0  0  0  0  0  0  0  0  0  0
  -11.9740   -9.8920   -8.2290 N   0  0  0  0  0  0  0  0  0  0  0  0
  -12.0460   -8.9640   -9.2860 C   0  0  0  0  0  0  0  0  0  0  0  0
  -12.8530   -7.9380   -9.0300 C   0  0  0  0  0  0  0  0  0  0  0  0
  -12.3000   -6.9670   -8.2020 C   0  0  0  0  0  0  0  0  0  0  0  0
  -13.0020   -5.8710   -7.7910 C   0  0  0  0  0  0  0  0  0  0  0  0
  -14.2880   -5.7520   -8.2190 C   0  0  0  0  0  0  0  0  0  0  0  0
  -14.8080   -6.7140   -9.0620 C   0  0  0  0  0  0  0  0  0  0  0  0
  -14.1380   -7.8300   -9.5120 C   0  0  0  0  0  0  0  0  0  0  0  0
  -14.7420   -8.7520  -10.3740 N   0  0  0  0  0  0  0  0  0  0  0  0
  -15.3220  -10.0010  -10.1250 C   0  0  0  0  0  0  0  0  0  0  0  0
  -15.7650  -10.5350  -11.3060 C   0  0  0  0  0  0  0  0  0  0  0  0
  -16.4420  -11.8950  -11.3630 C   0  0  0  0  0  0  0  0  0  0  0  0
  -17.0160  -12.3050  -12.5620 C   0  0  0  0  0  0  0  0  0  0  0  0
  -15.5840  -12.8750  -10.9880 O   0  0  0  0  0  0  0  0  0  0  0  0
  -15.4830   -9.6580  -12.3050 N   0  0  0  0  0  0  0  0  0  0  0  0
  -14.8730   -8.5920  -11.7340 N   0  0  0  0  0  0  0  0  0  0  0  0
   -9.8190   -7.6920   -7.9240 H   0  0  0  0  0  0  0  0  0  0  0  0
   -9.0090   -9.0290   -8.7320 H   0  0  0  0  0  0  0  0  0  0  0  0
   -8.2960   -8.3210   -7.2800 H   0  0  0  0  0  0  0  0  0  0  0  0
  -10.6530   -9.0540   -6.2000 H   0  0  0  0  0  0  0  0  0  0  0  0
   -8.6410  -11.2050   -6.6760 H   0  0  0  0  0  0  0  0  0  0  0  0
   -8.1790   -9.7770   -5.7800 H   0  0  0  0  0  0  0  0  0  0  0  0
   -9.4990  -10.7840   -5.1900 H   0  0  0  0  0  0  0  0  0  0  0  0
  -12.8530  -10.1230   -7.7870 H   0  0  0  0  0  0  0  0  0  0  0  0
  -11.0350   -8.5760   -9.3520 H   0  0  0  0  0  0  0  0  0  0  0  0
  -12.3640   -9.4670  -10.1930 H   0  0  0  0  0  0  0  0  0  0  0  0
  -11.2780   -7.0670   -7.8440 H   0  0  0  0  0  0  0  0  0  0  0  0
  -12.5460   -5.1300   -7.1410 H   0  0  0  0  0  0  0  0  0  0  0  0
  -14.8990   -4.9070   -7.9160 H   0  0  0  0  0  0  0  0  0  0  0  0
  -15.8100   -6.5620   -9.3850 H   0  0  0  0  0  0  0  0  0  0  0  0
  -15.3760  -10.4230   -9.1150 H   0  0  0  0  0  0  0  0  0  0  0  0
  -17.2410  -11.8940  -10.6100 H   0  0  0  0  0  0  0  0  0  0  0  0
  -18.1060  -12.1850  -12.5240 H   0  0  0  0  0  0  0  0  0  0  0  0
  -16.7870  -13.3520  -12.7830 H   0  0  0  0  0  0  0  0  0  0  0  0
  -16.6690  -11.6900  -13.4030 H   0  0  0  0  0  0  0  0  0  0  0  0
  -15.9280  -13.1650  -10.1180 H   0  0  0  0  0  0  0  0  0  0  0  0
  1  2  1  0
  2  3  1  0
  2  4  1  0
  4  5  2  0
  4  6  1  0
  6  7  1  0
  7  8  1  0
  8  9  2  0
  9 10  1  0
 10 11  2  0
 11 12  1  0
 12 13  2  0
 13 14  1  0
 14 15  1  0
 15 16  2  0
 16 17  1  0
 17 18  1  0
 17 19  1  0
 16 20  1  0
 20 21  2  0
 13  8  1  0
 21 14  1  0
  1 22  1  0
  1 23  1  0
  1 24  1  0
  2 25  1  0
  3 26  1  0
  3 27  1  0
  3 28  1  0
  6 29  1  0
  7 30  1  0
  7 31  1  0
  9 32  1  0
 10 33  1  0
 11 34  1  0
 12 35  1  0
 15 36  1  0
 17 37  1  0
 18 38  1  0
 18 39  1  0
 18 40  1  0
 19 41  1  0
A    1
 C1 
A    2
 C2 
A    3
 C3 
A    4
 C4 
A    5
 O1 
A    6
 N1 
A    7
 C5 
A    8
 C6 
A    9
 C7 
A   10
 C8 
A   11
 C9 
A   12
 C10
A   13
 C11
A   14
 N2 
A   15
 C12
A   16
 C13
A   17
 C14
A   18
 C15
A   19
 O2 
A   20
 N3 
A   21
 N4 
A   22
 H1 
A   23
 H2 
A   24
 H3 
A   25
 H4 
A   26
 H5 
A   27
 H6 
A   28
 H7 
A   29
 H8 
A   30
 H9 
A   31
 H10
A   32
 H11
A   33
 H12
A   34
 H13
A   35
 H14
A   36
 H15
A   37
 H16
A   38
 H17
A   39
 H18
A   40
 H19
A   41
 H20
M  END
>  <ref_pdb>  (144) 
x0051_0B

>  <ref_mols>  (144) 
x0051_0B

>  <original SMILES>  (144) 
[H]OC([H])(c1nnn(-c2c([H])c([H])c([H])c([H])c2C([H])([H])N([H])C(=O)C([H])(C([H])([H])[H])C([H])([H])[H])c1[H])C([H])([H])[H]

>  <index>  (144) 
2395.0

>  <∆∆G>  (144) 
-4.02168

>  <comRMSD>  (144) 
0.933621

>  <N_constrained_atoms>  (144) 
18.0

>  <N_unconstrained_atoms>  (144) 
3.0

>  <LE>  (144) 
0.191509

>  <percent_hybrid>  (144) 
23.0

>  <largest_ring>  (144) 
6.0

>  <N_HA>  (144) 
21.0

>  <N_rotatable_bonds>  (144) 
9.0

>  <max_hit_Tanimoto>  (144) 
0.479401

>  <N_interactions_kept>  (144) 
0.5

>  <N_interactions_lost>  (144) 
1.5

>  <interaction_uniqueness_metric>  (144) 
0.179261

>  <N_interactions>  (144) 
8.0

>  <N_PAINS>  (144) 
0.0

>  <UFF_Gibbs>  (144) 
146.357362

>  <strain_per_HA>  (144) 
6.969365

>  <ad_hoc_penalty>  (144) 
-16.229665

>  <cluster>  (144) 
12.0

>  <intxn_cluster>  (144) 
14.0

>  <keep>  (144) 
1.0

>  <hydroph_interaction:GLN:74>  (144) 
1.0

>  <hydroph_interaction:THR:118>  (144) 
1.0

>  <hydroph_interaction:ILE:123>  (144) 
0.0

>  <hydroph_interaction:THR:166>  (144) 
1.0

>  <hbond:GLN:167>  (144) 
2.0

>  <hydroph_interaction:ALA:88>  (144) 
1.0

>  <hydroph_interaction:ASP:120>  (144) 
1.0

>  <hydroph_interaction:GLN:167>  (144) 
0.0

>  <hbond:THR:118>  (144) 
1.0

>  <hydroph_interaction:ALA:164>  (144) 
0.0

>  <hbond:ASP:120>  (144) 
0.0

>  <hbond:THR:166>  (144) 
0.0

>  <hydroph_interaction:LEU:76>  (144) 
0.0

>  <hbond:ILE:165>  (144) 
0.0

>  <halogenbond:GLN:74>  (144) 
0.0

>  <hbond:GLN:74>  (144) 
0.0

>  <hbond:LYS:73>  (144) 
0.0

>  <pistack:TRP:69>  (144) 
0.0

>  <hbond:TRP:83>  (144) 
0.0

>  <hydroph_interaction:TRP:83>  (144) 
0.0

>  <hydroph_interaction:TRP:69>  (144) 
0.0

>  <pication:TRP:69>  (144) 
0.0

>  <hydroph_interaction:PRO:82>  (144) 
0.0

>  <halogenbond:LYS:73>  (144) 
0.0

>  <hydroph_interaction:TYR:68>  (144) 
0.0

>  <halogenbond:GLN:167>  (144) 
0.0

>  <hydroph_interaction:PHE:116>  (144) 
0.0

>  <hbond:TYR:68>  (144) 
0.0

>  <hbond:ASP:122>  (144) 
0.0

>  <pistack:PHE:116>  (144) 
0.0

>  <hydroph_interaction:VAL:154>  (144) 
0.0

>  <hydroph_interaction:ASP:75>  (144) 
0.0

>  <hbond:GLY:121>  (144) 
0.0

>  <hydroph_interaction:ASN:152>  (144) 
0.0

>  <halogenbond:ILE:165>  (144) 
0.0

$$$$
Z2518183157-Z198195906S1-x0884S2
     RDKit          3D

 22 22  0  0  0  0  0  0  0  0999 V2000
  -10.1620   -7.2610   -9.5090 N   0  0  0  0  0  0  0  0  0  0  0  0
  -11.2500   -6.4600   -9.4560 C   0  0  0  0  0  0  0  0  0  0  0  0
  -10.9290   -5.2740  -10.0160 N   0  0  0  0  0  0  0  0  0  0  0  0
  -12.4270   -6.6940   -8.9720 N   0  0  0  0  0  0  0  0  0  0  0  0
  -12.6240   -8.0190   -8.3900 C   0  0  0  0  0  0  0  0  0  0  0  0
  -13.9940   -8.4400   -7.8390 C   0  0  0  0  0  0  0  0  0  0  0  0
  -13.9290   -9.8570   -7.3470 C   0  0  0  0  0  0  0  0  0  0  0  0
  -12.7830  -10.5460   -7.4250 F   0  0  0  0  0  0  0  0  0  0  0  0
  -15.1760  -10.4940   -6.7620 C   0  0  0  0  0  0  0  0  0  0  0  0
  -16.4560   -9.6470   -6.7040 C   0  0  0  0  0  0  0  0  0  0  0  0
  -16.3750   -8.3310   -7.1960 C   0  0  0  0  0  0  0  0  0  0  0  0
  -15.2050   -7.7450   -7.7370 C   0  0  0  0  0  0  0  0  0  0  0  0
  -15.3190   -6.1230   -8.2670 Cl  0  0  0  0  0  0  0  0  0  0  0  0
   -9.4410   -6.9400  -10.1460 H   0  0  0  0  0  0  0  0  0  0  0  0
   -9.7620   -7.4090   -8.5890 H   0  0  0  0  0  0  0  0  0  0  0  0
  -11.4050   -4.5230   -9.5240 H   0  0  0  0  0  0  0  0  0  0  0  0
   -9.9300   -5.1100  -10.0230 H   0  0  0  0  0  0  0  0  0  0  0  0
  -11.8900   -8.1170   -7.5780 H   0  0  0  0  0  0  0  0  0  0  0  0
  -12.2770   -8.7930   -9.0870 H   0  0  0  0  0  0  0  0  0  0  0  0
  -15.1570  -11.5170   -6.3970 H   0  0  0  0  0  0  0  0  0  0  0  0
  -17.3830  -10.0420   -6.2980 H   0  0  0  0  0  0  0  0  0  0  0  0
  -17.2790   -7.7260   -7.1550 H   0  0  0  0  0  0  0  0  0  0  0  0
  1  2  1  0
  2  3  1  0
  2  4  2  3
  4  5  1  0
  5  6  1  0
  6  7  2  0
  7  8  1  0
  7  9  1  0
  9 10  2  0
 10 11  1  0
 11 12  2  0
 12 13  1  0
 12  6  1  0
  1 14  1  0
  1 15  1  0
  3 16  1  0
  3 17  1  0
  5 18  1  0
  5 19  1  0
  9 20  1  0
 10 21  1  0
 11 22  1  0
A    1
 N1 
A    2
 C1 
A    3
 N2 
A    4
 N3 
A    5
 C2 
A    6
 C3 
A    7
 C4 
A    8
 F1 
A    9
 C5 
A   10
 C6 
A   11
 C7 
A   12
 C8 
A   13
CL1 
A   14
 H1 
A   15
 H2 
A   16
 H3 
A   17
 H4 
A   18
 H5 
A   19
 H6 
A   20
 H7 
A   21
 H8 
A   22
 H9 
M  END
>  <ref_pdb>  (145) 
x0051_0B

>  <ref_mols>  (145) 
x0051_0B

>  <original SMILES>  (145) 
[H]c1c([H])c(F)c(C([H])([H])N=C(N([H])[H])N([H])[H])c(Cl)c1[H]

>  <index>  (145) 
5460.0

>  <∆∆G>  (145) 
-2.309863

>  <comRMSD>  (145) 
0.630851

>  <N_constrained_atoms>  (145) 
12.0

>  <N_unconstrained_atoms>  (145) 
1.0

>  <LE>  (145) 
0.177682

>  <percent_hybrid>  (145) 
28.0

>  <largest_ring>  (145) 
6.0

>  <N_HA>  (145) 
13.0

>  <N_rotatable_bonds>  (145) 
2.0

>  <max_hit_Tanimoto>  (145) 
0.142857

>  <N_interactions_kept>  (145) 
0.0

>  <N_interactions_lost>  (145) 
0.0

>  <interaction_uniqueness_metric>  (145) 
0.153834

>  <N_interactions>  (145) 
2.0

>  <N_PAINS>  (145) 
0.0

>  <UFF_Gibbs>  (145) 
93.133106

>  <strain_per_HA>  (145) 
7.16403

>  <ad_hoc_penalty>  (145) 
-16.049117

>  <cluster>  (145) 
3899.0

>  <intxn_cluster>  (145) 
10.0

>  <keep>  (145) 
1.0

>  <hydroph_interaction:GLN:74>  (145) 
0.0

>  <hydroph_interaction:THR:118>  (145) 
0.0

>  <hydroph_interaction:ILE:123>  (145) 
0.0

>  <hydroph_interaction:THR:166>  (145) 
0.0

>  <hbond:GLN:167>  (145) 
0.0

>  <hydroph_interaction:ALA:88>  (145) 
0.0

>  <hydroph_interaction:ASP:120>  (145) 
0.0

>  <hydroph_interaction:GLN:167>  (145) 
0.0

>  <hbond:THR:118>  (145) 
0.0

>  <hydroph_interaction:ALA:164>  (145) 
0.0

>  <hbond:ASP:120>  (145) 
0.0

>  <hbond:THR:166>  (145) 
1.0

>  <hydroph_interaction:LEU:76>  (145) 
0.0

>  <hbond:ILE:165>  (145) 
0.0

>  <halogenbond:GLN:74>  (145) 
1.0

>  <hbond:GLN:74>  (145) 
0.0

>  <hbond:LYS:73>  (145) 
0.0

>  <pistack:TRP:69>  (145) 
0.0

>  <hbond:TRP:83>  (145) 
0.0

>  <hydroph_interaction:TRP:83>  (145) 
0.0

>  <hydroph_interaction:TRP:69>  (145) 
0.0

>  <pication:TRP:69>  (145) 
0.0

>  <hydroph_interaction:PRO:82>  (145) 
0.0

>  <halogenbond:LYS:73>  (145) 
0.0

>  <hydroph_interaction:TYR:68>  (145) 
0.0

>  <halogenbond:GLN:167>  (145) 
0.0

>  <hydroph_interaction:PHE:116>  (145) 
0.0

>  <hbond:TYR:68>  (145) 
0.0

>  <hbond:ASP:122>  (145) 
0.0

>  <pistack:PHE:116>  (145) 
0.0

>  <hydroph_interaction:VAL:154>  (145) 
0.0

>  <hydroph_interaction:ASP:75>  (145) 
0.0

>  <hbond:GLY:121>  (145) 
0.0

>  <hydroph_interaction:ASN:152>  (145) 
0.0

>  <halogenbond:ILE:165>  (145) 
0.0

$$$$
Z4119076826-Z198195906S1-x0214S2
     RDKit          3D

 24 25  0  0  0  0  0  0  0  0999 V2000
  -13.3410   -7.8040  -11.7530 N   0  0  0  0  0  0  0  0  0  0  0  0
  -12.6710   -6.8490  -11.0450 C   0  0  0  0  0  0  0  0  0  0  0  0
  -11.8780   -5.7790  -11.5230 O   0  0  0  0  0  0  0  0  0  0  0  0
  -12.8490   -7.0160   -9.6330 C   0  0  0  0  0  0  0  0  0  0  0  0
  -13.2830   -8.2820   -9.2160 C   0  0  0  0  0  0  0  0  0  0  0  0
  -13.3710   -8.2280   -7.8760 N   0  0  0  0  0  0  0  0  0  0  0  0
  -13.7660   -9.3000   -7.0330 C   0  0  0  0  0  0  0  0  0  0  0  0
  -12.7070   -9.9110   -6.4010 C   0  0  0  0  0  0  0  0  0  0  0  0
  -12.4100   -9.2690   -5.2000 C   0  0  0  0  0  0  0  0  0  0  0  0
  -13.5900   -8.5180   -4.8600 O   0  0  0  0  0  0  0  0  0  0  0  0
  -14.5790   -8.8560   -5.8440 C   0  0  0  0  0  0  0  0  0  0  0  0
  -12.9810   -6.8760   -7.5300 C   0  0  0  0  0  0  0  0  0  0  0  0
  -12.6360   -6.0640   -8.6400 N   0  0  0  0  0  0  0  0  0  0  0  0
  -13.7720   -8.5680  -11.2520 H   0  0  0  0  0  0  0  0  0  0  0  0
  -13.5960   -7.6220  -12.7230 H   0  0  0  0  0  0  0  0  0  0  0  0
  -13.5140   -9.1730   -9.7860 H   0  0  0  0  0  0  0  0  0  0  0  0
  -14.3190  -10.0230   -7.6100 H   0  0  0  0  0  0  0  0  0  0  0  0
  -13.0810  -10.9090   -6.1330 H   0  0  0  0  0  0  0  0  0  0  0  0
  -11.8520  -10.1380   -7.0330 H   0  0  0  0  0  0  0  0  0  0  0  0
  -12.2080   -9.9940   -4.4060 H   0  0  0  0  0  0  0  0  0  0  0  0
  -11.5400   -8.6050   -5.2950 H   0  0  0  0  0  0  0  0  0  0  0  0
  -15.2350   -9.6440   -5.4570 H   0  0  0  0  0  0  0  0  0  0  0  0
  -15.1970   -7.9840   -6.0340 H   0  0  0  0  0  0  0  0  0  0  0  0
  -12.9450   -6.4930   -6.5020 H   0  0  0  0  0  0  0  0  0  0  0  0
  1  2  1  0
  2  3  2  0
  2  4  1  0
  4  5  2  0
  5  6  1  0
  6  7  1  0
  7  8  1  0
  8  9  1  0
  9 10  1  0
 10 11  1  0
  6 12  1  0
 12 13  2  0
 13  4  1  0
 11  7  1  0
  1 14  1  0
  1 15  1  0
  5 16  1  0
  7 17  1  0
  8 18  1  0
  8 19  1  0
  9 20  1  0
  9 21  1  0
 11 22  1  0
 11 23  1  0
 12 24  1  0
A    1
 N1 
A    2
 C1 
A    3
 O1 
A    4
 C2 
A    5
 C3 
A    6
 N2 
A    7
 C4 
A    8
 C5 
A    9
 C6 
A   10
 O2 
A   11
 C7 
A   12
 C8 
A   13
 N3 
A   14
 H1 
A   15
 H2 
A   16
 H3 
A   17
 H4 
A   18
 H5 
A   19
 H6 
A   20
 H7 
A   21
 H8 
A   22
 H9 
A   23
 H10
A   24
 H11
M  END
>  <ref_pdb>  (146) 
x0051_0B

>  <ref_mols>  (146) 
x0051_0B

>  <original SMILES>  (146) 
[H]c1nc(C(=O)N([H])[H])c([H])n1C1([H])C([H])([H])OC([H])([H])C1([H])[H]

>  <index>  (146) 
1585.0

>  <∆∆G>  (146) 
-2.387067

>  <comRMSD>  (146) 
0.913246

>  <N_constrained_atoms>  (146) 
12.0

>  <N_unconstrained_atoms>  (146) 
1.0

>  <LE>  (146) 
0.183621

>  <percent_hybrid>  (146) 
10.0

>  <largest_ring>  (146) 
5.0

>  <N_HA>  (146) 
13.0

>  <N_rotatable_bonds>  (146) 
2.0

>  <max_hit_Tanimoto>  (146) 
0.154483

>  <N_interactions_kept>  (146) 
0.0

>  <N_interactions_lost>  (146) 
0.0

>  <interaction_uniqueness_metric>  (146) 
0.140253

>  <N_interactions>  (146) 
2.0

>  <N_PAINS>  (146) 
0.0

>  <UFF_Gibbs>  (146) 
139.476093

>  <strain_per_HA>  (146) 
10.728848

>  <ad_hoc_penalty>  (146) 
-16.020752

>  <cluster>  (146) 
5500.0

>  <intxn_cluster>  (146) 
8.0

>  <keep>  (146) 
1.0

>  <hydroph_interaction:GLN:74>  (146) 
0.0

>  <hydroph_interaction:THR:118>  (146) 
0.0

>  <hydroph_interaction:ILE:123>  (146) 
0.0

>  <hydroph_interaction:THR:166>  (146) 
0.0

>  <hbond:GLN:167>  (146) 
1.0

>  <hydroph_interaction:ALA:88>  (146) 
0.0

>  <hydroph_interaction:ASP:120>  (146) 
0.0

>  <hydroph_interaction:GLN:167>  (146) 
0.0

>  <hbond:THR:118>  (146) 
0.0

>  <hydroph_interaction:ALA:164>  (146) 
0.0

>  <hbond:ASP:120>  (146) 
0.0

>  <hbond:THR:166>  (146) 
0.0

>  <hydroph_interaction:LEU:76>  (146) 
0.0

>  <hbond:ILE:165>  (146) 
1.0

>  <halogenbond:GLN:74>  (146) 
0.0

>  <hbond:GLN:74>  (146) 
0.0

>  <hbond:LYS:73>  (146) 
0.0

>  <pistack:TRP:69>  (146) 
0.0

>  <hbond:TRP:83>  (146) 
0.0

>  <hydroph_interaction:TRP:83>  (146) 
0.0

>  <hydroph_interaction:TRP:69>  (146) 
0.0

>  <pication:TRP:69>  (146) 
0.0

>  <hydroph_interaction:PRO:82>  (146) 
0.0

>  <halogenbond:LYS:73>  (146) 
0.0

>  <hydroph_interaction:TYR:68>  (146) 
0.0

>  <halogenbond:GLN:167>  (146) 
0.0

>  <hydroph_interaction:PHE:116>  (146) 
0.0

>  <hbond:TYR:68>  (146) 
0.0

>  <hbond:ASP:122>  (146) 
0.0

>  <pistack:PHE:116>  (146) 
0.0

>  <hydroph_interaction:VAL:154>  (146) 
0.0

>  <hydroph_interaction:ASP:75>  (146) 
0.0

>  <hbond:GLY:121>  (146) 
0.0

>  <hydroph_interaction:ASN:152>  (146) 
0.0

>  <halogenbond:ILE:165>  (146) 
0.0

$$$$
PV-002712425038-Z198195906S5-x0214S3
     RDKit          3D

 30 31  0  0  0  0  0  0  0  0999 V2000
  -11.5970   -5.2540  -11.1640 C   0  0  0  0  0  0  0  0  0  0  0  0
  -12.0330   -5.9900  -10.1290 C   0  0  0  0  0  0  0  0  0  0  0  0
  -11.9330   -5.5560   -8.8380 C   0  0  0  0  0  0  0  0  0  0  0  0
  -12.3100   -6.3280   -7.8000 C   0  0  0  0  0  0  0  0  0  0  0  0
  -12.7990   -7.5760   -8.0540 C   0  0  0  0  0  0  0  0  0  0  0  0
  -13.0950   -8.3820   -7.0690 O   0  0  0  0  0  0  0  0  0  0  0  0
  -11.7740   -8.7690   -6.6520 C   0  0  0  0  0  0  0  0  0  0  0  0
  -11.3490  -10.0650   -7.2550 C   0  0  0  0  0  0  0  0  0  0  0  0
  -10.1290  -10.3910   -7.7730 C   0  0  0  0  0  0  0  0  0  0  0  0
   -9.7320  -11.5790   -8.3160 N   0  0  0  0  0  0  0  0  0  0  0  0
  -10.6580  -12.5570   -8.3480 C   0  0  0  0  0  0  0  0  0  0  0  0
  -11.9390  -12.3850   -7.8680 C   0  0  0  0  0  0  0  0  0  0  0  0
  -12.3250  -11.0430   -7.2780 C   0  0  0  0  0  0  0  0  0  0  0  0
  -13.5920  -10.7940   -6.7800 C   0  0  0  0  0  0  0  0  0  0  0  0
  -12.9510   -8.0290   -9.3540 C   0  0  0  0  0  0  0  0  0  0  0  0
  -12.6050   -7.3090  -10.4270 N   0  0  0  0  0  0  0  0  0  0  0  0
  -11.6080   -4.2030  -10.8830 H   0  0  0  0  0  0  0  0  0  0  0  0
  -12.1830   -5.4390  -12.0620 H   0  0  0  0  0  0  0  0  0  0  0  0
  -10.5630   -5.5360  -11.3470 H   0  0  0  0  0  0  0  0  0  0  0  0
  -11.5130   -4.5570   -8.7530 H   0  0  0  0  0  0  0  0  0  0  0  0
  -12.2070   -5.9730   -6.7750 H   0  0  0  0  0  0  0  0  0  0  0  0
  -11.7930   -8.8870   -5.5610 H   0  0  0  0  0  0  0  0  0  0  0  0
  -11.0330   -7.9930   -6.8860 H   0  0  0  0  0  0  0  0  0  0  0  0
   -9.3430   -9.6300   -7.7650 H   0  0  0  0  0  0  0  0  0  0  0  0
  -10.2760  -13.4840   -8.7930 H   0  0  0  0  0  0  0  0  0  0  0  0
  -12.7260  -13.1450   -7.8740 H   0  0  0  0  0  0  0  0  0  0  0  0
  -14.0830  -11.7540   -6.5830 H   0  0  0  0  0  0  0  0  0  0  0  0
  -14.1960  -10.3050   -7.5500 H   0  0  0  0  0  0  0  0  0  0  0  0
  -13.6980  -10.1840   -5.8900 H   0  0  0  0  0  0  0  0  0  0  0  0
  -13.3530   -9.0150   -9.5590 H   0  0  0  0  0  0  0  0  0  0  0  0
  1  2  1  0
  2  3  2  0
  3  4  1  0
  4  5  2  0
  5  6  1  0
  6  7  1  0
  7  8  1  0
  8  9  2  0
  9 10  1  0
 10 11  2  0
 11 12  1  0
 12 13  2  0
 13 14  1  0
  5 15  1  0
 15 16  2  0
 16  2  1  0
 13  8  1  0
  1 17  1  0
  1 18  1  0
  1 19  1  0
  3 20  1  0
  4 21  1  0
  7 22  1  0
  7 23  1  0
  9 24  1  0
 11 25  1  0
 12 26  1  0
 14 27  1  0
 14 28  1  0
 14 29  1  0
 15 30  1  0
A    1
 C1 
A    2
 C2 
A    3
 C3 
A    4
 C4 
A    5
 C5 
A    6
 O1 
A    7
 C6 
A    8
 C7 
A    9
 C8 
A   10
 N1 
A   11
 C9 
A   12
 C10
A   13
 C11
A   14
 C12
A   15
 C13
A   16
 N2 
A   17
 H1 
A   18
 H2 
A   19
 H3 
A   20
 H4 
A   21
 H5 
A   22
 H6 
A   23
 H7 
A   24
 H8 
A   25
 H9 
A   26
 H10
A   27
 H11
A   28
 H12
A   29
 H13
A   30
 H14
M  END
>  <ref_pdb>  (147) 
x0051_0B

>  <ref_mols>  (147) 
x0051_0B

>  <original SMILES>  (147) 
[H]c1nc([H])c(C([H])([H])Oc2c([H])nc(C([H])([H])[H])c([H])c2[H])c(C([H])([H])[H])c1[H]

>  <index>  (147) 
1782.0

>  <∆∆G>  (147) 
-3.93258

>  <comRMSD>  (147) 
0.984857

>  <N_constrained_atoms>  (147) 
14.0

>  <N_unconstrained_atoms>  (147) 
2.0

>  <LE>  (147) 
0.245786

>  <percent_hybrid>  (147) 
43.0

>  <largest_ring>  (147) 
6.0

>  <N_HA>  (147) 
16.0

>  <N_rotatable_bonds>  (147) 
5.0

>  <max_hit_Tanimoto>  (147) 
0.087059

>  <N_interactions_kept>  (147) 
0.5

>  <N_interactions_lost>  (147) 
0.5

>  <interaction_uniqueness_metric>  (147) 
0.107897

>  <N_interactions>  (147) 
4.0

>  <N_PAINS>  (147) 
0.0

>  <UFF_Gibbs>  (147) 
116.691341

>  <strain_per_HA>  (147) 
7.293163

>  <ad_hoc_penalty>  (147) 
-15.842746

>  <cluster>  (147) 
415.0

>  <intxn_cluster>  (147) 
11.0

>  <keep>  (147) 
1.0

>  <hydroph_interaction:GLN:74>  (147) 
0.0

>  <hydroph_interaction:THR:118>  (147) 
0.0

>  <hydroph_interaction:ILE:123>  (147) 
1.0

>  <hydroph_interaction:THR:166>  (147) 
1.0

>  <hbond:GLN:167>  (147) 
0.0

>  <hydroph_interaction:ALA:88>  (147) 
0.0

>  <hydroph_interaction:ASP:120>  (147) 
0.0

>  <hydroph_interaction:GLN:167>  (147) 
0.0

>  <hbond:THR:118>  (147) 
1.0

>  <hydroph_interaction:ALA:164>  (147) 
1.0

>  <hbond:ASP:120>  (147) 
0.0

>  <hbond:THR:166>  (147) 
0.0

>  <hydroph_interaction:LEU:76>  (147) 
0.0

>  <hbond:ILE:165>  (147) 
0.0

>  <halogenbond:GLN:74>  (147) 
0.0

>  <hbond:GLN:74>  (147) 
0.0

>  <hbond:LYS:73>  (147) 
0.0

>  <pistack:TRP:69>  (147) 
0.0

>  <hbond:TRP:83>  (147) 
0.0

>  <hydroph_interaction:TRP:83>  (147) 
0.0

>  <hydroph_interaction:TRP:69>  (147) 
0.0

>  <pication:TRP:69>  (147) 
0.0

>  <hydroph_interaction:PRO:82>  (147) 
0.0

>  <halogenbond:LYS:73>  (147) 
0.0

>  <hydroph_interaction:TYR:68>  (147) 
0.0

>  <halogenbond:GLN:167>  (147) 
0.0

>  <hydroph_interaction:PHE:116>  (147) 
0.0

>  <hbond:TYR:68>  (147) 
0.0

>  <hbond:ASP:122>  (147) 
0.0

>  <pistack:PHE:116>  (147) 
0.0

>  <hydroph_interaction:VAL:154>  (147) 
0.0

>  <hydroph_interaction:ASP:75>  (147) 
0.0

>  <hbond:GLY:121>  (147) 
0.0

>  <hydroph_interaction:ASN:152>  (147) 
0.0

>  <halogenbond:ILE:165>  (147) 
0.0

$$$$
Z3666116795-x0214S1-x0214S2
     RDKit          3D

 33 34  0  0  0  0  0  0  0  0999 V2000
   -9.5690   -8.2450   -8.2320 C   0  0  0  0  0  0  0  0  0  0  0  0
   -9.5800   -9.4210   -7.3860 N   0  0  0  0  0  0  0  0  0  0  0  0
  -10.8690   -9.9950   -6.9940 C   0  0  0  0  0  0  0  0  0  0  0  0
  -11.2070  -11.1780   -6.9880 O   0  0  0  0  0  0  0  0  0  0  0  0
  -11.9750   -9.0540   -6.5220 C   0  0  2  0  0  0  0  0  0  0  0  0
  -12.3840   -9.2080   -5.1920 C   0  0  0  0  0  0  0  0  0  0  0  0
  -13.6840   -8.5030   -5.2040 N   0  0  0  0  0  0  0  0  0  0  0  0
  -14.5790   -8.8950   -4.1160 C   0  0  0  0  0  0  0  0  0  0  0  0
  -14.2300   -8.7710   -6.4710 C   0  0  0  0  0  0  0  0  0  0  0  0
  -13.1320   -8.9280   -7.3240 C   0  0  1  0  0  0  0  0  0  0  0  0
  -12.9520   -7.9320   -8.3730 C   0  0  0  0  0  0  0  0  0  0  0  0
  -12.6010   -6.5220   -7.9420 C   0  0  0  0  0  0  0  0  0  0  0  0
  -12.4160   -5.6220   -8.9420 C   0  0  0  0  0  0  0  0  0  0  0  0
  -12.5620   -6.0260  -10.3910 C   0  0  0  0  0  0  0  0  0  0  0  0
  -12.8900   -7.2870  -10.7400 N   0  0  0  0  0  0  0  0  0  0  0  0
  -13.0760   -8.1980   -9.7470 C   0  0  0  0  0  0  0  0  0  0  0  0
   -9.5990   -7.3550   -7.5970 H   0  0  0  0  0  0  0  0  0  0  0  0
  -10.4440   -8.2620   -8.8880 H   0  0  0  0  0  0  0  0  0  0  0  0
   -8.6670   -8.2080   -8.8480 H   0  0  0  0  0  0  0  0  0  0  0  0
   -8.7810   -9.5680   -6.7770 H   0  0  0  0  0  0  0  0  0  0  0  0
  -11.4900   -8.0670   -6.5160 H   0  0  0  0  0  0  0  0  0  0  0  0
  -11.6910   -8.6950   -4.5140 H   0  0  0  0  0  0  0  0  0  0  0  0
  -12.4390  -10.2660   -4.9130 H   0  0  0  0  0  0  0  0  0  0  0  0
  -15.6060   -8.9030   -4.4990 H   0  0  0  0  0  0  0  0  0  0  0  0
  -14.3560   -9.8880   -3.7240 H   0  0  0  0  0  0  0  0  0  0  0  0
  -14.5440   -8.1670   -3.2970 H   0  0  0  0  0  0  0  0  0  0  0  0
  -14.8030   -7.8940   -6.7890 H   0  0  0  0  0  0  0  0  0  0  0  0
  -14.8910   -9.6420   -6.4430 H   0  0  0  0  0  0  0  0  0  0  0  0
  -13.2780   -9.8960   -7.8280 H   0  0  0  0  0  0  0  0  0  0  0  0
  -12.4820   -6.1830   -6.9080 H   0  0  0  0  0  0  0  0  0  0  0  0
  -12.1570   -4.5780   -8.7030 H   0  0  0  0  0  0  0  0  0  0  0  0
  -12.4110   -5.3240  -11.2040 H   0  0  0  0  0  0  0  0  0  0  0  0
  -13.3300   -9.1930  -10.1090 H   0  0  0  0  0  0  0  0  0  0  0  0
  1  2  1  0
  2  3  1  0
  3  4  2  0
  3  5  1  0
  5  6  1  0
  6  7  1  0
  7  8  1  0
  7  9  1  0
  9 10  1  0
 10 11  1  0
 11 12  2  0
 12 13  1  0
 13 14  2  0
 14 15  1  0
 15 16  2  0
 10  5  1  0
 16 11  1  0
  1 17  1  0
  1 18  1  0
  1 19  1  0
  2 20  1  0
  5 21  1  1
  6 22  1  0
  6 23  1  0
  8 24  1  0
  8 25  1  0
  8 26  1  0
  9 27  1  0
  9 28  1  0
 10 29  1  6
 12 30  1  0
 13 31  1  0
 14 32  1  0
 16 33  1  0
A    1
 C1 
A    2
 N1 
A    3
 C2 
A    4
 O1 
A    5
 C3 
A    6
 C4 
A    7
 N2 
A    8
 C5 
A    9
 C6 
A   10
 C7 
A   11
 C8 
A   12
 C9 
A   13
 C10
A   14
 C11
A   15
 N3 
A   16
 C12
A   17
 H1 
A   18
 H2 
A   19
 H3 
A   20
 H4 
A   21
 H5 
A   22
 H6 
A   23
 H7 
A   24
 H8 
A   25
 H9 
A   26
 H10
A   27
 H11
A   28
 H12
A   29
 H13
A   30
 H14
A   31
 H15
A   32
 H16
A   33
 H17
M  END
>  <ref_pdb>  (148) 
x0051_0B

>  <ref_mols>  (148) 
x0051_0B

>  <original SMILES>  (148) 
[H]c1nc([H])c([C@]2([H])C([H])([H])N(C([H])([H])[H])C([H])([H])[C@@]2([H])C(=O)N([H])C([H])([H])[H])c([H])c1[H]

>  <index>  (148) 
7184.0

>  <∆∆G>  (148) 
-3.320556

>  <comRMSD>  (148) 
0.857411

>  <N_constrained_atoms>  (148) 
14.0

>  <N_unconstrained_atoms>  (148) 
3.0

>  <LE>  (148) 
0.195327

>  <percent_hybrid>  (148) 
24.0

>  <largest_ring>  (148) 
6.0

>  <N_HA>  (148) 
16.0

>  <N_rotatable_bonds>  (148) 
4.0

>  <max_hit_Tanimoto>  (148) 
0.305595

>  <N_interactions_kept>  (148) 
0.0

>  <N_interactions_lost>  (148) 
0.0

>  <interaction_uniqueness_metric>  (148) 
0.058261

>  <N_interactions>  (148) 
3.0

>  <N_PAINS>  (148) 
0.0

>  <UFF_Gibbs>  (148) 
73.944463

>  <strain_per_HA>  (148) 
4.6215

>  <ad_hoc_penalty>  (148) 
-15.732483

>  <cluster>  (148) 
1116.0

>  <intxn_cluster>  (148) 
5.0

>  <keep>  (148) 
1.0

>  <hydroph_interaction:GLN:74>  (148) 
0.0

>  <hydroph_interaction:THR:118>  (148) 
0.0

>  <hydroph_interaction:ILE:123>  (148) 
0.0

>  <hydroph_interaction:THR:166>  (148) 
1.0

>  <hbond:GLN:167>  (148) 
0.0

>  <hydroph_interaction:ALA:88>  (148) 
0.0

>  <hydroph_interaction:ASP:120>  (148) 
0.0

>  <hydroph_interaction:GLN:167>  (148) 
0.0

>  <hbond:THR:118>  (148) 
2.0

>  <hydroph_interaction:ALA:164>  (148) 
0.0

>  <hbond:ASP:120>  (148) 
0.0

>  <hbond:THR:166>  (148) 
0.0

>  <hydroph_interaction:LEU:76>  (148) 
0.0

>  <hbond:ILE:165>  (148) 
0.0

>  <halogenbond:GLN:74>  (148) 
0.0

>  <hbond:GLN:74>  (148) 
0.0

>  <hbond:LYS:73>  (148) 
0.0

>  <pistack:TRP:69>  (148) 
0.0

>  <hbond:TRP:83>  (148) 
0.0

>  <hydroph_interaction:TRP:83>  (148) 
0.0

>  <hydroph_interaction:TRP:69>  (148) 
0.0

>  <pication:TRP:69>  (148) 
0.0

>  <hydroph_interaction:PRO:82>  (148) 
0.0

>  <halogenbond:LYS:73>  (148) 
0.0

>  <hydroph_interaction:TYR:68>  (148) 
0.0

>  <halogenbond:GLN:167>  (148) 
0.0

>  <hydroph_interaction:PHE:116>  (148) 
0.0

>  <hbond:TYR:68>  (148) 
0.0

>  <hbond:ASP:122>  (148) 
0.0

>  <pistack:PHE:116>  (148) 
0.0

>  <hydroph_interaction:VAL:154>  (148) 
0.0

>  <hydroph_interaction:ASP:75>  (148) 
0.0

>  <hbond:GLY:121>  (148) 
0.0

>  <hydroph_interaction:ASN:152>  (148) 
0.0

>  <halogenbond:ILE:165>  (148) 
0.0

$$$$
Z2518183015-Z198195906S1-x0884S2
     RDKit          3D

 22 22  0  0  0  0  0  0  0  0999 V2000
  -10.9470   -5.1810   -9.7840 N   0  0  0  0  0  0  0  0  0  0  0  0
  -11.2990   -6.4330   -9.3520 C   0  0  0  0  0  0  0  0  0  0  0  0
  -10.2460   -7.2610   -9.5390 N   0  0  0  0  0  0  0  0  0  0  0  0
  -12.4670   -6.6850   -8.8560 N   0  0  0  0  0  0  0  0  0  0  0  0
  -12.6730   -8.0670   -8.4390 C   0  0  0  0  0  0  0  0  0  0  0  0
  -13.9650   -8.5380   -7.8090 C   0  0  0  0  0  0  0  0  0  0  0  0
  -14.0420   -9.7880   -7.2450 C   0  0  0  0  0  0  0  0  0  0  0  0
  -12.6560  -10.8100   -7.2380 Cl  0  0  0  0  0  0  0  0  0  0  0  0
  -15.1850  -10.3120   -6.6560 C   0  0  0  0  0  0  0  0  0  0  0  0
  -16.4660   -9.4970   -6.5990 C   0  0  0  0  0  0  0  0  0  0  0  0
  -16.3390   -8.2440   -7.1680 C   0  0  0  0  0  0  0  0  0  0  0  0
  -15.1480   -7.7760   -7.7440 C   0  0  0  0  0  0  0  0  0  0  0  0
  -15.2150   -6.1850   -8.3710 Cl  0  0  0  0  0  0  0  0  0  0  0  0
  -10.0120   -5.0490  -10.1500 H   0  0  0  0  0  0  0  0  0  0  0  0
  -11.4230   -4.3910   -9.3750 H   0  0  0  0  0  0  0  0  0  0  0  0
   -9.3760   -6.7890   -9.7600 H   0  0  0  0  0  0  0  0  0  0  0  0
  -10.1090   -7.8720   -8.7420 H   0  0  0  0  0  0  0  0  0  0  0  0
  -11.8720   -8.2900   -7.7240 H   0  0  0  0  0  0  0  0  0  0  0  0
  -12.4000   -8.7470   -9.2500 H   0  0  0  0  0  0  0  0  0  0  0  0
  -15.1620  -11.3130   -6.2330 H   0  0  0  0  0  0  0  0  0  0  0  0
  -17.3900   -9.8550   -6.1540 H   0  0  0  0  0  0  0  0  0  0  0  0
  -17.1960   -7.5760   -7.1750 H   0  0  0  0  0  0  0  0  0  0  0  0
  1  2  1  0
  2  3  1  0
  2  4  2  3
  4  5  1  0
  5  6  1  0
  6  7  2  0
  7  8  1  0
  7  9  1  0
  9 10  2  0
 10 11  1  0
 11 12  2  0
 12 13  1  0
 12  6  1  0
  1 14  1  0
  1 15  1  0
  3 16  1  0
  3 17  1  0
  5 18  1  0
  5 19  1  0
  9 20  1  0
 10 21  1  0
 11 22  1  0
A    1
 N1 
A    2
 C1 
A    3
 N2 
A    4
 N3 
A    5
 C2 
A    6
 C3 
A    7
 C4 
A    8
CL1 
A    9
 C5 
A   10
 C6 
A   11
 C7 
A   12
 C8 
A   13
CL2 
A   14
 H1 
A   15
 H2 
A   16
 H3 
A   17
 H4 
A   18
 H5 
A   19
 H6 
A   20
 H7 
A   21
 H8 
A   22
 H9 
M  END
>  <ref_pdb>  (149) 
x0051_0B

>  <ref_mols>  (149) 
x0051_0B

>  <original SMILES>  (149) 
[H]c1c([H])c(Cl)c(C([H])([H])N=C(N([H])[H])N([H])[H])c(Cl)c1[H]

>  <index>  (149) 
5459.0

>  <∆∆G>  (149) 
-2.191802

>  <comRMSD>  (149) 
0.697398

>  <N_constrained_atoms>  (149) 
12.0

>  <N_unconstrained_atoms>  (149) 
1.0

>  <LE>  (149) 
0.1686

>  <percent_hybrid>  (149) 
28.0

>  <largest_ring>  (149) 
6.0

>  <N_HA>  (149) 
13.0

>  <N_rotatable_bonds>  (149) 
2.0

>  <max_hit_Tanimoto>  (149) 
0.162338

>  <N_interactions_kept>  (149) 
0.0

>  <N_interactions_lost>  (149) 
0.0

>  <interaction_uniqueness_metric>  (149) 
0.153834

>  <N_interactions>  (149) 
2.0

>  <N_PAINS>  (149) 
0.0

>  <UFF_Gibbs>  (149) 
70.364889

>  <strain_per_HA>  (149) 
5.412642

>  <ad_hoc_penalty>  (149) 
-15.714413

>  <cluster>  (149) 
3900.0

>  <intxn_cluster>  (149) 
10.0

>  <keep>  (149) 
1.0

>  <hydroph_interaction:GLN:74>  (149) 
0.0

>  <hydroph_interaction:THR:118>  (149) 
0.0

>  <hydroph_interaction:ILE:123>  (149) 
0.0

>  <hydroph_interaction:THR:166>  (149) 
0.0

>  <hbond:GLN:167>  (149) 
0.0

>  <hydroph_interaction:ALA:88>  (149) 
0.0

>  <hydroph_interaction:ASP:120>  (149) 
0.0

>  <hydroph_interaction:GLN:167>  (149) 
0.0

>  <hbond:THR:118>  (149) 
0.0

>  <hydroph_interaction:ALA:164>  (149) 
0.0

>  <hbond:ASP:120>  (149) 
0.0

>  <hbond:THR:166>  (149) 
1.0

>  <hydroph_interaction:LEU:76>  (149) 
0.0

>  <hbond:ILE:165>  (149) 
0.0

>  <halogenbond:GLN:74>  (149) 
1.0

>  <hbond:GLN:74>  (149) 
0.0

>  <hbond:LYS:73>  (149) 
0.0

>  <pistack:TRP:69>  (149) 
0.0

>  <hbond:TRP:83>  (149) 
0.0

>  <hydroph_interaction:TRP:83>  (149) 
0.0

>  <hydroph_interaction:TRP:69>  (149) 
0.0

>  <pication:TRP:69>  (149) 
0.0

>  <hydroph_interaction:PRO:82>  (149) 
0.0

>  <halogenbond:LYS:73>  (149) 
0.0

>  <hydroph_interaction:TYR:68>  (149) 
0.0

>  <halogenbond:GLN:167>  (149) 
0.0

>  <hydroph_interaction:PHE:116>  (149) 
0.0

>  <hbond:TYR:68>  (149) 
0.0

>  <hbond:ASP:122>  (149) 
0.0

>  <pistack:PHE:116>  (149) 
0.0

>  <hydroph_interaction:VAL:154>  (149) 
0.0

>  <hydroph_interaction:ASP:75>  (149) 
0.0

>  <hbond:GLY:121>  (149) 
0.0

>  <hydroph_interaction:ASN:152>  (149) 
0.0

>  <halogenbond:ILE:165>  (149) 
0.0

$$$$
Z3288688229-x0884S4-Z198195906S10
     RDKit          3D

 31 32  0  0  0  0  0  0  0  0999 V2000
   -9.3600   -8.2140   -8.8290 C   0  0  0  0  0  0  0  0  0  0  0  0
  -10.0970   -9.4790   -8.5270 C   0  0  0  0  0  0  0  0  0  0  0  0
   -9.7620  -10.7080   -9.0820 C   0  0  0  0  0  0  0  0  0  0  0  0
  -10.4980  -11.8510   -8.7560 C   0  0  0  0  0  0  0  0  0  0  0  0
  -11.5740  -11.7520   -7.8600 C   0  0  0  0  0  0  0  0  0  0  0  0
  -11.8700  -10.4860   -7.3200 C   0  0  0  0  0  0  0  0  0  0  0  0
  -13.1450  -10.0400   -6.1690 S   0  0  0  0  0  0  0  0  0  0  0  0
  -12.8360   -8.2000   -6.2120 C   0  0  0  0  0  0  0  0  0  0  0  0
  -12.5660   -7.5520   -7.5910 C   0  0  0  0  0  0  0  0  0  0  0  0
  -13.6030   -7.5410   -8.4970 C   0  0  0  0  0  0  0  0  0  0  0  0
  -14.7410   -8.3840   -7.9660 C   0  0  0  0  0  0  0  0  0  0  0  0
  -14.4130   -9.8440   -7.9480 C   0  0  0  0  0  0  0  0  0  0  0  0
  -15.4950  -10.7720   -7.3900 C   0  0  0  0  0  0  0  0  0  0  0  0
  -16.8020  -10.1030   -6.9220 C   0  0  0  0  0  0  0  0  0  0  0  0
  -16.9340   -8.7120   -7.0250 C   0  0  0  0  0  0  0  0  0  0  0  0
  -15.9400   -7.8700   -7.5280 C   0  0  0  0  0  0  0  0  0  0  0  0
  -11.1350   -9.3990   -7.6650 C   0  0  0  0  0  0  0  0  0  0  0  0
  -10.0820   -7.4240   -9.0630 H   0  0  0  0  0  0  0  0  0  0  0  0
   -8.8080   -7.9060   -7.9380 H   0  0  0  0  0  0  0  0  0  0  0  0
   -8.6340   -8.3450   -9.6340 H   0  0  0  0  0  0  0  0  0  0  0  0
   -8.9370  -10.8300   -9.7760 H   0  0  0  0  0  0  0  0  0  0  0  0
  -10.2360  -12.8130   -9.1950 H   0  0  0  0  0  0  0  0  0  0  0  0
  -12.1580  -12.6290   -7.5930 H   0  0  0  0  0  0  0  0  0  0  0  0
  -11.9740   -8.0130   -5.5610 H   0  0  0  0  0  0  0  0  0  0  0  0
  -13.6850   -7.7000   -5.7350 H   0  0  0  0  0  0  0  0  0  0  0  0
  -13.4620  -10.2300   -8.3030 H   0  0  0  0  0  0  0  0  0  0  0  0
  -15.3500  -11.8470   -7.3290 H   0  0  0  0  0  0  0  0  0  0  0  0
  -17.6120  -10.7030   -6.5190 H   0  0  0  0  0  0  0  0  0  0  0  0
  -17.8650   -8.2600   -6.6920 H   0  0  0  0  0  0  0  0  0  0  0  0
  -16.1230   -6.7990   -7.5660 H   0  0  0  0  0  0  0  0  0  0  0  0
  -11.3780   -8.4330   -7.2420 H   0  0  0  0  0  0  0  0  0  0  0  0
  1  2  1  0
  2  3  2  0
  3  4  1  0
  4  5  2  0
  5  6  1  0
  6  7  1  0
  7  8  1  0
  8  9  1  0
  9 10  3  0
 10 11  1  0
 11 12  2  0
 12 13  1  0
 13 14  2  0
 14 15  1  0
 15 16  2  0
  6 17  2  0
 17  2  1  0
 16 11  1  0
  1 18  1  0
  1 19  1  0
  1 20  1  0
  3 21  1  0
  4 22  1  0
  5 23  1  0
  8 24  1  0
  8 25  1  0
 12 26  1  0
 13 27  1  0
 14 28  1  0
 15 29  1  0
 16 30  1  0
 17 31  1  0
A    1
 C1 
A    2
 C2 
A    3
 C3 
A    4
 C4 
A    5
 C5 
A    6
 C6 
A    7
 S1 
A    8
 C7 
A    9
 C8 
A   10
 C9 
A   11
 C10
A   12
 C11
A   13
 C12
A   14
 C13
A   15
 C14
A   16
 C15
A   17
 C16
A   18
 H1 
A   19
 H2 
A   20
 H3 
A   21
 H4 
A   22
 H5 
A   23
 H6 
A   24
 H7 
A   25
 H8 
A   26
 H9 
A   27
 H10
A   28
 H11
A   29
 H12
A   30
 H13
A   31
 H14
M  END
>  <ref_pdb>  (150) 
x0051_0B

>  <ref_mols>  (150) 
x0051_0B

>  <original SMILES>  (150) 
[H]c1c([H])c([H])c(C#CC([H])([H])Sc2c([H])c([H])c([H])c(C([H])([H])[H])c2[H])c([H])c1[H]

>  <index>  (150) 
5745.0

>  <∆∆G>  (150) 
-3.902339

>  <comRMSD>  (150) 
0.950119

>  <N_constrained_atoms>  (150) 
15.0

>  <N_unconstrained_atoms>  (150) 
2.0

>  <LE>  (150) 
0.229549

>  <percent_hybrid>  (150) 
47.0

>  <largest_ring>  (150) 
6.0

>  <N_HA>  (150) 
17.0

>  <N_rotatable_bonds>  (150) 
3.0

>  <max_hit_Tanimoto>  (150) 
0.158798

>  <N_interactions_kept>  (150) 
0.5

>  <N_interactions_lost>  (150) 
0.5

>  <interaction_uniqueness_metric>  (150) 
0.041954

>  <N_interactions>  (150) 
3.0

>  <N_PAINS>  (150) 
0.0

>  <UFF_Gibbs>  (150) 
1526.622049

>  <strain_per_HA>  (150) 
89.800769

>  <ad_hoc_penalty>  (150) 
-15.704887

>  <cluster>  (150) 
3756.0

>  <intxn_cluster>  (150) 
12.0

>  <keep>  (150) 
1.0

>  <hydroph_interaction:GLN:74>  (150) 
1.0

>  <hydroph_interaction:THR:118>  (150) 
0.0

>  <hydroph_interaction:ILE:123>  (150) 
2.0

>  <hydroph_interaction:THR:166>  (150) 
0.0

>  <hbond:GLN:167>  (150) 
0.0

>  <hydroph_interaction:ALA:88>  (150) 
0.0

>  <hydroph_interaction:ASP:120>  (150) 
0.0

>  <hydroph_interaction:GLN:167>  (150) 
0.0

>  <hbond:THR:118>  (150) 
0.0

>  <hydroph_interaction:ALA:164>  (150) 
0.0

>  <hbond:ASP:120>  (150) 
0.0

>  <hbond:THR:166>  (150) 
0.0

>  <hydroph_interaction:LEU:76>  (150) 
0.0

>  <hbond:ILE:165>  (150) 
0.0

>  <halogenbond:GLN:74>  (150) 
0.0

>  <hbond:GLN:74>  (150) 
0.0

>  <hbond:LYS:73>  (150) 
0.0

>  <pistack:TRP:69>  (150) 
0.0

>  <hbond:TRP:83>  (150) 
0.0

>  <hydroph_interaction:TRP:83>  (150) 
0.0

>  <hydroph_interaction:TRP:69>  (150) 
0.0

>  <pication:TRP:69>  (150) 
0.0

>  <hydroph_interaction:PRO:82>  (150) 
0.0

>  <halogenbond:LYS:73>  (150) 
0.0

>  <hydroph_interaction:TYR:68>  (150) 
0.0

>  <halogenbond:GLN:167>  (150) 
0.0

>  <hydroph_interaction:PHE:116>  (150) 
0.0

>  <hbond:TYR:68>  (150) 
0.0

>  <hbond:ASP:122>  (150) 
0.0

>  <pistack:PHE:116>  (150) 
0.0

>  <hydroph_interaction:VAL:154>  (150) 
0.0

>  <hydroph_interaction:ASP:75>  (150) 
0.0

>  <hbond:GLY:121>  (150) 
0.0

>  <hydroph_interaction:ASN:152>  (150) 
0.0

>  <halogenbond:ILE:165>  (150) 
0.0

$$$$
Z927283130-x0944S1-x0130S2
     RDKit          3D

 28 29  0  0  0  0  0  0  0  0999 V2000
  -26.4080   -4.1640   -4.1700 O   0  0  0  0  0  0  0  0  0  0  0  0
  -26.0970   -5.2690   -3.7380 C   0  0  0  0  0  0  0  0  0  0  0  0
  -25.4790   -6.2760   -4.6670 C   0  0  0  0  0  0  0  0  0  0  0  0
  -26.2920   -7.2120   -5.3260 C   0  0  0  0  0  0  0  0  0  0  0  0
  -25.7180   -8.1320   -6.2010 C   0  0  0  0  0  0  0  0  0  0  0  0
  -24.3400   -8.1080   -6.4110 C   0  0  0  0  0  0  0  0  0  0  0  0
  -23.4710   -9.4520   -7.7200 I   0  0  0  0  0  0  0  0  0  0  0  0
  -23.5250   -7.1910   -5.7560 C   0  0  0  0  0  0  0  0  0  0  0  0
  -24.1030   -6.2780   -4.8830 C   0  0  0  0  0  0  0  0  0  0  0  0
  -26.3170   -5.6210   -2.3420 N   0  0  0  0  0  0  0  0  0  0  0  0
  -25.7320   -6.7420   -1.8150 C   0  0  0  0  0  0  0  0  0  0  0  0
  -26.2810   -7.1130   -0.5810 C   0  0  0  0  0  0  0  0  0  0  0  0
  -27.7380   -6.8560   -0.4810 N   0  0  0  0  0  0  0  0  0  0  0  0
  -28.1110   -5.4760   -0.8370 C   0  0  0  0  0  0  0  0  0  0  0  0
  -27.0410   -4.7900   -1.3820 C   0  0  0  0  0  0  0  0  0  0  0  0
  -27.3680   -7.2170   -5.1590 H   0  0  0  0  0  0  0  0  0  0  0  0
  -26.3530   -8.8520   -6.7110 H   0  0  0  0  0  0  0  0  0  0  0  0
  -22.4480   -7.1720   -5.9150 H   0  0  0  0  0  0  0  0  0  0  0  0
  -23.4940   -5.5840   -4.3840 H   0  0  0  0  0  0  0  0  0  0  0  0
  -25.8280   -7.5700   -2.5250 H   0  0  0  0  0  0  0  0  0  0  0  0
  -24.6610   -6.5290   -1.7100 H   0  0  0  0  0  0  0  0  0  0  0  0
  -25.7970   -6.4820    0.1770 H   0  0  0  0  0  0  0  0  0  0  0  0
  -26.1170   -8.1340   -0.2460 H   0  0  0  0  0  0  0  0  0  0  0  0
  -28.2260   -7.5230   -1.0800 H   0  0  0  0  0  0  0  0  0  0  0  0
  -28.5820   -5.0530    0.0500 H   0  0  0  0  0  0  0  0  0  0  0  0
  -28.9200   -5.5350   -1.5730 H   0  0  0  0  0  0  0  0  0  0  0  0
  -26.3810   -4.4910   -0.5670 H   0  0  0  0  0  0  0  0  0  0  0  0
  -27.3780   -3.8950   -1.9090 H   0  0  0  0  0  0  0  0  0  0  0  0
  1  2  2  0
  2  3  1  0
  3  4  2  0
  4  5  1  0
  5  6  2  0
  6  7  1  0
  6  8  1  0
  8  9  2  0
  2 10  1  0
 10 11  1  0
 11 12  1  0
 12 13  1  0
 13 14  1  0
 14 15  1  0
  9  3  1  0
 15 10  1  0
  4 16  1  0
  5 17  1  0
  8 18  1  0
  9 19  1  0
 11 20  1  0
 11 21  1  0
 12 22  1  0
 12 23  1  0
 13 24  1  0
 14 25  1  0
 14 26  1  0
 15 27  1  0
 15 28  1  0
A    1
 O1 
A    2
 C1 
A    3
 C2 
A    4
 C3 
A    5
 C4 
A    6
 C5 
A    7
 I1 
A    8
 C6 
A    9
 C7 
A   10
 N1 
A   11
 C8 
A   12
 C9 
A   13
 N2 
A   14
 C10
A   15
 C11
A   16
 H1 
A   17
 H2 
A   18
 H3 
A   19
 H4 
A   20
 H5 
A   21
 H6 
A   22
 H7 
A   23
 H8 
A   24
 H9 
A   25
 H10
A   26
 H11
A   27
 H12
A   28
 H13
M  END
>  <ref_pdb>  (151) 
x0051_0B

>  <ref_mols>  (151) 
x0051_0B

>  <original SMILES>  (151) 
[H]c1c([H])c(C(=O)N2C([H])([H])C([H])([H])N([H])C([H])([H])C2([H])[H])c([H])c([H])c1I

>  <index>  (151) 
1029.0

>  <∆∆G>  (151) 
-5.571991

>  <comRMSD>  (151) 
0.428544

>  <N_constrained_atoms>  (151) 
16.0

>  <N_unconstrained_atoms>  (151) 
0.0

>  <LE>  (151) 
0.348249

>  <percent_hybrid>  (151) 
38.0

>  <largest_ring>  (151) 
6.0

>  <N_HA>  (151) 
15.0

>  <N_rotatable_bonds>  (151) 
1.0

>  <max_hit_Tanimoto>  (151) 
0.177184

>  <N_interactions_kept>  (151) 
0.0

>  <N_interactions_lost>  (151) 
2.5

>  <interaction_uniqueness_metric>  (151) 
0.178197

>  <N_interactions>  (151) 
4.0

>  <N_PAINS>  (151) 
0.0

>  <UFF_Gibbs>  (151) 
39.63933

>  <strain_per_HA>  (151) 
2.642604

>  <ad_hoc_penalty>  (151) 
-15.657106

>  <cluster>  (151) 
5651.0

>  <intxn_cluster>  (151) 
19.0

>  <keep>  (151) 
1.0

>  <hydroph_interaction:GLN:74>  (151) 
0.0

>  <hydroph_interaction:THR:118>  (151) 
0.0

>  <hydroph_interaction:ILE:123>  (151) 
0.0

>  <hydroph_interaction:THR:166>  (151) 
0.0

>  <hbond:GLN:167>  (151) 
0.0

>  <hydroph_interaction:ALA:88>  (151) 
0.0

>  <hydroph_interaction:ASP:120>  (151) 
0.0

>  <hydroph_interaction:GLN:167>  (151) 
0.0

>  <hbond:THR:118>  (151) 
0.0

>  <hydroph_interaction:ALA:164>  (151) 
0.0

>  <hbond:ASP:120>  (151) 
0.0

>  <hbond:THR:166>  (151) 
0.0

>  <hydroph_interaction:LEU:76>  (151) 
0.0

>  <hbond:ILE:165>  (151) 
0.0

>  <halogenbond:GLN:74>  (151) 
0.0

>  <hbond:GLN:74>  (151) 
0.0

>  <hbond:LYS:73>  (151) 
0.0

>  <pistack:TRP:69>  (151) 
2.0

>  <hbond:TRP:83>  (151) 
1.0

>  <hydroph_interaction:TRP:83>  (151) 
1.0

>  <hydroph_interaction:TRP:69>  (151) 
0.0

>  <pication:TRP:69>  (151) 
0.0

>  <hydroph_interaction:PRO:82>  (151) 
0.0

>  <halogenbond:LYS:73>  (151) 
0.0

>  <hydroph_interaction:TYR:68>  (151) 
0.0

>  <halogenbond:GLN:167>  (151) 
0.0

>  <hydroph_interaction:PHE:116>  (151) 
0.0

>  <hbond:TYR:68>  (151) 
0.0

>  <hbond:ASP:122>  (151) 
0.0

>  <pistack:PHE:116>  (151) 
0.0

>  <hydroph_interaction:VAL:154>  (151) 
0.0

>  <hydroph_interaction:ASP:75>  (151) 
0.0

>  <hbond:GLY:121>  (151) 
0.0

>  <hydroph_interaction:ASN:152>  (151) 
0.0

>  <halogenbond:ILE:165>  (151) 
0.0

$$$$
PV-002331644024-Z198195906S1-x0214S3
     RDKit          3D

 15 15  0  0  0  0  0  0  0  0999 V2000
   -9.5780   -6.6110   -9.3240 N   0  0  0  0  0  0  0  0  0  0  0  0
  -10.6430   -5.9340   -9.8390 C   0  0  0  0  0  0  0  0  0  0  0  0
  -10.5610   -4.7710  -10.6420 O   0  0  0  0  0  0  0  0  0  0  0  0
  -11.8970   -6.4170   -9.5050 C   0  0  0  0  0  0  0  0  0  0  0  0
  -12.6120   -7.1160  -10.4400 N   0  0  0  0  0  0  0  0  0  0  0  0
  -13.8130   -7.6110  -10.0670 C   0  0  0  0  0  0  0  0  0  0  0  0
  -14.3370   -7.4250   -8.7870 C   0  0  0  0  0  0  0  0  0  0  0  0
  -13.5730   -6.7020   -7.8990 C   0  0  0  0  0  0  0  0  0  0  0  0
  -12.3420   -6.1770   -8.2190 C   0  0  0  0  0  0  0  0  0  0  0  0
  -11.6340   -5.4910   -7.3190 F   0  0  0  0  0  0  0  0  0  0  0  0
   -9.6440   -6.9440   -8.3670 H   0  0  0  0  0  0  0  0  0  0  0  0
   -8.8300   -6.9070   -9.9280 H   0  0  0  0  0  0  0  0  0  0  0  0
  -14.3560   -8.1670  -10.8240 H   0  0  0  0  0  0  0  0  0  0  0  0
  -15.3060   -7.8330   -8.5060 H   0  0  0  0  0  0  0  0  0  0  0  0
  -13.9740   -6.5440   -6.8850 H   0  0  0  0  0  0  0  0  0  0  0  0
  1  2  1  0
  2  3  2  0
  2  4  1  0
  4  5  2  0
  5  6  1  0
  6  7  2  0
  7  8  1  0
  8  9  2  0
  9 10  1  0
  9  4  1  0
  1 11  1  0
  1 12  1  0
  6 13  1  0
  7 14  1  0
  8 15  1  0
A    1
 N1 
A    2
 C1 
A    3
 O1 
A    4
 C2 
A    5
 N2 
A    6
 C3 
A    7
 C4 
A    8
 C5 
A    9
 C6 
A   10
 F1 
A   11
 H1 
A   12
 H2 
A   13
 H3 
A   14
 H4 
A   15
 H5 
M  END
>  <ref_pdb>  (152) 
x0051_0B

>  <ref_mols>  (152) 
x0051_0B

>  <original SMILES>  (152) 
[H]c1nc(C(=O)N([H])[H])c(F)c([H])c1[H]

>  <index>  (152) 
2175.0

>  <∆∆G>  (152) 
-2.345601

>  <comRMSD>  (152) 
0.880945

>  <N_constrained_atoms>  (152) 
9.0

>  <N_unconstrained_atoms>  (152) 
1.0

>  <LE>  (152) 
0.23456

>  <percent_hybrid>  (152) 
38.0

>  <largest_ring>  (152) 
6.0

>  <N_HA>  (152) 
10.0

>  <N_rotatable_bonds>  (152) 
1.0

>  <max_hit_Tanimoto>  (152) 
0.104027

>  <N_interactions_kept>  (152) 
0.0

>  <N_interactions_lost>  (152) 
0.0

>  <interaction_uniqueness_metric>  (152) 
0.258199

>  <N_interactions>  (152) 
1.0

>  <N_PAINS>  (152) 
0.0

>  <UFF_Gibbs>  (152) 
41.32895

>  <strain_per_HA>  (152) 
4.132854

>  <ad_hoc_penalty>  (152) 
-15.604809

>  <cluster>  (152) 
5295.0

>  <intxn_cluster>  (152) 
10.0

>  <keep>  (152) 
1.0

>  <hydroph_interaction:GLN:74>  (152) 
0.0

>  <hydroph_interaction:THR:118>  (152) 
0.0

>  <hydroph_interaction:ILE:123>  (152) 
0.0

>  <hydroph_interaction:THR:166>  (152) 
0.0

>  <hbond:GLN:167>  (152) 
0.0

>  <hydroph_interaction:ALA:88>  (152) 
0.0

>  <hydroph_interaction:ASP:120>  (152) 
0.0

>  <hydroph_interaction:GLN:167>  (152) 
0.0

>  <hbond:THR:118>  (152) 
0.0

>  <hydroph_interaction:ALA:164>  (152) 
0.0

>  <hbond:ASP:120>  (152) 
0.0

>  <hbond:THR:166>  (152) 
0.0

>  <hydroph_interaction:LEU:76>  (152) 
0.0

>  <hbond:ILE:165>  (152) 
0.0

>  <halogenbond:GLN:74>  (152) 
0.0

>  <hbond:GLN:74>  (152) 
0.0

>  <hbond:LYS:73>  (152) 
0.0

>  <pistack:TRP:69>  (152) 
0.0

>  <hbond:TRP:83>  (152) 
0.0

>  <hydroph_interaction:TRP:83>  (152) 
0.0

>  <hydroph_interaction:TRP:69>  (152) 
0.0

>  <pication:TRP:69>  (152) 
0.0

>  <hydroph_interaction:PRO:82>  (152) 
0.0

>  <halogenbond:LYS:73>  (152) 
1.0

>  <hydroph_interaction:TYR:68>  (152) 
0.0

>  <halogenbond:GLN:167>  (152) 
0.0

>  <hydroph_interaction:PHE:116>  (152) 
0.0

>  <hbond:TYR:68>  (152) 
0.0

>  <hbond:ASP:122>  (152) 
0.0

>  <pistack:PHE:116>  (152) 
0.0

>  <hydroph_interaction:VAL:154>  (152) 
0.0

>  <hydroph_interaction:ASP:75>  (152) 
0.0

>  <hbond:GLY:121>  (152) 
0.0

>  <hydroph_interaction:ASN:152>  (152) 
0.0

>  <halogenbond:ILE:165>  (152) 
0.0

$$$$
Z1949211400-x0214S3-Z198195906S4
     RDKit          3D

 34 35  0  0  0  0  0  0  0  0999 V2000
  -13.2500   -9.3690   -7.0190 C   0  0  0  0  0  0  0  0  0  0  0  0
  -12.0610  -10.1350   -7.4650 C   0  0  0  0  0  0  0  0  0  0  0  0
  -12.2120  -11.5400   -7.6000 C   0  0  0  0  0  0  0  0  0  0  0  0
  -11.1640  -12.3870   -8.0130 C   0  0  0  0  0  0  0  0  0  0  0  0
  -10.0130  -11.6920   -8.2520 N   0  0  0  0  0  0  0  0  0  0  0  0
   -9.8460  -10.3690   -8.1300 C   0  0  0  0  0  0  0  0  0  0  0  0
  -10.8280   -9.5090   -7.7430 C   0  0  0  0  0  0  0  0  0  0  0  0
  -10.5490   -8.1300   -7.6480 C   0  0  0  0  0  0  0  0  0  0  0  0
   -9.9070   -7.5840   -8.8650 N   0  0  0  0  0  0  0  0  0  0  0  0
  -10.5220   -6.3210   -9.3200 C   0  0  1  0  0  0  0  0  0  0  0  0
  -10.1210   -5.8110  -10.6520 C   0  0  0  0  0  0  0  0  0  0  0  0
  -11.9760   -6.6610   -9.2840 C   0  0  0  0  0  0  0  0  0  0  0  0
  -12.7250   -6.2730   -8.0890 C   0  0  0  0  0  0  0  0  0  0  0  0
  -14.0420   -6.6380   -8.0280 C   0  0  0  0  0  0  0  0  0  0  0  0
  -14.5800   -7.3450   -9.0980 C   0  0  0  0  0  0  0  0  0  0  0  0
  -13.8110   -7.6590  -10.2020 C   0  0  0  0  0  0  0  0  0  0  0  0
  -12.5200   -7.3270  -10.3290 N   0  0  0  0  0  0  0  0  0  0  0  0
  -12.9710   -8.4050   -6.5820 H   0  0  0  0  0  0  0  0  0  0  0  0
  -13.9410   -9.2030   -7.8470 H   0  0  0  0  0  0  0  0  0  0  0  0
  -13.7900   -9.9250   -6.2480 H   0  0  0  0  0  0  0  0  0  0  0  0
  -13.1760  -11.9890   -7.3780 H   0  0  0  0  0  0  0  0  0  0  0  0
  -11.2160  -13.4660   -8.1380 H   0  0  0  0  0  0  0  0  0  0  0  0
   -8.8810   -9.9980   -8.3580 H   0  0  0  0  0  0  0  0  0  0  0  0
  -11.5120   -7.6310   -7.5000 H   0  0  0  0  0  0  0  0  0  0  0  0
   -9.9700   -7.8240   -6.7820 H   0  0  0  0  0  0  0  0  0  0  0  0
   -8.9140   -7.4100   -8.6910 H   0  0  0  0  0  0  0  0  0  0  0  0
  -10.3310   -5.5340   -8.5780 H   0  0  0  0  0  0  0  0  0  0  0  0
  -10.9970   -5.7140  -11.3040 H   0  0  0  0  0  0  0  0  0  0  0  0
   -9.6440   -4.8290  -10.5810 H   0  0  0  0  0  0  0  0  0  0  0  0
   -9.4120   -6.4880  -11.1420 H   0  0  0  0  0  0  0  0  0  0  0  0
  -12.2560   -5.7290   -7.2750 H   0  0  0  0  0  0  0  0  0  0  0  0
  -14.6520   -6.3860   -7.1650 H   0  0  0  0  0  0  0  0  0  0  0  0
  -15.6180   -7.6500   -9.0700 H   0  0  0  0  0  0  0  0  0  0  0  0
  -14.2330   -8.2040  -11.0430 H   0  0  0  0  0  0  0  0  0  0  0  0
  1  2  1  0
  2  3  2  0
  3  4  1  0
  4  5  2  0
  5  6  1  0
  6  7  2  0
  7  8  1  0
  8  9  1  0
  9 10  1  0
 10 11  1  0
 10 12  1  0
 12 13  2  0
 13 14  1  0
 14 15  2  0
 15 16  1  0
 16 17  2  0
  7  2  1  0
 17 12  1  0
  1 18  1  0
  1 19  1  0
  1 20  1  0
  3 21  1  0
  4 22  1  0
  6 23  1  0
  8 24  1  0
  8 25  1  0
  9 26  1  0
 10 27  1  1
 11 28  1  0
 11 29  1  0
 11 30  1  0
 13 31  1  0
 14 32  1  0
 15 33  1  0
 16 34  1  0
A    1
 C1 
A    2
 C2 
A    3
 C3 
A    4
 C4 
A    5
 N1 
A    6
 C5 
A    7
 C6 
A    8
 C7 
A    9
 N2 
A   10
 C8 
A   11
 C9 
A   12
 C10
A   13
 C11
A   14
 C12
A   15
 C13
A   16
 C14
A   17
 N3 
A   18
 H1 
A   19
 H2 
A   20
 H3 
A   21
 H4 
A   22
 H5 
A   23
 H6 
A   24
 H7 
A   25
 H8 
A   26
 H9 
A   27
 H10
A   28
 H11
A   29
 H12
A   30
 H13
A   31
 H14
A   32
 H15
A   33
 H16
A   34
 H17
M  END
>  <ref_pdb>  (153) 
x0051_0B

>  <ref_mols>  (153) 
x0051_0B

>  <original SMILES>  (153) 
[H]c1nc([C@@]([H])(N([H])C([H])([H])c2c([H])nc([H])c([H])c2C([H])([H])[H])C([H])([H])[H])c([H])c([H])c1[H]

>  <index>  (153) 
999.0

>  <∆∆G>  (153) 
-4.405611

>  <comRMSD>  (153) 
0.831253

>  <N_constrained_atoms>  (153) 
17.0

>  <N_unconstrained_atoms>  (153) 
0.0

>  <LE>  (153) 
0.259154

>  <percent_hybrid>  (153) 
32.0

>  <largest_ring>  (153) 
6.0

>  <N_HA>  (153) 
17.0

>  <N_rotatable_bonds>  (153) 
6.0

>  <max_hit_Tanimoto>  (153) 
0.22093

>  <N_interactions_kept>  (153) 
1.0

>  <N_interactions_lost>  (153) 
0.5

>  <interaction_uniqueness_metric>  (153) 
0.086896

>  <N_interactions>  (153) 
4.0

>  <N_PAINS>  (153) 
0.0

>  <UFF_Gibbs>  (153) 
129.871988

>  <strain_per_HA>  (153) 
7.639484

>  <ad_hoc_penalty>  (153) 
-15.575693

>  <cluster>  (153) 
132.0

>  <intxn_cluster>  (153) 
11.0

>  <keep>  (153) 
1.0

>  <hydroph_interaction:GLN:74>  (153) 
0.0

>  <hydroph_interaction:THR:118>  (153) 
0.0

>  <hydroph_interaction:ILE:123>  (153) 
2.0

>  <hydroph_interaction:THR:166>  (153) 
0.0

>  <hbond:GLN:167>  (153) 
0.0

>  <hydroph_interaction:ALA:88>  (153) 
0.0

>  <hydroph_interaction:ASP:120>  (153) 
0.0

>  <hydroph_interaction:GLN:167>  (153) 
0.0

>  <hbond:THR:118>  (153) 
1.0

>  <hydroph_interaction:ALA:164>  (153) 
1.0

>  <hbond:ASP:120>  (153) 
0.0

>  <hbond:THR:166>  (153) 
0.0

>  <hydroph_interaction:LEU:76>  (153) 
0.0

>  <hbond:ILE:165>  (153) 
0.0

>  <halogenbond:GLN:74>  (153) 
0.0

>  <hbond:GLN:74>  (153) 
0.0

>  <hbond:LYS:73>  (153) 
0.0

>  <pistack:TRP:69>  (153) 
0.0

>  <hbond:TRP:83>  (153) 
0.0

>  <hydroph_interaction:TRP:83>  (153) 
0.0

>  <hydroph_interaction:TRP:69>  (153) 
0.0

>  <pication:TRP:69>  (153) 
0.0

>  <hydroph_interaction:PRO:82>  (153) 
0.0

>  <halogenbond:LYS:73>  (153) 
0.0

>  <hydroph_interaction:TYR:68>  (153) 
0.0

>  <halogenbond:GLN:167>  (153) 
0.0

>  <hydroph_interaction:PHE:116>  (153) 
0.0

>  <hbond:TYR:68>  (153) 
0.0

>  <hbond:ASP:122>  (153) 
0.0

>  <pistack:PHE:116>  (153) 
0.0

>  <hydroph_interaction:VAL:154>  (153) 
0.0

>  <hydroph_interaction:ASP:75>  (153) 
0.0

>  <hbond:GLY:121>  (153) 
0.0

>  <hydroph_interaction:ASN:152>  (153) 
0.0

>  <halogenbond:ILE:165>  (153) 
0.0

$$$$
PV-003657353857-x0806-Z198195906S4
     RDKit          3D

 43 46  0  0  0  0  0  0  0  0999 V2000
  -16.9340  -12.2690  -12.9310 C   0  0  0  0  0  0  0  0  0  0  0  0
  -16.5320  -12.0380  -11.4790 C   0  0  0  0  0  0  0  0  0  0  0  0
  -15.6200  -13.0690  -11.0920 O   0  0  0  0  0  0  0  0  0  0  0  0
  -15.9220  -10.6950  -11.2640 C   0  0  0  0  0  0  0  0  0  0  0  0
  -15.5720  -10.0780  -10.0880 C   0  0  0  0  0  0  0  0  0  0  0  0
  -15.0530   -8.8660  -10.4610 N   0  0  0  0  0  0  0  0  0  0  0  0
  -14.5200   -7.8590   -9.6170 C   0  0  0  0  0  0  0  0  0  0  0  0
  -15.1340   -7.3340   -8.4950 C   0  0  0  0  0  0  0  0  0  0  0  0
  -14.4790   -6.3610   -7.7470 C   0  0  0  0  0  0  0  0  0  0  0  0
  -13.2150   -5.9130   -8.0860 C   0  0  0  0  0  0  0  0  0  0  0  0
  -12.6060   -6.4390   -9.1900 C   0  0  0  0  0  0  0  0  0  0  0  0
  -11.2430   -5.9970   -9.5440 C   0  0  0  0  0  0  0  0  0  0  0  0
  -11.0190   -5.0050  -10.2130 O   0  0  0  0  0  0  0  0  0  0  0  0
  -10.2330   -6.7930   -9.0520 N   0  0  0  0  0  0  0  0  0  0  0  0
  -10.3740   -7.8720   -8.0380 C   0  0  0  0  0  0  0  0  0  0  0  0
   -9.0920   -8.7040   -8.2770 C   0  0  0  0  0  0  0  0  0  0  0  0
   -9.9520   -9.9050   -8.5080 C   0  0  0  0  0  0  0  0  0  0  0  0
   -9.9430  -11.2510   -8.8210 C   0  0  0  0  0  0  0  0  0  0  0  0
  -11.1650  -11.9080   -8.8720 C   0  0  0  0  0  0  0  0  0  0  0  0
  -12.3530  -11.1980   -8.6120 C   0  0  0  0  0  0  0  0  0  0  0  0
  -12.3250   -9.8270   -8.3110 C   0  0  0  0  0  0  0  0  0  0  0  0
  -11.1000   -9.2030   -8.2710 C   0  0  0  0  0  0  0  0  0  0  0  0
  -13.2980   -7.4060   -9.9450 C   0  0  0  0  0  0  0  0  0  0  0  0
  -15.0930   -8.7580  -11.8130 N   0  0  0  0  0  0  0  0  0  0  0  0
  -15.6220   -9.8700  -12.3100 N   0  0  0  0  0  0  0  0  0  0  0  0
  -17.9680  -11.9580  -13.1150 H   0  0  0  0  0  0  0  0  0  0  0  0
  -16.2760  -11.7140  -13.6070 H   0  0  0  0  0  0  0  0  0  0  0  0
  -16.8400  -13.3290  -13.2010 H   0  0  0  0  0  0  0  0  0  0  0  0
  -17.4180  -12.1420  -10.8430 H   0  0  0  0  0  0  0  0  0  0  0  0
  -14.8590  -12.9990  -11.6990 H   0  0  0  0  0  0  0  0  0  0  0  0
  -15.6480  -10.3980   -9.0640 H   0  0  0  0  0  0  0  0  0  0  0  0
  -16.1210   -7.6590   -8.1720 H   0  0  0  0  0  0  0  0  0  0  0  0
  -14.9690   -5.9580   -6.8890 H   0  0  0  0  0  0  0  0  0  0  0  0
  -12.7340   -5.1600   -7.4690 H   0  0  0  0  0  0  0  0  0  0  0  0
   -9.3040   -6.6320   -9.4150 H   0  0  0  0  0  0  0  0  0  0  0  0
  -10.4580   -7.4700   -7.0220 H   0  0  0  0  0  0  0  0  0  0  0  0
   -8.5120   -8.3490   -9.1400 H   0  0  0  0  0  0  0  0  0  0  0  0
   -8.4190   -8.7600   -7.4150 H   0  0  0  0  0  0  0  0  0  0  0  0
   -9.0220  -11.7820   -9.0140 H   0  0  0  0  0  0  0  0  0  0  0  0
  -11.2040  -12.9700   -9.1090 H   0  0  0  0  0  0  0  0  0  0  0  0
  -13.3050  -11.7200   -8.6490 H   0  0  0  0  0  0  0  0  0  0  0  0
  -13.2400   -9.2800   -8.1180 H   0  0  0  0  0  0  0  0  0  0  0  0
  -12.8880   -7.8310  -10.7980 H   0  0  0  0  0  0  0  0  0  0  0  0
  1  2  1  0
  2  3  1  0
  2  4  1  0
  4  5  2  0
  5  6  1  0
  6  7  1  0
  7  8  2  0
  8  9  1  0
  9 10  2  0
 10 11  1  0
 11 12  1  0
 12 13  2  0
 12 14  1  0
 14 15  1  0
 15 16  1  0
 16 17  1  0
 17 18  2  0
 18 19  1  0
 19 20  2  0
 20 21  1  0
 21 22  2  0
 11 23  2  0
  6 24  1  0
 24 25  2  0
 25  4  1  0
 23  7  1  0
 22 15  1  0
 22 17  1  0
  1 26  1  0
  1 27  1  0
  1 28  1  0
  2 29  1  0
  3 30  1  0
  5 31  1  0
  8 32  1  0
  9 33  1  0
 10 34  1  0
 14 35  1  0
 15 36  1  0
 16 37  1  0
 16 38  1  0
 18 39  1  0
 19 40  1  0
 20 41  1  0
 21 42  1  0
 23 43  1  0
A    1
 C1 
A    2
 C2 
A    3
 O1 
A    4
 C3 
A    5
 C4 
A    6
 N1 
A    7
 C5 
A    8
 C6 
A    9
 C7 
A   10
 C8 
A   11
 C9 
A   12
 C10
A   13
 O2 
A   14
 N2 
A   15
 C11
A   16
 C12
A   17
 C13
A   18
 C14
A   19
 C15
A   20
 C16
A   21
 C17
A   22
 C18
A   23
 C19
A   24
 N3 
A   25
 N4 
A   26
 H1 
A   27
 H2 
A   28
 H3 
A   29
 H4 
A   30
 H5 
A   31
 H6 
A   32
 H7 
A   33
 H8 
A   34
 H9 
A   35
 H10
A   36
 H11
A   37
 H12
A   38
 H13
A   39
 H14
A   40
 H15
A   41
 H16
A   42
 H17
A   43
 H18
M  END
>  <ref_pdb>  (154) 
x0051_0B

>  <ref_mols>  (154) 
x0051_0B

>  <original SMILES>  (154) 
[H]OC([H])(c1nnn(-c2c([H])c([H])c([H])c(C(=O)N([H])C3([H])c4c([H])c([H])c([H])c([H])c4C3([H])[H])c2[H])c1[H])C([H])([H])[H]

>  <index>  (154) 
2.0

>  <∆∆G>  (154) 
-5.227012

>  <comRMSD>  (154) 
0.70553

>  <N_constrained_atoms>  (154) 
25.0

>  <N_unconstrained_atoms>  (154) 
1.0

>  <LE>  (154) 
0.201039

>  <percent_hybrid>  (154) 
46.0

>  <largest_ring>  (154) 
6.0

>  <N_HA>  (154) 
25.0

>  <N_rotatable_bonds>  (154) 
6.0

>  <max_hit_Tanimoto>  (154) 
0.433333

>  <N_interactions_kept>  (154) 
0.5

>  <N_interactions_lost>  (154) 
3.0

>  <interaction_uniqueness_metric>  (154) 
0.146383

>  <N_interactions>  (154) 
8.0

>  <N_PAINS>  (154) 
0.0

>  <UFF_Gibbs>  (154) 
61.412686

>  <strain_per_HA>  (154) 
2.456498

>  <ad_hoc_penalty>  (154) 
-15.542034

>  <cluster>  (154) 
5926.0

>  <intxn_cluster>  (154) 
14.0

>  <keep>  (154) 
1.0

>  <hydroph_interaction:GLN:74>  (154) 
1.0

>  <hydroph_interaction:THR:118>  (154) 
1.0

>  <hydroph_interaction:ILE:123>  (154) 
2.0

>  <hydroph_interaction:THR:166>  (154) 
1.0

>  <hbond:GLN:167>  (154) 
2.0

>  <hydroph_interaction:ALA:88>  (154) 
1.0

>  <hydroph_interaction:ASP:120>  (154) 
0.0

>  <hydroph_interaction:GLN:167>  (154) 
0.0

>  <hbond:THR:118>  (154) 
0.0

>  <hydroph_interaction:ALA:164>  (154) 
0.0

>  <hbond:ASP:120>  (154) 
0.0

>  <hbond:THR:166>  (154) 
0.0

>  <hydroph_interaction:LEU:76>  (154) 
0.0

>  <hbond:ILE:165>  (154) 
0.0

>  <halogenbond:GLN:74>  (154) 
0.0

>  <hbond:GLN:74>  (154) 
0.0

>  <hbond:LYS:73>  (154) 
0.0

>  <pistack:TRP:69>  (154) 
0.0

>  <hbond:TRP:83>  (154) 
0.0

>  <hydroph_interaction:TRP:83>  (154) 
0.0

>  <hydroph_interaction:TRP:69>  (154) 
0.0

>  <pication:TRP:69>  (154) 
0.0

>  <hydroph_interaction:PRO:82>  (154) 
0.0

>  <halogenbond:LYS:73>  (154) 
0.0

>  <hydroph_interaction:TYR:68>  (154) 
0.0

>  <halogenbond:GLN:167>  (154) 
0.0

>  <hydroph_interaction:PHE:116>  (154) 
0.0

>  <hbond:TYR:68>  (154) 
0.0

>  <hbond:ASP:122>  (154) 
0.0

>  <pistack:PHE:116>  (154) 
0.0

>  <hydroph_interaction:VAL:154>  (154) 
0.0

>  <hydroph_interaction:ASP:75>  (154) 
0.0

>  <hbond:GLY:121>  (154) 
0.0

>  <hydroph_interaction:ASN:152>  (154) 
0.0

>  <halogenbond:ILE:165>  (154) 
0.0

$$$$
Z193063832-x0214S1-x0214S2
     RDKit          3D

 29 30  0  0  0  0  0  0  0  0999 V2000
   -9.2850   -9.9950   -7.3320 C   0  0  0  0  0  0  0  0  0  0  0  0
  -10.2980   -9.9580   -6.6530 O   0  0  0  0  0  0  0  0  0  0  0  0
  -11.3900   -9.4980   -7.4330 C   0  0  0  0  0  0  0  0  0  0  0  0
  -11.2940   -9.1600   -8.5910 O   0  0  0  0  0  0  0  0  0  0  0  0
  -12.6560   -9.4560   -6.7120 N   0  0  0  0  0  0  0  0  0  0  0  0
  -12.9230   -9.8780   -5.3720 C   0  0  0  0  0  0  0  0  0  0  0  0
  -14.1870   -9.2770   -5.2600 C   0  0  0  0  0  0  0  0  0  0  0  0
  -14.5900   -8.6440   -6.4460 C   0  0  0  0  0  0  0  0  0  0  0  0
  -13.3370   -8.1750   -6.7890 C   0  0  0  0  0  0  0  0  0  0  0  0
  -13.1440   -7.6530   -8.0510 C   0  0  0  0  0  0  0  0  0  0  0  0
  -12.3790   -6.3920   -8.0920 C   0  0  0  0  0  0  0  0  0  0  0  0
  -12.0600   -5.6910   -9.3780 C   0  0  0  0  0  0  0  0  0  0  0  0
  -12.4850   -6.2180  -10.5930 C   0  0  0  0  0  0  0  0  0  0  0  0
  -13.2630   -7.4680  -10.5780 N   0  0  0  0  0  0  0  0  0  0  0  0
  -13.5550   -8.1390   -9.2830 C   0  0  0  0  0  0  0  0  0  0  0  0
   -8.4160  -10.0430   -6.6650 H   0  0  0  0  0  0  0  0  0  0  0  0
   -9.1880   -9.0980   -7.9510 H   0  0  0  0  0  0  0  0  0  0  0  0
   -9.2890  -10.8720   -7.9900 H   0  0  0  0  0  0  0  0  0  0  0  0
  -12.2040   -9.4840   -4.6410 H   0  0  0  0  0  0  0  0  0  0  0  0
  -13.0010  -10.9670   -5.2930 H   0  0  0  0  0  0  0  0  0  0  0  0
  -14.9340  -10.0050   -4.9350 H   0  0  0  0  0  0  0  0  0  0  0  0
  -14.1380   -8.5120   -4.4720 H   0  0  0  0  0  0  0  0  0  0  0  0
  -15.4240   -7.9500   -6.4360 H   0  0  0  0  0  0  0  0  0  0  0  0
  -14.8450   -9.4320   -7.1600 H   0  0  0  0  0  0  0  0  0  0  0  0
  -12.8930   -7.7060   -5.9230 H   0  0  0  0  0  0  0  0  0  0  0  0
  -12.0780   -6.0430   -7.0960 H   0  0  0  0  0  0  0  0  0  0  0  0
  -11.4830   -4.7580   -9.3330 H   0  0  0  0  0  0  0  0  0  0  0  0
  -12.2890   -5.7720  -11.5590 H   0  0  0  0  0  0  0  0  0  0  0  0
  -14.1320   -9.0640   -9.3910 H   0  0  0  0  0  0  0  0  0  0  0  0
  1  2  1  0
  2  3  1  0
  3  4  2  0
  3  5  1  0
  5  6  1  0
  6  7  1  0
  7  8  1  0
  8  9  1  0
  9 10  1  0
 10 11  2  0
 11 12  1  0
 12 13  2  0
 13 14  1  0
 14 15  2  0
  9  5  1  0
 15 10  1  0
  1 16  1  0
  1 17  1  0
  1 18  1  0
  6 19  1  0
  6 20  1  0
  7 21  1  0
  7 22  1  0
  8 23  1  0
  8 24  1  0
  9 25  1  0
 11 26  1  0
 12 27  1  0
 13 28  1  0
 15 29  1  0
A    1
 C1 
A    2
 O1 
A    3
 C2 
A    4
 O2 
A    5
 N1 
A    6
 C3 
A    7
 C4 
A    8
 C5 
A    9
 C6 
A   10
 C7 
A   11
 C8 
A   12
 C9 
A   13
 C10
A   14
 N2 
A   15
 C11
A   16
 H1 
A   17
 H2 
A   18
 H3 
A   19
 H4 
A   20
 H5 
A   21
 H6 
A   22
 H7 
A   23
 H8 
A   24
 H9 
A   25
 H10
A   26
 H11
A   27
 H12
A   28
 H13
A   29
 H14
M  END
>  <ref_pdb>  (155) 
x0051_0B

>  <ref_mols>  (155) 
x0051_0B

>  <original SMILES>  (155) 
[H]c1nc([H])c(C2([H])N(C(=O)OC([H])([H])[H])C([H])([H])C([H])([H])C2([H])[H])c([H])c1[H]

>  <index>  (155) 
7155.0

>  <∆∆G>  (155) 
-2.440343

>  <comRMSD>  (155) 
0.808609

>  <N_constrained_atoms>  (155) 
15.0

>  <N_unconstrained_atoms>  (155) 
0.0

>  <LE>  (155) 
0.16269

>  <percent_hybrid>  (155) 
27.0

>  <largest_ring>  (155) 
6.0

>  <N_HA>  (155) 
15.0

>  <N_rotatable_bonds>  (155) 
2.0

>  <max_hit_Tanimoto>  (155) 
0.241787

>  <N_interactions_kept>  (155) 
0.0

>  <N_interactions_lost>  (155) 
0.0

>  <interaction_uniqueness_metric>  (155) 
0.040356

>  <N_interactions>  (155) 
2.0

>  <N_PAINS>  (155) 
0.0

>  <UFF_Gibbs>  (155) 
194.914643

>  <strain_per_HA>  (155) 
12.994223

>  <ad_hoc_penalty>  (155) 
-15.369929

>  <cluster>  (155) 
3157.0

>  <intxn_cluster>  (155) 
5.0

>  <keep>  (155) 
1.0

>  <hydroph_interaction:GLN:74>  (155) 
0.0

>  <hydroph_interaction:THR:118>  (155) 
0.0

>  <hydroph_interaction:ILE:123>  (155) 
0.0

>  <hydroph_interaction:THR:166>  (155) 
1.0

>  <hbond:GLN:167>  (155) 
1.0

>  <hydroph_interaction:ALA:88>  (155) 
0.0

>  <hydroph_interaction:ASP:120>  (155) 
0.0

>  <hydroph_interaction:GLN:167>  (155) 
0.0

>  <hbond:THR:118>  (155) 
0.0

>  <hydroph_interaction:ALA:164>  (155) 
0.0

>  <hbond:ASP:120>  (155) 
0.0

>  <hbond:THR:166>  (155) 
0.0

>  <hydroph_interaction:LEU:76>  (155) 
0.0

>  <hbond:ILE:165>  (155) 
0.0

>  <halogenbond:GLN:74>  (155) 
0.0

>  <hbond:GLN:74>  (155) 
0.0

>  <hbond:LYS:73>  (155) 
0.0

>  <pistack:TRP:69>  (155) 
0.0

>  <hbond:TRP:83>  (155) 
0.0

>  <hydroph_interaction:TRP:83>  (155) 
0.0

>  <hydroph_interaction:TRP:69>  (155) 
0.0

>  <pication:TRP:69>  (155) 
0.0

>  <hydroph_interaction:PRO:82>  (155) 
0.0

>  <halogenbond:LYS:73>  (155) 
0.0

>  <hydroph_interaction:TYR:68>  (155) 
0.0

>  <halogenbond:GLN:167>  (155) 
0.0

>  <hydroph_interaction:PHE:116>  (155) 
0.0

>  <hbond:TYR:68>  (155) 
0.0

>  <hbond:ASP:122>  (155) 
0.0

>  <pistack:PHE:116>  (155) 
0.0

>  <hydroph_interaction:VAL:154>  (155) 
0.0

>  <hydroph_interaction:ASP:75>  (155) 
0.0

>  <hbond:GLY:121>  (155) 
0.0

>  <hydroph_interaction:ASN:152>  (155) 
0.0

>  <halogenbond:ILE:165>  (155) 
0.0

$$$$
PV-002861265615-x0214S3-Z1318054286S3
     RDKit          3D

 21 22  0  0  0  0  0  0  0  0999 V2000
  -12.2980   -4.2310   -8.5980 F   0  0  0  0  0  0  0  0  0  0  0  0
  -12.6080   -5.5270   -8.7160 C   0  0  0  0  0  0  0  0  0  0  0  0
  -13.4980   -5.9540   -9.6570 C   0  0  0  0  0  0  0  0  0  0  0  0
  -13.8670   -7.2370   -9.8550 N   0  0  0  0  0  0  0  0  0  0  0  0
  -13.2940   -8.1340   -9.0350 C   0  0  0  0  0  0  0  0  0  0  0  0
  -12.3800   -7.7760   -8.0540 C   0  0  0  0  0  0  0  0  0  0  0  0
  -11.8380   -8.7370   -7.2720 O   0  0  0  0  0  0  0  0  0  0  0  0
  -11.4300   -9.8900   -7.8680 C   0  0  0  0  0  0  0  0  0  0  0  0
  -12.2070  -11.0230   -7.6740 C   0  0  0  0  0  0  0  0  0  0  0  0
  -11.8220  -12.2180   -8.2550 C   0  0  0  0  0  0  0  0  0  0  0  0
  -10.7130  -12.3370   -9.0010 N   0  0  0  0  0  0  0  0  0  0  0  0
   -9.9620  -11.2140   -9.1810 C   0  0  0  0  0  0  0  0  0  0  0  0
  -10.2750   -9.9610   -8.6450 C   0  0  0  0  0  0  0  0  0  0  0  0
   -9.2840   -8.5780   -8.9300 Cl  0  0  0  0  0  0  0  0  0  0  0  0
  -12.0330   -6.4510   -7.8920 C   0  0  0  0  0  0  0  0  0  0  0  0
  -13.9560   -5.2460  -10.2940 H   0  0  0  0  0  0  0  0  0  0  0  0
  -13.5900   -9.1690   -9.1900 H   0  0  0  0  0  0  0  0  0  0  0  0
  -13.1120  -10.9840   -7.0750 H   0  0  0  0  0  0  0  0  0  0  0  0
  -12.4030  -13.1280   -8.1280 H   0  0  0  0  0  0  0  0  0  0  0  0
   -9.0730  -11.3600   -9.7920 H   0  0  0  0  0  0  0  0  0  0  0  0
  -11.3250   -6.1230   -7.1390 H   0  0  0  0  0  0  0  0  0  0  0  0
  1  2  1  0
  2  3  2  0
  3  4  1  0
  4  5  2  0
  5  6  1  0
  6  7  1  0
  7  8  1  0
  8  9  2  0
  9 10  1  0
 10 11  2  0
 11 12  1  0
 12 13  2  0
 13 14  1  0
  6 15  2  0
 15  2  1  0
 13  8  1  0
  3 16  1  0
  5 17  1  0
  9 18  1  0
 10 19  1  0
 12 20  1  0
 15 21  1  0
A    1
 F1 
A    2
 C1 
A    3
 C2 
A    4
 N1 
A    5
 C3 
A    6
 C4 
A    7
 O1 
A    8
 C5 
A    9
 C6 
A   10
 C7 
A   11
 N2 
A   12
 C8 
A   13
 C9 
A   14
CL1 
A   15
 C10
A   16
 H1 
A   17
 H2 
A   18
 H3 
A   19
 H4 
A   20
 H5 
A   21
 H6 
M  END
>  <ref_pdb>  (156) 
x0051_0B

>  <ref_mols>  (156) 
x0051_0B

>  <original SMILES>  (156) 
[H]c1nc([H])c(Cl)c(Oc2c([H])nc([H])c(F)c2[H])c1[H]

>  <index>  (156) 
6145.0

>  <∆∆G>  (156) 
-1.257905

>  <comRMSD>  (156) 
0.852288

>  <N_constrained_atoms>  (156) 
13.0

>  <N_unconstrained_atoms>  (156) 
2.0

>  <LE>  (156) 
0.08386

>  <percent_hybrid>  (156) 
47.0

>  <largest_ring>  (156) 
6.0

>  <N_HA>  (156) 
15.0

>  <N_rotatable_bonds>  (156) 
2.0

>  <max_hit_Tanimoto>  (156) 
0.086835

>  <N_interactions_kept>  (156) 
1.0

>  <N_interactions_lost>  (156) 
0.0

>  <interaction_uniqueness_metric>  (156) 
0.045018

>  <N_interactions>  (156) 
3.0

>  <N_PAINS>  (156) 
0.0

>  <UFF_Gibbs>  (156) 
19.344091

>  <strain_per_HA>  (156) 
1.289597

>  <ad_hoc_penalty>  (156) 
-15.360917

>  <cluster>  (156) 
3566.0

>  <intxn_cluster>  (156) 
6.0

>  <keep>  (156) 
1.0

>  <hydroph_interaction:GLN:74>  (156) 
0.0

>  <hydroph_interaction:THR:118>  (156) 
0.0

>  <hydroph_interaction:ILE:123>  (156) 
0.0

>  <hydroph_interaction:THR:166>  (156) 
0.0

>  <hbond:GLN:167>  (156) 
2.0

>  <hydroph_interaction:ALA:88>  (156) 
0.0

>  <hydroph_interaction:ASP:120>  (156) 
0.0

>  <hydroph_interaction:GLN:167>  (156) 
0.0

>  <hbond:THR:118>  (156) 
1.0

>  <hydroph_interaction:ALA:164>  (156) 
0.0

>  <hbond:ASP:120>  (156) 
0.0

>  <hbond:THR:166>  (156) 
0.0

>  <hydroph_interaction:LEU:76>  (156) 
0.0

>  <hbond:ILE:165>  (156) 
0.0

>  <halogenbond:GLN:74>  (156) 
0.0

>  <hbond:GLN:74>  (156) 
0.0

>  <hbond:LYS:73>  (156) 
0.0

>  <pistack:TRP:69>  (156) 
0.0

>  <hbond:TRP:83>  (156) 
0.0

>  <hydroph_interaction:TRP:83>  (156) 
0.0

>  <hydroph_interaction:TRP:69>  (156) 
0.0

>  <pication:TRP:69>  (156) 
0.0

>  <hydroph_interaction:PRO:82>  (156) 
0.0

>  <halogenbond:LYS:73>  (156) 
0.0

>  <hydroph_interaction:TYR:68>  (156) 
0.0

>  <halogenbond:GLN:167>  (156) 
0.0

>  <hydroph_interaction:PHE:116>  (156) 
0.0

>  <hbond:TYR:68>  (156) 
0.0

>  <hbond:ASP:122>  (156) 
0.0

>  <pistack:PHE:116>  (156) 
0.0

>  <hydroph_interaction:VAL:154>  (156) 
0.0

>  <hydroph_interaction:ASP:75>  (156) 
0.0

>  <hbond:GLY:121>  (156) 
0.0

>  <hydroph_interaction:ASN:152>  (156) 
0.0

>  <halogenbond:ILE:165>  (156) 
0.0

$$$$
Z1654729884-x0884S2-Z198195906S1
     RDKit          3D

 18 18  0  0  0  0  0  0  0  0999 V2000
  -10.6800   -5.6020  -10.1650 N   0  0  0  0  0  0  0  0  0  0  0  0
  -11.1640   -6.1820   -9.2830 C   0  0  0  0  0  0  0  0  0  0  0  0
  -10.0210   -6.8790   -8.7980 O   0  0  0  0  0  0  0  0  0  0  0  0
  -12.1980   -6.6540   -8.3180 C   0  0  0  0  0  0  0  0  0  0  0  0
  -13.2850   -7.4810   -9.0300 C   0  0  0  0  0  0  0  0  0  0  0  0
  -14.2130   -8.2950   -8.1180 C   0  0  0  0  0  0  0  0  0  0  0  0
  -15.5900   -7.6640   -7.9590 C   0  0  0  0  0  0  0  0  0  0  0  0
  -16.5790   -8.4220   -7.0880 C   0  0  0  0  0  0  0  0  0  0  0  0
  -16.1410   -9.7340   -6.4340 C   0  0  0  0  0  0  0  0  0  0  0  0
  -16.9800  -10.4350   -5.6600 F   0  0  0  0  0  0  0  0  0  0  0  0
  -14.7270  -10.2250   -6.6840 C   0  0  0  0  0  0  0  0  0  0  0  0
  -13.8310   -9.5080   -7.4970 C   0  0  0  0  0  0  0  0  0  0  0  0
  -12.5980  -10.0020   -7.6730 F   0  0  0  0  0  0  0  0  0  0  0  0
   -9.8230   -6.0400  -10.4990 H   0  0  0  0  0  0  0  0  0  0  0  0
  -10.7720   -4.6010  -10.2780 H   0  0  0  0  0  0  0  0  0  0  0  0
  -15.8290   -6.7290   -8.4520 H   0  0  0  0  0  0  0  0  0  0  0  0
  -17.5620   -7.9340   -7.0080 H   0  0  0  0  0  0  0  0  0  0  0  0
  -14.4030  -11.1510   -6.2260 H   0  0  0  0  0  0  0  0  0  0  0  0
  1  2  1  0
  2  3  2  0
  2  4  1  0
  4  5  3  0
  5  6  1  0
  6  7  2  0
  7  8  1  0
  8  9  2  0
  9 10  1  0
  9 11  1  0
 11 12  2  0
 12 13  1  0
 12  6  1  0
  1 14  1  0
  1 15  1  0
  7 16  1  0
  8 17  1  0
 11 18  1  0
A    1
 N1 
A    2
 C1 
A    3
 O1 
A    4
 C2 
A    5
 C3 
A    6
 C4 
A    7
 C5 
A    8
 C6 
A    9
 C7 
A   10
 F1 
A   11
 C8 
A   12
 C9 
A   13
 F2 
A   14
 H1 
A   15
 H2 
A   16
 H3 
A   17
 H4 
A   18
 H5 
M  END
>  <ref_pdb>  (157) 
x0051_0B

>  <ref_mols>  (157) 
x0051_0B

>  <original SMILES>  (157) 
[H]c1c([H])c(C#CC(=O)N([H])[H])c(F)c([H])c1F

>  <index>  (157) 
7637.0

>  <∆∆G>  (157) 
-2.235132

>  <comRMSD>  (157) 
0.613057

>  <N_constrained_atoms>  (157) 
12.0

>  <N_unconstrained_atoms>  (157) 
1.0

>  <LE>  (157) 
0.171933

>  <percent_hybrid>  (157) 
28.0

>  <largest_ring>  (157) 
6.0

>  <N_HA>  (157) 
13.0

>  <N_rotatable_bonds>  (157) 
0.0

>  <max_hit_Tanimoto>  (157) 
0.134111

>  <N_interactions_kept>  (157) 
0.0

>  <N_interactions_lost>  (157) 
0.0

>  <interaction_uniqueness_metric>  (157) 
0.059761

>  <N_interactions>  (157) 
1.0

>  <N_PAINS>  (157) 
0.0

>  <UFF_Gibbs>  (157) 
445.58565

>  <strain_per_HA>  (157) 
34.275556

>  <ad_hoc_penalty>  (157) 
-14.934734

>  <cluster>  (157) 
2987.0

>  <intxn_cluster>  (157) 
10.0

>  <keep>  (157) 
1.0

>  <hydroph_interaction:GLN:74>  (157) 
0.0

>  <hydroph_interaction:THR:118>  (157) 
0.0

>  <hydroph_interaction:ILE:123>  (157) 
0.0

>  <hydroph_interaction:THR:166>  (157) 
0.0

>  <hbond:GLN:167>  (157) 
0.0

>  <hydroph_interaction:ALA:88>  (157) 
0.0

>  <hydroph_interaction:ASP:120>  (157) 
0.0

>  <hydroph_interaction:GLN:167>  (157) 
0.0

>  <hbond:THR:118>  (157) 
0.0

>  <hydroph_interaction:ALA:164>  (157) 
0.0

>  <hbond:ASP:120>  (157) 
0.0

>  <hbond:THR:166>  (157) 
1.0

>  <hydroph_interaction:LEU:76>  (157) 
0.0

>  <hbond:ILE:165>  (157) 
0.0

>  <halogenbond:GLN:74>  (157) 
0.0

>  <hbond:GLN:74>  (157) 
0.0

>  <hbond:LYS:73>  (157) 
0.0

>  <pistack:TRP:69>  (157) 
0.0

>  <hbond:TRP:83>  (157) 
0.0

>  <hydroph_interaction:TRP:83>  (157) 
0.0

>  <hydroph_interaction:TRP:69>  (157) 
0.0

>  <pication:TRP:69>  (157) 
0.0

>  <hydroph_interaction:PRO:82>  (157) 
0.0

>  <halogenbond:LYS:73>  (157) 
0.0

>  <hydroph_interaction:TYR:68>  (157) 
0.0

>  <halogenbond:GLN:167>  (157) 
0.0

>  <hydroph_interaction:PHE:116>  (157) 
0.0

>  <hbond:TYR:68>  (157) 
0.0

>  <hbond:ASP:122>  (157) 
0.0

>  <pistack:PHE:116>  (157) 
0.0

>  <hydroph_interaction:VAL:154>  (157) 
0.0

>  <hydroph_interaction:ASP:75>  (157) 
0.0

>  <hbond:GLY:121>  (157) 
0.0

>  <hydroph_interaction:ASN:152>  (157) 
0.0

>  <halogenbond:ILE:165>  (157) 
0.0

$$$$
Z2266100661-x0806S1-Z198195906S2
     RDKit          3D

 43 45  0  0  0  0  0  0  0  0999 V2000
  -10.2240   -8.1620   -8.2010 C   0  0  0  0  0  0  0  0  0  0  0  0
  -10.6820   -9.6180   -8.2580 C   0  0  0  0  0  0  0  0  0  0  0  0
   -9.7200  -10.4020   -9.0340 N   0  0  0  0  0  0  0  0  0  0  0  0
  -10.0380  -11.8260   -9.1680 C   0  0  0  0  0  0  0  0  0  0  0  0
  -11.2080  -12.3140   -8.5570 C   0  0  0  0  0  0  0  0  0  0  0  0
  -12.0770  -11.4920   -7.8290 C   0  0  0  0  0  0  0  0  0  0  0  0
  -11.8270  -10.1190   -7.6660 C   0  0  0  0  0  0  0  0  0  0  0  0
  -12.6840   -9.3060   -6.9400 C   0  0  0  0  0  0  0  0  0  0  0  0
  -14.1020   -9.2300   -7.2930 N   0  0  0  0  0  0  0  0  0  0  0  0
  -14.9210   -9.9060   -6.2510 C   0  0  0  0  0  0  0  0  0  0  0  0
  -16.3400  -10.2140   -6.7460 C   0  0  0  0  0  0  0  0  0  0  0  0
  -16.8500   -9.1760   -7.5550 O   0  0  0  0  0  0  0  0  0  0  0  0
  -16.1870   -7.9630   -7.2070 C   0  0  0  0  0  0  0  0  0  0  0  0
  -14.7170   -7.9020   -7.7340 C   0  0  0  0  0  0  0  0  0  0  0  0
  -13.9190   -6.8360   -7.2640 C   0  0  0  0  0  0  0  0  0  0  0  0
  -12.7530   -6.2430   -8.0830 C   0  0  0  0  0  0  0  0  0  0  0  0
  -13.0060   -6.2520   -9.5830 C   0  0  0  0  0  0  0  0  0  0  0  0
  -13.6850   -7.5470  -10.0020 C   0  0  0  0  0  0  0  0  0  0  0  0
  -14.9580   -7.6760   -9.2610 C   0  0  0  0  0  0  0  0  0  0  0  0
   -9.1810   -8.0550   -8.5220 H   0  0  0  0  0  0  0  0  0  0  0  0
  -10.2950   -7.7670   -7.1810 H   0  0  0  0  0  0  0  0  0  0  0  0
  -10.8390   -7.5290   -8.8460 H   0  0  0  0  0  0  0  0  0  0  0  0
   -9.3490  -12.4470   -9.7380 H   0  0  0  0  0  0  0  0  0  0  0  0
  -11.4410  -13.3670   -8.6570 H   0  0  0  0  0  0  0  0  0  0  0  0
  -12.9640  -11.9330   -7.3810 H   0  0  0  0  0  0  0  0  0  0  0  0
  -12.3560   -8.2750   -6.8490 H   0  0  0  0  0  0  0  0  0  0  0  0
  -12.6550   -9.6610   -5.9050 H   0  0  0  0  0  0  0  0  0  0  0  0
  -15.0270   -9.2750   -5.3610 H   0  0  0  0  0  0  0  0  0  0  0  0
  -14.4300  -10.8340   -5.9350 H   0  0  0  0  0  0  0  0  0  0  0  0
  -17.0210  -10.3450   -5.8980 H   0  0  0  0  0  0  0  0  0  0  0  0
  -16.3580  -11.1390   -7.3310 H   0  0  0  0  0  0  0  0  0  0  0  0
  -16.7780   -7.1020   -7.5330 H   0  0  0  0  0  0  0  0  0  0  0  0
  -16.2000   -7.9260   -6.1140 H   0  0  0  0  0  0  0  0  0  0  0  0
  -14.5930   -5.9930   -7.0800 H   0  0  0  0  0  0  0  0  0  0  0  0
  -13.5340   -7.0770   -6.2640 H   0  0  0  0  0  0  0  0  0  0  0  0
  -11.8380   -6.7940   -7.8620 H   0  0  0  0  0  0  0  0  0  0  0  0
  -12.5680   -5.2090   -7.7640 H   0  0  0  0  0  0  0  0  0  0  0  0
  -13.6540   -5.4140   -9.8530 H   0  0  0  0  0  0  0  0  0  0  0  0
  -12.0580   -6.1010  -10.1060 H   0  0  0  0  0  0  0  0  0  0  0  0
  -13.0730   -8.4040   -9.7250 H   0  0  0  0  0  0  0  0  0  0  0  0
  -13.8590   -7.5870  -11.0830 H   0  0  0  0  0  0  0  0  0  0  0  0
  -15.5240   -8.4770   -9.7450 H   0  0  0  0  0  0  0  0  0  0  0  0
  -15.5330   -6.7590   -9.4040 H   0  0  0  0  0  0  0  0  0  0  0  0
  1  2  1  0
  2  3  2  0
  3  4  1  0
  4  5  2  0
  5  6  1  0
  6  7  2  0
  7  8  1  0
  8  9  1  0
  9 10  1  0
 10 11  1  0
 11 12  1  0
 12 13  1  0
 13 14  1  0
 14 15  1  0
 15 16  1  0
 16 17  1  0
 17 18  1  0
 18 19  1  0
  7  2  1  0
 14  9  1  0
 19 14  1  0
  1 20  1  0
  1 21  1  0
  1 22  1  0
  4 23  1  0
  5 24  1  0
  6 25  1  0
  8 26  1  0
  8 27  1  0
 10 28  1  0
 10 29  1  0
 11 30  1  0
 11 31  1  0
 13 32  1  0
 13 33  1  0
 15 34  1  0
 15 35  1  0
 16 36  1  0
 16 37  1  0
 17 38  1  0
 17 39  1  0
 18 40  1  0
 18 41  1  0
 19 42  1  0
 19 43  1  0
A    1
 C1 
A    2
 C2 
A    3
 N1 
A    4
 C3 
A    5
 C4 
A    6
 C5 
A    7
 C6 
A    8
 C7 
A    9
 N2 
A   10
 C8 
A   11
 C9 
A   12
 O1 
A   13
 C10
A   14
 C11
A   15
 C12
A   16
 C13
A   17
 C14
A   18
 C15
A   19
 C16
A   20
 H1 
A   21
 H2 
A   22
 H3 
A   23
 H4 
A   24
 H5 
A   25
 H6 
A   26
 H7 
A   27
 H8 
A   28
 H9 
A   29
 H10
A   30
 H11
A   31
 H12
A   32
 H13
A   33
 H14
A   34
 H15
A   35
 H16
A   36
 H17
A   37
 H18
A   38
 H19
A   39
 H20
A   40
 H21
A   41
 H22
A   42
 H23
A   43
 H24
M  END
>  <ref_pdb>  (158) 
x0051_0B

>  <ref_mols>  (158) 
x0051_0B

>  <original SMILES>  (158) 
[H]c1nc(C([H])([H])[H])c(C([H])([H])N2C([H])([H])C([H])([H])OC([H])([H])C23C([H])([H])C([H])([H])C([H])([H])C([H])([H])C3([H])[H])c([H])c1[H]

>  <index>  (158) 
1673.0

>  <∆∆G>  (158) 
-2.663685

>  <comRMSD>  (158) 
0.651737

>  <N_constrained_atoms>  (158) 
19.0

>  <N_unconstrained_atoms>  (158) 
0.0

>  <LE>  (158) 
0.140194

>  <percent_hybrid>  (158) 
28.0

>  <largest_ring>  (158) 
6.0

>  <N_HA>  (158) 
19.0

>  <N_rotatable_bonds>  (158) 
3.0

>  <max_hit_Tanimoto>  (158) 
0.302985

>  <N_interactions_kept>  (158) 
1.0

>  <N_interactions_lost>  (158) 
1.0

>  <interaction_uniqueness_metric>  (158) 
0.086401

>  <N_interactions>  (158) 
4.0

>  <N_PAINS>  (158) 
0.0

>  <UFF_Gibbs>  (158) 
185.708065

>  <strain_per_HA>  (158) 
9.774057

>  <ad_hoc_penalty>  (158) 
-14.822065

>  <cluster>  (158) 
1292.0

>  <intxn_cluster>  (158) 
16.0

>  <keep>  (158) 
1.0

>  <hydroph_interaction:GLN:74>  (158) 
1.0

>  <hydroph_interaction:THR:118>  (158) 
0.0

>  <hydroph_interaction:ILE:123>  (158) 
1.0

>  <hydroph_interaction:THR:166>  (158) 
1.0

>  <hbond:GLN:167>  (158) 
0.0

>  <hydroph_interaction:ALA:88>  (158) 
0.0

>  <hydroph_interaction:ASP:120>  (158) 
0.0

>  <hydroph_interaction:GLN:167>  (158) 
0.0

>  <hbond:THR:118>  (158) 
1.0

>  <hydroph_interaction:ALA:164>  (158) 
0.0

>  <hbond:ASP:120>  (158) 
0.0

>  <hbond:THR:166>  (158) 
0.0

>  <hydroph_interaction:LEU:76>  (158) 
0.0

>  <hbond:ILE:165>  (158) 
0.0

>  <halogenbond:GLN:74>  (158) 
0.0

>  <hbond:GLN:74>  (158) 
0.0

>  <hbond:LYS:73>  (158) 
0.0

>  <pistack:TRP:69>  (158) 
0.0

>  <hbond:TRP:83>  (158) 
0.0

>  <hydroph_interaction:TRP:83>  (158) 
0.0

>  <hydroph_interaction:TRP:69>  (158) 
0.0

>  <pication:TRP:69>  (158) 
0.0

>  <hydroph_interaction:PRO:82>  (158) 
0.0

>  <halogenbond:LYS:73>  (158) 
0.0

>  <hydroph_interaction:TYR:68>  (158) 
0.0

>  <halogenbond:GLN:167>  (158) 
0.0

>  <hydroph_interaction:PHE:116>  (158) 
0.0

>  <hbond:TYR:68>  (158) 
0.0

>  <hbond:ASP:122>  (158) 
0.0

>  <pistack:PHE:116>  (158) 
0.0

>  <hydroph_interaction:VAL:154>  (158) 
0.0

>  <hydroph_interaction:ASP:75>  (158) 
0.0

>  <hbond:GLY:121>  (158) 
0.0

>  <hydroph_interaction:ASN:152>  (158) 
0.0

>  <halogenbond:ILE:165>  (158) 
0.0

$$$$
PV-002436890006-x0214S3-Z198195906S6
     RDKit          3D

 19 19  0  0  0  0  0  0  0  0999 V2000
  -10.0710   -7.9780   -8.3880 C   0  0  0  0  0  0  0  0  0  0  0  0
   -9.6280   -7.2270   -9.5650 N   0  0  0  0  0  0  0  0  0  0  0  0
  -10.6370   -6.2320   -9.9680 C   0  0  0  0  0  0  0  0  0  0  0  0
  -10.4000   -5.1730  -10.5160 O   0  0  0  0  0  0  0  0  0  0  0  0
  -11.9780   -6.7080   -9.5830 C   0  0  0  0  0  0  0  0  0  0  0  0
  -12.3670   -6.2650   -8.3220 C   0  0  0  0  0  0  0  0  0  0  0  0
  -13.6380   -6.6990   -7.7930 C   0  0  0  0  0  0  0  0  0  0  0  0
  -14.4010   -7.5460   -8.5940 C   0  0  0  0  0  0  0  0  0  0  0  0
  -15.5930   -7.9770   -8.1000 O   0  0  0  0  0  0  0  0  0  0  0  0
  -13.9140   -7.9040   -9.8370 C   0  0  0  0  0  0  0  0  0  0  0  0
  -12.7330   -7.4910  -10.3220 N   0  0  0  0  0  0  0  0  0  0  0  0
  -10.8730   -8.6800   -8.6740 H   0  0  0  0  0  0  0  0  0  0  0  0
  -10.4720   -7.3010   -7.6180 H   0  0  0  0  0  0  0  0  0  0  0  0
   -9.2530   -8.5710   -7.9360 H   0  0  0  0  0  0  0  0  0  0  0  0
   -9.5500   -7.8780  -10.3540 H   0  0  0  0  0  0  0  0  0  0  0  0
  -11.7240   -5.6140   -7.7370 H   0  0  0  0  0  0  0  0  0  0  0  0
  -13.9880   -6.3890   -6.8130 H   0  0  0  0  0  0  0  0  0  0  0  0
  -16.3460   -7.5960   -8.6180 H   0  0  0  0  0  0  0  0  0  0  0  0
  -14.4800   -8.5570  -10.4970 H   0  0  0  0  0  0  0  0  0  0  0  0
  1  2  1  0
  2  3  1  0
  3  4  2  0
  3  5  1  0
  5  6  2  0
  6  7  1  0
  7  8  2  0
  8  9  1  0
  8 10  1  0
 10 11  2  0
 11  5  1  0
  1 12  1  0
  1 13  1  0
  1 14  1  0
  2 15  1  0
  6 16  1  0
  7 17  1  0
  9 18  1  0
 10 19  1  0
A    1
 C1 
A    2
 N1 
A    3
 C2 
A    4
 O1 
A    5
 C3 
A    6
 C4 
A    7
 C5 
A    8
 C6 
A    9
 O2 
A   10
 C7 
A   11
 N2 
A   12
 H1 
A   13
 H2 
A   14
 H3 
A   15
 H4 
A   16
 H5 
A   17
 H6 
A   18
 H7 
A   19
 H8 
M  END
>  <ref_pdb>  (159) 
x0051_0B

>  <ref_mols>  (159) 
x0051_0B

>  <original SMILES>  (159) 
[H]Oc1c([H])nc(C(=O)N([H])C([H])([H])[H])c([H])c1[H]

>  <index>  (159) 
1854.0

>  <∆∆G>  (159) 
-3.921003

>  <comRMSD>  (159) 
0.773825

>  <N_constrained_atoms>  (159) 
10.0

>  <N_unconstrained_atoms>  (159) 
1.0

>  <LE>  (159) 
0.356455

>  <percent_hybrid>  (159) 
45.0

>  <largest_ring>  (159) 
6.0

>  <N_HA>  (159) 
11.0

>  <N_rotatable_bonds>  (159) 
3.0

>  <max_hit_Tanimoto>  (159) 
0.095385

>  <N_interactions_kept>  (159) 
0.0

>  <N_interactions_lost>  (159) 
0.0

>  <interaction_uniqueness_metric>  (159) 
0.021572

>  <N_interactions>  (159) 
2.0

>  <N_PAINS>  (159) 
0.0

>  <UFF_Gibbs>  (159) 
71.810556

>  <strain_per_HA>  (159) 
6.528173

>  <ad_hoc_penalty>  (159) 
-14.789825

>  <cluster>  (159) 
5406.0

>  <intxn_cluster>  (159) 
8.0

>  <keep>  (159) 
1.0

>  <hydroph_interaction:GLN:74>  (159) 
0.0

>  <hydroph_interaction:THR:118>  (159) 
0.0

>  <hydroph_interaction:ILE:123>  (159) 
0.0

>  <hydroph_interaction:THR:166>  (159) 
0.0

>  <hbond:GLN:167>  (159) 
2.0

>  <hydroph_interaction:ALA:88>  (159) 
0.0

>  <hydroph_interaction:ASP:120>  (159) 
0.0

>  <hydroph_interaction:GLN:167>  (159) 
0.0

>  <hbond:THR:118>  (159) 
0.0

>  <hydroph_interaction:ALA:164>  (159) 
0.0

>  <hbond:ASP:120>  (159) 
0.0

>  <hbond:THR:166>  (159) 
0.0

>  <hydroph_interaction:LEU:76>  (159) 
0.0

>  <hbond:ILE:165>  (159) 
0.0

>  <halogenbond:GLN:74>  (159) 
0.0

>  <hbond:GLN:74>  (159) 
0.0

>  <hbond:LYS:73>  (159) 
0.0

>  <pistack:TRP:69>  (159) 
0.0

>  <hbond:TRP:83>  (159) 
0.0

>  <hydroph_interaction:TRP:83>  (159) 
0.0

>  <hydroph_interaction:TRP:69>  (159) 
0.0

>  <pication:TRP:69>  (159) 
0.0

>  <hydroph_interaction:PRO:82>  (159) 
0.0

>  <halogenbond:LYS:73>  (159) 
0.0

>  <hydroph_interaction:TYR:68>  (159) 
0.0

>  <halogenbond:GLN:167>  (159) 
0.0

>  <hydroph_interaction:PHE:116>  (159) 
0.0

>  <hbond:TYR:68>  (159) 
0.0

>  <hbond:ASP:122>  (159) 
0.0

>  <pistack:PHE:116>  (159) 
0.0

>  <hydroph_interaction:VAL:154>  (159) 
0.0

>  <hydroph_interaction:ASP:75>  (159) 
0.0

>  <hbond:GLY:121>  (159) 
0.0

>  <hydroph_interaction:ASN:152>  (159) 
0.0

>  <halogenbond:ILE:165>  (159) 
0.0

$$$$
PV-002660252404-Z198195906S7-x0806S2
     RDKit          3D

 44 46  0  0  0  0  0  0  0  0999 V2000
  -16.8380  -12.3330  -13.1080 C   0  0  0  0  0  0  0  0  0  0  0  0
  -16.3530  -12.2640  -11.6780 C   0  0  0  0  0  0  0  0  0  0  0  0
  -15.4940  -13.0640  -11.2760 O   0  0  0  0  0  0  0  0  0  0  0  0
  -15.8010  -10.8400  -11.4710 C   0  0  0  0  0  0  0  0  0  0  0  0
  -15.5900  -10.2960  -10.2490 C   0  0  0  0  0  0  0  0  0  0  0  0
  -15.1180   -9.0620  -10.4030 N   0  0  0  0  0  0  0  0  0  0  0  0
  -14.8080   -8.2170   -9.3850 C   0  0  0  0  0  0  0  0  0  0  0  0
  -15.4280   -8.1950   -8.3510 C   0  0  0  0  0  0  0  0  0  0  0  0
  -16.4770   -8.5180   -7.4000 C   0  0  0  0  0  0  0  0  0  0  0  0
  -16.3440   -9.4980   -6.4150 C   0  0  0  0  0  0  0  0  0  0  0  0
  -15.1990   -9.4580   -5.6530 C   0  0  0  0  0  0  0  0  0  0  0  0
  -14.0720   -9.3300   -6.5460 N   0  0  0  0  0  0  0  0  0  0  0  0
  -13.5450  -10.5630   -6.8640 C   0  0  0  0  0  0  0  0  0  0  0  0
  -14.2090  -11.5910   -6.7540 O   0  0  0  0  0  0  0  0  0  0  0  0
  -12.1350  -10.7570   -7.3500 C   0  0  0  0  0  0  0  0  0  0  0  0
  -11.2200   -9.7120   -7.5000 C   0  0  0  0  0  0  0  0  0  0  0  0
   -9.9230  -10.0790   -7.9660 C   0  0  0  0  0  0  0  0  0  0  0  0
   -9.5390  -11.3350   -8.2700 N   0  0  0  0  0  0  0  0  0  0  0  0
  -10.4770  -12.2810   -8.1040 C   0  0  0  0  0  0  0  0  0  0  0  0
  -11.7680  -12.0690   -7.6520 C   0  0  0  0  0  0  0  0  0  0  0  0
  -14.1720   -8.1930   -7.4570 C   0  0  0  0  0  0  0  0  0  0  0  0
  -15.0090   -8.7910  -11.7270 N   0  0  0  0  0  0  0  0  0  0  0  0
  -15.4320   -9.8880  -12.4010 N   0  0  0  0  0  0  0  0  0  0  0  0
  -17.6790  -11.6520  -13.2770 H   0  0  0  0  0  0  0  0  0  0  0  0
  -16.0330  -12.0580  -13.7980 H   0  0  0  0  0  0  0  0  0  0  0  0
  -17.1700  -13.3440  -13.3560 H   0  0  0  0  0  0  0  0  0  0  0  0
  -17.2070  -12.3820  -11.0000 H   0  0  0  0  0  0  0  0  0  0  0  0
  -14.8280  -13.1210  -11.9890 H   0  0  0  0  0  0  0  0  0  0  0  0
  -15.7350  -10.6720   -9.2320 H   0  0  0  0  0  0  0  0  0  0  0  0
  -13.7170   -8.2740   -9.3120 H   0  0  0  0  0  0  0  0  0  0  0  0
  -15.0060   -7.2250   -9.8160 H   0  0  0  0  0  0  0  0  0  0  0  0
  -15.6990   -7.1300   -8.3660 H   0  0  0  0  0  0  0  0  0  0  0  0
  -16.7670   -7.6120   -6.8630 H   0  0  0  0  0  0  0  0  0  0  0  0
  -17.3800   -8.7890   -7.9500 H   0  0  0  0  0  0  0  0  0  0  0  0
  -16.4200  -10.4820   -6.8920 H   0  0  0  0  0  0  0  0  0  0  0  0
  -17.2040   -9.4330   -5.7380 H   0  0  0  0  0  0  0  0  0  0  0  0
  -15.0970  -10.3920   -5.0890 H   0  0  0  0  0  0  0  0  0  0  0  0
  -15.2420   -8.6410   -4.9230 H   0  0  0  0  0  0  0  0  0  0  0  0
  -11.4750   -8.6820   -7.2730 H   0  0  0  0  0  0  0  0  0  0  0  0
   -9.2090   -9.2540   -8.0780 H   0  0  0  0  0  0  0  0  0  0  0  0
  -10.2470  -13.3320   -8.3300 H   0  0  0  0  0  0  0  0  0  0  0  0
  -12.4620  -12.9090   -7.5450 H   0  0  0  0  0  0  0  0  0  0  0  0
  -13.2830   -8.1270   -8.0790 H   0  0  0  0  0  0  0  0  0  0  0  0
  -14.1810   -7.3030   -6.8320 H   0  0  0  0  0  0  0  0  0  0  0  0
  1  2  1  0
  2  3  1  0
  2  4  1  0
  4  5  2  0
  5  6  1  0
  6  7  1  0
  7  8  1  0
  8  9  1  0
  9 10  1  0
 10 11  1  0
 11 12  1  0
 12 13  1  0
 13 14  2  0
 13 15  1  0
 15 16  2  0
 16 17  1  0
 17 18  2  0
 18 19  1  0
 19 20  2  0
 12 21  1  0
  6 22  1  0
 22 23  2  0
 23  4  1  0
 21  8  1  0
 20 15  1  0
  1 24  1  0
  1 25  1  0
  1 26  1  0
  2 27  1  0
  3 28  1  0
  5 29  1  0
  7 30  1  0
  7 31  1  0
  8 32  1  0
  9 33  1  0
  9 34  1  0
 10 35  1  0
 10 36  1  0
 11 37  1  0
 11 38  1  0
 16 39  1  0
 17 40  1  0
 19 41  1  0
 20 42  1  0
 21 43  1  0
 21 44  1  0
A    1
 C1 
A    2
 C2 
A    3
 O1 
A    4
 C3 
A    5
 C4 
A    6
 N1 
A    7
 C5 
A    8
 C6 
A    9
 C7 
A   10
 C8 
A   11
 C9 
A   12
 N2 
A   13
 C10
A   14
 O2 
A   15
 C11
A   16
 C12
A   17
 C13
A   18
 N3 
A   19
 C14
A   20
 C15
A   21
 C16
A   22
 N4 
A   23
 N5 
A   24
 H1 
A   25
 H2 
A   26
 H3 
A   27
 H4 
A   28
 H5 
A   29
 H6 
A   30
 H7 
A   31
 H8 
A   32
 H9 
A   33
 H10
A   34
 H11
A   35
 H12
A   36
 H13
A   37
 H14
A   38
 H15
A   39
 H16
A   40
 H17
A   41
 H18
A   42
 H19
A   43
 H20
A   44
 H21
M  END
>  <ref_pdb>  (160) 
x0051_0B

>  <ref_mols>  (160) 
x0051_0B

>  <original SMILES>  (160) 
[H]OC([H])(c1nnn(C([H])([H])C2([H])C([H])([H])N(C(=O)c3c([H])c([H])nc([H])c3[H])C([H])([H])C([H])([H])C2([H])[H])c1[H])C([H])([H])[H]

>  <index>  (160) 
3474.0

>  <∆∆G>  (160) 
-2.227709

>  <comRMSD>  (160) 
0.697267

>  <N_constrained_atoms>  (160) 
21.0

>  <N_unconstrained_atoms>  (160) 
2.0

>  <LE>  (160) 
0.096857

>  <percent_hybrid>  (160) 
39.0

>  <largest_ring>  (160) 
6.0

>  <N_HA>  (160) 
23.0

>  <N_rotatable_bonds>  (160) 
6.0

>  <max_hit_Tanimoto>  (160) 
0.158291

>  <N_interactions_kept>  (160) 
0.5

>  <N_interactions_lost>  (160) 
1.5

>  <interaction_uniqueness_metric>  (160) 
0.12301

>  <N_interactions>  (160) 
7.0

>  <N_PAINS>  (160) 
0.0

>  <UFF_Gibbs>  (160) 
861.448894

>  <strain_per_HA>  (160) 
37.454137

>  <ad_hoc_penalty>  (160) 
-14.501627

>  <cluster>  (160) 
184.0

>  <intxn_cluster>  (160) 
17.0

>  <keep>  (160) 
1.0

>  <hydroph_interaction:GLN:74>  (160) 
0.0

>  <hydroph_interaction:THR:118>  (160) 
0.0

>  <hydroph_interaction:ILE:123>  (160) 
2.0

>  <hydroph_interaction:THR:166>  (160) 
0.0

>  <hbond:GLN:167>  (160) 
2.0

>  <hydroph_interaction:ALA:88>  (160) 
1.0

>  <hydroph_interaction:ASP:120>  (160) 
1.0

>  <hydroph_interaction:GLN:167>  (160) 
0.0

>  <hbond:THR:118>  (160) 
1.0

>  <hydroph_interaction:ALA:164>  (160) 
0.0

>  <hbond:ASP:120>  (160) 
0.0

>  <hbond:THR:166>  (160) 
0.0

>  <hydroph_interaction:LEU:76>  (160) 
0.0

>  <hbond:ILE:165>  (160) 
0.0

>  <halogenbond:GLN:74>  (160) 
0.0

>  <hbond:GLN:74>  (160) 
0.0

>  <hbond:LYS:73>  (160) 
0.0

>  <pistack:TRP:69>  (160) 
0.0

>  <hbond:TRP:83>  (160) 
0.0

>  <hydroph_interaction:TRP:83>  (160) 
0.0

>  <hydroph_interaction:TRP:69>  (160) 
0.0

>  <pication:TRP:69>  (160) 
0.0

>  <hydroph_interaction:PRO:82>  (160) 
0.0

>  <halogenbond:LYS:73>  (160) 
0.0

>  <hydroph_interaction:TYR:68>  (160) 
0.0

>  <halogenbond:GLN:167>  (160) 
0.0

>  <hydroph_interaction:PHE:116>  (160) 
0.0

>  <hbond:TYR:68>  (160) 
0.0

>  <hbond:ASP:122>  (160) 
0.0

>  <pistack:PHE:116>  (160) 
0.0

>  <hydroph_interaction:VAL:154>  (160) 
0.0

>  <hydroph_interaction:ASP:75>  (160) 
0.0

>  <hbond:GLY:121>  (160) 
0.0

>  <hydroph_interaction:ASN:152>  (160) 
0.0

>  <halogenbond:ILE:165>  (160) 
0.0

$$$$
PV-002934643264-Z1318055457-x0806S2
     RDKit          3D

 47 50  0  0  0  0  0  0  0  0999 V2000
  -17.0840  -12.1130  -12.6230 C   0  0  0  0  0  0  0  0  0  0  0  0
  -15.8020  -12.0220  -11.9860 C   0  0  0  0  0  0  0  0  0  0  0  0
  -15.8150  -13.0920  -11.0260 O   0  0  0  0  0  0  0  0  0  0  0  0
  -15.4220  -10.7310  -11.5830 C   0  0  0  0  0  0  0  0  0  0  0  0
  -15.0630  -10.3870  -10.3100 C   0  0  0  0  0  0  0  0  0  0  0  0
  -14.7690   -9.0710  -10.3230 N   0  0  0  0  0  0  0  0  0  0  0  0
  -14.3540   -8.2910   -9.1720 C   0  0  0  0  0  0  0  0  0  0  0  0
  -15.1240   -8.8430   -8.1490 C   0  0  2  0  0  0  0  0  0  0  0  0
  -15.7250   -7.9980   -7.2200 C   0  0  0  0  0  0  0  0  0  0  0  0
  -16.3170   -8.9520   -6.1890 C   0  0  0  0  0  0  0  0  0  0  0  0
  -15.3690  -10.0960   -6.3020 C   0  0  0  0  0  0  0  0  0  0  0  0
  -14.3820   -9.7710   -7.2220 N   0  0  0  0  0  0  0  0  0  0  0  0
  -13.0350   -9.6840   -6.8380 C   0  0  0  0  0  0  0  0  0  0  0  0
  -12.6920   -9.1510   -5.7820 O   0  0  0  0  0  0  0  0  0  0  0  0
  -12.0140  -10.2040   -7.6360 C   0  0  0  0  0  0  0  0  0  0  0  0
  -11.9220  -11.5770   -7.9180 C   0  0  0  0  0  0  0  0  0  0  0  0
  -10.9010  -12.1070   -8.6970 C   0  0  0  0  0  0  0  0  0  0  0  0
   -9.9590  -11.2280   -9.1990 C   0  0  0  0  0  0  0  0  0  0  0  0
  -10.0540   -9.8440   -8.9240 C   0  0  0  0  0  0  0  0  0  0  0  0
   -9.1300   -8.9410   -9.4240 C   0  0  0  0  0  0  0  0  0  0  0  0
   -9.1830   -7.5850   -9.1780 C   0  0  0  0  0  0  0  0  0  0  0  0
  -10.2170   -7.1350   -8.4000 C   0  0  0  0  0  0  0  0  0  0  0  0
  -11.1430   -7.9700   -7.8890 N   0  0  0  0  0  0  0  0  0  0  0  0
  -11.0790   -9.3090   -8.1400 C   0  0  0  0  0  0  0  0  0  0  0  0
  -14.9360   -8.5940  -11.5830 N   0  0  0  0  0  0  0  0  0  0  0  0
  -15.3390   -9.6130  -12.3680 N   0  0  0  0  0  0  0  0  0  0  0  0
  -17.4720  -13.1360  -12.6010 H   0  0  0  0  0  0  0  0  0  0  0  0
  -17.8160  -11.4570  -12.1380 H   0  0  0  0  0  0  0  0  0  0  0  0
  -17.0250  -11.7880  -13.6680 H   0  0  0  0  0  0  0  0  0  0  0  0
  -15.0800  -12.2760  -12.7750 H   0  0  0  0  0  0  0  0  0  0  0  0
  -15.9190  -12.6700  -10.1570 H   0  0  0  0  0  0  0  0  0  0  0  0
  -15.0600  -11.1380   -9.5120 H   0  0  0  0  0  0  0  0  0  0  0  0
  -13.2690   -8.3290   -9.1060 H   0  0  0  0  0  0  0  0  0  0  0  0
  -14.6100   -7.2410   -9.3140 H   0  0  0  0  0  0  0  0  0  0  0  0
  -15.8440   -9.4240   -8.7180 H   0  0  0  0  0  0  0  0  0  0  0  0
  -15.0330   -7.2730   -6.8100 H   0  0  0  0  0  0  0  0  0  0  0  0
  -16.4610   -7.3280   -7.6460 H   0  0  0  0  0  0  0  0  0  0  0  0
  -17.3770   -9.1770   -6.2530 H   0  0  0  0  0  0  0  0  0  0  0  0
  -16.1660   -8.4810   -5.2110 H   0  0  0  0  0  0  0  0  0  0  0  0
  -15.8840  -11.0260   -6.5730 H   0  0  0  0  0  0  0  0  0  0  0  0
  -14.8730  -10.2870   -5.3420 H   0  0  0  0  0  0  0  0  0  0  0  0
  -12.7240  -12.1730   -7.4630 H   0  0  0  0  0  0  0  0  0  0  0  0
  -10.8420  -13.1750   -8.9050 H   0  0  0  0  0  0  0  0  0  0  0  0
   -9.1470  -11.6230   -9.8110 H   0  0  0  0  0  0  0  0  0  0  0  0
   -8.3300   -9.3000  -10.0300 H   0  0  0  0  0  0  0  0  0  0  0  0
   -8.4410   -6.9050   -9.5820 H   0  0  0  0  0  0  0  0  0  0  0  0
  -10.3370   -6.0830   -8.1560 H   0  0  0  0  0  0  0  0  0  0  0  0
  1  2  1  0
  2  3  1  0
  2  4  1  0
  4  5  2  0
  5  6  1  0
  6  7  1  0
  7  8  1  0
  8  9  1  0
  9 10  1  0
 10 11  1  0
 11 12  1  0
 12 13  1  0
 13 14  2  0
 13 15  1  0
 15 16  2  0
 16 17  1  0
 17 18  2  0
 18 19  1  0
 19 20  2  0
 20 21  1  0
 21 22  2  0
 22 23  1  0
 23 24  2  0
  6 25  1  0
 25 26  2  0
 26  4  1  0
 12  8  1  0
 24 15  1  0
 24 19  1  0
  1 27  1  0
  1 28  1  0
  1 29  1  0
  2 30  1  0
  3 31  1  0
  5 32  1  0
  7 33  1  0
  7 34  1  0
  8 35  1  6
  9 36  1  0
  9 37  1  0
 10 38  1  0
 10 39  1  0
 11 40  1  0
 11 41  1  0
 16 42  1  0
 17 43  1  0
 18 44  1  0
 20 45  1  0
 21 46  1  0
 22 47  1  0
A    1
 C1 
A    2
 C2 
A    3
 O1 
A    4
 C3 
A    5
 C4 
A    6
 N1 
A    7
 C5 
A    8
 C6 
A    9
 C7 
A   10
 C8 
A   11
 C9 
A   12
 N2 
A   13
 C10
A   14
 O2 
A   15
 C11
A   16
 C12
A   17
 C13
A   18
 C14
A   19
 C15
A   20
 C16
A   21
 C17
A   22
 C18
A   23
 N3 
A   24
 C19
A   25
 N4 
A   26
 N5 
A   27
 H1 
A   28
 H2 
A   29
 H3 
A   30
 H4 
A   31
 H5 
A   32
 H6 
A   33
 H7 
A   34
 H8 
A   35
 H9 
A   36
 H10
A   37
 H11
A   38
 H12
A   39
 H13
A   40
 H14
A   41
 H15
A   42
 H16
A   43
 H17
A   44
 H18
A   45
 H19
A   46
 H20
A   47
 H21
M  END
>  <ref_pdb>  (161) 
x0051_0B

>  <ref_mols>  (161) 
x0051_0B

>  <original SMILES>  (161) 
[H]OC([H])(c1nnn(C([H])([H])[C@@]2([H])N(C(=O)c3c([H])c([H])c([H])c4c([H])c([H])c([H])nc34)C([H])([H])C([H])([H])C2([H])[H])c1[H])C([H])([H])[H]

>  <index>  (161) 
9192.0

>  <∆∆G>  (161) 
-3.297761

>  <comRMSD>  (161) 
0.799609

>  <N_constrained_atoms>  (161) 
27.0

>  <N_unconstrained_atoms>  (161) 
1.0

>  <LE>  (161) 
0.117777

>  <percent_hybrid>  (161) 
30.0

>  <largest_ring>  (161) 
6.0

>  <N_HA>  (161) 
26.0

>  <N_rotatable_bonds>  (161) 
6.0

>  <max_hit_Tanimoto>  (161) 
0.258698

>  <N_interactions_kept>  (161) 
0.0

>  <N_interactions_lost>  (161) 
2.0

>  <interaction_uniqueness_metric>  (161) 
0.121281

>  <N_interactions>  (161) 
7.0

>  <N_PAINS>  (161) 
0.0

>  <UFF_Gibbs>  (161) 
159.196565

>  <strain_per_HA>  (161) 
6.122921

>  <ad_hoc_penalty>  (161) 
-14.477604

>  <cluster>  (161) 
990.0

>  <intxn_cluster>  (161) 
14.0

>  <keep>  (161) 
1.0

>  <hydroph_interaction:GLN:74>  (161) 
1.0

>  <hydroph_interaction:THR:118>  (161) 
1.0

>  <hydroph_interaction:ILE:123>  (161) 
2.0

>  <hydroph_interaction:THR:166>  (161) 
0.0

>  <hbond:GLN:167>  (161) 
2.0

>  <hydroph_interaction:ALA:88>  (161) 
1.0

>  <hydroph_interaction:ASP:120>  (161) 
0.0

>  <hydroph_interaction:GLN:167>  (161) 
0.0

>  <hbond:THR:118>  (161) 
0.0

>  <hydroph_interaction:ALA:164>  (161) 
0.0

>  <hbond:ASP:120>  (161) 
0.0

>  <hbond:THR:166>  (161) 
0.0

>  <hydroph_interaction:LEU:76>  (161) 
0.0

>  <hbond:ILE:165>  (161) 
0.0

>  <halogenbond:GLN:74>  (161) 
0.0

>  <hbond:GLN:74>  (161) 
0.0

>  <hbond:LYS:73>  (161) 
0.0

>  <pistack:TRP:69>  (161) 
0.0

>  <hbond:TRP:83>  (161) 
0.0

>  <hydroph_interaction:TRP:83>  (161) 
0.0

>  <hydroph_interaction:TRP:69>  (161) 
0.0

>  <pication:TRP:69>  (161) 
0.0

>  <hydroph_interaction:PRO:82>  (161) 
0.0

>  <halogenbond:LYS:73>  (161) 
0.0

>  <hydroph_interaction:TYR:68>  (161) 
0.0

>  <halogenbond:GLN:167>  (161) 
0.0

>  <hydroph_interaction:PHE:116>  (161) 
0.0

>  <hbond:TYR:68>  (161) 
0.0

>  <hbond:ASP:122>  (161) 
0.0

>  <pistack:PHE:116>  (161) 
0.0

>  <hydroph_interaction:VAL:154>  (161) 
0.0

>  <hydroph_interaction:ASP:75>  (161) 
0.0

>  <hbond:GLY:121>  (161) 
0.0

>  <hydroph_interaction:ASN:152>  (161) 
0.0

>  <halogenbond:ILE:165>  (161) 
0.0

$$$$
PV-004494432198-Z1318055457S2-x0806
     RDKit          3D

 51 54  0  0  0  0  0  0  0  0999 V2000
  -17.0970  -11.0310  -13.8100 C   0  0  0  0  0  0  0  0  0  0  0  0
  -17.1580  -12.1260  -12.7420 C   0  0  0  0  0  0  0  0  0  0  0  0
  -18.5390  -12.4090  -12.5070 O   0  0  0  0  0  0  0  0  0  0  0  0
  -16.4970  -11.7950  -11.3950 C   0  0  0  0  0  0  0  0  0  0  0  0
  -15.8510  -10.4480  -11.2790 C   0  0  0  0  0  0  0  0  0  0  0  0
  -15.4510   -9.7910  -10.1340 C   0  0  0  0  0  0  0  0  0  0  0  0
  -14.8970   -8.6040  -10.5510 N   0  0  0  0  0  0  0  0  0  0  0  0
  -14.2860   -7.5950   -9.7340 C   0  0  0  0  0  0  0  0  0  0  0  0
  -14.5000   -6.2140   -9.6490 C   0  0  0  0  0  0  0  0  0  0  0  0
  -13.7670   -5.3980   -8.8060 C   0  0  0  0  0  0  0  0  0  0  0  0
  -12.7950   -5.9190   -8.0120 C   0  0  0  0  0  0  0  0  0  0  0  0
  -12.5960   -7.2710   -8.0740 C   0  0  0  0  0  0  0  0  0  0  0  0
  -13.3280   -8.0980   -8.9050 C   0  0  0  0  0  0  0  0  0  0  0  0
  -13.1250   -9.4520   -8.9000 C   0  0  0  0  0  0  0  0  0  0  0  0
  -13.6560   -9.9850   -7.6600 N   0  0  0  0  0  0  0  0  0  0  0  0
  -12.7010  -10.4330   -6.8340 C   0  0  0  0  0  0  0  0  0  0  0  0
  -12.7280  -10.5970   -5.6200 O   0  0  0  0  0  0  0  0  0  0  0  0
  -11.6180  -10.6960   -7.6490 C   0  0  0  0  0  0  0  0  0  0  0  0
  -11.3830  -12.0260   -7.9960 C   0  0  0  0  0  0  0  0  0  0  0  0
  -10.3310  -12.3470   -8.8250 C   0  0  0  0  0  0  0  0  0  0  0  0
   -9.4560  -11.2080   -9.3330 C   0  0  0  0  0  0  0  0  0  0  0  0
   -9.7430   -9.8830   -8.9560 C   0  0  0  0  0  0  0  0  0  0  0  0
   -8.9260   -8.7210   -9.4340 C   0  0  0  0  0  0  0  0  0  0  0  0
   -9.1660   -7.4190   -9.0990 C   0  0  0  0  0  0  0  0  0  0  0  0
  -10.2350   -7.1700   -8.2570 C   0  0  0  0  0  0  0  0  0  0  0  0
  -11.0300   -8.2370   -7.7810 C   0  0  0  0  0  0  0  0  0  0  0  0
  -10.8140   -9.6070   -8.1150 C   0  0  0  0  0  0  0  0  0  0  0  0
  -14.9780   -8.5500  -11.9030 N   0  0  0  0  0  0  0  0  0  0  0  0
  -15.5530   -9.6650  -12.3530 N   0  0  0  0  0  0  0  0  0  0  0  0
  -18.0540  -10.4980  -13.8760 H   0  0  0  0  0  0  0  0  0  0  0  0
  -16.3040  -10.3040  -13.6070 H   0  0  0  0  0  0  0  0  0  0  0  0
  -16.8900  -11.4790  -14.7900 H   0  0  0  0  0  0  0  0  0  0  0  0
  -16.7130  -13.0390  -13.1530 H   0  0  0  0  0  0  0  0  0  0  0  0
  -18.8870  -11.6150  -12.0400 H   0  0  0  0  0  0  0  0  0  0  0  0
  -17.2610  -11.8750  -10.6100 H   0  0  0  0  0  0  0  0  0  0  0  0
  -15.7290  -12.5440  -11.1670 H   0  0  0  0  0  0  0  0  0  0  0  0
  -15.5100  -10.0830   -9.0990 H   0  0  0  0  0  0  0  0  0  0  0  0
  -15.2220   -5.6920  -10.2130 H   0  0  0  0  0  0  0  0  0  0  0  0
  -13.9670   -4.3310   -8.7800 H   0  0  0  0  0  0  0  0  0  0  0  0
  -12.2190   -5.2730   -7.3550 H   0  0  0  0  0  0  0  0  0  0  0  0
  -11.8370   -7.7110   -7.4350 H   0  0  0  0  0  0  0  0  0  0  0  0
  -12.0680   -9.7000   -8.9960 H   0  0  0  0  0  0  0  0  0  0  0  0
  -13.6290   -9.9470   -9.7350 H   0  0  0  0  0  0  0  0  0  0  0  0
  -14.4830   -9.5450   -7.2730 H   0  0  0  0  0  0  0  0  0  0  0  0
  -12.0300  -12.8120   -7.6160 H   0  0  0  0  0  0  0  0  0  0  0  0
  -10.1310  -13.3810   -9.1070 H   0  0  0  0  0  0  0  0  0  0  0  0
   -8.6190  -11.4380   -9.9910 H   0  0  0  0  0  0  0  0  0  0  0  0
   -8.1070   -8.9820  -10.0790 H   0  0  0  0  0  0  0  0  0  0  0  0
   -8.5400   -6.6140   -9.4760 H   0  0  0  0  0  0  0  0  0  0  0  0
  -10.4630   -6.1500   -7.9590 H   0  0  0  0  0  0  0  0  0  0  0  0
  -11.8560   -7.9760   -7.1200 H   0  0  0  0  0  0  0  0  0  0  0  0
  1  2  1  0
  2  3  1  0
  2  4  1  0
  4  5  1  0
  5  6  2  0
  6  7  1  0
  7  8  1  0
  8  9  2  0
  9 10  1  0
 10 11  2  0
 11 12  1  0
 12 13  2  0
 13 14  1  0
 14 15  1  0
 15 16  1  0
 16 17  2  0
 16 18  1  0
 18 19  2  0
 19 20  1  0
 20 21  2  0
 21 22  1  0
 22 23  2  0
 23 24  1  0
 24 25  2  0
 25 26  1  0
 26 27  2  0
  7 28  1  0
 28 29  2  0
 29  5  1  0
 13  8  1  0
 27 18  1  0
 27 22  1  0
  1 30  1  0
  1 31  1  0
  1 32  1  0
  2 33  1  0
  3 34  1  0
  4 35  1  0
  4 36  1  0
  6 37  1  0
  9 38  1  0
 10 39  1  0
 11 40  1  0
 12 41  1  0
 14 42  1  0
 14 43  1  0
 15 44  1  0
 19 45  1  0
 20 46  1  0
 21 47  1  0
 23 48  1  0
 24 49  1  0
 25 50  1  0
 26 51  1  0
A    1
 C1 
A    2
 C2 
A    3
 O1 
A    4
 C3 
A    5
 C4 
A    6
 C5 
A    7
 N1 
A    8
 C6 
A    9
 C7 
A   10
 C8 
A   11
 C9 
A   12
 C10
A   13
 C11
A   14
 C12
A   15
 N2 
A   16
 C13
A   17
 O2 
A   18
 C14
A   19
 C15
A   20
 C16
A   21
 C17
A   22
 C18
A   23
 C19
A   24
 C20
A   25
 C21
A   26
 C22
A   27
 C23
A   28
 N3 
A   29
 N4 
A   30
 H1 
A   31
 H2 
A   32
 H3 
A   33
 H4 
A   34
 H5 
A   35
 H6 
A   36
 H7 
A   37
 H8 
A   38
 H9 
A   39
 H10
A   40
 H11
A   41
 H12
A   42
 H13
A   43
 H14
A   44
 H15
A   45
 H16
A   46
 H17
A   47
 H18
A   48
 H19
A   49
 H20
A   50
 H21
A   51
 H22
M  END
>  <ref_pdb>  (162) 
x0051_0B

>  <ref_mols>  (162) 
x0051_0B

>  <original SMILES>  (162) 
[H]OC([H])(C([H])([H])[H])C([H])([H])c1nnn(-c2c([H])c([H])c([H])c([H])c2C([H])([H])N([H])C(=O)c2c([H])c([H])c([H])c3c([H])c([H])c([H])c([H])c23)c1[H]

>  <index>  (162) 
453.0

>  <∆∆G>  (162) 
-3.712284

>  <comRMSD>  (162) 
0.963499

>  <N_constrained_atoms>  (162) 
25.0

>  <N_unconstrained_atoms>  (162) 
5.0

>  <LE>  (162) 
0.123743

>  <percent_hybrid>  (162) 
44.0

>  <largest_ring>  (162) 
6.0

>  <N_HA>  (162) 
29.0

>  <N_rotatable_bonds>  (162) 
8.0

>  <max_hit_Tanimoto>  (162) 
0.441648

>  <N_interactions_kept>  (162) 
0.5

>  <N_interactions_lost>  (162) 
2.5

>  <interaction_uniqueness_metric>  (162) 
0.199666

>  <N_interactions>  (162) 
9.0

>  <N_PAINS>  (162) 
0.0

>  <UFF_Gibbs>  (162) 
612743149.093934

>  <strain_per_HA>  (162) 
21129001.248062

>  <ad_hoc_penalty>  (162) 
-14.071828

>  <cluster>  (162) 
13.0

>  <intxn_cluster>  (162) 
14.0

>  <keep>  (162) 
1.0

>  <hydroph_interaction:GLN:74>  (162) 
0.0

>  <hydroph_interaction:THR:118>  (162) 
1.0

>  <hydroph_interaction:ILE:123>  (162) 
3.0

>  <hydroph_interaction:THR:166>  (162) 
1.0

>  <hbond:GLN:167>  (162) 
2.0

>  <hydroph_interaction:ALA:88>  (162) 
1.0

>  <hydroph_interaction:ASP:120>  (162) 
0.0

>  <hydroph_interaction:GLN:167>  (162) 
1.0

>  <hbond:THR:118>  (162) 
0.0

>  <hydroph_interaction:ALA:164>  (162) 
0.0

>  <hbond:ASP:120>  (162) 
0.0

>  <hbond:THR:166>  (162) 
0.0

>  <hydroph_interaction:LEU:76>  (162) 
0.0

>  <hbond:ILE:165>  (162) 
0.0

>  <halogenbond:GLN:74>  (162) 
0.0

>  <hbond:GLN:74>  (162) 
0.0

>  <hbond:LYS:73>  (162) 
0.0

>  <pistack:TRP:69>  (162) 
0.0

>  <hbond:TRP:83>  (162) 
0.0

>  <hydroph_interaction:TRP:83>  (162) 
0.0

>  <hydroph_interaction:TRP:69>  (162) 
0.0

>  <pication:TRP:69>  (162) 
0.0

>  <hydroph_interaction:PRO:82>  (162) 
0.0

>  <halogenbond:LYS:73>  (162) 
0.0

>  <hydroph_interaction:TYR:68>  (162) 
0.0

>  <halogenbond:GLN:167>  (162) 
0.0

>  <hydroph_interaction:PHE:116>  (162) 
0.0

>  <hbond:TYR:68>  (162) 
0.0

>  <hbond:ASP:122>  (162) 
0.0

>  <pistack:PHE:116>  (162) 
0.0

>  <hydroph_interaction:VAL:154>  (162) 
0.0

>  <hydroph_interaction:ASP:75>  (162) 
0.0

>  <hbond:GLY:121>  (162) 
0.0

>  <hydroph_interaction:ASN:152>  (162) 
0.0

>  <halogenbond:ILE:165>  (162) 
0.0

$$$$
PV-003331406107-x0806S2-Z1318055457S2
     RDKit          3D

 38 40  0  0  0  0  0  0  0  0999 V2000
  -17.0680  -12.2100  -12.8080 C   0  0  0  0  0  0  0  0  0  0  0  0
  -16.2330  -11.9650  -11.5770 C   0  0  0  0  0  0  0  0  0  0  0  0
  -15.6900  -10.6970  -11.3690 C   0  0  0  0  0  0  0  0  0  0  0  0
  -15.5250   -9.6350  -12.4630 C   0  0  0  0  0  0  0  0  0  0  0  0
  -14.9760   -8.5430  -11.8860 O   0  0  0  0  0  0  0  0  0  0  0  0
  -14.7540   -8.7690  -10.5320 N   0  0  0  0  0  0  0  0  0  0  0  0
  -15.1670  -10.0180  -10.2370 C   0  0  0  0  0  0  0  0  0  0  0  0
  -15.0010  -10.4530   -8.7750 C   0  0  0  0  0  0  0  0  0  0  0  0
  -14.2760   -9.6250   -7.8810 N   0  0  0  0  0  0  0  0  0  0  0  0
  -13.2360   -9.9620   -7.0410 C   0  0  0  0  0  0  0  0  0  0  0  0
  -12.1110  -10.3740   -7.7570 C   0  0  0  0  0  0  0  0  0  0  0  0
  -11.9440  -11.9000   -8.0230 C   0  0  0  0  0  0  0  0  0  0  0  0
  -10.6820  -12.2940   -8.8060 C   0  0  0  0  0  0  0  0  0  0  0  0
   -9.7130  -11.2440   -9.2580 C   0  0  0  0  0  0  0  0  0  0  0  0
  -10.0140   -9.7690   -8.9290 C   0  0  0  0  0  0  0  0  0  0  0  0
   -8.9980   -8.7360   -9.4270 C   0  0  0  0  0  0  0  0  0  0  0  0
   -9.2510   -7.2840   -9.1270 C   0  0  0  0  0  0  0  0  0  0  0  0
  -10.3780   -6.9350   -8.4250 C   0  0  0  0  0  0  0  0  0  0  0  0
  -11.3550   -8.0060   -7.9580 C   0  0  0  0  0  0  0  0  0  0  0  0
  -11.1700   -9.3880   -8.2090 C   0  0  0  0  0  0  0  0  0  0  0  0
  -17.5450  -13.1920  -12.7320 H   0  0  0  0  0  0  0  0  0  0  0  0
  -17.8370  -11.4350  -12.8850 H   0  0  0  0  0  0  0  0  0  0  0  0
  -16.4540  -12.2040  -13.7150 H   0  0  0  0  0  0  0  0  0  0  0  0
  -15.3870  -12.6620  -11.6330 H   0  0  0  0  0  0  0  0  0  0  0  0
  -16.8140  -12.2460  -10.6900 H   0  0  0  0  0  0  0  0  0  0  0  0
  -15.7410   -9.5630  -13.5370 H   0  0  0  0  0  0  0  0  0  0  0  0
  -16.0040  -10.5530   -8.3480 H   0  0  0  0  0  0  0  0  0  0  0  0
  -14.5780  -11.4620   -8.7360 H   0  0  0  0  0  0  0  0  0  0  0  0
  -14.9610   -9.0800   -7.3480 H   0  0  0  0  0  0  0  0  0  0  0  0
  -12.9670   -9.0920   -6.4260 H   0  0  0  0  0  0  0  0  0  0  0  0
  -13.5070  -10.7450   -6.3270 H   0  0  0  0  0  0  0  0  0  0  0  0
  -12.6650  -12.6440   -7.6820 H   0  0  0  0  0  0  0  0  0  0  0  0
  -10.5510  -13.3650   -9.0020 H   0  0  0  0  0  0  0  0  0  0  0  0
   -8.7920  -11.4350   -9.8190 H   0  0  0  0  0  0  0  0  0  0  0  0
   -8.1230   -9.0070   -9.9790 H   0  0  0  0  0  0  0  0  0  0  0  0
   -8.5560   -6.5200   -9.4630 H   0  0  0  0  0  0  0  0  0  0  0  0
  -10.5780   -5.8900   -8.2000 H   0  0  0  0  0  0  0  0  0  0  0  0
  -12.2270   -7.6580   -7.4070 H   0  0  0  0  0  0  0  0  0  0  0  0
  1  2  1  0
  2  3  1  0
  3  4  2  0
  4  5  1  0
  5  6  1  0
  6  7  2  0
  7  8  1  0
  8  9  1  0
  9 10  1  0
 10 11  1  0
 11 12  2  0
 12 13  1  0
 13 14  2  0
 14 15  1  0
 15 16  2  0
 16 17  1  0
 17 18  2  0
 18 19  1  0
 19 20  2  0
  7  3  1  0
 20 11  1  0
 20 15  1  0
  1 21  1  0
  1 22  1  0
  1 23  1  0
  2 24  1  0
  2 25  1  0
  4 26  1  0
  8 27  1  0
  8 28  1  0
  9 29  1  0
 10 30  1  0
 10 31  1  0
 12 32  1  0
 13 33  1  0
 14 34  1  0
 16 35  1  0
 17 36  1  0
 18 37  1  0
 19 38  1  0
A    1
 C1 
A    2
 C2 
A    3
 C3 
A    4
 C4 
A    5
 O1 
A    6
 N1 
A    7
 C5 
A    8
 C6 
A    9
 N2 
A   10
 C7 
A   11
 C8 
A   12
 C9 
A   13
 C10
A   14
 C11
A   15
 C12
A   16
 C13
A   17
 C14
A   18
 C15
A   19
 C16
A   20
 C17
A   21
 H1 
A   22
 H2 
A   23
 H3 
A   24
 H4 
A   25
 H5 
A   26
 H6 
A   27
 H7 
A   28
 H8 
A   29
 H9 
A   30
 H10
A   31
 H11
A   32
 H12
A   33
 H13
A   34
 H14
A   35
 H15
A   36
 H16
A   37
 H17
A   38
 H18
M  END
>  <ref_pdb>  (163) 
x0051_0B

>  <ref_mols>  (163) 
x0051_0B

>  <original SMILES>  (163) 
[H]c1onc(C([H])([H])N([H])C([H])([H])c2c([H])c([H])c([H])c3c([H])c([H])c([H])c([H])c23)c1C([H])([H])C([H])([H])[H]

>  <index>  (163) 
5961.0

>  <∆∆G>  (163) 
-3.894467

>  <comRMSD>  (163) 
0.582142

>  <N_constrained_atoms>  (163) 
19.0

>  <N_unconstrained_atoms>  (163) 
2.0

>  <LE>  (163) 
0.185451

>  <percent_hybrid>  (163) 
43.0

>  <largest_ring>  (163) 
6.0

>  <N_HA>  (163) 
20.0

>  <N_rotatable_bonds>  (163) 
6.0

>  <max_hit_Tanimoto>  (163) 
0.241935

>  <N_interactions_kept>  (163) 
0.5

>  <N_interactions_lost>  (163) 
1.5

>  <interaction_uniqueness_metric>  (163) 
0.079277

>  <N_interactions>  (163) 
6.0

>  <N_PAINS>  (163) 
0.0

>  <UFF_Gibbs>  (163) 
140.108345

>  <strain_per_HA>  (163) 
7.005382

>  <ad_hoc_penalty>  (163) 
-13.310873

>  <cluster>  (163) 
3680.0

>  <intxn_cluster>  (163) 
17.0

>  <keep>  (163) 
1.0

>  <hydroph_interaction:GLN:74>  (163) 
0.0

>  <hydroph_interaction:THR:118>  (163) 
0.0

>  <hydroph_interaction:ILE:123>  (163) 
3.0

>  <hydroph_interaction:THR:166>  (163) 
0.0

>  <hbond:GLN:167>  (163) 
2.0

>  <hydroph_interaction:ALA:88>  (163) 
1.0

>  <hydroph_interaction:ASP:120>  (163) 
0.0

>  <hydroph_interaction:GLN:167>  (163) 
0.0

>  <hbond:THR:118>  (163) 
0.0

>  <hydroph_interaction:ALA:164>  (163) 
0.0

>  <hbond:ASP:120>  (163) 
0.0

>  <hbond:THR:166>  (163) 
0.0

>  <hydroph_interaction:LEU:76>  (163) 
0.0

>  <hbond:ILE:165>  (163) 
0.0

>  <halogenbond:GLN:74>  (163) 
0.0

>  <hbond:GLN:74>  (163) 
0.0

>  <hbond:LYS:73>  (163) 
0.0

>  <pistack:TRP:69>  (163) 
0.0

>  <hbond:TRP:83>  (163) 
0.0

>  <hydroph_interaction:TRP:83>  (163) 
0.0

>  <hydroph_interaction:TRP:69>  (163) 
0.0

>  <pication:TRP:69>  (163) 
0.0

>  <hydroph_interaction:PRO:82>  (163) 
0.0

>  <halogenbond:LYS:73>  (163) 
0.0

>  <hydroph_interaction:TYR:68>  (163) 
0.0

>  <halogenbond:GLN:167>  (163) 
0.0

>  <hydroph_interaction:PHE:116>  (163) 
0.0

>  <hbond:TYR:68>  (163) 
0.0

>  <hbond:ASP:122>  (163) 
0.0

>  <pistack:PHE:116>  (163) 
0.0

>  <hydroph_interaction:VAL:154>  (163) 
0.0

>  <hydroph_interaction:ASP:75>  (163) 
0.0

>  <hbond:GLY:121>  (163) 
0.0

>  <hydroph_interaction:ASN:152>  (163) 
0.0

>  <halogenbond:ILE:165>  (163) 
0.0

$$$$
Z4117255293-x0182S2-x0214S2
     RDKit          3D

 44 46  0  0  0  0  0  0  0  0999 V2000
  -12.5340  -14.6800   -9.5660 N   0  0  0  0  0  0  0  0  0  0  0  0
  -13.3990  -13.6300   -9.4090 C   0  0  0  0  0  0  0  0  0  0  0  0
  -13.8820  -13.0670  -10.3840 O   0  0  0  0  0  0  0  0  0  0  0  0
  -13.6980  -13.2950   -7.9660 C   0  0  1  0  0  0  0  0  0  0  0  0
  -12.6080  -13.4380   -6.9430 C   0  0  0  0  0  0  0  0  0  0  0  0
  -12.9710  -13.2420   -5.6700 C   0  0  0  0  0  0  0  0  0  0  0  0
  -14.3640  -12.7940   -5.5890 C   0  0  0  0  0  0  0  0  0  0  0  0
  -14.4730  -11.5910   -6.3940 N   0  0  0  0  0  0  0  0  0  0  0  0
  -13.7650  -10.5360   -5.8400 C   0  0  0  0  0  0  0  0  0  0  0  0
  -13.7610  -10.3900   -4.6160 O   0  0  0  0  0  0  0  0  0  0  0  0
  -13.0750   -9.6530   -6.6460 N   0  0  0  0  0  0  0  0  0  0  0  0
  -12.3400   -8.6850   -5.8350 C   0  0  0  0  0  0  0  0  0  0  0  0
  -13.4540   -7.9490   -5.4350 C   0  0  0  0  0  0  0  0  0  0  0  0
  -14.4930   -8.1570   -6.3430 C   0  0  0  0  0  0  0  0  0  0  0  0
  -13.9950   -8.8260   -7.4360 C   0  0  0  0  0  0  0  0  0  0  0  0
  -13.4400   -7.9850   -8.4080 C   0  0  0  0  0  0  0  0  0  0  0  0
  -12.7250   -6.7190   -7.9090 C   0  0  0  0  0  0  0  0  0  0  0  0
  -12.1450   -5.8110   -8.9770 C   0  0  0  0  0  0  0  0  0  0  0  0
  -12.3720   -6.3120  -10.3880 C   0  0  0  0  0  0  0  0  0  0  0  0
  -13.0120   -7.4360  -10.7550 N   0  0  0  0  0  0  0  0  0  0  0  0
  -13.5180   -8.2290   -9.7810 C   0  0  0  0  0  0  0  0  0  0  0  0
  -14.2550  -11.8530   -7.8190 C   0  0  0  0  0  0  0  0  0  0  0  0
  -12.0480  -14.9770   -8.7280 H   0  0  0  0  0  0  0  0  0  0  0  0
  -12.8610  -15.4040  -10.2000 H   0  0  0  0  0  0  0  0  0  0  0  0
  -14.4940  -13.9910   -7.6710 H   0  0  0  0  0  0  0  0  0  0  0  0
  -12.3010  -14.4910   -6.9810 H   0  0  0  0  0  0  0  0  0  0  0  0
  -11.6670  -12.9510   -7.1850 H   0  0  0  0  0  0  0  0  0  0  0  0
  -12.7640  -14.1160   -5.0590 H   0  0  0  0  0  0  0  0  0  0  0  0
  -12.3550  -12.5140   -5.1450 H   0  0  0  0  0  0  0  0  0  0  0  0
  -14.6190  -12.5520   -4.5690 H   0  0  0  0  0  0  0  0  0  0  0  0
  -15.0290  -13.6020   -5.9260 H   0  0  0  0  0  0  0  0  0  0  0  0
  -11.7640   -9.2500   -5.0910 H   0  0  0  0  0  0  0  0  0  0  0  0
  -11.6540   -8.0830   -6.4370 H   0  0  0  0  0  0  0  0  0  0  0  0
  -13.2100   -6.8880   -5.3300 H   0  0  0  0  0  0  0  0  0  0  0  0
  -13.7780   -8.3020   -4.4490 H   0  0  0  0  0  0  0  0  0  0  0  0
  -15.2790   -8.7390   -5.8470 H   0  0  0  0  0  0  0  0  0  0  0  0
  -14.9530   -7.2200   -6.6630 H   0  0  0  0  0  0  0  0  0  0  0  0
  -14.7760   -9.4710   -7.8570 H   0  0  0  0  0  0  0  0  0  0  0  0
  -12.6370   -6.4750   -6.8530 H   0  0  0  0  0  0  0  0  0  0  0  0
  -11.6200   -4.8910   -8.7530 H   0  0  0  0  0  0  0  0  0  0  0  0
  -11.9520   -5.6540  -11.1580 H   0  0  0  0  0  0  0  0  0  0  0  0
  -14.0230   -9.1240  -10.1650 H   0  0  0  0  0  0  0  0  0  0  0  0
  -13.5450  -11.1110   -8.2080 H   0  0  0  0  0  0  0  0  0  0  0  0
  -15.1940  -11.7220   -8.3750 H   0  0  0  0  0  0  0  0  0  0  0  0
  1  2  1  0
  2  3  2  0
  2  4  1  0
  4  5  1  0
  5  6  1  0
  6  7  1  0
  7  8  1  0
  8  9  1  0
  9 10  2  0
  9 11  1  0
 11 12  1  0
 12 13  1  0
 13 14  1  0
 14 15  1  0
 15 16  1  0
 16 17  2  0
 17 18  1  0
 18 19  2  0
 19 20  1  0
 20 21  2  0
  8 22  1  0
 22  4  1  0
 15 11  1  0
 21 16  1  0
  1 23  1  0
  1 24  1  0
  4 25  1  1
  5 26  1  0
  5 27  1  0
  6 28  1  0
  6 29  1  0
  7 30  1  0
  7 31  1  0
 12 32  1  0
 12 33  1  0
 13 34  1  0
 13 35  1  0
 14 36  1  0
 14 37  1  0
 15 38  1  0
 17 39  1  0
 18 40  1  0
 19 41  1  0
 21 42  1  0
 22 43  1  0
 22 44  1  0
A    1
 N1 
A    2
 C1 
A    3
 O1 
A    4
 C2 
A    5
 C3 
A    6
 C4 
A    7
 C5 
A    8
 N2 
A    9
 C6 
A   10
 O2 
A   11
 N3 
A   12
 C7 
A   13
 C8 
A   14
 C9 
A   15
 C10
A   16
 C11
A   17
 C12
A   18
 C13
A   19
 C14
A   20
 N4 
A   21
 C15
A   22
 C16
A   23
 H1 
A   24
 H2 
A   25
 H3 
A   26
 H4 
A   27
 H5 
A   28
 H6 
A   29
 H7 
A   30
 H8 
A   31
 H9 
A   32
 H10
A   33
 H11
A   34
 H12
A   35
 H13
A   36
 H14
A   37
 H15
A   38
 H16
A   39
 H17
A   40
 H18
A   41
 H19
A   42
 H20
A   43
 H21
A   44
 H22
M  END
>  <ref_pdb>  (164) 
x0051_0B

>  <ref_mols>  (164) 
x0051_0B

>  <original SMILES>  (164) 
[H]c1nc([H])c(C2([H])N(C(=O)N3C([H])([H])C([H])([H])C([H])([H])[C@]([H])(C(=O)N([H])[H])C3([H])[H])C([H])([H])C([H])([H])C2([H])[H])c([H])c1[H]

>  <index>  (164) 
6725.0

>  <∆∆G>  (164) 
-2.802946

>  <comRMSD>  (164) 
0.53868

>  <N_constrained_atoms>  (164) 
20.0

>  <N_unconstrained_atoms>  (164) 
2.0

>  <LE>  (164) 
0.127407

>  <percent_hybrid>  (164) 
45.0

>  <largest_ring>  (164) 
6.0

>  <N_HA>  (164) 
22.0

>  <N_rotatable_bonds>  (164) 
2.0

>  <max_hit_Tanimoto>  (164) 
0.222844

>  <N_interactions_kept>  (164) 
0.0

>  <N_interactions_lost>  (164) 
1.5

>  <interaction_uniqueness_metric>  (164) 
0.125753

>  <N_interactions>  (164) 
4.0

>  <N_PAINS>  (164) 
0.0

>  <UFF_Gibbs>  (164) 
300.874639

>  <strain_per_HA>  (164) 
13.676058

>  <ad_hoc_penalty>  (164) 
-13.146749

>  <cluster>  (164) 
3340.0

>  <intxn_cluster>  (164) 
5.0

>  <keep>  (164) 
1.0

>  <hydroph_interaction:GLN:74>  (164) 
1.0

>  <hydroph_interaction:THR:118>  (164) 
0.0

>  <hydroph_interaction:ILE:123>  (164) 
0.0

>  <hydroph_interaction:THR:166>  (164) 
1.0

>  <hbond:GLN:167>  (164) 
0.0

>  <hydroph_interaction:ALA:88>  (164) 
0.0

>  <hydroph_interaction:ASP:120>  (164) 
1.0

>  <hydroph_interaction:GLN:167>  (164) 
0.0

>  <hbond:THR:118>  (164) 
0.0

>  <hydroph_interaction:ALA:164>  (164) 
0.0

>  <hbond:ASP:120>  (164) 
1.0

>  <hbond:THR:166>  (164) 
0.0

>  <hydroph_interaction:LEU:76>  (164) 
0.0

>  <hbond:ILE:165>  (164) 
0.0

>  <halogenbond:GLN:74>  (164) 
0.0

>  <hbond:GLN:74>  (164) 
0.0

>  <hbond:LYS:73>  (164) 
0.0

>  <pistack:TRP:69>  (164) 
0.0

>  <hbond:TRP:83>  (164) 
0.0

>  <hydroph_interaction:TRP:83>  (164) 
0.0

>  <hydroph_interaction:TRP:69>  (164) 
0.0

>  <pication:TRP:69>  (164) 
0.0

>  <hydroph_interaction:PRO:82>  (164) 
0.0

>  <halogenbond:LYS:73>  (164) 
0.0

>  <hydroph_interaction:TYR:68>  (164) 
0.0

>  <halogenbond:GLN:167>  (164) 
0.0

>  <hydroph_interaction:PHE:116>  (164) 
0.0

>  <hbond:TYR:68>  (164) 
0.0

>  <hbond:ASP:122>  (164) 
0.0

>  <pistack:PHE:116>  (164) 
0.0

>  <hydroph_interaction:VAL:154>  (164) 
0.0

>  <hydroph_interaction:ASP:75>  (164) 
0.0

>  <hbond:GLY:121>  (164) 
0.0

>  <hydroph_interaction:ASN:152>  (164) 
0.0

>  <halogenbond:ILE:165>  (164) 
0.0

$$$$
PV-002763732625-x0130S3-x0944S2
     RDKit          3D

 19 19  0  0  0  0  0  0  0  0999 V2000
  -27.2340   -4.3500   -2.1960 C   0  0  0  0  0  0  0  0  0  0  0  0
  -26.4170   -5.4170   -2.8410 C   0  0  0  0  0  0  0  0  0  0  0  0
  -26.1800   -5.1720   -4.2160 O   0  0  0  0  0  0  0  0  0  0  0  0
  -25.6550   -6.2160   -4.9160 C   0  0  0  0  0  0  0  0  0  0  0  0
  -26.3670   -7.2860   -5.4660 C   0  0  0  0  0  0  0  0  0  0  0  0
  -25.6140   -8.2390   -6.1690 C   0  0  0  0  0  0  0  0  0  0  0  0
  -24.2270   -8.1860   -6.3490 C   0  0  0  0  0  0  0  0  0  0  0  0
  -23.5820   -9.1290   -7.0400 F   0  0  0  0  0  0  0  0  0  0  0  0
  -23.5550   -7.1150   -5.7830 C   0  0  0  0  0  0  0  0  0  0  0  0
  -22.2270   -6.9950   -5.9160 F   0  0  0  0  0  0  0  0  0  0  0  0
  -24.2690   -6.1490   -5.0730 C   0  0  0  0  0  0  0  0  0  0  0  0
  -28.2130   -4.7390   -1.9070 H   0  0  0  0  0  0  0  0  0  0  0  0
  -26.7400   -3.9800   -1.2950 H   0  0  0  0  0  0  0  0  0  0  0  0
  -27.3940   -3.5210   -2.8820 H   0  0  0  0  0  0  0  0  0  0  0  0
  -26.9900   -6.3450   -2.7710 H   0  0  0  0  0  0  0  0  0  0  0  0
  -25.4800   -5.5450   -2.2960 H   0  0  0  0  0  0  0  0  0  0  0  0
  -27.4270   -7.4900   -5.4350 H   0  0  0  0  0  0  0  0  0  0  0  0
  -26.1540   -9.0820   -6.6100 H   0  0  0  0  0  0  0  0  0  0  0  0
  -23.7440   -5.3340   -4.6490 H   0  0  0  0  0  0  0  0  0  0  0  0
  1  2  1  0
  2  3  1  0
  3  4  1  0
  4  5  2  0
  5  6  1  0
  6  7  2  0
  7  8  1  0
  7  9  1  0
  9 10  1  0
  9 11  2  0
 11  4  1  0
  1 12  1  0
  1 13  1  0
  1 14  1  0
  2 15  1  0
  2 16  1  0
  5 17  1  0
  6 18  1  0
 11 19  1  0
A    1
 C1 
A    2
 C2 
A    3
 O1 
A    4
 C3 
A    5
 C4 
A    6
 C5 
A    7
 C6 
A    8
 F1 
A    9
 C7 
A   10
 F2 
A   11
 C8 
A   12
 H1 
A   13
 H2 
A   14
 H3 
A   15
 H4 
A   16
 H5 
A   17
 H6 
A   18
 H7 
A   19
 H8 
M  END
>  <ref_pdb>  (165) 
x0051_0B

>  <ref_mols>  (165) 
x0051_0B

>  <original SMILES>  (165) 
[H]c1c([H])c(OC([H])([H])C([H])([H])[H])c([H])c(F)c1F

>  <index>  (165) 
5123.0

>  <∆∆G>  (165) 
-3.778903

>  <comRMSD>  (165) 
0.776972

>  <N_constrained_atoms>  (165) 
11.0

>  <N_unconstrained_atoms>  (165) 
1.0

>  <LE>  (165) 
0.314909

>  <percent_hybrid>  (165) 
40.0

>  <largest_ring>  (165) 
6.0

>  <N_HA>  (165) 
11.0

>  <N_rotatable_bonds>  (165) 
3.0

>  <max_hit_Tanimoto>  (165) 
0.306452

>  <N_interactions_kept>  (165) 
1.0

>  <N_interactions_lost>  (165) 
3.0

>  <interaction_uniqueness_metric>  (165) 
0.436874

>  <N_interactions>  (165) 
6.0

>  <N_PAINS>  (165) 
0.0

>  <UFF_Gibbs>  (165) 
23.083713

>  <strain_per_HA>  (165) 
2.0985

>  <ad_hoc_penalty>  (165) 
-13.080637

>  <cluster>  (165) 
4020.0

>  <intxn_cluster>  (165) 
10.0

>  <keep>  (165) 
1.0

>  <hydroph_interaction:GLN:74>  (165) 
0.0

>  <hydroph_interaction:THR:118>  (165) 
0.0

>  <hydroph_interaction:ILE:123>  (165) 
0.0

>  <hydroph_interaction:THR:166>  (165) 
0.0

>  <hbond:GLN:167>  (165) 
0.0

>  <hydroph_interaction:ALA:88>  (165) 
0.0

>  <hydroph_interaction:ASP:120>  (165) 
0.0

>  <hydroph_interaction:GLN:167>  (165) 
0.0

>  <hbond:THR:118>  (165) 
0.0

>  <hydroph_interaction:ALA:164>  (165) 
0.0

>  <hbond:ASP:120>  (165) 
0.0

>  <hbond:THR:166>  (165) 
0.0

>  <hydroph_interaction:LEU:76>  (165) 
0.0

>  <hbond:ILE:165>  (165) 
0.0

>  <halogenbond:GLN:74>  (165) 
0.0

>  <hbond:GLN:74>  (165) 
0.0

>  <hbond:LYS:73>  (165) 
0.0

>  <pistack:TRP:69>  (165) 
2.0

>  <hbond:TRP:83>  (165) 
1.0

>  <hydroph_interaction:TRP:83>  (165) 
0.0

>  <hydroph_interaction:TRP:69>  (165) 
1.0

>  <pication:TRP:69>  (165) 
0.0

>  <hydroph_interaction:PRO:82>  (165) 
1.0

>  <halogenbond:LYS:73>  (165) 
0.0

>  <hydroph_interaction:TYR:68>  (165) 
1.0

>  <halogenbond:GLN:167>  (165) 
0.0

>  <hydroph_interaction:PHE:116>  (165) 
0.0

>  <hbond:TYR:68>  (165) 
0.0

>  <hbond:ASP:122>  (165) 
0.0

>  <pistack:PHE:116>  (165) 
0.0

>  <hydroph_interaction:VAL:154>  (165) 
0.0

>  <hydroph_interaction:ASP:75>  (165) 
0.0

>  <hbond:GLY:121>  (165) 
0.0

>  <hydroph_interaction:ASN:152>  (165) 
0.0

>  <halogenbond:ILE:165>  (165) 
0.0

$$$$
Z3343830207-Z198195906S1-x0806S2
     RDKit          3D

 32 32  0  0  0  0  0  0  0  0999 V2000
   -9.9730   -7.3310   -9.1330 C   0  0  0  0  0  0  0  0  0  0  0  0
  -10.8000   -6.2340   -9.7800 C   0  0  0  0  0  0  0  0  0  0  0  0
  -10.1590   -4.9350  -10.2480 C   0  0  0  0  0  0  0  0  0  0  0  0
  -12.3010   -6.4490   -9.9630 C   0  0  0  0  0  0  0  0  0  0  0  0
  -12.8850   -7.6950  -10.1370 C   0  0  0  0  0  0  0  0  0  0  0  0
  -14.2260   -7.7530   -9.7880 C   0  0  0  0  0  0  0  0  0  0  0  0
  -14.8260   -8.7690  -10.6450 N   0  0  0  0  0  0  0  0  0  0  0  0
  -15.3220  -10.0210  -10.1450 C   0  0  0  0  0  0  0  0  0  0  0  0
  -15.7750  -10.6500  -11.2860 C   0  0  0  0  0  0  0  0  0  0  0  0
  -16.4050  -12.0350  -11.3140 C   0  0  0  0  0  0  0  0  0  0  0  0
  -16.8260  -12.3370  -12.7400 C   0  0  0  0  0  0  0  0  0  0  0  0
  -15.3160  -12.9600  -10.9820 N   0  0  0  0  0  0  0  0  0  0  0  0
  -15.5830   -9.8950  -12.3210 N   0  0  0  0  0  0  0  0  0  0  0  0
  -15.0020   -8.7260  -11.9660 N   0  0  0  0  0  0  0  0  0  0  0  0
   -8.8950   -7.2020   -8.9940 H   0  0  0  0  0  0  0  0  0  0  0  0
  -10.4300   -8.2630   -8.7940 H   0  0  0  0  0  0  0  0  0  0  0  0
   -9.9770   -4.4090   -9.3020 H   0  0  0  0  0  0  0  0  0  0  0  0
   -9.2260   -4.9340  -10.8000 H   0  0  0  0  0  0  0  0  0  0  0  0
  -10.8790   -4.3490  -10.8300 H   0  0  0  0  0  0  0  0  0  0  0  0
  -12.5850   -5.8440  -10.8340 H   0  0  0  0  0  0  0  0  0  0  0  0
  -12.7930   -5.9800   -9.1000 H   0  0  0  0  0  0  0  0  0  0  0  0
  -12.3420   -8.4940   -9.6450 H   0  0  0  0  0  0  0  0  0  0  0  0
  -12.7800   -8.0440  -11.1490 H   0  0  0  0  0  0  0  0  0  0  0  0
  -14.8560   -6.8730   -9.8640 H   0  0  0  0  0  0  0  0  0  0  0  0
  -14.3260   -8.1220   -8.7610 H   0  0  0  0  0  0  0  0  0  0  0  0
  -15.2950  -10.3050   -9.0880 H   0  0  0  0  0  0  0  0  0  0  0  0
  -17.1630  -12.2180  -10.5540 H   0  0  0  0  0  0  0  0  0  0  0  0
  -17.8930  -12.3180  -12.9530 H   0  0  0  0  0  0  0  0  0  0  0  0
  -16.4910  -13.2760  -13.1780 H   0  0  0  0  0  0  0  0  0  0  0  0
  -16.4000  -11.5490  -13.3710 H   0  0  0  0  0  0  0  0  0  0  0  0
  -14.4430  -12.4330  -10.9530 H   0  0  0  0  0  0  0  0  0  0  0  0
  -15.2020  -13.6020  -11.7710 H   0  0  0  0  0  0  0  0  0  0  0  0
  1  2  2  0
  2  3  1  0
  2  4  1  0
  4  5  1  0
  5  6  1  0
  6  7  1  0
  7  8  1  0
  8  9  2  0
  9 10  1  0
 10 11  1  0
 10 12  1  0
  9 13  1  0
 13 14  2  0
 14  7  1  0
  1 15  1  0
  1 16  1  0
  3 17  1  0
  3 18  1  0
  3 19  1  0
  4 20  1  0
  4 21  1  0
  5 22  1  0
  5 23  1  0
  6 24  1  0
  6 25  1  0
  8 26  1  0
 10 27  1  0
 11 28  1  0
 11 29  1  0
 11 30  1  0
 12 31  1  0
 12 32  1  0
A    1
 C1 
A    2
 C2 
A    3
 C3 
A    4
 C4 
A    5
 C5 
A    6
 C6 
A    7
 N1 
A    8
 C7 
A    9
 C8 
A   10
 C9 
A   11
 C10
A   12
 N2 
A   13
 N3 
A   14
 N4 
A   15
 H1 
A   16
 H2 
A   17
 H3 
A   18
 H4 
A   19
 H5 
A   20
 H6 
A   21
 H7 
A   22
 H8 
A   23
 H9 
A   24
 H10
A   25
 H11
A   26
 H12
A   27
 H13
A   28
 H14
A   29
 H15
A   30
 H16
A   31
 H17
A   32
 H18
M  END
>  <ref_pdb>  (166) 
x0051_0B

>  <ref_mols>  (166) 
x0051_0B

>  <original SMILES>  (166) 
[H]C([H])=C(C([H])([H])[H])C([H])([H])C([H])([H])C([H])([H])n1nnc(C([H])(N([H])[H])C([H])([H])[H])c1[H]

>  <index>  (166) 
6211.0

>  <∆∆G>  (166) 
-4.257929

>  <comRMSD>  (166) 
0.342339

>  <N_constrained_atoms>  (166) 
12.0

>  <N_unconstrained_atoms>  (166) 
2.0

>  <LE>  (166) 
0.304138

>  <percent_hybrid>  (166) 
34.0

>  <largest_ring>  (166) 
5.0

>  <N_HA>  (166) 
14.0

>  <N_rotatable_bonds>  (166) 
8.0

>  <max_hit_Tanimoto>  (166) 
0.383249

>  <N_interactions_kept>  (166) 
0.0

>  <N_interactions_lost>  (166) 
1.0

>  <interaction_uniqueness_metric>  (166) 
0.125577

>  <N_interactions>  (166) 
6.0

>  <N_PAINS>  (166) 
0.0

>  <UFF_Gibbs>  (166) 
109.598133

>  <strain_per_HA>  (166) 
7.828382

>  <ad_hoc_penalty>  (166) 
-13.068567

>  <cluster>  (166) 
359.0

>  <intxn_cluster>  (166) 
17.0

>  <keep>  (166) 
1.0

>  <hydroph_interaction:GLN:74>  (166) 
0.0

>  <hydroph_interaction:THR:118>  (166) 
0.0

>  <hydroph_interaction:ILE:123>  (166) 
2.0

>  <hydroph_interaction:THR:166>  (166) 
0.0

>  <hbond:GLN:167>  (166) 
2.0

>  <hydroph_interaction:ALA:88>  (166) 
1.0

>  <hydroph_interaction:ASP:120>  (166) 
0.0

>  <hydroph_interaction:GLN:167>  (166) 
0.0

>  <hbond:THR:118>  (166) 
0.0

>  <hydroph_interaction:ALA:164>  (166) 
1.0

>  <hbond:ASP:120>  (166) 
0.0

>  <hbond:THR:166>  (166) 
0.0

>  <hydroph_interaction:LEU:76>  (166) 
0.0

>  <hbond:ILE:165>  (166) 
0.0

>  <halogenbond:GLN:74>  (166) 
0.0

>  <hbond:GLN:74>  (166) 
0.0

>  <hbond:LYS:73>  (166) 
0.0

>  <pistack:TRP:69>  (166) 
0.0

>  <hbond:TRP:83>  (166) 
0.0

>  <hydroph_interaction:TRP:83>  (166) 
0.0

>  <hydroph_interaction:TRP:69>  (166) 
0.0

>  <pication:TRP:69>  (166) 
0.0

>  <hydroph_interaction:PRO:82>  (166) 
0.0

>  <halogenbond:LYS:73>  (166) 
0.0

>  <hydroph_interaction:TYR:68>  (166) 
0.0

>  <halogenbond:GLN:167>  (166) 
0.0

>  <hydroph_interaction:PHE:116>  (166) 
0.0

>  <hbond:TYR:68>  (166) 
0.0

>  <hbond:ASP:122>  (166) 
0.0

>  <pistack:PHE:116>  (166) 
0.0

>  <hydroph_interaction:VAL:154>  (166) 
0.0

>  <hydroph_interaction:ASP:75>  (166) 
0.0

>  <hbond:GLY:121>  (166) 
0.0

>  <hydroph_interaction:ASN:152>  (166) 
0.0

>  <halogenbond:ILE:165>  (166) 
0.0

$$$$
Z1648207611-x0214S3-Z198195906S4
     RDKit          3D

 34 35  0  0  0  0  0  0  0  0999 V2000
  -13.0950   -9.2600   -6.9130 C   0  0  0  0  0  0  0  0  0  0  0  0
  -11.9800  -10.1300   -7.3950 C   0  0  0  0  0  0  0  0  0  0  0  0
  -12.2100  -11.5130   -7.4850 C   0  0  0  0  0  0  0  0  0  0  0  0
  -11.2070  -12.3500   -7.9280 C   0  0  0  0  0  0  0  0  0  0  0  0
  -10.0050  -11.7760   -8.2610 C   0  0  0  0  0  0  0  0  0  0  0  0
   -9.7340  -10.4500   -8.1860 N   0  0  0  0  0  0  0  0  0  0  0  0
  -10.7130   -9.6110   -7.7610 C   0  0  0  0  0  0  0  0  0  0  0  0
  -10.3440   -8.1300   -7.7090 C   0  0  0  0  0  0  0  0  0  0  0  0
   -9.8310   -7.5550   -8.9800 N   0  0  0  0  0  0  0  0  0  0  0  0
  -10.5230   -6.2930   -9.3030 C   0  0  1  0  0  0  0  0  0  0  0  0
  -10.1620   -5.7020  -10.6330 C   0  0  0  0  0  0  0  0  0  0  0  0
  -11.9760   -6.6600   -9.2540 C   0  0  0  0  0  0  0  0  0  0  0  0
  -12.6760   -6.2700   -8.1350 C   0  0  0  0  0  0  0  0  0  0  0  0
  -13.9920   -6.6290   -8.0250 C   0  0  0  0  0  0  0  0  0  0  0  0
  -14.5620   -7.3680   -9.0460 C   0  0  0  0  0  0  0  0  0  0  0  0
  -13.7970   -7.7070  -10.1470 C   0  0  0  0  0  0  0  0  0  0  0  0
  -12.5120   -7.3620  -10.2780 N   0  0  0  0  0  0  0  0  0  0  0  0
  -12.7120   -8.2850   -6.6000 H   0  0  0  0  0  0  0  0  0  0  0  0
  -13.8500   -9.1250   -7.6900 H   0  0  0  0  0  0  0  0  0  0  0  0
  -13.6070   -9.7070   -6.0500 H   0  0  0  0  0  0  0  0  0  0  0  0
  -13.1700  -11.9390   -7.2120 H   0  0  0  0  0  0  0  0  0  0  0  0
  -11.3570  -13.4250   -8.0110 H   0  0  0  0  0  0  0  0  0  0  0  0
   -9.1900  -12.3870   -8.6170 H   0  0  0  0  0  0  0  0  0  0  0  0
   -9.5900   -7.9880   -6.9230 H   0  0  0  0  0  0  0  0  0  0  0  0
  -11.2230   -7.5770   -7.3620 H   0  0  0  0  0  0  0  0  0  0  0  0
  -10.0190   -8.2070   -9.7360 H   0  0  0  0  0  0  0  0  0  0  0  0
  -10.3460   -5.5400   -8.5250 H   0  0  0  0  0  0  0  0  0  0  0  0
   -9.4870   -6.3670  -11.1830 H   0  0  0  0  0  0  0  0  0  0  0  0
   -9.6470   -4.7380  -10.5240 H   0  0  0  0  0  0  0  0  0  0  0  0
  -11.0520   -5.5350  -11.2510 H   0  0  0  0  0  0  0  0  0  0  0  0
  -12.1970   -5.6990   -7.3480 H   0  0  0  0  0  0  0  0  0  0  0  0
  -14.5730   -6.3430   -7.1540 H   0  0  0  0  0  0  0  0  0  0  0  0
  -15.5980   -7.6750   -8.9910 H   0  0  0  0  0  0  0  0  0  0  0  0
  -14.2140   -8.2790  -10.9700 H   0  0  0  0  0  0  0  0  0  0  0  0
  1  2  1  0
  2  3  2  0
  3  4  1  0
  4  5  2  0
  5  6  1  0
  6  7  2  0
  7  8  1  0
  8  9  1  0
  9 10  1  0
 10 11  1  0
 10 12  1  0
 12 13  2  0
 13 14  1  0
 14 15  2  0
 15 16  1  0
 16 17  2  0
  7  2  1  0
 17 12  1  0
  1 18  1  0
  1 19  1  0
  1 20  1  0
  3 21  1  0
  4 22  1  0
  5 23  1  0
  8 24  1  0
  8 25  1  0
  9 26  1  0
 10 27  1  1
 11 28  1  0
 11 29  1  0
 11 30  1  0
 13 31  1  0
 14 32  1  0
 15 33  1  0
 16 34  1  0
A    1
 C1 
A    2
 C2 
A    3
 C3 
A    4
 C4 
A    5
 C5 
A    6
 N1 
A    7
 C6 
A    8
 C7 
A    9
 N2 
A   10
 C8 
A   11
 C9 
A   12
 C10
A   13
 C11
A   14
 C12
A   15
 C13
A   16
 C14
A   17
 N3 
A   18
 H1 
A   19
 H2 
A   20
 H3 
A   21
 H4 
A   22
 H5 
A   23
 H6 
A   24
 H7 
A   25
 H8 
A   26
 H9 
A   27
 H10
A   28
 H11
A   29
 H12
A   30
 H13
A   31
 H14
A   32
 H15
A   33
 H16
A   34
 H17
M  END
>  <ref_pdb>  (167) 
x0051_0B

>  <ref_mols>  (167) 
x0051_0B

>  <original SMILES>  (167) 
[H]c1nc([C@@]([H])(N([H])C([H])([H])c2nc([H])c([H])c([H])c2C([H])([H])[H])C([H])([H])[H])c([H])c([H])c1[H]

>  <index>  (167) 
996.0

>  <∆∆G>  (167) 
-5.052124

>  <comRMSD>  (167) 
0.826141

>  <N_constrained_atoms>  (167) 
17.0

>  <N_unconstrained_atoms>  (167) 
0.0

>  <LE>  (167) 
0.297184

>  <percent_hybrid>  (167) 
32.0

>  <largest_ring>  (167) 
6.0

>  <N_HA>  (167) 
17.0

>  <N_rotatable_bonds>  (167) 
6.0

>  <max_hit_Tanimoto>  (167) 
0.181818

>  <N_interactions_kept>  (167) 
0.5

>  <N_interactions_lost>  (167) 
1.0

>  <interaction_uniqueness_metric>  (167) 
0.106229

>  <N_interactions>  (167) 
4.0

>  <N_PAINS>  (167) 
0.0

>  <UFF_Gibbs>  (167) 
71.365923

>  <strain_per_HA>  (167) 
4.197971

>  <ad_hoc_penalty>  (167) 
-12.86277

>  <cluster>  (167) 
778.0

>  <intxn_cluster>  (167) 
11.0

>  <keep>  (167) 
1.0

>  <hydroph_interaction:GLN:74>  (167) 
0.0

>  <hydroph_interaction:THR:118>  (167) 
0.0

>  <hydroph_interaction:ILE:123>  (167) 
1.0

>  <hydroph_interaction:THR:166>  (167) 
0.0

>  <hbond:GLN:167>  (167) 
0.0

>  <hydroph_interaction:ALA:88>  (167) 
0.0

>  <hydroph_interaction:ASP:120>  (167) 
1.0

>  <hydroph_interaction:GLN:167>  (167) 
0.0

>  <hbond:THR:118>  (167) 
1.0

>  <hydroph_interaction:ALA:164>  (167) 
1.0

>  <hbond:ASP:120>  (167) 
0.0

>  <hbond:THR:166>  (167) 
0.0

>  <hydroph_interaction:LEU:76>  (167) 
0.0

>  <hbond:ILE:165>  (167) 
0.0

>  <halogenbond:GLN:74>  (167) 
0.0

>  <hbond:GLN:74>  (167) 
0.0

>  <hbond:LYS:73>  (167) 
0.0

>  <pistack:TRP:69>  (167) 
0.0

>  <hbond:TRP:83>  (167) 
0.0

>  <hydroph_interaction:TRP:83>  (167) 
0.0

>  <hydroph_interaction:TRP:69>  (167) 
0.0

>  <pication:TRP:69>  (167) 
0.0

>  <hydroph_interaction:PRO:82>  (167) 
0.0

>  <halogenbond:LYS:73>  (167) 
0.0

>  <hydroph_interaction:TYR:68>  (167) 
0.0

>  <halogenbond:GLN:167>  (167) 
0.0

>  <hydroph_interaction:PHE:116>  (167) 
0.0

>  <hbond:TYR:68>  (167) 
0.0

>  <hbond:ASP:122>  (167) 
0.0

>  <pistack:PHE:116>  (167) 
0.0

>  <hydroph_interaction:VAL:154>  (167) 
0.0

>  <hydroph_interaction:ASP:75>  (167) 
0.0

>  <hbond:GLY:121>  (167) 
0.0

>  <hydroph_interaction:ASN:152>  (167) 
0.0

>  <halogenbond:ILE:165>  (167) 
0.0

$$$$
Z2796145890-x0884S3-x0214S2
     RDKit          3D

 29 30  0  0  0  0  0  0  0  0999 V2000
   -9.9270   -9.9740   -7.7120 N   0  0  0  0  0  0  0  0  0  0  0  0
  -10.8820  -10.9500   -7.8060 C   0  0  0  0  0  0  0  0  0  0  0  0
  -10.5500  -12.1010   -8.0640 O   0  0  0  0  0  0  0  0  0  0  0  0
  -12.3420  -10.5270   -7.5780 C   0  0  0  0  0  0  0  0  0  0  0  0
  -13.2570  -11.0920   -8.1820 O   0  0  0  0  0  0  0  0  0  0  0  0
  -12.5100   -9.4360   -6.5650 N   0  0  0  0  0  0  0  0  0  0  0  0
  -12.8550   -9.6980   -5.1910 C   0  0  0  0  0  0  0  0  0  0  0  0
  -14.1460   -9.1340   -5.1880 C   0  0  0  0  0  0  0  0  0  0  0  0
  -14.5470   -8.6710   -6.4460 C   0  0  0  0  0  0  0  0  0  0  0  0
  -13.2810   -8.2320   -6.8320 C   0  0  0  0  0  0  0  0  0  0  0  0
  -13.0540   -7.6600   -8.2180 C   0  0  0  0  0  0  0  0  0  0  0  0
  -12.4650   -6.3030   -8.1370 C   0  0  0  0  0  0  0  0  0  0  0  0
  -12.1540   -5.5810   -9.3860 C   0  0  0  0  0  0  0  0  0  0  0  0
  -12.4360   -6.2240  -10.5820 C   0  0  0  0  0  0  0  0  0  0  0  0
  -12.9880   -7.4750  -10.6530 N   0  0  0  0  0  0  0  0  0  0  0  0
  -13.2840   -8.1620   -9.5000 C   0  0  0  0  0  0  0  0  0  0  0  0
  -10.2370   -9.0690   -7.3850 H   0  0  0  0  0  0  0  0  0  0  0  0
   -9.0990  -10.0060   -8.2940 H   0  0  0  0  0  0  0  0  0  0  0  0
  -12.2060   -9.2100   -4.4510 H   0  0  0  0  0  0  0  0  0  0  0  0
  -12.8650  -10.7780   -4.9940 H   0  0  0  0  0  0  0  0  0  0  0  0
  -14.8710   -9.8500   -4.7930 H   0  0  0  0  0  0  0  0  0  0  0  0
  -14.1590   -8.2810   -4.4990 H   0  0  0  0  0  0  0  0  0  0  0  0
  -14.8510   -9.5420   -7.0380 H   0  0  0  0  0  0  0  0  0  0  0  0
  -15.3770   -7.9720   -6.5020 H   0  0  0  0  0  0  0  0  0  0  0  0
  -12.8470   -7.5730   -6.0860 H   0  0  0  0  0  0  0  0  0  0  0  0
  -12.2640   -5.8470   -7.1590 H   0  0  0  0  0  0  0  0  0  0  0  0
  -11.7170   -4.5840   -9.2560 H   0  0  0  0  0  0  0  0  0  0  0  0
  -12.2240   -5.7460  -11.5470 H   0  0  0  0  0  0  0  0  0  0  0  0
  -13.7190   -9.1550   -9.6580 H   0  0  0  0  0  0  0  0  0  0  0  0
  1  2  1  0
  2  3  2  0
  2  4  1  0
  4  5  2  0
  4  6  1  0
  6  7  1  0
  7  8  1  0
  8  9  1  0
  9 10  1  0
 10 11  1  0
 11 12  2  0
 12 13  1  0
 13 14  2  0
 14 15  1  0
 15 16  2  0
 10  6  1  0
 16 11  1  0
  1 17  1  0
  1 18  1  0
  7 19  1  0
  7 20  1  0
  8 21  1  0
  8 22  1  0
  9 23  1  0
  9 24  1  0
 10 25  1  0
 12 26  1  0
 13 27  1  0
 14 28  1  0
 16 29  1  0
A    1
 N1 
A    2
 C1 
A    3
 O1 
A    4
 C2 
A    5
 O2 
A    6
 N2 
A    7
 C3 
A    8
 C4 
A    9
 C5 
A   10
 C6 
A   11
 C7 
A   12
 C8 
A   13
 C9 
A   14
 C10
A   15
 N3 
A   16
 C11
A   17
 H1 
A   18
 H2 
A   19
 H3 
A   20
 H4 
A   21
 H5 
A   22
 H6 
A   23
 H7 
A   24
 H8 
A   25
 H9 
A   26
 H10
A   27
 H11
A   28
 H12
A   29
 H13
M  END
>  <ref_pdb>  (168) 
x0051_0B

>  <ref_mols>  (168) 
x0051_0B

>  <original SMILES>  (168) 
[H]c1nc([H])c(C2([H])N(C(=O)C(=O)N([H])[H])C([H])([H])C([H])([H])C2([H])[H])c([H])c1[H]

>  <index>  (168) 
5000.0

>  <∆∆G>  (168) 
-2.073959

>  <comRMSD>  (168) 
0.697746

>  <N_constrained_atoms>  (168) 
16.0

>  <N_unconstrained_atoms>  (168) 
0.0

>  <LE>  (168) 
0.129622

>  <percent_hybrid>  (168) 
34.0

>  <largest_ring>  (168) 
6.0

>  <N_HA>  (168) 
16.0

>  <N_rotatable_bonds>  (168) 
1.0

>  <max_hit_Tanimoto>  (168) 
0.245729

>  <N_interactions_kept>  (168) 
0.5

>  <N_interactions_lost>  (168) 
1.0

>  <interaction_uniqueness_metric>  (168) 
0.058261

>  <N_interactions>  (168) 
3.0

>  <N_PAINS>  (168) 
0.0

>  <UFF_Gibbs>  (168) 
107.850017

>  <strain_per_HA>  (168) 
6.740584

>  <ad_hoc_penalty>  (168) 
-12.832825

>  <cluster>  (168) 
4070.0

>  <intxn_cluster>  (168) 
5.0

>  <keep>  (168) 
1.0

>  <hydroph_interaction:GLN:74>  (168) 
0.0

>  <hydroph_interaction:THR:118>  (168) 
0.0

>  <hydroph_interaction:ILE:123>  (168) 
0.0

>  <hydroph_interaction:THR:166>  (168) 
1.0

>  <hbond:GLN:167>  (168) 
0.0

>  <hydroph_interaction:ALA:88>  (168) 
0.0

>  <hydroph_interaction:ASP:120>  (168) 
0.0

>  <hydroph_interaction:GLN:167>  (168) 
0.0

>  <hbond:THR:118>  (168) 
2.0

>  <hydroph_interaction:ALA:164>  (168) 
0.0

>  <hbond:ASP:120>  (168) 
0.0

>  <hbond:THR:166>  (168) 
0.0

>  <hydroph_interaction:LEU:76>  (168) 
0.0

>  <hbond:ILE:165>  (168) 
0.0

>  <halogenbond:GLN:74>  (168) 
0.0

>  <hbond:GLN:74>  (168) 
0.0

>  <hbond:LYS:73>  (168) 
0.0

>  <pistack:TRP:69>  (168) 
0.0

>  <hbond:TRP:83>  (168) 
0.0

>  <hydroph_interaction:TRP:83>  (168) 
0.0

>  <hydroph_interaction:TRP:69>  (168) 
0.0

>  <pication:TRP:69>  (168) 
0.0

>  <hydroph_interaction:PRO:82>  (168) 
0.0

>  <halogenbond:LYS:73>  (168) 
0.0

>  <hydroph_interaction:TYR:68>  (168) 
0.0

>  <halogenbond:GLN:167>  (168) 
0.0

>  <hydroph_interaction:PHE:116>  (168) 
0.0

>  <hbond:TYR:68>  (168) 
0.0

>  <hbond:ASP:122>  (168) 
0.0

>  <pistack:PHE:116>  (168) 
0.0

>  <hydroph_interaction:VAL:154>  (168) 
0.0

>  <hydroph_interaction:ASP:75>  (168) 
0.0

>  <hbond:GLY:121>  (168) 
0.0

>  <hydroph_interaction:ASN:152>  (168) 
0.0

>  <halogenbond:ILE:165>  (168) 
0.0

$$$$
Z2256569462-Z198195906S2-x0214S3
     RDKit          3D

 40 42  0  0  0  0  0  0  0  0999 V2000
  -10.3870   -8.2300   -8.0710 C   0  0  0  0  0  0  0  0  0  0  0  0
  -10.6880   -9.6310   -8.1650 C   0  0  0  0  0  0  0  0  0  0  0  0
   -9.8060  -10.3860   -8.9850 C   0  0  0  0  0  0  0  0  0  0  0  0
   -9.9990  -11.7470   -9.1460 N   0  0  0  0  0  0  0  0  0  0  0  0
  -11.0690  -12.2800   -8.4800 C   0  0  0  0  0  0  0  0  0  0  0  0
  -12.0320  -11.5040   -7.5950 C   0  0  0  0  0  0  0  0  0  0  0  0
  -11.7850  -10.1560   -7.4710 C   0  0  0  0  0  0  0  0  0  0  0  0
  -12.5990   -9.3500   -6.6790 C   0  0  0  0  0  0  0  0  0  0  0  0
  -13.9850   -9.2890   -7.1730 N   0  0  0  0  0  0  0  0  0  0  0  0
  -14.9620   -9.4250   -6.0580 C   0  0  0  0  0  0  0  0  0  0  0  0
  -16.2480   -9.6400   -6.5540 C   0  0  0  0  0  0  0  0  0  0  0  0
  -16.2280   -9.5550   -7.9860 O   0  0  0  0  0  0  0  0  0  0  0  0
  -15.6240   -8.3180   -8.4040 C   0  0  0  0  0  0  0  0  0  0  0  0
  -14.3150   -8.2060   -7.9640 C   0  0  0  0  0  0  0  0  0  0  0  0
  -13.9190   -7.0310   -7.2910 C   0  0  0  0  0  0  0  0  0  0  0  0
  -13.0960   -6.1430   -8.1380 C   0  0  0  0  0  0  0  0  0  0  0  0
  -12.9660   -6.7580   -9.3480 C   0  0  0  0  0  0  0  0  0  0  0  0
  -13.3770   -8.1170   -9.2280 C   0  0  0  0  0  0  0  0  0  0  0  0
  -10.0310   -7.9840   -7.0680 H   0  0  0  0  0  0  0  0  0  0  0  0
  -11.2860   -7.6470   -8.2780 H   0  0  0  0  0  0  0  0  0  0  0  0
   -9.6180   -7.9590   -8.7990 H   0  0  0  0  0  0  0  0  0  0  0  0
   -8.9650   -9.9480   -9.5110 H   0  0  0  0  0  0  0  0  0  0  0  0
  -11.2090  -13.3480   -8.6170 H   0  0  0  0  0  0  0  0  0  0  0  0
  -12.8630  -11.9920   -7.0910 H   0  0  0  0  0  0  0  0  0  0  0  0
  -12.6010   -9.7780   -5.6680 H   0  0  0  0  0  0  0  0  0  0  0  0
  -12.2380   -8.3270   -6.5130 H   0  0  0  0  0  0  0  0  0  0  0  0
  -14.6850  -10.3420   -5.5280 H   0  0  0  0  0  0  0  0  0  0  0  0
  -14.8370   -8.5930   -5.3550 H   0  0  0  0  0  0  0  0  0  0  0  0
  -16.5670  -10.6600   -6.3160 H   0  0  0  0  0  0  0  0  0  0  0  0
  -17.0460   -8.9770   -6.2180 H   0  0  0  0  0  0  0  0  0  0  0  0
  -15.7930   -8.2550   -9.4770 H   0  0  0  0  0  0  0  0  0  0  0  0
  -16.2350   -7.5380   -7.9340 H   0  0  0  0  0  0  0  0  0  0  0  0
  -14.7350   -6.3860   -6.9730 H   0  0  0  0  0  0  0  0  0  0  0  0
  -13.3640   -7.2990   -6.3880 H   0  0  0  0  0  0  0  0  0  0  0  0
  -13.5820   -5.1720   -8.2630 H   0  0  0  0  0  0  0  0  0  0  0  0
  -12.1160   -5.9670   -7.6810 H   0  0  0  0  0  0  0  0  0  0  0  0
  -13.6560   -6.2850  -10.0550 H   0  0  0  0  0  0  0  0  0  0  0  0
  -11.9980   -6.6140   -9.8240 H   0  0  0  0  0  0  0  0  0  0  0  0
  -13.9120   -8.5490  -10.0740 H   0  0  0  0  0  0  0  0  0  0  0  0
  -12.4930   -8.7410   -9.0790 H   0  0  0  0  0  0  0  0  0  0  0  0
  1  2  1  0
  2  3  2  0
  3  4  1  0
  4  5  2  0
  5  6  1  0
  6  7  2  0
  7  8  1  0
  8  9  1  0
  9 10  1  0
 10 11  1  0
 11 12  1  0
 12 13  1  0
 13 14  1  0
 14 15  1  0
 15 16  1  0
 16 17  1  0
 17 18  1  0
  7  2  1  0
 14  9  1  0
 18 14  1  0
  1 19  1  0
  1 20  1  0
  1 21  1  0
  3 22  1  0
  5 23  1  0
  6 24  1  0
  8 25  1  0
  8 26  1  0
 10 27  1  0
 10 28  1  0
 11 29  1  0
 11 30  1  0
 13 31  1  0
 13 32  1  0
 15 33  1  0
 15 34  1  0
 16 35  1  0
 16 36  1  0
 17 37  1  0
 17 38  1  0
 18 39  1  0
 18 40  1  0
A    1
 C1 
A    2
 C2 
A    3
 C3 
A    4
 N1 
A    5
 C4 
A    6
 C5 
A    7
 C6 
A    8
 C7 
A    9
 N2 
A   10
 C8 
A   11
 C9 
A   12
 O1 
A   13
 C10
A   14
 C11
A   15
 C12
A   16
 C13
A   17
 C14
A   18
 C15
A   19
 H1 
A   20
 H2 
A   21
 H3 
A   22
 H4 
A   23
 H5 
A   24
 H6 
A   25
 H7 
A   26
 H8 
A   27
 H9 
A   28
 H10
A   29
 H11
A   30
 H12
A   31
 H13
A   32
 H14
A   33
 H15
A   34
 H16
A   35
 H17
A   36
 H18
A   37
 H19
A   38
 H20
A   39
 H21
A   40
 H22
M  END
>  <ref_pdb>  (169) 
x0051_0B

>  <ref_mols>  (169) 
x0051_0B

>  <original SMILES>  (169) 
[H]c1nc([H])c(C([H])([H])[H])c(C([H])([H])N2C([H])([H])C([H])([H])OC([H])([H])C23C([H])([H])C([H])([H])C([H])([H])C3([H])[H])c1[H]

>  <index>  (169) 
4239.0

>  <∆∆G>  (169) 
-2.132323

>  <comRMSD>  (169) 
0.630111

>  <N_constrained_atoms>  (169) 
19.0

>  <N_unconstrained_atoms>  (169) 
0.0

>  <LE>  (169) 
0.112228

>  <percent_hybrid>  (169) 
28.0

>  <largest_ring>  (169) 
6.0

>  <N_HA>  (169) 
18.0

>  <N_rotatable_bonds>  (169) 
3.0

>  <max_hit_Tanimoto>  (169) 
0.347458

>  <N_interactions_kept>  (169) 
1.0

>  <N_interactions_lost>  (169) 
0.5

>  <interaction_uniqueness_metric>  (169) 
0.061299

>  <N_interactions>  (169) 
3.0

>  <N_PAINS>  (169) 
0.0

>  <UFF_Gibbs>  (169) 
250.011988

>  <strain_per_HA>  (169) 
13.889478

>  <ad_hoc_penalty>  (169) 
-12.770409

>  <cluster>  (169) 
384.0

>  <intxn_cluster>  (169) 
16.0

>  <keep>  (169) 
1.0

>  <hydroph_interaction:GLN:74>  (169) 
1.0

>  <hydroph_interaction:THR:118>  (169) 
0.0

>  <hydroph_interaction:ILE:123>  (169) 
1.0

>  <hydroph_interaction:THR:166>  (169) 
0.0

>  <hbond:GLN:167>  (169) 
0.0

>  <hydroph_interaction:ALA:88>  (169) 
0.0

>  <hydroph_interaction:ASP:120>  (169) 
0.0

>  <hydroph_interaction:GLN:167>  (169) 
0.0

>  <hbond:THR:118>  (169) 
1.0

>  <hydroph_interaction:ALA:164>  (169) 
0.0

>  <hbond:ASP:120>  (169) 
0.0

>  <hbond:THR:166>  (169) 
0.0

>  <hydroph_interaction:LEU:76>  (169) 
0.0

>  <hbond:ILE:165>  (169) 
0.0

>  <halogenbond:GLN:74>  (169) 
0.0

>  <hbond:GLN:74>  (169) 
0.0

>  <hbond:LYS:73>  (169) 
0.0

>  <pistack:TRP:69>  (169) 
0.0

>  <hbond:TRP:83>  (169) 
0.0

>  <hydroph_interaction:TRP:83>  (169) 
0.0

>  <hydroph_interaction:TRP:69>  (169) 
0.0

>  <pication:TRP:69>  (169) 
0.0

>  <hydroph_interaction:PRO:82>  (169) 
0.0

>  <halogenbond:LYS:73>  (169) 
0.0

>  <hydroph_interaction:TYR:68>  (169) 
0.0

>  <halogenbond:GLN:167>  (169) 
0.0

>  <hydroph_interaction:PHE:116>  (169) 
0.0

>  <hbond:TYR:68>  (169) 
0.0

>  <hbond:ASP:122>  (169) 
0.0

>  <pistack:PHE:116>  (169) 
0.0

>  <hydroph_interaction:VAL:154>  (169) 
0.0

>  <hydroph_interaction:ASP:75>  (169) 
0.0

>  <hbond:GLY:121>  (169) 
0.0

>  <hydroph_interaction:ASN:152>  (169) 
0.0

>  <halogenbond:ILE:165>  (169) 
0.0

$$$$
Z232563886-Z198195906S10-x0884S4
     RDKit          3D

 28 29  0  0  0  0  0  0  0  0999 V2000
  -11.4640   -8.3960   -8.0940 C   0  0  0  0  0  0  0  0  0  0  0  0
  -12.5840   -7.9360   -8.6760 N   0  0  0  0  0  0  0  0  0  0  0  0
  -12.7430   -6.5940   -8.5010 O   0  0  0  0  0  0  0  0  0  0  0  0
  -13.6680   -6.4570   -7.5210 C   0  0  0  0  0  0  0  0  0  0  0  0
  -14.5830   -7.6890   -7.3030 C   0  0  0  0  0  0  0  0  0  0  0  0
  -13.8500   -8.9810   -6.8820 C   0  0  0  0  0  0  0  0  0  0  0  0
  -14.7990  -10.1690   -6.6610 C   0  0  0  0  0  0  0  0  0  0  0  0
  -16.2780   -9.9040   -6.8850 C   0  0  0  0  0  0  0  0  0  0  0  0
  -16.8000   -8.6700   -7.2680 C   0  0  0  0  0  0  0  0  0  0  0  0
  -15.9580   -7.5870   -7.4730 C   0  0  0  0  0  0  0  0  0  0  0  0
  -11.1720   -9.8120   -8.2010 C   0  0  0  0  0  0  0  0  0  0  0  0
  -11.9740  -10.7730   -7.6140 C   0  0  0  0  0  0  0  0  0  0  0  0
  -11.7020  -12.2090   -7.7420 C   0  0  0  0  0  0  0  0  0  0  0  0
  -10.6160  -12.6030   -8.4710 C   0  0  0  0  0  0  0  0  0  0  0  0
   -9.7270  -11.6870   -9.1090 N   0  0  0  0  0  0  0  0  0  0  0  0
   -9.9420  -10.3690   -9.0050 C   0  0  0  0  0  0  0  0  0  0  0  0
  -10.8280   -7.6790   -7.5700 H   0  0  0  0  0  0  0  0  0  0  0  0
  -13.1280   -6.1020   -6.6480 H   0  0  0  0  0  0  0  0  0  0  0  0
  -14.3210   -5.6240   -7.8160 H   0  0  0  0  0  0  0  0  0  0  0  0
  -12.7720   -9.0490   -6.7470 H   0  0  0  0  0  0  0  0  0  0  0  0
  -14.2910  -11.0920   -6.3600 H   0  0  0  0  0  0  0  0  0  0  0  0
  -17.0540  -10.6680   -6.7590 H   0  0  0  0  0  0  0  0  0  0  0  0
  -17.8730   -8.5530   -7.4090 H   0  0  0  0  0  0  0  0  0  0  0  0
  -16.3790   -6.6300   -7.7670 H   0  0  0  0  0  0  0  0  0  0  0  0
  -12.8370  -10.4640   -7.0420 H   0  0  0  0  0  0  0  0  0  0  0  0
  -12.2980  -13.0140   -7.3020 H   0  0  0  0  0  0  0  0  0  0  0  0
  -10.4210  -13.6740   -8.5660 H   0  0  0  0  0  0  0  0  0  0  0  0
   -9.2250   -9.7300   -9.5160 H   0  0  0  0  0  0  0  0  0  0  0  0
  1  2  2  3
  2  3  1  0
  3  4  1  0
  4  5  1  0
  5  6  2  0
  6  7  1  0
  7  8  2  0
  8  9  1  0
  9 10  2  0
  1 11  1  0
 11 12  2  0
 12 13  1  0
 13 14  2  0
 14 15  1  0
 15 16  2  0
 10  5  1  0
 16 11  1  0
  1 17  1  0
  4 18  1  0
  4 19  1  0
  6 20  1  0
  7 21  1  0
  8 22  1  0
  9 23  1  0
 10 24  1  0
 12 25  1  0
 13 26  1  0
 14 27  1  0
 16 28  1  0
A    1
 C1 
A    2
 N1 
A    3
 O1 
A    4
 C2 
A    5
 C3 
A    6
 C4 
A    7
 C5 
A    8
 C6 
A    9
 C7 
A   10
 C8 
A   11
 C9 
A   12
 C10
A   13
 C11
A   14
 C12
A   15
 N2 
A   16
 C13
A   17
 H1 
A   18
 H2 
A   19
 H3 
A   20
 H4 
A   21
 H5 
A   22
 H6 
A   23
 H7 
A   24
 H8 
A   25
 H9 
A   26
 H10
A   27
 H11
A   28
 H12
M  END
>  <ref_pdb>  (170) 
x0051_0B

>  <ref_mols>  (170) 
x0051_0B

>  <original SMILES>  (170) 
[H]C(=NOC([H])([H])c1c([H])c([H])c([H])c([H])c1[H])c1c([H])nc([H])c([H])c1[H]

>  <index>  (170) 
2093.0

>  <∆∆G>  (170) 
-1.787317

>  <comRMSD>  (170) 
0.642341

>  <N_constrained_atoms>  (170) 
15.0

>  <N_unconstrained_atoms>  (170) 
1.0

>  <LE>  (170) 
0.111707

>  <percent_hybrid>  (170) 
47.0

>  <largest_ring>  (170) 
6.0

>  <N_HA>  (170) 
16.0

>  <N_rotatable_bonds>  (170) 
4.0

>  <max_hit_Tanimoto>  (170) 
0.162162

>  <N_interactions_kept>  (170) 
0.5

>  <N_interactions_lost>  (170) 
0.5

>  <interaction_uniqueness_metric>  (170) 
0.084733

>  <N_interactions>  (170) 
4.0

>  <N_PAINS>  (170) 
0.0

>  <UFF_Gibbs>  (170) 
510.698764

>  <strain_per_HA>  (170) 
31.918473

>  <ad_hoc_penalty>  (170) 
-12.718774

>  <cluster>  (170) 
5328.0

>  <intxn_cluster>  (170) 
16.0

>  <keep>  (170) 
1.0

>  <hydroph_interaction:GLN:74>  (170) 
1.0

>  <hydroph_interaction:THR:118>  (170) 
0.0

>  <hydroph_interaction:ILE:123>  (170) 
1.0

>  <hydroph_interaction:THR:166>  (170) 
0.0

>  <hbond:GLN:167>  (170) 
0.0

>  <hydroph_interaction:ALA:88>  (170) 
0.0

>  <hydroph_interaction:ASP:120>  (170) 
1.0

>  <hydroph_interaction:GLN:167>  (170) 
0.0

>  <hbond:THR:118>  (170) 
1.0

>  <hydroph_interaction:ALA:164>  (170) 
0.0

>  <hbond:ASP:120>  (170) 
0.0

>  <hbond:THR:166>  (170) 
0.0

>  <hydroph_interaction:LEU:76>  (170) 
0.0

>  <hbond:ILE:165>  (170) 
0.0

>  <halogenbond:GLN:74>  (170) 
0.0

>  <hbond:GLN:74>  (170) 
0.0

>  <hbond:LYS:73>  (170) 
0.0

>  <pistack:TRP:69>  (170) 
0.0

>  <hbond:TRP:83>  (170) 
0.0

>  <hydroph_interaction:TRP:83>  (170) 
0.0

>  <hydroph_interaction:TRP:69>  (170) 
0.0

>  <pication:TRP:69>  (170) 
0.0

>  <hydroph_interaction:PRO:82>  (170) 
0.0

>  <halogenbond:LYS:73>  (170) 
0.0

>  <hydroph_interaction:TYR:68>  (170) 
0.0

>  <halogenbond:GLN:167>  (170) 
0.0

>  <hydroph_interaction:PHE:116>  (170) 
0.0

>  <hbond:TYR:68>  (170) 
0.0

>  <hbond:ASP:122>  (170) 
0.0

>  <pistack:PHE:116>  (170) 
0.0

>  <hydroph_interaction:VAL:154>  (170) 
0.0

>  <hydroph_interaction:ASP:75>  (170) 
0.0

>  <hbond:GLY:121>  (170) 
0.0

>  <hydroph_interaction:ASN:152>  (170) 
0.0

>  <halogenbond:ILE:165>  (170) 
0.0

$$$$
PV-002999636006-Z198195906S5-Z1318055457S7
     RDKit          3D

 20 20  0  0  0  0  0  0  0  0999 V2000
  -10.1650   -7.1700   -8.5060 C   0  0  0  0  0  0  0  0  0  0  0  0
  -11.1920   -7.9470   -8.1130 C   0  0  0  0  0  0  0  0  0  0  0  0
  -12.4720   -7.3890   -7.5550 C   0  0  0  0  0  0  0  0  0  0  0  0
  -11.0900   -9.4180   -8.2350 C   0  0  0  0  0  0  0  0  0  0  0  0
  -12.0640  -10.2470   -7.6550 C   0  0  0  0  0  0  0  0  0  0  0  0
  -11.9770  -11.6400   -7.7710 C   0  0  0  0  0  0  0  0  0  0  0  0
  -10.9180  -12.2240   -8.4670 C   0  0  0  0  0  0  0  0  0  0  0  0
   -9.9480  -11.4150   -9.0450 C   0  0  0  0  0  0  0  0  0  0  0  0
  -10.0420  -10.0260   -8.9240 C   0  0  0  0  0  0  0  0  0  0  0  0
   -9.0670   -9.2860   -9.5150 O   0  0  0  0  0  0  0  0  0  0  0  0
   -9.2530   -7.5890   -8.9120 H   0  0  0  0  0  0  0  0  0  0  0  0
  -10.2130   -6.0860   -8.4330 H   0  0  0  0  0  0  0  0  0  0  0  0
  -12.9130   -8.0550   -6.8010 H   0  0  0  0  0  0  0  0  0  0  0  0
  -13.2120   -7.2470   -8.3450 H   0  0  0  0  0  0  0  0  0  0  0  0
  -12.2900   -6.4220   -7.0680 H   0  0  0  0  0  0  0  0  0  0  0  0
  -12.9000   -9.8160   -7.1080 H   0  0  0  0  0  0  0  0  0  0  0  0
  -12.7400  -12.2730   -7.3150 H   0  0  0  0  0  0  0  0  0  0  0  0
  -10.8450  -13.3080   -8.5580 H   0  0  0  0  0  0  0  0  0  0  0  0
   -9.1160  -11.8550   -9.5900 H   0  0  0  0  0  0  0  0  0  0  0  0
   -8.5060   -9.8990  -10.0220 H   0  0  0  0  0  0  0  0  0  0  0  0
  1  2  2  0
  2  3  1  0
  2  4  1  0
  4  5  2  0
  5  6  1  0
  6  7  2  0
  7  8  1  0
  8  9  2  0
  9 10  1  0
  9  4  1  0
  1 11  1  0
  1 12  1  0
  3 13  1  0
  3 14  1  0
  3 15  1  0
  5 16  1  0
  6 17  1  0
  7 18  1  0
  8 19  1  0
 10 20  1  0
A    1
 C1 
A    2
 C2 
A    3
 C3 
A    4
 C4 
A    5
 C5 
A    6
 C6 
A    7
 C7 
A    8
 C8 
A    9
 C9 
A   10
 O1 
A   11
 H1 
A   12
 H2 
A   13
 H3 
A   14
 H4 
A   15
 H5 
A   16
 H6 
A   17
 H7 
A   18
 H8 
A   19
 H9 
A   20
 H10
M  END
>  <ref_pdb>  (171) 
x0051_0B

>  <ref_mols>  (171) 
x0051_0B

>  <original SMILES>  (171) 
[H]Oc1c([H])c([H])c([H])c([H])c1C(=C([H])[H])C([H])([H])[H]

>  <index>  (171) 
6325.0

>  <∆∆G>  (171) 
-2.957087

>  <comRMSD>  (171) 
0.482137

>  <N_constrained_atoms>  (171) 
11.0

>  <N_unconstrained_atoms>  (171) 
1.0

>  <LE>  (171) 
0.246424

>  <percent_hybrid>  (171) 
38.0

>  <largest_ring>  (171) 
6.0

>  <N_HA>  (171) 
10.0

>  <N_rotatable_bonds>  (171) 
3.0

>  <max_hit_Tanimoto>  (171) 
0.185185

>  <N_interactions_kept>  (171) 
1.0

>  <N_interactions_lost>  (171) 
1.0

>  <interaction_uniqueness_metric>  (171) 
0.047162

>  <N_interactions>  (171) 
4.0

>  <N_PAINS>  (171) 
0.0

>  <UFF_Gibbs>  (171) 
69.119357

>  <strain_per_HA>  (171) 
6.911867

>  <ad_hoc_penalty>  (171) 
-12.699678

>  <cluster>  (171) 
3430.0

>  <intxn_cluster>  (171) 
9.0

>  <keep>  (171) 
1.0

>  <hydroph_interaction:GLN:74>  (171) 
0.0

>  <hydroph_interaction:THR:118>  (171) 
0.0

>  <hydroph_interaction:ILE:123>  (171) 
2.0

>  <hydroph_interaction:THR:166>  (171) 
0.0

>  <hbond:GLN:167>  (171) 
0.0

>  <hydroph_interaction:ALA:88>  (171) 
0.0

>  <hydroph_interaction:ASP:120>  (171) 
0.0

>  <hydroph_interaction:GLN:167>  (171) 
0.0

>  <hbond:THR:118>  (171) 
2.0

>  <hydroph_interaction:ALA:164>  (171) 
0.0

>  <hbond:ASP:120>  (171) 
0.0

>  <hbond:THR:166>  (171) 
0.0

>  <hydroph_interaction:LEU:76>  (171) 
0.0

>  <hbond:ILE:165>  (171) 
0.0

>  <halogenbond:GLN:74>  (171) 
0.0

>  <hbond:GLN:74>  (171) 
0.0

>  <hbond:LYS:73>  (171) 
0.0

>  <pistack:TRP:69>  (171) 
0.0

>  <hbond:TRP:83>  (171) 
0.0

>  <hydroph_interaction:TRP:83>  (171) 
0.0

>  <hydroph_interaction:TRP:69>  (171) 
0.0

>  <pication:TRP:69>  (171) 
0.0

>  <hydroph_interaction:PRO:82>  (171) 
0.0

>  <halogenbond:LYS:73>  (171) 
0.0

>  <hydroph_interaction:TYR:68>  (171) 
0.0

>  <halogenbond:GLN:167>  (171) 
0.0

>  <hydroph_interaction:PHE:116>  (171) 
0.0

>  <hbond:TYR:68>  (171) 
0.0

>  <hbond:ASP:122>  (171) 
0.0

>  <pistack:PHE:116>  (171) 
0.0

>  <hydroph_interaction:VAL:154>  (171) 
0.0

>  <hydroph_interaction:ASP:75>  (171) 
0.0

>  <hbond:GLY:121>  (171) 
0.0

>  <hydroph_interaction:ASN:152>  (171) 
0.0

>  <halogenbond:ILE:165>  (171) 
0.0

$$$$
PV-002964785511-Z1318055457-x0806S2
     RDKit          3D

 47 50  0  0  0  0  0  0  0  0999 V2000
  -16.8640  -12.2400  -12.7830 C   0  0  0  0  0  0  0  0  0  0  0  0
  -16.3620  -11.9450  -11.4610 C   0  0  0  0  0  0  0  0  0  0  0  0
  -15.4800  -13.0010  -11.0710 O   0  0  0  0  0  0  0  0  0  0  0  0
  -15.7280  -10.7030  -11.2510 C   0  0  0  0  0  0  0  0  0  0  0  0
  -15.2330  -10.1940  -10.0980 C   0  0  0  0  0  0  0  0  0  0  0  0
  -14.7020   -8.9950  -10.2440 N   0  0  0  0  0  0  0  0  0  0  0  0
  -14.1390   -8.2770   -9.2270 C   0  0  0  0  0  0  0  0  0  0  0  0
  -14.5820   -8.3970   -7.7640 C   0  0  1  0  0  0  0  0  0  0  0  0
  -16.0820   -8.4060   -7.7260 C   0  0  0  0  0  0  0  0  0  0  0  0
  -16.6060   -9.4080   -6.7300 C   0  0  0  0  0  0  0  0  0  0  0  0
  -15.3560  -10.2000   -6.3720 C   0  0  0  0  0  0  0  0  0  0  0  0
  -14.2650   -9.6170   -7.1830 N   0  0  0  0  0  0  0  0  0  0  0  0
  -12.9810   -9.7890   -6.7390 C   0  0  0  0  0  0  0  0  0  0  0  0
  -12.5880   -9.4530   -5.3980 O   0  0  0  0  0  0  0  0  0  0  0  0
  -11.9940  -10.3010   -7.5720 C   0  0  0  0  0  0  0  0  0  0  0  0
  -11.9390  -11.6700   -7.8580 C   0  0  0  0  0  0  0  0  0  0  0  0
  -10.9160  -12.1640   -8.6810 C   0  0  0  0  0  0  0  0  0  0  0  0
   -9.9750  -11.2830   -9.1960 C   0  0  0  0  0  0  0  0  0  0  0  0
  -10.0550   -9.9220   -8.9050 C   0  0  0  0  0  0  0  0  0  0  0  0
   -9.1260   -9.0490   -9.4170 C   0  0  0  0  0  0  0  0  0  0  0  0
   -9.1530   -7.7020   -9.1690 C   0  0  0  0  0  0  0  0  0  0  0  0
  -10.1630   -7.1170   -8.3520 N   0  0  0  0  0  0  0  0  0  0  0  0
  -11.0590   -8.0100   -7.8610 C   0  0  0  0  0  0  0  0  0  0  0  0
  -11.0580   -9.4040   -8.0980 C   0  0  0  0  0  0  0  0  0  0  0  0
  -14.8410   -8.6710  -11.5610 N   0  0  0  0  0  0  0  0  0  0  0  0
  -15.4700   -9.7160  -12.1900 N   0  0  0  0  0  0  0  0  0  0  0  0
  -16.4200  -13.1600  -13.1710 H   0  0  0  0  0  0  0  0  0  0  0  0
  -17.9540  -12.3380  -12.7590 H   0  0  0  0  0  0  0  0  0  0  0  0
  -16.6230  -11.4420  -13.4930 H   0  0  0  0  0  0  0  0  0  0  0  0
  -17.2060  -11.9940  -10.7590 H   0  0  0  0  0  0  0  0  0  0  0  0
  -14.7640  -13.0580  -11.7260 H   0  0  0  0  0  0  0  0  0  0  0  0
  -15.3290  -10.8180   -9.2010 H   0  0  0  0  0  0  0  0  0  0  0  0
  -14.1810   -7.2280   -9.5370 H   0  0  0  0  0  0  0  0  0  0  0  0
  -13.0910   -8.5540   -9.2390 H   0  0  0  0  0  0  0  0  0  0  0  0
  -14.0810   -7.5840   -7.2490 H   0  0  0  0  0  0  0  0  0  0  0  0
  -16.4430   -8.7340   -8.7070 H   0  0  0  0  0  0  0  0  0  0  0  0
  -16.4080   -7.3650   -7.6030 H   0  0  0  0  0  0  0  0  0  0  0  0
  -17.4760   -9.9820   -7.0340 H   0  0  0  0  0  0  0  0  0  0  0  0
  -16.9090   -8.8970   -5.8120 H   0  0  0  0  0  0  0  0  0  0  0  0
  -15.4790  -11.2690   -6.5630 H   0  0  0  0  0  0  0  0  0  0  0  0
  -15.1060  -10.0490   -5.3150 H   0  0  0  0  0  0  0  0  0  0  0  0
  -12.6790  -12.3480   -7.4430 H   0  0  0  0  0  0  0  0  0  0  0  0
  -10.8570  -13.2280   -8.9120 H   0  0  0  0  0  0  0  0  0  0  0  0
   -9.1790  -11.6760   -9.8300 H   0  0  0  0  0  0  0  0  0  0  0  0
   -8.3860   -9.5130  -10.0190 H   0  0  0  0  0  0  0  0  0  0  0  0
   -8.4100   -7.0250   -9.5820 H   0  0  0  0  0  0  0  0  0  0  0  0
  -11.8200   -7.5490   -7.2360 H   0  0  0  0  0  0  0  0  0  0  0  0
  1  2  1  0
  2  3  1  0
  2  4  1  0
  4  5  2  0
  5  6  1  0
  6  7  1  0
  7  8  1  0
  8  9  1  0
  9 10  1  0
 10 11  1  0
 11 12  1  0
 12 13  1  0
 13 14  2  0
 13 15  1  0
 15 16  2  0
 16 17  1  0
 17 18  2  0
 18 19  1  0
 19 20  2  0
 20 21  1  0
 21 22  2  0
 22 23  1  0
 23 24  2  0
  6 25  1  0
 25 26  2  0
 26  4  1  0
 12  8  1  0
 24 15  1  0
 24 19  1  0
  1 27  1  0
  1 28  1  0
  1 29  1  0
  2 30  1  0
  3 31  1  0
  5 32  1  0
  7 33  1  0
  7 34  1  0
  8 35  1  1
  9 36  1  0
  9 37  1  0
 10 38  1  0
 10 39  1  0
 11 40  1  0
 11 41  1  0
 16 42  1  0
 17 43  1  0
 18 44  1  0
 20 45  1  0
 21 46  1  0
 23 47  1  0
A    1
 C1 
A    2
 C2 
A    3
 O1 
A    4
 C3 
A    5
 C4 
A    6
 N1 
A    7
 C5 
A    8
 C6 
A    9
 C7 
A   10
 C8 
A   11
 C9 
A   12
 N2 
A   13
 C10
A   14
 O2 
A   15
 C11
A   16
 C12
A   17
 C13
A   18
 C14
A   19
 C15
A   20
 C16
A   21
 C17
A   22
 N3 
A   23
 C18
A   24
 C19
A   25
 N4 
A   26
 N5 
A   27
 H1 
A   28
 H2 
A   29
 H3 
A   30
 H4 
A   31
 H5 
A   32
 H6 
A   33
 H7 
A   34
 H8 
A   35
 H9 
A   36
 H10
A   37
 H11
A   38
 H12
A   39
 H13
A   40
 H14
A   41
 H15
A   42
 H16
A   43
 H17
A   44
 H18
A   45
 H19
A   46
 H20
A   47
 H21
M  END
>  <ref_pdb>  (172) 
x0051_0B

>  <ref_mols>  (172) 
x0051_0B

>  <original SMILES>  (172) 
[H]OC([H])(c1nnn(C([H])([H])[C@]2([H])N(C(=O)c3c([H])c([H])c([H])c4c([H])c([H])nc([H])c34)C([H])([H])C([H])([H])C2([H])[H])c1[H])C([H])([H])[H]

>  <index>  (172) 
9200.0

>  <∆∆G>  (172) 
-2.875136

>  <comRMSD>  (172) 
0.655539

>  <N_constrained_atoms>  (172) 
27.0

>  <N_unconstrained_atoms>  (172) 
1.0

>  <LE>  (172) 
0.102683

>  <percent_hybrid>  (172) 
30.0

>  <largest_ring>  (172) 
6.0

>  <N_HA>  (172) 
26.0

>  <N_rotatable_bonds>  (172) 
6.0

>  <max_hit_Tanimoto>  (172) 
0.292637

>  <N_interactions_kept>  (172) 
0.5

>  <N_interactions_lost>  (172) 
1.5

>  <interaction_uniqueness_metric>  (172) 
0.079277

>  <N_interactions>  (172) 
6.0

>  <N_PAINS>  (172) 
0.0

>  <UFF_Gibbs>  (172) 
118.286756

>  <strain_per_HA>  (172) 
4.549473

>  <ad_hoc_penalty>  (172) 
-12.403582

>  <cluster>  (172) 
42.0

>  <intxn_cluster>  (172) 
17.0

>  <keep>  (172) 
1.0

>  <hydroph_interaction:GLN:74>  (172) 
0.0

>  <hydroph_interaction:THR:118>  (172) 
0.0

>  <hydroph_interaction:ILE:123>  (172) 
3.0

>  <hydroph_interaction:THR:166>  (172) 
0.0

>  <hbond:GLN:167>  (172) 
2.0

>  <hydroph_interaction:ALA:88>  (172) 
1.0

>  <hydroph_interaction:ASP:120>  (172) 
0.0

>  <hydroph_interaction:GLN:167>  (172) 
0.0

>  <hbond:THR:118>  (172) 
0.0

>  <hydroph_interaction:ALA:164>  (172) 
0.0

>  <hbond:ASP:120>  (172) 
0.0

>  <hbond:THR:166>  (172) 
0.0

>  <hydroph_interaction:LEU:76>  (172) 
0.0

>  <hbond:ILE:165>  (172) 
0.0

>  <halogenbond:GLN:74>  (172) 
0.0

>  <hbond:GLN:74>  (172) 
0.0

>  <hbond:LYS:73>  (172) 
0.0

>  <pistack:TRP:69>  (172) 
0.0

>  <hbond:TRP:83>  (172) 
0.0

>  <hydroph_interaction:TRP:83>  (172) 
0.0

>  <hydroph_interaction:TRP:69>  (172) 
0.0

>  <pication:TRP:69>  (172) 
0.0

>  <hydroph_interaction:PRO:82>  (172) 
0.0

>  <halogenbond:LYS:73>  (172) 
0.0

>  <hydroph_interaction:TYR:68>  (172) 
0.0

>  <halogenbond:GLN:167>  (172) 
0.0

>  <hydroph_interaction:PHE:116>  (172) 
0.0

>  <hbond:TYR:68>  (172) 
0.0

>  <hbond:ASP:122>  (172) 
0.0

>  <pistack:PHE:116>  (172) 
0.0

>  <hydroph_interaction:VAL:154>  (172) 
0.0

>  <hydroph_interaction:ASP:75>  (172) 
0.0

>  <hbond:GLY:121>  (172) 
0.0

>  <hydroph_interaction:ASN:152>  (172) 
0.0

>  <halogenbond:ILE:165>  (172) 
0.0

$$$$
Z1661311737-Z198195906S6-x0806
     RDKit          3D

 30 31  0  0  0  0  0  0  0  0999 V2000
  -16.9050  -12.4290  -12.6090 C   0  0  0  0  0  0  0  0  0  0  0  0
  -16.2880  -11.9230  -11.3290 C   0  0  0  0  0  0  0  0  0  0  0  0
  -15.7380  -10.6350  -11.3740 C   0  0  0  0  0  0  0  0  0  0  0  0
  -15.6520   -9.8730  -12.4710 N   0  0  0  0  0  0  0  0  0  0  0  0
  -15.0570   -8.7090  -12.0540 N   0  0  0  0  0  0  0  0  0  0  0  0
  -14.8170   -8.8250  -10.7650 C   0  0  0  0  0  0  0  0  0  0  0  0
  -14.2100   -7.8950   -9.9220 C   0  0  0  0  0  0  0  0  0  0  0  0
  -14.8570   -7.3650   -8.7940 C   0  0  0  0  0  0  0  0  0  0  0  0
  -14.1000   -6.3710   -7.9600 C   0  0  0  0  0  0  0  0  0  0  0  0
  -12.7170   -6.0230   -8.3740 C   0  0  0  0  0  0  0  0  0  0  0  0
  -12.1340   -6.5920   -9.4930 C   0  0  0  0  0  0  0  0  0  0  0  0
  -10.7410   -6.2580   -9.8610 C   0  0  0  0  0  0  0  0  0  0  0  0
  -10.4320   -5.2690  -10.5070 O   0  0  0  0  0  0  0  0  0  0  0  0
   -9.8450   -7.1810   -9.3730 N   0  0  0  0  0  0  0  0  0  0  0  0
  -10.2840   -8.0820   -8.3300 C   0  0  0  0  0  0  0  0  0  0  0  0
  -12.8980   -7.5060  -10.2450 C   0  0  0  0  0  0  0  0  0  0  0  0
  -15.2260  -10.0390  -10.2510 O   0  0  0  0  0  0  0  0  0  0  0  0
  -16.1400  -12.6930  -13.3470 H   0  0  0  0  0  0  0  0  0  0  0  0
  -17.5020  -13.3260  -12.4130 H   0  0  0  0  0  0  0  0  0  0  0  0
  -17.5390  -11.6590  -13.0620 H   0  0  0  0  0  0  0  0  0  0  0  0
  -17.0720  -11.9350  -10.5610 H   0  0  0  0  0  0  0  0  0  0  0  0
  -15.5020  -12.6240  -11.0250 H   0  0  0  0  0  0  0  0  0  0  0  0
  -15.8650   -7.6480   -8.5140 H   0  0  0  0  0  0  0  0  0  0  0  0
  -14.6340   -5.9750   -7.0930 H   0  0  0  0  0  0  0  0  0  0  0  0
  -12.1450   -5.3010   -7.7720 H   0  0  0  0  0  0  0  0  0  0  0  0
   -8.8570   -6.9750   -9.4180 H   0  0  0  0  0  0  0  0  0  0  0  0
  -11.2420   -8.5260   -8.6190 H   0  0  0  0  0  0  0  0  0  0  0  0
   -9.5480   -8.8770   -8.2110 H   0  0  0  0  0  0  0  0  0  0  0  0
  -10.3840   -7.5480   -7.3800 H   0  0  0  0  0  0  0  0  0  0  0  0
  -12.4680   -7.9560  -11.1200 H   0  0  0  0  0  0  0  0  0  0  0  0
  1  2  1  0
  2  3  1  0
  3  4  2  0
  4  5  1  0
  5  6  2  0
  6  7  1  0
  7  8  2  0
  8  9  1  0
  9 10  2  0
 10 11  1  0
 11 12  1  0
 12 13  2  0
 12 14  1  0
 14 15  1  0
 11 16  2  0
  6 17  1  0
 17  3  1  0
 16  7  1  0
  1 18  1  0
  1 19  1  0
  1 20  1  0
  2 21  1  0
  2 22  1  0
  8 23  1  0
  9 24  1  0
 10 25  1  0
 14 26  1  0
 15 27  1  0
 15 28  1  0
 15 29  1  0
 16 30  1  0
A    1
 C1 
A    2
 C2 
A    3
 C3 
A    4
 N1 
A    5
 N2 
A    6
 C4 
A    7
 C5 
A    8
 C6 
A    9
 C7 
A   10
 C8 
A   11
 C9 
A   12
 C10
A   13
 O1 
A   14
 N3 
A   15
 C11
A   16
 C12
A   17
 O2 
A   18
 H1 
A   19
 H2 
A   20
 H3 
A   21
 H4 
A   22
 H5 
A   23
 H6 
A   24
 H7 
A   25
 H8 
A   26
 H9 
A   27
 H10
A   28
 H11
A   29
 H12
A   30
 H13
M  END
>  <ref_pdb>  (173) 
x0051_0B

>  <ref_mols>  (173) 
x0051_0B

>  <original SMILES>  (173) 
[H]c1c([H])c(C(=O)N([H])C([H])([H])[H])c([H])c(-c2nnc(C([H])([H])C([H])([H])[H])o2)c1[H]

>  <index>  (173) 
187.0

>  <∆∆G>  (173) 
-5.684725

>  <comRMSD>  (173) 
0.458402

>  <N_constrained_atoms>  (173) 
18.0

>  <N_unconstrained_atoms>  (173) 
0.0

>  <LE>  (173) 
0.315818

>  <percent_hybrid>  (173) 
24.0

>  <largest_ring>  (173) 
6.0

>  <N_HA>  (173) 
17.0

>  <N_rotatable_bonds>  (173) 
5.0

>  <max_hit_Tanimoto>  (173) 
0.176207

>  <N_interactions_kept>  (173) 
0.5

>  <N_interactions_lost>  (173) 
1.5

>  <interaction_uniqueness_metric>  (173) 
0.072028

>  <N_interactions>  (173) 
4.0

>  <N_PAINS>  (173) 
0.0

>  <UFF_Gibbs>  (173) 
61.998386

>  <strain_per_HA>  (173) 
3.646942

>  <ad_hoc_penalty>  (173) 
-12.270948

>  <cluster>  (173) 
5906.0

>  <intxn_cluster>  (173) 
17.0

>  <keep>  (173) 
1.0

>  <hydroph_interaction:GLN:74>  (173) 
0.0

>  <hydroph_interaction:THR:118>  (173) 
0.0

>  <hydroph_interaction:ILE:123>  (173) 
1.0

>  <hydroph_interaction:THR:166>  (173) 
0.0

>  <hbond:GLN:167>  (173) 
2.0

>  <hydroph_interaction:ALA:88>  (173) 
1.0

>  <hydroph_interaction:ASP:120>  (173) 
0.0

>  <hydroph_interaction:GLN:167>  (173) 
0.0

>  <hbond:THR:118>  (173) 
0.0

>  <hydroph_interaction:ALA:164>  (173) 
0.0

>  <hbond:ASP:120>  (173) 
0.0

>  <hbond:THR:166>  (173) 
0.0

>  <hydroph_interaction:LEU:76>  (173) 
0.0

>  <hbond:ILE:165>  (173) 
0.0

>  <halogenbond:GLN:74>  (173) 
0.0

>  <hbond:GLN:74>  (173) 
0.0

>  <hbond:LYS:73>  (173) 
0.0

>  <pistack:TRP:69>  (173) 
0.0

>  <hbond:TRP:83>  (173) 
0.0

>  <hydroph_interaction:TRP:83>  (173) 
0.0

>  <hydroph_interaction:TRP:69>  (173) 
0.0

>  <pication:TRP:69>  (173) 
0.0

>  <hydroph_interaction:PRO:82>  (173) 
0.0

>  <halogenbond:LYS:73>  (173) 
0.0

>  <hydroph_interaction:TYR:68>  (173) 
0.0

>  <halogenbond:GLN:167>  (173) 
0.0

>  <hydroph_interaction:PHE:116>  (173) 
0.0

>  <hbond:TYR:68>  (173) 
0.0

>  <hbond:ASP:122>  (173) 
0.0

>  <pistack:PHE:116>  (173) 
0.0

>  <hydroph_interaction:VAL:154>  (173) 
0.0

>  <hydroph_interaction:ASP:75>  (173) 
0.0

>  <hbond:GLY:121>  (173) 
0.0

>  <hydroph_interaction:ASN:152>  (173) 
0.0

>  <halogenbond:ILE:165>  (173) 
0.0

$$$$
Z1571881146-x0214S1-Z1318054286S4
     RDKit          3D

 25 25  0  0  0  0  0  0  0  0999 V2000
   -9.8180   -9.5380   -7.5420 C   0  0  0  0  0  0  0  0  0  0  0  0
  -11.1140   -9.1740   -7.0400 O   0  0  0  0  0  0  0  0  0  0  0  0
  -12.1880   -9.9670   -7.3840 C   0  0  0  0  0  0  0  0  0  0  0  0
  -11.9170  -11.0700   -7.8170 O   0  0  0  0  0  0  0  0  0  0  0  0
  -13.5510   -9.5810   -7.2470 N   0  0  0  0  0  0  0  0  0  0  0  0
  -14.4120  -10.1890   -6.2190 C   0  0  0  0  0  0  0  0  0  0  0  0
  -15.9000   -9.8150   -6.3730 C   0  0  0  0  0  0  0  0  0  0  0  0
  -16.1490   -9.6850   -7.7740 O   0  0  0  0  0  0  0  0  0  0  0  0
  -15.5760   -8.4660   -8.2370 C   0  0  0  0  0  0  0  0  0  0  0  0
  -14.1170   -8.2960   -7.7670 C   0  0  0  0  0  0  0  0  0  0  0  0
  -13.2920   -7.5970   -8.8500 C   0  0  0  0  0  0  0  0  0  0  0  0
  -12.4300   -6.9840   -9.3160 N   0  0  0  0  0  0  0  0  0  0  0  0
  -13.9390   -7.7930   -9.8740 O   0  0  0  0  0  0  0  0  0  0  0  0
   -9.0600   -9.5240   -6.7510 H   0  0  0  0  0  0  0  0  0  0  0  0
   -9.4870   -8.8400   -8.3180 H   0  0  0  0  0  0  0  0  0  0  0  0
   -9.8690  -10.5490   -7.9630 H   0  0  0  0  0  0  0  0  0  0  0  0
  -14.1830  -11.2510   -6.2260 H   0  0  0  0  0  0  0  0  0  0  0  0
  -14.0400   -9.8050   -5.2640 H   0  0  0  0  0  0  0  0  0  0  0  0
  -16.4330   -8.9950   -5.9190 H   0  0  0  0  0  0  0  0  0  0  0  0
  -16.4740  -10.6970   -6.0640 H   0  0  0  0  0  0  0  0  0  0  0  0
  -15.6400   -8.4690   -9.3270 H   0  0  0  0  0  0  0  0  0  0  0  0
  -16.1730   -7.6220   -7.8640 H   0  0  0  0  0  0  0  0  0  0  0  0
  -14.1150   -7.6330   -6.8980 H   0  0  0  0  0  0  0  0  0  0  0  0
  -11.6370   -6.7560   -8.7170 H   0  0  0  0  0  0  0  0  0  0  0  0
  -12.2470   -7.1210  -10.3030 H   0  0  0  0  0  0  0  0  0  0  0  0
  1  2  1  0
  2  3  1  0
  3  4  2  0
  3  5  1  0
  5  6  1  0
  6  7  1  0
  7  8  1  0
  8  9  1  0
  9 10  1  0
 10 11  1  0
 11 12  1  0
 11 13  2  0
 10  5  1  0
  1 14  1  0
  1 15  1  0
  1 16  1  0
  6 17  1  0
  6 18  1  0
  7 19  1  0
  7 20  1  0
  9 21  1  0
  9 22  1  0
 10 23  1  0
 12 24  1  0
 12 25  1  0
A    1
 C1 
A    2
 O1 
A    3
 C2 
A    4
 O2 
A    5
 N1 
A    6
 C3 
A    7
 C4 
A    8
 O3 
A    9
 C5 
A   10
 C6 
A   11
 C7 
A   12
 N2 
A   13
 O4 
A   14
 H1 
A   15
 H2 
A   16
 H3 
A   17
 H4 
A   18
 H5 
A   19
 H6 
A   20
 H7 
A   21
 H8 
A   22
 H9 
A   23
 H10
A   24
 H11
A   25
 H12
M  END
>  <ref_pdb>  (174) 
x0051_0B

>  <ref_mols>  (174) 
x0051_0B

>  <original SMILES>  (174) 
[H]N([H])C(=O)C1([H])N(C(=O)OC([H])([H])[H])C([H])([H])C([H])([H])OC1([H])[H]

>  <index>  (174) 
10532.0

>  <∆∆G>  (174) 
-1.870356

>  <comRMSD>  (174) 
0.768596

>  <N_constrained_atoms>  (174) 
12.0

>  <N_unconstrained_atoms>  (174) 
1.0

>  <LE>  (174) 
0.143874

>  <percent_hybrid>  (174) 
34.0

>  <largest_ring>  (174) 
6.0

>  <N_HA>  (174) 
13.0

>  <N_rotatable_bonds>  (174) 
2.0

>  <max_hit_Tanimoto>  (174) 
0.232456

>  <N_interactions_kept>  (174) 
0.0

>  <N_interactions_lost>  (174) 
0.0

>  <interaction_uniqueness_metric>  (174) 
0.021572

>  <N_interactions>  (174) 
2.0

>  <N_PAINS>  (174) 
0.0

>  <UFF_Gibbs>  (174) 
216.773982

>  <strain_per_HA>  (174) 
16.674793

>  <ad_hoc_penalty>  (174) 
-12.174954

>  <cluster>  (174) 
902.0

>  <intxn_cluster>  (174) 
8.0

>  <keep>  (174) 
1.0

>  <hydroph_interaction:GLN:74>  (174) 
0.0

>  <hydroph_interaction:THR:118>  (174) 
0.0

>  <hydroph_interaction:ILE:123>  (174) 
0.0

>  <hydroph_interaction:THR:166>  (174) 
0.0

>  <hbond:GLN:167>  (174) 
2.0

>  <hydroph_interaction:ALA:88>  (174) 
0.0

>  <hydroph_interaction:ASP:120>  (174) 
0.0

>  <hydroph_interaction:GLN:167>  (174) 
0.0

>  <hbond:THR:118>  (174) 
0.0

>  <hydroph_interaction:ALA:164>  (174) 
0.0

>  <hbond:ASP:120>  (174) 
0.0

>  <hbond:THR:166>  (174) 
0.0

>  <hydroph_interaction:LEU:76>  (174) 
0.0

>  <hbond:ILE:165>  (174) 
0.0

>  <halogenbond:GLN:74>  (174) 
0.0

>  <hbond:GLN:74>  (174) 
0.0

>  <hbond:LYS:73>  (174) 
0.0

>  <pistack:TRP:69>  (174) 
0.0

>  <hbond:TRP:83>  (174) 
0.0

>  <hydroph_interaction:TRP:83>  (174) 
0.0

>  <hydroph_interaction:TRP:69>  (174) 
0.0

>  <pication:TRP:69>  (174) 
0.0

>  <hydroph_interaction:PRO:82>  (174) 
0.0

>  <halogenbond:LYS:73>  (174) 
0.0

>  <hydroph_interaction:TYR:68>  (174) 
0.0

>  <halogenbond:GLN:167>  (174) 
0.0

>  <hydroph_interaction:PHE:116>  (174) 
0.0

>  <hbond:TYR:68>  (174) 
0.0

>  <hbond:ASP:122>  (174) 
0.0

>  <pistack:PHE:116>  (174) 
0.0

>  <hydroph_interaction:VAL:154>  (174) 
0.0

>  <hydroph_interaction:ASP:75>  (174) 
0.0

>  <hbond:GLY:121>  (174) 
0.0

>  <hydroph_interaction:ASN:152>  (174) 
0.0

>  <halogenbond:ILE:165>  (174) 
0.0

$$$$
PV-002791706302-x0806-Z198195906S9
     RDKit          3D

 44 46  0  0  0  0  0  0  0  0999 V2000
  -17.3340  -12.2990  -12.4310 C   0  0  0  0  0  0  0  0  0  0  0  0
  -16.0190  -12.0900  -11.7440 C   0  0  0  0  0  0  0  0  0  0  0  0
  -15.9730  -12.9070  -10.5750 O   0  0  0  0  0  0  0  0  0  0  0  0
  -15.5830  -10.6580  -11.4400 C   0  0  0  0  0  0  0  0  0  0  0  0
  -15.2070  -10.1640  -10.1980 C   0  0  0  0  0  0  0  0  0  0  0  0
  -14.8880   -8.8440  -10.4470 N   0  0  0  0  0  0  0  0  0  0  0  0
  -14.4280   -7.8840   -9.6080 C   0  0  0  0  0  0  0  0  0  0  0  0
  -15.0800   -7.2710   -8.5480 C   0  0  0  0  0  0  0  0  0  0  0  0
  -14.3930   -6.2970   -7.8150 C   0  0  0  0  0  0  0  0  0  0  0  0
  -13.0870   -5.9320   -8.0970 C   0  0  0  0  0  0  0  0  0  0  0  0
  -12.4280   -6.5390   -9.1330 C   0  0  0  0  0  0  0  0  0  0  0  0
  -11.0830   -6.2000   -9.3990 C   0  0  0  0  0  0  0  0  0  0  0  0
  -10.7540   -5.1960  -10.0190 O   0  0  0  0  0  0  0  0  0  0  0  0
  -10.1840   -7.1190   -8.8780 N   0  0  0  0  0  0  0  0  0  0  0  0
   -8.8100   -7.1920   -9.3410 C   0  0  0  0  0  0  0  0  0  0  0  0
  -10.5600   -8.0180   -7.7680 C   0  0  0  0  0  0  0  0  0  0  0  0
  -10.7480   -9.4790   -8.1190 C   0  0  0  0  0  0  0  0  0  0  0  0
  -11.9230  -10.1510   -7.7420 C   0  0  0  0  0  0  0  0  0  0  0  0
  -12.0800  -11.5020   -8.0580 C   0  0  0  0  0  0  0  0  0  0  0  0
  -11.0650  -12.1510   -8.7430 C   0  0  0  0  0  0  0  0  0  0  0  0
   -9.9310  -11.4210   -9.0850 C   0  0  0  0  0  0  0  0  0  0  0  0
   -9.7550  -10.1110   -8.7890 N   0  0  0  0  0  0  0  0  0  0  0  0
  -13.1470   -7.5110   -9.8740 C   0  0  0  0  0  0  0  0  0  0  0  0
  -15.0800   -8.5880  -11.7710 N   0  0  0  0  0  0  0  0  0  0  0  0
  -15.5030   -9.6850  -12.3810 N   0  0  0  0  0  0  0  0  0  0  0  0
  -17.3670  -13.2810  -12.9180 H   0  0  0  0  0  0  0  0  0  0  0  0
  -18.1570  -12.2220  -11.7160 H   0  0  0  0  0  0  0  0  0  0  0  0
  -17.5030  -11.5430  -13.2070 H   0  0  0  0  0  0  0  0  0  0  0  0
  -15.2560  -12.5190  -12.4050 H   0  0  0  0  0  0  0  0  0  0  0  0
  -16.5400  -12.4630   -9.9150 H   0  0  0  0  0  0  0  0  0  0  0  0
  -15.1410  -10.6270   -9.2250 H   0  0  0  0  0  0  0  0  0  0  0  0
  -16.0970   -7.5390   -8.2910 H   0  0  0  0  0  0  0  0  0  0  0  0
  -14.9890   -5.8730   -7.0140 H   0  0  0  0  0  0  0  0  0  0  0  0
  -12.6790   -5.1650   -7.4340 H   0  0  0  0  0  0  0  0  0  0  0  0
   -8.5170   -8.2230   -9.5520 H   0  0  0  0  0  0  0  0  0  0  0  0
   -8.6500   -6.5820  -10.2390 H   0  0  0  0  0  0  0  0  0  0  0  0
   -8.1690   -6.7920   -8.5480 H   0  0  0  0  0  0  0  0  0  0  0  0
   -9.8100   -7.9830   -6.9770 H   0  0  0  0  0  0  0  0  0  0  0  0
  -11.4700   -7.6060   -7.3230 H   0  0  0  0  0  0  0  0  0  0  0  0
  -12.7080   -9.6330   -7.2050 H   0  0  0  0  0  0  0  0  0  0  0  0
  -12.9800  -12.0380   -7.7730 H   0  0  0  0  0  0  0  0  0  0  0  0
  -11.1450  -13.1980   -9.0080 H   0  0  0  0  0  0  0  0  0  0  0  0
   -9.1060  -11.8870   -9.6250 H   0  0  0  0  0  0  0  0  0  0  0  0
  -12.7250   -8.0280  -10.6880 H   0  0  0  0  0  0  0  0  0  0  0  0
  1  2  1  0
  2  3  1  0
  2  4  1  0
  4  5  2  0
  5  6  1  0
  6  7  1  0
  7  8  2  0
  8  9  1  0
  9 10  2  0
 10 11  1  0
 11 12  1  0
 12 13  2  0
 12 14  1  0
 14 15  1  0
 14 16  1  0
 16 17  1  0
 17 18  2  0
 18 19  1  0
 19 20  2  0
 20 21  1  0
 21 22  2  0
 11 23  2  0
  6 24  1  0
 24 25  2  0
 25  4  1  0
 23  7  1  0
 22 17  1  0
  1 26  1  0
  1 27  1  0
  1 28  1  0
  2 29  1  0
  3 30  1  0
  5 31  1  0
  8 32  1  0
  9 33  1  0
 10 34  1  0
 15 35  1  0
 15 36  1  0
 15 37  1  0
 16 38  1  0
 16 39  1  0
 18 40  1  0
 19 41  1  0
 20 42  1  0
 21 43  1  0
 23 44  1  0
A    1
 C1 
A    2
 C2 
A    3
 O1 
A    4
 C3 
A    5
 C4 
A    6
 N1 
A    7
 C5 
A    8
 C6 
A    9
 C7 
A   10
 C8 
A   11
 C9 
A   12
 C10
A   13
 O2 
A   14
 N2 
A   15
 C11
A   16
 C12
A   17
 C13
A   18
 C14
A   19
 C15
A   20
 C16
A   21
 C17
A   22
 N3 
A   23
 C18
A   24
 N4 
A   25
 N5 
A   26
 H1 
A   27
 H2 
A   28
 H3 
A   29
 H4 
A   30
 H5 
A   31
 H6 
A   32
 H7 
A   33
 H8 
A   34
 H9 
A   35
 H10
A   36
 H11
A   37
 H12
A   38
 H13
A   39
 H14
A   40
 H15
A   41
 H16
A   42
 H17
A   43
 H18
A   44
 H19
M  END
>  <ref_pdb>  (175) 
x0051_0B

>  <ref_mols>  (175) 
x0051_0B

>  <original SMILES>  (175) 
[H]OC([H])(c1nnn(-c2c([H])c([H])c([H])c(C(=O)N(C([H])([H])[H])C([H])([H])c3nc([H])c([H])c([H])c3[H])c2[H])c1[H])C([H])([H])[H]

>  <index>  (175) 
132.0

>  <∆∆G>  (175) 
-6.278832

>  <comRMSD>  (175) 
0.576228

>  <N_constrained_atoms>  (175) 
24.0

>  <N_unconstrained_atoms>  (175) 
1.0

>  <LE>  (175) 
0.251153

>  <percent_hybrid>  (175) 
44.0

>  <largest_ring>  (175) 
6.0

>  <N_HA>  (175) 
25.0

>  <N_rotatable_bonds>  (175) 
8.0

>  <max_hit_Tanimoto>  (175) 
0.441043

>  <N_interactions_kept>  (175) 
1.0

>  <N_interactions_lost>  (175) 
2.0

>  <interaction_uniqueness_metric>  (175) 
0.123426

>  <N_interactions>  (175) 
6.0

>  <N_PAINS>  (175) 
0.0

>  <UFF_Gibbs>  (175) 
58.59821

>  <strain_per_HA>  (175) 
2.343919

>  <ad_hoc_penalty>  (175) 
-12.04606

>  <cluster>  (175) 
460.0

>  <intxn_cluster>  (175) 
16.0

>  <keep>  (175) 
1.0

>  <hydroph_interaction:GLN:74>  (175) 
1.0

>  <hydroph_interaction:THR:118>  (175) 
0.0

>  <hydroph_interaction:ILE:123>  (175) 
1.0

>  <hydroph_interaction:THR:166>  (175) 
0.0

>  <hbond:GLN:167>  (175) 
2.0

>  <hydroph_interaction:ALA:88>  (175) 
1.0

>  <hydroph_interaction:ASP:120>  (175) 
0.0

>  <hydroph_interaction:GLN:167>  (175) 
0.0

>  <hbond:THR:118>  (175) 
1.0

>  <hydroph_interaction:ALA:164>  (175) 
0.0

>  <hbond:ASP:120>  (175) 
0.0

>  <hbond:THR:166>  (175) 
0.0

>  <hydroph_interaction:LEU:76>  (175) 
0.0

>  <hbond:ILE:165>  (175) 
0.0

>  <halogenbond:GLN:74>  (175) 
0.0

>  <hbond:GLN:74>  (175) 
0.0

>  <hbond:LYS:73>  (175) 
0.0

>  <pistack:TRP:69>  (175) 
0.0

>  <hbond:TRP:83>  (175) 
0.0

>  <hydroph_interaction:TRP:83>  (175) 
0.0

>  <hydroph_interaction:TRP:69>  (175) 
0.0

>  <pication:TRP:69>  (175) 
0.0

>  <hydroph_interaction:PRO:82>  (175) 
0.0

>  <halogenbond:LYS:73>  (175) 
0.0

>  <hydroph_interaction:TYR:68>  (175) 
0.0

>  <halogenbond:GLN:167>  (175) 
0.0

>  <hydroph_interaction:PHE:116>  (175) 
0.0

>  <hbond:TYR:68>  (175) 
0.0

>  <hbond:ASP:122>  (175) 
0.0

>  <pistack:PHE:116>  (175) 
0.0

>  <hydroph_interaction:VAL:154>  (175) 
0.0

>  <hydroph_interaction:ASP:75>  (175) 
0.0

>  <hbond:GLY:121>  (175) 
0.0

>  <hydroph_interaction:ASN:152>  (175) 
0.0

>  <halogenbond:ILE:165>  (175) 
0.0

$$$$
Z4315456095-x0214S3-x0884
     RDKit          3D

 39 40  0  0  0  0  0  0  0  0999 V2000
   -9.7930  -10.0340   -7.6820 N   0  0  0  0  0  0  0  0  0  0  0  0
  -10.6140  -11.1180   -7.8110 C   0  0  0  0  0  0  0  0  0  0  0  0
  -10.1630  -12.3210   -8.4160 O   0  0  0  0  0  0  0  0  0  0  0  0
  -12.0230  -10.9280   -7.2660 C   0  0  0  0  0  0  0  0  0  0  0  0
  -12.5010   -9.6690   -7.2740 N   0  0  0  0  0  0  0  0  0  0  0  0
  -13.8980   -9.5760   -7.7190 C   0  0  0  0  0  0  0  0  0  0  0  0
  -14.7840  -10.0820   -6.6190 C   0  0  0  0  0  0  0  0  0  0  0  0
  -16.1010   -9.6600   -6.6000 C   0  0  0  0  0  0  0  0  0  0  0  0
  -16.3710   -8.4510   -7.2340 C   0  0  0  0  0  0  0  0  0  0  0  0
  -15.4960   -7.9910   -8.2420 C   0  0  0  0  0  0  0  0  0  0  0  0
  -14.1350   -8.2840   -8.2150 C   0  0  0  0  0  0  0  0  0  0  0  0
  -13.3270   -7.2030   -7.5780 C   0  0  0  0  0  0  0  0  0  0  0  0
  -12.9250   -6.0850   -8.3030 C   0  0  0  0  0  0  0  0  0  0  0  0
  -12.5420   -6.3100   -9.7320 C   0  0  0  0  0  0  0  0  0  0  0  0
  -13.4510   -7.2470  -10.3600 N   0  0  0  0  0  0  0  0  0  0  0  0
  -13.5770   -8.4380   -9.5190 C   0  0  0  0  0  0  0  0  0  0  0  0
   -9.0680   -9.9980   -6.9790 H   0  0  0  0  0  0  0  0  0  0  0  0
  -10.1260   -9.1600   -8.0670 H   0  0  0  0  0  0  0  0  0  0  0  0
  -12.0070  -11.2700   -6.2250 H   0  0  0  0  0  0  0  0  0  0  0  0
  -12.6900  -11.6100   -7.8080 H   0  0  0  0  0  0  0  0  0  0  0  0
  -11.9120   -9.0520   -7.8190 H   0  0  0  0  0  0  0  0  0  0  0  0
  -14.0330  -10.2230   -8.5900 H   0  0  0  0  0  0  0  0  0  0  0  0
  -14.7580  -11.1790   -6.6250 H   0  0  0  0  0  0  0  0  0  0  0  0
  -14.3300   -9.7860   -5.6670 H   0  0  0  0  0  0  0  0  0  0  0  0
  -16.3980   -9.5210   -5.5540 H   0  0  0  0  0  0  0  0  0  0  0  0
  -16.7430  -10.4450   -7.0160 H   0  0  0  0  0  0  0  0  0  0  0  0
  -17.3840   -8.5020   -7.6480 H   0  0  0  0  0  0  0  0  0  0  0  0
  -16.4410   -7.6820   -6.4590 H   0  0  0  0  0  0  0  0  0  0  0  0
  -15.6130   -6.9000   -8.2980 H   0  0  0  0  0  0  0  0  0  0  0  0
  -15.8780   -8.3510   -9.2030 H   0  0  0  0  0  0  0  0  0  0  0  0
  -13.9170   -6.8350   -6.7270 H   0  0  0  0  0  0  0  0  0  0  0  0
  -12.4180   -7.6280   -7.1440 H   0  0  0  0  0  0  0  0  0  0  0  0
  -12.0700   -5.6440   -7.7800 H   0  0  0  0  0  0  0  0  0  0  0  0
  -13.7340   -5.3480   -8.2730 H   0  0  0  0  0  0  0  0  0  0  0  0
  -11.5170   -6.6980   -9.7850 H   0  0  0  0  0  0  0  0  0  0  0  0
  -12.5510   -5.3680  -10.2880 H   0  0  0  0  0  0  0  0  0  0  0  0
  -13.0640   -7.5240  -11.2640 H   0  0  0  0  0  0  0  0  0  0  0  0
  -14.1570   -9.1790  -10.0840 H   0  0  0  0  0  0  0  0  0  0  0  0
  -12.5730   -8.8550   -9.4350 H   0  0  0  0  0  0  0  0  0  0  0  0
  1  2  1  0
  2  3  2  0
  2  4  1  0
  4  5  1  0
  5  6  1  0
  6  7  1  0
  7  8  1  0
  8  9  1  0
  9 10  1  0
 10 11  1  0
 11 12  1  0
 12 13  1  0
 13 14  1  0
 14 15  1  0
 15 16  1  0
 11  6  1  0
 16 11  1  0
  1 17  1  0
  1 18  1  0
  4 19  1  0
  4 20  1  0
  5 21  1  0
  6 22  1  0
  7 23  1  0
  7 24  1  0
  8 25  1  0
  8 26  1  0
  9 27  1  0
  9 28  1  0
 10 29  1  0
 10 30  1  0
 12 31  1  0
 12 32  1  0
 13 33  1  0
 13 34  1  0
 14 35  1  0
 14 36  1  0
 15 37  1  0
 16 38  1  0
 16 39  1  0
A    1
 N1 
A    2
 C1 
A    3
 O1 
A    4
 C2 
A    5
 N2 
A    6
 C3 
A    7
 C4 
A    8
 C5 
A    9
 C6 
A   10
 C7 
A   11
 C8 
A   12
 C9 
A   13
 C10
A   14
 C11
A   15
 N3 
A   16
 C12
A   17
 H1 
A   18
 H2 
A   19
 H3 
A   20
 H4 
A   21
 H5 
A   22
 H6 
A   23
 H7 
A   24
 H8 
A   25
 H9 
A   26
 H10
A   27
 H11
A   28
 H12
A   29
 H13
A   30
 H14
A   31
 H15
A   32
 H16
A   33
 H17
A   34
 H18
A   35
 H19
A   36
 H20
A   37
 H21
A   38
 H22
A   39
 H23
M  END
>  <ref_pdb>  (176) 
x0051_0B

>  <ref_mols>  (176) 
x0051_0B

>  <original SMILES>  (176) 
[H]N([H])C(=O)C([H])([H])N([H])C1([H])C([H])([H])C([H])([H])C([H])([H])C([H])([H])C12C([H])([H])N([H])C([H])([H])C([H])([H])C2([H])[H]

>  <index>  (176) 
8621.0

>  <∆∆G>  (176) 
-1.230086

>  <comRMSD>  (176) 
0.978432

>  <N_constrained_atoms>  (176) 
18.0

>  <N_unconstrained_atoms>  (176) 
0.0

>  <LE>  (176) 
0.068338

>  <percent_hybrid>  (176) 
25.0

>  <largest_ring>  (176) 
6.0

>  <N_HA>  (176) 
16.0

>  <N_rotatable_bonds>  (176) 
3.0

>  <max_hit_Tanimoto>  (176) 
0.092496

>  <N_interactions_kept>  (176) 
0.5

>  <N_interactions_lost>  (176) 
1.0

>  <interaction_uniqueness_metric>  (176) 
0.173412

>  <N_interactions>  (176) 
4.0

>  <N_PAINS>  (176) 
0.0

>  <UFF_Gibbs>  (176) 
264.154485

>  <strain_per_HA>  (176) 
16.509552

>  <ad_hoc_penalty>  (176) 
-11.850999

>  <cluster>  (176) 
157.0

>  <intxn_cluster>  (176) 
8.0

>  <keep>  (176) 
1.0

>  <hydroph_interaction:GLN:74>  (176) 
0.0

>  <hydroph_interaction:THR:118>  (176) 
0.0

>  <hydroph_interaction:ILE:123>  (176) 
0.0

>  <hydroph_interaction:THR:166>  (176) 
0.0

>  <hbond:GLN:167>  (176) 
1.0

>  <hydroph_interaction:ALA:88>  (176) 
0.0

>  <hydroph_interaction:ASP:120>  (176) 
0.0

>  <hydroph_interaction:GLN:167>  (176) 
0.0

>  <hbond:THR:118>  (176) 
2.0

>  <hydroph_interaction:ALA:164>  (176) 
0.0

>  <hbond:ASP:120>  (176) 
0.0

>  <hbond:THR:166>  (176) 
0.0

>  <hydroph_interaction:LEU:76>  (176) 
0.0

>  <hbond:ILE:165>  (176) 
1.0

>  <halogenbond:GLN:74>  (176) 
0.0

>  <hbond:GLN:74>  (176) 
0.0

>  <hbond:LYS:73>  (176) 
0.0

>  <pistack:TRP:69>  (176) 
0.0

>  <hbond:TRP:83>  (176) 
0.0

>  <hydroph_interaction:TRP:83>  (176) 
0.0

>  <hydroph_interaction:TRP:69>  (176) 
0.0

>  <pication:TRP:69>  (176) 
0.0

>  <hydroph_interaction:PRO:82>  (176) 
0.0

>  <halogenbond:LYS:73>  (176) 
0.0

>  <hydroph_interaction:TYR:68>  (176) 
0.0

>  <halogenbond:GLN:167>  (176) 
0.0

>  <hydroph_interaction:PHE:116>  (176) 
0.0

>  <hbond:TYR:68>  (176) 
0.0

>  <hbond:ASP:122>  (176) 
0.0

>  <pistack:PHE:116>  (176) 
0.0

>  <hydroph_interaction:VAL:154>  (176) 
0.0

>  <hydroph_interaction:ASP:75>  (176) 
0.0

>  <hbond:GLY:121>  (176) 
0.0

>  <hydroph_interaction:ASN:152>  (176) 
0.0

>  <halogenbond:ILE:165>  (176) 
0.0

$$$$
Z3344028373-Z198195906S1-x0806S2
     RDKit          3D

 35 35  0  0  0  0  0  0  0  0999 V2000
   -9.8970   -5.0860  -10.1860 C   0  0  0  0  0  0  0  0  0  0  0  0
  -10.7680   -6.2340   -9.7910 C   0  0  0  0  0  0  0  0  0  0  0  0
  -10.2070   -7.3750   -9.2140 C   0  0  0  0  0  0  0  0  0  0  0  0
  -12.2600   -6.1930  -10.0000 C   0  0  0  0  0  0  0  0  0  0  0  0
  -12.7990   -7.4380  -10.3280 C   0  0  0  0  0  0  0  0  0  0  0  0
  -13.9300   -8.0380   -9.5330 C   0  0  0  0  0  0  0  0  0  0  0  0
  -14.8310   -6.9860   -8.8760 C   0  0  0  0  0  0  0  0  0  0  0  0
  -14.6590   -8.9780  -10.3940 N   0  0  0  0  0  0  0  0  0  0  0  0
  -15.1620  -10.1880  -10.0430 C   0  0  0  0  0  0  0  0  0  0  0  0
  -15.7260  -10.6790  -11.2030 C   0  0  0  0  0  0  0  0  0  0  0  0
  -16.4200  -11.9810  -11.4230 C   0  0  0  0  0  0  0  0  0  0  0  0
  -16.8580  -12.1790  -12.8710 C   0  0  0  0  0  0  0  0  0  0  0  0
  -15.5010  -13.0560  -11.0200 N   0  0  0  0  0  0  0  0  0  0  0  0
  -15.5510   -9.7560  -12.2030 N   0  0  0  0  0  0  0  0  0  0  0  0
  -14.8990   -8.7150  -11.6940 N   0  0  0  0  0  0  0  0  0  0  0  0
  -10.3380   -4.1900  -10.6380 H   0  0  0  0  0  0  0  0  0  0  0  0
   -8.8130   -5.1200  -10.0330 H   0  0  0  0  0  0  0  0  0  0  0  0
  -10.9690   -8.1460   -9.0650 H   0  0  0  0  0  0  0  0  0  0  0  0
   -9.3800   -7.8560   -9.7270 H   0  0  0  0  0  0  0  0  0  0  0  0
   -9.8470   -7.1130   -8.2130 H   0  0  0  0  0  0  0  0  0  0  0  0
  -12.7210   -5.7960   -9.1090 H   0  0  0  0  0  0  0  0  0  0  0  0
  -12.4910   -5.4860  -10.8050 H   0  0  0  0  0  0  0  0  0  0  0  0
  -13.0830   -7.4170  -11.3860 H   0  0  0  0  0  0  0  0  0  0  0  0
  -11.9810   -8.1600  -10.2740 H   0  0  0  0  0  0  0  0  0  0  0  0
  -13.5050   -8.6660   -8.7420 H   0  0  0  0  0  0  0  0  0  0  0  0
  -15.3340   -6.3920   -9.6370 H   0  0  0  0  0  0  0  0  0  0  0  0
  -14.2410   -6.2950   -8.2610 H   0  0  0  0  0  0  0  0  0  0  0  0
  -15.5990   -7.4430   -8.2440 H   0  0  0  0  0  0  0  0  0  0  0  0
  -15.0820  -10.5980   -9.0300 H   0  0  0  0  0  0  0  0  0  0  0  0
  -17.3060  -12.0320  -10.7800 H   0  0  0  0  0  0  0  0  0  0  0  0
  -17.5210  -13.0450  -12.9810 H   0  0  0  0  0  0  0  0  0  0  0  0
  -15.9910  -12.3460  -13.5200 H   0  0  0  0  0  0  0  0  0  0  0  0
  -17.3930  -11.2970  -13.2450 H   0  0  0  0  0  0  0  0  0  0  0  0
  -15.3520  -13.6550  -11.8360 H   0  0  0  0  0  0  0  0  0  0  0  0
  -14.5870  -12.6450  -10.8340 H   0  0  0  0  0  0  0  0  0  0  0  0
  1  2  2  0
  2  3  1  0
  2  4  1  0
  4  5  1  0
  5  6  1  0
  6  7  1  0
  6  8  1  0
  8  9  1  0
  9 10  2  0
 10 11  1  0
 11 12  1  0
 11 13  1  0
 10 14  1  0
 14 15  2  0
 15  8  1  0
  1 16  1  0
  1 17  1  0
  3 18  1  0
  3 19  1  0
  3 20  1  0
  4 21  1  0
  4 22  1  0
  5 23  1  0
  5 24  1  0
  6 25  1  0
  7 26  1  0
  7 27  1  0
  7 28  1  0
  9 29  1  0
 11 30  1  0
 12 31  1  0
 12 32  1  0
 12 33  1  0
 13 34  1  0
 13 35  1  0
A    1
 C1 
A    2
 C2 
A    3
 C3 
A    4
 C4 
A    5
 C5 
A    6
 C6 
A    7
 C7 
A    8
 N1 
A    9
 C8 
A   10
 C9 
A   11
 C10
A   12
 C11
A   13
 N2 
A   14
 N3 
A   15
 N4 
A   16
 H1 
A   17
 H2 
A   18
 H3 
A   19
 H4 
A   20
 H5 
A   21
 H6 
A   22
 H7 
A   23
 H8 
A   24
 H9 
A   25
 H10
A   26
 H11
A   27
 H12
A   28
 H13
A   29
 H14
A   30
 H15
A   31
 H16
A   32
 H17
A   33
 H18
A   34
 H19
A   35
 H20
M  END
>  <ref_pdb>  (177) 
x0051_0B

>  <ref_mols>  (177) 
x0051_0B

>  <original SMILES>  (177) 
[H]C([H])=C(C([H])([H])[H])C([H])([H])C([H])([H])C([H])(n1nnc(C([H])(N([H])[H])C([H])([H])[H])c1[H])C([H])([H])[H]

>  <index>  (177) 
6253.0

>  <∆∆G>  (177) 
-4.943359

>  <comRMSD>  (177) 
0.360387

>  <N_constrained_atoms>  (177) 
12.0

>  <N_unconstrained_atoms>  (177) 
3.0

>  <LE>  (177) 
0.329557

>  <percent_hybrid>  (177) 
34.0

>  <largest_ring>  (177) 
5.0

>  <N_HA>  (177) 
15.0

>  <N_rotatable_bonds>  (177) 
9.0

>  <max_hit_Tanimoto>  (177) 
0.321277

>  <N_interactions_kept>  (177) 
0.0

>  <N_interactions_lost>  (177) 
1.0

>  <interaction_uniqueness_metric>  (177) 
0.125577

>  <N_interactions>  (177) 
6.0

>  <N_PAINS>  (177) 
0.0

>  <UFF_Gibbs>  (177) 
144.229793

>  <strain_per_HA>  (177) 
9.615255

>  <ad_hoc_penalty>  (177) 
-11.562886

>  <cluster>  (177) 
3494.0

>  <intxn_cluster>  (177) 
17.0

>  <keep>  (177) 
1.0

>  <hydroph_interaction:GLN:74>  (177) 
0.0

>  <hydroph_interaction:THR:118>  (177) 
0.0

>  <hydroph_interaction:ILE:123>  (177) 
2.0

>  <hydroph_interaction:THR:166>  (177) 
0.0

>  <hbond:GLN:167>  (177) 
2.0

>  <hydroph_interaction:ALA:88>  (177) 
1.0

>  <hydroph_interaction:ASP:120>  (177) 
0.0

>  <hydroph_interaction:GLN:167>  (177) 
0.0

>  <hbond:THR:118>  (177) 
0.0

>  <hydroph_interaction:ALA:164>  (177) 
1.0

>  <hbond:ASP:120>  (177) 
0.0

>  <hbond:THR:166>  (177) 
0.0

>  <hydroph_interaction:LEU:76>  (177) 
0.0

>  <hbond:ILE:165>  (177) 
0.0

>  <halogenbond:GLN:74>  (177) 
0.0

>  <hbond:GLN:74>  (177) 
0.0

>  <hbond:LYS:73>  (177) 
0.0

>  <pistack:TRP:69>  (177) 
0.0

>  <hbond:TRP:83>  (177) 
0.0

>  <hydroph_interaction:TRP:83>  (177) 
0.0

>  <hydroph_interaction:TRP:69>  (177) 
0.0

>  <pication:TRP:69>  (177) 
0.0

>  <hydroph_interaction:PRO:82>  (177) 
0.0

>  <halogenbond:LYS:73>  (177) 
0.0

>  <hydroph_interaction:TYR:68>  (177) 
0.0

>  <halogenbond:GLN:167>  (177) 
0.0

>  <hydroph_interaction:PHE:116>  (177) 
0.0

>  <hbond:TYR:68>  (177) 
0.0

>  <hbond:ASP:122>  (177) 
0.0

>  <pistack:PHE:116>  (177) 
0.0

>  <hydroph_interaction:VAL:154>  (177) 
0.0

>  <hydroph_interaction:ASP:75>  (177) 
0.0

>  <hbond:GLY:121>  (177) 
0.0

>  <hydroph_interaction:ASN:152>  (177) 
0.0

>  <halogenbond:ILE:165>  (177) 
0.0

$$$$
Z3365779402-x0214S5-Z198195906S4
     RDKit          3D

 36 37  0  0  0  0  0  0  0  0999 V2000
  -10.4740   -4.0580  -10.3820 C   0  0  0  0  0  0  0  0  0  0  0  0
   -9.9330   -5.1770   -9.6750 O   0  0  0  0  0  0  0  0  0  0  0  0
  -10.8460   -6.1390   -9.4070 C   0  0  0  0  0  0  0  0  0  0  0  0
  -12.0520   -6.0480   -9.6260 O   0  0  0  0  0  0  0  0  0  0  0  0
  -10.2110   -7.2390   -8.8750 N   0  0  0  0  0  0  0  0  0  0  0  0
  -10.7170   -7.9110   -7.6910 C   0  0  0  0  0  0  0  0  0  0  0  0
  -10.7480   -9.4680   -7.7000 C   0  0  0  0  0  0  0  0  0  0  0  0
  -10.2340  -10.1780   -8.9120 C   0  0  0  0  0  0  0  0  0  0  0  0
   -9.9360  -11.5610   -8.6480 N   0  0  0  0  0  0  0  0  0  0  0  0
  -11.1770  -12.2290   -8.2620 C   0  0  0  0  0  0  0  0  0  0  0  0
  -12.2730  -11.3620   -8.0240 C   0  0  0  0  0  0  0  0  0  0  0  0
  -12.1490  -10.0960   -7.3680 C   0  0  0  0  0  0  0  0  0  0  0  0
  -13.1520   -9.1600   -7.5570 C   0  0  0  0  0  0  0  0  0  0  0  0
  -13.4760   -8.4830   -6.2530 C   0  0  0  0  0  0  0  0  0  0  0  0
  -13.0180   -9.0610   -5.2940 O   0  0  0  0  0  0  0  0  0  0  0  0
  -12.4260  -10.2770   -5.8460 C   0  0  0  0  0  0  0  0  0  0  0  0
  -10.9470   -3.3450   -9.6970 H   0  0  0  0  0  0  0  0  0  0  0  0
  -11.2400   -4.3780  -11.0960 H   0  0  0  0  0  0  0  0  0  0  0  0
   -9.6690   -3.5470  -10.9250 H   0  0  0  0  0  0  0  0  0  0  0  0
   -9.5340   -7.6940   -9.4830 H   0  0  0  0  0  0  0  0  0  0  0  0
  -10.1460   -7.5520   -6.8280 H   0  0  0  0  0  0  0  0  0  0  0  0
  -11.7320   -7.5260   -7.5400 H   0  0  0  0  0  0  0  0  0  0  0  0
  -10.0980   -9.7830   -6.8720 H   0  0  0  0  0  0  0  0  0  0  0  0
   -9.3630   -9.6580   -9.3330 H   0  0  0  0  0  0  0  0  0  0  0  0
  -11.0190  -10.1720   -9.6530 H   0  0  0  0  0  0  0  0  0  0  0  0
   -9.5640  -11.9970   -9.4940 H   0  0  0  0  0  0  0  0  0  0  0  0
  -11.4070  -12.9820   -9.0230 H   0  0  0  0  0  0  0  0  0  0  0  0
  -10.9900  -12.8050   -7.3480 H   0  0  0  0  0  0  0  0  0  0  0  0
  -12.9930  -11.9200   -7.4140 H   0  0  0  0  0  0  0  0  0  0  0  0
  -12.7830  -11.2350   -8.9870 H   0  0  0  0  0  0  0  0  0  0  0  0
  -14.0430   -9.6460   -7.9680 H   0  0  0  0  0  0  0  0  0  0  0  0
  -12.8440   -8.4110   -8.2960 H   0  0  0  0  0  0  0  0  0  0  0  0
  -14.5640   -8.4100   -6.1390 H   0  0  0  0  0  0  0  0  0  0  0  0
  -13.0930   -7.4570   -6.2300 H   0  0  0  0  0  0  0  0  0  0  0  0
  -13.0960  -11.1110   -5.6280 H   0  0  0  0  0  0  0  0  0  0  0  0
  -11.5030  -10.4540   -5.2810 H   0  0  0  0  0  0  0  0  0  0  0  0
  1  2  1  0
  2  3  1  0
  3  4  2  0
  3  5  1  0
  5  6  1  0
  6  7  1  0
  7  8  1  0
  8  9  1  0
  9 10  1  0
 10 11  1  0
 11 12  1  0
 12 13  1  0
 13 14  1  0
 14 15  1  0
 15 16  1  0
 12  7  1  0
 16 12  1  0
  1 17  1  0
  1 18  1  0
  1 19  1  0
  5 20  1  0
  6 21  1  0
  6 22  1  0
  7 23  1  0
  8 24  1  0
  8 25  1  0
  9 26  1  0
 10 27  1  0
 10 28  1  0
 11 29  1  0
 11 30  1  0
 13 31  1  0
 13 32  1  0
 14 33  1  0
 14 34  1  0
 16 35  1  0
 16 36  1  0
A    1
 C1 
A    2
 O1 
A    3
 C2 
A    4
 O2 
A    5
 N1 
A    6
 C3 
A    7
 C4 
A    8
 C5 
A    9
 N2 
A   10
 C6 
A   11
 C7 
A   12
 C8 
A   13
 C9 
A   14
 C10
A   15
 O3 
A   16
 C11
A   17
 H1 
A   18
 H2 
A   19
 H3 
A   20
 H4 
A   21
 H5 
A   22
 H6 
A   23
 H7 
A   24
 H8 
A   25
 H9 
A   26
 H10
A   27
 H11
A   28
 H12
A   29
 H13
A   30
 H14
A   31
 H15
A   32
 H16
A   33
 H17
A   34
 H18
A   35
 H19
A   36
 H20
M  END
>  <ref_pdb>  (178) 
x0051_0B

>  <ref_mols>  (178) 
x0051_0B

>  <original SMILES>  (178) 
[H]N(C(=O)OC([H])([H])[H])C([H])([H])C1([H])C([H])([H])N([H])C([H])([H])C([H])([H])C12C([H])([H])OC([H])([H])C2([H])[H]

>  <index>  (178) 
2867.0

>  <∆∆G>  (178) 
-2.349794

>  <comRMSD>  (178) 
0.976894

>  <N_constrained_atoms>  (178) 
16.0

>  <N_unconstrained_atoms>  (178) 
1.0

>  <LE>  (178) 
0.138223

>  <percent_hybrid>  (178) 
27.0

>  <largest_ring>  (178) 
6.0

>  <N_HA>  (178) 
16.0

>  <N_rotatable_bonds>  (178) 
3.0

>  <max_hit_Tanimoto>  (178) 
0.078675

>  <N_interactions_kept>  (178) 
1.5

>  <N_interactions_lost>  (178) 
0.0

>  <interaction_uniqueness_metric>  (178) 
0.033159

>  <N_interactions>  (178) 
2.0

>  <N_PAINS>  (178) 
0.0

>  <UFF_Gibbs>  (178) 
180.673897

>  <strain_per_HA>  (178) 
11.292048

>  <ad_hoc_penalty>  (178) 
-11.491233

>  <cluster>  (178) 
189.0

>  <intxn_cluster>  (178) 
9.0

>  <keep>  (178) 
1.0

>  <hydroph_interaction:GLN:74>  (178) 
0.0

>  <hydroph_interaction:THR:118>  (178) 
0.0

>  <hydroph_interaction:ILE:123>  (178) 
0.0

>  <hydroph_interaction:THR:166>  (178) 
0.0

>  <hbond:GLN:167>  (178) 
0.0

>  <hydroph_interaction:ALA:88>  (178) 
0.0

>  <hydroph_interaction:ASP:120>  (178) 
0.0

>  <hydroph_interaction:GLN:167>  (178) 
0.0

>  <hbond:THR:118>  (178) 
2.0

>  <hydroph_interaction:ALA:164>  (178) 
0.0

>  <hbond:ASP:120>  (178) 
0.0

>  <hbond:THR:166>  (178) 
0.0

>  <hydroph_interaction:LEU:76>  (178) 
0.0

>  <hbond:ILE:165>  (178) 
0.0

>  <halogenbond:GLN:74>  (178) 
0.0

>  <hbond:GLN:74>  (178) 
0.0

>  <hbond:LYS:73>  (178) 
0.0

>  <pistack:TRP:69>  (178) 
0.0

>  <hbond:TRP:83>  (178) 
0.0

>  <hydroph_interaction:TRP:83>  (178) 
0.0

>  <hydroph_interaction:TRP:69>  (178) 
0.0

>  <pication:TRP:69>  (178) 
0.0

>  <hydroph_interaction:PRO:82>  (178) 
0.0

>  <halogenbond:LYS:73>  (178) 
0.0

>  <hydroph_interaction:TYR:68>  (178) 
0.0

>  <halogenbond:GLN:167>  (178) 
0.0

>  <hydroph_interaction:PHE:116>  (178) 
0.0

>  <hbond:TYR:68>  (178) 
0.0

>  <hbond:ASP:122>  (178) 
0.0

>  <pistack:PHE:116>  (178) 
0.0

>  <hydroph_interaction:VAL:154>  (178) 
0.0

>  <hydroph_interaction:ASP:75>  (178) 
0.0

>  <hbond:GLY:121>  (178) 
0.0

>  <hydroph_interaction:ASN:152>  (178) 
0.0

>  <halogenbond:ILE:165>  (178) 
0.0

$$$$
Z1696971785-Z198195906S5-x0214S3
     RDKit          3D

 27 28  0  0  0  0  0  0  0  0999 V2000
  -13.6370  -10.7120   -6.4740 C   0  0  0  0  0  0  0  0  0  0  0  0
  -12.3190  -11.0300   -7.1280 C   0  0  0  0  0  0  0  0  0  0  0  0
  -12.1100  -12.2680   -7.7150 C   0  0  0  0  0  0  0  0  0  0  0  0
  -10.8860  -12.5230   -8.3090 C   0  0  0  0  0  0  0  0  0  0  0  0
   -9.9200  -11.5190   -8.2930 C   0  0  0  0  0  0  0  0  0  0  0  0
  -10.0970  -10.3070   -7.7280 N   0  0  0  0  0  0  0  0  0  0  0  0
  -11.3050  -10.0890   -7.1440 C   0  0  0  0  0  0  0  0  0  0  0  0
  -11.5720   -8.9290   -6.5330 C   0  0  0  0  0  0  0  0  0  0  0  0
  -12.9450   -8.6130   -6.8380 O   0  0  0  0  0  0  0  0  0  0  0  0
  -12.7930   -7.9250   -7.9370 C   0  0  0  0  0  0  0  0  0  0  0  0
  -12.2130   -6.5890   -7.6220 C   0  0  0  0  0  0  0  0  0  0  0  0
  -11.8820   -5.6800   -8.7460 C   0  0  0  0  0  0  0  0  0  0  0  0
  -12.1800   -6.2450   -9.9640 C   0  0  0  0  0  0  0  0  0  0  0  0
  -11.7710   -5.3650  -11.2810 Cl  0  0  0  0  0  0  0  0  0  0  0  0
  -12.7440   -7.4340  -10.2690 N   0  0  0  0  0  0  0  0  0  0  0  0
  -13.0420   -8.2520   -9.2480 C   0  0  0  0  0  0  0  0  0  0  0  0
  -14.2770  -10.1350   -7.1510 H   0  0  0  0  0  0  0  0  0  0  0  0
  -14.1780  -11.6310   -6.2190 H   0  0  0  0  0  0  0  0  0  0  0  0
  -13.4990  -10.1360   -5.5520 H   0  0  0  0  0  0  0  0  0  0  0  0
  -12.8840  -13.0330   -7.7150 H   0  0  0  0  0  0  0  0  0  0  0  0
  -10.6800  -13.4810   -8.7790 H   0  0  0  0  0  0  0  0  0  0  0  0
   -8.9610  -11.6830   -8.7570 H   0  0  0  0  0  0  0  0  0  0  0  0
  -10.9930   -8.0770   -6.8680 H   0  0  0  0  0  0  0  0  0  0  0  0
  -11.5010   -8.9420   -5.4490 H   0  0  0  0  0  0  0  0  0  0  0  0
  -11.9800   -6.2010   -6.6210 H   0  0  0  0  0  0  0  0  0  0  0  0
  -11.4360   -4.6890   -8.6060 H   0  0  0  0  0  0  0  0  0  0  0  0
  -13.4810   -9.2080   -9.5490 H   0  0  0  0  0  0  0  0  0  0  0  0
  1  2  1  0
  2  3  2  0
  3  4  1  0
  4  5  2  0
  5  6  1  0
  6  7  2  0
  7  8  1  0
  8  9  1  0
  9 10  1  0
 10 11  2  0
 11 12  1  0
 12 13  2  0
 13 14  1  0
 13 15  1  0
 15 16  2  0
  7  2  1  0
 16 10  1  0
  1 17  1  0
  1 18  1  0
  1 19  1  0
  3 20  1  0
  4 21  1  0
  5 22  1  0
  8 23  1  0
  8 24  1  0
 11 25  1  0
 12 26  1  0
 16 27  1  0
A    1
 C1 
A    2
 C2 
A    3
 C3 
A    4
 C4 
A    5
 C5 
A    6
 N1 
A    7
 C6 
A    8
 C7 
A    9
 O1 
A   10
 C8 
A   11
 C9 
A   12
 C10
A   13
 C11
A   14
CL1 
A   15
 N2 
A   16
 C12
A   17
 H1 
A   18
 H2 
A   19
 H3 
A   20
 H4 
A   21
 H5 
A   22
 H6 
A   23
 H7 
A   24
 H8 
A   25
 H9 
A   26
 H10
A   27
 H11
M  END
>  <ref_pdb>  (179) 
x0051_0B

>  <ref_mols>  (179) 
x0051_0B

>  <original SMILES>  (179) 
[H]c1nc(C([H])([H])Oc2c([H])nc(Cl)c([H])c2[H])c(C([H])([H])[H])c([H])c1[H]

>  <index>  (179) 
1789.0

>  <∆∆G>  (179) 
-1.767541

>  <comRMSD>  (179) 
0.992366

>  <N_constrained_atoms>  (179) 
14.0

>  <N_unconstrained_atoms>  (179) 
2.0

>  <LE>  (179) 
0.110471

>  <percent_hybrid>  (179) 
43.0

>  <largest_ring>  (179) 
6.0

>  <N_HA>  (179) 
16.0

>  <N_rotatable_bonds>  (179) 
4.0

>  <max_hit_Tanimoto>  (179) 
0.080679

>  <N_interactions_kept>  (179) 
0.5

>  <N_interactions_lost>  (179) 
0.5

>  <interaction_uniqueness_metric>  (179) 
0.060884

>  <N_interactions>  (179) 
4.0

>  <N_PAINS>  (179) 
0.0

>  <UFF_Gibbs>  (179) 
174.384095

>  <strain_per_HA>  (179) 
10.898938

>  <ad_hoc_penalty>  (179) 
-11.400973

>  <cluster>  (179) 
753.0

>  <intxn_cluster>  (179) 
6.0

>  <keep>  (179) 
1.0

>  <hydroph_interaction:GLN:74>  (179) 
0.0

>  <hydroph_interaction:THR:118>  (179) 
0.0

>  <hydroph_interaction:ILE:123>  (179) 
2.0

>  <hydroph_interaction:THR:166>  (179) 
0.0

>  <hbond:GLN:167>  (179) 
0.0

>  <hydroph_interaction:ALA:88>  (179) 
0.0

>  <hydroph_interaction:ASP:120>  (179) 
1.0

>  <hydroph_interaction:GLN:167>  (179) 
0.0

>  <hbond:THR:118>  (179) 
1.0

>  <hydroph_interaction:ALA:164>  (179) 
0.0

>  <hbond:ASP:120>  (179) 
0.0

>  <hbond:THR:166>  (179) 
0.0

>  <hydroph_interaction:LEU:76>  (179) 
0.0

>  <hbond:ILE:165>  (179) 
0.0

>  <halogenbond:GLN:74>  (179) 
0.0

>  <hbond:GLN:74>  (179) 
0.0

>  <hbond:LYS:73>  (179) 
0.0

>  <pistack:TRP:69>  (179) 
0.0

>  <hbond:TRP:83>  (179) 
0.0

>  <hydroph_interaction:TRP:83>  (179) 
0.0

>  <hydroph_interaction:TRP:69>  (179) 
0.0

>  <pication:TRP:69>  (179) 
0.0

>  <hydroph_interaction:PRO:82>  (179) 
0.0

>  <halogenbond:LYS:73>  (179) 
0.0

>  <hydroph_interaction:TYR:68>  (179) 
0.0

>  <halogenbond:GLN:167>  (179) 
0.0

>  <hydroph_interaction:PHE:116>  (179) 
0.0

>  <hbond:TYR:68>  (179) 
0.0

>  <hbond:ASP:122>  (179) 
0.0

>  <pistack:PHE:116>  (179) 
0.0

>  <hydroph_interaction:VAL:154>  (179) 
0.0

>  <hydroph_interaction:ASP:75>  (179) 
0.0

>  <hbond:GLY:121>  (179) 
0.0

>  <hydroph_interaction:ASN:152>  (179) 
0.0

>  <halogenbond:ILE:165>  (179) 
0.0

$$$$
PV-003005159916-x0214S4-x0806
     RDKit          3D

 49 51  0  0  0  0  0  0  0  0999 V2000
  -17.3650  -11.2180  -13.7380 C   0  0  0  0  0  0  0  0  0  0  0  0
  -17.0040  -12.2760  -12.6900 C   0  0  0  0  0  0  0  0  0  0  0  0
  -16.4230  -11.6920  -11.3950 C   0  0  0  0  0  0  0  0  0  0  0  0
  -15.5330  -12.7090  -10.8930 O   0  0  0  0  0  0  0  0  0  0  0  0
  -15.7930  -10.4620  -11.2850 C   0  0  0  0  0  0  0  0  0  0  0  0
  -15.3540   -9.8730  -10.1210 C   0  0  0  0  0  0  0  0  0  0  0  0
  -14.7810   -8.6630  -10.4780 N   0  0  0  0  0  0  0  0  0  0  0  0
  -14.1280   -7.6610   -9.6710 C   0  0  0  0  0  0  0  0  0  0  0  0
  -14.3180   -6.2820   -9.7150 C   0  0  0  0  0  0  0  0  0  0  0  0
  -13.6070   -5.3850   -8.9300 C   0  0  0  0  0  0  0  0  0  0  0  0
  -12.6660   -5.8270   -8.0560 C   0  0  0  0  0  0  0  0  0  0  0  0
  -12.4760   -7.1830   -7.9680 C   0  0  0  0  0  0  0  0  0  0  0  0
  -13.2150   -8.0750   -8.7560 C   0  0  0  0  0  0  0  0  0  0  0  0
  -13.0160   -9.5140   -8.5480 C   0  0  0  0  0  0  0  0  0  0  0  0
  -12.6180  -10.2550   -9.4270 O   0  0  0  0  0  0  0  0  0  0  0  0
  -13.3940   -9.8700   -7.2670 N   0  0  0  0  0  0  0  0  0  0  0  0
  -14.3340   -9.0990   -6.4680 C   0  0  0  0  0  0  0  0  0  0  0  0
  -13.4990   -8.6280   -5.4460 C   0  0  0  0  0  0  0  0  0  0  0  0
  -12.2130   -9.1730   -5.4710 C   0  0  0  0  0  0  0  0  0  0  0  0
  -12.3360  -10.2510   -6.3600 C   0  0  2  0  0  0  0  0  0  0  0  0
  -11.0770  -10.5130   -7.1970 C   0  0  0  0  0  0  0  0  0  0  0  0
  -11.1060  -11.1950   -8.2110 O   0  0  0  0  0  0  0  0  0  0  0  0
   -9.9350   -9.9130   -6.7200 N   0  0  0  0  0  0  0  0  0  0  0  0
   -9.2770   -8.8860   -7.4720 C   0  0  0  0  0  0  0  0  0  0  0  0
  -14.9030   -8.5600  -11.8350 N   0  0  0  0  0  0  0  0  0  0  0  0
  -15.5080   -9.6400  -12.3270 N   0  0  0  0  0  0  0  0  0  0  0  0
  -17.0240  -11.5350  -14.7270 H   0  0  0  0  0  0  0  0  0  0  0  0
  -16.8910  -10.2590  -13.5340 H   0  0  0  0  0  0  0  0  0  0  0  0
  -18.4480  -11.0710  -13.7940 H   0  0  0  0  0  0  0  0  0  0  0  0
  -16.2940  -12.9840  -13.1310 H   0  0  0  0  0  0  0  0  0  0  0  0
  -17.9080  -12.8380  -12.4260 H   0  0  0  0  0  0  0  0  0  0  0  0
  -17.2370  -11.6780  -10.6590 H   0  0  0  0  0  0  0  0  0  0  0  0
  -14.7600  -12.7140  -11.4880 H   0  0  0  0  0  0  0  0  0  0  0  0
  -15.4490  -10.3100   -9.1300 H   0  0  0  0  0  0  0  0  0  0  0  0
  -15.0110   -5.8160  -10.3500 H   0  0  0  0  0  0  0  0  0  0  0  0
  -13.8000   -4.3160   -9.0160 H   0  0  0  0  0  0  0  0  0  0  0  0
  -12.0940   -5.1330   -7.4430 H   0  0  0  0  0  0  0  0  0  0  0  0
  -11.7460   -7.5670   -7.2610 H   0  0  0  0  0  0  0  0  0  0  0  0
  -15.2070   -9.6880   -6.1880 H   0  0  0  0  0  0  0  0  0  0  0  0
  -14.6750   -8.2640   -7.0900 H   0  0  0  0  0  0  0  0  0  0  0  0
  -13.3880   -7.5510   -5.6050 H   0  0  0  0  0  0  0  0  0  0  0  0
  -13.9680   -8.6700   -4.4690 H   0  0  0  0  0  0  0  0  0  0  0  0
  -11.7630   -9.3850   -4.5080 H   0  0  0  0  0  0  0  0  0  0  0  0
  -11.5300   -8.4410   -5.9100 H   0  0  0  0  0  0  0  0  0  0  0  0
  -12.6310  -11.1680   -5.8310 H   0  0  0  0  0  0  0  0  0  0  0  0
   -9.3670  -10.4870   -6.0880 H   0  0  0  0  0  0  0  0  0  0  0  0
   -9.2990   -9.1520   -8.5310 H   0  0  0  0  0  0  0  0  0  0  0  0
   -9.7760   -7.9260   -7.3190 H   0  0  0  0  0  0  0  0  0  0  0  0
   -8.2420   -8.8110   -7.1260 H   0  0  0  0  0  0  0  0  0  0  0  0
  1  2  1  0
  2  3  1  0
  3  4  1  0
  3  5  1  0
  5  6  2  0
  6  7  1  0
  7  8  1  0
  8  9  2  0
  9 10  1  0
 10 11  2  0
 11 12  1  0
 12 13  2  0
 13 14  1  0
 14 15  2  0
 14 16  1  0
 16 17  1  0
 17 18  1  0
 18 19  1  0
 19 20  1  0
 20 21  1  0
 21 22  2  0
 21 23  1  0
 23 24  1  0
  7 25  1  0
 25 26  2  0
 26  5  1  0
 13  8  1  0
 20 16  1  0
  1 27  1  0
  1 28  1  0
  1 29  1  0
  2 30  1  0
  2 31  1  0
  3 32  1  0
  4 33  1  0
  6 34  1  0
  9 35  1  0
 10 36  1  0
 11 37  1  0
 12 38  1  0
 17 39  1  0
 17 40  1  0
 18 41  1  0
 18 42  1  0
 19 43  1  0
 19 44  1  0
 20 45  1  1
 23 46  1  0
 24 47  1  0
 24 48  1  0
 24 49  1  0
A    1
 C1 
A    2
 C2 
A    3
 C3 
A    4
 O1 
A    5
 C4 
A    6
 C5 
A    7
 N1 
A    8
 C6 
A    9
 C7 
A   10
 C8 
A   11
 C9 
A   12
 C10
A   13
 C11
A   14
 C12
A   15
 O2 
A   16
 N2 
A   17
 C13
A   18
 C14
A   19
 C15
A   20
 C16
A   21
 C17
A   22
 O3 
A   23
 N3 
A   24
 C18
A   25
 N4 
A   26
 N5 
A   27
 H1 
A   28
 H2 
A   29
 H3 
A   30
 H4 
A   31
 H5 
A   32
 H6 
A   33
 H7 
A   34
 H8 
A   35
 H9 
A   36
 H10
A   37
 H11
A   38
 H12
A   39
 H13
A   40
 H14
A   41
 H15
A   42
 H16
A   43
 H17
A   44
 H18
A   45
 H19
A   46
 H20
A   47
 H21
A   48
 H22
A   49
 H23
M  END
>  <ref_pdb>  (180) 
x0051_0B

>  <ref_mols>  (180) 
x0051_0B

>  <original SMILES>  (180) 
[H]OC([H])(c1nnn(-c2c([H])c([H])c([H])c([H])c2C(=O)N2C([H])([H])C([H])([H])C([H])([H])[C@]2([H])C(=O)N([H])C([H])([H])[H])c1[H])C([H])([H])C([H])([H])[H]

>  <index>  (180) 
256.0

>  <∆∆G>  (180) 
-4.379936

>  <comRMSD>  (180) 
0.927637

>  <N_constrained_atoms>  (180) 
23.0

>  <N_unconstrained_atoms>  (180) 
3.0

>  <LE>  (180) 
0.168459

>  <percent_hybrid>  (180) 
40.0

>  <largest_ring>  (180) 
6.0

>  <N_HA>  (180) 
26.0

>  <N_rotatable_bonds>  (180) 
8.0

>  <max_hit_Tanimoto>  (180) 
0.346221

>  <N_interactions_kept>  (180) 
0.5

>  <N_interactions_lost>  (180) 
1.5

>  <interaction_uniqueness_metric>  (180) 
0.188763

>  <N_interactions>  (180) 
6.0

>  <N_PAINS>  (180) 
0.0

>  <UFF_Gibbs>  (180) 
232.281844

>  <strain_per_HA>  (180) 
8.933883

>  <ad_hoc_penalty>  (180) 
-11.361286

>  <cluster>  (180) 
7.0

>  <intxn_cluster>  (180) 
17.0

>  <keep>  (180) 
1.0

>  <hydroph_interaction:GLN:74>  (180) 
0.0

>  <hydroph_interaction:THR:118>  (180) 
0.0

>  <hydroph_interaction:ILE:123>  (180) 
0.0

>  <hydroph_interaction:THR:166>  (180) 
1.0

>  <hbond:GLN:167>  (180) 
2.0

>  <hydroph_interaction:ALA:88>  (180) 
1.0

>  <hydroph_interaction:ASP:120>  (180) 
0.0

>  <hydroph_interaction:GLN:167>  (180) 
1.0

>  <hbond:THR:118>  (180) 
1.0

>  <hydroph_interaction:ALA:164>  (180) 
0.0

>  <hbond:ASP:120>  (180) 
0.0

>  <hbond:THR:166>  (180) 
0.0

>  <hydroph_interaction:LEU:76>  (180) 
0.0

>  <hbond:ILE:165>  (180) 
0.0

>  <halogenbond:GLN:74>  (180) 
0.0

>  <hbond:GLN:74>  (180) 
0.0

>  <hbond:LYS:73>  (180) 
0.0

>  <pistack:TRP:69>  (180) 
0.0

>  <hbond:TRP:83>  (180) 
0.0

>  <hydroph_interaction:TRP:83>  (180) 
0.0

>  <hydroph_interaction:TRP:69>  (180) 
0.0

>  <pication:TRP:69>  (180) 
0.0

>  <hydroph_interaction:PRO:82>  (180) 
0.0

>  <halogenbond:LYS:73>  (180) 
0.0

>  <hydroph_interaction:TYR:68>  (180) 
0.0

>  <halogenbond:GLN:167>  (180) 
0.0

>  <hydroph_interaction:PHE:116>  (180) 
0.0

>  <hbond:TYR:68>  (180) 
0.0

>  <hbond:ASP:122>  (180) 
0.0

>  <pistack:PHE:116>  (180) 
0.0

>  <hydroph_interaction:VAL:154>  (180) 
0.0

>  <hydroph_interaction:ASP:75>  (180) 
0.0

>  <hbond:GLY:121>  (180) 
0.0

>  <hydroph_interaction:ASN:152>  (180) 
0.0

>  <halogenbond:ILE:165>  (180) 
0.0

$$$$
Z3384760278-x0214S5-Z198195906S4
     RDKit          3D

 38 39  0  0  0  0  0  0  0  0999 V2000
  -10.8850   -3.6450  -10.0980 C   0  0  0  0  0  0  0  0  0  0  0  0
  -10.0050   -4.8750   -9.9410 C   0  0  0  0  0  0  0  0  0  0  0  0
  -10.8640   -6.0550   -9.4320 C   0  0  0  0  0  0  0  0  0  0  0  0
  -12.2450   -6.0000   -9.8110 O   0  0  0  0  0  0  0  0  0  0  0  0
  -10.2330   -7.1270   -8.6430 N   0  0  0  0  0  0  0  0  0  0  0  0
  -11.0890   -8.0880   -8.1640 C   0  0  0  0  0  0  0  0  0  0  0  0
  -10.7450   -9.4660   -8.1290 C   0  0  0  0  0  0  0  0  0  0  0  0
  -10.0490  -10.4260   -7.9540 C   0  0  0  0  0  0  0  0  0  0  0  0
  -10.1940  -11.4600   -8.9320 N   0  0  0  0  0  0  0  0  0  0  0  0
  -11.3610  -12.1270   -8.9310 C   0  0  0  0  0  0  0  0  0  0  0  0
  -12.3960  -11.4910   -7.9920 C   0  0  0  0  0  0  0  0  0  0  0  0
  -12.0590  -10.0740   -7.4370 C   0  0  0  0  0  0  0  0  0  0  0  0
  -11.8700   -9.9660   -6.0710 C   0  0  0  0  0  0  0  0  0  0  0  0
  -12.6850   -8.9670   -5.3110 C   0  0  0  0  0  0  0  0  0  0  0  0
  -13.5160   -8.4080   -6.3080 O   0  0  0  0  0  0  0  0  0  0  0  0
  -13.3480   -9.2070   -7.5130 C   0  0  0  0  0  0  0  0  0  0  0  0
  -10.7350   -3.1700  -11.0720 H   0  0  0  0  0  0  0  0  0  0  0  0
  -10.6530   -2.9080   -9.3240 H   0  0  0  0  0  0  0  0  0  0  0  0
  -11.9430   -3.9030  -10.0110 H   0  0  0  0  0  0  0  0  0  0  0  0
   -9.5490   -5.1560  -10.8930 H   0  0  0  0  0  0  0  0  0  0  0  0
   -9.1980   -4.6880   -9.2250 H   0  0  0  0  0  0  0  0  0  0  0  0
   -9.5560   -7.6110   -9.2400 H   0  0  0  0  0  0  0  0  0  0  0  0
  -11.3290   -7.8190   -7.1280 H   0  0  0  0  0  0  0  0  0  0  0  0
  -12.0130   -7.9990   -8.7340 H   0  0  0  0  0  0  0  0  0  0  0  0
  -10.9030   -9.6600   -9.1890 H   0  0  0  0  0  0  0  0  0  0  0  0
  -10.2720  -10.8800   -6.9830 H   0  0  0  0  0  0  0  0  0  0  0  0
   -9.0060  -10.1170   -7.8880 H   0  0  0  0  0  0  0  0  0  0  0  0
  -10.0080  -11.0810   -9.8540 H   0  0  0  0  0  0  0  0  0  0  0  0
  -11.7620  -12.1620   -9.9510 H   0  0  0  0  0  0  0  0  0  0  0  0
  -11.1700  -13.1680   -8.6350 H   0  0  0  0  0  0  0  0  0  0  0  0
  -12.5770  -12.1690   -7.1440 H   0  0  0  0  0  0  0  0  0  0  0  0
  -13.3490  -11.4150   -8.5230 H   0  0  0  0  0  0  0  0  0  0  0  0
  -10.8100   -9.7430   -5.8940 H   0  0  0  0  0  0  0  0  0  0  0  0
  -12.0450  -10.9480   -5.6100 H   0  0  0  0  0  0  0  0  0  0  0  0
  -13.2780   -9.4870   -4.5460 H   0  0  0  0  0  0  0  0  0  0  0  0
  -12.0840   -8.1740   -4.8540 H   0  0  0  0  0  0  0  0  0  0  0  0
  -14.2350   -9.8520   -7.5730 H   0  0  0  0  0  0  0  0  0  0  0  0
  -13.3980   -8.5570   -8.3890 H   0  0  0  0  0  0  0  0  0  0  0  0
  1  2  1  0
  2  3  1  0
  3  4  2  0
  3  5  1  0
  5  6  1  0
  6  7  1  0
  7  8  1  0
  8  9  1  0
  9 10  1  0
 10 11  1  0
 11 12  1  0
 12 13  1  0
 13 14  1  0
 14 15  1  0
 15 16  1  0
 12  7  1  0
 16 12  1  0
  1 17  1  0
  1 18  1  0
  1 19  1  0
  2 20  1  0
  2 21  1  0
  5 22  1  0
  6 23  1  0
  6 24  1  0
  7 25  1  0
  8 26  1  0
  8 27  1  0
  9 28  1  0
 10 29  1  0
 10 30  1  0
 11 31  1  0
 11 32  1  0
 13 33  1  0
 13 34  1  0
 14 35  1  0
 14 36  1  0
 16 37  1  0
 16 38  1  0
A    1
 C1 
A    2
 C2 
A    3
 C3 
A    4
 O1 
A    5
 N1 
A    6
 C4 
A    7
 C5 
A    8
 C6 
A    9
 N2 
A   10
 C7 
A   11
 C8 
A   12
 C9 
A   13
 C10
A   14
 C11
A   15
 O2 
A   16
 C12
A   17
 H1 
A   18
 H2 
A   19
 H3 
A   20
 H4 
A   21
 H5 
A   22
 H6 
A   23
 H7 
A   24
 H8 
A   25
 H9 
A   26
 H10
A   27
 H11
A   28
 H12
A   29
 H13
A   30
 H14
A   31
 H15
A   32
 H16
A   33
 H17
A   34
 H18
A   35
 H19
A   36
 H20
A   37
 H21
A   38
 H22
M  END
>  <ref_pdb>  (181) 
x0051_0B

>  <ref_mols>  (181) 
x0051_0B

>  <original SMILES>  (181) 
[H]N(C(=O)C([H])([H])C([H])([H])[H])C([H])([H])C1([H])C([H])([H])N([H])C([H])([H])C([H])([H])C12C([H])([H])OC([H])([H])C2([H])[H]

>  <index>  (181) 
2864.0

>  <∆∆G>  (181) 
-2.80371

>  <comRMSD>  (181) 
0.983037

>  <N_constrained_atoms>  (181) 
16.0

>  <N_unconstrained_atoms>  (181) 
1.0

>  <LE>  (181) 
0.164924

>  <percent_hybrid>  (181) 
27.0

>  <largest_ring>  (181) 
6.0

>  <N_HA>  (181) 
16.0

>  <N_rotatable_bonds>  (181) 
4.0

>  <max_hit_Tanimoto>  (181) 
0.078947

>  <N_interactions_kept>  (181) 
1.0

>  <N_interactions_lost>  (181) 
0.5

>  <interaction_uniqueness_metric>  (181) 
0.082795

>  <N_interactions>  (181) 
3.0

>  <N_PAINS>  (181) 
0.0

>  <UFF_Gibbs>  (181) 
459.845282

>  <strain_per_HA>  (181) 
28.74015

>  <ad_hoc_penalty>  (181) 
-10.845979

>  <cluster>  (181) 
189.0

>  <intxn_cluster>  (181) 
11.0

>  <keep>  (181) 
1.0

>  <hydroph_interaction:GLN:74>  (181) 
0.0

>  <hydroph_interaction:THR:118>  (181) 
0.0

>  <hydroph_interaction:ILE:123>  (181) 
1.0

>  <hydroph_interaction:THR:166>  (181) 
0.0

>  <hbond:GLN:167>  (181) 
0.0

>  <hydroph_interaction:ALA:88>  (181) 
0.0

>  <hydroph_interaction:ASP:120>  (181) 
0.0

>  <hydroph_interaction:GLN:167>  (181) 
0.0

>  <hbond:THR:118>  (181) 
1.0

>  <hydroph_interaction:ALA:164>  (181) 
1.0

>  <hbond:ASP:120>  (181) 
0.0

>  <hbond:THR:166>  (181) 
0.0

>  <hydroph_interaction:LEU:76>  (181) 
0.0

>  <hbond:ILE:165>  (181) 
0.0

>  <halogenbond:GLN:74>  (181) 
0.0

>  <hbond:GLN:74>  (181) 
0.0

>  <hbond:LYS:73>  (181) 
0.0

>  <pistack:TRP:69>  (181) 
0.0

>  <hbond:TRP:83>  (181) 
0.0

>  <hydroph_interaction:TRP:83>  (181) 
0.0

>  <hydroph_interaction:TRP:69>  (181) 
0.0

>  <pication:TRP:69>  (181) 
0.0

>  <hydroph_interaction:PRO:82>  (181) 
0.0

>  <halogenbond:LYS:73>  (181) 
0.0

>  <hydroph_interaction:TYR:68>  (181) 
0.0

>  <halogenbond:GLN:167>  (181) 
0.0

>  <hydroph_interaction:PHE:116>  (181) 
0.0

>  <hbond:TYR:68>  (181) 
0.0

>  <hbond:ASP:122>  (181) 
0.0

>  <pistack:PHE:116>  (181) 
0.0

>  <hydroph_interaction:VAL:154>  (181) 
0.0

>  <hydroph_interaction:ASP:75>  (181) 
0.0

>  <hbond:GLY:121>  (181) 
0.0

>  <hydroph_interaction:ASN:152>  (181) 
0.0

>  <halogenbond:ILE:165>  (181) 
0.0

$$$$
PV-002218150055-x0214S1-Z198195906S6
     RDKit          3D

 28 27  0  0  0  0  0  0  0  0999 V2000
  -11.3190  -12.4470   -7.5830 C   0  0  0  0  0  0  0  0  0  0  0  0
  -11.3530  -10.9210   -7.5600 C   0  0  0  0  0  0  0  0  0  0  0  0
  -12.1340  -10.3070   -8.5690 O   0  0  0  0  0  0  0  0  0  0  0  0
  -10.6140  -10.0440   -6.5300 C   0  0  0  0  0  0  0  0  0  0  0  0
   -9.2850   -9.6970   -7.0280 N   0  0  0  0  0  0  0  0  0  0  0  0
   -8.2970   -9.9770   -5.9780 C   0  0  0  0  0  0  0  0  0  0  0  0
   -9.2160   -8.2780   -7.4370 C   0  0  0  0  0  0  0  0  0  0  0  0
  -10.2190   -7.9990   -8.5640 C   0  0  0  0  0  0  0  0  0  0  0  0
  -10.6830   -6.7270   -8.6440 N   0  0  0  0  0  0  0  0  0  0  0  0
  -11.1210   -6.1790   -9.7920 C   0  0  0  0  0  0  0  0  0  0  0  0
  -10.2100   -5.0900  -10.3250 C   0  0  0  0  0  0  0  0  0  0  0  0
  -12.1570   -6.5040  -10.3600 O   0  0  0  0  0  0  0  0  0  0  0  0
  -11.6830  -12.8760   -6.6470 H   0  0  0  0  0  0  0  0  0  0  0  0
  -10.3060  -12.8210   -7.7800 H   0  0  0  0  0  0  0  0  0  0  0  0
  -11.9450  -12.8290   -8.4000 H   0  0  0  0  0  0  0  0  0  0  0  0
  -10.4600  -10.4790   -5.5420 H   0  0  0  0  0  0  0  0  0  0  0  0
  -11.0890   -9.0810   -6.2980 H   0  0  0  0  0  0  0  0  0  0  0  0
   -8.6580   -9.6780   -4.9990 H   0  0  0  0  0  0  0  0  0  0  0  0
   -8.0780  -11.0460   -5.9390 H   0  0  0  0  0  0  0  0  0  0  0  0
   -7.3610   -9.4460   -6.1730 H   0  0  0  0  0  0  0  0  0  0  0  0
   -9.3590   -7.6430   -6.5520 H   0  0  0  0  0  0  0  0  0  0  0  0
   -8.2120   -8.0410   -7.8030 H   0  0  0  0  0  0  0  0  0  0  0  0
  -11.0630   -8.6940   -8.4770 H   0  0  0  0  0  0  0  0  0  0  0  0
   -9.7370   -8.1840   -9.5300 H   0  0  0  0  0  0  0  0  0  0  0  0
  -10.3840   -6.0920   -7.9160 H   0  0  0  0  0  0  0  0  0  0  0  0
   -9.3480   -5.3940  -10.9100 H   0  0  0  0  0  0  0  0  0  0  0  0
   -9.8530   -4.4640   -9.5040 H   0  0  0  0  0  0  0  0  0  0  0  0
  -10.8170   -4.4300  -10.9520 H   0  0  0  0  0  0  0  0  0  0  0  0
  1  2  1  0
  2  3  2  0
  2  4  1  0
  4  5  1  0
  5  6  1  0
  5  7  1  0
  7  8  1  0
  8  9  1  0
  9 10  1  0
 10 11  1  0
 10 12  2  0
  1 13  1  0
  1 14  1  0
  1 15  1  0
  4 16  1  0
  4 17  1  0
  6 18  1  0
  6 19  1  0
  6 20  1  0
  7 21  1  0
  7 22  1  0
  8 23  1  0
  8 24  1  0
  9 25  1  0
 11 26  1  0
 11 27  1  0
 11 28  1  0
A    1
 C1 
A    2
 C2 
A    3
 O1 
A    4
 C3 
A    5
 N1 
A    6
 C4 
A    7
 C5 
A    8
 C6 
A    9
 N2 
A   10
 C7 
A   11
 C8 
A   12
 O2 
A   13
 H1 
A   14
 H2 
A   15
 H3 
A   16
 H4 
A   17
 H5 
A   18
 H6 
A   19
 H7 
A   20
 H8 
A   21
 H9 
A   22
 H10
A   23
 H11
A   24
 H12
A   25
 H13
A   26
 H14
A   27
 H15
A   28
 H16
M  END
>  <ref_pdb>  (182) 
x0051_0B

>  <ref_mols>  (182) 
x0051_0B

>  <original SMILES>  (182) 
[H]N(C(=O)C([H])([H])[H])C([H])([H])C([H])([H])N(C([H])([H])[H])C([H])([H])C(=O)C([H])([H])[H]

>  <index>  (182) 
8078.0

>  <∆∆G>  (182) 
-4.041547

>  <comRMSD>  (182) 
0.712273

>  <N_constrained_atoms>  (182) 
9.0

>  <N_unconstrained_atoms>  (182) 
3.0

>  <LE>  (182) 
0.336796

>  <percent_hybrid>  (182) 
45.0

>  <largest_ring>  (182) 
0.0

>  <N_HA>  (182) 
12.0

>  <N_rotatable_bonds>  (182) 
8.0

>  <max_hit_Tanimoto>  (182) 
0.091667

>  <N_interactions_kept>  (182) 
0.0

>  <N_interactions_lost>  (182) 
0.0

>  <interaction_uniqueness_metric>  (182) 
0.106229

>  <N_interactions>  (182) 
4.0

>  <N_PAINS>  (182) 
0.0

>  <UFF_Gibbs>  (182) 
98.117626

>  <strain_per_HA>  (182) 
8.176401

>  <ad_hoc_penalty>  (182) 
-10.640888

>  <cluster>  (182) 
602.0

>  <intxn_cluster>  (182) 
11.0

>  <keep>  (182) 
1.0

>  <hydroph_interaction:GLN:74>  (182) 
0.0

>  <hydroph_interaction:THR:118>  (182) 
0.0

>  <hydroph_interaction:ILE:123>  (182) 
1.0

>  <hydroph_interaction:THR:166>  (182) 
0.0

>  <hbond:GLN:167>  (182) 
0.0

>  <hydroph_interaction:ALA:88>  (182) 
0.0

>  <hydroph_interaction:ASP:120>  (182) 
1.0

>  <hydroph_interaction:GLN:167>  (182) 
0.0

>  <hbond:THR:118>  (182) 
1.0

>  <hydroph_interaction:ALA:164>  (182) 
1.0

>  <hbond:ASP:120>  (182) 
0.0

>  <hbond:THR:166>  (182) 
0.0

>  <hydroph_interaction:LEU:76>  (182) 
0.0

>  <hbond:ILE:165>  (182) 
0.0

>  <halogenbond:GLN:74>  (182) 
0.0

>  <hbond:GLN:74>  (182) 
0.0

>  <hbond:LYS:73>  (182) 
0.0

>  <pistack:TRP:69>  (182) 
0.0

>  <hbond:TRP:83>  (182) 
0.0

>  <hydroph_interaction:TRP:83>  (182) 
0.0

>  <hydroph_interaction:TRP:69>  (182) 
0.0

>  <pication:TRP:69>  (182) 
0.0

>  <hydroph_interaction:PRO:82>  (182) 
0.0

>  <halogenbond:LYS:73>  (182) 
0.0

>  <hydroph_interaction:TYR:68>  (182) 
0.0

>  <halogenbond:GLN:167>  (182) 
0.0

>  <hydroph_interaction:PHE:116>  (182) 
0.0

>  <hbond:TYR:68>  (182) 
0.0

>  <hbond:ASP:122>  (182) 
0.0

>  <pistack:PHE:116>  (182) 
0.0

>  <hydroph_interaction:VAL:154>  (182) 
0.0

>  <hydroph_interaction:ASP:75>  (182) 
0.0

>  <hbond:GLY:121>  (182) 
0.0

>  <hydroph_interaction:ASN:152>  (182) 
0.0

>  <halogenbond:ILE:165>  (182) 
0.0

$$$$
Z1646598820-x0214S3-Z198195906S4
     RDKit          3D

 34 35  0  0  0  0  0  0  0  0999 V2000
  -13.0590   -9.2630   -7.0530 C   0  0  0  0  0  0  0  0  0  0  0  0
  -11.9970  -10.0640   -7.4680 C   0  0  0  0  0  0  0  0  0  0  0  0
  -12.1820  -11.4510   -7.5120 C   0  0  0  0  0  0  0  0  0  0  0  0
  -11.1490  -12.2750   -7.9240 C   0  0  0  0  0  0  0  0  0  0  0  0
   -9.9630  -11.6900   -8.2720 C   0  0  0  0  0  0  0  0  0  0  0  0
   -9.7320  -10.3550   -8.2400 N   0  0  0  0  0  0  0  0  0  0  0  0
  -10.7420   -9.5310   -7.8500 C   0  0  0  0  0  0  0  0  0  0  0  0
  -10.4290   -8.0300   -7.8550 C   0  0  0  0  0  0  0  0  0  0  0  0
   -9.7780   -7.5120   -9.0970 N   0  0  0  0  0  0  0  0  0  0  0  0
  -10.5340   -6.4900   -9.8730 C   0  0  2  0  0  0  0  0  0  0  0  0
  -10.1720   -5.0460   -9.6050 C   0  0  0  0  0  0  0  0  0  0  0  0
  -11.9830   -6.7500   -9.5620 C   0  0  0  0  0  0  0  0  0  0  0  0
  -12.4560   -6.3410   -8.3270 C   0  0  0  0  0  0  0  0  0  0  0  0
  -13.7540   -6.6040   -7.9880 C   0  0  0  0  0  0  0  0  0  0  0  0
  -14.5470   -7.2740   -8.9030 C   0  0  0  0  0  0  0  0  0  0  0  0
  -14.0050   -7.6370  -10.1240 C   0  0  0  0  0  0  0  0  0  0  0  0
  -12.7440   -7.3820  -10.4830 N   0  0  0  0  0  0  0  0  0  0  0  0
  -12.7070   -8.2960   -6.6800 H   0  0  0  0  0  0  0  0  0  0  0  0
  -13.6080   -9.7440   -6.2380 H   0  0  0  0  0  0  0  0  0  0  0  0
  -13.7370   -9.0640   -7.8850 H   0  0  0  0  0  0  0  0  0  0  0  0
  -13.1290  -11.8950   -7.2280 H   0  0  0  0  0  0  0  0  0  0  0  0
  -11.2710  -13.3520   -7.9710 H   0  0  0  0  0  0  0  0  0  0  0  0
   -9.1420  -12.3010   -8.6010 H   0  0  0  0  0  0  0  0  0  0  0  0
  -11.3690   -7.5090   -7.6710 H   0  0  0  0  0  0  0  0  0  0  0  0
   -9.7920   -7.8120   -6.9880 H   0  0  0  0  0  0  0  0  0  0  0  0
   -8.8730   -7.1140   -8.8440 H   0  0  0  0  0  0  0  0  0  0  0  0
  -10.3840   -6.6510  -10.9400 H   0  0  0  0  0  0  0  0  0  0  0  0
  -10.1140   -4.4820  -10.5450 H   0  0  0  0  0  0  0  0  0  0  0  0
   -9.1940   -4.9600   -9.1190 H   0  0  0  0  0  0  0  0  0  0  0  0
  -10.9120   -4.5520   -8.9670 H   0  0  0  0  0  0  0  0  0  0  0  0
  -11.8020   -5.8260   -7.6280 H   0  0  0  0  0  0  0  0  0  0  0  0
  -14.1530   -6.3010   -7.0230 H   0  0  0  0  0  0  0  0  0  0  0  0
  -15.5790   -7.5090   -8.6710 H   0  0  0  0  0  0  0  0  0  0  0  0
  -14.6010   -8.1590  -10.8690 H   0  0  0  0  0  0  0  0  0  0  0  0
  1  2  1  0
  2  3  2  0
  3  4  1  0
  4  5  2  0
  5  6  1  0
  6  7  2  0
  7  8  1  0
  8  9  1  0
  9 10  1  0
 10 11  1  0
 10 12  1  0
 12 13  2  0
 13 14  1  0
 14 15  2  0
 15 16  1  0
 16 17  2  0
  7  2  1  0
 17 12  1  0
  1 18  1  0
  1 19  1  0
  1 20  1  0
  3 21  1  0
  4 22  1  0
  5 23  1  0
  8 24  1  0
  8 25  1  0
  9 26  1  0
 10 27  1  6
 11 28  1  0
 11 29  1  0
 11 30  1  0
 13 31  1  0
 14 32  1  0
 15 33  1  0
 16 34  1  0
A    1
 C1 
A    2
 C2 
A    3
 C3 
A    4
 C4 
A    5
 C5 
A    6
 N1 
A    7
 C6 
A    8
 C7 
A    9
 N2 
A   10
 C8 
A   11
 C9 
A   12
 C10
A   13
 C11
A   14
 C12
A   15
 C13
A   16
 C14
A   17
 N3 
A   18
 H1 
A   19
 H2 
A   20
 H3 
A   21
 H4 
A   22
 H5 
A   23
 H6 
A   24
 H7 
A   25
 H8 
A   26
 H9 
A   27
 H10
A   28
 H11
A   29
 H12
A   30
 H13
A   31
 H14
A   32
 H15
A   33
 H16
A   34
 H17
M  END
>  <ref_pdb>  (183) 
x0051_0B

>  <ref_mols>  (183) 
x0051_0B

>  <original SMILES>  (183) 
[H]c1nc([C@]([H])(N([H])C([H])([H])c2nc([H])c([H])c([H])c2C([H])([H])[H])C([H])([H])[H])c([H])c([H])c1[H]

>  <index>  (183) 
997.0

>  <∆∆G>  (183) 
-4.445482

>  <comRMSD>  (183) 
0.74497

>  <N_constrained_atoms>  (183) 
17.0

>  <N_unconstrained_atoms>  (183) 
0.0

>  <LE>  (183) 
0.261499

>  <percent_hybrid>  (183) 
32.0

>  <largest_ring>  (183) 
6.0

>  <N_HA>  (183) 
17.0

>  <N_rotatable_bonds>  (183) 
6.0

>  <max_hit_Tanimoto>  (183) 
0.181818

>  <N_interactions_kept>  (183) 
0.5

>  <N_interactions_lost>  (183) 
1.0

>  <interaction_uniqueness_metric>  (183) 
0.060884

>  <N_interactions>  (183) 
4.0

>  <N_PAINS>  (183) 
0.0

>  <UFF_Gibbs>  (183) 
275.200895

>  <strain_per_HA>  (183) 
16.188193

>  <ad_hoc_penalty>  (183) 
-10.135935

>  <cluster>  (183) 
778.0

>  <intxn_cluster>  (183) 
6.0

>  <keep>  (183) 
1.0

>  <hydroph_interaction:GLN:74>  (183) 
0.0

>  <hydroph_interaction:THR:118>  (183) 
0.0

>  <hydroph_interaction:ILE:123>  (183) 
2.0

>  <hydroph_interaction:THR:166>  (183) 
0.0

>  <hbond:GLN:167>  (183) 
0.0

>  <hydroph_interaction:ALA:88>  (183) 
0.0

>  <hydroph_interaction:ASP:120>  (183) 
1.0

>  <hydroph_interaction:GLN:167>  (183) 
0.0

>  <hbond:THR:118>  (183) 
1.0

>  <hydroph_interaction:ALA:164>  (183) 
0.0

>  <hbond:ASP:120>  (183) 
0.0

>  <hbond:THR:166>  (183) 
0.0

>  <hydroph_interaction:LEU:76>  (183) 
0.0

>  <hbond:ILE:165>  (183) 
0.0

>  <halogenbond:GLN:74>  (183) 
0.0

>  <hbond:GLN:74>  (183) 
0.0

>  <hbond:LYS:73>  (183) 
0.0

>  <pistack:TRP:69>  (183) 
0.0

>  <hbond:TRP:83>  (183) 
0.0

>  <hydroph_interaction:TRP:83>  (183) 
0.0

>  <hydroph_interaction:TRP:69>  (183) 
0.0

>  <pication:TRP:69>  (183) 
0.0

>  <hydroph_interaction:PRO:82>  (183) 
0.0

>  <halogenbond:LYS:73>  (183) 
0.0

>  <hydroph_interaction:TYR:68>  (183) 
0.0

>  <halogenbond:GLN:167>  (183) 
0.0

>  <hydroph_interaction:PHE:116>  (183) 
0.0

>  <hbond:TYR:68>  (183) 
0.0

>  <hbond:ASP:122>  (183) 
0.0

>  <pistack:PHE:116>  (183) 
0.0

>  <hydroph_interaction:VAL:154>  (183) 
0.0

>  <hydroph_interaction:ASP:75>  (183) 
0.0

>  <hbond:GLY:121>  (183) 
0.0

>  <hydroph_interaction:ASN:152>  (183) 
0.0

>  <halogenbond:ILE:165>  (183) 
0.0

$$$$
Z900639006-Z198195906S9-x0214S3
     RDKit          3D

 31 32  0  0  0  0  0  0  0  0999 V2000
  -10.4310   -5.1090  -10.4100 C   0  0  0  0  0  0  0  0  0  0  0  0
  -10.7270   -5.8460   -9.1580 C   0  0  2  0  0  0  0  0  0  0  0  0
   -9.9600   -7.1080   -8.9410 N   0  0  0  0  0  0  0  0  0  0  0  0
  -10.5360   -7.8780   -7.8150 C   0  0  0  0  0  0  0  0  0  0  0  0
  -10.7710   -9.2530   -8.0460 C   0  0  0  0  0  0  0  0  0  0  0  0
  -11.8170  -10.0160   -7.5250 C   0  0  0  0  0  0  0  0  0  0  0  0
  -11.9580  -11.3930   -7.8040 C   0  0  0  0  0  0  0  0  0  0  0  0
  -11.0710  -12.1280   -8.6210 C   0  0  0  0  0  0  0  0  0  0  0  0
   -9.9990  -11.4700   -9.1920 N   0  0  0  0  0  0  0  0  0  0  0  0
   -9.8300  -10.0310   -8.9240 C   0  0  0  0  0  0  0  0  0  0  0  0
  -12.1100   -6.3440   -9.0130 C   0  0  0  0  0  0  0  0  0  0  0  0
  -12.8620   -6.2890   -7.7280 C   0  0  0  0  0  0  0  0  0  0  0  0
  -14.1880   -6.8390   -7.5990 C   0  0  0  0  0  0  0  0  0  0  0  0
  -14.8250   -7.4300   -8.6440 C   0  0  0  0  0  0  0  0  0  0  0  0
  -14.0530   -7.4500   -9.9270 C   0  0  0  0  0  0  0  0  0  0  0  0
  -12.8200   -6.9370  -10.0420 N   0  0  0  0  0  0  0  0  0  0  0  0
  -10.2450   -4.0460  -10.2160 H   0  0  0  0  0  0  0  0  0  0  0  0
   -9.5610   -5.5310  -10.9200 H   0  0  0  0  0  0  0  0  0  0  0  0
  -11.2820   -5.1590  -11.0940 H   0  0  0  0  0  0  0  0  0  0  0  0
  -10.5100   -5.1740   -8.3210 H   0  0  0  0  0  0  0  0  0  0  0  0
   -9.0170   -6.8280   -8.6480 H   0  0  0  0  0  0  0  0  0  0  0  0
   -9.8800   -7.8010   -6.9410 H   0  0  0  0  0  0  0  0  0  0  0  0
  -11.4900   -7.4380   -7.5130 H   0  0  0  0  0  0  0  0  0  0  0  0
  -12.5540   -9.5410   -6.8780 H   0  0  0  0  0  0  0  0  0  0  0  0
  -12.7990  -11.9180   -7.3610 H   0  0  0  0  0  0  0  0  0  0  0  0
  -11.1910  -13.1890   -8.8230 H   0  0  0  0  0  0  0  0  0  0  0  0
   -8.9800   -9.5590   -9.3990 H   0  0  0  0  0  0  0  0  0  0  0  0
  -12.3980   -5.8340   -6.8470 H   0  0  0  0  0  0  0  0  0  0  0  0
  -14.6930   -6.7850   -6.6430 H   0  0  0  0  0  0  0  0  0  0  0  0
  -15.8220   -7.8510   -8.5570 H   0  0  0  0  0  0  0  0  0  0  0  0
  -14.4720   -7.8900  -10.8280 H   0  0  0  0  0  0  0  0  0  0  0  0
  1  2  1  0
  2  3  1  0
  3  4  1  0
  4  5  1  0
  5  6  2  0
  6  7  1  0
  7  8  2  0
  8  9  1  0
  9 10  2  0
  2 11  1  0
 11 12  2  0
 12 13  1  0
 13 14  2  0
 14 15  1  0
 15 16  2  0
 10  5  1  0
 16 11  1  0
  1 17  1  0
  1 18  1  0
  1 19  1  0
  2 20  1  1
  3 21  1  0
  4 22  1  0
  4 23  1  0
  6 24  1  0
  7 25  1  0
  8 26  1  0
 10 27  1  0
 12 28  1  0
 13 29  1  0
 14 30  1  0
 15 31  1  0
A    1
 C1 
A    2
 C2 
A    3
 N1 
A    4
 C3 
A    5
 C4 
A    6
 C5 
A    7
 C6 
A    8
 C7 
A    9
 N2 
A   10
 C8 
A   11
 C9 
A   12
 C10
A   13
 C11
A   14
 C12
A   15
 C13
A   16
 N3 
A   17
 H1 
A   18
 H2 
A   19
 H3 
A   20
 H4 
A   21
 H5 
A   22
 H6 
A   23
 H7 
A   24
 H8 
A   25
 H9 
A   26
 H10
A   27
 H11
A   28
 H12
A   29
 H13
A   30
 H14
A   31
 H15
M  END
>  <ref_pdb>  (184) 
x0051_0B

>  <ref_mols>  (184) 
x0051_0B

>  <original SMILES>  (184) 
[H]c1nc([C@@]([H])(N([H])C([H])([H])c2c([H])nc([H])c([H])c2[H])C([H])([H])[H])c([H])c([H])c1[H]

>  <index>  (184) 
1646.0

>  <∆∆G>  (184) 
-3.220385

>  <comRMSD>  (184) 
0.847656

>  <N_constrained_atoms>  (184) 
16.0

>  <N_unconstrained_atoms>  (184) 
0.0

>  <LE>  (184) 
0.201274

>  <percent_hybrid>  (184) 
34.0

>  <largest_ring>  (184) 
6.0

>  <N_HA>  (184) 
16.0

>  <N_rotatable_bonds>  (184) 
5.0

>  <max_hit_Tanimoto>  (184) 
0.171296

>  <N_interactions_kept>  (184) 
0.5

>  <N_interactions_lost>  (184) 
0.5

>  <interaction_uniqueness_metric>  (184) 
0.082795

>  <N_interactions>  (184) 
3.0

>  <N_PAINS>  (184) 
0.0

>  <UFF_Gibbs>  (184) 
217.74887

>  <strain_per_HA>  (184) 
13.609219

>  <ad_hoc_penalty>  (184) 
-9.688352

>  <cluster>  (184) 
763.0

>  <intxn_cluster>  (184) 
11.0

>  <keep>  (184) 
1.0

>  <hydroph_interaction:GLN:74>  (184) 
0.0

>  <hydroph_interaction:THR:118>  (184) 
0.0

>  <hydroph_interaction:ILE:123>  (184) 
1.0

>  <hydroph_interaction:THR:166>  (184) 
0.0

>  <hbond:GLN:167>  (184) 
0.0

>  <hydroph_interaction:ALA:88>  (184) 
0.0

>  <hydroph_interaction:ASP:120>  (184) 
0.0

>  <hydroph_interaction:GLN:167>  (184) 
0.0

>  <hbond:THR:118>  (184) 
1.0

>  <hydroph_interaction:ALA:164>  (184) 
1.0

>  <hbond:ASP:120>  (184) 
0.0

>  <hbond:THR:166>  (184) 
0.0

>  <hydroph_interaction:LEU:76>  (184) 
0.0

>  <hbond:ILE:165>  (184) 
0.0

>  <halogenbond:GLN:74>  (184) 
0.0

>  <hbond:GLN:74>  (184) 
0.0

>  <hbond:LYS:73>  (184) 
0.0

>  <pistack:TRP:69>  (184) 
0.0

>  <hbond:TRP:83>  (184) 
0.0

>  <hydroph_interaction:TRP:83>  (184) 
0.0

>  <hydroph_interaction:TRP:69>  (184) 
0.0

>  <pication:TRP:69>  (184) 
0.0

>  <hydroph_interaction:PRO:82>  (184) 
0.0

>  <halogenbond:LYS:73>  (184) 
0.0

>  <hydroph_interaction:TYR:68>  (184) 
0.0

>  <halogenbond:GLN:167>  (184) 
0.0

>  <hydroph_interaction:PHE:116>  (184) 
0.0

>  <hbond:TYR:68>  (184) 
0.0

>  <hbond:ASP:122>  (184) 
0.0

>  <pistack:PHE:116>  (184) 
0.0

>  <hydroph_interaction:VAL:154>  (184) 
0.0

>  <hydroph_interaction:ASP:75>  (184) 
0.0

>  <hbond:GLY:121>  (184) 
0.0

>  <hydroph_interaction:ASN:152>  (184) 
0.0

>  <halogenbond:ILE:165>  (184) 
0.0

$$$$
Z2764026239-Z198195906S6-x0806
     RDKit          3D

 30 31  0  0  0  0  0  0  0  0999 V2000
  -10.5180   -7.8870   -8.4690 C   0  0  0  0  0  0  0  0  0  0  0  0
  -10.0100   -7.0200   -9.4860 O   0  0  0  0  0  0  0  0  0  0  0  0
  -10.9460   -5.9890   -9.8310 C   0  0  0  0  0  0  0  0  0  0  0  0
  -12.2220   -6.4090   -9.4710 C   0  0  0  0  0  0  0  0  0  0  0  0
  -12.8300   -5.9310   -8.3110 C   0  0  0  0  0  0  0  0  0  0  0  0
  -14.1060   -6.4090   -7.9860 C   0  0  0  0  0  0  0  0  0  0  0  0
  -14.7730   -7.3500   -8.7910 C   0  0  0  0  0  0  0  0  0  0  0  0
  -14.1250   -7.7940   -9.9390 C   0  0  0  0  0  0  0  0  0  0  0  0
  -14.7710   -8.7740  -10.7930 N   0  0  0  0  0  0  0  0  0  0  0  0
  -15.1620  -10.0620  -10.3460 C   0  0  0  0  0  0  0  0  0  0  0  0
  -15.7410  -10.7830  -11.4890 C   0  0  0  0  0  0  0  0  0  0  0  0
  -16.2720  -12.1630  -11.5210 C   0  0  0  0  0  0  0  0  0  0  0  0
  -17.1820  -12.4820  -12.5400 C   0  0  0  0  0  0  0  0  0  0  0  0
  -15.9020  -12.9940  -10.6990 O   0  0  0  0  0  0  0  0  0  0  0  0
  -15.6680   -9.8810  -12.5290 N   0  0  0  0  0  0  0  0  0  0  0  0
  -15.1020   -8.7100  -12.1130 N   0  0  0  0  0  0  0  0  0  0  0  0
  -12.8830   -7.3260  -10.2680 C   0  0  0  0  0  0  0  0  0  0  0  0
  -11.4160   -8.4120   -8.8080 H   0  0  0  0  0  0  0  0  0  0  0  0
  -10.7830   -7.2870   -7.5900 H   0  0  0  0  0  0  0  0  0  0  0  0
   -9.7750   -8.6420   -8.1950 H   0  0  0  0  0  0  0  0  0  0  0  0
  -10.8930   -5.8300  -10.9160 H   0  0  0  0  0  0  0  0  0  0  0  0
  -10.6840   -5.0610   -9.3050 H   0  0  0  0  0  0  0  0  0  0  0  0
  -12.4210   -5.2170   -7.6130 H   0  0  0  0  0  0  0  0  0  0  0  0
  -14.5930   -6.0480   -7.0870 H   0  0  0  0  0  0  0  0  0  0  0  0
  -15.7600   -7.7010   -8.5020 H   0  0  0  0  0  0  0  0  0  0  0  0
  -15.0490  -10.4630   -9.3340 H   0  0  0  0  0  0  0  0  0  0  0  0
  -16.7220  -13.2290  -13.1900 H   0  0  0  0  0  0  0  0  0  0  0  0
  -17.5180  -11.6630  -13.1810 H   0  0  0  0  0  0  0  0  0  0  0  0
  -18.0770  -12.9150  -12.0830 H   0  0  0  0  0  0  0  0  0  0  0  0
  -12.3910   -7.6710  -11.1570 H   0  0  0  0  0  0  0  0  0  0  0  0
  1  2  1  0
  2  3  1  0
  3  4  1  0
  4  5  2  0
  5  6  1  0
  6  7  2  0
  7  8  1  0
  8  9  1  0
  9 10  1  0
 10 11  2  0
 11 12  1  0
 12 13  1  0
 12 14  2  0
 11 15  1  0
 15 16  2  0
  8 17  2  0
 17  4  1  0
 16  9  1  0
  1 18  1  0
  1 19  1  0
  1 20  1  0
  3 21  1  0
  3 22  1  0
  5 23  1  0
  6 24  1  0
  7 25  1  0
 10 26  1  0
 13 27  1  0
 13 28  1  0
 13 29  1  0
 17 30  1  0
A    1
 C1 
A    2
 O1 
A    3
 C2 
A    4
 C3 
A    5
 C4 
A    6
 C5 
A    7
 C6 
A    8
 C7 
A    9
 N1 
A   10
 C8 
A   11
 C9 
A   12
 C10
A   13
 C11
A   14
 O2 
A   15
 N2 
A   16
 N3 
A   17
 C12
A   18
 H1 
A   19
 H2 
A   20
 H3 
A   21
 H4 
A   22
 H5 
A   23
 H6 
A   24
 H7 
A   25
 H8 
A   26
 H9 
A   27
 H10
A   28
 H11
A   29
 H12
A   30
 H13
M  END
>  <ref_pdb>  (185) 
x0051_0B

>  <ref_mols>  (185) 
x0051_0B

>  <original SMILES>  (185) 
[H]c1c([H])c(-n2nnc(C(=O)C([H])([H])[H])c2[H])c([H])c(C([H])([H])OC([H])([H])[H])c1[H]

>  <index>  (185) 
156.0

>  <∆∆G>  (185) 
-5.684552

>  <comRMSD>  (185) 
0.488327

>  <N_constrained_atoms>  (185) 
18.0

>  <N_unconstrained_atoms>  (185) 
0.0

>  <LE>  (185) 
0.315808

>  <percent_hybrid>  (185) 
24.0

>  <largest_ring>  (185) 
6.0

>  <N_HA>  (185) 
17.0

>  <N_rotatable_bonds>  (185) 
6.0

>  <max_hit_Tanimoto>  (185) 
0.580343

>  <N_interactions_kept>  (185) 
0.5

>  <N_interactions_lost>  (185) 
1.5

>  <interaction_uniqueness_metric>  (185) 
0.072028

>  <N_interactions>  (185) 
4.0

>  <N_PAINS>  (185) 
0.0

>  <UFF_Gibbs>  (185) 
66.342443

>  <strain_per_HA>  (185) 
3.902474

>  <ad_hoc_penalty>  (185) 
-9.674568

>  <cluster>  (185) 
302.0

>  <intxn_cluster>  (185) 
17.0

>  <keep>  (185) 
1.0

>  <hydroph_interaction:GLN:74>  (185) 
0.0

>  <hydroph_interaction:THR:118>  (185) 
0.0

>  <hydroph_interaction:ILE:123>  (185) 
1.0

>  <hydroph_interaction:THR:166>  (185) 
0.0

>  <hbond:GLN:167>  (185) 
2.0

>  <hydroph_interaction:ALA:88>  (185) 
1.0

>  <hydroph_interaction:ASP:120>  (185) 
0.0

>  <hydroph_interaction:GLN:167>  (185) 
0.0

>  <hbond:THR:118>  (185) 
0.0

>  <hydroph_interaction:ALA:164>  (185) 
0.0

>  <hbond:ASP:120>  (185) 
0.0

>  <hbond:THR:166>  (185) 
0.0

>  <hydroph_interaction:LEU:76>  (185) 
0.0

>  <hbond:ILE:165>  (185) 
0.0

>  <halogenbond:GLN:74>  (185) 
0.0

>  <hbond:GLN:74>  (185) 
0.0

>  <hbond:LYS:73>  (185) 
0.0

>  <pistack:TRP:69>  (185) 
0.0

>  <hbond:TRP:83>  (185) 
0.0

>  <hydroph_interaction:TRP:83>  (185) 
0.0

>  <hydroph_interaction:TRP:69>  (185) 
0.0

>  <pication:TRP:69>  (185) 
0.0

>  <hydroph_interaction:PRO:82>  (185) 
0.0

>  <halogenbond:LYS:73>  (185) 
0.0

>  <hydroph_interaction:TYR:68>  (185) 
0.0

>  <halogenbond:GLN:167>  (185) 
0.0

>  <hydroph_interaction:PHE:116>  (185) 
0.0

>  <hbond:TYR:68>  (185) 
0.0

>  <hbond:ASP:122>  (185) 
0.0

>  <pistack:PHE:116>  (185) 
0.0

>  <hydroph_interaction:VAL:154>  (185) 
0.0

>  <hydroph_interaction:ASP:75>  (185) 
0.0

>  <hbond:GLY:121>  (185) 
0.0

>  <hydroph_interaction:ASN:152>  (185) 
0.0

>  <halogenbond:ILE:165>  (185) 
0.0

$$$$
PV-006191467984-x0806-Z1318054286S3
     RDKit          3D

 41 43  0  0  0  0  0  0  0  0999 V2000
  -17.3200  -12.4190  -12.4760 C   0  0  0  0  0  0  0  0  0  0  0  0
  -16.2810  -12.0720  -11.4470 C   0  0  0  0  0  0  0  0  0  0  0  0
  -15.7990  -13.1600  -10.6500 O   0  0  0  0  0  0  0  0  0  0  0  0
  -15.6820  -10.6900  -11.2240 C   0  0  0  0  0  0  0  0  0  0  0  0
  -15.5500   -9.7930  -12.3470 N   0  0  0  0  0  0  0  0  0  0  0  0
  -14.9800   -8.7240  -11.7190 C   0  0  0  0  0  0  0  0  0  0  0  0
  -14.7640   -8.8920  -10.3640 C   0  0  0  0  0  0  0  0  0  0  0  0
  -14.1580   -7.8750   -9.5850 C   0  0  0  0  0  0  0  0  0  0  0  0
  -14.6900   -6.6230   -9.3140 C   0  0  0  0  0  0  0  0  0  0  0  0
  -14.0780   -5.6160   -8.5810 C   0  0  0  0  0  0  0  0  0  0  0  0
  -12.8200   -5.8530   -8.0600 C   0  0  0  0  0  0  0  0  0  0  0  0
  -12.2510   -7.0990   -8.2910 C   0  0  0  0  0  0  0  0  0  0  0  0
  -11.1370   -7.4130   -7.8490 O   0  0  0  0  0  0  0  0  0  0  0  0
   -9.9630   -7.1660   -8.6260 C   0  0  0  0  0  0  0  0  0  0  0  0
   -9.2600   -8.3830   -8.8370 C   0  0  0  0  0  0  0  0  0  0  0  0
  -10.1410   -9.6110   -8.6240 C   0  0  0  0  0  0  0  0  0  0  0  0
   -9.7950  -10.8750   -9.1500 C   0  0  0  0  0  0  0  0  0  0  0  0
  -10.5800  -12.0050   -8.9810 C   0  0  0  0  0  0  0  0  0  0  0  0
  -11.7550  -11.9070   -8.2640 C   0  0  0  0  0  0  0  0  0  0  0  0
  -12.1120  -10.6720   -7.7290 C   0  0  0  0  0  0  0  0  0  0  0  0
  -11.3270   -9.5290   -7.8940 C   0  0  0  0  0  0  0  0  0  0  0  0
  -12.9190   -8.0850   -9.0330 C   0  0  0  0  0  0  0  0  0  0  0  0
  -15.2220  -10.1610  -10.0480 N   0  0  0  0  0  0  0  0  0  0  0  0
  -17.8820  -11.5260  -12.7680 H   0  0  0  0  0  0  0  0  0  0  0  0
  -18.0150  -13.1710  -12.0900 H   0  0  0  0  0  0  0  0  0  0  0  0
  -16.8640  -12.8280  -13.3840 H   0  0  0  0  0  0  0  0  0  0  0  0
  -14.7120   -7.8220  -12.2330 H   0  0  0  0  0  0  0  0  0  0  0  0
  -15.6660   -6.3800   -9.6980 H   0  0  0  0  0  0  0  0  0  0  0  0
  -14.5780   -4.6640   -8.4270 H   0  0  0  0  0  0  0  0  0  0  0  0
  -12.2980   -5.0910   -7.4800 H   0  0  0  0  0  0  0  0  0  0  0  0
  -10.2660   -6.7710   -9.5960 H   0  0  0  0  0  0  0  0  0  0  0  0
   -9.4200   -6.3710   -8.1250 H   0  0  0  0  0  0  0  0  0  0  0  0
   -8.4200   -8.4230   -8.1520 H   0  0  0  0  0  0  0  0  0  0  0  0
   -8.6600   -8.2830   -9.7220 H   0  0  0  0  0  0  0  0  0  0  0  0
   -8.8710  -10.9360   -9.7110 H   0  0  0  0  0  0  0  0  0  0  0  0
  -10.2690  -12.9500   -9.4100 H   0  0  0  0  0  0  0  0  0  0  0  0
  -12.3860  -12.7800   -8.1200 H   0  0  0  0  0  0  0  0  0  0  0  0
  -13.0350  -10.5920   -7.1610 H   0  0  0  0  0  0  0  0  0  0  0  0
  -11.6540   -8.5950   -7.4530 H   0  0  0  0  0  0  0  0  0  0  0  0
  -12.4220   -9.0390   -9.1690 H   0  0  0  0  0  0  0  0  0  0  0  0
  -15.2220  -10.6270   -9.1500 H   0  0  0  0  0  0  0  0  0  0  0  0
  1  2  1  0
  2  3  2  0
  2  4  1  0
  4  5  2  0
  5  6  1  0
  6  7  2  0
  7  8  1  0
  8  9  2  0
  9 10  1  0
 10 11  2  0
 11 12  1  0
 12 13  1  0
 13 14  1  0
 14 15  1  0
 15 16  1  0
 16 17  2  0
 17 18  1  0
 18 19  2  0
 19 20  1  0
 20 21  2  0
 12 22  2  0
  7 23  1  0
 23  4  1  0
 22  8  1  0
 21 16  1  0
  1 24  1  0
  1 25  1  0
  1 26  1  0
  6 27  1  0
  9 28  1  0
 10 29  1  0
 11 30  1  0
 14 31  1  0
 14 32  1  0
 15 33  1  0
 15 34  1  0
 17 35  1  0
 18 36  1  0
 19 37  1  0
 20 38  1  0
 21 39  1  0
 22 40  1  0
 23 41  1  0
A    1
 C1 
A    2
 C2 
A    3
 O1 
A    4
 C3 
A    5
 N1 
A    6
 C4 
A    7
 C5 
A    8
 C6 
A    9
 C7 
A   10
 C8 
A   11
 C9 
A   12
 C10
A   13
 O2 
A   14
 C11
A   15
 C12
A   16
 C13
A   17
 C14
A   18
 C15
A   19
 C16
A   20
 C17
A   21
 C18
A   22
 C19
A   23
 N2 
A   24
 H1 
A   25
 H2 
A   26
 H3 
A   27
 H4 
A   28
 H5 
A   29
 H6 
A   30
 H7 
A   31
 H8 
A   32
 H9 
A   33
 H10
A   34
 H11
A   35
 H12
A   36
 H13
A   37
 H14
A   38
 H15
A   39
 H16
A   40
 H17
A   41
 H18
M  END
>  <ref_pdb>  (186) 
x0051_0B

>  <ref_mols>  (186) 
x0051_0B

>  <original SMILES>  (186) 
[H]c1nc(C(=O)C([H])([H])[H])n([H])c1-c1c([H])c([H])c([H])c(OC([H])([H])C([H])([H])c2c([H])c([H])c([H])c([H])c2[H])c1[H]

>  <index>  (186) 
635.0

>  <∆∆G>  (186) 
-5.002462

>  <comRMSD>  (186) 
0.901471

>  <N_constrained_atoms>  (186) 
21.0

>  <N_unconstrained_atoms>  (186) 
2.0

>  <LE>  (186) 
0.217498

>  <percent_hybrid>  (186) 
34.0

>  <largest_ring>  (186) 
6.0

>  <N_HA>  (186) 
23.0

>  <N_rotatable_bonds>  (186) 
7.0

>  <max_hit_Tanimoto>  (186) 
0.177474

>  <N_interactions_kept>  (186) 
1.0

>  <N_interactions_lost>  (186) 
2.0

>  <interaction_uniqueness_metric>  (186) 
0.079277

>  <N_interactions>  (186) 
6.0

>  <N_PAINS>  (186) 
0.0

>  <UFF_Gibbs>  (186) 
1935.818385

>  <strain_per_HA>  (186) 
84.165651

>  <ad_hoc_penalty>  (186) 
-8.970397

>  <cluster>  (186) 
5788.0

>  <intxn_cluster>  (186) 
17.0

>  <keep>  (186) 
1.0

>  <hydroph_interaction:GLN:74>  (186) 
0.0

>  <hydroph_interaction:THR:118>  (186) 
0.0

>  <hydroph_interaction:ILE:123>  (186) 
3.0

>  <hydroph_interaction:THR:166>  (186) 
0.0

>  <hbond:GLN:167>  (186) 
2.0

>  <hydroph_interaction:ALA:88>  (186) 
1.0

>  <hydroph_interaction:ASP:120>  (186) 
0.0

>  <hydroph_interaction:GLN:167>  (186) 
0.0

>  <hbond:THR:118>  (186) 
0.0

>  <hydroph_interaction:ALA:164>  (186) 
0.0

>  <hbond:ASP:120>  (186) 
0.0

>  <hbond:THR:166>  (186) 
0.0

>  <hydroph_interaction:LEU:76>  (186) 
0.0

>  <hbond:ILE:165>  (186) 
0.0

>  <halogenbond:GLN:74>  (186) 
0.0

>  <hbond:GLN:74>  (186) 
0.0

>  <hbond:LYS:73>  (186) 
0.0

>  <pistack:TRP:69>  (186) 
0.0

>  <hbond:TRP:83>  (186) 
0.0

>  <hydroph_interaction:TRP:83>  (186) 
0.0

>  <hydroph_interaction:TRP:69>  (186) 
0.0

>  <pication:TRP:69>  (186) 
0.0

>  <hydroph_interaction:PRO:82>  (186) 
0.0

>  <halogenbond:LYS:73>  (186) 
0.0

>  <hydroph_interaction:TYR:68>  (186) 
0.0

>  <halogenbond:GLN:167>  (186) 
0.0

>  <hydroph_interaction:PHE:116>  (186) 
0.0

>  <hbond:TYR:68>  (186) 
0.0

>  <hbond:ASP:122>  (186) 
0.0

>  <pistack:PHE:116>  (186) 
0.0

>  <hydroph_interaction:VAL:154>  (186) 
0.0

>  <hydroph_interaction:ASP:75>  (186) 
0.0

>  <hbond:GLY:121>  (186) 
0.0

>  <hydroph_interaction:ASN:152>  (186) 
0.0

>  <halogenbond:ILE:165>  (186) 
0.0

$$$$
Z4776253442-x0214S2-x0884S1
     RDKit          3D

 37 38  0  0  0  0  0  0  0  0999 V2000
   -9.7890   -8.3940   -8.4900 C   0  0  0  0  0  0  0  0  0  0  0  0
  -10.8470   -9.3230   -8.0180 C   0  0  0  0  0  0  0  0  0  0  0  0
  -11.3170   -9.0650   -6.6700 N   0  0  0  0  0  0  0  0  0  0  0  0
  -12.6610   -9.5390   -6.4460 C   0  0  1  0  0  0  0  0  0  0  0  0
  -13.0610   -9.3190   -4.9990 C   0  0  0  0  0  0  0  0  0  0  0  0
  -14.1660   -8.3570   -5.0960 C   0  0  0  0  0  0  0  0  0  0  0  0
  -14.8550   -8.4470   -6.3030 C   0  0  0  0  0  0  0  0  0  0  0  0
  -13.8030   -8.9160   -7.3310 C   0  0  1  0  0  0  0  0  0  0  0  0
  -13.3240   -7.9850   -8.2720 C   0  0  0  0  0  0  0  0  0  0  0  0
  -13.4770   -8.2220   -9.6430 C   0  0  0  0  0  0  0  0  0  0  0  0
  -12.9820   -7.3230  -10.5830 C   0  0  0  0  0  0  0  0  0  0  0  0
  -12.3360   -6.1830  -10.1630 C   0  0  0  0  0  0  0  0  0  0  0  0
  -11.8390   -5.3170  -11.0400 F   0  0  0  0  0  0  0  0  0  0  0  0
  -12.1820   -5.9080   -8.8110 C   0  0  0  0  0  0  0  0  0  0  0  0
  -12.6770   -6.8090   -7.8730 C   0  0  0  0  0  0  0  0  0  0  0  0
  -10.3060  -10.7500   -7.9120 C   0  0  0  0  0  0  0  0  0  0  0  0
   -9.1340  -10.7300   -7.2480 N   0  0  0  0  0  0  0  0  0  0  0  0
  -10.8160  -11.7950   -8.3080 O   0  0  0  0  0  0  0  0  0  0  0  0
   -9.0890   -8.9040   -9.1580 H   0  0  0  0  0  0  0  0  0  0  0  0
  -10.2120   -7.5430   -9.0350 H   0  0  0  0  0  0  0  0  0  0  0  0
   -9.2020   -8.0090   -7.6500 H   0  0  0  0  0  0  0  0  0  0  0  0
  -11.6940   -9.3770   -8.7080 H   0  0  0  0  0  0  0  0  0  0  0  0
  -11.2580   -8.0640   -6.4770 H   0  0  0  0  0  0  0  0  0  0  0  0
  -12.6340  -10.6280   -6.6010 H   0  0  0  0  0  0  0  0  0  0  0  0
  -12.2540   -8.8930   -4.3960 H   0  0  0  0  0  0  0  0  0  0  0  0
  -13.3720  -10.2520   -4.5180 H   0  0  0  0  0  0  0  0  0  0  0  0
  -14.8600   -8.5280   -4.2640 H   0  0  0  0  0  0  0  0  0  0  0  0
  -13.7730   -7.3460   -4.9670 H   0  0  0  0  0  0  0  0  0  0  0  0
  -15.3160   -7.4980   -6.5900 H   0  0  0  0  0  0  0  0  0  0  0  0
  -15.6620   -9.1850   -6.2110 H   0  0  0  0  0  0  0  0  0  0  0  0
  -14.2640   -9.7280   -7.9080 H   0  0  0  0  0  0  0  0  0  0  0  0
  -13.9820   -9.1180   -9.9850 H   0  0  0  0  0  0  0  0  0  0  0  0
  -13.0970   -7.5160  -11.6480 H   0  0  0  0  0  0  0  0  0  0  0  0
  -11.6770   -5.0010   -8.5000 H   0  0  0  0  0  0  0  0  0  0  0  0
  -12.5370   -6.5720   -6.8210 H   0  0  0  0  0  0  0  0  0  0  0  0
   -9.1740  -10.4310   -6.2780 H   0  0  0  0  0  0  0  0  0  0  0  0
   -8.4370  -11.4050   -7.5180 H   0  0  0  0  0  0  0  0  0  0  0  0
  1  2  1  0
  2  3  1  0
  3  4  1  0
  4  5  1  0
  5  6  1  0
  6  7  1  0
  7  8  1  0
  8  9  1  0
  9 10  2  0
 10 11  1  0
 11 12  2  0
 12 13  1  0
 12 14  1  0
 14 15  2  0
  2 16  1  0
 16 17  1  0
 16 18  2  0
  8  4  1  0
 15  9  1  0
  1 19  1  0
  1 20  1  0
  1 21  1  0
  2 22  1  0
  3 23  1  0
  4 24  1  6
  5 25  1  0
  5 26  1  0
  6 27  1  0
  6 28  1  0
  7 29  1  0
  7 30  1  0
  8 31  1  6
 10 32  1  0
 11 33  1  0
 14 34  1  0
 15 35  1  0
 17 36  1  0
 17 37  1  0
A    1
 C1 
A    2
 C2 
A    3
 N1 
A    4
 C3 
A    5
 C4 
A    6
 C5 
A    7
 C6 
A    8
 C7 
A    9
 C8 
A   10
 C9 
A   11
 C10
A   12
 C11
A   13
 F1 
A   14
 C12
A   15
 C13
A   16
 C14
A   17
 N2 
A   18
 O1 
A   19
 H1 
A   20
 H2 
A   21
 H3 
A   22
 H4 
A   23
 H5 
A   24
 H6 
A   25
 H7 
A   26
 H8 
A   27
 H9 
A   28
 H10
A   29
 H11
A   30
 H12
A   31
 H13
A   32
 H14
A   33
 H15
A   34
 H16
A   35
 H17
A   36
 H18
A   37
 H19
M  END
>  <ref_pdb>  (187) 
x0051_0B

>  <ref_mols>  (187) 
x0051_0B

>  <original SMILES>  (187) 
[H]c1c([H])c([C@]2([H])C([H])([H])C([H])([H])C([H])([H])[C@@]2([H])N([H])C([H])(C(=O)N([H])[H])C([H])([H])[H])c([H])c([H])c1F

>  <index>  (187) 
7880.0

>  <∆∆G>  (187) 
-3.745983

>  <comRMSD>  (187) 
0.606166

>  <N_constrained_atoms>  (187) 
15.0

>  <N_unconstrained_atoms>  (187) 
4.0

>  <LE>  (187) 
0.197157

>  <percent_hybrid>  (187) 
27.0

>  <largest_ring>  (187) 
6.0

>  <N_HA>  (187) 
18.0

>  <N_rotatable_bonds>  (187) 
5.0

>  <max_hit_Tanimoto>  (187) 
0.192192

>  <N_interactions_kept>  (187) 
0.0

>  <N_interactions_lost>  (187) 
1.5

>  <interaction_uniqueness_metric>  (187) 
0.075112

>  <N_interactions>  (187) 
5.0

>  <N_PAINS>  (187) 
0.0

>  <UFF_Gibbs>  (187) 
74.858344

>  <strain_per_HA>  (187) 
4.158774

>  <ad_hoc_penalty>  (187) 
-8.932389

>  <cluster>  (187) 
20.0

>  <intxn_cluster>  (187) 
9.0

>  <keep>  (187) 
1.0

>  <hydroph_interaction:GLN:74>  (187) 
1.0

>  <hydroph_interaction:THR:118>  (187) 
0.0

>  <hydroph_interaction:ILE:123>  (187) 
2.0

>  <hydroph_interaction:THR:166>  (187) 
0.0

>  <hbond:GLN:167>  (187) 
0.0

>  <hydroph_interaction:ALA:88>  (187) 
0.0

>  <hydroph_interaction:ASP:120>  (187) 
0.0

>  <hydroph_interaction:GLN:167>  (187) 
0.0

>  <hbond:THR:118>  (187) 
2.0

>  <hydroph_interaction:ALA:164>  (187) 
0.0

>  <hbond:ASP:120>  (187) 
0.0

>  <hbond:THR:166>  (187) 
0.0

>  <hydroph_interaction:LEU:76>  (187) 
0.0

>  <hbond:ILE:165>  (187) 
0.0

>  <halogenbond:GLN:74>  (187) 
0.0

>  <hbond:GLN:74>  (187) 
0.0

>  <hbond:LYS:73>  (187) 
0.0

>  <pistack:TRP:69>  (187) 
0.0

>  <hbond:TRP:83>  (187) 
0.0

>  <hydroph_interaction:TRP:83>  (187) 
0.0

>  <hydroph_interaction:TRP:69>  (187) 
0.0

>  <pication:TRP:69>  (187) 
0.0

>  <hydroph_interaction:PRO:82>  (187) 
0.0

>  <halogenbond:LYS:73>  (187) 
0.0

>  <hydroph_interaction:TYR:68>  (187) 
0.0

>  <halogenbond:GLN:167>  (187) 
0.0

>  <hydroph_interaction:PHE:116>  (187) 
0.0

>  <hbond:TYR:68>  (187) 
0.0

>  <hbond:ASP:122>  (187) 
0.0

>  <pistack:PHE:116>  (187) 
0.0

>  <hydroph_interaction:VAL:154>  (187) 
0.0

>  <hydroph_interaction:ASP:75>  (187) 
0.0

>  <hbond:GLY:121>  (187) 
0.0

>  <hydroph_interaction:ASN:152>  (187) 
0.0

>  <halogenbond:ILE:165>  (187) 
0.0

$$$$
Z1696023652-x0806S2-Z1318055457S2
     RDKit          3D

 42 44  0  0  0  0  0  0  0  0999 V2000
  -15.3810  -12.9930  -10.7910 C   0  0  0  0  0  0  0  0  0  0  0  0
  -16.3570  -11.9560  -11.3480 C   0  0  0  0  0  0  0  0  0  0  0  0
  -17.6320  -11.9370  -10.5020 C   0  0  0  0  0  0  0  0  0  0  0  0
  -16.7040  -12.3050  -12.8040 C   0  0  0  0  0  0  0  0  0  0  0  0
  -15.7650  -10.6150  -11.2930 N   0  0  0  0  0  0  0  0  0  0  0  0
  -15.6280   -9.9250  -12.4430 N   0  0  0  0  0  0  0  0  0  0  0  0
  -15.0820   -8.7680  -12.1150 N   0  0  0  0  0  0  0  0  0  0  0  0
  -14.8620   -8.6970  -10.7750 N   0  0  0  0  0  0  0  0  0  0  0  0
  -15.2800   -9.8380  -10.2580 C   0  0  0  0  0  0  0  0  0  0  0  0
  -15.2090  -10.1350   -8.8920 C   0  0  0  0  0  0  0  0  0  0  0  0
  -14.3700   -8.7680   -8.0280 S   0  0  0  0  0  0  0  0  0  0  0  0
  -13.3800   -9.7000   -6.8090 C   0  0  0  0  0  0  0  0  0  0  0  0
  -12.1660  -10.1140   -7.3350 C   0  0  0  0  0  0  0  0  0  0  0  0
  -11.9170  -11.4920   -7.3170 C   0  0  0  0  0  0  0  0  0  0  0  0
  -10.5690  -11.9210   -7.9050 C   0  0  0  0  0  0  0  0  0  0  0  0
   -9.5980  -10.9080   -8.4520 C   0  0  0  0  0  0  0  0  0  0  0  0
  -10.0050   -9.5460   -8.4090 C   0  0  0  0  0  0  0  0  0  0  0  0
   -9.0700   -8.4280   -9.0220 C   0  0  0  0  0  0  0  0  0  0  0  0
   -9.4230   -7.1150   -9.0210 C   0  0  0  0  0  0  0  0  0  0  0  0
  -10.7670   -6.7580   -8.4010 C   0  0  0  0  0  0  0  0  0  0  0  0
  -11.5790   -7.7660   -7.8780 C   0  0  0  0  0  0  0  0  0  0  0  0
  -11.2500   -9.1530   -7.8670 C   0  0  0  0  0  0  0  0  0  0  0  0
  -15.9140  -13.8830  -10.4420 H   0  0  0  0  0  0  0  0  0  0  0  0
  -14.6690  -13.3110  -11.5630 H   0  0  0  0  0  0  0  0  0  0  0  0
  -14.8060  -12.5900   -9.9500 H   0  0  0  0  0  0  0  0  0  0  0  0
  -18.0690  -10.9360  -10.4390 H   0  0  0  0  0  0  0  0  0  0  0  0
  -17.4380  -12.2720   -9.4790 H   0  0  0  0  0  0  0  0  0  0  0  0
  -18.3940  -12.5960  -10.9380 H   0  0  0  0  0  0  0  0  0  0  0  0
  -15.8110  -12.3890  -13.4300 H   0  0  0  0  0  0  0  0  0  0  0  0
  -17.2390  -13.2610  -12.8410 H   0  0  0  0  0  0  0  0  0  0  0  0
  -17.3720  -11.5730  -13.2770 H   0  0  0  0  0  0  0  0  0  0  0  0
  -14.7340  -11.0520   -8.5550 H   0  0  0  0  0  0  0  0  0  0  0  0
  -16.2350  -10.1920   -8.5040 H   0  0  0  0  0  0  0  0  0  0  0  0
  -13.9560  -10.5830   -6.4980 H   0  0  0  0  0  0  0  0  0  0  0  0
  -13.2170   -9.1100   -5.9010 H   0  0  0  0  0  0  0  0  0  0  0  0
  -12.6190  -12.2170   -6.9190 H   0  0  0  0  0  0  0  0  0  0  0  0
  -10.3030  -12.9710   -7.9290 H   0  0  0  0  0  0  0  0  0  0  0  0
   -8.6710  -11.2350   -8.8640 H   0  0  0  0  0  0  0  0  0  0  0  0
   -8.1280   -8.6300   -9.4780 H   0  0  0  0  0  0  0  0  0  0  0  0
   -8.7710   -6.3540   -9.4440 H   0  0  0  0  0  0  0  0  0  0  0  0
  -11.0980   -5.7230   -8.3690 H   0  0  0  0  0  0  0  0  0  0  0  0
  -12.5270   -7.4350   -7.4620 H   0  0  0  0  0  0  0  0  0  0  0  0
  1  2  1  0
  2  3  1  0
  2  4  1  0
  2  5  1  0
  5  6  1  0
  6  7  2  0
  7  8  1  0
  8  9  2  0
  9 10  1  0
 10 11  1  0
 11 12  1  0
 12 13  1  0
 13 14  2  0
 14 15  1  0
 15 16  2  0
 16 17  1  0
 17 18  2  0
 18 19  1  0
 19 20  2  0
 20 21  1  0
 21 22  2  0
  9  5  1  0
 22 13  1  0
 22 17  1  0
  1 23  1  0
  1 24  1  0
  1 25  1  0
  3 26  1  0
  3 27  1  0
  3 28  1  0
  4 29  1  0
  4 30  1  0
  4 31  1  0
 10 32  1  0
 10 33  1  0
 12 34  1  0
 12 35  1  0
 14 36  1  0
 15 37  1  0
 16 38  1  0
 18 39  1  0
 19 40  1  0
 20 41  1  0
 21 42  1  0
A    1
 C1 
A    2
 C2 
A    3
 C3 
A    4
 C4 
A    5
 N1 
A    6
 N2 
A    7
 N3 
A    8
 N4 
A    9
 C5 
A   10
 C6 
A   11
 S1 
A   12
 C7 
A   13
 C8 
A   14
 C9 
A   15
 C10
A   16
 C11
A   17
 C12
A   18
 C13
A   19
 C14
A   20
 C15
A   21
 C16
A   22
 C17
A   23
 H1 
A   24
 H2 
A   25
 H3 
A   26
 H4 
A   27
 H5 
A   28
 H6 
A   29
 H7 
A   30
 H8 
A   31
 H9 
A   32
 H10
A   33
 H11
A   34
 H12
A   35
 H13
A   36
 H14
A   37
 H15
A   38
 H16
A   39
 H17
A   40
 H18
A   41
 H19
A   42
 H20
M  END
>  <ref_pdb>  (188) 
x0051_0B

>  <ref_mols>  (188) 
x0051_0B

>  <original SMILES>  (188) 
[H]c1c([H])c([H])c2c(C([H])([H])SC([H])([H])c3nnnn3C(C([H])([H])[H])(C([H])([H])[H])C([H])([H])[H])c([H])c([H])c([H])c2c1[H]

>  <index>  (188) 
5979.0

>  <∆∆G>  (188) 
-2.119284

>  <comRMSD>  (188) 
0.895543

>  <N_constrained_atoms>  (188) 
19.0

>  <N_unconstrained_atoms>  (188) 
3.0

>  <LE>  (188) 
0.096331

>  <percent_hybrid>  (188) 
43.0

>  <largest_ring>  (188) 
6.0

>  <N_HA>  (188) 
22.0

>  <N_rotatable_bonds>  (188) 
4.0

>  <max_hit_Tanimoto>  (188) 
0.223881

>  <N_interactions_kept>  (188) 
0.0

>  <N_interactions_lost>  (188) 
2.0

>  <interaction_uniqueness_metric>  (188) 
0.099564

>  <N_interactions>  (188) 
6.0

>  <N_PAINS>  (188) 
0.0

>  <UFF_Gibbs>  (188) 
90.373894

>  <strain_per_HA>  (188) 
4.107886

>  <ad_hoc_penalty>  (188) 
-8.873006

>  <cluster>  (188) 
3665.0

>  <intxn_cluster>  (188) 
17.0

>  <keep>  (188) 
1.0

>  <hydroph_interaction:GLN:74>  (188) 
0.0

>  <hydroph_interaction:THR:118>  (188) 
0.0

>  <hydroph_interaction:ILE:123>  (188) 
2.0

>  <hydroph_interaction:THR:166>  (188) 
0.0

>  <hbond:GLN:167>  (188) 
2.0

>  <hydroph_interaction:ALA:88>  (188) 
1.0

>  <hydroph_interaction:ASP:120>  (188) 
1.0

>  <hydroph_interaction:GLN:167>  (188) 
0.0

>  <hbond:THR:118>  (188) 
0.0

>  <hydroph_interaction:ALA:164>  (188) 
0.0

>  <hbond:ASP:120>  (188) 
0.0

>  <hbond:THR:166>  (188) 
0.0

>  <hydroph_interaction:LEU:76>  (188) 
0.0

>  <hbond:ILE:165>  (188) 
0.0

>  <halogenbond:GLN:74>  (188) 
0.0

>  <hbond:GLN:74>  (188) 
0.0

>  <hbond:LYS:73>  (188) 
0.0

>  <pistack:TRP:69>  (188) 
0.0

>  <hbond:TRP:83>  (188) 
0.0

>  <hydroph_interaction:TRP:83>  (188) 
0.0

>  <hydroph_interaction:TRP:69>  (188) 
0.0

>  <pication:TRP:69>  (188) 
0.0

>  <hydroph_interaction:PRO:82>  (188) 
0.0

>  <halogenbond:LYS:73>  (188) 
0.0

>  <hydroph_interaction:TYR:68>  (188) 
0.0

>  <halogenbond:GLN:167>  (188) 
0.0

>  <hydroph_interaction:PHE:116>  (188) 
0.0

>  <hbond:TYR:68>  (188) 
0.0

>  <hbond:ASP:122>  (188) 
0.0

>  <pistack:PHE:116>  (188) 
0.0

>  <hydroph_interaction:VAL:154>  (188) 
0.0

>  <hydroph_interaction:ASP:75>  (188) 
0.0

>  <hbond:GLY:121>  (188) 
0.0

>  <hydroph_interaction:ASN:152>  (188) 
0.0

>  <halogenbond:ILE:165>  (188) 
0.0

$$$$
Z742593940-x0806S1-x0884S1
     RDKit          3D

 29 29  0  0  0  0  0  0  0  0999 V2000
  -15.0640   -8.6000  -11.5400 C   0  0  0  0  0  0  0  0  0  0  0  0
  -14.1420   -7.9690  -10.5240 C   0  0  0  0  0  0  0  0  0  0  0  0
  -14.6140   -8.1490   -9.0960 C   0  0  0  0  0  0  0  0  0  0  0  0
  -13.8100   -7.6550   -8.0940 C   0  0  0  0  0  0  0  0  0  0  0  0
  -12.5280   -6.9800   -8.4450 C   0  0  0  0  0  0  0  0  0  0  0  0
  -11.7100   -6.5720   -7.3170 C   0  0  0  0  0  0  0  0  0  0  0  0
  -11.4240   -8.2010   -6.4810 S   0  0  0  0  0  0  0  0  0  0  0  0
  -11.6850   -9.4880   -7.8310 C   0  0  0  0  0  0  0  0  0  0  0  0
  -13.0910  -10.1330   -7.9130 C   0  0  0  0  0  0  0  0  0  0  0  0
  -10.6440  -10.6060   -7.7230 C   0  0  0  0  0  0  0  0  0  0  0  0
   -9.3640  -10.2080   -7.5210 N   0  0  0  0  0  0  0  0  0  0  0  0
  -10.9310  -12.0080   -7.8270 O   0  0  0  0  0  0  0  0  0  0  0  0
  -12.1660   -6.8070   -9.7760 C   0  0  0  0  0  0  0  0  0  0  0  0
  -12.9600   -7.2920  -10.8020 C   0  0  0  0  0  0  0  0  0  0  0  0
  -15.2520   -7.9630  -12.3970 H   0  0  0  0  0  0  0  0  0  0  0  0
  -14.6420   -9.5340  -11.9230 H   0  0  0  0  0  0  0  0  0  0  0  0
  -16.0100   -8.8450  -11.0620 H   0  0  0  0  0  0  0  0  0  0  0  0
  -15.5450   -8.6600   -8.8610 H   0  0  0  0  0  0  0  0  0  0  0  0
  -14.0770   -7.7600   -7.0440 H   0  0  0  0  0  0  0  0  0  0  0  0
  -12.2430   -5.8610   -6.6770 H   0  0  0  0  0  0  0  0  0  0  0  0
  -10.7660   -6.1270   -7.6520 H   0  0  0  0  0  0  0  0  0  0  0  0
  -11.5050   -8.9690   -8.7750 H   0  0  0  0  0  0  0  0  0  0  0  0
  -13.5070   -9.9520   -8.9050 H   0  0  0  0  0  0  0  0  0  0  0  0
  -13.1630  -11.2140   -7.7350 H   0  0  0  0  0  0  0  0  0  0  0  0
  -13.7850   -9.6810   -7.2030 H   0  0  0  0  0  0  0  0  0  0  0  0
   -8.6510  -10.9450   -7.6300 H   0  0  0  0  0  0  0  0  0  0  0  0
   -9.1820   -9.4880   -6.8310 H   0  0  0  0  0  0  0  0  0  0  0  0
  -11.2620   -6.3180  -10.1620 H   0  0  0  0  0  0  0  0  0  0  0  0
  -12.5760   -7.1080  -11.8090 H   0  0  0  0  0  0  0  0  0  0  0  0
  1  2  1  0
  2  3  2  0
  3  4  1  0
  4  5  2  0
  5  6  1  0
  6  7  1  0
  7  8  1  0
  8  9  1  0
  8 10  1  0
 10 11  1  0
 10 12  2  0
  5 13  1  0
 13 14  2  0
 14  2  1  0
  1 15  1  0
  1 16  1  0
  1 17  1  0
  3 18  1  0
  4 19  1  0
  6 20  1  0
  6 21  1  0
  8 22  1  0
  9 23  1  0
  9 24  1  0
  9 25  1  0
 11 26  1  0
 11 27  1  0
 13 28  1  0
 14 29  1  0
A    1
 C1 
A    2
 C2 
A    3
 C3 
A    4
 C4 
A    5
 C5 
A    6
 C6 
A    7
 S1 
A    8
 C7 
A    9
 C8 
A   10
 C9 
A   11
 N1 
A   12
 O1 
A   13
 C10
A   14
 C11
A   15
 H1 
A   16
 H2 
A   17
 H3 
A   18
 H4 
A   19
 H5 
A   20
 H6 
A   21
 H7 
A   22
 H8 
A   23
 H9 
A   24
 H10
A   25
 H11
A   26
 H12
A   27
 H13
A   28
 H14
A   29
 H15
M  END
>  <ref_pdb>  (189) 
x0051_0B

>  <ref_mols>  (189) 
x0051_0B

>  <original SMILES>  (189) 
[H]c1c([H])c(C([H])([H])SC([H])(C(=O)N([H])[H])C([H])([H])[H])c([H])c([H])c1C([H])([H])[H]

>  <index>  (189) 
4511.0

>  <∆∆G>  (189) 
-6.00022

>  <comRMSD>  (189) 
0.940769

>  <N_constrained_atoms>  (189) 
11.0

>  <N_unconstrained_atoms>  (189) 
3.0

>  <LE>  (189) 
0.428587

>  <percent_hybrid>  (189) 
46.0

>  <largest_ring>  (189) 
6.0

>  <N_HA>  (189) 
14.0

>  <N_rotatable_bonds>  (189) 
6.0

>  <max_hit_Tanimoto>  (189) 
0.117021

>  <N_interactions_kept>  (189) 
0.0

>  <N_interactions_lost>  (189) 
2.0

>  <interaction_uniqueness_metric>  (189) 
0.125248

>  <N_interactions>  (189) 
5.0

>  <N_PAINS>  (189) 
0.0

>  <UFF_Gibbs>  (189) 
133.067003

>  <strain_per_HA>  (189) 
9.504718

>  <ad_hoc_penalty>  (189) 
-8.322651

>  <cluster>  (189) 
256.0

>  <intxn_cluster>  (189) 
9.0

>  <keep>  (189) 
1.0

>  <hydroph_interaction:GLN:74>  (189) 
0.0

>  <hydroph_interaction:THR:118>  (189) 
0.0

>  <hydroph_interaction:ILE:123>  (189) 
2.0

>  <hydroph_interaction:THR:166>  (189) 
0.0

>  <hbond:GLN:167>  (189) 
0.0

>  <hydroph_interaction:ALA:88>  (189) 
0.0

>  <hydroph_interaction:ASP:120>  (189) 
0.0

>  <hydroph_interaction:GLN:167>  (189) 
1.0

>  <hbond:THR:118>  (189) 
2.0

>  <hydroph_interaction:ALA:164>  (189) 
0.0

>  <hbond:ASP:120>  (189) 
0.0

>  <hbond:THR:166>  (189) 
0.0

>  <hydroph_interaction:LEU:76>  (189) 
0.0

>  <hbond:ILE:165>  (189) 
0.0

>  <halogenbond:GLN:74>  (189) 
0.0

>  <hbond:GLN:74>  (189) 
0.0

>  <hbond:LYS:73>  (189) 
0.0

>  <pistack:TRP:69>  (189) 
0.0

>  <hbond:TRP:83>  (189) 
0.0

>  <hydroph_interaction:TRP:83>  (189) 
0.0

>  <hydroph_interaction:TRP:69>  (189) 
0.0

>  <pication:TRP:69>  (189) 
0.0

>  <hydroph_interaction:PRO:82>  (189) 
0.0

>  <halogenbond:LYS:73>  (189) 
0.0

>  <hydroph_interaction:TYR:68>  (189) 
0.0

>  <halogenbond:GLN:167>  (189) 
0.0

>  <hydroph_interaction:PHE:116>  (189) 
0.0

>  <hbond:TYR:68>  (189) 
0.0

>  <hbond:ASP:122>  (189) 
0.0

>  <pistack:PHE:116>  (189) 
0.0

>  <hydroph_interaction:VAL:154>  (189) 
0.0

>  <hydroph_interaction:ASP:75>  (189) 
0.0

>  <hbond:GLY:121>  (189) 
0.0

>  <hydroph_interaction:ASN:152>  (189) 
0.0

>  <halogenbond:ILE:165>  (189) 
0.0

$$$$
PV-002951372293-x0806-Z198195906S4
     RDKit          3D

 44 46  0  0  0  0  0  0  0  0999 V2000
  -13.0020   -9.5570   -6.7040 C   0  0  0  0  0  0  0  0  0  0  0  0
  -11.9320  -10.1720   -7.5600 C   0  0  0  0  0  0  0  0  0  0  0  0
  -12.0310  -11.5350   -7.8930 C   0  0  0  0  0  0  0  0  0  0  0  0
  -11.0540  -12.1280   -8.6810 C   0  0  0  0  0  0  0  0  0  0  0  0
   -9.9970  -11.4520   -9.1570 N   0  0  0  0  0  0  0  0  0  0  0  0
   -9.9180  -10.1350   -8.8310 C   0  0  0  0  0  0  0  0  0  0  0  0
  -10.8290   -9.4410   -8.0450 C   0  0  0  0  0  0  0  0  0  0  0  0
  -10.6080   -7.9750   -7.7370 C   0  0  0  0  0  0  0  0  0  0  0  0
  -10.0980   -7.1820   -8.8400 N   0  0  0  0  0  0  0  0  0  0  0  0
  -10.9260   -6.2230   -9.3870 C   0  0  0  0  0  0  0  0  0  0  0  0
  -10.5360   -5.2480  -10.0130 O   0  0  0  0  0  0  0  0  0  0  0  0
  -12.3600   -6.5000   -9.1350 C   0  0  0  0  0  0  0  0  0  0  0  0
  -13.0980   -7.5660   -9.8770 C   0  0  0  0  0  0  0  0  0  0  0  0
  -14.3930   -7.8440   -9.6260 C   0  0  0  0  0  0  0  0  0  0  0  0
  -14.9640   -8.8840  -10.4070 N   0  0  0  0  0  0  0  0  0  0  0  0
  -15.4840  -10.0950  -10.0160 C   0  0  0  0  0  0  0  0  0  0  0  0
  -15.8730  -10.7100  -11.1830 C   0  0  0  0  0  0  0  0  0  0  0  0
  -16.4510  -11.9360  -11.3960 C   0  0  0  0  0  0  0  0  0  0  0  0
  -16.9830  -12.3610  -12.7800 C   0  0  0  0  0  0  0  0  0  0  0  0
  -15.5320  -12.9570  -10.9870 O   0  0  0  0  0  0  0  0  0  0  0  0
  -15.5950   -9.8900  -12.2400 N   0  0  0  0  0  0  0  0  0  0  0  0
  -15.0470   -8.7840  -11.7580 N   0  0  0  0  0  0  0  0  0  0  0  0
  -15.0390   -7.1120   -8.6410 C   0  0  0  0  0  0  0  0  0  0  0  0
  -14.3780   -6.1070   -7.9470 C   0  0  0  0  0  0  0  0  0  0  0  0
  -13.0510   -5.7920   -8.1830 C   0  0  0  0  0  0  0  0  0  0  0  0
  -13.1720   -8.5140   -6.9890 H   0  0  0  0  0  0  0  0  0  0  0  0
  -12.7170   -9.5590   -5.6460 H   0  0  0  0  0  0  0  0  0  0  0  0
  -13.9340  -10.1210   -6.8000 H   0  0  0  0  0  0  0  0  0  0  0  0
  -12.8650  -12.1350   -7.5400 H   0  0  0  0  0  0  0  0  0  0  0  0
  -11.1080  -13.1810   -8.9500 H   0  0  0  0  0  0  0  0  0  0  0  0
   -9.0550   -9.6260   -9.2370 H   0  0  0  0  0  0  0  0  0  0  0  0
  -11.5340   -7.5180   -7.3760 H   0  0  0  0  0  0  0  0  0  0  0  0
   -9.8950   -7.8720   -6.9110 H   0  0  0  0  0  0  0  0  0  0  0  0
   -9.0950   -7.0980   -8.9400 H   0  0  0  0  0  0  0  0  0  0  0  0
  -12.6410   -8.1490  -10.6150 H   0  0  0  0  0  0  0  0  0  0  0  0
  -15.5320  -10.4150   -8.9870 H   0  0  0  0  0  0  0  0  0  0  0  0
  -17.2940  -12.0200  -10.6990 H   0  0  0  0  0  0  0  0  0  0  0  0
  -16.9640  -11.5650  -13.5190 H   0  0  0  0  0  0  0  0  0  0  0  0
  -18.0170  -12.7180  -12.7080 H   0  0  0  0  0  0  0  0  0  0  0  0
  -16.3700  -13.1720  -13.1890 H   0  0  0  0  0  0  0  0  0  0  0  0
  -14.7000  -12.7820  -11.4650 H   0  0  0  0  0  0  0  0  0  0  0  0
  -16.0670   -7.2940   -8.3800 H   0  0  0  0  0  0  0  0  0  0  0  0
  -14.9310   -5.5670   -7.2020 H   0  0  0  0  0  0  0  0  0  0  0  0
  -12.5840   -4.9980   -7.6050 H   0  0  0  0  0  0  0  0  0  0  0  0
  1  2  1  0
  2  3  2  0
  3  4  1  0
  4  5  2  0
  5  6  1  0
  6  7  2  0
  7  8  1  0
  8  9  1  0
  9 10  1  0
 10 11  2  0
 10 12  1  0
 12 13  2  0
 13 14  1  0
 14 15  1  0
 15 16  1  0
 16 17  2  0
 17 18  1  0
 18 19  1  0
 18 20  1  0
 17 21  1  0
 21 22  2  0
 14 23  2  0
 23 24  1  0
 24 25  2  0
  7  2  1  0
 25 12  1  0
 22 15  1  0
  1 26  1  0
  1 27  1  0
  1 28  1  0
  3 29  1  0
  4 30  1  0
  6 31  1  0
  8 32  1  0
  8 33  1  0
  9 34  1  0
 13 35  1  0
 16 36  1  0
 18 37  1  0
 19 38  1  0
 19 39  1  0
 19 40  1  0
 20 41  1  0
 23 42  1  0
 24 43  1  0
 25 44  1  0
A    1
 C1 
A    2
 C2 
A    3
 C3 
A    4
 C4 
A    5
 N1 
A    6
 C5 
A    7
 C6 
A    8
 C7 
A    9
 N2 
A   10
 C8 
A   11
 O1 
A   12
 C9 
A   13
 C10
A   14
 C11
A   15
 N3 
A   16
 C12
A   17
 C13
A   18
 C14
A   19
 C15
A   20
 O2 
A   21
 N4 
A   22
 N5 
A   23
 C16
A   24
 C17
A   25
 C18
A   26
 H1 
A   27
 H2 
A   28
 H3 
A   29
 H4 
A   30
 H5 
A   31
 H6 
A   32
 H7 
A   33
 H8 
A   34
 H9 
A   35
 H10
A   36
 H11
A   37
 H12
A   38
 H13
A   39
 H14
A   40
 H15
A   41
 H16
A   42
 H17
A   43
 H18
A   44
 H19
M  END
>  <ref_pdb>  (190) 
x0051_0B

>  <ref_mols>  (190) 
x0051_0B

>  <original SMILES>  (190) 
[H]OC([H])(c1nnn(-c2c([H])c([H])c([H])c(C(=O)N([H])C([H])([H])c3c([H])nc([H])c([H])c3C([H])([H])[H])c2[H])c1[H])C([H])([H])[H]

>  <index>  (190) 
33.0

>  <∆∆G>  (190) 
-4.712828

>  <comRMSD>  (190) 
0.51315

>  <N_constrained_atoms>  (190) 
25.0

>  <N_unconstrained_atoms>  (190) 
0.0

>  <LE>  (190) 
0.188513

>  <percent_hybrid>  (190) 
46.0

>  <largest_ring>  (190) 
6.0

>  <N_HA>  (190) 
25.0

>  <N_rotatable_bonds>  (190) 
8.0

>  <max_hit_Tanimoto>  (190) 
0.465006

>  <N_interactions_kept>  (190) 
1.5

>  <N_interactions_lost>  (190) 
2.0

>  <interaction_uniqueness_metric>  (190) 
0.123426

>  <N_interactions>  (190) 
6.0

>  <N_PAINS>  (190) 
0.0

>  <UFF_Gibbs>  (190) 
73.826051

>  <strain_per_HA>  (190) 
2.95303

>  <ad_hoc_penalty>  (190) 
-8.07201

>  <cluster>  (190) 
10.0

>  <intxn_cluster>  (190) 
16.0

>  <keep>  (190) 
1.0

>  <hydroph_interaction:GLN:74>  (190) 
1.0

>  <hydroph_interaction:THR:118>  (190) 
0.0

>  <hydroph_interaction:ILE:123>  (190) 
1.0

>  <hydroph_interaction:THR:166>  (190) 
0.0

>  <hbond:GLN:167>  (190) 
2.0

>  <hydroph_interaction:ALA:88>  (190) 
1.0

>  <hydroph_interaction:ASP:120>  (190) 
0.0

>  <hydroph_interaction:GLN:167>  (190) 
0.0

>  <hbond:THR:118>  (190) 
1.0

>  <hydroph_interaction:ALA:164>  (190) 
0.0

>  <hbond:ASP:120>  (190) 
0.0

>  <hbond:THR:166>  (190) 
0.0

>  <hydroph_interaction:LEU:76>  (190) 
0.0

>  <hbond:ILE:165>  (190) 
0.0

>  <halogenbond:GLN:74>  (190) 
0.0

>  <hbond:GLN:74>  (190) 
0.0

>  <hbond:LYS:73>  (190) 
0.0

>  <pistack:TRP:69>  (190) 
0.0

>  <hbond:TRP:83>  (190) 
0.0

>  <hydroph_interaction:TRP:83>  (190) 
0.0

>  <hydroph_interaction:TRP:69>  (190) 
0.0

>  <pication:TRP:69>  (190) 
0.0

>  <hydroph_interaction:PRO:82>  (190) 
0.0

>  <halogenbond:LYS:73>  (190) 
0.0

>  <hydroph_interaction:TYR:68>  (190) 
0.0

>  <halogenbond:GLN:167>  (190) 
0.0

>  <hydroph_interaction:PHE:116>  (190) 
0.0

>  <hbond:TYR:68>  (190) 
0.0

>  <hbond:ASP:122>  (190) 
0.0

>  <pistack:PHE:116>  (190) 
0.0

>  <hydroph_interaction:VAL:154>  (190) 
0.0

>  <hydroph_interaction:ASP:75>  (190) 
0.0

>  <hbond:GLY:121>  (190) 
0.0

>  <hydroph_interaction:ASN:152>  (190) 
0.0

>  <halogenbond:ILE:165>  (190) 
0.0

$$$$
PV-002926106392-x0806-Z198195906S4
     RDKit          3D

 44 47  0  0  0  0  0  0  0  0999 V2000
  -13.0300   -9.4970   -6.8490 C   0  0  0  0  0  0  0  0  0  0  0  0
  -11.9310  -10.1380   -7.6400 C   0  0  0  0  0  0  0  0  0  0  0  0
  -12.0300  -11.6090   -8.0360 C   0  0  0  0  0  0  0  0  0  0  0  0
  -10.9950  -12.1790   -8.7630 C   0  0  0  0  0  0  0  0  0  0  0  0
   -9.9230  -11.3770   -9.0910 C   0  0  0  0  0  0  0  0  0  0  0  0
   -9.7940  -10.0600   -8.7610 N   0  0  0  0  0  0  0  0  0  0  0  0
  -10.7800   -9.4460   -8.0450 C   0  0  0  0  0  0  0  0  0  0  0  0
  -10.5830   -8.0770   -7.7150 C   0  0  0  0  0  0  0  0  0  0  0  0
  -10.1620   -7.2300   -8.8260 N   0  0  0  0  0  0  0  0  0  0  0  0
  -11.0220   -6.2790   -9.3540 C   0  0  0  0  0  0  0  0  0  0  0  0
  -10.6450   -5.2920   -9.9790 O   0  0  0  0  0  0  0  0  0  0  0  0
  -12.3730   -6.5430   -9.1180 C   0  0  0  0  0  0  0  0  0  0  0  0
  -13.1150   -7.5110   -9.8370 C   0  0  0  0  0  0  0  0  0  0  0  0
  -14.4790   -7.7970   -9.5700 C   0  0  0  0  0  0  0  0  0  0  0  0
  -15.0070   -8.7750  -10.3850 N   0  0  0  0  0  0  0  0  0  0  0  0
  -15.5990  -10.0000   -9.9610 C   0  0  0  0  0  0  0  0  0  0  0  0
  -15.9630  -10.6490  -11.2460 C   0  0  0  0  0  0  0  0  0  0  0  0
  -16.5840  -11.8990  -11.3270 C   0  0  0  0  0  0  0  0  0  0  0  0
  -16.4370  -12.6720  -12.3700 C   0  0  0  0  0  0  0  0  0  0  0  0
  -15.6550  -13.2360  -11.4860 C   0  0  0  0  0  0  0  0  0  0  0  0
  -15.5920   -9.8330  -12.2720 N   0  0  0  0  0  0  0  0  0  0  0  0
  -15.0270   -8.7230  -11.7560 N   0  0  0  0  0  0  0  0  0  0  0  0
  -15.0920   -7.0960   -8.5590 C   0  0  0  0  0  0  0  0  0  0  0  0
  -14.3760   -6.1400   -7.8630 C   0  0  0  0  0  0  0  0  0  0  0  0
  -13.0360   -5.8540   -8.1280 C   0  0  0  0  0  0  0  0  0  0  0  0
  -13.7180   -8.9550   -7.5090 H   0  0  0  0  0  0  0  0  0  0  0  0
  -13.5880  -10.2530   -6.2880 H   0  0  0  0  0  0  0  0  0  0  0  0
  -12.6330   -8.7780   -6.1250 H   0  0  0  0  0  0  0  0  0  0  0  0
  -12.8920  -12.2100   -7.7570 H   0  0  0  0  0  0  0  0  0  0  0  0
  -11.0270  -13.2200   -9.0610 H   0  0  0  0  0  0  0  0  0  0  0  0
   -9.0900  -11.7890   -9.6610 H   0  0  0  0  0  0  0  0  0  0  0  0
   -9.8750   -7.9810   -6.8870 H   0  0  0  0  0  0  0  0  0  0  0  0
  -11.5310   -7.6630   -7.3470 H   0  0  0  0  0  0  0  0  0  0  0  0
   -9.3740   -7.5760   -9.3570 H   0  0  0  0  0  0  0  0  0  0  0  0
  -12.7030   -8.0830  -10.6030 H   0  0  0  0  0  0  0  0  0  0  0  0
  -15.7100  -10.2990   -8.9310 H   0  0  0  0  0  0  0  0  0  0  0  0
  -17.4910  -11.9980  -10.7380 H   0  0  0  0  0  0  0  0  0  0  0  0
  -17.3160  -13.2340  -12.6570 H   0  0  0  0  0  0  0  0  0  0  0  0
  -15.9400  -12.2450  -13.2360 H   0  0  0  0  0  0  0  0  0  0  0  0
  -14.5800  -13.1150  -11.5840 H   0  0  0  0  0  0  0  0  0  0  0  0
  -15.9750  -14.1570  -11.0120 H   0  0  0  0  0  0  0  0  0  0  0  0
  -16.1230   -7.2580   -8.2790 H   0  0  0  0  0  0  0  0  0  0  0  0
  -14.8860   -5.6060   -7.0900 H   0  0  0  0  0  0  0  0  0  0  0  0
  -12.5450   -5.0900   -7.5320 H   0  0  0  0  0  0  0  0  0  0  0  0
  1  2  1  0
  2  3  2  0
  3  4  1  0
  4  5  2  0
  5  6  1  0
  6  7  2  0
  7  8  1  0
  8  9  1  0
  9 10  1  0
 10 11  2  0
 10 12  1  0
 12 13  2  0
 13 14  1  0
 14 15  1  0
 15 16  1  0
 16 17  2  0
 17 18  1  0
 18 19  1  0
 19 20  1  0
 17 21  1  0
 21 22  2  0
 14 23  2  0
 23 24  1  0
 24 25  2  0
  7  2  1  0
 25 12  1  0
 22 15  1  0
 20 18  1  0
  1 26  1  0
  1 27  1  0
  1 28  1  0
  3 29  1  0
  4 30  1  0
  5 31  1  0
  8 32  1  0
  8 33  1  0
  9 34  1  0
 13 35  1  0
 16 36  1  0
 18 37  1  0
 19 38  1  0
 19 39  1  0
 20 40  1  0
 20 41  1  0
 23 42  1  0
 24 43  1  0
 25 44  1  0
A    1
 C1 
A    2
 C2 
A    3
 C3 
A    4
 C4 
A    5
 C5 
A    6
 N1 
A    7
 C6 
A    8
 C7 
A    9
 N2 
A   10
 C8 
A   11
 O1 
A   12
 C9 
A   13
 C10
A   14
 C11
A   15
 N3 
A   16
 C12
A   17
 C13
A   18
 C14
A   19
 C15
A   20
 C16
A   21
 N4 
A   22
 N5 
A   23
 C17
A   24
 C18
A   25
 C19
A   26
 H1 
A   27
 H2 
A   28
 H3 
A   29
 H4 
A   30
 H5 
A   31
 H6 
A   32
 H7 
A   33
 H8 
A   34
 H9 
A   35
 H10
A   36
 H11
A   37
 H12
A   38
 H13
A   39
 H14
A   40
 H15
A   41
 H16
A   42
 H17
A   43
 H18
A   44
 H19
M  END
>  <ref_pdb>  (191) 
x0051_0B

>  <ref_mols>  (191) 
x0051_0B

>  <original SMILES>  (191) 
[H]c1nc(C([H])([H])N([H])C(=O)c2c([H])c([H])c([H])c(-n3nnc(C4([H])C([H])([H])C4([H])[H])c3[H])c2[H])c(C([H])([H])[H])c([H])c1[H]

>  <index>  (191) 
36.0

>  <∆∆G>  (191) 
-4.480258

>  <comRMSD>  (191) 
0.570405

>  <N_constrained_atoms>  (191) 
25.0

>  <N_unconstrained_atoms>  (191) 
0.0

>  <LE>  (191) 
0.17921

>  <percent_hybrid>  (191) 
46.0

>  <largest_ring>  (191) 
6.0

>  <N_HA>  (191) 
25.0

>  <N_rotatable_bonds>  (191) 
6.0

>  <max_hit_Tanimoto>  (191) 
0.442045

>  <N_interactions_kept>  (191) 
1.5

>  <N_interactions_lost>  (191) 
2.0

>  <interaction_uniqueness_metric>  (191) 
0.082871

>  <N_interactions>  (191) 
5.0

>  <N_PAINS>  (191) 
0.0

>  <UFF_Gibbs>  (191) 
129.330557

>  <strain_per_HA>  (191) 
5.173202

>  <ad_hoc_penalty>  (191) 
-7.540234

>  <cluster>  (191) 
40.0

>  <intxn_cluster>  (191) 
16.0

>  <keep>  (191) 
1.0

>  <hydroph_interaction:GLN:74>  (191) 
1.0

>  <hydroph_interaction:THR:118>  (191) 
0.0

>  <hydroph_interaction:ILE:123>  (191) 
1.0

>  <hydroph_interaction:THR:166>  (191) 
0.0

>  <hbond:GLN:167>  (191) 
2.0

>  <hydroph_interaction:ALA:88>  (191) 
0.0

>  <hydroph_interaction:ASP:120>  (191) 
0.0

>  <hydroph_interaction:GLN:167>  (191) 
0.0

>  <hbond:THR:118>  (191) 
1.0

>  <hydroph_interaction:ALA:164>  (191) 
0.0

>  <hbond:ASP:120>  (191) 
0.0

>  <hbond:THR:166>  (191) 
0.0

>  <hydroph_interaction:LEU:76>  (191) 
0.0

>  <hbond:ILE:165>  (191) 
0.0

>  <halogenbond:GLN:74>  (191) 
0.0

>  <hbond:GLN:74>  (191) 
0.0

>  <hbond:LYS:73>  (191) 
0.0

>  <pistack:TRP:69>  (191) 
0.0

>  <hbond:TRP:83>  (191) 
0.0

>  <hydroph_interaction:TRP:83>  (191) 
0.0

>  <hydroph_interaction:TRP:69>  (191) 
0.0

>  <pication:TRP:69>  (191) 
0.0

>  <hydroph_interaction:PRO:82>  (191) 
0.0

>  <halogenbond:LYS:73>  (191) 
0.0

>  <hydroph_interaction:TYR:68>  (191) 
0.0

>  <halogenbond:GLN:167>  (191) 
0.0

>  <hydroph_interaction:PHE:116>  (191) 
0.0

>  <hbond:TYR:68>  (191) 
0.0

>  <hbond:ASP:122>  (191) 
0.0

>  <pistack:PHE:116>  (191) 
0.0

>  <hydroph_interaction:VAL:154>  (191) 
0.0

>  <hydroph_interaction:ASP:75>  (191) 
0.0

>  <hbond:GLY:121>  (191) 
0.0

>  <hydroph_interaction:ASN:152>  (191) 
0.0

>  <halogenbond:ILE:165>  (191) 
0.0

$$$$
Z1407761683-x0884-Z198195906S1
     RDKit          3D

 36 36  0  0  0  0  0  0  0  0999 V2000
  -11.5760   -6.7370   -9.7310 C   0  0  0  0  0  0  0  0  0  0  0  0
  -13.0290   -6.8950   -9.3780 C   0  0  0  0  0  0  0  0  0  0  0  0
  -13.8160   -7.7510  -10.1550 C   0  0  0  0  0  0  0  0  0  0  0  0
  -13.1590   -7.3210   -7.8990 C   0  0  0  0  0  0  0  0  0  0  0  0
  -14.2360   -8.1260   -7.5330 C   0  0  0  0  0  0  0  0  0  0  0  0
  -15.6610   -7.5910   -7.6440 C   0  0  0  0  0  0  0  0  0  0  0  0
  -16.8550   -8.4390   -7.2400 C   0  0  0  0  0  0  0  0  0  0  0  0
  -16.6400   -9.8530   -6.7140 C   0  0  0  0  0  0  0  0  0  0  0  0
  -15.1690  -10.3250   -6.6310 C   0  0  0  0  0  0  0  0  0  0  0  0
  -13.9970   -9.4360   -7.0470 C   0  0  0  0  0  0  0  0  0  0  0  0
  -12.7000   -9.9030   -6.9510 N   0  0  0  0  0  0  0  0  0  0  0  0
  -12.0250  -10.2690   -8.1870 C   0  0  0  0  0  0  0  0  0  0  0  0
  -12.9840  -11.0550   -9.0920 C   0  0  0  0  0  0  0  0  0  0  0  0
  -10.8240  -11.1500   -7.8190 C   0  0  0  0  0  0  0  0  0  0  0  0
   -9.7040  -10.5300   -7.3300 N   0  0  0  0  0  0  0  0  0  0  0  0
  -10.8280  -12.3630   -7.9610 O   0  0  0  0  0  0  0  0  0  0  0  0
  -11.1040   -6.0270   -9.0450 H   0  0  0  0  0  0  0  0  0  0  0  0
  -11.4640   -6.3660  -10.7560 H   0  0  0  0  0  0  0  0  0  0  0  0
  -11.0450   -7.6940   -9.6690 H   0  0  0  0  0  0  0  0  0  0  0  0
  -13.4780   -5.9130   -9.4390 H   0  0  0  0  0  0  0  0  0  0  0  0
  -13.6810   -7.8000  -11.2330 H   0  0  0  0  0  0  0  0  0  0  0  0
  -14.8720   -7.5160   -9.9620 H   0  0  0  0  0  0  0  0  0  0  0  0
  -13.7150   -8.7730   -9.7650 H   0  0  0  0  0  0  0  0  0  0  0  0
  -13.2570   -6.4260   -7.2700 H   0  0  0  0  0  0  0  0  0  0  0  0
  -12.2180   -7.7840   -7.5790 H   0  0  0  0  0  0  0  0  0  0  0  0
  -15.8280   -6.5810   -8.0180 H   0  0  0  0  0  0  0  0  0  0  0  0
  -17.8590   -8.0380   -7.3260 H   0  0  0  0  0  0  0  0  0  0  0  0
  -17.4610  -10.4950   -6.4150 H   0  0  0  0  0  0  0  0  0  0  0  0
  -14.9040  -11.3260   -6.2650 H   0  0  0  0  0  0  0  0  0  0  0  0
  -12.6040  -10.6680   -6.2770 H   0  0  0  0  0  0  0  0  0  0  0  0
  -11.6390   -9.3910   -8.7060 H   0  0  0  0  0  0  0  0  0  0  0  0
  -13.9750  -11.0990   -8.6270 H   0  0  0  0  0  0  0  0  0  0  0  0
  -13.1200  -10.5510  -10.0570 H   0  0  0  0  0  0  0  0  0  0  0  0
  -12.6340  -12.0780   -9.2760 H   0  0  0  0  0  0  0  0  0  0  0  0
   -8.8390  -11.0740   -7.4390 H   0  0  0  0  0  0  0  0  0  0  0  0
   -9.7500   -9.8620   -6.5730 H   0  0  0  0  0  0  0  0  0  0  0  0
  1  2  1  0
  2  3  1  0
  2  4  1  0
  4  5  1  0
  5  6  2  0
  6  7  1  0
  7  8  2  0
  8  9  1  0
  9 10  2  0
 10 11  1  0
 11 12  1  0
 12 13  1  0
 12 14  1  0
 14 15  1  0
 14 16  2  0
 10  5  1  0
  1 17  1  0
  1 18  1  0
  1 19  1  0
  2 20  1  0
  3 21  1  0
  3 22  1  0
  3 23  1  0
  4 24  1  0
  4 25  1  0
  6 26  1  0
  7 27  1  0
  8 28  1  0
  9 29  1  0
 11 30  1  0
 12 31  1  0
 13 32  1  0
 13 33  1  0
 13 34  1  0
 15 35  1  0
 15 36  1  0
A    1
 C1 
A    2
 C2 
A    3
 C3 
A    4
 C4 
A    5
 C5 
A    6
 C6 
A    7
 C7 
A    8
 C8 
A    9
 C9 
A   10
 C10
A   11
 N1 
A   12
 C11
A   13
 C12
A   14
 C13
A   15
 N2 
A   16
 O1 
A   17
 H1 
A   18
 H2 
A   19
 H3 
A   20
 H4 
A   21
 H5 
A   22
 H6 
A   23
 H7 
A   24
 H8 
A   25
 H9 
A   26
 H10
A   27
 H11
A   28
 H12
A   29
 H13
A   30
 H14
A   31
 H15
A   32
 H16
A   33
 H17
A   34
 H18
A   35
 H19
A   36
 H20
M  END
>  <ref_pdb>  (192) 
x0051_0B

>  <ref_mols>  (192) 
x0051_0B

>  <original SMILES>  (192) 
[H]c1c([H])c([H])c(C([H])([H])C([H])(C([H])([H])[H])C([H])([H])[H])c(N([H])C([H])(C(=O)N([H])[H])C([H])([H])[H])c1[H]

>  <index>  (192) 
4308.0

>  <∆∆G>  (192) 
-5.340845

>  <comRMSD>  (192) 
0.863124

>  <N_constrained_atoms>  (192) 
18.0

>  <N_unconstrained_atoms>  (192) 
1.0

>  <LE>  (192) 
0.281097

>  <percent_hybrid>  (192) 
23.0

>  <largest_ring>  (192) 
6.0

>  <N_HA>  (192) 
16.0

>  <N_rotatable_bonds>  (192) 
8.0

>  <max_hit_Tanimoto>  (192) 
0.164204

>  <N_interactions_kept>  (192) 
0.0

>  <N_interactions_lost>  (192) 
1.5

>  <interaction_uniqueness_metric>  (192) 
0.075112

>  <N_interactions>  (192) 
5.0

>  <N_PAINS>  (192) 
0.0

>  <UFF_Gibbs>  (192) 
127.300446

>  <strain_per_HA>  (192) 
7.956228

>  <ad_hoc_penalty>  (192) 
-6.788987

>  <cluster>  (192) 
4436.0

>  <intxn_cluster>  (192) 
9.0

>  <keep>  (192) 
1.0

>  <hydroph_interaction:GLN:74>  (192) 
1.0

>  <hydroph_interaction:THR:118>  (192) 
0.0

>  <hydroph_interaction:ILE:123>  (192) 
2.0

>  <hydroph_interaction:THR:166>  (192) 
0.0

>  <hbond:GLN:167>  (192) 
0.0

>  <hydroph_interaction:ALA:88>  (192) 
0.0

>  <hydroph_interaction:ASP:120>  (192) 
0.0

>  <hydroph_interaction:GLN:167>  (192) 
0.0

>  <hbond:THR:118>  (192) 
2.0

>  <hydroph_interaction:ALA:164>  (192) 
0.0

>  <hbond:ASP:120>  (192) 
0.0

>  <hbond:THR:166>  (192) 
0.0

>  <hydroph_interaction:LEU:76>  (192) 
0.0

>  <hbond:ILE:165>  (192) 
0.0

>  <halogenbond:GLN:74>  (192) 
0.0

>  <hbond:GLN:74>  (192) 
0.0

>  <hbond:LYS:73>  (192) 
0.0

>  <pistack:TRP:69>  (192) 
0.0

>  <hbond:TRP:83>  (192) 
0.0

>  <hydroph_interaction:TRP:83>  (192) 
0.0

>  <hydroph_interaction:TRP:69>  (192) 
0.0

>  <pication:TRP:69>  (192) 
0.0

>  <hydroph_interaction:PRO:82>  (192) 
0.0

>  <halogenbond:LYS:73>  (192) 
0.0

>  <hydroph_interaction:TYR:68>  (192) 
0.0

>  <halogenbond:GLN:167>  (192) 
0.0

>  <hydroph_interaction:PHE:116>  (192) 
0.0

>  <hbond:TYR:68>  (192) 
0.0

>  <hbond:ASP:122>  (192) 
0.0

>  <pistack:PHE:116>  (192) 
0.0

>  <hydroph_interaction:VAL:154>  (192) 
0.0

>  <hydroph_interaction:ASP:75>  (192) 
0.0

>  <hbond:GLY:121>  (192) 
0.0

>  <hydroph_interaction:ASN:152>  (192) 
0.0

>  <halogenbond:ILE:165>  (192) 
0.0

$$$$
Z266093200-x0884S4-Z198195906S9
     RDKit          3D

 33 34  0  0  0  0  0  0  0  0999 V2000
  -12.7830   -6.9660   -8.9810 C   0  0  0  0  0  0  0  0  0  0  0  0
  -13.1550   -7.4970   -7.8150 C   0  0  0  0  0  0  0  0  0  0  0  0
  -14.3690   -8.2540   -7.4900 C   0  0  0  0  0  0  0  0  0  0  0  0
  -15.6630   -7.7080   -7.6000 C   0  0  0  0  0  0  0  0  0  0  0  0
  -16.7960   -8.4840   -7.2600 C   0  0  0  0  0  0  0  0  0  0  0  0
  -16.6360   -9.8000   -6.8140 C   0  0  0  0  0  0  0  0  0  0  0  0
  -15.3660  -10.3100   -6.7180 C   0  0  0  0  0  0  0  0  0  0  0  0
  -14.2520   -9.5760   -7.0400 C   0  0  0  0  0  0  0  0  0  0  0  0
  -11.4610   -6.2620   -9.1190 C   0  0  0  0  0  0  0  0  0  0  0  0
  -10.3320   -7.2020   -8.9650 N   0  0  0  0  0  0  0  0  0  0  0  0
  -10.4020   -8.0790   -7.7790 C   0  0  0  0  0  0  0  0  0  0  0  0
  -10.6920   -9.4340   -8.0710 C   0  0  0  0  0  0  0  0  0  0  0  0
  -11.8290  -10.1140   -7.6780 C   0  0  0  0  0  0  0  0  0  0  0  0
  -12.0110  -11.4510   -8.0020 C   0  0  0  0  0  0  0  0  0  0  0  0
  -11.0310  -12.1120   -8.7300 C   0  0  0  0  0  0  0  0  0  0  0  0
   -9.9090  -11.3710   -9.0960 C   0  0  0  0  0  0  0  0  0  0  0  0
   -9.7130  -10.0470   -8.7880 N   0  0  0  0  0  0  0  0  0  0  0  0
  -13.4140   -7.0410   -9.8650 H   0  0  0  0  0  0  0  0  0  0  0  0
  -12.4830   -7.3850   -6.9690 H   0  0  0  0  0  0  0  0  0  0  0  0
  -15.8090   -6.6850   -7.9450 H   0  0  0  0  0  0  0  0  0  0  0  0
  -17.7930   -8.0540   -7.3460 H   0  0  0  0  0  0  0  0  0  0  0  0
  -17.4460  -10.4800   -6.5280 H   0  0  0  0  0  0  0  0  0  0  0  0
  -15.2170  -11.3390   -6.3700 H   0  0  0  0  0  0  0  0  0  0  0  0
  -13.3080  -10.1110   -6.9110 H   0  0  0  0  0  0  0  0  0  0  0  0
  -11.4170   -5.7280  -10.0770 H   0  0  0  0  0  0  0  0  0  0  0  0
  -11.3650   -5.4920   -8.3440 H   0  0  0  0  0  0  0  0  0  0  0  0
   -9.4610   -6.6750   -8.9220 H   0  0  0  0  0  0  0  0  0  0  0  0
  -11.2050   -7.7370   -7.1380 H   0  0  0  0  0  0  0  0  0  0  0  0
   -9.4940   -7.8870   -7.1960 H   0  0  0  0  0  0  0  0  0  0  0  0
  -12.5750   -9.5600   -7.1020 H   0  0  0  0  0  0  0  0  0  0  0  0
  -12.9460  -11.9050   -7.6460 H   0  0  0  0  0  0  0  0  0  0  0  0
  -11.1260  -13.1580   -9.0070 H   0  0  0  0  0  0  0  0  0  0  0  0
   -9.1070  -11.8320   -9.6690 H   0  0  0  0  0  0  0  0  0  0  0  0
  1  2  2  3
  2  3  1  0
  3  4  2  0
  4  5  1  0
  5  6  2  0
  6  7  1  0
  7  8  2  0
  1  9  1  0
  9 10  1  0
 10 11  1  0
 11 12  1  0
 12 13  2  0
 13 14  1  0
 14 15  2  0
 15 16  1  0
 16 17  2  0
  8  3  1  0
 17 12  1  0
  1 18  1  0
  2 19  1  0
  4 20  1  0
  5 21  1  0
  6 22  1  0
  7 23  1  0
  8 24  1  0
  9 25  1  0
  9 26  1  0
 10 27  1  0
 11 28  1  0
 11 29  1  0
 13 30  1  0
 14 31  1  0
 15 32  1  0
 16 33  1  0
A    1
 C1 
A    2
 C2 
A    3
 C3 
A    4
 C4 
A    5
 C5 
A    6
 C6 
A    7
 C7 
A    8
 C8 
A    9
 C9 
A   10
 N1 
A   11
 C10
A   12
 C11
A   13
 C12
A   14
 C13
A   15
 C14
A   16
 C15
A   17
 N2 
A   18
 H1 
A   19
 H2 
A   20
 H3 
A   21
 H4 
A   22
 H5 
A   23
 H6 
A   24
 H7 
A   25
 H8 
A   26
 H9 
A   27
 H10
A   28
 H11
A   29
 H12
A   30
 H13
A   31
 H14
A   32
 H15
A   33
 H16
M  END
>  <ref_pdb>  (193) 
x0051_0B

>  <ref_mols>  (193) 
x0051_0B

>  <original SMILES>  (193) 
[H]C(=C([H])C([H])([H])N([H])C([H])([H])c1nc([H])c([H])c([H])c1[H])c1c([H])c([H])c([H])c([H])c1[H]

>  <index>  (193) 
1495.0

>  <∆∆G>  (193) 
-2.132503

>  <comRMSD>  (193) 
0.724081

>  <N_constrained_atoms>  (193) 
19.0

>  <N_unconstrained_atoms>  (193) 
0.0

>  <LE>  (193) 
0.112237

>  <percent_hybrid>  (193) 
43.0

>  <largest_ring>  (193) 
6.0

>  <N_HA>  (193) 
17.0

>  <N_rotatable_bonds>  (193) 
5.0

>  <max_hit_Tanimoto>  (193) 
0.193939

>  <N_interactions_kept>  (193) 
0.5

>  <N_interactions_lost>  (193) 
0.5

>  <interaction_uniqueness_metric>  (193) 
0.061299

>  <N_interactions>  (193) 
3.0

>  <N_PAINS>  (193) 
0.0

>  <UFF_Gibbs>  (193) 
33186.041254

>  <strain_per_HA>  (193) 
1952.108591

>  <ad_hoc_penalty>  (193) 
-6.617432

>  <cluster>  (193) 
5515.0

>  <intxn_cluster>  (193) 
16.0

>  <keep>  (193) 
1.0

>  <hydroph_interaction:GLN:74>  (193) 
1.0

>  <hydroph_interaction:THR:118>  (193) 
0.0

>  <hydroph_interaction:ILE:123>  (193) 
1.0

>  <hydroph_interaction:THR:166>  (193) 
0.0

>  <hbond:GLN:167>  (193) 
0.0

>  <hydroph_interaction:ALA:88>  (193) 
0.0

>  <hydroph_interaction:ASP:120>  (193) 
0.0

>  <hydroph_interaction:GLN:167>  (193) 
0.0

>  <hbond:THR:118>  (193) 
1.0

>  <hydroph_interaction:ALA:164>  (193) 
0.0

>  <hbond:ASP:120>  (193) 
0.0

>  <hbond:THR:166>  (193) 
0.0

>  <hydroph_interaction:LEU:76>  (193) 
0.0

>  <hbond:ILE:165>  (193) 
0.0

>  <halogenbond:GLN:74>  (193) 
0.0

>  <hbond:GLN:74>  (193) 
0.0

>  <hbond:LYS:73>  (193) 
0.0

>  <pistack:TRP:69>  (193) 
0.0

>  <hbond:TRP:83>  (193) 
0.0

>  <hydroph_interaction:TRP:83>  (193) 
0.0

>  <hydroph_interaction:TRP:69>  (193) 
0.0

>  <pication:TRP:69>  (193) 
0.0

>  <hydroph_interaction:PRO:82>  (193) 
0.0

>  <halogenbond:LYS:73>  (193) 
0.0

>  <hydroph_interaction:TYR:68>  (193) 
0.0

>  <halogenbond:GLN:167>  (193) 
0.0

>  <hydroph_interaction:PHE:116>  (193) 
0.0

>  <hbond:TYR:68>  (193) 
0.0

>  <hbond:ASP:122>  (193) 
0.0

>  <pistack:PHE:116>  (193) 
0.0

>  <hydroph_interaction:VAL:154>  (193) 
0.0

>  <hydroph_interaction:ASP:75>  (193) 
0.0

>  <hbond:GLY:121>  (193) 
0.0

>  <hydroph_interaction:ASN:152>  (193) 
0.0

>  <halogenbond:ILE:165>  (193) 
0.0

$$$$
Z306499148-x0884-Z198195906
     RDKit          3D

 36 37  0  0  0  0  0  0  0  0999 V2000
   -9.7150   -5.1480  -10.3820 C   0  0  0  0  0  0  0  0  0  0  0  0
  -10.6600   -6.1800   -9.8800 C   0  0  0  0  0  0  0  0  0  0  0  0
  -11.9400   -6.2910  -10.4350 C   0  0  0  0  0  0  0  0  0  0  0  0
  -12.8230   -7.2510   -9.9590 C   0  0  0  0  0  0  0  0  0  0  0  0
  -12.4330   -8.1020   -8.9250 C   0  0  0  0  0  0  0  0  0  0  0  0
  -11.1560   -7.9920   -8.3640 C   0  0  0  0  0  0  0  0  0  0  0  0
  -10.8510   -8.8660   -7.3220 C   0  0  0  0  0  0  0  0  0  0  0  0
  -10.4010  -10.1780   -7.6010 N   0  0  0  0  0  0  0  0  0  0  0  0
  -11.3760  -11.2260   -7.8750 C   0  0  0  0  0  0  0  0  0  0  0  0
  -11.1310  -12.4190   -7.9180 O   0  0  0  0  0  0  0  0  0  0  0  0
  -12.6660  -10.7490   -8.1030 C   0  0  0  0  0  0  0  0  0  0  0  0
  -13.0420   -9.9090   -7.1160 O   0  0  0  0  0  0  0  0  0  0  0  0
  -14.3490   -9.5250   -7.0560 C   0  0  0  0  0  0  0  0  0  0  0  0
  -15.4270  -10.3690   -6.6680 C   0  0  0  0  0  0  0  0  0  0  0  0
  -16.8750   -9.8930   -6.6190 C   0  0  0  0  0  0  0  0  0  0  0  0
  -17.0950   -8.4570   -7.0130 C   0  0  0  0  0  0  0  0  0  0  0  0
  -15.8640   -7.6450   -7.4120 C   0  0  0  0  0  0  0  0  0  0  0  0
  -14.5880   -8.1880   -7.4160 C   0  0  0  0  0  0  0  0  0  0  0  0
  -10.2750   -7.0350   -8.8490 C   0  0  0  0  0  0  0  0  0  0  0  0
   -9.1770   -4.7030   -9.5400 H   0  0  0  0  0  0  0  0  0  0  0  0
  -10.2510   -4.3580  -10.9160 H   0  0  0  0  0  0  0  0  0  0  0  0
   -8.9900   -5.5860  -11.0740 H   0  0  0  0  0  0  0  0  0  0  0  0
  -12.2460   -5.6250  -11.2410 H   0  0  0  0  0  0  0  0  0  0  0  0
  -13.8110   -7.3200  -10.4090 H   0  0  0  0  0  0  0  0  0  0  0  0
  -13.1210   -8.8460   -8.5580 H   0  0  0  0  0  0  0  0  0  0  0  0
  -10.0780   -8.3900   -6.7020 H   0  0  0  0  0  0  0  0  0  0  0  0
  -11.7250   -8.9270   -6.6670 H   0  0  0  0  0  0  0  0  0  0  0  0
   -9.6020  -10.4890   -7.0720 H   0  0  0  0  0  0  0  0  0  0  0  0
  -12.6710  -10.2290   -9.0710 H   0  0  0  0  0  0  0  0  0  0  0  0
  -13.4730  -11.4800   -8.1560 H   0  0  0  0  0  0  0  0  0  0  0  0
  -15.2130  -11.4010   -6.3920 H   0  0  0  0  0  0  0  0  0  0  0  0
  -17.6970  -10.5380   -6.3230 H   0  0  0  0  0  0  0  0  0  0  0  0
  -18.0910   -8.0180   -7.0120 H   0  0  0  0  0  0  0  0  0  0  0  0
  -15.9950   -6.6040   -7.7010 H   0  0  0  0  0  0  0  0  0  0  0  0
  -13.7600   -7.5490   -7.7080 H   0  0  0  0  0  0  0  0  0  0  0  0
   -9.2790   -6.9470   -8.4170 H   0  0  0  0  0  0  0  0  0  0  0  0
  1  2  1  0
  2  3  2  0
  3  4  1  0
  4  5  2  0
  5  6  1  0
  6  7  1  0
  7  8  1  0
  8  9  1  0
  9 10  2  0
  9 11  1  0
 11 12  1  0
 12 13  1  0
 13 14  2  0
 14 15  1  0
 15 16  2  0
 16 17  1  0
 17 18  2  0
  6 19  2  0
 19  2  1  0
 18 13  1  0
  1 20  1  0
  1 21  1  0
  1 22  1  0
  3 23  1  0
  4 24  1  0
  5 25  1  0
  7 26  1  0
  7 27  1  0
  8 28  1  0
 11 29  1  0
 11 30  1  0
 14 31  1  0
 15 32  1  0
 16 33  1  0
 17 34  1  0
 18 35  1  0
 19 36  1  0
A    1
 C1 
A    2
 C2 
A    3
 C3 
A    4
 C4 
A    5
 C5 
A    6
 C6 
A    7
 C7 
A    8
 N1 
A    9
 C8 
A   10
 O1 
A   11
 C9 
A   12
 O2 
A   13
 C10
A   14
 C11
A   15
 C12
A   16
 C13
A   17
 C14
A   18
 C15
A   19
 C16
A   20
 H1 
A   21
 H2 
A   22
 H3 
A   23
 H4 
A   24
 H5 
A   25
 H6 
A   26
 H7 
A   27
 H8 
A   28
 H9 
A   29
 H10
A   30
 H11
A   31
 H12
A   32
 H13
A   33
 H14
A   34
 H15
A   35
 H16
A   36
 H17
M  END
>  <ref_pdb>  (194) 
x0051_0B

>  <ref_mols>  (194) 
x0051_0B

>  <original SMILES>  (194) 
[H]c1c([H])c([H])c(OC([H])([H])C(=O)N([H])C([H])([H])c2c([H])c([H])c([H])c(C([H])([H])[H])c2[H])c([H])c1[H]

>  <index>  (194) 
3430.0

>  <∆∆G>  (194) 
-4.366698

>  <comRMSD>  (194) 
0.969035

>  <N_constrained_atoms>  (194) 
21.0

>  <N_unconstrained_atoms>  (194) 
1.0

>  <LE>  (194) 
0.198486

>  <percent_hybrid>  (194) 
30.0

>  <largest_ring>  (194) 
6.0

>  <N_HA>  (194) 
19.0

>  <N_rotatable_bonds>  (194) 
6.0

>  <max_hit_Tanimoto>  (194) 
0.37581

>  <N_interactions_kept>  (194) 
0.5

>  <N_interactions_lost>  (194) 
2.0

>  <interaction_uniqueness_metric>  (194) 
0.120458

>  <N_interactions>  (194) 
5.0

>  <N_PAINS>  (194) 
0.0

>  <UFF_Gibbs>  (194) 
488.970443

>  <strain_per_HA>  (194) 
25.735151

>  <ad_hoc_penalty>  (194) 
-6.585063

>  <cluster>  (194) 
4746.0

>  <intxn_cluster>  (194) 
11.0

>  <keep>  (194) 
1.0

>  <hydroph_interaction:GLN:74>  (194) 
1.0

>  <hydroph_interaction:THR:118>  (194) 
0.0

>  <hydroph_interaction:ILE:123>  (194) 
1.0

>  <hydroph_interaction:THR:166>  (194) 
0.0

>  <hbond:GLN:167>  (194) 
0.0

>  <hydroph_interaction:ALA:88>  (194) 
0.0

>  <hydroph_interaction:ASP:120>  (194) 
0.0

>  <hydroph_interaction:GLN:167>  (194) 
0.0

>  <hbond:THR:118>  (194) 
2.0

>  <hydroph_interaction:ALA:164>  (194) 
1.0

>  <hbond:ASP:120>  (194) 
0.0

>  <hbond:THR:166>  (194) 
0.0

>  <hydroph_interaction:LEU:76>  (194) 
0.0

>  <hbond:ILE:165>  (194) 
0.0

>  <halogenbond:GLN:74>  (194) 
0.0

>  <hbond:GLN:74>  (194) 
0.0

>  <hbond:LYS:73>  (194) 
0.0

>  <pistack:TRP:69>  (194) 
0.0

>  <hbond:TRP:83>  (194) 
0.0

>  <hydroph_interaction:TRP:83>  (194) 
0.0

>  <hydroph_interaction:TRP:69>  (194) 
0.0

>  <pication:TRP:69>  (194) 
0.0

>  <hydroph_interaction:PRO:82>  (194) 
0.0

>  <halogenbond:LYS:73>  (194) 
0.0

>  <hydroph_interaction:TYR:68>  (194) 
0.0

>  <halogenbond:GLN:167>  (194) 
0.0

>  <hydroph_interaction:PHE:116>  (194) 
0.0

>  <hbond:TYR:68>  (194) 
0.0

>  <hbond:ASP:122>  (194) 
0.0

>  <pistack:PHE:116>  (194) 
0.0

>  <hydroph_interaction:VAL:154>  (194) 
0.0

>  <hydroph_interaction:ASP:75>  (194) 
0.0

>  <hbond:GLY:121>  (194) 
0.0

>  <hydroph_interaction:ASN:152>  (194) 
0.0

>  <halogenbond:ILE:165>  (194) 
0.0

$$$$
PV-002719493102-x0806-Z198195906S4
     RDKit          3D

 41 43  0  0  0  0  0  0  0  0999 V2000
  -13.0520   -9.5100   -6.9020 C   0  0  0  0  0  0  0  0  0  0  0  0
  -11.9410  -10.1600   -7.6830 C   0  0  0  0  0  0  0  0  0  0  0  0
  -12.0460  -11.5230   -8.0220 C   0  0  0  0  0  0  0  0  0  0  0  0
  -11.0290  -12.1480   -8.7380 C   0  0  0  0  0  0  0  0  0  0  0  0
   -9.9270  -11.3900   -9.0980 C   0  0  0  0  0  0  0  0  0  0  0  0
   -9.7890  -10.0750   -8.7900 N   0  0  0  0  0  0  0  0  0  0  0  0
  -10.7850   -9.4620   -8.0880 C   0  0  0  0  0  0  0  0  0  0  0  0
  -10.5780   -7.9870   -7.7540 C   0  0  0  0  0  0  0  0  0  0  0  0
  -10.1610   -7.1490   -8.8740 N   0  0  0  0  0  0  0  0  0  0  0  0
  -11.0440   -6.2190   -9.4000 C   0  0  0  0  0  0  0  0  0  0  0  0
  -10.6970   -5.2190  -10.0140 O   0  0  0  0  0  0  0  0  0  0  0  0
  -12.4760   -6.5690   -9.1450 C   0  0  0  0  0  0  0  0  0  0  0  0
  -13.2830   -7.5900   -9.8840 C   0  0  0  0  0  0  0  0  0  0  0  0
  -14.5470   -7.8790   -9.5660 C   0  0  0  0  0  0  0  0  0  0  0  0
  -15.0920   -8.8990  -10.3930 N   0  0  0  0  0  0  0  0  0  0  0  0
  -15.6510  -10.0970  -10.0320 C   0  0  0  0  0  0  0  0  0  0  0  0
  -15.9850  -10.7140  -11.2180 C   0  0  0  0  0  0  0  0  0  0  0  0
  -16.5740  -11.9460  -11.4250 C   0  0  0  0  0  0  0  0  0  0  0  0
  -16.7020  -12.2570  -12.8120 O   0  0  0  0  0  0  0  0  0  0  0  0
  -15.6360   -9.9020  -12.2570 N   0  0  0  0  0  0  0  0  0  0  0  0
  -15.0970   -8.8010  -11.7480 N   0  0  0  0  0  0  0  0  0  0  0  0
  -15.1360   -7.2020   -8.5160 C   0  0  0  0  0  0  0  0  0  0  0  0
  -14.4200   -6.2330   -7.8180 C   0  0  0  0  0  0  0  0  0  0  0  0
  -13.1010   -5.9100   -8.1180 C   0  0  0  0  0  0  0  0  0  0  0  0
  -12.6590   -8.7420   -6.2300 H   0  0  0  0  0  0  0  0  0  0  0  0
  -13.6000  -10.2640   -6.3290 H   0  0  0  0  0  0  0  0  0  0  0  0
  -13.7680   -9.0120   -7.5660 H   0  0  0  0  0  0  0  0  0  0  0  0
  -12.9210  -12.1030   -7.7290 H   0  0  0  0  0  0  0  0  0  0  0  0
  -11.0950  -13.1990   -9.0080 H   0  0  0  0  0  0  0  0  0  0  0  0
   -9.1060  -11.8320   -9.6590 H   0  0  0  0  0  0  0  0  0  0  0  0
  -11.4680   -7.5580   -7.2830 H   0  0  0  0  0  0  0  0  0  0  0  0
   -9.7810   -7.9100   -7.0050 H   0  0  0  0  0  0  0  0  0  0  0  0
   -9.1670   -6.9880   -8.9460 H   0  0  0  0  0  0  0  0  0  0  0  0
  -12.9340   -8.1650  -10.6900 H   0  0  0  0  0  0  0  0  0  0  0  0
  -15.7660  -10.4160   -9.0110 H   0  0  0  0  0  0  0  0  0  0  0  0
  -17.5740  -11.9600  -10.9810 H   0  0  0  0  0  0  0  0  0  0  0  0
  -15.9890  -12.7390  -10.9460 H   0  0  0  0  0  0  0  0  0  0  0  0
  -17.4850  -11.7700  -13.1240 H   0  0  0  0  0  0  0  0  0  0  0  0
  -16.1510   -7.3880   -8.1930 H   0  0  0  0  0  0  0  0  0  0  0  0
  -14.9080   -5.7230   -7.0150 H   0  0  0  0  0  0  0  0  0  0  0  0
  -12.5800   -5.1520   -7.5400 H   0  0  0  0  0  0  0  0  0  0  0  0
  1  2  1  0
  2  3  2  0
  3  4  1  0
  4  5  2  0
  5  6  1  0
  6  7  2  0
  7  8  1  0
  8  9  1  0
  9 10  1  0
 10 11  2  0
 10 12  1  0
 12 13  2  0
 13 14  1  0
 14 15  1  0
 15 16  1  0
 16 17  2  0
 17 18  1  0
 18 19  1  0
 17 20  1  0
 20 21  2  0
 14 22  2  0
 22 23  1  0
 23 24  2  0
  7  2  1  0
 24 12  1  0
 21 15  1  0
  1 25  1  0
  1 26  1  0
  1 27  1  0
  3 28  1  0
  4 29  1  0
  5 30  1  0
  8 31  1  0
  8 32  1  0
  9 33  1  0
 13 34  1  0
 16 35  1  0
 18 36  1  0
 18 37  1  0
 19 38  1  0
 22 39  1  0
 23 40  1  0
 24 41  1  0
A    1
 C1 
A    2
 C2 
A    3
 C3 
A    4
 C4 
A    5
 C5 
A    6
 N1 
A    7
 C6 
A    8
 C7 
A    9
 N2 
A   10
 C8 
A   11
 O1 
A   12
 C9 
A   13
 C10
A   14
 C11
A   15
 N3 
A   16
 C12
A   17
 C13
A   18
 C14
A   19
 O2 
A   20
 N4 
A   21
 N5 
A   22
 C15
A   23
 C16
A   24
 C17
A   25
 H1 
A   26
 H2 
A   27
 H3 
A   28
 H4 
A   29
 H5 
A   30
 H6 
A   31
 H7 
A   32
 H8 
A   33
 H9 
A   34
 H10
A   35
 H11
A   36
 H12
A   37
 H13
A   38
 H14
A   39
 H15
A   40
 H16
A   41
 H17
M  END
>  <ref_pdb>  (195) 
x0051_0B

>  <ref_mols>  (195) 
x0051_0B

>  <original SMILES>  (195) 
[H]OC([H])([H])c1nnn(-c2c([H])c([H])c([H])c(C(=O)N([H])C([H])([H])c3nc([H])c([H])c([H])c3C([H])([H])[H])c2[H])c1[H]

>  <index>  (195) 
45.0

>  <∆∆G>  (195) 
-4.791491

>  <comRMSD>  (195) 
0.564668

>  <N_constrained_atoms>  (195) 
25.0

>  <N_unconstrained_atoms>  (195) 
0.0

>  <LE>  (195) 
0.19166

>  <percent_hybrid>  (195) 
46.0

>  <largest_ring>  (195) 
6.0

>  <N_HA>  (195) 
24.0

>  <N_rotatable_bonds>  (195) 
7.0

>  <max_hit_Tanimoto>  (195) 
0.412311

>  <N_interactions_kept>  (195) 
1.0

>  <N_interactions_lost>  (195) 
2.5

>  <interaction_uniqueness_metric>  (195) 
0.107973

>  <N_interactions>  (195) 
6.0

>  <N_PAINS>  (195) 
0.0

>  <UFF_Gibbs>  (195) 
65.299777

>  <strain_per_HA>  (195) 
2.720813

>  <ad_hoc_penalty>  (195) 
-5.946243

>  <cluster>  (195) 
68.0

>  <intxn_cluster>  (195) 
16.0

>  <keep>  (195) 
1.0

>  <hydroph_interaction:GLN:74>  (195) 
1.0

>  <hydroph_interaction:THR:118>  (195) 
0.0

>  <hydroph_interaction:ILE:123>  (195) 
1.0

>  <hydroph_interaction:THR:166>  (195) 
1.0

>  <hbond:GLN:167>  (195) 
2.0

>  <hydroph_interaction:ALA:88>  (195) 
0.0

>  <hydroph_interaction:ASP:120>  (195) 
0.0

>  <hydroph_interaction:GLN:167>  (195) 
0.0

>  <hbond:THR:118>  (195) 
1.0

>  <hydroph_interaction:ALA:164>  (195) 
0.0

>  <hbond:ASP:120>  (195) 
0.0

>  <hbond:THR:166>  (195) 
0.0

>  <hydroph_interaction:LEU:76>  (195) 
0.0

>  <hbond:ILE:165>  (195) 
0.0

>  <halogenbond:GLN:74>  (195) 
0.0

>  <hbond:GLN:74>  (195) 
0.0

>  <hbond:LYS:73>  (195) 
0.0

>  <pistack:TRP:69>  (195) 
0.0

>  <hbond:TRP:83>  (195) 
0.0

>  <hydroph_interaction:TRP:83>  (195) 
0.0

>  <hydroph_interaction:TRP:69>  (195) 
0.0

>  <pication:TRP:69>  (195) 
0.0

>  <hydroph_interaction:PRO:82>  (195) 
0.0

>  <halogenbond:LYS:73>  (195) 
0.0

>  <hydroph_interaction:TYR:68>  (195) 
0.0

>  <halogenbond:GLN:167>  (195) 
0.0

>  <hydroph_interaction:PHE:116>  (195) 
0.0

>  <hbond:TYR:68>  (195) 
0.0

>  <hbond:ASP:122>  (195) 
0.0

>  <pistack:PHE:116>  (195) 
0.0

>  <hydroph_interaction:VAL:154>  (195) 
0.0

>  <hydroph_interaction:ASP:75>  (195) 
0.0

>  <hbond:GLY:121>  (195) 
0.0

>  <hydroph_interaction:ASN:152>  (195) 
0.0

>  <halogenbond:ILE:165>  (195) 
0.0

$$$$
Z1745075149-x0884S3-x0214S3
     RDKit          3D

 26 26  0  0  0  0  0  0  0  0999 V2000
  -12.0820   -9.5480   -6.4830 C   0  0  0  0  0  0  0  0  0  0  0  0
  -11.9900  -10.0060   -7.8250 C   0  0  0  0  0  0  0  0  0  0  0  0
  -13.3130  -10.4770   -8.2900 N   0  0  0  0  0  0  0  0  0  0  0  0
  -14.2320   -9.3290   -8.2760 C   0  0  0  0  0  0  0  0  0  0  0  0
  -13.5870   -8.1940   -8.7910 C   0  0  0  0  0  0  0  0  0  0  0  0
  -13.3980   -8.1100  -10.1610 C   0  0  0  0  0  0  0  0  0  0  0  0
  -12.7880   -7.0860  -10.7900 N   0  0  0  0  0  0  0  0  0  0  0  0
  -12.3400   -6.0740  -10.0230 C   0  0  0  0  0  0  0  0  0  0  0  0
  -12.4790   -6.0540   -8.6320 C   0  0  0  0  0  0  0  0  0  0  0  0
  -12.0130   -5.0250   -7.9150 F   0  0  0  0  0  0  0  0  0  0  0  0
  -13.1090   -7.1250   -8.0070 C   0  0  0  0  0  0  0  0  0  0  0  0
  -10.8730  -11.0740   -7.9340 C   0  0  0  0  0  0  0  0  0  0  0  0
   -9.6250  -10.5580   -7.7150 N   0  0  0  0  0  0  0  0  0  0  0  0
  -11.0270  -12.2600   -8.1820 O   0  0  0  0  0  0  0  0  0  0  0  0
  -11.5570  -10.2180   -5.7940 H   0  0  0  0  0  0  0  0  0  0  0  0
  -13.1260   -9.5010   -6.1560 H   0  0  0  0  0  0  0  0  0  0  0  0
  -11.6580   -8.5430   -6.3750 H   0  0  0  0  0  0  0  0  0  0  0  0
  -11.6530   -9.1760   -8.4610 H   0  0  0  0  0  0  0  0  0  0  0  0
  -13.6560  -11.1910   -7.6430 H   0  0  0  0  0  0  0  0  0  0  0  0
  -14.5630   -9.1020   -7.2540 H   0  0  0  0  0  0  0  0  0  0  0  0
  -15.1320   -9.5400   -8.8650 H   0  0  0  0  0  0  0  0  0  0  0  0
  -13.7430   -8.8950  -10.8250 H   0  0  0  0  0  0  0  0  0  0  0  0
  -11.8540   -5.2580  -10.5480 H   0  0  0  0  0  0  0  0  0  0  0  0
  -13.2250   -7.1260   -6.9270 H   0  0  0  0  0  0  0  0  0  0  0  0
   -9.5750   -9.8160   -7.0240 H   0  0  0  0  0  0  0  0  0  0  0  0
   -8.8390  -11.2090   -7.7810 H   0  0  0  0  0  0  0  0  0  0  0  0
  1  2  1  0
  2  3  1  0
  3  4  1  0
  4  5  1  0
  5  6  2  0
  6  7  1  0
  7  8  2  0
  8  9  1  0
  9 10  1  0
  9 11  2  0
  2 12  1  0
 12 13  1  0
 12 14  2  0
 11  5  1  0
  1 15  1  0
  1 16  1  0
  1 17  1  0
  2 18  1  0
  3 19  1  0
  4 20  1  0
  4 21  1  0
  6 22  1  0
  8 23  1  0
 11 24  1  0
 13 25  1  0
 13 26  1  0
A    1
 C1 
A    2
 C2 
A    3
 N1 
A    4
 C3 
A    5
 C4 
A    6
 C5 
A    7
 N2 
A    8
 C6 
A    9
 C7 
A   10
 F1 
A   11
 C8 
A   12
 C9 
A   13
 N3 
A   14
 O1 
A   15
 H1 
A   16
 H2 
A   17
 H3 
A   18
 H4 
A   19
 H5 
A   20
 H6 
A   21
 H7 
A   22
 H8 
A   23
 H9 
A   24
 H10
A   25
 H11
A   26
 H12
M  END
>  <ref_pdb>  (196) 
x0051_0B

>  <ref_mols>  (196) 
x0051_0B

>  <original SMILES>  (196) 
[H]c1nc([H])c(C([H])([H])N([H])C([H])(C(=O)N([H])[H])C([H])([H])[H])c([H])c1F

>  <index>  (196) 
8570.0

>  <∆∆G>  (196) 
-2.284428

>  <comRMSD>  (196) 
0.667992

>  <N_constrained_atoms>  (196) 
12.0

>  <N_unconstrained_atoms>  (196) 
2.0

>  <LE>  (196) 
0.163173

>  <percent_hybrid>  (196) 
50.0

>  <largest_ring>  (196) 
6.0

>  <N_HA>  (196) 
14.0

>  <N_rotatable_bonds>  (196) 
5.0

>  <max_hit_Tanimoto>  (196) 
0.097484

>  <N_interactions_kept>  (196) 
0.5

>  <N_interactions_lost>  (196) 
1.0

>  <interaction_uniqueness_metric>  (196) 
0.291358

>  <N_interactions>  (196) 
3.0

>  <N_PAINS>  (196) 
0.0

>  <UFF_Gibbs>  (196) 
67.170331

>  <strain_per_HA>  (196) 
4.797846

>  <ad_hoc_penalty>  (196) 
-4.177921

>  <cluster>  (196) 
2645.0

>  <intxn_cluster>  (196) 
9.0

>  <keep>  (196) 
1.0

>  <hydroph_interaction:GLN:74>  (196) 
0.0

>  <hydroph_interaction:THR:118>  (196) 
0.0

>  <hydroph_interaction:ILE:123>  (196) 
0.0

>  <hydroph_interaction:THR:166>  (196) 
0.0

>  <hbond:GLN:167>  (196) 
0.0

>  <hydroph_interaction:ALA:88>  (196) 
0.0

>  <hydroph_interaction:ASP:120>  (196) 
0.0

>  <hydroph_interaction:GLN:167>  (196) 
0.0

>  <hbond:THR:118>  (196) 
2.0

>  <hydroph_interaction:ALA:164>  (196) 
0.0

>  <hbond:ASP:120>  (196) 
0.0

>  <hbond:THR:166>  (196) 
0.0

>  <hydroph_interaction:LEU:76>  (196) 
0.0

>  <hbond:ILE:165>  (196) 
0.0

>  <halogenbond:GLN:74>  (196) 
0.0

>  <hbond:GLN:74>  (196) 
0.0

>  <hbond:LYS:73>  (196) 
0.0

>  <pistack:TRP:69>  (196) 
0.0

>  <hbond:TRP:83>  (196) 
0.0

>  <hydroph_interaction:TRP:83>  (196) 
0.0

>  <hydroph_interaction:TRP:69>  (196) 
0.0

>  <pication:TRP:69>  (196) 
0.0

>  <hydroph_interaction:PRO:82>  (196) 
0.0

>  <halogenbond:LYS:73>  (196) 
1.0

>  <hydroph_interaction:TYR:68>  (196) 
0.0

>  <halogenbond:GLN:167>  (196) 
0.0

>  <hydroph_interaction:PHE:116>  (196) 
0.0

>  <hbond:TYR:68>  (196) 
0.0

>  <hbond:ASP:122>  (196) 
0.0

>  <pistack:PHE:116>  (196) 
0.0

>  <hydroph_interaction:VAL:154>  (196) 
0.0

>  <hydroph_interaction:ASP:75>  (196) 
0.0

>  <hbond:GLY:121>  (196) 
0.0

>  <hydroph_interaction:ASN:152>  (196) 
0.0

>  <halogenbond:ILE:165>  (196) 
0.0

$$$$
Z1164134152-x0884-Z198195906
     RDKit          3D

 40 41  0  0  0  0  0  0  0  0999 V2000
   -9.5990   -4.9150  -10.2570 C   0  0  0  0  0  0  0  0  0  0  0  0
  -10.6160   -5.8630   -9.5980 C   0  0  0  0  0  0  0  0  0  0  0  0
  -10.0120   -7.0120   -8.7690 C   0  0  0  0  0  0  0  0  0  0  0  0
  -10.8800   -7.8960   -8.1540 C   0  0  0  0  0  0  0  0  0  0  0  0
  -10.3850   -8.9450   -7.3940 C   0  0  0  0  0  0  0  0  0  0  0  0
  -10.0200  -10.0180   -8.3040 N   0  0  0  0  0  0  0  0  0  0  0  0
  -10.8770  -11.1970   -8.1120 C   0  0  0  0  0  0  0  0  0  0  0  0
  -10.3960  -12.2200   -9.1460 C   0  0  0  0  0  0  0  0  0  0  0  0
  -12.3660  -10.8270   -8.3640 C   0  0  0  0  0  0  0  0  0  0  0  0
  -12.8650  -10.1570   -7.1910 O   0  0  0  0  0  0  0  0  0  0  0  0
  -14.1440   -9.6440   -7.1840 C   0  0  0  0  0  0  0  0  0  0  0  0
  -15.1570  -10.5820   -6.8680 C   0  0  0  0  0  0  0  0  0  0  0  0
  -16.5100  -10.1990   -6.8190 C   0  0  0  0  0  0  0  0  0  0  0  0
  -16.8280   -8.8770   -7.0910 C   0  0  0  0  0  0  0  0  0  0  0  0
  -15.8560   -7.9410   -7.4040 C   0  0  0  0  0  0  0  0  0  0  0  0
  -14.5290   -8.3100   -7.4510 C   0  0  0  0  0  0  0  0  0  0  0  0
  -12.2670   -7.7150   -8.3120 C   0  0  0  0  0  0  0  0  0  0  0  0
  -12.8160   -6.6640   -9.0780 C   0  0  0  0  0  0  0  0  0  0  0  0
  -11.9890   -5.7390   -9.7180 C   0  0  0  0  0  0  0  0  0  0  0  0
   -8.9370   -5.4680  -10.9300 H   0  0  0  0  0  0  0  0  0  0  0  0
  -10.1010   -4.1400  -10.8450 H   0  0  0  0  0  0  0  0  0  0  0  0
   -9.0030   -4.4040   -9.4930 H   0  0  0  0  0  0  0  0  0  0  0  0
   -8.9370   -7.1350   -8.6600 H   0  0  0  0  0  0  0  0  0  0  0  0
  -11.0630   -9.3600   -6.6520 H   0  0  0  0  0  0  0  0  0  0  0  0
   -9.4940   -8.7210   -6.8120 H   0  0  0  0  0  0  0  0  0  0  0  0
  -10.1280   -9.6720   -9.2600 H   0  0  0  0  0  0  0  0  0  0  0  0
  -10.8020  -11.4760   -7.0650 H   0  0  0  0  0  0  0  0  0  0  0  0
   -9.4360  -12.0420   -9.6500 H   0  0  0  0  0  0  0  0  0  0  0  0
  -11.1360  -12.3160   -9.9480 H   0  0  0  0  0  0  0  0  0  0  0  0
  -10.3110  -13.2070   -8.6780 H   0  0  0  0  0  0  0  0  0  0  0  0
  -12.4500  -10.1530   -9.2210 H   0  0  0  0  0  0  0  0  0  0  0  0
  -12.9410  -11.7410   -8.5560 H   0  0  0  0  0  0  0  0  0  0  0  0
  -14.8860  -11.6140   -6.6590 H   0  0  0  0  0  0  0  0  0  0  0  0
  -17.2840  -10.9210   -6.5750 H   0  0  0  0  0  0  0  0  0  0  0  0
  -17.8780   -8.5580   -7.0580 H   0  0  0  0  0  0  0  0  0  0  0  0
  -16.1550   -6.9090   -7.6110 H   0  0  0  0  0  0  0  0  0  0  0  0
  -13.8720   -7.4760   -7.7070 H   0  0  0  0  0  0  0  0  0  0  0  0
  -12.9390   -8.4100   -7.8270 H   0  0  0  0  0  0  0  0  0  0  0  0
  -13.8980   -6.5700   -9.1700 H   0  0  0  0  0  0  0  0  0  0  0  0
  -12.4190   -4.9370  -10.3040 H   0  0  0  0  0  0  0  0  0  0  0  0
  1  2  1  0
  2  3  2  0
  3  4  1  0
  4  5  1  0
  5  6  1  0
  6  7  1  0
  7  8  1  0
  7  9  1  0
  9 10  1  0
 10 11  1  0
 11 12  2  0
 12 13  1  0
 13 14  2  0
 14 15  1  0
 15 16  2  0
  4 17  2  0
 17 18  1  0
 18 19  2  0
 19  2  1  0
 16 11  1  0
  1 20  1  0
  1 21  1  0
  1 22  1  0
  3 23  1  0
  5 24  1  0
  5 25  1  0
  6 26  1  0
  7 27  1  0
  8 28  1  0
  8 29  1  0
  8 30  1  0
  9 31  1  0
  9 32  1  0
 12 33  1  0
 13 34  1  0
 14 35  1  0
 15 36  1  0
 16 37  1  0
 17 38  1  0
 18 39  1  0
 19 40  1  0
A    1
 C1 
A    2
 C2 
A    3
 C3 
A    4
 C4 
A    5
 C5 
A    6
 N1 
A    7
 C6 
A    8
 C7 
A    9
 C8 
A   10
 O1 
A   11
 C9 
A   12
 C10
A   13
 C11
A   14
 C12
A   15
 C13
A   16
 C14
A   17
 C15
A   18
 C16
A   19
 C17
A   20
 H1 
A   21
 H2 
A   22
 H3 
A   23
 H4 
A   24
 H5 
A   25
 H6 
A   26
 H7 
A   27
 H8 
A   28
 H9 
A   29
 H10
A   30
 H11
A   31
 H12
A   32
 H13
A   33
 H14
A   34
 H15
A   35
 H16
A   36
 H17
A   37
 H18
A   38
 H19
A   39
 H20
A   40
 H21
M  END
>  <ref_pdb>  (197) 
x0051_0B

>  <ref_mols>  (197) 
x0051_0B

>  <original SMILES>  (197) 
[H]c1c([H])c([H])c(OC([H])([H])C([H])(N([H])C([H])([H])c2c([H])c([H])c([H])c(C([H])([H])[H])c2[H])C([H])([H])[H])c([H])c1[H]

>  <index>  (197) 
3394.0

>  <∆∆G>  (197) 
-5.306529

>  <comRMSD>  (197) 
0.726818

>  <N_constrained_atoms>  (197) 
22.0

>  <N_unconstrained_atoms>  (197) 
1.0

>  <LE>  (197) 
0.230719

>  <percent_hybrid>  (197) 
34.0

>  <largest_ring>  (197) 
6.0

>  <N_HA>  (197) 
19.0

>  <N_rotatable_bonds>  (197) 
8.0

>  <max_hit_Tanimoto>  (197) 
0.317495

>  <N_interactions_kept>  (197) 
0.5

>  <N_interactions_lost>  (197) 
2.0

>  <interaction_uniqueness_metric>  (197) 
0.135848

>  <N_interactions>  (197) 
5.0

>  <N_PAINS>  (197) 
0.0

>  <UFF_Gibbs>  (197) 
1261.763771

>  <strain_per_HA>  (197) 
66.40827

>  <ad_hoc_penalty>  (197) 
-3.854044

>  <cluster>  (197) 
4752.0

>  <intxn_cluster>  (197) 
11.0

>  <keep>  (197) 
1.0

>  <hydroph_interaction:GLN:74>  (197) 
1.0

>  <hydroph_interaction:THR:118>  (197) 
0.0

>  <hydroph_interaction:ILE:123>  (197) 
1.0

>  <hydroph_interaction:THR:166>  (197) 
1.0

>  <hbond:GLN:167>  (197) 
0.0

>  <hydroph_interaction:ALA:88>  (197) 
0.0

>  <hydroph_interaction:ASP:120>  (197) 
0.0

>  <hydroph_interaction:GLN:167>  (197) 
0.0

>  <hbond:THR:118>  (197) 
1.0

>  <hydroph_interaction:ALA:164>  (197) 
1.0

>  <hbond:ASP:120>  (197) 
0.0

>  <hbond:THR:166>  (197) 
0.0

>  <hydroph_interaction:LEU:76>  (197) 
0.0

>  <hbond:ILE:165>  (197) 
0.0

>  <halogenbond:GLN:74>  (197) 
0.0

>  <hbond:GLN:74>  (197) 
0.0

>  <hbond:LYS:73>  (197) 
0.0

>  <pistack:TRP:69>  (197) 
0.0

>  <hbond:TRP:83>  (197) 
0.0

>  <hydroph_interaction:TRP:83>  (197) 
0.0

>  <hydroph_interaction:TRP:69>  (197) 
0.0

>  <pication:TRP:69>  (197) 
0.0

>  <hydroph_interaction:PRO:82>  (197) 
0.0

>  <halogenbond:LYS:73>  (197) 
0.0

>  <hydroph_interaction:TYR:68>  (197) 
0.0

>  <halogenbond:GLN:167>  (197) 
0.0

>  <hydroph_interaction:PHE:116>  (197) 
0.0

>  <hbond:TYR:68>  (197) 
0.0

>  <hbond:ASP:122>  (197) 
0.0

>  <pistack:PHE:116>  (197) 
0.0

>  <hydroph_interaction:VAL:154>  (197) 
0.0

>  <hydroph_interaction:ASP:75>  (197) 
0.0

>  <hbond:GLY:121>  (197) 
0.0

>  <hydroph_interaction:ASN:152>  (197) 
0.0

>  <halogenbond:ILE:165>  (197) 
0.0

$$$$
Z2697260684-x0884S3-x0214S3
     RDKit          3D

 26 26  0  0  0  0  0  0  0  0999 V2000
  -12.3180   -9.6510   -6.5800 C   0  0  0  0  0  0  0  0  0  0  0  0
  -12.0010  -10.0420   -7.9180 C   0  0  0  0  0  0  0  0  0  0  0  0
  -13.2710  -10.4690   -8.5310 N   0  0  0  0  0  0  0  0  0  0  0  0
  -14.1910   -9.3260   -8.3860 C   0  0  0  0  0  0  0  0  0  0  0  0
  -13.5570   -8.1790   -8.8590 C   0  0  0  0  0  0  0  0  0  0  0  0
  -13.3930   -8.0800  -10.2190 C   0  0  0  0  0  0  0  0  0  0  0  0
  -12.7960   -7.0500  -10.8420 N   0  0  0  0  0  0  0  0  0  0  0  0
  -12.3330   -6.0490  -10.0770 C   0  0  0  0  0  0  0  0  0  0  0  0
  -12.4430   -6.0360   -8.6810 C   0  0  0  0  0  0  0  0  0  0  0  0
  -11.8120   -4.7200   -7.7840 Cl  0  0  0  0  0  0  0  0  0  0  0  0
  -13.0690   -7.1200   -8.0590 C   0  0  0  0  0  0  0  0  0  0  0  0
  -10.9100  -11.1190   -7.8350 C   0  0  0  0  0  0  0  0  0  0  0  0
   -9.7270  -10.6860   -7.3000 N   0  0  0  0  0  0  0  0  0  0  0  0
  -11.0480  -12.2770   -8.2080 O   0  0  0  0  0  0  0  0  0  0  0  0
  -11.4150   -9.6100   -5.9660 H   0  0  0  0  0  0  0  0  0  0  0  0
  -12.8110   -8.6790   -6.5680 H   0  0  0  0  0  0  0  0  0  0  0  0
  -12.9940  -10.3680   -6.1030 H   0  0  0  0  0  0  0  0  0  0  0  0
  -11.5990   -9.1730   -8.4510 H   0  0  0  0  0  0  0  0  0  0  0  0
  -13.0900  -10.6060   -9.5300 H   0  0  0  0  0  0  0  0  0  0  0  0
  -14.5040   -9.1670   -7.3470 H   0  0  0  0  0  0  0  0  0  0  0  0
  -15.1070   -9.4950   -8.9670 H   0  0  0  0  0  0  0  0  0  0  0  0
  -13.7520   -8.8630  -10.8830 H   0  0  0  0  0  0  0  0  0  0  0  0
  -11.8580   -5.2360  -10.6170 H   0  0  0  0  0  0  0  0  0  0  0  0
  -13.1730   -7.1450   -6.9750 H   0  0  0  0  0  0  0  0  0  0  0  0
   -8.9020  -11.2860   -7.4350 H   0  0  0  0  0  0  0  0  0  0  0  0
   -9.6650   -9.9270   -6.6370 H   0  0  0  0  0  0  0  0  0  0  0  0
  1  2  1  0
  2  3  1  0
  3  4  1  0
  4  5  1  0
  5  6  2  0
  6  7  1  0
  7  8  2  0
  8  9  1  0
  9 10  1  0
  9 11  2  0
  2 12  1  0
 12 13  1  0
 12 14  2  0
 11  5  1  0
  1 15  1  0
  1 16  1  0
  1 17  1  0
  2 18  1  0
  3 19  1  0
  4 20  1  0
  4 21  1  0
  6 22  1  0
  8 23  1  0
 11 24  1  0
 13 25  1  0
 13 26  1  0
A    1
 C1 
A    2
 C2 
A    3
 N1 
A    4
 C3 
A    5
 C4 
A    6
 C5 
A    7
 N2 
A    8
 C6 
A    9
 C7 
A   10
CL1 
A   11
 C8 
A   12
 C9 
A   13
 N3 
A   14
 O1 
A   15
 H1 
A   16
 H2 
A   17
 H3 
A   18
 H4 
A   19
 H5 
A   20
 H6 
A   21
 H7 
A   22
 H8 
A   23
 H9 
A   24
 H10
A   25
 H11
A   26
 H12
M  END
>  <ref_pdb>  (198) 
x0051_0B

>  <ref_mols>  (198) 
x0051_0B

>  <original SMILES>  (198) 
[H]c1nc([H])c(C([H])([H])N([H])C([H])(C(=O)N([H])[H])C([H])([H])[H])c([H])c1Cl

>  <index>  (198) 
8569.0

>  <∆∆G>  (198) 
-2.085607

>  <comRMSD>  (198) 
0.645514

>  <N_constrained_atoms>  (198) 
12.0

>  <N_unconstrained_atoms>  (198) 
2.0

>  <LE>  (198) 
0.148972

>  <percent_hybrid>  (198) 
50.0

>  <largest_ring>  (198) 
6.0

>  <N_HA>  (198) 
14.0

>  <N_rotatable_bonds>  (198) 
5.0

>  <max_hit_Tanimoto>  (198) 
0.097484

>  <N_interactions_kept>  (198) 
0.5

>  <N_interactions_lost>  (198) 
1.0

>  <interaction_uniqueness_metric>  (198) 
0.291358

>  <N_interactions>  (198) 
3.0

>  <N_PAINS>  (198) 
0.0

>  <UFF_Gibbs>  (198) 
122.623541

>  <strain_per_HA>  (198) 
8.758762

>  <ad_hoc_penalty>  (198) 
-3.581459

>  <cluster>  (198) 
2646.0

>  <intxn_cluster>  (198) 
9.0

>  <keep>  (198) 
1.0

>  <hydroph_interaction:GLN:74>  (198) 
0.0

>  <hydroph_interaction:THR:118>  (198) 
0.0

>  <hydroph_interaction:ILE:123>  (198) 
0.0

>  <hydroph_interaction:THR:166>  (198) 
0.0

>  <hbond:GLN:167>  (198) 
0.0

>  <hydroph_interaction:ALA:88>  (198) 
0.0

>  <hydroph_interaction:ASP:120>  (198) 
0.0

>  <hydroph_interaction:GLN:167>  (198) 
0.0

>  <hbond:THR:118>  (198) 
2.0

>  <hydroph_interaction:ALA:164>  (198) 
0.0

>  <hbond:ASP:120>  (198) 
0.0

>  <hbond:THR:166>  (198) 
0.0

>  <hydroph_interaction:LEU:76>  (198) 
0.0

>  <hbond:ILE:165>  (198) 
0.0

>  <halogenbond:GLN:74>  (198) 
0.0

>  <hbond:GLN:74>  (198) 
0.0

>  <hbond:LYS:73>  (198) 
0.0

>  <pistack:TRP:69>  (198) 
0.0

>  <hbond:TRP:83>  (198) 
0.0

>  <hydroph_interaction:TRP:83>  (198) 
0.0

>  <hydroph_interaction:TRP:69>  (198) 
0.0

>  <pication:TRP:69>  (198) 
0.0

>  <hydroph_interaction:PRO:82>  (198) 
0.0

>  <halogenbond:LYS:73>  (198) 
1.0

>  <hydroph_interaction:TYR:68>  (198) 
0.0

>  <halogenbond:GLN:167>  (198) 
0.0

>  <hydroph_interaction:PHE:116>  (198) 
0.0

>  <hbond:TYR:68>  (198) 
0.0

>  <hbond:ASP:122>  (198) 
0.0

>  <pistack:PHE:116>  (198) 
0.0

>  <hydroph_interaction:VAL:154>  (198) 
0.0

>  <hydroph_interaction:ASP:75>  (198) 
0.0

>  <hbond:GLY:121>  (198) 
0.0

>  <hydroph_interaction:ASN:152>  (198) 
0.0

>  <halogenbond:ILE:165>  (198) 
0.0

$$$$
PV-007078088111-Z198195906S1-x0884
     RDKit          3D

 30 30  0  0  0  0  0  0  0  0999 V2000
  -10.7690   -5.0270   -9.6080 N   0  0  0  0  0  0  0  0  0  0  0  0
  -11.2020   -6.3150   -9.4900 C   0  0  0  0  0  0  0  0  0  0  0  0
  -10.5010   -7.3490  -10.1470 O   0  0  0  0  0  0  0  0  0  0  0  0
  -12.4300   -6.5230   -8.6280 C   0  0  0  0  0  0  0  0  0  0  0  0
  -13.3770   -7.4670   -9.0400 C   0  0  0  0  0  0  0  0  0  0  0  0
  -14.2330   -8.1380   -8.1460 C   0  0  0  0  0  0  0  0  0  0  0  0
  -15.5390   -7.6600   -8.0080 C   0  0  0  0  0  0  0  0  0  0  0  0
  -16.5610   -8.3130   -7.1030 C   0  0  0  0  0  0  0  0  0  0  0  0
  -16.0600   -9.5340   -6.3430 C   0  0  0  0  0  0  0  0  0  0  0  0
  -14.7410   -9.9150   -6.5460 C   0  0  0  0  0  0  0  0  0  0  0  0
  -13.8370   -9.2750   -7.3940 C   0  0  0  0  0  0  0  0  0  0  0  0
  -12.5240   -9.7450   -7.5210 N   0  0  0  0  0  0  0  0  0  0  0  0
  -12.1380  -10.9960   -7.9020 C   0  0  0  0  0  0  0  0  0  0  0  0
  -12.8440  -11.9450   -8.2240 O   0  0  0  0  0  0  0  0  0  0  0  0
  -10.7560  -11.1740   -7.9300 C   0  0  0  0  0  0  0  0  0  0  0  0
  -10.0140  -10.0890   -7.5360 N   0  0  0  0  0  0  0  0  0  0  0  0
  -10.2740  -12.2330   -8.2790 O   0  0  0  0  0  0  0  0  0  0  0  0
  -11.1420   -4.3950  -10.3020 H   0  0  0  0  0  0  0  0  0  0  0  0
  -10.3790   -4.6120   -8.7720 H   0  0  0  0  0  0  0  0  0  0  0  0
  -12.0730   -6.7830   -7.6230 H   0  0  0  0  0  0  0  0  0  0  0  0
  -12.9390   -5.5560   -8.5570 H   0  0  0  0  0  0  0  0  0  0  0  0
  -14.0240   -7.0080   -9.7950 H   0  0  0  0  0  0  0  0  0  0  0  0
  -12.8150   -8.2320   -9.5820 H   0  0  0  0  0  0  0  0  0  0  0  0
  -15.8370   -6.7850   -8.5770 H   0  0  0  0  0  0  0  0  0  0  0  0
  -17.5770   -7.9390   -7.0040 H   0  0  0  0  0  0  0  0  0  0  0  0
  -16.6370  -10.1480   -5.6430 H   0  0  0  0  0  0  0  0  0  0  0  0
  -14.3770  -10.7890   -5.9950 H   0  0  0  0  0  0  0  0  0  0  0  0
  -11.7650   -9.0630   -7.5390 H   0  0  0  0  0  0  0  0  0  0  0  0
   -9.5710   -9.5050   -8.2380 H   0  0  0  0  0  0  0  0  0  0  0  0
   -9.7490  -10.0080   -6.5660 H   0  0  0  0  0  0  0  0  0  0  0  0
  1  2  1  0
  2  3  2  0
  2  4  1  0
  4  5  1  0
  5  6  1  0
  6  7  2  0
  7  8  1  0
  8  9  2  0
  9 10  1  0
 10 11  2  0
 11 12  1  0
 12 13  1  0
 13 14  2  0
 13 15  1  0
 15 16  1  0
 15 17  2  0
 11  6  1  0
  1 18  1  0
  1 19  1  0
  4 20  1  0
  4 21  1  0
  5 22  1  0
  5 23  1  0
  7 24  1  0
  8 25  1  0
  9 26  1  0
 10 27  1  0
 12 28  1  0
 16 29  1  0
 16 30  1  0
A    1
 N1 
A    2
 C1 
A    3
 O1 
A    4
 C2 
A    5
 C3 
A    6
 C4 
A    7
 C5 
A    8
 C6 
A    9
 C7 
A   10
 C8 
A   11
 C9 
A   12
 N2 
A   13
 C10
A   14
 O2 
A   15
 C11
A   16
 N3 
A   17
 O3 
A   18
 H1 
A   19
 H2 
A   20
 H3 
A   21
 H4 
A   22
 H5 
A   23
 H6 
A   24
 H7 
A   25
 H8 
A   26
 H9 
A   27
 H10
A   28
 H11
A   29
 H12
A   30
 H13
M  END
>  <ref_pdb>  (199) 
x0051_0B

>  <ref_mols>  (199) 
x0051_0B

>  <original SMILES>  (199) 
[H]c1c([H])c([H])c(C([H])([H])C([H])([H])C(=O)N([H])[H])c(N([H])C(=O)C(=O)N([H])[H])c1[H]

>  <index>  (199) 
10128.0

>  <∆∆G>  (199) 
-3.416815

>  <comRMSD>  (199) 
0.744619

>  <N_constrained_atoms>  (199) 
18.0

>  <N_unconstrained_atoms>  (199) 
0.0

>  <LE>  (199) 
0.189823

>  <percent_hybrid>  (199) 
23.0

>  <largest_ring>  (199) 
6.0

>  <N_HA>  (199) 
17.0

>  <N_rotatable_bonds>  (199) 
4.0

>  <max_hit_Tanimoto>  (199) 
0.167449

>  <N_interactions_kept>  (199) 
0.5

>  <N_interactions_lost>  (199) 
1.0

>  <interaction_uniqueness_metric>  (199) 
0.033159

>  <N_interactions>  (199) 
2.0

>  <N_PAINS>  (199) 
0.0

>  <UFF_Gibbs>  (199) 
119.891023

>  <strain_per_HA>  (199) 
7.052372

>  <ad_hoc_penalty>  (199) 
-2.681069

>  <cluster>  (199) 
1996.0

>  <intxn_cluster>  (199) 
9.0

>  <keep>  (199) 
1.0

>  <hydroph_interaction:GLN:74>  (199) 
0.0

>  <hydroph_interaction:THR:118>  (199) 
0.0

>  <hydroph_interaction:ILE:123>  (199) 
0.0

>  <hydroph_interaction:THR:166>  (199) 
0.0

>  <hbond:GLN:167>  (199) 
0.0

>  <hydroph_interaction:ALA:88>  (199) 
0.0

>  <hydroph_interaction:ASP:120>  (199) 
0.0

>  <hydroph_interaction:GLN:167>  (199) 
0.0

>  <hbond:THR:118>  (199) 
2.0

>  <hydroph_interaction:ALA:164>  (199) 
0.0

>  <hbond:ASP:120>  (199) 
0.0

>  <hbond:THR:166>  (199) 
0.0

>  <hydroph_interaction:LEU:76>  (199) 
0.0

>  <hbond:ILE:165>  (199) 
0.0

>  <halogenbond:GLN:74>  (199) 
0.0

>  <hbond:GLN:74>  (199) 
0.0

>  <hbond:LYS:73>  (199) 
0.0

>  <pistack:TRP:69>  (199) 
0.0

>  <hbond:TRP:83>  (199) 
0.0

>  <hydroph_interaction:TRP:83>  (199) 
0.0

>  <hydroph_interaction:TRP:69>  (199) 
0.0

>  <pication:TRP:69>  (199) 
0.0

>  <hydroph_interaction:PRO:82>  (199) 
0.0

>  <halogenbond:LYS:73>  (199) 
0.0

>  <hydroph_interaction:TYR:68>  (199) 
0.0

>  <halogenbond:GLN:167>  (199) 
0.0

>  <hydroph_interaction:PHE:116>  (199) 
0.0

>  <hbond:TYR:68>  (199) 
0.0

>  <hbond:ASP:122>  (199) 
0.0

>  <pistack:PHE:116>  (199) 
0.0

>  <hydroph_interaction:VAL:154>  (199) 
0.0

>  <hydroph_interaction:ASP:75>  (199) 
0.0

>  <hbond:GLY:121>  (199) 
0.0

>  <hydroph_interaction:ASN:152>  (199) 
0.0

>  <halogenbond:ILE:165>  (199) 
0.0

$$$$
PV-002939763958-x0214S1-Z198195906S6
     RDKit          3D

 21 20  0  0  0  0  0  0  0  0999 V2000
  -11.8340  -11.3200   -8.1390 C   0  0  0  0  0  0  0  0  0  0  0  0
  -11.4610  -10.1150   -7.2950 C   0  0  1  0  0  0  0  0  0  0  0  0
  -10.1030  -10.2330   -6.8850 O   0  0  0  0  0  0  0  0  0  0  0  0
  -11.6450   -8.7750   -8.0020 C   0  0  0  0  0  0  0  0  0  0  0  0
  -10.3140   -8.0730   -8.2590 C   0  0  0  0  0  0  0  0  0  0  0  0
  -10.4800   -6.6760   -8.5900 N   0  0  0  0  0  0  0  0  0  0  0  0
  -11.0050   -6.2440   -9.7670 C   0  0  0  0  0  0  0  0  0  0  0  0
  -10.1840   -5.3480  -10.3570 N   0  0  0  0  0  0  0  0  0  0  0  0
  -12.0700   -6.5790  -10.2560 O   0  0  0  0  0  0  0  0  0  0  0  0
  -10.9820  -11.9790   -8.3050 H   0  0  0  0  0  0  0  0  0  0  0  0
  -12.6090  -11.9020   -7.6310 H   0  0  0  0  0  0  0  0  0  0  0  0
  -12.2690  -11.0300   -9.0990 H   0  0  0  0  0  0  0  0  0  0  0  0
  -12.0830  -10.1290   -6.3900 H   0  0  0  0  0  0  0  0  0  0  0  0
   -9.8060  -11.1350   -7.1080 H   0  0  0  0  0  0  0  0  0  0  0  0
  -12.1460   -8.9360   -8.9640 H   0  0  0  0  0  0  0  0  0  0  0  0
  -12.3030   -8.1330   -7.4050 H   0  0  0  0  0  0  0  0  0  0  0  0
   -9.6800   -8.1050   -7.3650 H   0  0  0  0  0  0  0  0  0  0  0  0
   -9.7660   -8.5420   -9.0760 H   0  0  0  0  0  0  0  0  0  0  0  0
  -10.5340   -6.0160   -7.8250 H   0  0  0  0  0  0  0  0  0  0  0  0
  -10.4180   -5.1110  -11.3110 H   0  0  0  0  0  0  0  0  0  0  0  0
  -10.0220   -4.5370   -9.7710 H   0  0  0  0  0  0  0  0  0  0  0  0
  1  2  1  0
  2  3  1  0
  2  4  1  0
  4  5  1  0
  5  6  1  0
  6  7  1  0
  7  8  1  0
  7  9  2  0
  1 10  1  0
  1 11  1  0
  1 12  1  0
  2 13  1  6
  3 14  1  0
  4 15  1  0
  4 16  1  0
  5 17  1  0
  5 18  1  0
  6 19  1  0
  8 20  1  0
  8 21  1  0
A    1
 C1 
A    2
 C2 
A    3
 O1 
A    4
 C3 
A    5
 C4 
A    6
 N1 
A    7
 C5 
A    8
 N2 
A    9
 O2 
A   10
 H1 
A   11
 H2 
A   12
 H3 
A   13
 H4 
A   14
 H5 
A   15
 H6 
A   16
 H7 
A   17
 H8 
A   18
 H9 
A   19
 H10
A   20
 H11
A   21
 H12
M  END
>  <ref_pdb>  (200) 
x0051_0B

>  <ref_mols>  (200) 
x0051_0B

>  <original SMILES>  (200) 
[H]O[C@@]([H])(C([H])([H])[H])C([H])([H])C([H])([H])N([H])C(=O)N([H])[H]

>  <index>  (200) 
8059.0

>  <∆∆G>  (200) 
-1.829267

>  <comRMSD>  (200) 
0.788661

>  <N_constrained_atoms>  (200) 
9.0

>  <N_unconstrained_atoms>  (200) 
1.0

>  <LE>  (200) 
0.182927

>  <percent_hybrid>  (200) 
45.0

>  <largest_ring>  (200) 
0.0

>  <N_HA>  (200) 
9.0

>  <N_rotatable_bonds>  (200) 
5.0

>  <max_hit_Tanimoto>  (200) 
0.225

>  <N_interactions_kept>  (200) 
0.0

>  <N_interactions_lost>  (200) 
0.0

>  <interaction_uniqueness_metric>  (200) 
0.033159

>  <N_interactions>  (200) 
2.0

>  <N_PAINS>  (200) 
0.0

>  <UFF_Gibbs>  (200) 
58.87039

>  <strain_per_HA>  (200) 
6.541082

>  <ad_hoc_penalty>  (200) 
-2.675976

>  <cluster>  (200) 
605.0

>  <intxn_cluster>  (200) 
9.0

>  <keep>  (200) 
1.0

>  <hydroph_interaction:GLN:74>  (200) 
0.0

>  <hydroph_interaction:THR:118>  (200) 
0.0

>  <hydroph_interaction:ILE:123>  (200) 
0.0

>  <hydroph_interaction:THR:166>  (200) 
0.0

>  <hbond:GLN:167>  (200) 
0.0

>  <hydroph_interaction:ALA:88>  (200) 
0.0

>  <hydroph_interaction:ASP:120>  (200) 
0.0

>  <hydroph_interaction:GLN:167>  (200) 
0.0

>  <hbond:THR:118>  (200) 
2.0

>  <hydroph_interaction:ALA:164>  (200) 
0.0

>  <hbond:ASP:120>  (200) 
0.0

>  <hbond:THR:166>  (200) 
0.0

>  <hydroph_interaction:LEU:76>  (200) 
0.0

>  <hbond:ILE:165>  (200) 
0.0

>  <halogenbond:GLN:74>  (200) 
0.0

>  <hbond:GLN:74>  (200) 
0.0

>  <hbond:LYS:73>  (200) 
0.0

>  <pistack:TRP:69>  (200) 
0.0

>  <hbond:TRP:83>  (200) 
0.0

>  <hydroph_interaction:TRP:83>  (200) 
0.0

>  <hydroph_interaction:TRP:69>  (200) 
0.0

>  <pication:TRP:69>  (200) 
0.0

>  <hydroph_interaction:PRO:82>  (200) 
0.0

>  <halogenbond:LYS:73>  (200) 
0.0

>  <hydroph_interaction:TYR:68>  (200) 
0.0

>  <halogenbond:GLN:167>  (200) 
0.0

>  <hydroph_interaction:PHE:116>  (200) 
0.0

>  <hbond:TYR:68>  (200) 
0.0

>  <hbond:ASP:122>  (200) 
0.0

>  <pistack:PHE:116>  (200) 
0.0

>  <hydroph_interaction:VAL:154>  (200) 
0.0

>  <hydroph_interaction:ASP:75>  (200) 
0.0

>  <hbond:GLY:121>  (200) 
0.0

>  <hydroph_interaction:ASN:152>  (200) 
0.0

>  <halogenbond:ILE:165>  (200) 
0.0

$$$$
