ver_1.2
     RDKit          3D

 14 15  0  0  0  0  0  0  0  0999 V2000
    3.0286    1.5015   -0.1127 C   0  0  0  0  0  0  0  0  0  0  0  0
    2.2018    0.3256   -0.0699 N   0  0  0  0  0  0  0  0  0  0  0  0
    2.6332   -0.9379   -0.0628 C   0  0  0  0  0  0  0  0  0  0  0  0
    1.5895   -1.7853   -0.0188 N   0  0  0  0  0  0  0  0  0  0  0  0
    0.4586   -1.0283    0.0026 C   0  0  0  0  0  0  0  0  0  0  0  0
    0.8619    0.3129   -0.0303 C   0  0  0  0  0  0  0  0  0  0  0  0
   -0.1366    1.2477   -0.0155 C   0  0  0  0  0  0  0  0  0  0  0  0
    0.2041    2.4631   -0.0446 O   0  0  0  0  0  0  0  0  0  0  0  0
   -1.4590    0.9489    0.0281 N   0  0  0  0  0  0  0  0  0  0  0  0
   -1.8029   -0.3496    0.0585 C   0  0  0  0  0  0  0  0  0  0  0  0
   -3.0094   -0.6985    0.0995 O   0  0  0  0  0  0  0  0  0  0  0  0
   -0.8645   -1.3053    0.0459 N   0  0  0  0  0  0  0  0  0  0  0  0
   -1.2562   -2.7029    0.0793 C   0  0  0  0  0  0  0  0  0  0  0  0
   -2.4490    2.0080    0.0406 C   0  0  0  0  0  0  0  0  0  0  0  0
  1  2  1  0
  2  3  1  0
  3  4  2  0
  4  5  1  0
  5  6  2  0
  6  7  1  0
  7  8  2  0
  7  9  1  0
  9 10  1  0
 10 11  2  0
 10 12  1  0
 12 13  1  0
  9 14  1  0
  6  2  1  0
 12  5  1  0
M  END
>  <ref_url>  (1) 
https://github.com/matteoferla/Fragment-hit-follow-up-chemistry

>  <submitter_name>  (1) 
Matteo Ferla

>  <submitter_email>  (1) 
matteo.ferla@stats.ox.ac.uk

>  <submitter_institution>  (1) 
Nowehere

>  <generation_date>  (1) 
2023-08-21

>  <method>  (1) 
Fragmenstein-no_curation-intxn-NSP2B

>  <index>  (1) 
index

>  <∆∆G>  (1) 
∆∆G

>  <∆G_bound>  (1) 
∆G_bound

>  <∆G_unbound>  (1) 
∆G_unbound

>  <comRMSD>  (1) 
comRMSD

>  <N_constrained_atoms>  (1) 
N_constrained_atoms

>  <N_unconstrained_atoms>  (1) 
N_unconstrained_atoms

>  <runtime>  (1) 
runtime

>  <LE>  (1) 
LE

>  <percent_hybrid>  (1) 
percent_hybrid

>  <dist>  (1) 
dist

>  <ecfp4>  (1) 
ecfp4

>  <daylight>  (1) 
daylight

>  <topodist>  (1) 
topodist

>  <mces>  (1) 
mces

>  <tdn>  (1) 
tdn

>  <tup>  (1) 
tup

>  <rdn>  (1) 
rdn

>  <rup>  (1) 
rup

>  <ldn>  (1) 
ldn

>  <lup>  (1) 
lup

>  <mut>  (1) 
mut

>  <maj>  (1) 
maj

>  <min>  (1) 
min

>  <hyb>  (1) 
hyb

>  <sub>  (1) 
sub

>  <query_index>  (1) 
query_index

>  <max_hit_Tanimoto>  (1) 
max_hit_Tanimoto

>  <largest_ring>  (1) 
largest_ring

>  <N_interactions_kept>  (1) 
N_interactions_kept

>  <N_interactions_lost>  (1) 
N_interactions_lost

>  <interaction_uniqueness_metric>  (1) 
interaction_uniqueness_metric

>  <ad_hoc_penalty>  (1) 
ad_hoc_penalty

>  <N_rotatable_bonds>  (1) 
N_rotatable_bonds

>  <N_HA>  (1) 
N_HA

>  <cluster>  (1) 
cluster

>  <N_interactions>  (1) 
N_interactions

>  <Enamine>  (1) 
Enamine

>  <Mcule>  (1) 
Mcule

>  <N_PAINS>  (1) 
N_PAINS

>  <UFF_Gibbs>  (1) 
UFF_Gibbs

>  <strain_per_HA>  (1) 
strain_per_HA

>  <intxn_scored>  (1) 
intxn_scored

>  <saltbridge:HIS:51>  (1) 
saltbridge:HIS:51

>  <pistack:HIS:51>  (1) 
pistack:HIS:51

>  <hydroph_interaction:HIS:51>  (1) 
hydroph_interaction:HIS:51

>  <hbond:ALA:132>  (1) 
hbond:ALA:132

>  <hbond:SER:135>  (1) 
hbond:SER:135

>  <hydroph_interaction:TYR:150>  (1) 
hydroph_interaction:TYR:150

>  <pistack:TYR:161>  (1) 
pistack:TYR:161

>  <hydroph_interaction:TYR:161>  (1) 
hydroph_interaction:TYR:161

>  <hydroph_interaction:ASP:83>  (1) 
hydroph_interaction:ASP:83

>  <hbond:TYR:130>  (1) 
hbond:TYR:130

>  <hydroph_interaction:ALA:132>  (1) 
hydroph_interaction:ALA:132

>  <hbond:HIS:51>  (1) 
hbond:HIS:51

>  <hbond:ASP:129>  (1) 
hbond:ASP:129

>  <hbond:TYR:150>  (1) 
hbond:TYR:150

>  <hbond:GLY:151>  (1) 
hbond:GLY:151

>  <hbond:TYR:161>  (1) 
hbond:TYR:161

>  <hydroph_interaction:TYR:130>  (1) 
hydroph_interaction:TYR:130

>  <hydroph_interaction:PRO:131>  (1) 
hydroph_interaction:PRO:131

>  <hydroph_interaction:ASP:129>  (1) 
hydroph_interaction:ASP:129

>  <saltbridge:ASP:75>  (1) 
saltbridge:ASP:75

>  <saltbridge:ASP:83>  (1) 
saltbridge:ASP:83

>  <hbond:ASN:152>  (1) 
hbond:ASN:152

>  <hydroph_interaction:ASN:152>  (1) 
hydroph_interaction:ASN:152

>  <halogenbond:TYR:150>  (1) 
halogenbond:TYR:150

>  <hbond:ASP:83>  (1) 
hbond:ASP:83

>  <hydroph_interaction:VAL:155>  (1) 
hydroph_interaction:VAL:155

>  <pication:TYR:161>  (1) 
pication:TYR:161

>  <hbond:PRO:131>  (1) 
hbond:PRO:131

>  <saltbridge:ASP:129>  (1) 
saltbridge:ASP:129

>  <hbond:THR:134>  (1) 
hbond:THR:134

>  <pication:HIS:51>  (1) 
pication:HIS:51

>  <hbond:SER:81>  (1) 
hbond:SER:81

>  <hydroph_interaction:THR:134>  (1) 
hydroph_interaction:THR:134

>  <hydroph_interaction:MET:49>  (1) 
hydroph_interaction:MET:49

$$$$
Z2207210447
     RDKit          3D

 31 33  0  0  0  0  0  0  0  0999 V2000
   -8.6240    4.3270   -9.1580 C   0  0  0  0  0  0  0  0  0  0  0  0
   -8.7380    4.9590  -10.4700 N   0  0  0  0  0  0  0  0  0  0  0  0
   -8.6720    4.1750  -11.6900 C   0  0  0  0  0  0  0  0  0  0  0  0
   -8.8240    5.1710  -12.7760 C   0  0  0  0  0  0  0  0  0  0  0  0
   -8.8060    4.7960  -14.2040 N   0  0  0  0  0  0  0  0  0  0  0  0
   -8.2360    5.6080  -15.1510 C   0  0  0  0  0  0  0  0  0  0  0  0
   -7.5380    6.5840  -14.9060 O   0  0  0  0  0  0  0  0  0  0  0  0
   -8.5000    5.2870  -16.5700 C   0  0  0  0  0  0  0  0  0  0  0  0
   -9.7840    4.8670  -16.8940 C   0  0  0  0  0  0  0  0  0  0  0  0
  -10.1410    4.5630  -18.2150 C   0  0  0  0  0  0  0  0  0  0  0  0
   -9.2030    4.6590  -19.2310 C   0  0  0  0  0  0  0  0  0  0  0  0
   -7.9320    5.0620  -18.8810 C   0  0  0  0  0  0  0  0  0  0  0  0
   -7.5630    5.3780  -17.5970 C   0  0  0  0  0  0  0  0  0  0  0  0
   -6.2400    5.7250  -17.7340 N   0  0  0  0  0  0  0  0  0  0  0  0
   -5.3310    6.1560  -16.6690 C   0  0  0  0  0  0  0  0  0  0  0  0
   -5.8660    5.6070  -19.0620 C   0  0  0  0  0  0  0  0  0  0  0  0
   -6.8450    5.2010  -19.8400 N   0  0  0  0  0  0  0  0  0  0  0  0
   -8.9660    6.4110  -12.1890 N   0  0  0  0  0  0  0  0  0  0  0  0
   -8.9090    6.2710  -10.7700 N   0  0  0  0  0  0  0  0  0  0  0  0
   -9.3480    4.7230   -8.4430 H   0  0  0  0  0  0  0  0  0  0  0  0
   -8.8010    3.2480   -9.2390 H   0  0  0  0  0  0  0  0  0  0  0  0
   -7.6260    4.4840   -8.7370 H   0  0  0  0  0  0  0  0  0  0  0  0
   -8.5390    3.0920  -11.8090 H   0  0  0  0  0  0  0  0  0  0  0  0
   -9.2600    3.9200  -14.4540 H   0  0  0  0  0  0  0  0  0  0  0  0
  -10.5120    4.7790  -16.1070 H   0  0  0  0  0  0  0  0  0  0  0  0
  -11.1690    4.2530  -18.4000 H   0  0  0  0  0  0  0  0  0  0  0  0
   -9.4370    4.4250  -20.2650 H   0  0  0  0  0  0  0  0  0  0  0  0
   -5.6890    7.1100  -16.2760 H   0  0  0  0  0  0  0  0  0  0  0  0
   -5.3330    5.4090  -15.8690 H   0  0  0  0  0  0  0  0  0  0  0  0
   -4.3240    6.2340  -17.0710 H   0  0  0  0  0  0  0  0  0  0  0  0
   -4.8620    5.8240  -19.4020 H   0  0  0  0  0  0  0  0  0  0  0  0
  1  2  1  0
  2  3  1  0
  3  4  2  0
  4  5  1  0
  5  6  1  0
  6  7  2  0
  6  8  1  0
  8  9  2  0
  9 10  1  0
 10 11  2  0
 11 12  1  0
 12 13  2  0
 13 14  1  0
 14 15  1  0
 14 16  1  0
 16 17  2  0
  4 18  1  0
 18 19  2  0
 19  2  1  0
 13  8  1  0
 17 12  1  0
  1 20  1  0
  1 21  1  0
  1 22  1  0
  3 23  1  0
  5 24  1  0
  9 25  1  0
 10 26  1  0
 11 27  1  0
 15 28  1  0
 15 29  1  0
 15 30  1  0
 16 31  1  0
A    1
 C1 
A    2
 N1 
A    3
 C2 
A    4
 C3 
A    5
 N2 
A    6
 C4 
A    7
 O1 
A    8
 C5 
A    9
 C6 
A   10
 C7 
A   11
 C8 
A   12
 C9 
A   13
 C10
A   14
 N3 
A   15
 C11
A   16
 C12
A   17
 N4 
A   18
 N5 
A   19
 N6 
A   20
 H1 
A   21
 H2 
A   22
 H3 
A   23
 H4 
A   24
 H5 
A   25
 H6 
A   26
 H7 
A   27
 H8 
A   28
 H9 
A   29
 H10
A   30
 H11
A   31
 H12
M  END
>  <ref_pdb>  (1) 
x0051_0B

>  <ref_mols>  (1) 
x1098_0B,x0490_0B

>  <original SMILES>  (1) 
[H]c1c([H])c(C(=O)N([H])c2nnn(C([H])([H])[H])c2[H])c2c(nc([H])n2C([H])([H])[H])c1[H]

>  <index>  (1) 
1670

>  <∆∆G>  (1) 
-7.445364

>  <∆G_bound>  (1) 
-6.849932

>  <∆G_unbound>  (1) 
0.595432

>  <comRMSD>  (1) 
0.373245

>  <N_constrained_atoms>  (1) 
19.0

>  <N_unconstrained_atoms>  (1) 
0.0

>  <runtime>  (1) 
46.602339

>  <LE>  (1) 
0.391861

>  <percent_hybrid>  (1) 
10.0

>  <dist>  (1) 
4.0

>  <ecfp4>  (1) 
0.357143

>  <daylight>  (1) 
0.305439

>  <topodist>  (1) 
1.0

>  <mces>  (1) 
21.0

>  <tdn>  (1) 
1.0

>  <tup>  (1) 
0.0

>  <rdn>  (1) 
0.0

>  <rup>  (1) 
0.0

>  <ldn>  (1) 
0.0

>  <lup>  (1) 
0.0

>  <mut>  (1) 
1.0

>  <maj>  (1) 
1.0

>  <min>  (1) 
0.0

>  <hyb>  (1) 
2.0

>  <sub>  (1) 
1.0

>  <query_index>  (1) 
69.0

>  <max_hit_Tanimoto>  (1) 
0.344106

>  <largest_ring>  (1) 
6

>  <N_interactions_kept>  (1) 
1.0

>  <N_interactions_lost>  (1) 
5.0

>  <interaction_uniqueness_metric>  (1) 
0.457012

>  <ad_hoc_penalty>  (1) 
-15.530021

>  <N_rotatable_bonds>  (1) 
4

>  <N_HA>  (1) 
19

>  <cluster>  (1) 
4687

>  <N_interactions>  (1) 
9

>  <Enamine>  (1) 
1

>  <Mcule>  (1) 
0

>  <N_PAINS>  (1) 
0

>  <UFF_Gibbs>  (1) 
58.718048

>  <strain_per_HA>  (1) 
3.090424

>  <intxn_scored>  (1) 
16.0

>  <saltbridge:HIS:51>  (1) 
0

>  <pistack:HIS:51>  (1) 
1

>  <hydroph_interaction:HIS:51>  (1) 
0

>  <hbond:ALA:132>  (1) 
0

>  <hbond:SER:135>  (1) 
0

>  <hydroph_interaction:TYR:150>  (1) 
1

>  <pistack:TYR:161>  (1) 
2

>  <hydroph_interaction:TYR:161>  (1) 
0

>  <hydroph_interaction:ASP:83>  (1) 
0

>  <hbond:TYR:130>  (1) 
0

>  <hydroph_interaction:ALA:132>  (1) 
1

>  <hbond:HIS:51>  (1) 
0

>  <hbond:ASP:129>  (1) 
0

>  <hbond:TYR:150>  (1) 
0

>  <hbond:GLY:151>  (1) 
1

>  <hbond:TYR:161>  (1) 
1

>  <hydroph_interaction:TYR:130>  (1) 
0

>  <hydroph_interaction:PRO:131>  (1) 
0

>  <hydroph_interaction:ASP:129>  (1) 
0

>  <saltbridge:ASP:75>  (1) 
0

>  <saltbridge:ASP:83>  (1) 
1

>  <hbond:ASN:152>  (1) 
0

>  <hydroph_interaction:ASN:152>  (1) 
0

>  <halogenbond:TYR:150>  (1) 
0

>  <hbond:ASP:83>  (1) 
0

>  <hydroph_interaction:VAL:155>  (1) 
0

>  <pication:TYR:161>  (1) 
0

>  <hbond:PRO:131>  (1) 
0

>  <saltbridge:ASP:129>  (1) 
0

>  <hbond:THR:134>  (1) 
0

>  <pication:HIS:51>  (1) 
1

>  <hbond:SER:81>  (1) 
0

>  <hydroph_interaction:THR:134>  (1) 
0

>  <hydroph_interaction:MET:49>  (1) 
0

$$$$
CSSS00047977676
     RDKit          3D

 38 41  0  0  0  0  0  0  0  0999 V2000
   -8.6480    5.3260   -8.2160 C   0  0  0  0  0  0  0  0  0  0  0  0
   -8.7080    5.1920   -9.7060 C   0  0  0  0  0  0  0  0  0  0  0  0
   -8.6940    3.9370  -10.3090 C   0  0  0  0  0  0  0  0  0  0  0  0
   -8.7490    3.8290  -11.6940 C   0  0  0  0  0  0  0  0  0  0  0  0
   -8.8190    4.9870  -12.4470 C   0  0  0  0  0  0  0  0  0  0  0  0
   -8.8690    4.9370  -13.8450 N   0  0  0  0  0  0  0  0  0  0  0  0
   -8.1890    5.7960  -14.6770 C   0  0  0  0  0  0  0  0  0  0  0  0
   -7.5570    6.7810  -14.3290 O   0  0  0  0  0  0  0  0  0  0  0  0
   -8.3000    5.4200  -16.1270 C   0  0  0  0  0  0  0  0  0  0  0  0
   -9.7220    5.0040  -16.4920 C   0  0  0  0  0  0  0  0  0  0  0  0
   -9.9500    4.6180  -17.9470 C   0  0  0  0  0  0  0  0  0  0  0  0
   -8.6770    4.7160  -18.7390 C   0  0  0  0  0  0  0  0  0  0  0  0
   -8.5440    4.4120  -20.0640 C   0  0  0  0  0  0  0  0  0  0  0  0
   -7.2310    4.6220  -20.4350 C   0  0  0  0  0  0  0  0  0  0  0  0
   -6.5750    5.0510  -19.3270 C   0  0  0  0  0  0  0  0  0  0  0  0
   -7.4740    5.1030  -18.2670 C   0  0  0  0  0  0  0  0  0  0  0  0
   -7.1920    5.4750  -16.9810 C   0  0  0  0  0  0  0  0  0  0  0  0
   -5.8530    5.8440  -16.7370 C   0  0  0  0  0  0  0  0  0  0  0  0
   -4.8640    5.7930  -17.8970 C   0  0  0  0  0  0  0  0  0  0  0  0
   -5.2590    5.3950  -19.1680 C   0  0  0  0  0  0  0  0  0  0  0  0
   -8.8380    6.2260  -11.9070 N   0  0  0  0  0  0  0  0  0  0  0  0
   -8.7820    6.2970  -10.5520 C   0  0  0  0  0  0  0  0  0  0  0  0
   -9.3670    4.6530   -7.7370 H   0  0  0  0  0  0  0  0  0  0  0  0
   -8.8940    6.3470   -7.9050 H   0  0  0  0  0  0  0  0  0  0  0  0
   -7.6430    5.0780   -7.8610 H   0  0  0  0  0  0  0  0  0  0  0  0
   -8.6400    3.0370   -9.7060 H   0  0  0  0  0  0  0  0  0  0  0  0
   -8.7370    2.8430  -12.1530 H   0  0  0  0  0  0  0  0  0  0  0  0
   -9.2680    4.0910  -14.2630 H   0  0  0  0  0  0  0  0  0  0  0  0
  -10.5150    4.9830  -15.7660 H   0  0  0  0  0  0  0  0  0  0  0  0
  -10.9080    4.3060  -18.3510 H   0  0  0  0  0  0  0  0  0  0  0  0
   -8.6410    3.3570  -20.0230 H   0  0  0  0  0  0  0  0  0  0  0  0
   -9.3370    4.7430  -20.7250 H   0  0  0  0  0  0  0  0  0  0  0  0
   -6.8230    3.6830  -20.7870 H   0  0  0  0  0  0  0  0  0  0  0  0
   -7.0970    5.3240  -21.2180 H   0  0  0  0  0  0  0  0  0  0  0  0
   -5.5120    6.1590  -15.7540 H   0  0  0  0  0  0  0  0  0  0  0  0
   -3.8430    6.0920  -17.6370 H   0  0  0  0  0  0  0  0  0  0  0  0
   -4.5470    5.3590  -19.9980 H   0  0  0  0  0  0  0  0  0  0  0  0
   -8.7980    7.3090  -10.1550 H   0  0  0  0  0  0  0  0  0  0  0  0
  1  2  1  0
  2  3  2  0
  3  4  1  0
  4  5  2  0
  5  6  1  0
  6  7  1  0
  7  8  2  0
  7  9  1  0
  9 10  2  0
 10 11  1  0
 11 12  2  0
 12 13  1  0
 13 14  1  0
 14 15  1  0
 15 16  1  0
 16 17  2  0
 17 18  1  0
 18 19  2  0
 19 20  1  0
  5 21  1  0
 21 22  2  0
 22  2  1  0
 17  9  1  0
 16 12  1  0
 20 15  2  0
  1 23  1  0
  1 24  1  0
  1 25  1  0
  3 26  1  0
  4 27  1  0
  6 28  1  0
 10 29  1  0
 11 30  1  0
 13 31  1  0
 13 32  1  0
 14 33  1  0
 14 34  1  0
 18 35  1  0
 19 36  1  0
 20 37  1  0
 22 38  1  0
A    1
 C1 
A    2
 C2 
A    3
 C3 
A    4
 C4 
A    5
 C5 
A    6
 N1 
A    7
 C6 
A    8
 O1 
A    9
 C7 
A   10
 C8 
A   11
 C9 
A   12
 C10
A   13
 C11
A   14
 C12
A   15
 C13
A   16
 C14
A   17
 C15
A   18
 C16
A   19
 C17
A   20
 C18
A   21
 N2 
A   22
 C19
A   23
 H1 
A   24
 H2 
A   25
 H3 
A   26
 H4 
A   27
 H5 
A   28
 H6 
A   29
 H7 
A   30
 H8 
A   31
 H9 
A   32
 H10
A   33
 H11
A   34
 H12
A   35
 H13
A   36
 H14
A   37
 H15
A   38
 H16
M  END
>  <ref_pdb>  (2) 
x0051_0B

>  <ref_mols>  (2) 
x1098_0B,x0490_0B

>  <original SMILES>  (2) 
[H]c1nc(N([H])C(=O)c2c([H])c([H])c3c4c(c([H])c([H])c([H])c24)C([H])([H])C3([H])[H])c([H])c([H])c1C([H])([H])[H]

>  <index>  (2) 
1485

>  <∆∆G>  (2) 
-8.25618

>  <∆G_bound>  (2) 
-7.919776

>  <∆G_unbound>  (2) 
0.336404

>  <comRMSD>  (2) 
0.81824

>  <N_constrained_atoms>  (2) 
21.0

>  <N_unconstrained_atoms>  (2) 
3.0

>  <runtime>  (2) 
77.683093

>  <LE>  (2) 
0.344007

>  <percent_hybrid>  (2) 
24.0

>  <dist>  (2) 
9.0

>  <ecfp4>  (2) 
0.177215

>  <daylight>  (2) 
0.261682

>  <topodist>  (2) 
3.0

>  <mces>  (2) 
22.0

>  <tdn>  (2) 
0.0

>  <tup>  (2) 
0.0

>  <rdn>  (2) 
0.0

>  <rup>  (2) 
1.0

>  <ldn>  (2) 
0.0

>  <lup>  (2) 
2.0

>  <mut>  (2) 
5.0

>  <maj>  (2) 
5.0

>  <min>  (2) 
0.0

>  <hyb>  (2) 
1.0

>  <sub>  (2) 
0.0

>  <query_index>  (2) 
69.0

>  <max_hit_Tanimoto>  (2) 
0.322618

>  <largest_ring>  (2) 
6

>  <N_interactions_kept>  (2) 
2.0

>  <N_interactions_lost>  (2) 
4.0

>  <interaction_uniqueness_metric>  (2) 
0.135235

>  <ad_hoc_penalty>  (2) 
-12.119469

>  <N_rotatable_bonds>  (2) 
3

>  <N_HA>  (2) 
22

>  <cluster>  (2) 
4855

>  <N_interactions>  (2) 
7

>  <Enamine>  (2) 
1

>  <Mcule>  (2) 
0

>  <N_PAINS>  (2) 
0

>  <UFF_Gibbs>  (2) 
96.280566

>  <strain_per_HA>  (2) 
4.376389

>  <intxn_scored>  (2) 
15.5

>  <saltbridge:HIS:51>  (2) 
0

>  <pistack:HIS:51>  (2) 
1

>  <hydroph_interaction:HIS:51>  (2) 
1

>  <hbond:ALA:132>  (2) 
0

>  <hbond:SER:135>  (2) 
0

>  <hydroph_interaction:TYR:150>  (2) 
0

>  <pistack:TYR:161>  (2) 
3

>  <hydroph_interaction:TYR:161>  (2) 
1

>  <hydroph_interaction:ASP:83>  (2) 
0

>  <hbond:TYR:130>  (2) 
0

>  <hydroph_interaction:ALA:132>  (2) 
0

>  <hbond:HIS:51>  (2) 
0

>  <hbond:ASP:129>  (2) 
0

>  <hbond:TYR:150>  (2) 
0

>  <hbond:GLY:151>  (2) 
1

>  <hbond:TYR:161>  (2) 
0

>  <hydroph_interaction:TYR:130>  (2) 
0

>  <hydroph_interaction:PRO:131>  (2) 
0

>  <hydroph_interaction:ASP:129>  (2) 
0

>  <saltbridge:ASP:75>  (2) 
0

>  <saltbridge:ASP:83>  (2) 
0

>  <hbond:ASN:152>  (2) 
0

>  <hydroph_interaction:ASN:152>  (2) 
0

>  <halogenbond:TYR:150>  (2) 
0

>  <hbond:ASP:83>  (2) 
0

>  <hydroph_interaction:VAL:155>  (2) 
0

>  <pication:TYR:161>  (2) 
0

>  <hbond:PRO:131>  (2) 
0

>  <saltbridge:ASP:129>  (2) 
0

>  <hbond:THR:134>  (2) 
0

>  <pication:HIS:51>  (2) 
0

>  <hbond:SER:81>  (2) 
0

>  <hydroph_interaction:THR:134>  (2) 
0

>  <hydroph_interaction:MET:49>  (2) 
0

$$$$
Z2187849904
     RDKit          3D

 30 32  0  0  0  0  0  0  0  0999 V2000
   -8.5140    4.6010   -9.1550 C   0  0  0  0  0  0  0  0  0  0  0  0
   -8.6610    5.0700  -10.5210 N   0  0  0  0  0  0  0  0  0  0  0  0
   -8.6450    4.1560  -11.6480 C   0  0  0  0  0  0  0  0  0  0  0  0
   -8.8190    5.0420  -12.8650 C   0  0  0  0  0  0  0  0  0  0  0  0
   -8.8810    4.8040  -14.2260 N   0  0  0  0  0  0  0  0  0  0  0  0
   -8.1930    5.5500  -15.1570 C   0  0  0  0  0  0  0  0  0  0  0  0
   -7.2390    6.5910  -14.8670 O   0  0  0  0  0  0  0  0  0  0  0  0
   -8.4830    5.2810  -16.5020 C   0  0  0  0  0  0  0  0  0  0  0  0
   -9.7610    4.8730  -16.8280 C   0  0  0  0  0  0  0  0  0  0  0  0
  -10.1290    4.6060  -18.1490 C   0  0  0  0  0  0  0  0  0  0  0  0
   -9.1970    4.7400  -19.1740 C   0  0  0  0  0  0  0  0  0  0  0  0
   -7.9070    5.1420  -18.8780 C   0  0  0  0  0  0  0  0  0  0  0  0
   -7.5510    5.4100  -17.5540 C   0  0  0  0  0  0  0  0  0  0  0  0
   -6.2360    5.7670  -17.6750 N   0  0  0  0  0  0  0  0  0  0  0  0
   -5.3160    6.1580  -16.6480 C   0  0  0  0  0  0  0  0  0  0  0  0
   -5.8150    5.7220  -18.9530 N   0  0  0  0  0  0  0  0  0  0  0  0
   -6.8380    5.3390  -19.7010 N   0  0  0  0  0  0  0  0  0  0  0  0
   -8.9180    6.3240  -12.3320 N   0  0  0  0  0  0  0  0  0  0  0  0
   -8.8230    6.3330  -10.9650 N   0  0  0  0  0  0  0  0  0  0  0  0
   -7.4680    4.6460   -8.8340 H   0  0  0  0  0  0  0  0  0  0  0  0
   -9.0760    5.2590   -8.4860 H   0  0  0  0  0  0  0  0  0  0  0  0
   -8.8840    3.5790   -9.0250 H   0  0  0  0  0  0  0  0  0  0  0  0
   -8.5400    3.0710  -11.7680 H   0  0  0  0  0  0  0  0  0  0  0  0
   -9.3080    3.9200  -14.4900 H   0  0  0  0  0  0  0  0  0  0  0  0
  -10.4800    4.7640  -16.0300 H   0  0  0  0  0  0  0  0  0  0  0  0
  -11.1440    4.2930  -18.3770 H   0  0  0  0  0  0  0  0  0  0  0  0
   -9.4620    4.5380  -20.2110 H   0  0  0  0  0  0  0  0  0  0  0  0
   -5.5790    7.1650  -16.3170 H   0  0  0  0  0  0  0  0  0  0  0  0
   -4.3030    6.1520  -17.0560 H   0  0  0  0  0  0  0  0  0  0  0  0
   -5.3700    5.4450  -15.8280 H   0  0  0  0  0  0  0  0  0  0  0  0
  1  2  1  0
  2  3  1  0
  3  4  2  0
  4  5  1  0
  5  6  1  0
  6  7  2  0
  6  8  1  0
  8  9  2  0
  9 10  1  0
 10 11  2  0
 11 12  1  0
 12 13  2  0
 13 14  1  0
 14 15  1  0
 14 16  1  0
 16 17  2  0
  4 18  1  0
 18 19  2  0
 19  2  1  0
 13  8  1  0
 17 12  1  0
  1 20  1  0
  1 21  1  0
  1 22  1  0
  3 23  1  0
  5 24  1  0
  9 25  1  0
 10 26  1  0
 11 27  1  0
 15 28  1  0
 15 29  1  0
 15 30  1  0
A    1
 C1 
A    2
 N1 
A    3
 C2 
A    4
 C3 
A    5
 N2 
A    6
 C4 
A    7
 O1 
A    8
 C5 
A    9
 C6 
A   10
 C7 
A   11
 C8 
A   12
 C9 
A   13
 C10
A   14
 N3 
A   15
 C11
A   16
 N4 
A   17
 N5 
A   18
 N6 
A   19
 N7 
A   20
 H1 
A   21
 H2 
A   22
 H3 
A   23
 H4 
A   24
 H5 
A   25
 H6 
A   26
 H7 
A   27
 H8 
A   28
 H9 
A   29
 H10
A   30
 H11
M  END
>  <ref_pdb>  (3) 
x0051_0B

>  <ref_mols>  (3) 
x1098_0B,x0490_0B

>  <original SMILES>  (3) 
[H]c1c([H])c(C(=O)N([H])c2nnn(C([H])([H])[H])c2[H])c2c(nnn2C([H])([H])[H])c1[H]

>  <index>  (3) 
2485

>  <∆∆G>  (3) 
-7.69425

>  <∆G_bound>  (3) 
-7.106521

>  <∆G_unbound>  (3) 
0.587729

>  <comRMSD>  (3) 
0.383552

>  <N_constrained_atoms>  (3) 
19.0

>  <N_unconstrained_atoms>  (3) 
0.0

>  <runtime>  (3) 
55.629268

>  <LE>  (3) 
0.404961

>  <percent_hybrid>  (3) 
10.0

>  <dist>  (3) 
4.0

>  <ecfp4>  (3) 
0.362319

>  <daylight>  (3) 
0.316017

>  <topodist>  (3) 
1.0

>  <mces>  (3) 
21.0

>  <tdn>  (3) 
1.0

>  <tup>  (3) 
0.0

>  <rdn>  (3) 
0.0

>  <rup>  (3) 
0.0

>  <ldn>  (3) 
0.0

>  <lup>  (3) 
0.0

>  <mut>  (3) 
2.0

>  <maj>  (3) 
2.0

>  <min>  (3) 
0.0

>  <hyb>  (3) 
1.0

>  <sub>  (3) 
1.0

>  <query_index>  (3) 
69.0

>  <max_hit_Tanimoto>  (3) 
0.3174

>  <largest_ring>  (3) 
6

>  <N_interactions_kept>  (3) 
1.0

>  <N_interactions_lost>  (3) 
5.0

>  <interaction_uniqueness_metric>  (3) 
0.435038

>  <ad_hoc_penalty>  (3) 
-9.538849

>  <N_rotatable_bonds>  (3) 
4

>  <N_HA>  (3) 
19

>  <cluster>  (3) 
3932

>  <N_interactions>  (3) 
8

>  <Enamine>  (3) 
1

>  <Mcule>  (3) 
0

>  <N_PAINS>  (3) 
0

>  <UFF_Gibbs>  (3) 
82.879255

>  <strain_per_HA>  (3) 
4.362066

>  <intxn_scored>  (3) 
15.5

>  <saltbridge:HIS:51>  (3) 
0

>  <pistack:HIS:51>  (3) 
1

>  <hydroph_interaction:HIS:51>  (3) 
0

>  <hbond:ALA:132>  (3) 
0

>  <hbond:SER:135>  (3) 
0

>  <hydroph_interaction:TYR:150>  (3) 
1

>  <pistack:TYR:161>  (3) 
2

>  <hydroph_interaction:TYR:161>  (3) 
0

>  <hydroph_interaction:ASP:83>  (3) 
0

>  <hbond:TYR:130>  (3) 
0

>  <hydroph_interaction:ALA:132>  (3) 
0

>  <hbond:HIS:51>  (3) 
0

>  <hbond:ASP:129>  (3) 
0

>  <hbond:TYR:150>  (3) 
0

>  <hbond:GLY:151>  (3) 
1

>  <hbond:TYR:161>  (3) 
1

>  <hydroph_interaction:TYR:130>  (3) 
0

>  <hydroph_interaction:PRO:131>  (3) 
0

>  <hydroph_interaction:ASP:129>  (3) 
0

>  <saltbridge:ASP:75>  (3) 
0

>  <saltbridge:ASP:83>  (3) 
1

>  <hbond:ASN:152>  (3) 
0

>  <hydroph_interaction:ASN:152>  (3) 
0

>  <halogenbond:TYR:150>  (3) 
0

>  <hbond:ASP:83>  (3) 
0

>  <hydroph_interaction:VAL:155>  (3) 
0

>  <pication:TYR:161>  (3) 
0

>  <hbond:PRO:131>  (3) 
0

>  <saltbridge:ASP:129>  (3) 
0

>  <hbond:THR:134>  (3) 
0

>  <pication:HIS:51>  (3) 
1

>  <hbond:SER:81>  (3) 
0

>  <hydroph_interaction:THR:134>  (3) 
0

>  <hydroph_interaction:MET:49>  (3) 
0

$$$$
PV-005754332399
     RDKit          3D

 31 33  0  0  0  0  0  0  0  0999 V2000
   -8.3560    4.7440   -9.1980 C   0  0  0  0  0  0  0  0  0  0  0  0
   -8.5120    5.0220  -10.6140 N   0  0  0  0  0  0  0  0  0  0  0  0
   -9.0520    6.1960  -10.9970 N   0  0  0  0  0  0  0  0  0  0  0  0
   -9.0520    6.1270  -12.3390 C   0  0  0  0  0  0  0  0  0  0  0  0
   -8.5210    4.9400  -12.7900 C   0  0  0  0  0  0  0  0  0  0  0  0
   -8.3860    4.5990  -14.1220 N   0  0  0  0  0  0  0  0  0  0  0  0
   -8.1290    5.5900  -15.0510 C   0  0  0  0  0  0  0  0  0  0  0  0
   -7.6850    6.7030  -14.7900 O   0  0  0  0  0  0  0  0  0  0  0  0
   -8.4270    5.3000  -16.4940 C   0  0  0  0  0  0  0  0  0  0  0  0
   -9.7170    4.8790  -16.8170 C   0  0  0  0  0  0  0  0  0  0  0  0
  -10.1010    4.5990  -18.1380 C   0  0  0  0  0  0  0  0  0  0  0  0
   -9.1980    4.7230  -19.1850 C   0  0  0  0  0  0  0  0  0  0  0  0
   -7.9060    5.1340  -18.9070 C   0  0  0  0  0  0  0  0  0  0  0  0
   -7.5430    5.4150  -17.5890 C   0  0  0  0  0  0  0  0  0  0  0  0
   -6.1580    5.8220  -17.6050 C   0  0  0  0  0  0  0  0  0  0  0  0
   -5.3050    6.2140  -16.5790 C   0  0  0  0  0  0  0  0  0  0  0  0
   -4.5510    6.5410  -15.7580 N   0  0  0  0  0  0  0  0  0  0  0  0
   -5.7210    5.7550  -19.0440 C   0  0  0  0  0  0  0  0  0  0  0  0
   -6.8540    5.3300  -19.7350 N   0  0  0  0  0  0  0  0  0  0  0  0
   -8.1720    4.2270  -11.6720 C   0  0  0  0  0  0  0  0  0  0  0  0
   -7.3000    2.3350  -11.6270 I   0  0  0  0  0  0  0  0  0  0  0  0
   -8.8110    3.7740   -8.9820 H   0  0  0  0  0  0  0  0  0  0  0  0
   -7.2910    4.7170   -8.9470 H   0  0  0  0  0  0  0  0  0  0  0  0
   -8.8380    5.5070   -8.5800 H   0  0  0  0  0  0  0  0  0  0  0  0
   -9.4540    6.9840  -12.8890 H   0  0  0  0  0  0  0  0  0  0  0  0
   -7.9760    3.6700  -14.2860 H   0  0  0  0  0  0  0  0  0  0  0  0
  -10.4400    4.7670  -16.0200 H   0  0  0  0  0  0  0  0  0  0  0  0
  -11.1190    4.2810  -18.3450 H   0  0  0  0  0  0  0  0  0  0  0  0
   -9.4910    4.5060  -20.2060 H   0  0  0  0  0  0  0  0  0  0  0  0
   -4.7820    5.9620  -19.5430 H   0  0  0  0  0  0  0  0  0  0  0  0
   -6.8880    5.1840  -20.7350 H   0  0  0  0  0  0  0  0  0  0  0  0
  1  2  1  0
  2  3  1  0
  3  4  2  0
  4  5  1  0
  5  6  1  0
  6  7  1  0
  7  8  2  0
  7  9  1  0
  9 10  2  0
 10 11  1  0
 11 12  2  0
 12 13  1  0
 13 14  2  0
 14 15  1  0
 15 16  1  0
 16 17  3  0
 15 18  2  0
 18 19  1  0
  5 20  2  0
 20 21  1  0
 20  2  1  0
 14  9  1  0
 19 13  1  0
  1 22  1  0
  1 23  1  0
  1 24  1  0
  4 25  1  0
  6 26  1  0
 10 27  1  0
 11 28  1  0
 12 29  1  0
 18 30  1  0
 19 31  1  0
A    1
 C1 
A    2
 N1 
A    3
 N2 
A    4
 C2 
A    5
 C3 
A    6
 N3 
A    7
 C4 
A    8
 O1 
A    9
 C5 
A   10
 C6 
A   11
 C7 
A   12
 C8 
A   13
 C9 
A   14
 C10
A   15
 C11
A   16
 C12
A   17
 N4 
A   18
 C13
A   19
 N5 
A   20
 C14
A   21
 I1 
A   22
 H1 
A   23
 H2 
A   24
 H3 
A   25
 H4 
A   26
 H5 
A   27
 H6 
A   28
 H7 
A   29
 H8 
A   30
 H9 
A   31
 H10
M  END
>  <ref_pdb>  (4) 
x0051_0B

>  <ref_mols>  (4) 
x1098_0B,x0490_0B

>  <original SMILES>  (4) 
[H]c1nn(C([H])([H])[H])c(I)c1N([H])C(=O)c1c([H])c([H])c([H])c2c1c(C#N)c([H])n2[H]

>  <index>  (4) 
1558

>  <∆∆G>  (4) 
-7.976771

>  <∆G_bound>  (4) 
-6.032544

>  <∆G_unbound>  (4) 
1.944227

>  <comRMSD>  (4) 
0.37654

>  <N_constrained_atoms>  (4) 
19.0

>  <N_unconstrained_atoms>  (4) 
2.0

>  <runtime>  (4) 
54.478084

>  <LE>  (4) 
0.379846

>  <percent_hybrid>  (4) 
10.0

>  <dist>  (4) 
5.0

>  <ecfp4>  (4) 
0.303797

>  <daylight>  (4) 
0.380734

>  <topodist>  (4) 
1.0

>  <mces>  (4) 
22.0

>  <tdn>  (4) 
0.0

>  <tup>  (4) 
1.0

>  <rdn>  (4) 
0.0

>  <rup>  (4) 
0.0

>  <ldn>  (4) 
0.0

>  <lup>  (4) 
0.0

>  <mut>  (4) 
2.0

>  <maj>  (4) 
2.0

>  <min>  (4) 
0.0

>  <hyb>  (4) 
2.0

>  <sub>  (4) 
1.0

>  <query_index>  (4) 
69.0

>  <max_hit_Tanimoto>  (4) 
0.410359

>  <largest_ring>  (4) 
6

>  <N_interactions_kept>  (4) 
2.0

>  <N_interactions_lost>  (4) 
4.0

>  <interaction_uniqueness_metric>  (4) 
0.144123

>  <ad_hoc_penalty>  (4) 
-14.305175

>  <N_rotatable_bonds>  (4) 
3

>  <N_HA>  (4) 
21

>  <cluster>  (4) 
492

>  <N_interactions>  (4) 
7

>  <Enamine>  (4) 
1

>  <Mcule>  (4) 
0

>  <N_PAINS>  (4) 
0

>  <UFF_Gibbs>  (4) 
36.076914

>  <strain_per_HA>  (4) 
1.717948

>  <intxn_scored>  (4) 
15.0

>  <saltbridge:HIS:51>  (4) 
0

>  <pistack:HIS:51>  (4) 
1

>  <hydroph_interaction:HIS:51>  (4) 
0

>  <hbond:ALA:132>  (4) 
0

>  <hbond:SER:135>  (4) 
0

>  <hydroph_interaction:TYR:150>  (4) 
1

>  <pistack:TYR:161>  (4) 
2

>  <hydroph_interaction:TYR:161>  (4) 
0

>  <hydroph_interaction:ASP:83>  (4) 
0

>  <hbond:TYR:130>  (4) 
0

>  <hydroph_interaction:ALA:132>  (4) 
1

>  <hbond:HIS:51>  (4) 
0

>  <hbond:ASP:129>  (4) 
0

>  <hbond:TYR:150>  (4) 
0

>  <hbond:GLY:151>  (4) 
0

>  <hbond:TYR:161>  (4) 
2

>  <hydroph_interaction:TYR:130>  (4) 
0

>  <hydroph_interaction:PRO:131>  (4) 
0

>  <hydroph_interaction:ASP:129>  (4) 
0

>  <saltbridge:ASP:75>  (4) 
0

>  <saltbridge:ASP:83>  (4) 
0

>  <hbond:ASN:152>  (4) 
0

>  <hydroph_interaction:ASN:152>  (4) 
0

>  <halogenbond:TYR:150>  (4) 
0

>  <hbond:ASP:83>  (4) 
0

>  <hydroph_interaction:VAL:155>  (4) 
0

>  <pication:TYR:161>  (4) 
0

>  <hbond:PRO:131>  (4) 
0

>  <saltbridge:ASP:129>  (4) 
0

>  <hbond:THR:134>  (4) 
0

>  <pication:HIS:51>  (4) 
0

>  <hbond:SER:81>  (4) 
0

>  <hydroph_interaction:THR:134>  (4) 
0

>  <hydroph_interaction:MET:49>  (4) 
0

$$$$
Z2187866333
     RDKit          3D

 36 37  0  0  0  0  0  0  0  0999 V2000
   -2.9230    4.7490  -17.2040 C   0  0  0  0  0  0  0  0  0  0  0  0
   -3.8210    5.9330  -17.5000 C   0  0  0  0  0  0  0  0  0  0  0  0
   -5.0670    5.4860  -18.0390 O   0  0  0  0  0  0  0  0  0  0  0  0
   -5.1360    5.4410  -19.3880 C   0  0  0  0  0  0  0  0  0  0  0  0
   -4.1570    5.3820  -20.1190 O   0  0  0  0  0  0  0  0  0  0  0  0
   -6.5650    5.4850  -19.7700 N   0  0  0  0  0  0  0  0  0  0  0  0
   -7.6140    5.2670  -18.7550 C   0  0  0  0  0  0  0  0  0  0  0  0
   -8.9240    4.7500  -19.1810 C   0  0  0  0  0  0  0  0  0  0  0  0
   -9.8460    4.5840  -18.1530 C   0  0  0  0  0  0  0  0  0  0  0  0
   -9.6910    4.8350  -16.8040 C   0  0  0  0  0  0  0  0  0  0  0  0
   -8.4480    5.3240  -16.4380 C   0  0  0  0  0  0  0  0  0  0  0  0
   -8.2810    5.6010  -15.0730 C   0  0  0  0  0  0  0  0  0  0  0  0
   -7.4670    6.4650  -14.7720 O   0  0  0  0  0  0  0  0  0  0  0  0
   -9.0290    4.9060  -14.1520 N   0  0  0  0  0  0  0  0  0  0  0  0
   -8.9050    5.0640  -12.7870 C   0  0  0  0  0  0  0  0  0  0  0  0
   -8.7340    4.1490  -11.7460 C   0  0  0  0  0  0  0  0  0  0  0  0
   -8.6780    4.9400  -10.6380 N   0  0  0  0  0  0  0  0  0  0  0  0
   -8.5110    4.5440   -9.2670 C   0  0  0  0  0  0  0  0  0  0  0  0
   -8.8030    6.2400  -10.9450 N   0  0  0  0  0  0  0  0  0  0  0  0
   -8.9430    6.3270  -12.2600 N   0  0  0  0  0  0  0  0  0  0  0  0
   -7.4110    5.5430  -17.3820 C   0  0  0  0  0  0  0  0  0  0  0  0
   -3.2850    4.1630  -16.3570 H   0  0  0  0  0  0  0  0  0  0  0  0
   -2.8770    4.0960  -18.0720 H   0  0  0  0  0  0  0  0  0  0  0  0
   -1.9080    5.0660  -16.9780 H   0  0  0  0  0  0  0  0  0  0  0  0
   -3.3080    6.6380  -18.1640 H   0  0  0  0  0  0  0  0  0  0  0  0
   -4.0260    6.4920  -16.5830 H   0  0  0  0  0  0  0  0  0  0  0  0
   -6.7030    6.2480  -20.4300 H   0  0  0  0  0  0  0  0  0  0  0  0
   -9.1830    4.5090  -20.2190 H   0  0  0  0  0  0  0  0  0  0  0  0
  -10.8480    4.2090  -18.3750 H   0  0  0  0  0  0  0  0  0  0  0  0
  -10.4910    4.6600  -16.1000 H   0  0  0  0  0  0  0  0  0  0  0  0
   -9.3480    3.9890  -14.4780 H   0  0  0  0  0  0  0  0  0  0  0  0
   -8.6530    3.0730  -11.7080 H   0  0  0  0  0  0  0  0  0  0  0  0
   -8.8160    3.4970   -9.1440 H   0  0  0  0  0  0  0  0  0  0  0  0
   -7.4670    4.6550   -9.0030 H   0  0  0  0  0  0  0  0  0  0  0  0
   -9.1300    5.1900   -8.6460 H   0  0  0  0  0  0  0  0  0  0  0  0
   -6.4530    5.9300  -17.0400 H   0  0  0  0  0  0  0  0  0  0  0  0
  1  2  1  0
  2  3  1  0
  3  4  1  0
  4  5  2  0
  4  6  1  0
  6  7  1  0
  7  8  2  0
  8  9  1  0
  9 10  2  0
 10 11  1  0
 11 12  1  0
 12 13  2  0
 12 14  1  0
 14 15  1  0
 15 16  2  0
 16 17  1  0
 17 18  1  0
 17 19  1  0
 19 20  2  0
 11 21  2  0
 21  7  1  0
 20 15  1  0
  1 22  1  0
  1 23  1  0
  1 24  1  0
  2 25  1  0
  2 26  1  0
  6 27  1  0
  8 28  1  0
  9 29  1  0
 10 30  1  0
 14 31  1  0
 16 32  1  0
 18 33  1  0
 18 34  1  0
 18 35  1  0
 21 36  1  0
A    1
 C1 
A    2
 C2 
A    3
 O1 
A    4
 C3 
A    5
 O2 
A    6
 N1 
A    7
 C4 
A    8
 C5 
A    9
 C6 
A   10
 C7 
A   11
 C8 
A   12
 C9 
A   13
 O3 
A   14
 N2 
A   15
 C10
A   16
 C11
A   17
 N3 
A   18
 C12
A   19
 N4 
A   20
 N5 
A   21
 C13
A   22
 H1 
A   23
 H2 
A   24
 H3 
A   25
 H4 
A   26
 H5 
A   27
 H6 
A   28
 H7 
A   29
 H8 
A   30
 H9 
A   31
 H10
A   32
 H11
A   33
 H12
A   34
 H13
A   35
 H14
A   36
 H15
M  END
>  <ref_pdb>  (5) 
x0051_0B

>  <ref_mols>  (5) 
x0443_0B,x1098_0B

>  <original SMILES>  (5) 
[H]c1c([H])c(C(=O)N([H])c2nnn(C([H])([H])[H])c2[H])c([H])c(N([H])C(=O)OC([H])([H])C([H])([H])[H])c1[H]

>  <index>  (5) 
2616

>  <∆∆G>  (5) 
-8.143933

>  <∆G_bound>  (5) 
-7.552543

>  <∆G_unbound>  (5) 
0.591389

>  <comRMSD>  (5) 
0.784541

>  <N_constrained_atoms>  (5) 
19.0

>  <N_unconstrained_atoms>  (5) 
4.0

>  <runtime>  (5) 
63.634747

>  <LE>  (5) 
0.354084

>  <percent_hybrid>  (5) 
19.0

>  <dist>  (5) 
7.0

>  <ecfp4>  (5) 
0.261905

>  <daylight>  (5) 
0.348361

>  <topodist>  (5) 
2.0

>  <mces>  (5) 
22.0

>  <tdn>  (5) 
1.0

>  <tup>  (5) 
0.0

>  <rdn>  (5) 
1.0

>  <rup>  (5) 
0.0

>  <ldn>  (5) 
0.0

>  <lup>  (5) 
0.0

>  <mut>  (5) 
4.0

>  <maj>  (5) 
4.0

>  <min>  (5) 
0.0

>  <hyb>  (5) 
1.0

>  <sub>  (5) 
1.0

>  <query_index>  (5) 
80.0

>  <max_hit_Tanimoto>  (5) 
0.366707

>  <largest_ring>  (5) 
6

>  <N_interactions_kept>  (5) 
0.0

>  <N_interactions_lost>  (5) 
6.0

>  <interaction_uniqueness_metric>  (5) 
0.518515

>  <ad_hoc_penalty>  (5) 
-7.572457

>  <N_rotatable_bonds>  (5) 
6

>  <N_HA>  (5) 
21

>  <cluster>  (5) 
3808

>  <N_interactions>  (5) 
11

>  <Enamine>  (5) 
1

>  <Mcule>  (5) 
0

>  <N_PAINS>  (5) 
0

>  <UFF_Gibbs>  (5) 
134.323352

>  <strain_per_HA>  (5) 
6.39635

>  <intxn_scored>  (5) 
15.0

>  <saltbridge:HIS:51>  (5) 
0

>  <pistack:HIS:51>  (5) 
1

>  <hydroph_interaction:HIS:51>  (5) 
0

>  <hbond:ALA:132>  (5) 
0

>  <hbond:SER:135>  (5) 
0

>  <hydroph_interaction:TYR:150>  (5) 
1

>  <pistack:TYR:161>  (5) 
1

>  <hydroph_interaction:TYR:161>  (5) 
1

>  <hydroph_interaction:ASP:83>  (5) 
0

>  <hbond:TYR:130>  (5) 
1

>  <hydroph_interaction:ALA:132>  (5) 
1

>  <hbond:HIS:51>  (5) 
0

>  <hbond:ASP:129>  (5) 
0

>  <hbond:TYR:150>  (5) 
0

>  <hbond:GLY:151>  (5) 
1

>  <hbond:TYR:161>  (5) 
1

>  <hydroph_interaction:TYR:130>  (5) 
0

>  <hydroph_interaction:PRO:131>  (5) 
0

>  <hydroph_interaction:ASP:129>  (5) 
0

>  <saltbridge:ASP:75>  (5) 
0

>  <saltbridge:ASP:83>  (5) 
1

>  <hbond:ASN:152>  (5) 
0

>  <hydroph_interaction:ASN:152>  (5) 
0

>  <halogenbond:TYR:150>  (5) 
0

>  <hbond:ASP:83>  (5) 
0

>  <hydroph_interaction:VAL:155>  (5) 
1

>  <pication:TYR:161>  (5) 
0

>  <hbond:PRO:131>  (5) 
0

>  <saltbridge:ASP:129>  (5) 
0

>  <hbond:THR:134>  (5) 
0

>  <pication:HIS:51>  (5) 
1

>  <hbond:SER:81>  (5) 
0

>  <hydroph_interaction:THR:134>  (5) 
0

>  <hydroph_interaction:MET:49>  (5) 
0

$$$$
Z2732687556
     RDKit          3D

 42 44  0  0  0  0  0  0  0  0999 V2000
   -8.5840    4.4500   -8.8860 C   0  0  0  0  0  0  0  0  0  0  0  0
   -8.6940    4.8920  -10.2070 C   0  0  0  0  0  0  0  0  0  0  0  0
   -8.8380    6.1510  -10.5490 N   0  0  0  0  0  0  0  0  0  0  0  0
   -8.9170    6.2910  -11.9460 N   0  0  0  0  0  0  0  0  0  0  0  0
   -8.8260    5.1330  -12.5440 C   0  0  0  0  0  0  0  0  0  0  0  0
   -8.8480    4.8670  -13.8690 N   0  0  0  0  0  0  0  0  0  0  0  0
   -8.2670    5.7560  -14.7200 C   0  0  0  0  0  0  0  0  0  0  0  0
   -7.6740    6.7900  -14.4350 O   0  0  0  0  0  0  0  0  0  0  0  0
   -8.3840    5.4040  -16.1390 C   0  0  0  0  0  0  0  0  0  0  0  0
   -9.6750    4.8630  -16.6070 C   0  0  0  0  0  0  0  0  0  0  0  0
   -9.7660    4.5180  -18.0610 C   0  0  0  0  0  0  0  0  0  0  0  0
   -8.6990    4.6890  -18.9050 C   0  0  0  0  0  0  0  0  0  0  0  0
   -8.5960    4.4200  -20.2320 N   0  0  0  0  0  0  0  0  0  0  0  0
   -7.2880    4.6740  -20.6040 C   0  0  0  0  0  0  0  0  0  0  0  0
   -6.8980    4.4180  -21.7190 O   0  0  0  0  0  0  0  0  0  0  0  0
   -6.6060    5.2620  -19.5420 N   0  0  0  0  0  0  0  0  0  0  0  0
   -5.4760    6.1370  -19.7450 C   0  0  0  0  0  0  0  0  0  0  0  0
   -4.4720    5.3610  -20.3350 C   0  0  0  0  0  0  0  0  0  0  0  0
   -3.7000    5.9410  -21.4430 N   0  0  0  0  0  0  0  0  0  0  0  0
   -4.4360    5.6750  -22.6740 C   0  0  0  0  0  0  0  0  0  0  0  0
   -2.4130    5.2370  -21.5480 C   0  0  0  0  0  0  0  0  0  0  0  0
   -7.4780    5.2030  -18.4650 C   0  0  0  0  0  0  0  0  0  0  0  0
   -7.3110    5.5830  -16.9950 C   0  0  0  0  0  0  0  0  0  0  0  0
   -8.6470    3.7830  -11.5220 S   0  0  0  0  0  0  0  0  0  0  0  0
   -7.5720    4.6370   -8.5080 H   0  0  0  0  0  0  0  0  0  0  0  0
   -8.8380    3.3880   -8.8150 H   0  0  0  0  0  0  0  0  0  0  0  0
   -9.2780    4.9940   -8.2400 H   0  0  0  0  0  0  0  0  0  0  0  0
   -9.2780    4.0010  -14.1900 H   0  0  0  0  0  0  0  0  0  0  0  0
  -10.5140    4.7160  -15.9510 H   0  0  0  0  0  0  0  0  0  0  0  0
  -10.7420    4.1270  -18.3610 H   0  0  0  0  0  0  0  0  0  0  0  0
   -9.1380    3.7510  -20.7440 H   0  0  0  0  0  0  0  0  0  0  0  0
   -5.8120    6.8890  -20.4660 H   0  0  0  0  0  0  0  0  0  0  0  0
   -5.2760    6.6530  -18.8100 H   0  0  0  0  0  0  0  0  0  0  0  0
   -3.7850    5.0470  -19.5410 H   0  0  0  0  0  0  0  0  0  0  0  0
   -4.9750    4.4850  -20.7270 H   0  0  0  0  0  0  0  0  0  0  0  0
   -3.7810    5.4380  -23.5150 H   0  0  0  0  0  0  0  0  0  0  0  0
   -5.0990    4.8060  -22.5540 H   0  0  0  0  0  0  0  0  0  0  0  0
   -5.0710    6.5110  -22.9440 H   0  0  0  0  0  0  0  0  0  0  0  0
   -1.6930    5.8250  -22.1310 H   0  0  0  0  0  0  0  0  0  0  0  0
   -2.5360    4.2840  -22.0780 H   0  0  0  0  0  0  0  0  0  0  0  0
   -1.9720    5.0260  -20.5660 H   0  0  0  0  0  0  0  0  0  0  0  0
   -6.3150    5.9760  -16.7510 H   0  0  0  0  0  0  0  0  0  0  0  0
  1  2  1  0
  2  3  2  0
  3  4  1  0
  4  5  2  0
  5  6  1  0
  6  7  1  0
  7  8  2  0
  7  9  1  0
  9 10  2  0
 10 11  1  0
 11 12  2  0
 12 13  1  0
 13 14  1  0
 14 15  2  0
 14 16  1  0
 16 17  1  0
 17 18  1  0
 18 19  1  0
 19 20  1  0
 19 21  1  0
 16 22  1  0
 22 23  2  0
  5 24  1  0
 24  2  1  0
 23  9  1  0
 22 12  1  0
  1 25  1  0
  1 26  1  0
  1 27  1  0
  6 28  1  0
 10 29  1  0
 11 30  1  0
 13 31  1  0
 17 32  1  0
 17 33  1  0
 18 34  1  0
 18 35  1  0
 20 36  1  0
 20 37  1  0
 20 38  1  0
 21 39  1  0
 21 40  1  0
 21 41  1  0
 23 42  1  0
A    1
 C1 
A    2
 C2 
A    3
 N1 
A    4
 N2 
A    5
 C3 
A    6
 N3 
A    7
 C4 
A    8
 O1 
A    9
 C5 
A   10
 C6 
A   11
 C7 
A   12
 C8 
A   13
 N4 
A   14
 C9 
A   15
 O2 
A   16
 N5 
A   17
 C10
A   18
 C11
A   19
 N6 
A   20
 C12
A   21
 C13
A   22
 C14
A   23
 C15
A   24
 S1 
A   25
 H1 
A   26
 H2 
A   27
 H3 
A   28
 H4 
A   29
 H5 
A   30
 H6 
A   31
 H7 
A   32
 H8 
A   33
 H9 
A   34
 H10
A   35
 H11
A   36
 H12
A   37
 H13
A   38
 H14
A   39
 H15
A   40
 H16
A   41
 H17
A   42
 H18
M  END
>  <ref_pdb>  (6) 
x0051_0B

>  <ref_mols>  (6) 
x0904_0B,x1098_0B

>  <original SMILES>  (6) 
[H]c1c(C(=O)N([H])c2nnc(C([H])([H])[H])s2)c([H])c2c(c1[H])n([H])c(=O)n2C([H])([H])C([H])([H])N(C([H])([H])[H])C([H])([H])[H]

>  <index>  (6) 
1005

>  <∆∆G>  (6) 
-8.087104

>  <∆G_bound>  (6) 
-7.395678

>  <∆G_unbound>  (6) 
0.691426

>  <comRMSD>  (6) 
0.776288

>  <N_constrained_atoms>  (6) 
24.0

>  <N_unconstrained_atoms>  (6) 
2.0

>  <runtime>  (6) 
79.738571

>  <LE>  (6) 
0.311042

>  <percent_hybrid>  (6) 
42.0

>  <dist>  (6) 
9.0

>  <ecfp4>  (6) 
0.218391

>  <daylight>  (6) 
0.354978

>  <topodist>  (6) 
2.0

>  <mces>  (6) 
25.0

>  <tdn>  (6) 
1.0

>  <tup>  (6) 
0.0

>  <rdn>  (6) 
0.0

>  <rup>  (6) 
1.0

>  <ldn>  (6) 
0.0

>  <lup>  (6) 
0.0

>  <mut>  (6) 
5.0

>  <maj>  (6) 
5.0

>  <min>  (6) 
0.0

>  <hyb>  (6) 
2.0

>  <sub>  (6) 
1.0

>  <query_index>  (6) 
34.0

>  <max_hit_Tanimoto>  (6) 
0.275475

>  <largest_ring>  (6) 
6

>  <N_interactions_kept>  (6) 
1.5

>  <N_interactions_lost>  (6) 
4.5

>  <interaction_uniqueness_metric>  (6) 
0.43339

>  <ad_hoc_penalty>  (6) 
-17.359095

>  <N_rotatable_bonds>  (6) 
8

>  <N_HA>  (6) 
24

>  <cluster>  (6) 
5296

>  <N_interactions>  (6) 
11

>  <Enamine>  (6) 
1

>  <Mcule>  (6) 
0

>  <N_PAINS>  (6) 
0

>  <UFF_Gibbs>  (6) 
135.491772

>  <strain_per_HA>  (6) 
5.64549

>  <intxn_scored>  (6) 
14.5

>  <saltbridge:HIS:51>  (6) 
0

>  <pistack:HIS:51>  (6) 
1

>  <hydroph_interaction:HIS:51>  (6) 
1

>  <hbond:ALA:132>  (6) 
0

>  <hbond:SER:135>  (6) 
0

>  <hydroph_interaction:TYR:150>  (6) 
1

>  <pistack:TYR:161>  (6) 
2

>  <hydroph_interaction:TYR:161>  (6) 
0

>  <hydroph_interaction:ASP:83>  (6) 
0

>  <hbond:TYR:130>  (6) 
1

>  <hydroph_interaction:ALA:132>  (6) 
1

>  <hbond:HIS:51>  (6) 
0

>  <hbond:ASP:129>  (6) 
1

>  <hbond:TYR:150>  (6) 
1

>  <hbond:GLY:151>  (6) 
1

>  <hbond:TYR:161>  (6) 
0

>  <hydroph_interaction:TYR:130>  (6) 
0

>  <hydroph_interaction:PRO:131>  (6) 
0

>  <hydroph_interaction:ASP:129>  (6) 
0

>  <saltbridge:ASP:75>  (6) 
0

>  <saltbridge:ASP:83>  (6) 
0

>  <hbond:ASN:152>  (6) 
0

>  <hydroph_interaction:ASN:152>  (6) 
0

>  <halogenbond:TYR:150>  (6) 
0

>  <hbond:ASP:83>  (6) 
0

>  <hydroph_interaction:VAL:155>  (6) 
0

>  <pication:TYR:161>  (6) 
0

>  <hbond:PRO:131>  (6) 
0

>  <saltbridge:ASP:129>  (6) 
1

>  <hbond:THR:134>  (6) 
0

>  <pication:HIS:51>  (6) 
0

>  <hbond:SER:81>  (6) 
0

>  <hydroph_interaction:THR:134>  (6) 
0

>  <hydroph_interaction:MET:49>  (6) 
0

$$$$
PV-002846315875
     RDKit          3D

 32 34  0  0  0  0  0  0  0  0999 V2000
   -8.5780    4.5260   -9.2270 C   0  0  0  0  0  0  0  0  0  0  0  0
   -8.6800    5.0380  -10.5820 N   0  0  0  0  0  0  0  0  0  0  0  0
   -8.5790    4.1530  -11.7330 C   0  0  0  0  0  0  0  0  0  0  0  0
   -8.7320    5.0700  -12.9160 C   0  0  0  0  0  0  0  0  0  0  0  0
   -8.7030    4.7350  -14.2570 N   0  0  0  0  0  0  0  0  0  0  0  0
   -8.0330    5.4770  -15.2110 C   0  0  0  0  0  0  0  0  0  0  0  0
   -7.0630    6.4070  -14.9810 O   0  0  0  0  0  0  0  0  0  0  0  0
   -8.4490    5.2450  -16.5390 C   0  0  0  0  0  0  0  0  0  0  0  0
   -7.4800    5.3050  -17.7330 C   0  0  0  0  0  0  0  0  0  0  0  0
   -7.9670    5.0880  -19.0350 C   0  0  0  0  0  0  0  0  0  0  0  0
   -9.4140    4.7930  -19.2830 C   0  0  0  0  0  0  0  0  0  0  0  0
  -10.3950    4.7130  -18.1400 C   0  0  0  0  0  0  0  0  0  0  0  0
   -9.8000    4.9600  -16.7500 C   0  0  0  0  0  0  0  0  0  0  0  0
   -6.9180    5.1910  -19.9610 C   0  0  0  0  0  0  0  0  0  0  0  0
   -5.6910    5.4960  -19.1430 C   0  0  0  0  0  0  0  0  0  0  0  0
   -6.1060    5.5440  -17.8450 N   0  0  0  0  0  0  0  0  0  0  0  0
   -5.1850    5.8070  -16.7850 C   0  0  0  0  0  0  0  0  0  0  0  0
   -8.9000    6.3320  -12.3560 N   0  0  0  0  0  0  0  0  0  0  0  0
   -8.8680    6.3060  -10.9880 N   0  0  0  0  0  0  0  0  0  0  0  0
   -7.5480    4.6230   -8.8810 H   0  0  0  0  0  0  0  0  0  0  0  0
   -9.2300    5.0670   -8.5370 H   0  0  0  0  0  0  0  0  0  0  0  0
   -8.8600    3.4680   -9.1790 H   0  0  0  0  0  0  0  0  0  0  0  0
   -8.4280    3.0730  -11.8620 H   0  0  0  0  0  0  0  0  0  0  0  0
   -9.1840    3.8900  -14.5400 H   0  0  0  0  0  0  0  0  0  0  0  0
   -9.7360    4.6370  -20.3040 H   0  0  0  0  0  0  0  0  0  0  0  0
  -11.4470    4.4970  -18.3020 H   0  0  0  0  0  0  0  0  0  0  0  0
  -10.4460    4.9160  -15.8820 H   0  0  0  0  0  0  0  0  0  0  0  0
   -6.9640    5.0760  -21.0340 H   0  0  0  0  0  0  0  0  0  0  0  0
   -4.6640    5.6550  -19.4260 H   0  0  0  0  0  0  0  0  0  0  0  0
   -5.3590    5.0960  -15.9720 H   0  0  0  0  0  0  0  0  0  0  0  0
   -5.3480    6.8200  -16.4230 H   0  0  0  0  0  0  0  0  0  0  0  0
   -4.1720    5.6630  -17.1600 H   0  0  0  0  0  0  0  0  0  0  0  0
  1  2  1  0
  2  3  1  0
  3  4  2  0
  4  5  1  0
  5  6  1  0
  6  7  2  0
  6  8  1  0
  8  9  2  0
  9 10  1  0
 10 11  2  0
 11 12  1  0
 12 13  2  0
 10 14  1  0
 14 15  2  0
 15 16  1  0
 16 17  1  0
  4 18  1  0
 18 19  2  0
 19  2  1  0
 13  8  1  0
 16  9  1  0
  1 20  1  0
  1 21  1  0
  1 22  1  0
  3 23  1  0
  5 24  1  0
 11 25  1  0
 12 26  1  0
 13 27  1  0
 14 28  1  0
 15 29  1  0
 17 30  1  0
 17 31  1  0
 17 32  1  0
A    1
 C1 
A    2
 N1 
A    3
 C2 
A    4
 C3 
A    5
 N2 
A    6
 C4 
A    7
 O1 
A    8
 C5 
A    9
 C6 
A   10
 C7 
A   11
 C8 
A   12
 C9 
A   13
 C10
A   14
 C11
A   15
 C12
A   16
 N3 
A   17
 C13
A   18
 N4 
A   19
 N5 
A   20
 H1 
A   21
 H2 
A   22
 H3 
A   23
 H4 
A   24
 H5 
A   25
 H6 
A   26
 H7 
A   27
 H8 
A   28
 H9 
A   29
 H10
A   30
 H11
A   31
 H12
A   32
 H13
M  END
>  <ref_pdb>  (7) 
x0051_0B

>  <ref_mols>  (7) 
x1098_0B,x0490_0B

>  <original SMILES>  (7) 
[H]c1c([H])c(C(=O)N([H])c2nnn(C([H])([H])[H])c2[H])c2c(c1[H])c([H])c([H])n2C([H])([H])[H]

>  <index>  (7) 
1851

>  <∆∆G>  (7) 
-8.729037

>  <∆G_bound>  (7) 
-8.048833

>  <∆G_unbound>  (7) 
0.680204

>  <comRMSD>  (7) 
0.816285

>  <N_constrained_atoms>  (7) 
20.0

>  <N_unconstrained_atoms>  (7) 
0.0

>  <runtime>  (7) 
61.959855

>  <LE>  (7) 
0.436452

>  <percent_hybrid>  (7) 
25.0

>  <dist>  (7) 
4.0

>  <ecfp4>  (7) 
0.357143

>  <daylight>  (7) 
0.330317

>  <topodist>  (7) 
1.0

>  <mces>  (7) 
21.0

>  <tdn>  (7) 
1.0

>  <tup>  (7) 
0.0

>  <rdn>  (7) 
0.0

>  <rup>  (7) 
0.0

>  <ldn>  (7) 
0.0

>  <lup>  (7) 
0.0

>  <mut>  (7) 
2.0

>  <maj>  (7) 
2.0

>  <min>  (7) 
0.0

>  <hyb>  (7) 
1.0

>  <sub>  (7) 
1.0

>  <query_index>  (7) 
69.0

>  <max_hit_Tanimoto>  (7) 
0.34034

>  <largest_ring>  (7) 
6

>  <N_interactions_kept>  (7) 
0.0

>  <N_interactions_lost>  (7) 
6.0

>  <interaction_uniqueness_metric>  (7) 
0.445887

>  <ad_hoc_penalty>  (7) 
-12.132599

>  <N_rotatable_bonds>  (7) 
4

>  <N_HA>  (7) 
19

>  <cluster>  (7) 
4520

>  <N_interactions>  (7) 
10

>  <Enamine>  (7) 
1

>  <Mcule>  (7) 
0

>  <N_PAINS>  (7) 
0

>  <UFF_Gibbs>  (7) 
100.939069

>  <strain_per_HA>  (7) 
5.312583

>  <intxn_scored>  (7) 
14.5

>  <saltbridge:HIS:51>  (7) 
0

>  <pistack:HIS:51>  (7) 
1

>  <hydroph_interaction:HIS:51>  (7) 
0

>  <hbond:ALA:132>  (7) 
0

>  <hbond:SER:135>  (7) 
0

>  <hydroph_interaction:TYR:150>  (7) 
1

>  <pistack:TYR:161>  (7) 
1

>  <hydroph_interaction:TYR:161>  (7) 
3

>  <hydroph_interaction:ASP:83>  (7) 
0

>  <hbond:TYR:130>  (7) 
0

>  <hydroph_interaction:ALA:132>  (7) 
0

>  <hbond:HIS:51>  (7) 
0

>  <hbond:ASP:129>  (7) 
0

>  <hbond:TYR:150>  (7) 
0

>  <hbond:GLY:151>  (7) 
1

>  <hbond:TYR:161>  (7) 
1

>  <hydroph_interaction:TYR:130>  (7) 
0

>  <hydroph_interaction:PRO:131>  (7) 
0

>  <hydroph_interaction:ASP:129>  (7) 
0

>  <saltbridge:ASP:75>  (7) 
0

>  <saltbridge:ASP:83>  (7) 
1

>  <hbond:ASN:152>  (7) 
0

>  <hydroph_interaction:ASN:152>  (7) 
0

>  <halogenbond:TYR:150>  (7) 
0

>  <hbond:ASP:83>  (7) 
0

>  <hydroph_interaction:VAL:155>  (7) 
0

>  <pication:TYR:161>  (7) 
0

>  <hbond:PRO:131>  (7) 
0

>  <saltbridge:ASP:129>  (7) 
0

>  <hbond:THR:134>  (7) 
0

>  <pication:HIS:51>  (7) 
1

>  <hbond:SER:81>  (7) 
0

>  <hydroph_interaction:THR:134>  (7) 
0

>  <hydroph_interaction:MET:49>  (7) 
0

$$$$
Z2494277365
     RDKit          3D

 39 41  0  0  0  0  0  0  0  0999 V2000
   -2.9130    5.0780  -17.4980 C   0  0  0  0  0  0  0  0  0  0  0  0
   -3.8710    6.1240  -17.6120 O   0  0  0  0  0  0  0  0  0  0  0  0
   -5.1040    5.7650  -18.0790 C   0  0  0  0  0  0  0  0  0  0  0  0
   -5.4600    5.6180  -19.4140 C   0  0  0  0  0  0  0  0  0  0  0  0
   -6.7560    5.2410  -19.7540 C   0  0  0  0  0  0  0  0  0  0  0  0
   -7.7140    5.0040  -18.7630 C   0  0  0  0  0  0  0  0  0  0  0  0
   -9.0920    4.5810  -19.1900 C   0  0  0  0  0  0  0  0  0  0  0  0
  -10.2400    4.8930  -18.2340 C   0  0  0  0  0  0  0  0  0  0  0  0
   -9.8470    5.1640  -16.7680 C   0  0  0  0  0  0  0  0  0  0  0  0
   -8.4090    4.8850  -16.3590 C   0  0  0  0  0  0  0  0  0  0  0  0
   -8.1900    5.5130  -14.9830 C   0  0  0  0  0  0  0  0  0  0  0  0
   -7.9000    6.7020  -14.8590 O   0  0  0  0  0  0  0  0  0  0  0  0
   -8.3530    4.6020  -13.9570 N   0  0  0  0  0  0  0  0  0  0  0  0
   -8.4850    4.9330  -12.6300 C   0  0  0  0  0  0  0  0  0  0  0  0
   -8.3440    4.1520  -11.5160 C   0  0  0  0  0  0  0  0  0  0  0  0
   -8.5730    5.0080  -10.4870 N   0  0  0  0  0  0  0  0  0  0  0  0
   -8.5470    4.7200   -9.0820 C   0  0  0  0  0  0  0  0  0  0  0  0
   -8.8490    6.2490  -10.9190 N   0  0  0  0  0  0  0  0  0  0  0  0
   -8.7980    6.2130  -12.2460 N   0  0  0  0  0  0  0  0  0  0  0  0
   -7.3700    5.1510  -17.4240 C   0  0  0  0  0  0  0  0  0  0  0  0
   -6.0620    5.5330  -17.0890 C   0  0  0  0  0  0  0  0  0  0  0  0
   -1.9090    5.4810  -17.3230 H   0  0  0  0  0  0  0  0  0  0  0  0
   -2.9270    4.4270  -18.3800 H   0  0  0  0  0  0  0  0  0  0  0  0
   -3.1820    4.4690  -16.6290 H   0  0  0  0  0  0  0  0  0  0  0  0
   -4.7520    5.7870  -20.2180 H   0  0  0  0  0  0  0  0  0  0  0  0
   -7.0160    5.1300  -20.8040 H   0  0  0  0  0  0  0  0  0  0  0  0
   -9.3030    5.0540  -20.1540 H   0  0  0  0  0  0  0  0  0  0  0  0
   -9.0930    3.5000  -19.3620 H   0  0  0  0  0  0  0  0  0  0  0  0
  -10.8190    5.7330  -18.6220 H   0  0  0  0  0  0  0  0  0  0  0  0
  -10.9480    4.0840  -18.2860 H   0  0  0  0  0  0  0  0  0  0  0  0
  -10.1150    6.1960  -16.5130 H   0  0  0  0  0  0  0  0  0  0  0  0
  -10.4730    4.5450  -16.1220 H   0  0  0  0  0  0  0  0  0  0  0  0
   -8.3550    3.8210  -16.1840 H   0  0  0  0  0  0  0  0  0  0  0  0
   -7.9610    3.6640  -14.0950 H   0  0  0  0  0  0  0  0  0  0  0  0
   -8.1060    3.1070  -11.3720 H   0  0  0  0  0  0  0  0  0  0  0  0
   -7.5060    4.7250   -8.7450 H   0  0  0  0  0  0  0  0  0  0  0  0
   -9.1130    5.4820   -8.5430 H   0  0  0  0  0  0  0  0  0  0  0  0
   -8.9980    3.7370   -8.9170 H   0  0  0  0  0  0  0  0  0  0  0  0
   -5.7680    5.6520  -16.0480 H   0  0  0  0  0  0  0  0  0  0  0  0
  1  2  1  0
  2  3  1  0
  3  4  2  0
  4  5  1  0
  5  6  2  0
  6  7  1  0
  7  8  1  0
  8  9  1  0
  9 10  1  0
 10 11  1  0
 11 12  2  0
 11 13  1  0
 13 14  1  0
 14 15  2  0
 15 16  1  0
 16 17  1  0
 16 18  1  0
 18 19  2  0
 10 20  1  0
 20 21  2  0
 21  3  1  0
 20  6  1  0
 19 14  1  0
  1 22  1  0
  1 23  1  0
  1 24  1  0
  4 25  1  0
  5 26  1  0
  7 27  1  0
  7 28  1  0
  8 29  1  0
  8 30  1  0
  9 31  1  0
  9 32  1  0
 10 33  1  0
 13 34  1  0
 15 35  1  0
 17 36  1  0
 17 37  1  0
 17 38  1  0
 21 39  1  0
A    1
 C1 
A    2
 O1 
A    3
 C2 
A    4
 C3 
A    5
 C4 
A    6
 C5 
A    7
 C6 
A    8
 C7 
A    9
 C8 
A   10
 C9 
A   11
 C10
A   12
 O2 
A   13
 N1 
A   14
 C11
A   15
 C12
A   16
 N2 
A   17
 C13
A   18
 N3 
A   19
 N4 
A   20
 C14
A   21
 C15
A   22
 H1 
A   23
 H2 
A   24
 H3 
A   25
 H4 
A   26
 H5 
A   27
 H6 
A   28
 H7 
A   29
 H8 
A   30
 H9 
A   31
 H10
A   32
 H11
A   33
 H12
A   34
 H13
A   35
 H14
A   36
 H15
A   37
 H16
A   38
 H17
A   39
 H18
M  END
>  <ref_pdb>  (8) 
x0051_0B

>  <ref_mols>  (8) 
x1098_0B,x0727_0B

>  <original SMILES>  (8) 
[H]c1c([H])c2c(c([H])c1OC([H])([H])[H])C([H])(C(=O)N([H])c1nnn(C([H])([H])[H])c1[H])C([H])([H])C([H])([H])C2([H])[H]

>  <index>  (8) 
2238

>  <∆∆G>  (8) 
-7.8347

>  <∆G_bound>  (8) 
-7.208215

>  <∆G_unbound>  (8) 
0.626485

>  <comRMSD>  (8) 
0.352407

>  <N_constrained_atoms>  (8) 
20.0

>  <N_unconstrained_atoms>  (8) 
2.0

>  <runtime>  (8) 
64.422335

>  <LE>  (8) 
0.356123

>  <percent_hybrid>  (8) 
19.0

>  <dist>  (8) 
6.0

>  <ecfp4>  (8) 
0.253012

>  <daylight>  (8) 
0.278761

>  <topodist>  (8) 
1.0

>  <mces>  (8) 
23.0

>  <tdn>  (8) 
1.0

>  <tup>  (8) 
0.0

>  <rdn>  (8) 
0.0

>  <rup>  (8) 
0.0

>  <ldn>  (8) 
0.0

>  <lup>  (8) 
0.0

>  <mut>  (8) 
1.0

>  <maj>  (8) 
1.0

>  <min>  (8) 
0.0

>  <hyb>  (8) 
4.0

>  <sub>  (8) 
1.0

>  <query_index>  (8) 
11.0

>  <max_hit_Tanimoto>  (8) 
0.238009

>  <largest_ring>  (8) 
6

>  <N_interactions_kept>  (8) 
1.0

>  <N_interactions_lost>  (8) 
5.0

>  <interaction_uniqueness_metric>  (8) 
0.408463

>  <ad_hoc_penalty>  (8) 
-12.601227

>  <N_rotatable_bonds>  (8) 
5

>  <N_HA>  (8) 
21

>  <cluster>  (8) 
4161

>  <N_interactions>  (8) 
9

>  <Enamine>  (8) 
1

>  <Mcule>  (8) 
0

>  <N_PAINS>  (8) 
0

>  <UFF_Gibbs>  (8) 
48.512782

>  <strain_per_HA>  (8) 
2.310132

>  <intxn_scored>  (8) 
14.5

>  <saltbridge:HIS:51>  (8) 
0

>  <pistack:HIS:51>  (8) 
1

>  <hydroph_interaction:HIS:51>  (8) 
0

>  <hbond:ALA:132>  (8) 
0

>  <hbond:SER:135>  (8) 
0

>  <hydroph_interaction:TYR:150>  (8) 
1

>  <pistack:TYR:161>  (8) 
1

>  <hydroph_interaction:TYR:161>  (8) 
3

>  <hydroph_interaction:ASP:83>  (8) 
0

>  <hbond:TYR:130>  (8) 
0

>  <hydroph_interaction:ALA:132>  (8) 
0

>  <hbond:HIS:51>  (8) 
0

>  <hbond:ASP:129>  (8) 
0

>  <hbond:TYR:150>  (8) 
0

>  <hbond:GLY:151>  (8) 
0

>  <hbond:TYR:161>  (8) 
1

>  <hydroph_interaction:TYR:130>  (8) 
0

>  <hydroph_interaction:PRO:131>  (8) 
0

>  <hydroph_interaction:ASP:129>  (8) 
0

>  <saltbridge:ASP:75>  (8) 
0

>  <saltbridge:ASP:83>  (8) 
1

>  <hbond:ASN:152>  (8) 
0

>  <hydroph_interaction:ASN:152>  (8) 
0

>  <halogenbond:TYR:150>  (8) 
0

>  <hbond:ASP:83>  (8) 
0

>  <hydroph_interaction:VAL:155>  (8) 
0

>  <pication:TYR:161>  (8) 
0

>  <hbond:PRO:131>  (8) 
0

>  <saltbridge:ASP:129>  (8) 
0

>  <hbond:THR:134>  (8) 
0

>  <pication:HIS:51>  (8) 
1

>  <hbond:SER:81>  (8) 
0

>  <hydroph_interaction:THR:134>  (8) 
0

>  <hydroph_interaction:MET:49>  (8) 
0

$$$$
Z2796538479
     RDKit          3D

 44 46  0  0  0  0  0  0  0  0999 V2000
   -4.6120    5.8540  -22.7030 C   0  0  0  0  0  0  0  0  0  0  0  0
   -3.7160    5.9460  -21.5890 N   0  0  0  0  0  0  0  0  0  0  0  0
   -2.4040    5.4790  -21.6270 C   0  0  0  0  0  0  0  0  0  0  0  0
   -4.3960    5.3370  -20.4430 C   0  0  0  0  0  0  0  0  0  0  0  0
   -5.4780    6.0810  -19.6490 C   0  0  0  0  0  0  0  0  0  0  0  0
   -6.6290    5.2310  -19.4850 N   0  0  0  0  0  0  0  0  0  0  0  0
   -7.3230    4.6770  -20.5950 C   0  0  0  0  0  0  0  0  0  0  0  0
   -6.9410    4.4160  -21.7180 O   0  0  0  0  0  0  0  0  0  0  0  0
   -8.6150    4.4510  -20.2350 N   0  0  0  0  0  0  0  0  0  0  0  0
   -8.7420    4.7260  -18.8740 C   0  0  0  0  0  0  0  0  0  0  0  0
   -9.9540    4.5520  -18.0310 C   0  0  0  0  0  0  0  0  0  0  0  0
   -9.6920    4.9270  -16.5940 C   0  0  0  0  0  0  0  0  0  0  0  0
   -8.4210    5.3990  -16.1690 C   0  0  0  0  0  0  0  0  0  0  0  0
   -8.2520    5.7290  -14.8420 C   0  0  0  0  0  0  0  0  0  0  0  0
   -7.7220    6.8000  -14.5740 O   0  0  0  0  0  0  0  0  0  0  0  0
   -8.7090    4.8040  -13.9390 N   0  0  0  0  0  0  0  0  0  0  0  0
   -8.7400    5.1120  -12.6090 C   0  0  0  0  0  0  0  0  0  0  0  0
   -8.5280    4.1810  -11.4640 C   0  0  0  0  0  0  0  0  0  0  0  0
   -8.6380    4.9360  -10.3440 N   0  0  0  0  0  0  0  0  0  0  0  0
   -8.5080    4.4980   -8.9800 C   0  0  0  0  0  0  0  0  0  0  0  0
   -8.8980    6.2360  -10.6070 N   0  0  0  0  0  0  0  0  0  0  0  0
   -8.9600    6.3370  -11.9510 C   0  0  0  0  0  0  0  0  0  0  0  0
   -7.2960    5.5620  -17.0090 C   0  0  0  0  0  0  0  0  0  0  0  0
   -7.5550    5.1770  -18.4450 C   0  0  0  0  0  0  0  0  0  0  0  0
   -5.2100    4.9430  -22.5990 H   0  0  0  0  0  0  0  0  0  0  0  0
   -4.0410    5.7900  -23.6340 H   0  0  0  0  0  0  0  0  0  0  0  0
   -5.2410    6.7500  -22.7370 H   0  0  0  0  0  0  0  0  0  0  0  0
   -2.4090    4.4250  -21.9390 H   0  0  0  0  0  0  0  0  0  0  0  0
   -1.7770    6.0350  -22.3330 H   0  0  0  0  0  0  0  0  0  0  0  0
   -1.9420    5.5150  -20.6350 H   0  0  0  0  0  0  0  0  0  0  0  0
   -4.8920    4.4570  -20.8420 H   0  0  0  0  0  0  0  0  0  0  0  0
   -3.6420    4.9890  -19.7260 H   0  0  0  0  0  0  0  0  0  0  0  0
   -5.1070    6.3740  -18.6610 H   0  0  0  0  0  0  0  0  0  0  0  0
   -5.7790    6.9960  -20.1720 H   0  0  0  0  0  0  0  0  0  0  0  0
   -9.1470    3.7720  -20.7520 H   0  0  0  0  0  0  0  0  0  0  0  0
  -10.9040    4.1930  -18.4060 H   0  0  0  0  0  0  0  0  0  0  0  0
  -10.4880    4.8350  -15.8700 H   0  0  0  0  0  0  0  0  0  0  0  0
   -9.2210    3.9790  -14.2570 H   0  0  0  0  0  0  0  0  0  0  0  0
   -8.3250    3.1170  -11.5550 H   0  0  0  0  0  0  0  0  0  0  0  0
   -8.7670    3.4370   -8.9320 H   0  0  0  0  0  0  0  0  0  0  0  0
   -9.1810    5.0690   -8.3470 H   0  0  0  0  0  0  0  0  0  0  0  0
   -7.4750    4.6570   -8.6640 H   0  0  0  0  0  0  0  0  0  0  0  0
   -9.1610    7.3070  -12.3880 H   0  0  0  0  0  0  0  0  0  0  0  0
   -6.3440    5.9270  -16.6430 H   0  0  0  0  0  0  0  0  0  0  0  0
  1  2  1  0
  2  3  1  0
  2  4  1  0
  4  5  1  0
  5  6  1  0
  6  7  1  0
  7  8  2  0
  7  9  1  0
  9 10  1  0
 10 11  2  0
 11 12  1  0
 12 13  2  0
 13 14  1  0
 14 15  2  0
 14 16  1  0
 16 17  1  0
 17 18  2  0
 18 19  1  0
 19 20  1  0
 19 21  1  0
 21 22  2  0
 13 23  1  0
 23 24  2  0
 24  6  1  0
 24 10  1  0
 22 17  1  0
  1 25  1  0
  1 26  1  0
  1 27  1  0
  3 28  1  0
  3 29  1  0
  3 30  1  0
  4 31  1  0
  4 32  1  0
  5 33  1  0
  5 34  1  0
  9 35  1  0
 11 36  1  0
 12 37  1  0
 16 38  1  0
 18 39  1  0
 20 40  1  0
 20 41  1  0
 20 42  1  0
 22 43  1  0
 23 44  1  0
A    1
 C1 
A    2
 N1 
A    3
 C2 
A    4
 C3 
A    5
 C4 
A    6
 N2 
A    7
 C5 
A    8
 O1 
A    9
 N3 
A   10
 C6 
A   11
 C7 
A   12
 C8 
A   13
 C9 
A   14
 C10
A   15
 O2 
A   16
 N4 
A   17
 C11
A   18
 C12
A   19
 N5 
A   20
 C13
A   21
 N6 
A   22
 C14
A   23
 C15
A   24
 C16
A   25
 H1 
A   26
 H2 
A   27
 H3 
A   28
 H4 
A   29
 H5 
A   30
 H6 
A   31
 H7 
A   32
 H8 
A   33
 H9 
A   34
 H10
A   35
 H11
A   36
 H12
A   37
 H13
A   38
 H14
A   39
 H15
A   40
 H16
A   41
 H17
A   42
 H18
A   43
 H19
A   44
 H20
M  END
>  <ref_pdb>  (9) 
x0051_0B

>  <ref_mols>  (9) 
x0904_0B,x1098_0B

>  <original SMILES>  (9) 
[H]c1nn(C([H])([H])[H])c([H])c1N([H])C(=O)c1c([H])c([H])c2c(c1[H])n(C([H])([H])C([H])([H])N(C([H])([H])[H])C([H])([H])[H])c(=O)n2[H]

>  <index>  (9) 
1994

>  <∆∆G>  (9) 
-7.588273

>  <∆G_bound>  (9) 
-6.754713

>  <∆G_unbound>  (9) 
0.83356

>  <comRMSD>  (9) 
0.754187

>  <N_constrained_atoms>  (9) 
24.0

>  <N_unconstrained_atoms>  (9) 
2.0

>  <runtime>  (9) 
74.489828

>  <LE>  (9) 
0.291857

>  <percent_hybrid>  (9) 
42.0

>  <dist>  (9) 
6.0

>  <ecfp4>  (9) 
0.432432

>  <daylight>  (9) 
0.625

>  <topodist>  (9) 
2.0

>  <mces>  (9) 
25.0

>  <tdn>  (9) 
1.0

>  <tup>  (9) 
0.0

>  <rdn>  (9) 
0.0

>  <rup>  (9) 
1.0

>  <ldn>  (9) 
0.0

>  <lup>  (9) 
0.0

>  <mut>  (9) 
2.0

>  <maj>  (9) 
2.0

>  <min>  (9) 
0.0

>  <hyb>  (9) 
2.0

>  <sub>  (9) 
1.0

>  <query_index>  (9) 
34.0

>  <max_hit_Tanimoto>  (9) 
0.392717

>  <largest_ring>  (9) 
6

>  <N_interactions_kept>  (9) 
1.5

>  <N_interactions_lost>  (9) 
4.5

>  <interaction_uniqueness_metric>  (9) 
0.396044

>  <ad_hoc_penalty>  (9) 
-10.193091

>  <N_rotatable_bonds>  (9) 
8

>  <N_HA>  (9) 
24

>  <cluster>  (9) 
4389

>  <N_interactions>  (9) 
10

>  <Enamine>  (9) 
1

>  <Mcule>  (9) 
0

>  <N_PAINS>  (9) 
0

>  <UFF_Gibbs>  (9) 
136.447878

>  <strain_per_HA>  (9) 
5.685328

>  <intxn_scored>  (9) 
14.0

>  <saltbridge:HIS:51>  (9) 
0

>  <pistack:HIS:51>  (9) 
1

>  <hydroph_interaction:HIS:51>  (9) 
0

>  <hbond:ALA:132>  (9) 
0

>  <hbond:SER:135>  (9) 
0

>  <hydroph_interaction:TYR:150>  (9) 
1

>  <pistack:TYR:161>  (9) 
2

>  <hydroph_interaction:TYR:161>  (9) 
0

>  <hydroph_interaction:ASP:83>  (9) 
0

>  <hbond:TYR:130>  (9) 
1

>  <hydroph_interaction:ALA:132>  (9) 
1

>  <hbond:HIS:51>  (9) 
0

>  <hbond:ASP:129>  (9) 
1

>  <hbond:TYR:150>  (9) 
1

>  <hbond:GLY:151>  (9) 
1

>  <hbond:TYR:161>  (9) 
0

>  <hydroph_interaction:TYR:130>  (9) 
0

>  <hydroph_interaction:PRO:131>  (9) 
0

>  <hydroph_interaction:ASP:129>  (9) 
0

>  <saltbridge:ASP:75>  (9) 
0

>  <saltbridge:ASP:83>  (9) 
0

>  <hbond:ASN:152>  (9) 
0

>  <hydroph_interaction:ASN:152>  (9) 
0

>  <halogenbond:TYR:150>  (9) 
0

>  <hbond:ASP:83>  (9) 
0

>  <hydroph_interaction:VAL:155>  (9) 
0

>  <pication:TYR:161>  (9) 
0

>  <hbond:PRO:131>  (9) 
0

>  <saltbridge:ASP:129>  (9) 
1

>  <hbond:THR:134>  (9) 
0

>  <pication:HIS:51>  (9) 
0

>  <hbond:SER:81>  (9) 
0

>  <hydroph_interaction:THR:134>  (9) 
0

>  <hydroph_interaction:MET:49>  (9) 
0

$$$$
PV-006888971551
     RDKit          3D

 52 55  0  0  0  0  0  0  0  0999 V2000
   -3.9750    5.0980  -18.4100 C   0  0  0  0  0  0  0  0  0  0  0  0
   -3.9180    5.3210  -19.8970 C   0  0  0  0  0  0  0  0  0  0  0  0
   -2.6630    5.4830  -20.5060 C   0  0  0  0  0  0  0  0  0  0  0  0
   -2.6240    5.7000  -21.9680 N   0  0  0  0  0  0  0  0  0  0  0  0
   -3.8630    5.7440  -22.7720 C   0  0  0  0  0  0  0  0  0  0  0  0
   -5.0270    5.5680  -22.0560 C   0  0  0  0  0  0  0  0  0  0  0  0
   -5.0760    5.3630  -20.6820 C   0  0  0  0  0  0  0  0  0  0  0  0
   -6.4170    5.1710  -19.9830 C   0  0  0  0  0  0  0  0  0  0  0  0
   -7.3060    4.5260  -20.5490 O   0  0  0  0  0  0  0  0  0  0  0  0
   -6.5890    5.7150  -18.7160 N   0  0  0  0  0  0  0  0  0  0  0  0
   -7.7800    5.3980  -17.9350 C   0  0  0  0  0  0  0  0  0  0  0  0
   -7.7660    5.6510  -16.5330 C   0  0  0  0  0  0  0  0  0  0  0  0
   -8.9320    5.3510  -15.7790 C   0  0  0  0  0  0  0  0  0  0  0  0
   -9.2310    5.5310  -14.3750 C   0  0  0  0  0  0  0  0  0  0  0  0
   -8.3860    5.0270  -13.2980 N   0  0  0  0  0  0  0  0  0  0  0  0
   -8.1060    5.9220  -12.2670 C   0  0  0  0  0  0  0  0  0  0  0  0
   -7.5410    6.9710  -12.5650 O   0  0  0  0  0  0  0  0  0  0  0  0
   -8.4460    5.7240  -10.7500 C   0  0  0  0  0  0  0  0  0  0  0  0
   -8.7210    4.4540   -9.9790 C   0  0  0  0  0  0  0  0  0  0  0  0
   -8.7530    3.0240  -10.4920 C   0  0  0  0  0  0  0  0  0  0  0  0
   -8.5670    2.1980   -9.2350 C   0  0  0  0  0  0  0  0  0  0  0  0
   -9.5490    2.6200   -8.1320 C   0  0  0  0  0  0  0  0  0  0  0  0
   -9.2140    3.8820   -7.5950 C   0  0  0  0  0  0  0  0  0  0  0  0
   -8.9330    4.8130   -8.6830 N   0  0  0  0  0  0  0  0  0  0  0  0
   -8.8510    6.1500   -8.4890 N   0  0  0  0  0  0  0  0  0  0  0  0
   -8.5660    6.6900   -9.7070 C   0  0  0  0  0  0  0  0  0  0  0  0
   -9.9880    4.8150  -16.4860 C   0  0  0  0  0  0  0  0  0  0  0  0
   -9.9890    4.5840  -17.8540 C   0  0  0  0  0  0  0  0  0  0  0  0
   -8.8800    4.8730  -18.5910 C   0  0  0  0  0  0  0  0  0  0  0  0
   -4.9370    4.6760  -18.1100 H   0  0  0  0  0  0  0  0  0  0  0  0
   -3.8260    6.0440  -17.8810 H   0  0  0  0  0  0  0  0  0  0  0  0
   -3.2020    4.3910  -18.0940 H   0  0  0  0  0  0  0  0  0  0  0  0
   -1.7200    5.4570  -19.9600 H   0  0  0  0  0  0  0  0  0  0  0  0
   -3.8060    5.9060  -23.8540 H   0  0  0  0  0  0  0  0  0  0  0  0
   -5.9170    5.6070  -22.6990 H   0  0  0  0  0  0  0  0  0  0  0  0
   -5.7530    5.9260  -18.1860 H   0  0  0  0  0  0  0  0  0  0  0  0
   -6.9000    6.0710  -16.0320 H   0  0  0  0  0  0  0  0  0  0  0  0
   -9.4030    6.6000  -14.2040 H   0  0  0  0  0  0  0  0  0  0  0  0
  -10.2050    5.0590  -14.1940 H   0  0  0  0  0  0  0  0  0  0  0  0
   -8.4230    4.0370  -13.1130 H   0  0  0  0  0  0  0  0  0  0  0  0
   -7.9300    2.8470  -11.1950 H   0  0  0  0  0  0  0  0  0  0  0  0
   -9.7070    2.7720  -10.9680 H   0  0  0  0  0  0  0  0  0  0  0  0
   -7.5480    2.3430   -8.8710 H   0  0  0  0  0  0  0  0  0  0  0  0
   -8.6650    1.1490   -9.4620 H   0  0  0  0  0  0  0  0  0  0  0  0
   -9.5420    1.8670   -7.3360 H   0  0  0  0  0  0  0  0  0  0  0  0
  -10.5670    2.6490   -8.5320 H   0  0  0  0  0  0  0  0  0  0  0  0
  -10.0630    4.2730   -7.0270 H   0  0  0  0  0  0  0  0  0  0  0  0
   -8.3410    3.9360   -6.9470 H   0  0  0  0  0  0  0  0  0  0  0  0
   -8.4510    7.7650   -9.7920 H   0  0  0  0  0  0  0  0  0  0  0  0
  -10.8620    4.5650  -15.9210 H   0  0  0  0  0  0  0  0  0  0  0  0
  -10.8770    4.1700  -18.3350 H   0  0  0  0  0  0  0  0  0  0  0  0
   -8.8880    4.6870  -19.6610 H   0  0  0  0  0  0  0  0  0  0  0  0
  1  2  1  0
  2  3  2  0
  3  4  1  0
  4  5  2  0
  5  6  1  0
  6  7  2  0
  7  8  1  0
  8  9  2  0
  8 10  1  0
 10 11  1  0
 11 12  2  0
 12 13  1  0
 13 14  1  0
 14 15  1  0
 15 16  1  0
 16 17  2  0
 16 18  1  0
 18 19  2  0
 19 20  1  0
 20 21  1  0
 21 22  1  0
 22 23  1  0
 23 24  1  0
 24 25  1  0
 25 26  2  0
 13 27  2  0
 27 28  1  0
 28 29  2  0
  7  2  1  0
 29 11  1  0
 26 18  1  0
 24 19  1  0
  1 30  1  0
  1 31  1  0
  1 32  1  0
  3 33  1  0
  5 34  1  0
  6 35  1  0
 10 36  1  0
 12 37  1  0
 14 38  1  0
 14 39  1  0
 15 40  1  0
 20 41  1  0
 20 42  1  0
 21 43  1  0
 21 44  1  0
 22 45  1  0
 22 46  1  0
 23 47  1  0
 23 48  1  0
 26 49  1  0
 27 50  1  0
 28 51  1  0
 29 52  1  0
A    1
 C1 
A    2
 C2 
A    3
 C3 
A    4
 N1 
A    5
 C4 
A    6
 C5 
A    7
 C6 
A    8
 C7 
A    9
 O1 
A   10
 N2 
A   11
 C8 
A   12
 C9 
A   13
 C10
A   14
 C11
A   15
 N3 
A   16
 C12
A   17
 O2 
A   18
 C13
A   19
 C14
A   20
 C15
A   21
 C16
A   22
 C17
A   23
 C18
A   24
 N4 
A   25
 N5 
A   26
 C19
A   27
 C20
A   28
 C21
A   29
 C22
A   30
 H1 
A   31
 H2 
A   32
 H3 
A   33
 H4 
A   34
 H5 
A   35
 H6 
A   36
 H7 
A   37
 H8 
A   38
 H9 
A   39
 H10
A   40
 H11
A   41
 H12
A   42
 H13
A   43
 H14
A   44
 H15
A   45
 H16
A   46
 H17
A   47
 H18
A   48
 H19
A   49
 H20
A   50
 H21
A   51
 H22
A   52
 H23
M  END
>  <ref_pdb>  (10) 
x0051_0B

>  <ref_mols>  (10) 
x0852_0B,x0969_1B

>  <original SMILES>  (10) 
[H]c1nc([H])c(C([H])([H])[H])c(C(=O)N([H])c2c([H])c([H])c([H])c(C([H])([H])N([H])C(=O)c3c([H])nn4c3C([H])([H])C([H])([H])C([H])([H])C4([H])[H])c2[H])c1[H]

>  <index>  (10) 
187

>  <∆∆G>  (10) 
-8.567987

>  <∆G_bound>  (10) 
-7.633201

>  <∆G_unbound>  (10) 
0.934786

>  <comRMSD>  (10) 
0.430471

>  <N_constrained_atoms>  (10) 
28.0

>  <N_unconstrained_atoms>  (10) 
3.0

>  <runtime>  (10) 
65.533433

>  <LE>  (10) 
0.276387

>  <percent_hybrid>  (10) 
36.0

>  <dist>  (10) 
8.0

>  <ecfp4>  (10) 
0.346535

>  <daylight>  (10) 
0.384615

>  <topodist>  (10) 
3.0

>  <mces>  (10) 
31.0

>  <tdn>  (10) 
2.0

>  <tup>  (10) 
1.0

>  <rdn>  (10) 
0.0

>  <rup>  (10) 
0.0

>  <ldn>  (10) 
0.0

>  <lup>  (10) 
0.0

>  <mut>  (10) 
4.0

>  <maj>  (10) 
4.0

>  <min>  (10) 
0.0

>  <hyb>  (10) 
1.0

>  <sub>  (10) 
2.0

>  <query_index>  (10) 
46.0

>  <max_hit_Tanimoto>  (10) 
0.34193

>  <largest_ring>  (10) 
0

>  <N_interactions_kept>  (10) 
2.5

>  <N_interactions_lost>  (10) 
3.5

>  <interaction_uniqueness_metric>  (10) 
0.27981

>  <ad_hoc_penalty>  (10) 
-22.061073

>  <N_rotatable_bonds>  (10) 
6

>  <N_HA>  (10) 
29

>  <cluster>  (10) 
6049

>  <N_interactions>  (10) 
10

>  <Enamine>  (10) 
1

>  <Mcule>  (10) 
0

>  <N_PAINS>  (10) 
0

>  <UFF_Gibbs>  (10) 
309.749683

>  <strain_per_HA>  (10) 
10.681024

>  <intxn_scored>  (10) 
14.0

>  <saltbridge:HIS:51>  (10) 
0

>  <pistack:HIS:51>  (10) 
1

>  <hydroph_interaction:HIS:51>  (10) 
0

>  <hbond:ALA:132>  (10) 
0

>  <hbond:SER:135>  (10) 
0

>  <hydroph_interaction:TYR:150>  (10) 
1

>  <pistack:TYR:161>  (10) 
1

>  <hydroph_interaction:TYR:161>  (10) 
2

>  <hydroph_interaction:ASP:83>  (10) 
1

>  <hbond:TYR:130>  (10) 
1

>  <hydroph_interaction:ALA:132>  (10) 
1

>  <hbond:HIS:51>  (10) 
0

>  <hbond:ASP:129>  (10) 
0

>  <hbond:TYR:150>  (10) 
0

>  <hbond:GLY:151>  (10) 
0

>  <hbond:TYR:161>  (10) 
1

>  <hydroph_interaction:TYR:130>  (10) 
0

>  <hydroph_interaction:PRO:131>  (10) 
0

>  <hydroph_interaction:ASP:129>  (10) 
1

>  <saltbridge:ASP:75>  (10) 
0

>  <saltbridge:ASP:83>  (10) 
0

>  <hbond:ASN:152>  (10) 
0

>  <hydroph_interaction:ASN:152>  (10) 
0

>  <halogenbond:TYR:150>  (10) 
0

>  <hbond:ASP:83>  (10) 
0

>  <hydroph_interaction:VAL:155>  (10) 
0

>  <pication:TYR:161>  (10) 
0

>  <hbond:PRO:131>  (10) 
0

>  <saltbridge:ASP:129>  (10) 
0

>  <hbond:THR:134>  (10) 
0

>  <pication:HIS:51>  (10) 
0

>  <hbond:SER:81>  (10) 
0

>  <hydroph_interaction:THR:134>  (10) 
0

>  <hydroph_interaction:MET:49>  (10) 
0

$$$$
Z5484429475
     RDKit          3D

 40 43  0  0  0  0  0  0  0  0999 V2000
   -6.4700    5.0420  -20.5130 C   0  0  0  0  0  0  0  0  0  0  0  0
   -6.4830    5.1990  -18.9980 C   0  0  0  0  0  0  0  0  0  0  0  0
   -5.3400    5.4640  -18.2780 N   0  0  0  0  0  0  0  0  0  0  0  0
   -5.7210    5.5430  -16.9110 N   0  0  0  0  0  0  0  0  0  0  0  0
   -7.1150    5.3140  -16.8950 C   0  0  0  0  0  0  0  0  0  0  0  0
   -7.9800    5.2980  -15.7550 C   0  0  0  0  0  0  0  0  0  0  0  0
   -7.4310    5.5480  -14.4480 C   0  0  0  0  0  0  0  0  0  0  0  0
   -6.2170    5.4880  -14.3180 O   0  0  0  0  0  0  0  0  0  0  0  0
   -8.2920    5.8630  -13.4040 N   0  0  0  0  0  0  0  0  0  0  0  0
   -8.7500    4.8490  -12.4450 C   0  0  0  0  0  0  0  0  0  0  0  0
   -8.7810    5.2020  -11.0550 C   0  0  0  0  0  0  0  0  0  0  0  0
   -8.9640    4.2340  -10.0610 C   0  0  0  0  0  0  0  0  0  0  0  0
   -9.1260    2.8780  -10.2890 C   0  0  0  0  0  0  0  0  0  0  0  0
   -8.8300    2.2280   -8.9850 C   0  0  0  0  0  0  0  0  0  0  0  0
   -9.4780    2.7280   -7.7100 C   0  0  0  0  0  0  0  0  0  0  0  0
   -9.1240    4.2090   -7.5450 C   0  0  0  0  0  0  0  0  0  0  0  0
   -8.9570    4.8610   -8.8410 N   0  0  0  0  0  0  0  0  0  0  0  0
   -8.7770    6.1940   -8.9570 N   0  0  0  0  0  0  0  0  0  0  0  0
   -8.6720    6.4060  -10.2940 C   0  0  0  0  0  0  0  0  0  0  0  0
   -9.2740    5.0650  -15.9010 N   0  0  0  0  0  0  0  0  0  0  0  0
   -9.7620    4.8320  -17.1850 C   0  0  0  0  0  0  0  0  0  0  0  0
   -8.8920    4.8460  -18.4140 C   0  0  0  0  0  0  0  0  0  0  0  0
   -7.5730    5.0990  -18.1800 N   0  0  0  0  0  0  0  0  0  0  0  0
   -7.3400    4.4650  -20.8500 H   0  0  0  0  0  0  0  0  0  0  0  0
   -5.5410    4.5810  -20.8590 H   0  0  0  0  0  0  0  0  0  0  0  0
   -6.5300    6.0270  -20.9820 H   0  0  0  0  0  0  0  0  0  0  0  0
   -8.8060    6.7340  -13.4560 H   0  0  0  0  0  0  0  0  0  0  0  0
   -9.7430    4.5670  -12.7710 H   0  0  0  0  0  0  0  0  0  0  0  0
   -8.1260    3.9590  -12.5730 H   0  0  0  0  0  0  0  0  0  0  0  0
   -8.4990    2.5160  -11.1040 H   0  0  0  0  0  0  0  0  0  0  0  0
  -10.1050    2.5920  -10.6590 H   0  0  0  0  0  0  0  0  0  0  0  0
   -8.8410    1.1520   -9.0570 H   0  0  0  0  0  0  0  0  0  0  0  0
   -7.7640    2.4220   -8.8360 H   0  0  0  0  0  0  0  0  0  0  0  0
   -9.0980    2.1560   -6.8580 H   0  0  0  0  0  0  0  0  0  0  0  0
  -10.5660    2.5960   -7.7460 H   0  0  0  0  0  0  0  0  0  0  0  0
   -9.9180    4.7140   -6.9820 H   0  0  0  0  0  0  0  0  0  0  0  0
   -8.1860    4.3310   -6.9930 H   0  0  0  0  0  0  0  0  0  0  0  0
   -8.5220    7.4310  -10.6570 H   0  0  0  0  0  0  0  0  0  0  0  0
  -10.8240    4.6330  -17.2790 H   0  0  0  0  0  0  0  0  0  0  0  0
   -9.2410    4.6710  -19.4240 H   0  0  0  0  0  0  0  0  0  0  0  0
  1  2  1  0
  2  3  2  0
  3  4  1  0
  4  5  2  0
  5  6  1  0
  6  7  1  0
  7  8  2  0
  7  9  1  0
  9 10  1  0
 10 11  1  0
 11 12  2  0
 12 13  1  0
 13 14  1  0
 14 15  1  0
 15 16  1  0
 16 17  1  0
 17 18  1  0
 18 19  2  0
  6 20  2  0
 20 21  1  0
 21 22  2  0
 22 23  1  0
 23  2  1  0
 23  5  1  0
 19 11  1  0
 17 12  1  0
  1 24  1  0
  1 25  1  0
  1 26  1  0
  9 27  1  0
 10 28  1  0
 10 29  1  0
 13 30  1  0
 13 31  1  0
 14 32  1  0
 14 33  1  0
 15 34  1  0
 15 35  1  0
 16 36  1  0
 16 37  1  0
 19 38  1  0
 21 39  1  0
 22 40  1  0
A    1
 C1 
A    2
 C2 
A    3
 N1 
A    4
 N2 
A    5
 C3 
A    6
 C4 
A    7
 C5 
A    8
 O1 
A    9
 N3 
A   10
 C6 
A   11
 C7 
A   12
 C8 
A   13
 C9 
A   14
 C10
A   15
 C11
A   16
 C12
A   17
 N4 
A   18
 N5 
A   19
 C13
A   20
 N6 
A   21
 C14
A   22
 C15
A   23
 N7 
A   24
 H1 
A   25
 H2 
A   26
 H3 
A   27
 H4 
A   28
 H5 
A   29
 H6 
A   30
 H7 
A   31
 H8 
A   32
 H9 
A   33
 H10
A   34
 H11
A   35
 H12
A   36
 H13
A   37
 H14
A   38
 H15
A   39
 H16
A   40
 H17
M  END
>  <ref_pdb>  (11) 
x0051_0B

>  <ref_mols>  (11) 
x0435_0B,x0969_1B

>  <original SMILES>  (11) 
[H]c1nn2c(c1C([H])([H])N([H])C(=O)c1nc([H])c([H])n3c(C([H])([H])[H])nnc13)C([H])([H])C([H])([H])C([H])([H])C2([H])[H]

>  <index>  (11) 
164

>  <∆∆G>  (11) 
-6.011745

>  <∆G_bound>  (11) 
-4.884782

>  <∆G_unbound>  (11) 
1.126962

>  <comRMSD>  (11) 
0.465215

>  <N_constrained_atoms>  (11) 
20.0

>  <N_unconstrained_atoms>  (11) 
3.0

>  <runtime>  (11) 
70.246014

>  <LE>  (11) 
0.26138

>  <percent_hybrid>  (11) 
50.0

>  <dist>  (11) 
6.0

>  <ecfp4>  (11) 
0.271605

>  <daylight>  (11) 
0.290503

>  <topodist>  (11) 
1.0

>  <mces>  (11) 
25.0

>  <tdn>  (11) 
0.0

>  <tup>  (11) 
1.0

>  <rdn>  (11) 
0.0

>  <rup>  (11) 
0.0

>  <ldn>  (11) 
0.0

>  <lup>  (11) 
0.0

>  <mut>  (11) 
5.0

>  <maj>  (11) 
5.0

>  <min>  (11) 
0.0

>  <hyb>  (11) 
0.0

>  <sub>  (11) 
0.0

>  <query_index>  (11) 
311.0

>  <max_hit_Tanimoto>  (11) 
0.292256

>  <largest_ring>  (11) 
0

>  <N_interactions_kept>  (11) 
2.5

>  <N_interactions_lost>  (11) 
1.0

>  <interaction_uniqueness_metric>  (11) 
0.182744

>  <ad_hoc_penalty>  (11) 
-29.291714

>  <N_rotatable_bonds>  (11) 
4

>  <N_HA>  (11) 
23

>  <cluster>  (11) 
6069

>  <N_interactions>  (11) 
6

>  <Enamine>  (11) 
1

>  <Mcule>  (11) 
0

>  <N_PAINS>  (11) 
0

>  <UFF_Gibbs>  (11) 
73.384901

>  <strain_per_HA>  (11) 
3.190648

>  <intxn_scored>  (11) 
14.0

>  <saltbridge:HIS:51>  (11) 
0

>  <pistack:HIS:51>  (11) 
1

>  <hydroph_interaction:HIS:51>  (11) 
0

>  <hbond:ALA:132>  (11) 
0

>  <hbond:SER:135>  (11) 
0

>  <hydroph_interaction:TYR:150>  (11) 
0

>  <pistack:TYR:161>  (11) 
2

>  <hydroph_interaction:TYR:161>  (11) 
1

>  <hydroph_interaction:ASP:83>  (11) 
1

>  <hbond:TYR:130>  (11) 
0

>  <hydroph_interaction:ALA:132>  (11) 
0

>  <hbond:HIS:51>  (11) 
0

>  <hbond:ASP:129>  (11) 
0

>  <hbond:TYR:150>  (11) 
0

>  <hbond:GLY:151>  (11) 
0

>  <hbond:TYR:161>  (11) 
1

>  <hydroph_interaction:TYR:130>  (11) 
0

>  <hydroph_interaction:PRO:131>  (11) 
0

>  <hydroph_interaction:ASP:129>  (11) 
0

>  <saltbridge:ASP:75>  (11) 
0

>  <saltbridge:ASP:83>  (11) 
0

>  <hbond:ASN:152>  (11) 
0

>  <hydroph_interaction:ASN:152>  (11) 
0

>  <halogenbond:TYR:150>  (11) 
0

>  <hbond:ASP:83>  (11) 
0

>  <hydroph_interaction:VAL:155>  (11) 
0

>  <pication:TYR:161>  (11) 
0

>  <hbond:PRO:131>  (11) 
0

>  <saltbridge:ASP:129>  (11) 
0

>  <hbond:THR:134>  (11) 
0

>  <pication:HIS:51>  (11) 
0

>  <hbond:SER:81>  (11) 
0

>  <hydroph_interaction:THR:134>  (11) 
0

>  <hydroph_interaction:MET:49>  (11) 
0

$$$$
Z3517821252
     RDKit          3D

 40 43  0  0  0  0  0  0  0  0999 V2000
   -6.4130    5.0690  -20.4910 C   0  0  0  0  0  0  0  0  0  0  0  0
   -6.4690    5.1630  -19.0550 N   0  0  0  0  0  0  0  0  0  0  0  0
   -5.3500    5.3880  -18.3510 N   0  0  0  0  0  0  0  0  0  0  0  0
   -5.6970    5.4290  -17.0510 N   0  0  0  0  0  0  0  0  0  0  0  0
   -7.0560    5.2290  -16.9440 C   0  0  0  0  0  0  0  0  0  0  0  0
   -7.9100    5.1840  -15.8130 C   0  0  0  0  0  0  0  0  0  0  0  0
   -7.3760    5.3660  -14.4960 C   0  0  0  0  0  0  0  0  0  0  0  0
   -6.3080    5.9680  -14.3960 O   0  0  0  0  0  0  0  0  0  0  0  0
   -8.0370    4.8810  -13.3470 N   0  0  0  0  0  0  0  0  0  0  0  0
   -8.8300    5.7800  -12.5080 C   0  0  0  0  0  0  0  0  0  0  0  0
   -8.8630    5.5320  -10.9560 C   0  0  0  0  0  0  0  0  0  0  0  0
   -9.0100    4.3730  -10.0210 C   0  0  0  0  0  0  0  0  0  0  0  0
   -9.1710    2.9230  -10.4450 C   0  0  0  0  0  0  0  0  0  0  0  0
   -8.9740    2.1620   -9.3120 N   0  0  0  0  0  0  0  0  0  0  0  0
   -9.6460    2.6260   -8.0810 C   0  0  0  0  0  0  0  0  0  0  0  0
   -9.1190    3.9820   -7.6020 C   0  0  0  0  0  0  0  0  0  0  0  0
   -8.9810    4.8360   -8.7570 N   0  0  0  0  0  0  0  0  0  0  0  0
   -8.8180    6.1660   -8.6840 N   0  0  0  0  0  0  0  0  0  0  0  0
   -8.7510    6.5740   -9.9750 C   0  0  0  0  0  0  0  0  0  0  0  0
   -9.2940    4.9610  -16.0190 C   0  0  0  0  0  0  0  0  0  0  0  0
   -9.8200    4.7800  -17.3020 C   0  0  0  0  0  0  0  0  0  0  0  0
   -8.9030    4.8260  -18.4920 C   0  0  0  0  0  0  0  0  0  0  0  0
   -7.5600    5.0530  -18.2480 C   0  0  0  0  0  0  0  0  0  0  0  0
   -7.2270    4.4530  -20.8570 H   0  0  0  0  0  0  0  0  0  0  0  0
   -5.4700    4.6260  -20.8290 H   0  0  0  0  0  0  0  0  0  0  0  0
   -6.5080    6.0680  -20.9260 H   0  0  0  0  0  0  0  0  0  0  0  0
   -8.2110    3.8820  -13.2620 H   0  0  0  0  0  0  0  0  0  0  0  0
   -9.8640    5.7430  -12.8760 H   0  0  0  0  0  0  0  0  0  0  0  0
   -8.4670    6.7940  -12.7060 H   0  0  0  0  0  0  0  0  0  0  0  0
   -8.4260    2.6640  -11.2050 H   0  0  0  0  0  0  0  0  0  0  0  0
  -10.1610    2.7130  -10.8570 H   0  0  0  0  0  0  0  0  0  0  0  0
   -9.2190    1.2000   -9.5090 H   0  0  0  0  0  0  0  0  0  0  0  0
  -10.7260    2.6730   -8.2470 H   0  0  0  0  0  0  0  0  0  0  0  0
   -9.4850    1.8890   -7.2870 H   0  0  0  0  0  0  0  0  0  0  0  0
   -8.1330    3.8990   -7.1430 H   0  0  0  0  0  0  0  0  0  0  0  0
   -9.8150    4.4510   -6.9000 H   0  0  0  0  0  0  0  0  0  0  0  0
   -8.6220    7.6450  -10.1640 H   0  0  0  0  0  0  0  0  0  0  0  0
   -9.9600    4.9270  -15.1670 H   0  0  0  0  0  0  0  0  0  0  0  0
  -10.8820    4.6070  -17.4420 H   0  0  0  0  0  0  0  0  0  0  0  0
   -9.2760    4.6900  -19.5070 H   0  0  0  0  0  0  0  0  0  0  0  0
  1  2  1  0
  2  3  1  0
  3  4  2  0
  4  5  1  0
  5  6  2  0
  6  7  1  0
  7  8  2  0
  7  9  1  0
  9 10  1  0
 10 11  1  0
 11 12  2  0
 12 13  1  0
 13 14  1  0
 14 15  1  0
 15 16  1  0
 16 17  1  0
 17 18  1  0
 18 19  2  0
  6 20  1  0
 20 21  2  0
 21 22  1  0
 22 23  2  0
 23  2  1  0
 23  5  1  0
 19 11  1  0
 17 12  1  0
  1 24  1  0
  1 25  1  0
  1 26  1  0
  9 27  1  0
 10 28  1  0
 10 29  1  0
 13 30  1  0
 13 31  1  0
 14 32  1  0
 15 33  1  0
 15 34  1  0
 16 35  1  0
 16 36  1  0
 19 37  1  0
 20 38  1  0
 21 39  1  0
 22 40  1  0
A    1
 C1 
A    2
 N1 
A    3
 N2 
A    4
 N3 
A    5
 C2 
A    6
 C3 
A    7
 C4 
A    8
 O1 
A    9
 N4 
A   10
 C5 
A   11
 C6 
A   12
 C7 
A   13
 C8 
A   14
 N5 
A   15
 C9 
A   16
 C10
A   17
 N6 
A   18
 N7 
A   19
 C11
A   20
 C12
A   21
 C13
A   22
 C14
A   23
 C15
A   24
 H1 
A   25
 H2 
A   26
 H3 
A   27
 H4 
A   28
 H5 
A   29
 H6 
A   30
 H7 
A   31
 H8 
A   32
 H9 
A   33
 H10
A   34
 H11
A   35
 H12
A   36
 H13
A   37
 H14
A   38
 H15
A   39
 H16
A   40
 H17
M  END
>  <ref_pdb>  (12) 
x0051_0B

>  <ref_mols>  (12) 
x0435_0B,x0969_1B

>  <original SMILES>  (12) 
[H]c1nn2c(c1C([H])([H])N([H])C(=O)c1c([H])c([H])c([H])c3c1nnn3C([H])([H])[H])C([H])([H])N([H])C([H])([H])C2([H])[H]

>  <index>  (12) 
1219

>  <∆∆G>  (12) 
-6.378447

>  <∆G_bound>  (12) 
-4.907072

>  <∆G_unbound>  (12) 
1.471375

>  <comRMSD>  (12) 
0.334649

>  <N_constrained_atoms>  (12) 
20.0

>  <N_unconstrained_atoms>  (12) 
3.0

>  <runtime>  (12) 
51.975675

>  <LE>  (12) 
0.277324

>  <percent_hybrid>  (12) 
50.0

>  <dist>  (12) 
6.0

>  <ecfp4>  (12) 
0.280488

>  <daylight>  (12) 
0.413115

>  <topodist>  (12) 
1.0

>  <mces>  (12) 
25.0

>  <tdn>  (12) 
0.0

>  <tup>  (12) 
1.0

>  <rdn>  (12) 
0.0

>  <rup>  (12) 
0.0

>  <ldn>  (12) 
0.0

>  <lup>  (12) 
0.0

>  <mut>  (12) 
5.0

>  <maj>  (12) 
5.0

>  <min>  (12) 
0.0

>  <hyb>  (12) 
0.0

>  <sub>  (12) 
0.0

>  <query_index>  (12) 
311.0

>  <max_hit_Tanimoto>  (12) 
0.465415

>  <largest_ring>  (12) 
6

>  <N_interactions_kept>  (12) 
1.5

>  <N_interactions_lost>  (12) 
2.0

>  <interaction_uniqueness_metric>  (12) 
0.215126

>  <ad_hoc_penalty>  (12) 
-16.953262

>  <N_rotatable_bonds>  (12) 
4

>  <N_HA>  (12) 
23

>  <cluster>  (12) 
5095

>  <N_interactions>  (12) 
5

>  <Enamine>  (12) 
1

>  <Mcule>  (12) 
0

>  <N_PAINS>  (12) 
0

>  <UFF_Gibbs>  (12) 
56.35008

>  <strain_per_HA>  (12) 
2.450003

>  <intxn_scored>  (12) 
14.0

>  <saltbridge:HIS:51>  (12) 
0

>  <pistack:HIS:51>  (12) 
1

>  <hydroph_interaction:HIS:51>  (12) 
0

>  <hbond:ALA:132>  (12) 
0

>  <hbond:SER:135>  (12) 
0

>  <hydroph_interaction:TYR:150>  (12) 
0

>  <pistack:TYR:161>  (12) 
2

>  <hydroph_interaction:TYR:161>  (12) 
0

>  <hydroph_interaction:ASP:83>  (12) 
0

>  <hbond:TYR:130>  (12) 
0

>  <hydroph_interaction:ALA:132>  (12) 
0

>  <hbond:HIS:51>  (12) 
0

>  <hbond:ASP:129>  (12) 
0

>  <hbond:TYR:150>  (12) 
0

>  <hbond:GLY:151>  (12) 
0

>  <hbond:TYR:161>  (12) 
1

>  <hydroph_interaction:TYR:130>  (12) 
0

>  <hydroph_interaction:PRO:131>  (12) 
0

>  <hydroph_interaction:ASP:129>  (12) 
0

>  <saltbridge:ASP:75>  (12) 
0

>  <saltbridge:ASP:83>  (12) 
0

>  <hbond:ASN:152>  (12) 
0

>  <hydroph_interaction:ASN:152>  (12) 
0

>  <halogenbond:TYR:150>  (12) 
0

>  <hbond:ASP:83>  (12) 
1

>  <hydroph_interaction:VAL:155>  (12) 
0

>  <pication:TYR:161>  (12) 
0

>  <hbond:PRO:131>  (12) 
0

>  <saltbridge:ASP:129>  (12) 
0

>  <hbond:THR:134>  (12) 
0

>  <pication:HIS:51>  (12) 
0

>  <hbond:SER:81>  (12) 
0

>  <hydroph_interaction:THR:134>  (12) 
0

>  <hydroph_interaction:MET:49>  (12) 
0

$$$$
Z2916345007
     RDKit          3D

 41 43  0  0  0  0  0  0  0  0999 V2000
   -8.4950    4.6610   -9.1340 C   0  0  0  0  0  0  0  0  0  0  0  0
   -8.5680    4.9350  -10.4800 N   0  0  0  0  0  0  0  0  0  0  0  0
   -8.8680    6.1790  -11.0630 C   0  0  0  0  0  0  0  0  0  0  0  0
   -8.8970    6.2720  -12.3420 N   0  0  0  0  0  0  0  0  0  0  0  0
   -8.5900    4.9610  -12.6960 C   0  0  0  0  0  0  0  0  0  0  0  0
   -8.4840    4.5020  -13.9690 N   0  0  0  0  0  0  0  0  0  0  0  0
   -8.2440    5.4560  -14.8950 C   0  0  0  0  0  0  0  0  0  0  0  0
   -7.7990    6.5640  -14.6200 O   0  0  0  0  0  0  0  0  0  0  0  0
   -8.5100    5.2490  -16.3880 C   0  0  0  0  0  0  0  0  0  0  0  0
   -9.8880    4.7830  -16.7390 C   0  0  0  0  0  0  0  0  0  0  0  0
  -10.1740    4.5920  -18.1830 C   0  0  0  0  0  0  0  0  0  0  0  0
   -9.2370    4.8140  -19.0870 C   0  0  0  0  0  0  0  0  0  0  0  0
   -7.9330    5.2430  -18.7940 C   0  0  0  0  0  0  0  0  0  0  0  0
   -7.6020    5.4530  -17.4310 C   0  0  0  0  0  0  0  0  0  0  0  0
   -6.2730    5.8870  -17.2150 O   0  0  0  0  0  0  0  0  0  0  0  0
   -5.3780    5.3310  -18.1650 C   0  0  0  0  0  0  0  0  0  0  0  0
   -4.8360    6.4310  -19.0470 C   0  0  0  0  0  0  0  0  0  0  0  0
   -5.8750    7.5050  -19.3510 C   0  0  0  0  0  0  0  0  0  0  0  0
   -5.6430    7.8990  -20.7920 C   0  0  0  0  0  0  0  0  0  0  0  0
   -4.5590    6.9580  -21.3250 C   0  0  0  0  0  0  0  0  0  0  0  0
   -4.4250    5.9130  -20.3340 O   0  0  0  0  0  0  0  0  0  0  0  0
   -8.3910    4.1290  -11.5700 C   0  0  0  0  0  0  0  0  0  0  0  0
   -7.4490    4.6850   -8.8130 H   0  0  0  0  0  0  0  0  0  0  0  0
   -9.0610    5.4070   -8.5760 H   0  0  0  0  0  0  0  0  0  0  0  0
   -8.9160    3.6730   -8.9200 H   0  0  0  0  0  0  0  0  0  0  0  0
   -9.0470    6.9600  -10.3160 H   0  0  0  0  0  0  0  0  0  0  0  0
   -8.0100    3.5990  -14.0810 H   0  0  0  0  0  0  0  0  0  0  0  0
  -10.6170    4.5990  -15.9520 H   0  0  0  0  0  0  0  0  0  0  0  0
  -11.1410    4.2650  -18.5820 H   0  0  0  0  0  0  0  0  0  0  0  0
   -9.4940    4.6540  -20.1380 H   0  0  0  0  0  0  0  0  0  0  0  0
   -7.2240    5.4020  -19.5990 H   0  0  0  0  0  0  0  0  0  0  0  0
   -5.8700    4.5950  -18.7950 H   0  0  0  0  0  0  0  0  0  0  0  0
   -4.5590    4.8190  -17.6400 H   0  0  0  0  0  0  0  0  0  0  0  0
   -3.9540    6.8870  -18.5930 H   0  0  0  0  0  0  0  0  0  0  0  0
   -5.7590    8.3720  -18.6910 H   0  0  0  0  0  0  0  0  0  0  0  0
   -6.8910    7.1180  -19.2210 H   0  0  0  0  0  0  0  0  0  0  0  0
   -6.5850    7.7030  -21.3140 H   0  0  0  0  0  0  0  0  0  0  0  0
   -5.4830    8.9820  -20.8270 H   0  0  0  0  0  0  0  0  0  0  0  0
   -4.8720    6.5020  -22.2740 H   0  0  0  0  0  0  0  0  0  0  0  0
   -3.5570    7.3730  -21.4820 H   0  0  0  0  0  0  0  0  0  0  0  0
   -8.1390    3.0660  -11.4850 H   0  0  0  0  0  0  0  0  0  0  0  0
  1  2  1  0
  2  3  1  0
  3  4  2  0
  4  5  1  0
  5  6  1  0
  6  7  1  0
  7  8  2  0
  7  9  1  0
  9 10  2  0
 10 11  1  0
 11 12  2  0
 12 13  1  0
 13 14  2  0
 14 15  1  0
 15 16  1  0
 16 17  1  0
 17 18  1  0
 18 19  1  0
 19 20  1  0
 20 21  1  0
  5 22  2  0
 22  2  1  0
 14  9  1  0
 21 17  1  0
  1 23  1  0
  1 24  1  0
  1 25  1  0
  3 26  1  0
  6 27  1  0
 10 28  1  0
 11 29  1  0
 12 30  1  0
 13 31  1  0
 16 32  1  0
 16 33  1  0
 17 34  1  0
 18 35  1  0
 18 36  1  0
 19 37  1  0
 19 38  1  0
 20 39  1  0
 20 40  1  0
 22 41  1  0
A    1
 C1 
A    2
 N1 
A    3
 C2 
A    4
 N2 
A    5
 C3 
A    6
 N3 
A    7
 C4 
A    8
 O1 
A    9
 C5 
A   10
 C6 
A   11
 C7 
A   12
 C8 
A   13
 C9 
A   14
 C10
A   15
 O2 
A   16
 C11
A   17
 C12
A   18
 C13
A   19
 C14
A   20
 C15
A   21
 O3 
A   22
 C16
A   23
 H1 
A   24
 H2 
A   25
 H3 
A   26
 H4 
A   27
 H5 
A   28
 H6 
A   29
 H7 
A   30
 H8 
A   31
 H9 
A   32
 H10
A   33
 H11
A   34
 H12
A   35
 H13
A   36
 H14
A   37
 H15
A   38
 H16
A   39
 H17
A   40
 H18
A   41
 H19
M  END
>  <ref_pdb>  (13) 
x0051_0B

>  <ref_mols>  (13) 
x1098_0B,x0229_0B

>  <original SMILES>  (13) 
[H]c1c([H])c([H])c(C(=O)N([H])c2nc([H])n(C([H])([H])[H])c2[H])c(OC([H])([H])C2([H])OC([H])([H])C([H])([H])C2([H])[H])c1[H]

>  <index>  (13) 
554

>  <∆∆G>  (13) 
-8.917257

>  <∆G_bound>  (13) 
-6.159106

>  <∆G_unbound>  (13) 
2.758151

>  <comRMSD>  (13) 
0.638841

>  <N_constrained_atoms>  (13) 
26.0

>  <N_unconstrained_atoms>  (13) 
0.0

>  <runtime>  (13) 
46.720654

>  <LE>  (13) 
0.342971

>  <percent_hybrid>  (13) 
43.0

>  <dist>  (13) 
7.0

>  <ecfp4>  (13) 
0.247191

>  <daylight>  (13) 
0.254072

>  <topodist>  (13) 
3.0

>  <mces>  (13) 
24.0

>  <tdn>  (13) 
2.0

>  <tup>  (13) 
0.0

>  <rdn>  (13) 
1.0

>  <rup>  (13) 
0.0

>  <ldn>  (13) 
0.0

>  <lup>  (13) 
0.0

>  <mut>  (13) 
4.0

>  <maj>  (13) 
4.0

>  <min>  (13) 
0.0

>  <hyb>  (13) 
0.0

>  <sub>  (13) 
2.0

>  <query_index>  (13) 
28.0

>  <max_hit_Tanimoto>  (13) 
0.322176

>  <largest_ring>  (13) 
6

>  <N_interactions_kept>  (13) 
2.0

>  <N_interactions_lost>  (13) 
3.5

>  <interaction_uniqueness_metric>  (13) 
0.431659

>  <ad_hoc_penalty>  (13) 
-21.509973

>  <N_rotatable_bonds>  (13) 
6

>  <N_HA>  (13) 
22

>  <cluster>  (13) 
461

>  <N_interactions>  (13) 
8

>  <Enamine>  (13) 
1

>  <Mcule>  (13) 
0

>  <N_PAINS>  (13) 
0

>  <UFF_Gibbs>  (13) 
140.7374

>  <strain_per_HA>  (13) 
6.397155

>  <intxn_scored>  (13) 
14.0

>  <saltbridge:HIS:51>  (13) 
0

>  <pistack:HIS:51>  (13) 
1

>  <hydroph_interaction:HIS:51>  (13) 
0

>  <hbond:ALA:132>  (13) 
0

>  <hbond:SER:135>  (13) 
0

>  <hydroph_interaction:TYR:150>  (13) 
1

>  <pistack:TYR:161>  (13) 
1

>  <hydroph_interaction:TYR:161>  (13) 
0

>  <hydroph_interaction:ASP:83>  (13) 
0

>  <hbond:TYR:130>  (13) 
0

>  <hydroph_interaction:ALA:132>  (13) 
1

>  <hbond:HIS:51>  (13) 
0

>  <hbond:ASP:129>  (13) 
0

>  <hbond:TYR:150>  (13) 
0

>  <hbond:GLY:151>  (13) 
0

>  <hbond:TYR:161>  (13) 
2

>  <hydroph_interaction:TYR:130>  (13) 
0

>  <hydroph_interaction:PRO:131>  (13) 
0

>  <hydroph_interaction:ASP:129>  (13) 
0

>  <saltbridge:ASP:75>  (13) 
0

>  <saltbridge:ASP:83>  (13) 
1

>  <hbond:ASN:152>  (13) 
0

>  <hydroph_interaction:ASN:152>  (13) 
0

>  <halogenbond:TYR:150>  (13) 
0

>  <hbond:ASP:83>  (13) 
0

>  <hydroph_interaction:VAL:155>  (13) 
0

>  <pication:TYR:161>  (13) 
0

>  <hbond:PRO:131>  (13) 
0

>  <saltbridge:ASP:129>  (13) 
0

>  <hbond:THR:134>  (13) 
0

>  <pication:HIS:51>  (13) 
1

>  <hbond:SER:81>  (13) 
0

>  <hydroph_interaction:THR:134>  (13) 
0

>  <hydroph_interaction:MET:49>  (13) 
0

$$$$
PV-003800694332
     RDKit          3D

 30 32  0  0  0  0  0  0  0  0999 V2000
   -8.6260    4.4170   -9.2080 C   0  0  0  0  0  0  0  0  0  0  0  0
   -8.7180    5.0140  -10.5290 N   0  0  0  0  0  0  0  0  0  0  0  0
   -8.6140    4.2130  -11.7130 C   0  0  0  0  0  0  0  0  0  0  0  0
   -8.7470    5.1540  -12.8320 C   0  0  0  0  0  0  0  0  0  0  0  0
   -8.6840    4.7460  -14.2550 N   0  0  0  0  0  0  0  0  0  0  0  0
   -8.1410    5.5580  -15.2220 C   0  0  0  0  0  0  0  0  0  0  0  0
   -7.3170    6.6940  -14.9790 O   0  0  0  0  0  0  0  0  0  0  0  0
   -8.4610    5.2530  -16.5590 C   0  0  0  0  0  0  0  0  0  0  0  0
   -9.7410    4.8490  -16.8720 C   0  0  0  0  0  0  0  0  0  0  0  0
  -10.1090    4.5530  -18.2080 C   0  0  0  0  0  0  0  0  0  0  0  0
   -9.1960    4.6490  -19.2510 C   0  0  0  0  0  0  0  0  0  0  0  0
   -7.9130    5.0470  -18.9310 C   0  0  0  0  0  0  0  0  0  0  0  0
   -7.5430    5.3460  -17.6320 C   0  0  0  0  0  0  0  0  0  0  0  0
   -6.1480    5.7390  -17.5980 C   0  0  0  0  0  0  0  0  0  0  0  0
   -5.3430    6.1510  -16.3700 C   0  0  0  0  0  0  0  0  0  0  0  0
   -4.0130    5.7810  -16.2250 N   0  0  0  0  0  0  0  0  0  0  0  0
   -5.6350    5.6670  -19.0090 C   0  0  0  0  0  0  0  0  0  0  0  0
   -6.7590    5.2420  -19.7420 N   0  0  0  0  0  0  0  0  0  0  0  0
   -8.9190    6.4070  -12.2650 N   0  0  0  0  0  0  0  0  0  0  0  0
   -8.8990    6.3150  -10.8870 N   0  0  0  0  0  0  0  0  0  0  0  0
   -9.3560    4.8550   -8.5240 H   0  0  0  0  0  0  0  0  0  0  0  0
   -8.8400    3.3470   -9.2880 H   0  0  0  0  0  0  0  0  0  0  0  0
   -7.6200    4.5410   -8.7950 H   0  0  0  0  0  0  0  0  0  0  0  0
   -8.4640    3.1280  -11.7670 H   0  0  0  0  0  0  0  0  0  0  0  0
   -9.2070    3.9060  -14.4970 H   0  0  0  0  0  0  0  0  0  0  0  0
  -10.4640    4.7620  -16.0760 H   0  0  0  0  0  0  0  0  0  0  0  0
  -11.1290    4.2460  -18.4230 H   0  0  0  0  0  0  0  0  0  0  0  0
   -9.4850    4.4210  -20.2730 H   0  0  0  0  0  0  0  0  0  0  0  0
   -4.6720    5.8650  -19.4640 H   0  0  0  0  0  0  0  0  0  0  0  0
   -6.7490    5.0910  -20.7450 H   0  0  0  0  0  0  0  0  0  0  0  0
  1  2  1  0
  2  3  1  0
  3  4  2  0
  4  5  1  0
  5  6  1  0
  6  7  2  0
  6  8  1  0
  8  9  2  0
  9 10  1  0
 10 11  2  0
 11 12  1  0
 12 13  2  0
 13 14  1  0
 14 15  1  0
 15 16  3  0
 14 17  2  0
 17 18  1  0
  4 19  1  0
 19 20  2  0
 20  2  1  0
 13  8  1  0
 18 12  1  0
  1 21  1  0
  1 22  1  0
  1 23  1  0
  3 24  1  0
  5 25  1  0
  9 26  1  0
 10 27  1  0
 11 28  1  0
 17 29  1  0
 18 30  1  0
A    1
 C1 
A    2
 N1 
A    3
 C2 
A    4
 C3 
A    5
 N2 
A    6
 C4 
A    7
 O1 
A    8
 C5 
A    9
 C6 
A   10
 C7 
A   11
 C8 
A   12
 C9 
A   13
 C10
A   14
 C11
A   15
 C12
A   16
 N3 
A   17
 C13
A   18
 N4 
A   19
 N5 
A   20
 N6 
A   21
 H1 
A   22
 H2 
A   23
 H3 
A   24
 H4 
A   25
 H5 
A   26
 H6 
A   27
 H7 
A   28
 H8 
A   29
 H9 
A   30
 H10
M  END
>  <ref_pdb>  (14) 
x0051_0B

>  <ref_mols>  (14) 
x1098_0B,x0490_0B

>  <original SMILES>  (14) 
[H]c1c([H])c([H])c2c(c(C#N)c([H])n2[H])c1C(=O)N([H])c1nnn(C([H])([H])[H])c1[H]

>  <index>  (14) 
932

>  <∆∆G>  (14) 
-8.637471

>  <∆G_bound>  (14) 
-6.89216

>  <∆G_unbound>  (14) 
1.74531

>  <comRMSD>  (14) 
0.423256

>  <N_constrained_atoms>  (14) 
19.0

>  <N_unconstrained_atoms>  (14) 
1.0

>  <runtime>  (14) 
47.781793

>  <LE>  (14) 
0.431874

>  <percent_hybrid>  (14) 
10.0

>  <dist>  (14) 
5.0

>  <ecfp4>  (14) 
0.333333

>  <daylight>  (14) 
0.297872

>  <topodist>  (14) 
0.0

>  <mces>  (14) 
22.0

>  <tdn>  (14) 
0.0

>  <tup>  (14) 
0.0

>  <rdn>  (14) 
0.0

>  <rup>  (14) 
0.0

>  <ldn>  (14) 
0.0

>  <lup>  (14) 
0.0

>  <mut>  (14) 
3.0

>  <maj>  (14) 
3.0

>  <min>  (14) 
0.0

>  <hyb>  (14) 
2.0

>  <sub>  (14) 
0.0

>  <query_index>  (14) 
69.0

>  <max_hit_Tanimoto>  (14) 
0.339585

>  <largest_ring>  (14) 
6

>  <N_interactions_kept>  (14) 
2.0

>  <N_interactions_lost>  (14) 
4.0

>  <interaction_uniqueness_metric>  (14) 
0.392818

>  <ad_hoc_penalty>  (14) 
-11.849729

>  <N_rotatable_bonds>  (14) 
3

>  <N_HA>  (14) 
20

>  <cluster>  (14) 
5366

>  <N_interactions>  (14) 
7

>  <Enamine>  (14) 
1

>  <Mcule>  (14) 
0

>  <N_PAINS>  (14) 
0

>  <UFF_Gibbs>  (14) 
231.172675

>  <strain_per_HA>  (14) 
11.558634

>  <intxn_scored>  (14) 
13.5

>  <saltbridge:HIS:51>  (14) 
0

>  <pistack:HIS:51>  (14) 
1

>  <hydroph_interaction:HIS:51>  (14) 
0

>  <hbond:ALA:132>  (14) 
0

>  <hbond:SER:135>  (14) 
0

>  <hydroph_interaction:TYR:150>  (14) 
1

>  <pistack:TYR:161>  (14) 
2

>  <hydroph_interaction:TYR:161>  (14) 
0

>  <hydroph_interaction:ASP:83>  (14) 
0

>  <hbond:TYR:130>  (14) 
0

>  <hydroph_interaction:ALA:132>  (14) 
0

>  <hbond:HIS:51>  (14) 
0

>  <hbond:ASP:129>  (14) 
0

>  <hbond:TYR:150>  (14) 
0

>  <hbond:GLY:151>  (14) 
1

>  <hbond:TYR:161>  (14) 
0

>  <hydroph_interaction:TYR:130>  (14) 
0

>  <hydroph_interaction:PRO:131>  (14) 
0

>  <hydroph_interaction:ASP:129>  (14) 
0

>  <saltbridge:ASP:75>  (14) 
0

>  <saltbridge:ASP:83>  (14) 
1

>  <hbond:ASN:152>  (14) 
0

>  <hydroph_interaction:ASN:152>  (14) 
0

>  <halogenbond:TYR:150>  (14) 
0

>  <hbond:ASP:83>  (14) 
0

>  <hydroph_interaction:VAL:155>  (14) 
0

>  <pication:TYR:161>  (14) 
0

>  <hbond:PRO:131>  (14) 
0

>  <saltbridge:ASP:129>  (14) 
0

>  <hbond:THR:134>  (14) 
0

>  <pication:HIS:51>  (14) 
1

>  <hbond:SER:81>  (14) 
0

>  <hydroph_interaction:THR:134>  (14) 
0

>  <hydroph_interaction:MET:49>  (14) 
0

$$$$
Z4380279662
     RDKit          3D

 41 44  0  0  0  0  0  0  0  0999 V2000
   -9.8000    4.7990  -18.4920 C   0  0  0  0  0  0  0  0  0  0  0  0
   -9.0420    5.0100  -17.2690 N   0  0  0  0  0  0  0  0  0  0  0  0
   -9.6400    4.7990  -16.0840 N   0  0  0  0  0  0  0  0  0  0  0  0
   -8.6890    5.0460  -15.1640 C   0  0  0  0  0  0  0  0  0  0  0  0
   -8.9400    4.8660  -13.6820 C   0  0  0  0  0  0  0  0  0  0  0  0
   -8.5370    6.2450  -12.5460 S   0  0  0  0  0  0  0  0  0  0  0  0
   -8.7240    5.8070  -10.8350 C   0  0  0  0  0  0  0  0  0  0  0  0
   -8.9670    4.4930  -10.1200 C   0  0  0  0  0  0  0  0  0  0  0  0
   -9.1480    3.0740  -10.5240 C   0  0  0  0  0  0  0  0  0  0  0  0
   -8.9880    2.1550   -9.3890 N   0  0  0  0  0  0  0  0  0  0  0  0
   -9.7160    2.6020   -8.1930 C   0  0  0  0  0  0  0  0  0  0  0  0
   -9.2060    3.9390   -7.6750 C   0  0  0  0  0  0  0  0  0  0  0  0
   -9.0020    4.8550   -8.7870 N   0  0  0  0  0  0  0  0  0  0  0  0
   -8.8270    6.1650   -8.5480 N   0  0  0  0  0  0  0  0  0  0  0  0
   -8.6650    6.7230   -9.7590 C   0  0  0  0  0  0  0  0  0  0  0  0
   -7.4980    5.4390  -15.7620 N   0  0  0  0  0  0  0  0  0  0  0  0
   -7.7300    5.4030  -17.0910 C   0  0  0  0  0  0  0  0  0  0  0  0
   -6.7390    5.7150  -18.1530 C   0  0  0  0  0  0  0  0  0  0  0  0
   -5.4380    5.2140  -18.0980 C   0  0  0  0  0  0  0  0  0  0  0  0
   -4.3390    5.4440  -19.1020 C   0  0  0  0  0  0  0  0  0  0  0  0
   -4.8010    6.3360  -20.2600 C   0  0  0  0  0  0  0  0  0  0  0  0
   -6.0970    6.7970  -20.2510 C   0  0  0  0  0  0  0  0  0  0  0  0
   -7.0360    6.5150  -19.2690 C   0  0  0  0  0  0  0  0  0  0  0  0
   -9.3270    5.3240  -19.3270 H   0  0  0  0  0  0  0  0  0  0  0  0
  -10.8170    5.1790  -18.3460 H   0  0  0  0  0  0  0  0  0  0  0  0
   -9.8110    3.7290  -18.7060 H   0  0  0  0  0  0  0  0  0  0  0  0
   -8.4290    3.9580  -13.3440 H   0  0  0  0  0  0  0  0  0  0  0  0
  -10.0050    4.6600  -13.5500 H   0  0  0  0  0  0  0  0  0  0  0  0
  -10.1300    2.9230  -10.9750 H   0  0  0  0  0  0  0  0  0  0  0  0
   -8.4060    2.7980  -11.2800 H   0  0  0  0  0  0  0  0  0  0  0  0
   -7.9980    2.1420   -9.1750 H   0  0  0  0  0  0  0  0  0  0  0  0
   -9.6290    1.8330   -7.4120 H   0  0  0  0  0  0  0  0  0  0  0  0
  -10.7760    2.6840   -8.4280 H   0  0  0  0  0  0  0  0  0  0  0  0
   -9.9130    4.3890   -6.9710 H   0  0  0  0  0  0  0  0  0  0  0  0
   -8.2350    3.8240   -7.1870 H   0  0  0  0  0  0  0  0  0  0  0  0
   -8.5070    7.7930   -9.8000 H   0  0  0  0  0  0  0  0  0  0  0  0
   -5.1710    4.5910  -17.2490 H   0  0  0  0  0  0  0  0  0  0  0  0
   -3.3380    5.0270  -19.0150 H   0  0  0  0  0  0  0  0  0  0  0  0
   -4.1130    6.6000  -21.0760 H   0  0  0  0  0  0  0  0  0  0  0  0
   -6.4240    7.4330  -21.0840 H   0  0  0  0  0  0  0  0  0  0  0  0
   -8.0000    6.9280  -19.4010 H   0  0  0  0  0  0  0  0  0  0  0  0
  1  2  1  0
  2  3  1  0
  3  4  2  0
  4  5  1  0
  5  6  1  0
  6  7  1  0
  7  8  2  0
  8  9  1  0
  9 10  1  0
 10 11  1  0
 11 12  1  0
 12 13  1  0
 13 14  1  0
 14 15  2  0
  4 16  1  0
 16 17  2  0
 17 18  1  0
 18 19  2  0
 19 20  1  0
 20 21  2  0
 21 22  1  0
 22 23  2  0
 17  2  1  0
 15  7  1  0
 13  8  1  0
 23 18  1  0
  1 24  1  0
  1 25  1  0
  1 26  1  0
  5 27  1  0
  5 28  1  0
  9 29  1  0
  9 30  1  0
 10 31  1  0
 11 32  1  0
 11 33  1  0
 12 34  1  0
 12 35  1  0
 15 36  1  0
 19 37  1  0
 20 38  1  0
 21 39  1  0
 22 40  1  0
 23 41  1  0
A    1
 C1 
A    2
 N1 
A    3
 N2 
A    4
 C2 
A    5
 C3 
A    6
 S1 
A    7
 C4 
A    8
 C5 
A    9
 C6 
A   10
 N3 
A   11
 C7 
A   12
 C8 
A   13
 N4 
A   14
 N5 
A   15
 C9 
A   16
 N6 
A   17
 C10
A   18
 C11
A   19
 C12
A   20
 C13
A   21
 C14
A   22
 C15
A   23
 C16
A   24
 H1 
A   25
 H2 
A   26
 H3 
A   27
 H4 
A   28
 H5 
A   29
 H6 
A   30
 H7 
A   31
 H8 
A   32
 H9 
A   33
 H10
A   34
 H11
A   35
 H12
A   36
 H13
A   37
 H14
A   38
 H15
A   39
 H16
A   40
 H17
A   41
 H18
M  END
>  <ref_pdb>  (15) 
x0051_0B

>  <ref_mols>  (15) 
x0969_1B,x0803_0B

>  <original SMILES>  (15) 
[H]c1nn2c(c1SC([H])([H])c1nc(-c3c([H])c([H])c([H])c([H])c3[H])n(C([H])([H])[H])n1)C([H])([H])N([H])C([H])([H])C2([H])[H]

>  <index>  (15) 
1943

>  <∆∆G>  (15) 
-6.885521

>  <∆G_bound>  (15) 
-6.473931

>  <∆G_unbound>  (15) 
0.41159

>  <comRMSD>  (15) 
0.543201

>  <N_constrained_atoms>  (15) 
22.0

>  <N_unconstrained_atoms>  (15) 
1.0

>  <runtime>  (15) 
39.352305

>  <LE>  (15) 
0.29937

>  <percent_hybrid>  (15) 
46.0

>  <dist>  (15) 
11.0

>  <ecfp4>  (15) 
0.275

>  <daylight>  (15) 
0.37299

>  <topodist>  (15) 
1.0

>  <mces>  (15) 
26.0

>  <tdn>  (15) 
0.0

>  <tup>  (15) 
0.0

>  <rdn>  (15) 
0.0

>  <rup>  (15) 
0.0

>  <ldn>  (15) 
1.0

>  <lup>  (15) 
0.0

>  <mut>  (15) 
5.0

>  <maj>  (15) 
4.0

>  <min>  (15) 
1.0

>  <hyb>  (15) 
5.0

>  <sub>  (15) 
0.0

>  <query_index>  (15) 
360.0

>  <max_hit_Tanimoto>  (15) 
0.377251

>  <largest_ring>  (15) 
6

>  <N_interactions_kept>  (15) 
2.0

>  <N_interactions_lost>  (15) 
4.0

>  <interaction_uniqueness_metric>  (15) 
0.247948

>  <ad_hoc_penalty>  (15) 
-11.477657

>  <N_rotatable_bonds>  (15) 
5

>  <N_HA>  (15) 
23

>  <cluster>  (15) 
4437

>  <N_interactions>  (15) 
8

>  <Enamine>  (15) 
1

>  <Mcule>  (15) 
0

>  <N_PAINS>  (15) 
0

>  <UFF_Gibbs>  (15) 
78.547653

>  <strain_per_HA>  (15) 
3.415115

>  <intxn_scored>  (15) 
13.5

>  <saltbridge:HIS:51>  (15) 
0

>  <pistack:HIS:51>  (15) 
1

>  <hydroph_interaction:HIS:51>  (15) 
0

>  <hbond:ALA:132>  (15) 
0

>  <hbond:SER:135>  (15) 
0

>  <hydroph_interaction:TYR:150>  (15) 
0

>  <pistack:TYR:161>  (15) 
1

>  <hydroph_interaction:TYR:161>  (15) 
3

>  <hydroph_interaction:ASP:83>  (15) 
0

>  <hbond:TYR:130>  (15) 
0

>  <hydroph_interaction:ALA:132>  (15) 
1

>  <hbond:HIS:51>  (15) 
0

>  <hbond:ASP:129>  (15) 
0

>  <hbond:TYR:150>  (15) 
0

>  <hbond:GLY:151>  (15) 
0

>  <hbond:TYR:161>  (15) 
1

>  <hydroph_interaction:TYR:130>  (15) 
0

>  <hydroph_interaction:PRO:131>  (15) 
0

>  <hydroph_interaction:ASP:129>  (15) 
0

>  <saltbridge:ASP:75>  (15) 
0

>  <saltbridge:ASP:83>  (15) 
0

>  <hbond:ASN:152>  (15) 
0

>  <hydroph_interaction:ASN:152>  (15) 
0

>  <halogenbond:TYR:150>  (15) 
0

>  <hbond:ASP:83>  (15) 
1

>  <hydroph_interaction:VAL:155>  (15) 
0

>  <pication:TYR:161>  (15) 
0

>  <hbond:PRO:131>  (15) 
0

>  <saltbridge:ASP:129>  (15) 
0

>  <hbond:THR:134>  (15) 
0

>  <pication:HIS:51>  (15) 
0

>  <hbond:SER:81>  (15) 
0

>  <hydroph_interaction:THR:134>  (15) 
0

>  <hydroph_interaction:MET:49>  (15) 
0

$$$$
Z2879272396
     RDKit          3D

 43 45  0  0  0  0  0  0  0  0999 V2000
   -8.5020    4.5580   -8.8670 C   0  0  0  0  0  0  0  0  0  0  0  0
   -8.6390    5.0480  -10.2710 C   0  0  0  0  0  0  0  0  0  0  0  0
   -8.8090    6.3580  -10.4910 N   0  0  0  0  0  0  0  0  0  0  0  0
   -8.9380    6.6070  -12.1300 S   0  0  0  0  0  0  0  0  0  0  0  0
   -8.7610    4.9790  -12.5600 C   0  0  0  0  0  0  0  0  0  0  0  0
   -8.8030    4.7270  -13.8920 N   0  0  0  0  0  0  0  0  0  0  0  0
   -8.2620    5.6560  -14.7500 C   0  0  0  0  0  0  0  0  0  0  0  0
   -7.6930    6.6980  -14.4640 O   0  0  0  0  0  0  0  0  0  0  0  0
   -8.4150    5.3240  -16.0810 C   0  0  0  0  0  0  0  0  0  0  0  0
   -9.6360    4.8890  -16.5570 C   0  0  0  0  0  0  0  0  0  0  0  0
   -9.7840    4.5350  -17.9860 C   0  0  0  0  0  0  0  0  0  0  0  0
   -8.6730    4.6470  -18.7990 C   0  0  0  0  0  0  0  0  0  0  0  0
   -8.6020    4.3570  -20.1270 N   0  0  0  0  0  0  0  0  0  0  0  0
   -7.3130    4.6410  -20.5350 C   0  0  0  0  0  0  0  0  0  0  0  0
   -6.9190    4.5010  -21.8750 O   0  0  0  0  0  0  0  0  0  0  0  0
   -6.5640    5.0690  -19.4510 N   0  0  0  0  0  0  0  0  0  0  0  0
   -5.2390    5.6120  -19.6210 C   0  0  0  0  0  0  0  0  0  0  0  0
   -4.8880    5.4520  -21.1070 C   0  0  0  0  0  0  0  0  0  0  0  0
   -3.5300    5.8410  -21.5640 N   0  0  0  0  0  0  0  0  0  0  0  0
   -3.5840    5.7700  -23.0260 C   0  0  0  0  0  0  0  0  0  0  0  0
   -2.4870    4.9100  -21.1250 C   0  0  0  0  0  0  0  0  0  0  0  0
   -7.3990    5.0780  -18.4180 C   0  0  0  0  0  0  0  0  0  0  0  0
   -7.1650    5.4660  -16.9670 C   0  0  0  0  0  0  0  0  0  0  0  0
   -8.6060    4.2150  -11.4350 C   0  0  0  0  0  0  0  0  0  0  0  0
   -7.4760    4.6880   -8.5040 H   0  0  0  0  0  0  0  0  0  0  0  0
   -9.1580    5.1170   -8.1920 H   0  0  0  0  0  0  0  0  0  0  0  0
   -8.7650    3.4950   -8.8160 H   0  0  0  0  0  0  0  0  0  0  0  0
   -9.2620    3.9130  -14.3130 H   0  0  0  0  0  0  0  0  0  0  0  0
  -10.4880    4.7990  -15.9040 H   0  0  0  0  0  0  0  0  0  0  0  0
  -10.7250    4.1920  -18.3950 H   0  0  0  0  0  0  0  0  0  0  0  0
   -9.1280    3.6520  -20.6190 H   0  0  0  0  0  0  0  0  0  0  0  0
   -5.3140    6.6910  -19.4190 H   0  0  0  0  0  0  0  0  0  0  0  0
   -4.6000    5.1980  -18.8460 H   0  0  0  0  0  0  0  0  0  0  0  0
   -5.0100    4.3960  -21.3550 H   0  0  0  0  0  0  0  0  0  0  0  0
   -5.5790    5.9750  -21.7670 H   0  0  0  0  0  0  0  0  0  0  0  0
   -3.4080    4.7400  -23.3590 H   0  0  0  0  0  0  0  0  0  0  0  0
   -2.8240    6.4280  -23.4640 H   0  0  0  0  0  0  0  0  0  0  0  0
   -4.5600    6.0970  -23.4190 H   0  0  0  0  0  0  0  0  0  0  0  0
   -2.5500    4.7340  -20.0560 H   0  0  0  0  0  0  0  0  0  0  0  0
   -2.5570    3.9330  -21.6210 H   0  0  0  0  0  0  0  0  0  0  0  0
   -1.4830    5.3030  -21.3250 H   0  0  0  0  0  0  0  0  0  0  0  0
   -6.1970    5.8100  -16.5940 H   0  0  0  0  0  0  0  0  0  0  0  0
   -8.4750    3.1240  -11.4260 H   0  0  0  0  0  0  0  0  0  0  0  0
  1  2  1  0
  2  3  2  0
  3  4  1  0
  4  5  1  0
  5  6  1  0
  6  7  1  0
  7  8  2  0
  7  9  1  0
  9 10  2  0
 10 11  1  0
 11 12  2  0
 12 13  1  0
 13 14  1  0
 14 15  2  0
 14 16  1  0
 16 17  1  0
 17 18  1  0
 18 19  1  0
 19 20  1  0
 19 21  1  0
 16 22  1  0
 22 23  2  0
  5 24  2  0
 24  2  1  0
 23  9  1  0
 22 12  1  0
  1 25  1  0
  1 26  1  0
  1 27  1  0
  6 28  1  0
 10 29  1  0
 11 30  1  0
 13 31  1  0
 17 32  1  0
 17 33  1  0
 18 34  1  0
 18 35  1  0
 20 36  1  0
 20 37  1  0
 20 38  1  0
 21 39  1  0
 21 40  1  0
 21 41  1  0
 23 42  1  0
 24 43  1  0
A    1
 C1 
A    2
 C2 
A    3
 N1 
A    4
 S1 
A    5
 C3 
A    6
 N2 
A    7
 C4 
A    8
 O1 
A    9
 C5 
A   10
 C6 
A   11
 C7 
A   12
 C8 
A   13
 N3 
A   14
 C9 
A   15
 O2 
A   16
 N4 
A   17
 C10
A   18
 C11
A   19
 N5 
A   20
 C12
A   21
 C13
A   22
 C14
A   23
 C15
A   24
 C16
A   25
 H1 
A   26
 H2 
A   27
 H3 
A   28
 H4 
A   29
 H5 
A   30
 H6 
A   31
 H7 
A   32
 H8 
A   33
 H9 
A   34
 H10
A   35
 H11
A   36
 H12
A   37
 H13
A   38
 H14
A   39
 H15
A   40
 H16
A   41
 H17
A   42
 H18
A   43
 H19
M  END
>  <ref_pdb>  (16) 
x0051_0B

>  <ref_mols>  (16) 
x0904_0B,x1098_0B

>  <original SMILES>  (16) 
[H]c1c(C([H])([H])[H])nsc1N([H])C(=O)c1c([H])c([H])c2c(c1[H])n(C([H])([H])C([H])([H])N(C([H])([H])[H])C([H])([H])[H])c(=O)n2[H]

>  <index>  (16) 
466

>  <∆∆G>  (16) 
-8.493186

>  <∆G_bound>  (16) 
-7.815104

>  <∆G_unbound>  (16) 
0.678082

>  <comRMSD>  (16) 
0.940284

>  <N_constrained_atoms>  (16) 
24.0

>  <N_unconstrained_atoms>  (16) 
2.0

>  <runtime>  (16) 
66.244028

>  <LE>  (16) 
0.326661

>  <percent_hybrid>  (16) 
42.0

>  <dist>  (16) 
8.0

>  <ecfp4>  (16) 
0.227273

>  <daylight>  (16) 
0.358079

>  <topodist>  (16) 
2.0

>  <mces>  (16) 
25.0

>  <tdn>  (16) 
1.0

>  <tup>  (16) 
0.0

>  <rdn>  (16) 
0.0

>  <rup>  (16) 
1.0

>  <ldn>  (16) 
0.0

>  <lup>  (16) 
0.0

>  <mut>  (16) 
4.0

>  <maj>  (16) 
4.0

>  <min>  (16) 
0.0

>  <hyb>  (16) 
2.0

>  <sub>  (16) 
1.0

>  <query_index>  (16) 
34.0

>  <max_hit_Tanimoto>  (16) 
0.28446

>  <largest_ring>  (16) 
0

>  <N_interactions_kept>  (16) 
3.0

>  <N_interactions_lost>  (16) 
3.0

>  <interaction_uniqueness_metric>  (16) 
0.395893

>  <ad_hoc_penalty>  (16) 
-21.567125

>  <N_rotatable_bonds>  (16) 
8

>  <N_HA>  (16) 
24

>  <cluster>  (16) 
511

>  <N_interactions>  (16) 
9

>  <Enamine>  (16) 
1

>  <Mcule>  (16) 
0

>  <N_PAINS>  (16) 
0

>  <UFF_Gibbs>  (16) 
165.953999

>  <strain_per_HA>  (16) 
6.91475

>  <intxn_scored>  (16) 
13.5

>  <saltbridge:HIS:51>  (16) 
0

>  <pistack:HIS:51>  (16) 
1

>  <hydroph_interaction:HIS:51>  (16) 
1

>  <hbond:ALA:132>  (16) 
0

>  <hbond:SER:135>  (16) 
0

>  <hydroph_interaction:TYR:150>  (16) 
0

>  <pistack:TYR:161>  (16) 
2

>  <hydroph_interaction:TYR:161>  (16) 
0

>  <hydroph_interaction:ASP:83>  (16) 
0

>  <hbond:TYR:130>  (16) 
1

>  <hydroph_interaction:ALA:132>  (16) 
0

>  <hbond:HIS:51>  (16) 
0

>  <hbond:ASP:129>  (16) 
1

>  <hbond:TYR:150>  (16) 
1

>  <hbond:GLY:151>  (16) 
1

>  <hbond:TYR:161>  (16) 
0

>  <hydroph_interaction:TYR:130>  (16) 
0

>  <hydroph_interaction:PRO:131>  (16) 
0

>  <hydroph_interaction:ASP:129>  (16) 
0

>  <saltbridge:ASP:75>  (16) 
0

>  <saltbridge:ASP:83>  (16) 
0

>  <hbond:ASN:152>  (16) 
0

>  <hydroph_interaction:ASN:152>  (16) 
0

>  <halogenbond:TYR:150>  (16) 
0

>  <hbond:ASP:83>  (16) 
0

>  <hydroph_interaction:VAL:155>  (16) 
0

>  <pication:TYR:161>  (16) 
0

>  <hbond:PRO:131>  (16) 
0

>  <saltbridge:ASP:129>  (16) 
1

>  <hbond:THR:134>  (16) 
0

>  <pication:HIS:51>  (16) 
0

>  <hbond:SER:81>  (16) 
0

>  <hydroph_interaction:THR:134>  (16) 
0

>  <hydroph_interaction:MET:49>  (16) 
0

$$$$
Z3550931212
     RDKit          3D

 39 41  0  0  0  0  0  0  0  0999 V2000
   -8.5290    4.5310   -9.0810 C   0  0  0  0  0  0  0  0  0  0  0  0
   -8.6000    4.9300  -10.4490 N   0  0  0  0  0  0  0  0  0  0  0  0
   -8.3870    4.1330  -11.5560 C   0  0  0  0  0  0  0  0  0  0  0  0
   -8.5550    4.9620  -12.7570 C   0  0  0  0  0  0  0  0  0  0  0  0
   -8.4210    4.5920  -14.0780 N   0  0  0  0  0  0  0  0  0  0  0  0
   -8.1410    5.5660  -15.0100 C   0  0  0  0  0  0  0  0  0  0  0  0
   -7.6550    6.6680  -14.7730 O   0  0  0  0  0  0  0  0  0  0  0  0
   -8.4720    5.2580  -16.4490 C   0  0  0  0  0  0  0  0  0  0  0  0
   -9.7520    4.8820  -16.7970 C   0  0  0  0  0  0  0  0  0  0  0  0
  -10.0750    4.6110  -18.1300 C   0  0  0  0  0  0  0  0  0  0  0  0
   -9.1060    4.7050  -19.1200 C   0  0  0  0  0  0  0  0  0  0  0  0
   -7.8130    5.0780  -18.7430 C   0  0  0  0  0  0  0  0  0  0  0  0
   -6.8740    5.1670  -19.6470 N   0  0  0  0  0  0  0  0  0  0  0  0
   -5.5500    5.8230  -19.2480 S   0  0  0  0  0  6  0  0  0  0  0  0
   -4.7880    5.5750  -18.0410 O   0  0  0  0  0  0  0  0  0  0  0  0
   -4.4540    5.7940  -20.6180 C   0  0  0  0  0  0  0  0  0  0  0  0
   -4.3610    7.0670  -21.1620 C   0  0  0  0  0  0  0  0  0  0  0  0
   -5.4270    7.8890  -20.8420 C   0  0  0  0  0  0  0  0  0  0  0  0
   -5.7980    7.5170  -19.3990 C   0  0  0  0  0  0  0  0  0  0  0  0
   -7.4910    5.3580  -17.4190 C   0  0  0  0  0  0  0  0  0  0  0  0
   -8.8680    6.2080  -12.2450 N   0  0  0  0  0  0  0  0  0  0  0  0
   -8.8910    6.1780  -10.8780 N   0  0  0  0  0  0  0  0  0  0  0  0
   -8.8280    3.4830   -8.9720 H   0  0  0  0  0  0  0  0  0  0  0  0
   -7.5130    4.6830   -8.7070 H   0  0  0  0  0  0  0  0  0  0  0  0
   -9.2100    5.1450   -8.4870 H   0  0  0  0  0  0  0  0  0  0  0  0
   -8.1300    3.0690  -11.5180 H   0  0  0  0  0  0  0  0  0  0  0  0
   -8.0130    3.6670  -14.2270 H   0  0  0  0  0  0  0  0  0  0  0  0
  -10.5120    4.7930  -16.0480 H   0  0  0  0  0  0  0  0  0  0  0  0
  -11.1220    4.3470  -18.1840 H   0  0  0  0  0  0  0  0  0  0  0  0
   -9.2740    4.5090  -20.1730 H   0  0  0  0  0  0  0  0  0  0  0  0
   -4.8210    5.0370  -21.3060 H   0  0  0  0  0  0  0  0  0  0  0  0
   -3.5300    5.3850  -20.2080 H   0  0  0  0  0  0  0  0  0  0  0  0
   -4.4460    6.9180  -22.2490 H   0  0  0  0  0  0  0  0  0  0  0  0
   -3.3920    7.5460  -21.0500 H   0  0  0  0  0  0  0  0  0  0  0  0
   -6.2430    7.9010  -21.5660 H   0  0  0  0  0  0  0  0  0  0  0  0
   -5.0530    8.9180  -20.8470 H   0  0  0  0  0  0  0  0  0  0  0  0
   -5.2040    8.0530  -18.6550 H   0  0  0  0  0  0  0  0  0  0  0  0
   -6.8570    7.7040  -19.2370 H   0  0  0  0  0  0  0  0  0  0  0  0
   -6.4720    5.6520  -17.1470 H   0  0  0  0  0  0  0  0  0  0  0  0
  1  2  1  0
  2  3  1  0
  3  4  2  0
  4  5  1  0
  5  6  1  0
  6  7  2  0
  6  8  1  0
  8  9  2  0
  9 10  1  0
 10 11  2  0
 11 12  1  0
 12 13  1  0
 13 14  2  0
 14 15  2  0
 14 16  1  0
 16 17  1  0
 17 18  1  0
 18 19  1  0
 12 20  2  0
  4 21  1  0
 21 22  2  0
 22  2  1  0
 20  8  1  0
 19 14  1  0
  1 23  1  0
  1 24  1  0
  1 25  1  0
  3 26  1  0
  5 27  1  0
  9 28  1  0
 10 29  1  0
 11 30  1  0
 16 31  1  0
 16 32  1  0
 17 33  1  0
 17 34  1  0
 18 35  1  0
 18 36  1  0
 19 37  1  0
 19 38  1  0
 20 39  1  0
A    1
 C1 
A    2
 N1 
A    3
 C2 
A    4
 C3 
A    5
 N2 
A    6
 C4 
A    7
 O1 
A    8
 C5 
A    9
 C6 
A   10
 C7 
A   11
 C8 
A   12
 C9 
A   13
 N3 
A   14
 S1 
A   15
 O2 
A   16
 C10
A   17
 C11
A   18
 C12
A   19
 C13
A   20
 C14
A   21
 N4 
A   22
 N5 
A   23
 H1 
A   24
 H2 
A   25
 H3 
A   26
 H4 
A   27
 H5 
A   28
 H6 
A   29
 H7 
A   30
 H8 
A   31
 H9 
A   32
 H10
A   33
 H11
A   34
 H12
A   35
 H13
A   36
 H14
A   37
 H15
A   38
 H16
A   39
 H17
M  END
>  <ref_pdb>  (17) 
x0051_0B

>  <ref_mols>  (17) 
x1098_0B,x0229_0B

>  <original SMILES>  (17) 
[H]c1c([H])c(N=S2(=O)C([H])([H])C([H])([H])C([H])([H])C2([H])[H])c([H])c(C(=O)N([H])c2nnn(C([H])([H])[H])c2[H])c1[H]

>  <index>  (17) 
972

>  <∆∆G>  (17) 
-7.147353

>  <∆G_bound>  (17) 
-6.562448

>  <∆G_unbound>  (17) 
0.584905

>  <comRMSD>  (17) 
0.397362

>  <N_constrained_atoms>  (17) 
24.0

>  <N_unconstrained_atoms>  (17) 
0.0

>  <runtime>  (17) 
67.171217

>  <LE>  (17) 
0.297806

>  <percent_hybrid>  (17) 
42.0

>  <dist>  (17) 
8.0

>  <ecfp4>  (17) 
0.255814

>  <daylight>  (17) 
0.299663

>  <topodist>  (17) 
3.0

>  <mces>  (17) 
24.0

>  <tdn>  (17) 
2.0

>  <tup>  (17) 
0.0

>  <rdn>  (17) 
1.0

>  <rup>  (17) 
0.0

>  <ldn>  (17) 
0.0

>  <lup>  (17) 
0.0

>  <mut>  (17) 
5.0

>  <maj>  (17) 
5.0

>  <min>  (17) 
0.0

>  <hyb>  (17) 
0.0

>  <sub>  (17) 
1.0

>  <query_index>  (17) 
28.0

>  <max_hit_Tanimoto>  (17) 
0.346491

>  <largest_ring>  (17) 
6

>  <N_interactions_kept>  (17) 
1.5

>  <N_interactions_lost>  (17) 
4.0

>  <interaction_uniqueness_metric>  (17) 
0.453982

>  <ad_hoc_penalty>  (17) 
-17.831879

>  <N_rotatable_bonds>  (17) 
4

>  <N_HA>  (17) 
22

>  <cluster>  (17) 
5327

>  <N_interactions>  (17) 
8

>  <Enamine>  (17) 
1

>  <Mcule>  (17) 
0

>  <N_PAINS>  (17) 
0

>  <UFF_Gibbs>  (17) 
128.398893

>  <strain_per_HA>  (17) 
5.836313

>  <intxn_scored>  (17) 
13.5

>  <saltbridge:HIS:51>  (17) 
0

>  <pistack:HIS:51>  (17) 
1

>  <hydroph_interaction:HIS:51>  (17) 
0

>  <hbond:ALA:132>  (17) 
0

>  <hbond:SER:135>  (17) 
0

>  <hydroph_interaction:TYR:150>  (17) 
1

>  <pistack:TYR:161>  (17) 
1

>  <hydroph_interaction:TYR:161>  (17) 
0

>  <hydroph_interaction:ASP:83>  (17) 
0

>  <hbond:TYR:130>  (17) 
1

>  <hydroph_interaction:ALA:132>  (17) 
0

>  <hbond:HIS:51>  (17) 
0

>  <hbond:ASP:129>  (17) 
0

>  <hbond:TYR:150>  (17) 
0

>  <hbond:GLY:151>  (17) 
1

>  <hbond:TYR:161>  (17) 
1

>  <hydroph_interaction:TYR:130>  (17) 
0

>  <hydroph_interaction:PRO:131>  (17) 
0

>  <hydroph_interaction:ASP:129>  (17) 
0

>  <saltbridge:ASP:75>  (17) 
0

>  <saltbridge:ASP:83>  (17) 
1

>  <hbond:ASN:152>  (17) 
0

>  <hydroph_interaction:ASN:152>  (17) 
0

>  <halogenbond:TYR:150>  (17) 
0

>  <hbond:ASP:83>  (17) 
0

>  <hydroph_interaction:VAL:155>  (17) 
0

>  <pication:TYR:161>  (17) 
0

>  <hbond:PRO:131>  (17) 
0

>  <saltbridge:ASP:129>  (17) 
0

>  <hbond:THR:134>  (17) 
0

>  <pication:HIS:51>  (17) 
1

>  <hbond:SER:81>  (17) 
0

>  <hydroph_interaction:THR:134>  (17) 
0

>  <hydroph_interaction:MET:49>  (17) 
0

$$$$
CSSB00015753763
     RDKit          3D

 24 26  0  0  0  0  0  0  0  0999 V2000
   -5.4960    4.8400  -15.0130 N   0  0  0  0  0  0  0  0  0  0  0  0
   -6.3610    5.7210  -15.6740 C   0  0  2  0  0  0  0  0  0  0  0  0
   -7.7440    5.4870  -15.4700 C   0  0  0  0  0  0  0  0  0  0  0  0
   -8.3910    5.2290  -16.6630 C   0  0  0  0  0  0  0  0  0  0  0  0
   -9.7300    4.9320  -16.8720 C   0  0  0  0  0  0  0  0  0  0  0  0
  -10.1920    4.7120  -18.1800 C   0  0  0  0  0  0  0  0  0  0  0  0
   -9.1810    4.8050  -19.3240 C   0  0  0  0  0  0  0  0  0  0  0  0
   -7.8570    5.1020  -18.9850 C   0  0  0  0  0  0  0  0  0  0  0  0
   -6.7310    5.2250  -19.9620 C   0  0  0  0  0  0  0  0  0  0  0  0
   -5.4450    5.5240  -19.4670 C   0  0  0  0  0  0  0  0  0  0  0  0
   -5.2000    5.7070  -18.0910 C   0  0  0  0  0  0  0  0  0  0  0  0
   -6.2560    5.5950  -17.1820 C   0  0  0  0  0  0  0  0  0  0  0  0
   -7.5300    5.2980  -17.6720 C   0  0  0  0  0  0  0  0  0  0  0  0
   -4.6620    4.6080  -15.5440 H   0  0  0  0  0  0  0  0  0  0  0  0
   -5.9510    3.9980  -14.6610 H   0  0  0  0  0  0  0  0  0  0  0  0
   -6.0910    6.7410  -15.3900 H   0  0  0  0  0  0  0  0  0  0  0  0
   -8.0560    6.2520  -14.7700 H   0  0  0  0  0  0  0  0  0  0  0  0
   -7.8180    4.5620  -14.8840 H   0  0  0  0  0  0  0  0  0  0  0  0
  -10.4030    4.8730  -16.0270 H   0  0  0  0  0  0  0  0  0  0  0  0
  -11.2370    4.4830  -18.3770 H   0  0  0  0  0  0  0  0  0  0  0  0
   -9.4790    4.6480  -20.3550 H   0  0  0  0  0  0  0  0  0  0  0  0
   -6.8710    5.0900  -21.0400 H   0  0  0  0  0  0  0  0  0  0  0  0
   -4.5970    5.6200  -20.1540 H   0  0  0  0  0  0  0  0  0  0  0  0
   -4.1890    5.9350  -17.7410 H   0  0  0  0  0  0  0  0  0  0  0  0
  1  2  1  0
  2  3  1  0
  3  4  1  0
  4  5  2  0
  5  6  1  0
  6  7  2  0
  7  8  1  0
  8  9  2  0
  9 10  1  0
 10 11  2  0
 11 12  1  0
 12 13  2  0
 12  2  1  0
 13  4  1  0
 13  8  1  0
  1 14  1  0
  1 15  1  0
  2 16  1  6
  3 17  1  0
  3 18  1  0
  5 19  1  0
  6 20  1  0
  7 21  1  0
  9 22  1  0
 10 23  1  0
 11 24  1  0
A    1
 N1 
A    2
 C1 
A    3
 C2 
A    4
 C3 
A    5
 C4 
A    6
 C5 
A    7
 C6 
A    8
 C7 
A    9
 C8 
A   10
 C9 
A   11
 C10
A   12
 C11
A   13
 C12
A   14
 H1 
A   15
 H2 
A   16
 H3 
A   17
 H4 
A   18
 H5 
A   19
 H6 
A   20
 H7 
A   21
 H8 
A   22
 H9 
A   23
 H10
A   24
 H11
M  END
>  <ref_pdb>  (18) 
x0051_0B

>  <ref_mols>  (18) 
x0727_0B,x0455_0B

>  <original SMILES>  (18) 
[H]c1c([H])c2c3c(c([H])c([H])c([H])c3c1[H])[C@]([H])(N([H])[H])C2([H])[H]

>  <index>  (18) 
268

>  <∆∆G>  (18) 
-7.34554

>  <∆G_bound>  (18) 
-7.40258

>  <∆G_unbound>  (18) 
-0.05704

>  <comRMSD>  (18) 
0.858977

>  <N_constrained_atoms>  (18) 
14.0

>  <N_unconstrained_atoms>  (18) 
0.0

>  <runtime>  (18) 
20.044541

>  <LE>  (18) 
0.524681

>  <percent_hybrid>  (18) 
34.0

>  <dist>  (18) 
3.0

>  <ecfp4>  (18) 
0.27907

>  <daylight>  (18) 
0.284314

>  <topodist>  (18) 
1.0

>  <mces>  (18) 
15.0

>  <tdn>  (18) 
0.0

>  <tup>  (18) 
0.0

>  <rdn>  (18) 
0.0

>  <rup>  (18) 
0.0

>  <ldn>  (18) 
1.0

>  <lup>  (18) 
0.0

>  <mut>  (18) 
2.0

>  <maj>  (18) 
2.0

>  <min>  (18) 
0.0

>  <hyb>  (18) 
0.0

>  <sub>  (18) 
0.0

>  <query_index>  (18) 
57.0

>  <max_hit_Tanimoto>  (18) 
0.164782

>  <largest_ring>  (18) 
0

>  <N_interactions_kept>  (18) 
0.0

>  <N_interactions_lost>  (18) 
3.0

>  <interaction_uniqueness_metric>  (18) 
0.092505

>  <ad_hoc_penalty>  (18) 
-25.197171

>  <N_rotatable_bonds>  (18) 
1

>  <N_HA>  (18) 
13

>  <cluster>  (18) 
5972

>  <N_interactions>  (18) 
7

>  <Enamine>  (18) 
1

>  <Mcule>  (18) 
0

>  <N_PAINS>  (18) 
0

>  <UFF_Gibbs>  (18) 
47.506318

>  <strain_per_HA>  (18) 
3.654332

>  <intxn_scored>  (18) 
13.5

>  <saltbridge:HIS:51>  (18) 
0

>  <pistack:HIS:51>  (18) 
0

>  <hydroph_interaction:HIS:51>  (18) 
0

>  <hbond:ALA:132>  (18) 
0

>  <hbond:SER:135>  (18) 
0

>  <hydroph_interaction:TYR:150>  (18) 
1

>  <pistack:TYR:161>  (18) 
2

>  <hydroph_interaction:TYR:161>  (18) 
3

>  <hydroph_interaction:ASP:83>  (18) 
0

>  <hbond:TYR:130>  (18) 
0

>  <hydroph_interaction:ALA:132>  (18) 
0

>  <hbond:HIS:51>  (18) 
0

>  <hbond:ASP:129>  (18) 
0

>  <hbond:TYR:150>  (18) 
0

>  <hbond:GLY:151>  (18) 
0

>  <hbond:TYR:161>  (18) 
1

>  <hydroph_interaction:TYR:130>  (18) 
0

>  <hydroph_interaction:PRO:131>  (18) 
0

>  <hydroph_interaction:ASP:129>  (18) 
0

>  <saltbridge:ASP:75>  (18) 
0

>  <saltbridge:ASP:83>  (18) 
0

>  <hbond:ASN:152>  (18) 
0

>  <hydroph_interaction:ASN:152>  (18) 
0

>  <halogenbond:TYR:150>  (18) 
0

>  <hbond:ASP:83>  (18) 
0

>  <hydroph_interaction:VAL:155>  (18) 
0

>  <pication:TYR:161>  (18) 
0

>  <hbond:PRO:131>  (18) 
0

>  <saltbridge:ASP:129>  (18) 
0

>  <hbond:THR:134>  (18) 
0

>  <pication:HIS:51>  (18) 
0

>  <hbond:SER:81>  (18) 
0

>  <hydroph_interaction:THR:134>  (18) 
0

>  <hydroph_interaction:MET:49>  (18) 
0

$$$$
Z5316732380
     RDKit          3D

 50 53  0  0  0  0  0  0  0  0999 V2000
   -9.1380    8.4400  -14.1280 O   0  0  0  0  0  0  0  0  0  0  0  0
   -8.8590    7.0540  -14.4740 S   0  0  0  0  0  6  0  0  0  0  0  0
   -7.6400    6.7030  -15.1340 O   0  0  0  0  0  0  0  0  0  0  0  0
  -10.1020    6.4540  -15.4780 N   0  0  0  0  0  0  0  0  0  0  0  0
  -10.0590    5.3670  -16.5480 C   0  0  0  0  0  0  0  0  0  0  0  0
   -8.8990    5.2450  -17.4190 C   0  0  0  0  0  0  0  0  0  0  0  0
   -7.6860    5.3560  -16.9720 N   0  0  0  0  0  0  0  0  0  0  0  0
   -6.9980    5.1690  -18.1240 N   0  0  0  0  0  0  0  0  0  0  0  0
   -5.6170    5.1750  -18.1340 C   0  0  0  0  0  0  0  0  0  0  0  0
   -4.8740    5.3530  -19.4290 C   0  0  0  0  0  0  0  0  0  0  0  0
   -3.3730    5.3310  -19.3940 C   0  0  0  0  0  0  0  0  0  0  0  0
   -2.7560    5.1460  -18.1560 C   0  0  0  0  0  0  0  0  0  0  0  0
   -3.4960    4.9870  -16.9680 C   0  0  0  0  0  0  0  0  0  0  0  0
   -4.8980    5.0020  -16.9500 C   0  0  0  0  0  0  0  0  0  0  0  0
   -7.7090    4.9590  -19.2630 N   0  0  0  0  0  0  0  0  0  0  0  0
   -8.9340    5.0040  -18.8030 C   0  0  0  0  0  0  0  0  0  0  0  0
   -8.8710    6.2480  -12.9040 C   0  0  0  0  0  0  0  0  0  0  0  0
   -8.7700    7.0200  -11.7280 C   0  0  0  0  0  0  0  0  0  0  0  0
   -8.7670    6.3900  -10.4890 C   0  0  0  0  0  0  0  0  0  0  0  0
   -8.8690    4.8890  -10.3940 C   0  0  0  0  0  0  0  0  0  0  0  0
   -8.8650    4.2310   -9.1940 N   0  0  0  0  0  0  0  0  0  0  0  0
   -9.0430    2.7690   -9.1770 C   0  0  0  0  0  0  0  0  0  0  0  0
   -9.6120    2.3590   -7.9790 C   0  0  0  0  0  0  0  0  0  0  0  0
   -8.8260    2.7340   -6.8030 N   0  0  0  0  0  0  0  0  0  0  0  0
   -8.7860    4.1860   -6.6930 C   0  0  0  0  0  0  0  0  0  0  0  0
   -8.3140    4.8820   -7.9850 C   0  0  0  0  0  0  0  0  0  0  0  0
   -8.9700    4.1960  -11.6140 C   0  0  0  0  0  0  0  0  0  0  0  0
   -8.9700    4.8730  -12.8320 C   0  0  0  0  0  0  0  0  0  0  0  0
  -10.8690    7.1200  -15.6200 H   0  0  0  0  0  0  0  0  0  0  0  0
  -10.2960    4.4040  -16.1140 H   0  0  0  0  0  0  0  0  0  0  0  0
  -10.8090    5.5660  -17.3020 H   0  0  0  0  0  0  0  0  0  0  0  0
   -5.4660    5.4860  -20.3410 H   0  0  0  0  0  0  0  0  0  0  0  0
   -2.7860    5.4530  -20.3030 H   0  0  0  0  0  0  0  0  0  0  0  0
   -1.6720    5.1230  -18.0960 H   0  0  0  0  0  0  0  0  0  0  0  0
   -2.9590    4.8490  -16.0360 H   0  0  0  0  0  0  0  0  0  0  0  0
   -5.4220    4.8710  -16.0060 H   0  0  0  0  0  0  0  0  0  0  0  0
   -9.7790    4.8660  -19.4710 H   0  0  0  0  0  0  0  0  0  0  0  0
   -8.6940    8.1030  -11.7760 H   0  0  0  0  0  0  0  0  0  0  0  0
   -8.6880    7.0070   -9.5970 H   0  0  0  0  0  0  0  0  0  0  0  0
   -9.7240    2.4520   -9.9790 H   0  0  0  0  0  0  0  0  0  0  0  0
   -8.0760    2.2690   -9.3270 H   0  0  0  0  0  0  0  0  0  0  0  0
  -10.6160    2.7810   -7.8790 H   0  0  0  0  0  0  0  0  0  0  0  0
   -9.7300    1.2760   -7.9960 H   0  0  0  0  0  0  0  0  0  0  0  0
   -9.2550    2.3170   -5.9750 H   0  0  0  0  0  0  0  0  0  0  0  0
   -8.1390    4.4680   -5.8550 H   0  0  0  0  0  0  0  0  0  0  0  0
   -9.7970    4.5340   -6.4440 H   0  0  0  0  0  0  0  0  0  0  0  0
   -7.2190    4.8420   -7.9890 H   0  0  0  0  0  0  0  0  0  0  0  0
   -8.6210    5.9350   -7.9720 H   0  0  0  0  0  0  0  0  0  0  0  0
   -9.0480    3.1120  -11.6380 H   0  0  0  0  0  0  0  0  0  0  0  0
   -9.0520    4.2070  -13.7000 H   0  0  0  0  0  0  0  0  0  0  0  0
  1  2  2  0
  2  3  2  0
  2  4  1  0
  4  5  1  0
  5  6  1  0
  6  7  2  0
  7  8  1  0
  8  9  1  0
  9 10  2  0
 10 11  1  0
 11 12  2  0
 12 13  1  0
 13 14  2  0
  8 15  1  0
 15 16  2  0
  2 17  1  0
 17 18  2  0
 18 19  1  0
 19 20  2  0
 20 21  1  0
 21 22  1  0
 22 23  1  0
 23 24  1  0
 24 25  1  0
 25 26  1  0
 20 27  1  0
 27 28  2  0
 16  6  1  0
 14  9  1  0
 28 17  1  0
 26 21  1  0
  4 29  1  0
  5 30  1  0
  5 31  1  0
 10 32  1  0
 11 33  1  0
 12 34  1  0
 13 35  1  0
 14 36  1  0
 16 37  1  0
 18 38  1  0
 19 39  1  0
 22 40  1  0
 22 41  1  0
 23 42  1  0
 23 43  1  0
 24 44  1  0
 25 45  1  0
 25 46  1  0
 26 47  1  0
 26 48  1  0
 27 49  1  0
 28 50  1  0
A    1
 O1 
A    2
 S1 
A    3
 O2 
A    4
 N1 
A    5
 C1 
A    6
 C2 
A    7
 N2 
A    8
 N3 
A    9
 C3 
A   10
 C4 
A   11
 C5 
A   12
 C6 
A   13
 C7 
A   14
 C8 
A   15
 N4 
A   16
 C9 
A   17
 C10
A   18
 C11
A   19
 C12
A   20
 C13
A   21
 N5 
A   22
 C14
A   23
 C15
A   24
 N6 
A   25
 C16
A   26
 C17
A   27
 C18
A   28
 C19
A   29
 H1 
A   30
 H2 
A   31
 H3 
A   32
 H4 
A   33
 H5 
A   34
 H6 
A   35
 H7 
A   36
 H8 
A   37
 H9 
A   38
 H10
A   39
 H11
A   40
 H12
A   41
 H13
A   42
 H14
A   43
 H15
A   44
 H16
A   45
 H17
A   46
 H18
A   47
 H19
A   48
 H20
A   49
 H21
A   50
 H22
M  END
>  <ref_pdb>  (19) 
x0051_0B

>  <ref_mols>  (19) 
x0465_0B,x0404_0B

>  <original SMILES>  (19) 
[H]c1nn(-c2c([H])c([H])c([H])c([H])c2[H])nc1C([H])([H])N([H])S(=O)(=O)c1c([H])c([H])c(N2C([H])([H])C([H])([H])N([H])C([H])([H])C2([H])[H])c([H])c1[H]

>  <index>  (19) 
2922

>  <∆∆G>  (19) 
-5.541665

>  <∆G_bound>  (19) 
-5.132108

>  <∆G_unbound>  (19) 
0.409557

>  <comRMSD>  (19) 
0.776801

>  <N_constrained_atoms>  (19) 
27.0

>  <N_unconstrained_atoms>  (19) 
1.0

>  <runtime>  (19) 
119.973562

>  <LE>  (19) 
0.197917

>  <percent_hybrid>  (19) 
45.0

>  <dist>  (19) 
9.0

>  <ecfp4>  (19) 
0.325

>  <daylight>  (19) 
0.283582

>  <topodist>  (19) 
2.0

>  <mces>  (19) 
31.0

>  <tdn>  (19) 
1.0

>  <tup>  (19) 
0.0

>  <rdn>  (19) 
0.0

>  <rup>  (19) 
0.0

>  <ldn>  (19) 
1.0

>  <lup>  (19) 
0.0

>  <mut>  (19) 
5.0

>  <maj>  (19) 
5.0

>  <min>  (19) 
0.0

>  <hyb>  (19) 
2.0

>  <sub>  (19) 
1.0

>  <query_index>  (19) 
89.0

>  <max_hit_Tanimoto>  (19) 
0.370321

>  <largest_ring>  (19) 
6

>  <N_interactions_kept>  (19) 
1.0

>  <N_interactions_lost>  (19) 
4.5

>  <interaction_uniqueness_metric>  (19) 
0.319551

>  <ad_hoc_penalty>  (19) 
-6.14218

>  <N_rotatable_bonds>  (19) 
6

>  <N_HA>  (19) 
28

>  <cluster>  (19) 
3519

>  <N_interactions>  (19) 
9

>  <Enamine>  (19) 
1

>  <Mcule>  (19) 
0

>  <N_PAINS>  (19) 
0

>  <UFF_Gibbs>  (19) 
116.036073

>  <strain_per_HA>  (19) 
4.144145

>  <intxn_scored>  (19) 
13.5

>  <saltbridge:HIS:51>  (19) 
0

>  <pistack:HIS:51>  (19) 
1

>  <hydroph_interaction:HIS:51>  (19) 
1

>  <hbond:ALA:132>  (19) 
0

>  <hbond:SER:135>  (19) 
2

>  <hydroph_interaction:TYR:150>  (19) 
0

>  <pistack:TYR:161>  (19) 
2

>  <hydroph_interaction:TYR:161>  (19) 
1

>  <hydroph_interaction:ASP:83>  (19) 
0

>  <hbond:TYR:130>  (19) 
0

>  <hydroph_interaction:ALA:132>  (19) 
0

>  <hbond:HIS:51>  (19) 
0

>  <hbond:ASP:129>  (19) 
0

>  <hbond:TYR:150>  (19) 
0

>  <hbond:GLY:151>  (19) 
0

>  <hbond:TYR:161>  (19) 
0

>  <hydroph_interaction:TYR:130>  (19) 
0

>  <hydroph_interaction:PRO:131>  (19) 
0

>  <hydroph_interaction:ASP:129>  (19) 
0

>  <saltbridge:ASP:75>  (19) 
0

>  <saltbridge:ASP:83>  (19) 
0

>  <hbond:ASN:152>  (19) 
0

>  <hydroph_interaction:ASN:152>  (19) 
0

>  <halogenbond:TYR:150>  (19) 
0

>  <hbond:ASP:83>  (19) 
0

>  <hydroph_interaction:VAL:155>  (19) 
1

>  <pication:TYR:161>  (19) 
0

>  <hbond:PRO:131>  (19) 
0

>  <saltbridge:ASP:129>  (19) 
0

>  <hbond:THR:134>  (19) 
0

>  <pication:HIS:51>  (19) 
0

>  <hbond:SER:81>  (19) 
1

>  <hydroph_interaction:THR:134>  (19) 
0

>  <hydroph_interaction:MET:49>  (19) 
0

$$$$
CSSB00102422970
     RDKit          3D

 25 26  0  0  0  0  0  0  0  0999 V2000
  -10.9990    7.9980  -14.1400 C   0  0  0  0  0  0  0  0  0  0  0  0
   -9.7500    7.1070  -14.1860 C   0  0  0  0  0  0  0  0  0  0  0  0
   -8.6280    7.5290  -13.9290 O   0  0  0  0  0  0  0  0  0  0  0  0
  -10.0380    5.4210  -14.6410 S   0  0  0  0  0  0  0  0  0  0  0  0
   -9.1020    5.2770  -16.1510 C   0  0  0  0  0  0  0  0  0  0  0  0
   -7.5790    5.5110  -16.1250 C   0  0  0  0  0  0  0  0  0  0  0  0
   -6.8160    5.4250  -17.2810 C   0  0  0  0  0  0  0  0  0  0  0  0
   -5.4490    5.6510  -17.1930 C   0  0  0  0  0  0  0  0  0  0  0  0
   -4.6510    5.5820  -18.3320 C   0  0  0  0  0  0  0  0  0  0  0  0
   -5.2220    5.2860  -19.5710 C   0  0  0  0  0  0  0  0  0  0  0  0
   -6.5980    5.0550  -19.6590 C   0  0  0  0  0  0  0  0  0  0  0  0
   -7.3990    5.1200  -18.5270 C   0  0  0  0  0  0  0  0  0  0  0  0
   -8.7650    4.8800  -18.6540 C   0  0  0  0  0  0  0  0  0  0  0  0
   -9.2240    4.5900  -19.9020 O   0  0  0  0  0  0  0  0  0  0  0  0
   -9.6460    4.9350  -17.5620 C   0  0  0  0  0  0  0  0  0  0  0  0
  -11.9160    7.4120  -14.2570 H   0  0  0  0  0  0  0  0  0  0  0  0
  -10.9700    8.7280  -14.9550 H   0  0  0  0  0  0  0  0  0  0  0  0
  -11.0760    8.5480  -13.1990 H   0  0  0  0  0  0  0  0  0  0  0  0
   -7.0920    5.7520  -15.1800 H   0  0  0  0  0  0  0  0  0  0  0  0
   -4.9870    5.8850  -16.2370 H   0  0  0  0  0  0  0  0  0  0  0  0
   -3.5810    5.7590  -18.2580 H   0  0  0  0  0  0  0  0  0  0  0  0
   -4.6040    5.2320  -20.4610 H   0  0  0  0  0  0  0  0  0  0  0  0
   -7.0360    4.8210  -20.6260 H   0  0  0  0  0  0  0  0  0  0  0  0
   -8.9580    5.3030  -20.5380 H   0  0  0  0  0  0  0  0  0  0  0  0
  -10.7070    4.7440  -17.7040 H   0  0  0  0  0  0  0  0  0  0  0  0
  1  2  1  0
  2  3  2  0
  2  4  1  0
  4  5  1  0
  5  6  2  0
  6  7  1  0
  7  8  2  0
  8  9  1  0
  9 10  2  0
 10 11  1  0
 11 12  2  0
 12 13  1  0
 13 14  1  0
 13 15  2  0
 15  5  1  0
 12  7  1  0
  1 16  1  0
  1 17  1  0
  1 18  1  0
  6 19  1  0
  8 20  1  0
  9 21  1  0
 10 22  1  0
 11 23  1  0
 14 24  1  0
 15 25  1  0
A    1
 C1 
A    2
 C2 
A    3
 O1 
A    4
 S1 
A    5
 C3 
A    6
 C4 
A    7
 C5 
A    8
 C6 
A    9
 C7 
A   10
 C8 
A   11
 C9 
A   12
 C10
A   13
 C11
A   14
 O2 
A   15
 C12
A   16
 H1 
A   17
 H2 
A   18
 H3 
A   19
 H4 
A   20
 H5 
A   21
 H6 
A   22
 H7 
A   23
 H8 
A   24
 H9 
A   25
 H10
M  END
>  <ref_pdb>  (20) 
x0051_0B

>  <ref_mols>  (20) 
x0727_0B,x0904_0B

>  <original SMILES>  (20) 
[H]Oc1c([H])c(SC(=O)C([H])([H])[H])c([H])c2c([H])c([H])c([H])c([H])c12

>  <index>  (20) 
1128

>  <∆∆G>  (20) 
-8.356018

>  <∆G_bound>  (20) 
-8.116519

>  <∆G_unbound>  (20) 
0.239499

>  <comRMSD>  (20) 
0.808344

>  <N_constrained_atoms>  (20) 
14.0

>  <N_unconstrained_atoms>  (20) 
4.0

>  <runtime>  (20) 
29.318604

>  <LE>  (20) 
0.464223

>  <percent_hybrid>  (20) 
50.0

>  <dist>  (20) 
7.0

>  <ecfp4>  (20) 
0.1875

>  <daylight>  (20) 
0.090909

>  <topodist>  (20) 
4.0

>  <mces>  (20) 
16.0

>  <tdn>  (20) 
3.0

>  <tup>  (20) 
0.0

>  <rdn>  (20) 
0.0

>  <rup>  (20) 
0.0

>  <ldn>  (20) 
1.0

>  <lup>  (20) 
0.0

>  <mut>  (20) 
3.0

>  <maj>  (20) 
3.0

>  <min>  (20) 
0.0

>  <hyb>  (20) 
0.0

>  <sub>  (20) 
1.0

>  <query_index>  (20) 
92.0

>  <max_hit_Tanimoto>  (20) 
0.142241

>  <largest_ring>  (20) 
6

>  <N_interactions_kept>  (20) 
1.5

>  <N_interactions_lost>  (20) 
2.5

>  <interaction_uniqueness_metric>  (20) 
0.062339

>  <ad_hoc_penalty>  (20) 
-14.905436

>  <N_rotatable_bonds>  (20) 
3

>  <N_HA>  (20) 
15

>  <cluster>  (20) 
5183

>  <N_interactions>  (20) 
5

>  <Enamine>  (20) 
1

>  <Mcule>  (20) 
0

>  <N_PAINS>  (20) 
0

>  <UFF_Gibbs>  (20) 
50.274736

>  <strain_per_HA>  (20) 
3.351649

>  <intxn_scored>  (20) 
13.0

>  <saltbridge:HIS:51>  (20) 
0

>  <pistack:HIS:51>  (20) 
0

>  <hydroph_interaction:HIS:51>  (20) 
0

>  <hbond:ALA:132>  (20) 
0

>  <hbond:SER:135>  (20) 
0

>  <hydroph_interaction:TYR:150>  (20) 
0

>  <pistack:TYR:161>  (20) 
2

>  <hydroph_interaction:TYR:161>  (20) 
1

>  <hydroph_interaction:ASP:83>  (20) 
0

>  <hbond:TYR:130>  (20) 
2

>  <hydroph_interaction:ALA:132>  (20) 
0

>  <hbond:HIS:51>  (20) 
0

>  <hbond:ASP:129>  (20) 
0

>  <hbond:TYR:150>  (20) 
0

>  <hbond:GLY:151>  (20) 
0

>  <hbond:TYR:161>  (20) 
0

>  <hydroph_interaction:TYR:130>  (20) 
0

>  <hydroph_interaction:PRO:131>  (20) 
0

>  <hydroph_interaction:ASP:129>  (20) 
0

>  <saltbridge:ASP:75>  (20) 
0

>  <saltbridge:ASP:83>  (20) 
0

>  <hbond:ASN:152>  (20) 
0

>  <hydroph_interaction:ASN:152>  (20) 
0

>  <halogenbond:TYR:150>  (20) 
0

>  <hbond:ASP:83>  (20) 
0

>  <hydroph_interaction:VAL:155>  (20) 
0

>  <pication:TYR:161>  (20) 
0

>  <hbond:PRO:131>  (20) 
0

>  <saltbridge:ASP:129>  (20) 
0

>  <hbond:THR:134>  (20) 
0

>  <pication:HIS:51>  (20) 
0

>  <hbond:SER:81>  (20) 
0

>  <hydroph_interaction:THR:134>  (20) 
0

>  <hydroph_interaction:MET:49>  (20) 
0

$$$$
Z4489435526
     RDKit          3D

 41 44  0  0  0  0  0  0  0  0999 V2000
   -6.5890    5.1040  -20.3590 C   0  0  0  0  0  0  0  0  0  0  0  0
   -6.4950    5.2540  -18.9810 C   0  0  0  0  0  0  0  0  0  0  0  0
   -5.4060    5.5210  -18.2930 N   0  0  0  0  0  0  0  0  0  0  0  0
   -5.7230    5.5940  -16.9860 N   0  0  0  0  0  0  0  0  0  0  0  0
   -7.0160    5.3750  -16.8400 C   0  0  0  0  0  0  0  0  0  0  0  0
   -7.8600    5.3510  -15.7010 C   0  0  0  0  0  0  0  0  0  0  0  0
   -7.3520    5.6410  -14.3890 C   0  0  0  0  0  0  0  0  0  0  0  0
   -6.5270    6.5460  -14.2770 O   0  0  0  0  0  0  0  0  0  0  0  0
   -7.7640    4.9320  -13.2490 N   0  0  0  0  0  0  0  0  0  0  0  0
   -9.0040    5.2100  -12.5190 C   0  0  0  0  0  0  0  0  0  0  0  0
   -8.9050    5.4810  -10.9790 C   0  0  0  0  0  0  0  0  0  0  0  0
   -8.9590    4.4090   -9.9190 C   0  0  0  0  0  0  0  0  0  0  0  0
   -9.0940    2.9500  -10.3290 C   0  0  0  0  0  0  0  0  0  0  0  0
   -9.4990    2.2900   -9.0070 C   0  0  0  0  0  0  0  0  0  0  0  0
   -9.4270    2.9160   -7.6810 C   0  0  0  0  0  0  0  0  0  0  0  0
   -8.9230    4.3240   -7.4310 C   0  0  0  0  0  0  0  0  0  0  0  0
   -8.8780    5.0150   -8.7050 N   0  0  0  0  0  0  0  0  0  0  0  0
   -8.7590    6.3610   -8.8180 N   0  0  0  0  0  0  0  0  0  0  0  0
   -8.7750    6.6410  -10.1580 C   0  0  0  0  0  0  0  0  0  0  0  0
   -9.1680    5.0790  -15.9170 C   0  0  0  0  0  0  0  0  0  0  0  0
   -9.7170    4.8120  -17.3200 C   0  0  0  0  0  0  0  0  0  0  0  0
   -8.8950    4.8580  -18.3670 C   0  0  0  0  0  0  0  0  0  0  0  0
   -7.5580    5.1400  -18.1170 N   0  0  0  0  0  0  0  0  0  0  0  0
   -6.5830    5.9880  -20.9810 H   0  0  0  0  0  0  0  0  0  0  0  0
   -5.7350    4.5110  -20.6950 H   0  0  0  0  0  0  0  0  0  0  0  0
   -7.5170    4.5730  -20.6000 H   0  0  0  0  0  0  0  0  0  0  0  0
   -7.2450    4.0980  -12.9810 H   0  0  0  0  0  0  0  0  0  0  0  0
   -9.6410    4.3270  -12.6600 H   0  0  0  0  0  0  0  0  0  0  0  0
   -9.5170    6.0410  -13.0120 H   0  0  0  0  0  0  0  0  0  0  0  0
   -8.2670    2.4790  -10.8530 H   0  0  0  0  0  0  0  0  0  0  0  0
   -9.9390    2.8560  -11.0140 H   0  0  0  0  0  0  0  0  0  0  0  0
   -8.8270    1.4330   -8.9180 H   0  0  0  0  0  0  0  0  0  0  0  0
  -10.4410    1.8230   -9.1540 H   0  0  0  0  0  0  0  0  0  0  0  0
   -8.8280    2.2540   -7.0490 H   0  0  0  0  0  0  0  0  0  0  0  0
  -10.4330    2.8620   -7.2510 H   0  0  0  0  0  0  0  0  0  0  0  0
   -7.9250    4.3260   -6.9810 H   0  0  0  0  0  0  0  0  0  0  0  0
   -9.5970    4.8840   -6.7700 H   0  0  0  0  0  0  0  0  0  0  0  0
   -8.6960    7.6840  -10.4780 H   0  0  0  0  0  0  0  0  0  0  0  0
   -9.9390    5.0360  -15.1350 H   0  0  0  0  0  0  0  0  0  0  0  0
  -10.7830    4.6020  -17.3630 H   0  0  0  0  0  0  0  0  0  0  0  0
   -9.2140    4.6850  -19.3900 H   0  0  0  0  0  0  0  0  0  0  0  0
  1  2  1  0
  2  3  2  0
  3  4  1  0
  4  5  2  0
  5  6  1  0
  6  7  1  0
  7  8  2  0
  7  9  1  0
  9 10  1  0
 10 11  1  0
 11 12  2  0
 12 13  1  0
 13 14  1  0
 14 15  1  0
 15 16  1  0
 16 17  1  0
 17 18  1  0
 18 19  2  0
  6 20  2  0
 20 21  1  0
 21 22  2  0
 22 23  1  0
 23  2  1  0
 23  5  1  0
 19 11  1  0
 17 12  1  0
  1 24  1  0
  1 25  1  0
  1 26  1  0
  9 27  1  0
 10 28  1  0
 10 29  1  0
 13 30  1  0
 13 31  1  0
 14 32  1  0
 14 33  1  0
 15 34  1  0
 15 35  1  0
 16 36  1  0
 16 37  1  0
 19 38  1  0
 20 39  1  0
 21 40  1  0
 22 41  1  0
A    1
 C1 
A    2
 C2 
A    3
 N1 
A    4
 N2 
A    5
 C3 
A    6
 C4 
A    7
 C5 
A    8
 O1 
A    9
 N3 
A   10
 C6 
A   11
 C7 
A   12
 C8 
A   13
 C9 
A   14
 C10
A   15
 C11
A   16
 C12
A   17
 N4 
A   18
 N5 
A   19
 C13
A   20
 C14
A   21
 C15
A   22
 C16
A   23
 N6 
A   24
 H1 
A   25
 H2 
A   26
 H3 
A   27
 H4 
A   28
 H5 
A   29
 H6 
A   30
 H7 
A   31
 H8 
A   32
 H9 
A   33
 H10
A   34
 H11
A   35
 H12
A   36
 H13
A   37
 H14
A   38
 H15
A   39
 H16
A   40
 H17
A   41
 H18
M  END
>  <ref_pdb>  (21) 
x0051_0B

>  <ref_mols>  (21) 
x0435_0B,x0969_1B

>  <original SMILES>  (21) 
[H]c1nn2c(c1C([H])([H])N([H])C(=O)c1c([H])c([H])c([H])n3c(C([H])([H])[H])nnc13)C([H])([H])C([H])([H])C([H])([H])C2([H])[H]

>  <index>  (21) 
471

>  <∆∆G>  (21) 
-5.884573

>  <∆G_bound>  (21) 
-4.447278

>  <∆G_unbound>  (21) 
1.437295

>  <comRMSD>  (21) 
0.472691

>  <N_constrained_atoms>  (21) 
20.0

>  <N_unconstrained_atoms>  (21) 
3.0

>  <runtime>  (21) 
41.046507

>  <LE>  (21) 
0.255851

>  <percent_hybrid>  (21) 
50.0

>  <dist>  (21) 
5.0

>  <ecfp4>  (21) 
0.337662

>  <daylight>  (21) 
0.350877

>  <topodist>  (21) 
1.0

>  <mces>  (21) 
25.0

>  <tdn>  (21) 
0.0

>  <tup>  (21) 
1.0

>  <rdn>  (21) 
0.0

>  <rup>  (21) 
0.0

>  <ldn>  (21) 
0.0

>  <lup>  (21) 
0.0

>  <mut>  (21) 
4.0

>  <maj>  (21) 
4.0

>  <min>  (21) 
0.0

>  <hyb>  (21) 
0.0

>  <sub>  (21) 
0.0

>  <query_index>  (21) 
311.0

>  <max_hit_Tanimoto>  (21) 
0.293233

>  <largest_ring>  (21) 
0

>  <N_interactions_kept>  (21) 
2.5

>  <N_interactions_lost>  (21) 
1.0

>  <interaction_uniqueness_metric>  (21) 
0.098528

>  <ad_hoc_penalty>  (21) 
-21.076637

>  <N_rotatable_bonds>  (21) 
4

>  <N_HA>  (21) 
23

>  <cluster>  (21) 
5790

>  <N_interactions>  (21) 
5

>  <Enamine>  (21) 
1

>  <Mcule>  (21) 
0

>  <N_PAINS>  (21) 
0

>  <UFF_Gibbs>  (21) 
99.840333

>  <strain_per_HA>  (21) 
4.340884

>  <intxn_scored>  (21) 
13.0

>  <saltbridge:HIS:51>  (21) 
0

>  <pistack:HIS:51>  (21) 
1

>  <hydroph_interaction:HIS:51>  (21) 
0

>  <hbond:ALA:132>  (21) 
0

>  <hbond:SER:135>  (21) 
0

>  <hydroph_interaction:TYR:150>  (21) 
0

>  <pistack:TYR:161>  (21) 
2

>  <hydroph_interaction:TYR:161>  (21) 
1

>  <hydroph_interaction:ASP:83>  (21) 
0

>  <hbond:TYR:130>  (21) 
0

>  <hydroph_interaction:ALA:132>  (21) 
0

>  <hbond:HIS:51>  (21) 
0

>  <hbond:ASP:129>  (21) 
0

>  <hbond:TYR:150>  (21) 
0

>  <hbond:GLY:151>  (21) 
0

>  <hbond:TYR:161>  (21) 
1

>  <hydroph_interaction:TYR:130>  (21) 
0

>  <hydroph_interaction:PRO:131>  (21) 
0

>  <hydroph_interaction:ASP:129>  (21) 
0

>  <saltbridge:ASP:75>  (21) 
0

>  <saltbridge:ASP:83>  (21) 
0

>  <hbond:ASN:152>  (21) 
0

>  <hydroph_interaction:ASN:152>  (21) 
0

>  <halogenbond:TYR:150>  (21) 
0

>  <hbond:ASP:83>  (21) 
0

>  <hydroph_interaction:VAL:155>  (21) 
0

>  <pication:TYR:161>  (21) 
0

>  <hbond:PRO:131>  (21) 
0

>  <saltbridge:ASP:129>  (21) 
0

>  <hbond:THR:134>  (21) 
0

>  <pication:HIS:51>  (21) 
0

>  <hbond:SER:81>  (21) 
0

>  <hydroph_interaction:THR:134>  (21) 
0

>  <hydroph_interaction:MET:49>  (21) 
0

$$$$
PV-002951237168
     RDKit          3D

 30 32  0  0  0  0  0  0  0  0999 V2000
   -8.5410    4.5080   -9.3010 C   0  0  0  0  0  0  0  0  0  0  0  0
   -8.6330    4.9460  -10.6710 N   0  0  0  0  0  0  0  0  0  0  0  0
   -8.4050    4.2000  -11.8080 C   0  0  0  0  0  0  0  0  0  0  0  0
   -8.6230    5.0900  -12.8270 C   0  0  0  0  0  0  0  0  0  0  0  0
   -8.4420    4.5750  -14.0830 N   0  0  0  0  0  0  0  0  0  0  0  0
   -8.0490    5.5350  -15.1100 C   0  0  0  0  0  0  0  0  0  0  0  0
   -7.4450    6.5980  -14.9670 O   0  0  0  0  0  0  0  0  0  0  0  0
   -8.4110    5.2700  -16.5230 C   0  0  0  0  0  0  0  0  0  0  0  0
   -9.6980    4.8700  -16.8410 C   0  0  0  0  0  0  0  0  0  0  0  0
  -10.1080    4.6230  -18.1600 C   0  0  0  0  0  0  0  0  0  0  0  0
   -9.1940    4.7710  -19.2020 C   0  0  0  0  0  0  0  0  0  0  0  0
   -7.9000    5.1670  -18.8870 C   0  0  0  0  0  0  0  0  0  0  0  0
   -7.5230    5.4100  -17.5890 C   0  0  0  0  0  0  0  0  0  0  0  0
   -6.1350    5.8090  -17.5980 C   0  0  0  0  0  0  0  0  0  0  0  0
   -5.4830    6.1250  -16.6230 O   0  0  0  0  0  0  0  0  0  0  0  0
   -5.6850    5.7790  -18.8730 N   0  0  0  0  0  0  0  0  0  0  0  0
   -6.7760    5.3920  -19.7570 N   0  0  0  0  0  0  0  0  0  0  0  0
   -8.9730    6.3160  -12.2460 C   0  0  0  0  0  0  0  0  0  0  0  0
   -8.9770    6.2310  -10.9100 N   0  0  0  0  0  0  0  0  0  0  0  0
   -8.8610    3.4620   -9.2530 H   0  0  0  0  0  0  0  0  0  0  0  0
   -7.5110    4.6100   -8.9560 H   0  0  0  0  0  0  0  0  0  0  0  0
   -9.1970    5.1330   -8.6980 H   0  0  0  0  0  0  0  0  0  0  0  0
   -8.1210    3.1570  -11.7880 H   0  0  0  0  0  0  0  0  0  0  0  0
   -8.0580    3.6190  -14.1140 H   0  0  0  0  0  0  0  0  0  0  0  0
  -10.4790    4.7240  -16.0930 H   0  0  0  0  0  0  0  0  0  0  0  0
  -11.1300    4.3190  -18.3630 H   0  0  0  0  0  0  0  0  0  0  0  0
   -9.4870    4.5830  -20.2310 H   0  0  0  0  0  0  0  0  0  0  0  0
   -4.7530    5.4210  -19.0560 H   0  0  0  0  0  0  0  0  0  0  0  0
   -6.5710    4.5450  -20.2930 H   0  0  0  0  0  0  0  0  0  0  0  0
   -9.2180    7.2560  -12.7210 H   0  0  0  0  0  0  0  0  0  0  0  0
  1  2  1  0
  2  3  1  0
  3  4  2  0
  4  5  1  0
  5  6  1  0
  6  7  2  0
  6  8  1  0
  8  9  2  0
  9 10  1  0
 10 11  2  0
 11 12  1  0
 12 13  2  0
 13 14  1  0
 14 15  2  0
 14 16  1  0
 16 17  1  0
  4 18  1  0
 18 19  2  0
 19  2  1  0
 13  8  1  0
 17 12  1  0
  1 20  1  0
  1 21  1  0
  1 22  1  0
  3 23  1  0
  5 24  1  0
  9 25  1  0
 10 26  1  0
 11 27  1  0
 16 28  1  0
 17 29  1  0
 18 30  1  0
A    1
 C1 
A    2
 N1 
A    3
 C2 
A    4
 C3 
A    5
 N2 
A    6
 C4 
A    7
 O1 
A    8
 C5 
A    9
 C6 
A   10
 C7 
A   11
 C8 
A   12
 C9 
A   13
 C10
A   14
 C11
A   15
 O2 
A   16
 N3 
A   17
 N4 
A   18
 C12
A   19
 N5 
A   20
 H1 
A   21
 H2 
A   22
 H3 
A   23
 H4 
A   24
 H5 
A   25
 H6 
A   26
 H7 
A   27
 H8 
A   28
 H9 
A   29
 H10
A   30
 H11
M  END
>  <ref_pdb>  (22) 
x0051_0B

>  <ref_mols>  (22) 
x1098_0B,x0490_0B

>  <original SMILES>  (22) 
[H]c1nn(C([H])([H])[H])c([H])c1N([H])C(=O)c1c([H])c([H])c([H])c2c1c(=O)n([H])n2[H]

>  <index>  (22) 
2336

>  <∆∆G>  (22) 
-7.883088

>  <∆G_bound>  (22) 
-6.389625

>  <∆G_unbound>  (22) 
1.493463

>  <comRMSD>  (22) 
0.39811

>  <N_constrained_atoms>  (22) 
19.0

>  <N_unconstrained_atoms>  (22) 
0.0

>  <runtime>  (22) 
53.889682

>  <LE>  (22) 
0.414899

>  <percent_hybrid>  (22) 
10.0

>  <dist>  (22) 
4.0

>  <ecfp4>  (22) 
0.576271

>  <daylight>  (22) 
0.492462

>  <topodist>  (22) 
1.0

>  <mces>  (22) 
21.0

>  <tdn>  (22) 
1.0

>  <tup>  (22) 
0.0

>  <rdn>  (22) 
0.0

>  <rup>  (22) 
0.0

>  <ldn>  (22) 
0.0

>  <lup>  (22) 
0.0

>  <mut>  (22) 
3.0

>  <maj>  (22) 
3.0

>  <min>  (22) 
0.0

>  <hyb>  (22) 
0.0

>  <sub>  (22) 
0.0

>  <query_index>  (22) 
69.0

>  <max_hit_Tanimoto>  (22) 
0.430958

>  <largest_ring>  (22) 
6

>  <N_interactions_kept>  (22) 
2.0

>  <N_interactions_lost>  (22) 
4.0

>  <interaction_uniqueness_metric>  (22) 
0.126634

>  <ad_hoc_penalty>  (22) 
-6.576207

>  <N_rotatable_bonds>  (22) 
3

>  <N_HA>  (22) 
19

>  <cluster>  (22) 
4072

>  <N_interactions>  (22) 
6

>  <Enamine>  (22) 
1

>  <Mcule>  (22) 
0

>  <N_PAINS>  (22) 
0

>  <UFF_Gibbs>  (22) 
91.897349

>  <strain_per_HA>  (22) 
4.836703

>  <intxn_scored>  (22) 
13.0

>  <saltbridge:HIS:51>  (22) 
0

>  <pistack:HIS:51>  (22) 
1

>  <hydroph_interaction:HIS:51>  (22) 
0

>  <hbond:ALA:132>  (22) 
0

>  <hbond:SER:135>  (22) 
0

>  <hydroph_interaction:TYR:150>  (22) 
1

>  <pistack:TYR:161>  (22) 
2

>  <hydroph_interaction:TYR:161>  (22) 
0

>  <hydroph_interaction:ASP:83>  (22) 
0

>  <hbond:TYR:130>  (22) 
0

>  <hydroph_interaction:ALA:132>  (22) 
1

>  <hbond:HIS:51>  (22) 
0

>  <hbond:ASP:129>  (22) 
0

>  <hbond:TYR:150>  (22) 
0

>  <hbond:GLY:151>  (22) 
0

>  <hbond:TYR:161>  (22) 
1

>  <hydroph_interaction:TYR:130>  (22) 
0

>  <hydroph_interaction:PRO:131>  (22) 
0

>  <hydroph_interaction:ASP:129>  (22) 
0

>  <saltbridge:ASP:75>  (22) 
0

>  <saltbridge:ASP:83>  (22) 
0

>  <hbond:ASN:152>  (22) 
0

>  <hydroph_interaction:ASN:152>  (22) 
0

>  <halogenbond:TYR:150>  (22) 
0

>  <hbond:ASP:83>  (22) 
0

>  <hydroph_interaction:VAL:155>  (22) 
0

>  <pication:TYR:161>  (22) 
0

>  <hbond:PRO:131>  (22) 
0

>  <saltbridge:ASP:129>  (22) 
0

>  <hbond:THR:134>  (22) 
0

>  <pication:HIS:51>  (22) 
0

>  <hbond:SER:81>  (22) 
0

>  <hydroph_interaction:THR:134>  (22) 
0

>  <hydroph_interaction:MET:49>  (22) 
0

$$$$
CSSB00027543260
     RDKit          3D

 30 32  0  0  0  0  0  0  0  0999 V2000
   -8.5310    5.7260   -8.1340 Cl  0  0  0  0  0  0  0  0  0  0  0  0
   -8.6410    5.4020   -9.8190 C   0  0  0  0  0  0  0  0  0  0  0  0
   -8.6280    4.0960  -10.2790 C   0  0  0  0  0  0  0  0  0  0  0  0
   -8.7230    3.8390  -11.7860 C   0  0  0  0  0  0  0  0  0  0  0  0
   -8.8320    5.0470  -12.7100 C   0  0  0  0  0  0  0  0  0  0  0  0
   -8.9110    4.8320  -14.0990 N   0  0  0  0  0  0  0  0  0  0  0  0
   -8.1490    5.5710  -15.1230 C   0  0  0  0  0  0  0  0  0  0  0  0
   -7.2800    6.4070  -14.9090 O   0  0  0  0  0  0  0  0  0  0  0  0
   -8.5160    5.2740  -16.5440 C   0  0  0  0  0  0  0  0  0  0  0  0
   -7.5750    5.4180  -17.5400 C   0  0  0  0  0  0  0  0  0  0  0  0
   -6.2460    5.8030  -17.4960 C   0  0  0  0  0  0  0  0  0  0  0  0
   -5.7220    5.7880  -18.7890 C   0  0  0  0  0  0  0  0  0  0  0  0
   -6.7540    5.3920  -19.6140 N   0  0  0  0  0  0  0  0  0  0  0  0
   -7.8970    5.1600  -18.8630 C   0  0  0  0  0  0  0  0  0  0  0  0
   -9.1880    4.7470  -19.2380 C   0  0  0  0  0  0  0  0  0  0  0  0
  -10.1450    4.6000  -18.2210 C   0  0  0  0  0  0  0  0  0  0  0  0
   -9.7910    4.8610  -16.8850 C   0  0  0  0  0  0  0  0  0  0  0  0
   -8.8410    6.3060  -12.1100 C   0  0  0  0  0  0  0  0  0  0  0  0
   -8.7480    6.4770  -10.7160 C   0  0  0  0  0  0  0  0  0  0  0  0
   -8.5520    3.2620   -9.5890 H   0  0  0  0  0  0  0  0  0  0  0  0
   -8.7110    2.8210  -12.1670 H   0  0  0  0  0  0  0  0  0  0  0  0
   -9.3180    3.9480  -14.4040 H   0  0  0  0  0  0  0  0  0  0  0  0
   -5.6840    6.0740  -16.6130 H   0  0  0  0  0  0  0  0  0  0  0  0
   -4.7400    6.0180  -19.1780 H   0  0  0  0  0  0  0  0  0  0  0  0
   -6.6890    5.2840  -20.6170 H   0  0  0  0  0  0  0  0  0  0  0  0
   -9.4390    4.5480  -20.2750 H   0  0  0  0  0  0  0  0  0  0  0  0
  -11.1560    4.2840  -18.4620 H   0  0  0  0  0  0  0  0  0  0  0  0
  -10.5140    4.7440  -16.0940 H   0  0  0  0  0  0  0  0  0  0  0  0
   -8.9190    7.2070  -12.7120 H   0  0  0  0  0  0  0  0  0  0  0  0
   -8.7590    7.4910  -10.3260 H   0  0  0  0  0  0  0  0  0  0  0  0
  1  2  1  0
  2  3  2  0
  3  4  1  0
  4  5  2  0
  5  6  1  0
  6  7  1  0
  7  8  2  0
  7  9  1  0
  9 10  2  0
 10 11  1  0
 11 12  2  0
 12 13  1  0
 13 14  1  0
 14 15  2  0
 15 16  1  0
 16 17  2  0
  5 18  1  0
 18 19  2  0
 19  2  1  0
 17  9  1  0
 14 10  1  0
  3 20  1  0
  4 21  1  0
  6 22  1  0
 11 23  1  0
 12 24  1  0
 13 25  1  0
 15 26  1  0
 16 27  1  0
 17 28  1  0
 18 29  1  0
 19 30  1  0
A    1
CL1 
A    2
 C1 
A    3
 C2 
A    4
 C3 
A    5
 C4 
A    6
 N1 
A    7
 C5 
A    8
 O1 
A    9
 C6 
A   10
 C7 
A   11
 C8 
A   12
 C9 
A   13
 N2 
A   14
 C10
A   15
 C11
A   16
 C12
A   17
 C13
A   18
 C14
A   19
 C15
A   20
 H1 
A   21
 H2 
A   22
 H3 
A   23
 H4 
A   24
 H5 
A   25
 H6 
A   26
 H7 
A   27
 H8 
A   28
 H9 
A   29
 H10
A   30
 H11
M  END
>  <ref_pdb>  (23) 
x0051_0B

>  <ref_mols>  (23) 
x1098_0B,x0490_0B

>  <original SMILES>  (23) 
[H]c1c([H])c(N([H])C(=O)c2c([H])c([H])c([H])c3c2c([H])c([H])n3[H])c([H])c([H])c1Cl

>  <index>  (23) 
2791

>  <∆∆G>  (23) 
-7.79005

>  <∆G_bound>  (23) 
-7.499306

>  <∆G_unbound>  (23) 
0.290744

>  <comRMSD>  (23) 
0.602033

>  <N_constrained_atoms>  (23) 
19.0

>  <N_unconstrained_atoms>  (23) 
1.0

>  <runtime>  (23) 
53.410279

>  <LE>  (23) 
0.389503

>  <percent_hybrid>  (23) 
19.0

>  <dist>  (23) 
8.0

>  <ecfp4>  (23) 
0.222222

>  <daylight>  (23) 
0.287179

>  <topodist>  (23) 
3.0

>  <mces>  (23) 
20.0

>  <tdn>  (23) 
2.0

>  <tup>  (23) 
0.0

>  <rdn>  (23) 
0.0

>  <rup>  (23) 
0.0

>  <ldn>  (23) 
0.0

>  <lup>  (23) 
1.0

>  <mut>  (23) 
4.0

>  <maj>  (23) 
4.0

>  <min>  (23) 
0.0

>  <hyb>  (23) 
1.0

>  <sub>  (23) 
0.0

>  <query_index>  (23) 
69.0

>  <max_hit_Tanimoto>  (23) 
0.308598

>  <largest_ring>  (23) 
6

>  <N_interactions_kept>  (23) 
1.0

>  <N_interactions_lost>  (23) 
5.0

>  <interaction_uniqueness_metric>  (23) 
0.164058

>  <ad_hoc_penalty>  (23) 
-7.389183

>  <N_rotatable_bonds>  (23) 
2

>  <N_HA>  (23) 
19

>  <cluster>  (23) 
3644

>  <N_interactions>  (23) 
7

>  <Enamine>  (23) 
1

>  <Mcule>  (23) 
0

>  <N_PAINS>  (23) 
0

>  <UFF_Gibbs>  (23) 
35.544

>  <strain_per_HA>  (23) 
1.870737

>  <intxn_scored>  (23) 
13.0

>  <saltbridge:HIS:51>  (23) 
0

>  <pistack:HIS:51>  (23) 
1

>  <hydroph_interaction:HIS:51>  (23) 
0

>  <hbond:ALA:132>  (23) 
0

>  <hbond:SER:135>  (23) 
0

>  <hydroph_interaction:TYR:150>  (23) 
1

>  <pistack:TYR:161>  (23) 
2

>  <hydroph_interaction:TYR:161>  (23) 
0

>  <hydroph_interaction:ASP:83>  (23) 
0

>  <hbond:TYR:130>  (23) 
0

>  <hydroph_interaction:ALA:132>  (23) 
1

>  <hbond:HIS:51>  (23) 
0

>  <hbond:ASP:129>  (23) 
0

>  <hbond:TYR:150>  (23) 
0

>  <hbond:GLY:151>  (23) 
1

>  <hbond:TYR:161>  (23) 
1

>  <hydroph_interaction:TYR:130>  (23) 
0

>  <hydroph_interaction:PRO:131>  (23) 
0

>  <hydroph_interaction:ASP:129>  (23) 
0

>  <saltbridge:ASP:75>  (23) 
0

>  <saltbridge:ASP:83>  (23) 
0

>  <hbond:ASN:152>  (23) 
0

>  <hydroph_interaction:ASN:152>  (23) 
0

>  <halogenbond:TYR:150>  (23) 
0

>  <hbond:ASP:83>  (23) 
0

>  <hydroph_interaction:VAL:155>  (23) 
0

>  <pication:TYR:161>  (23) 
0

>  <hbond:PRO:131>  (23) 
0

>  <saltbridge:ASP:129>  (23) 
0

>  <hbond:THR:134>  (23) 
0

>  <pication:HIS:51>  (23) 
0

>  <hbond:SER:81>  (23) 
0

>  <hydroph_interaction:THR:134>  (23) 
0

>  <hydroph_interaction:MET:49>  (23) 
0

$$$$
Z1979030262
     RDKit          3D

 32 34  0  0  0  0  0  0  0  0999 V2000
   -8.5830    4.4860   -9.1640 C   0  0  0  0  0  0  0  0  0  0  0  0
   -8.6990    5.0380  -10.5080 N   0  0  0  0  0  0  0  0  0  0  0  0
   -8.6240    4.2420  -11.7010 C   0  0  0  0  0  0  0  0  0  0  0  0
   -8.7650    5.0370  -12.8180 C   0  0  0  0  0  0  0  0  0  0  0  0
   -8.7560    4.7540  -14.1690 N   0  0  0  0  0  0  0  0  0  0  0  0
   -8.1930    5.5960  -15.1030 C   0  0  0  0  0  0  0  0  0  0  0  0
   -7.3820    6.7300  -14.8170 O   0  0  0  0  0  0  0  0  0  0  0  0
   -8.4920    5.2960  -16.5080 C   0  0  0  0  0  0  0  0  0  0  0  0
   -9.7620    4.8900  -16.8200 C   0  0  0  0  0  0  0  0  0  0  0  0
  -10.1330    4.5870  -18.2690 C   0  0  0  0  0  0  0  0  0  0  0  0
   -9.1650    4.7180  -19.2520 C   0  0  0  0  0  0  0  0  0  0  0  0
   -7.8800    5.1240  -18.8920 C   0  0  0  0  0  0  0  0  0  0  0  0
   -7.5580    5.4070  -17.5530 C   0  0  0  0  0  0  0  0  0  0  0  0
   -6.2390    5.7680  -17.6190 N   0  0  0  0  0  0  0  0  0  0  0  0
   -5.3950    6.1650  -16.5330 C   0  0  0  0  0  0  0  0  0  0  0  0
   -5.8340    5.6900  -18.9200 C   0  0  0  0  0  0  0  0  0  0  0  0
   -6.7980    5.3030  -19.7160 N   0  0  0  0  0  0  0  0  0  0  0  0
   -8.9280    6.3250  -12.1970 C   0  0  0  0  0  0  0  0  0  0  0  0
   -8.8890    6.3280  -10.8260 N   0  0  0  0  0  0  0  0  0  0  0  0
   -9.2560    4.9940   -8.4720 H   0  0  0  0  0  0  0  0  0  0  0  0
   -8.8590    3.4250   -9.1540 H   0  0  0  0  0  0  0  0  0  0  0  0
   -7.5620    4.5940   -8.7880 H   0  0  0  0  0  0  0  0  0  0  0  0
   -8.4720    3.1550  -11.7160 H   0  0  0  0  0  0  0  0  0  0  0  0
   -9.2170    3.8990  -14.4770 H   0  0  0  0  0  0  0  0  0  0  0  0
  -10.4930    4.7890  -16.0330 H   0  0  0  0  0  0  0  0  0  0  0  0
  -11.1410    4.2740  -18.5250 H   0  0  0  0  0  0  0  0  0  0  0  0
   -9.3860    4.5100  -20.2940 H   0  0  0  0  0  0  0  0  0  0  0  0
   -4.3520    6.1090  -16.8540 H   0  0  0  0  0  0  0  0  0  0  0  0
   -5.5420    5.4750  -15.6950 H   0  0  0  0  0  0  0  0  0  0  0  0
   -5.6740    7.1760  -16.2270 H   0  0  0  0  0  0  0  0  0  0  0  0
   -4.8260    5.9270  -19.2320 H   0  0  0  0  0  0  0  0  0  0  0  0
   -9.0750    7.2760  -12.6890 H   0  0  0  0  0  0  0  0  0  0  0  0
  1  2  1  0
  2  3  1  0
  3  4  2  0
  4  5  1  0
  5  6  1  0
  6  7  2  0
  6  8  1  0
  8  9  2  0
  9 10  1  0
 10 11  2  0
 11 12  1  0
 12 13  2  0
 13 14  1  0
 14 15  1  0
 14 16  1  0
 16 17  2  0
  4 18  1  0
 18 19  2  0
 19  2  1  0
 13  8  1  0
 17 12  1  0
  1 20  1  0
  1 21  1  0
  1 22  1  0
  3 23  1  0
  5 24  1  0
  9 25  1  0
 10 26  1  0
 11 27  1  0
 15 28  1  0
 15 29  1  0
 15 30  1  0
 16 31  1  0
 18 32  1  0
A    1
 C1 
A    2
 N1 
A    3
 C2 
A    4
 C3 
A    5
 N2 
A    6
 C4 
A    7
 O1 
A    8
 C5 
A    9
 C6 
A   10
 C7 
A   11
 C8 
A   12
 C9 
A   13
 C10
A   14
 N3 
A   15
 C11
A   16
 C12
A   17
 N4 
A   18
 C13
A   19
 N5 
A   20
 H1 
A   21
 H2 
A   22
 H3 
A   23
 H4 
A   24
 H5 
A   25
 H6 
A   26
 H7 
A   27
 H8 
A   28
 H9 
A   29
 H10
A   30
 H11
A   31
 H12
A   32
 H13
M  END
>  <ref_pdb>  (24) 
x0051_0B

>  <ref_mols>  (24) 
x1098_0B,x0490_0B

>  <original SMILES>  (24) 
[H]c1nn(C([H])([H])[H])c([H])c1N([H])C(=O)c1c([H])c([H])c([H])c2nc([H])n(C([H])([H])[H])c12

>  <index>  (24) 
3903

>  <∆∆G>  (24) 
-7.786686

>  <∆G_bound>  (24) 
-7.258707

>  <∆G_unbound>  (24) 
0.527979

>  <comRMSD>  (24) 
0.388865

>  <N_constrained_atoms>  (24) 
19.0

>  <N_unconstrained_atoms>  (24) 
0.0

>  <runtime>  (24) 
47.785064

>  <LE>  (24) 
0.409826

>  <percent_hybrid>  (24) 
10.0

>  <dist>  (24) 
3.0

>  <ecfp4>  (24) 
0.557377

>  <daylight>  (24) 
0.406863

>  <topodist>  (24) 
1.0

>  <mces>  (24) 
21.0

>  <tdn>  (24) 
1.0

>  <tup>  (24) 
0.0

>  <rdn>  (24) 
0.0

>  <rup>  (24) 
0.0

>  <ldn>  (24) 
0.0

>  <lup>  (24) 
0.0

>  <mut>  (24) 
0.0

>  <maj>  (24) 
0.0

>  <min>  (24) 
0.0

>  <hyb>  (24) 
2.0

>  <sub>  (24) 
1.0

>  <query_index>  (24) 
69.0

>  <max_hit_Tanimoto>  (24) 
0.42963

>  <largest_ring>  (24) 
6

>  <N_interactions_kept>  (24) 
1.0

>  <N_interactions_lost>  (24) 
5.0

>  <interaction_uniqueness_metric>  (24) 
0.164058

>  <ad_hoc_penalty>  (24) 
-0.631975

>  <N_rotatable_bonds>  (24) 
4

>  <N_HA>  (24) 
19

>  <cluster>  (24) 
2589

>  <N_interactions>  (24) 
7

>  <Enamine>  (24) 
1

>  <Mcule>  (24) 
0

>  <N_PAINS>  (24) 
0

>  <UFF_Gibbs>  (24) 
61.538787

>  <strain_per_HA>  (24) 
3.238884

>  <intxn_scored>  (24) 
13.0

>  <saltbridge:HIS:51>  (24) 
0

>  <pistack:HIS:51>  (24) 
1

>  <hydroph_interaction:HIS:51>  (24) 
0

>  <hbond:ALA:132>  (24) 
0

>  <hbond:SER:135>  (24) 
0

>  <hydroph_interaction:TYR:150>  (24) 
1

>  <pistack:TYR:161>  (24) 
2

>  <hydroph_interaction:TYR:161>  (24) 
0

>  <hydroph_interaction:ASP:83>  (24) 
0

>  <hbond:TYR:130>  (24) 
0

>  <hydroph_interaction:ALA:132>  (24) 
1

>  <hbond:HIS:51>  (24) 
0

>  <hbond:ASP:129>  (24) 
0

>  <hbond:TYR:150>  (24) 
0

>  <hbond:GLY:151>  (24) 
1

>  <hbond:TYR:161>  (24) 
1

>  <hydroph_interaction:TYR:130>  (24) 
0

>  <hydroph_interaction:PRO:131>  (24) 
0

>  <hydroph_interaction:ASP:129>  (24) 
0

>  <saltbridge:ASP:75>  (24) 
0

>  <saltbridge:ASP:83>  (24) 
0

>  <hbond:ASN:152>  (24) 
0

>  <hydroph_interaction:ASN:152>  (24) 
0

>  <halogenbond:TYR:150>  (24) 
0

>  <hbond:ASP:83>  (24) 
0

>  <hydroph_interaction:VAL:155>  (24) 
0

>  <pication:TYR:161>  (24) 
0

>  <hbond:PRO:131>  (24) 
0

>  <saltbridge:ASP:129>  (24) 
0

>  <hbond:THR:134>  (24) 
0

>  <pication:HIS:51>  (24) 
0

>  <hbond:SER:81>  (24) 
0

>  <hydroph_interaction:THR:134>  (24) 
0

>  <hydroph_interaction:MET:49>  (24) 
0

$$$$
PV-002159818933
     RDKit          3D

 41 43  0  0  0  0  0  0  0  0999 V2000
   -4.7890    5.8090  -22.5760 C   0  0  0  0  0  0  0  0  0  0  0  0
   -3.9440    5.8940  -21.4900 N   0  0  0  0  0  0  0  0  0  0  0  0
   -2.5810    5.5090  -21.5330 C   0  0  0  0  0  0  0  0  0  0  0  0
   -4.6260    5.3090  -20.3320 C   0  0  0  0  0  0  0  0  0  0  0  0
   -5.6980    6.0100  -19.7730 C   0  0  0  0  0  0  0  0  0  0  0  0
   -6.7220    5.1790  -19.5260 N   0  0  0  0  0  0  0  0  0  0  0  0
   -7.4910    4.5880  -20.5370 C   0  0  0  0  0  0  0  0  0  0  0  0
   -7.1050    4.1960  -21.6170 O   0  0  0  0  0  0  0  0  0  0  0  0
   -8.8490    4.5210  -20.1320 N   0  0  0  0  0  0  0  0  0  0  0  0
   -8.9060    4.7410  -18.7940 C   0  0  0  0  0  0  0  0  0  0  0  0
   -9.9300    4.6330  -17.8920 C   0  0  0  0  0  0  0  0  0  0  0  0
   -9.6410    4.9330  -16.5560 C   0  0  0  0  0  0  0  0  0  0  0  0
   -8.3680    5.3360  -16.1340 C   0  0  0  0  0  0  0  0  0  0  0  0
   -8.1320    5.6280  -14.8190 C   0  0  0  0  0  0  0  0  0  0  0  0
   -7.5640    6.6810  -14.5700 O   0  0  0  0  0  0  0  0  0  0  0  0
   -8.5720    4.7090  -13.9070 N   0  0  0  0  0  0  0  0  0  0  0  0
   -8.6720    5.0870  -12.5940 C   0  0  0  0  0  0  0  0  0  0  0  0
   -8.9410    6.4750  -12.1510 C   0  0  0  0  0  0  0  0  0  0  0  0
   -8.9950    6.6930  -10.4550 S   0  0  0  0  0  0  0  0  0  0  0  0
   -8.6910    5.0570  -10.1730 C   0  0  0  0  0  0  0  0  0  0  0  0
   -8.5990    4.5110   -8.5640 Cl  0  0  0  0  0  0  0  0  0  0  0  0
   -8.5300    4.2550  -11.4560 C   0  0  0  0  0  0  0  0  0  0  0  0
   -7.3090    5.4600  -17.0180 C   0  0  0  0  0  0  0  0  0  0  0  0
   -7.6580    5.1310  -18.4120 C   0  0  0  0  0  0  0  0  0  0  0  0
   -5.3350    4.8600  -22.5310 H   0  0  0  0  0  0  0  0  0  0  0  0
   -4.2300    5.8610  -23.5150 H   0  0  0  0  0  0  0  0  0  0  0  0
   -5.5130    6.6330  -22.5540 H   0  0  0  0  0  0  0  0  0  0  0  0
   -2.0550    6.2220  -22.1820 H   0  0  0  0  0  0  0  0  0  0  0  0
   -2.1490    5.5490  -20.5280 H   0  0  0  0  0  0  0  0  0  0  0  0
   -2.4550    4.4910  -21.9240 H   0  0  0  0  0  0  0  0  0  0  0  0
   -3.9370    5.0050  -19.5440 H   0  0  0  0  0  0  0  0  0  0  0  0
   -5.0820    4.4090  -20.7270 H   0  0  0  0  0  0  0  0  0  0  0  0
   -6.0350    6.7840  -20.4730 H   0  0  0  0  0  0  0  0  0  0  0  0
   -5.4100    6.4760  -18.8230 H   0  0  0  0  0  0  0  0  0  0  0  0
   -9.6400    4.5940  -20.7750 H   0  0  0  0  0  0  0  0  0  0  0  0
  -10.9220    4.3260  -18.2020 H   0  0  0  0  0  0  0  0  0  0  0  0
  -10.4180    4.8560  -15.8060 H   0  0  0  0  0  0  0  0  0  0  0  0
   -9.1440    3.9230  -14.2210 H   0  0  0  0  0  0  0  0  0  0  0  0
   -9.0910    7.3070  -12.8310 H   0  0  0  0  0  0  0  0  0  0  0  0
   -8.3280    3.1810  -11.3560 H   0  0  0  0  0  0  0  0  0  0  0  0
   -6.2760    5.7650  -16.8120 H   0  0  0  0  0  0  0  0  0  0  0  0
  1  2  1  0
  2  3  1  0
  2  4  1  0
  4  5  1  0
  5  6  1  0
  6  7  1  0
  7  8  2  0
  7  9  1  0
  9 10  1  0
 10 11  2  0
 11 12  1  0
 12 13  2  0
 13 14  1  0
 14 15  2  0
 14 16  1  0
 16 17  1  0
 17 18  2  0
 18 19  1  0
 19 20  1  0
 20 21  1  0
 20 22  2  0
 13 23  1  0
 23 24  2  0
 24  6  1  0
 24 10  1  0
 22 17  1  0
  1 25  1  0
  1 26  1  0
  1 27  1  0
  3 28  1  0
  3 29  1  0
  3 30  1  0
  4 31  1  0
  4 32  1  0
  5 33  1  0
  5 34  1  0
  9 35  1  0
 11 36  1  0
 12 37  1  0
 16 38  1  0
 18 39  1  0
 22 40  1  0
 23 41  1  0
A    1
 C1 
A    2
 N1 
A    3
 C2 
A    4
 C3 
A    5
 C4 
A    6
 N2 
A    7
 C5 
A    8
 O1 
A    9
 N3 
A   10
 C6 
A   11
 C7 
A   12
 C8 
A   13
 C9 
A   14
 C10
A   15
 O2 
A   16
 N4 
A   17
 C11
A   18
 C12
A   19
 S1 
A   20
 C13
A   21
CL1 
A   22
 C14
A   23
 C15
A   24
 C16
A   25
 H1 
A   26
 H2 
A   27
 H3 
A   28
 H4 
A   29
 H5 
A   30
 H6 
A   31
 H7 
A   32
 H8 
A   33
 H9 
A   34
 H10
A   35
 H11
A   36
 H12
A   37
 H13
A   38
 H14
A   39
 H15
A   40
 H16
A   41
 H17
M  END
>  <ref_pdb>  (25) 
x0051_0B

>  <ref_mols>  (25) 
x0904_0B,x1098_0B

>  <original SMILES>  (25) 
[H]c1sc(Cl)c([H])c1N([H])C(=O)c1c([H])c([H])c2c(c1[H])n(C([H])([H])C([H])([H])N(C([H])([H])[H])C([H])([H])[H])c(=O)n2[H]

>  <index>  (25) 
1401

>  <∆∆G>  (25) 
-6.323174

>  <∆G_bound>  (25) 
-5.92696

>  <∆G_unbound>  (25) 
0.396214

>  <comRMSD>  (25) 
0.85804

>  <N_constrained_atoms>  (25) 
24.0

>  <N_unconstrained_atoms>  (25) 
2.0

>  <runtime>  (25) 
74.099428

>  <LE>  (25) 
0.243199

>  <percent_hybrid>  (25) 
42.0

>  <dist>  (25) 
9.0

>  <ecfp4>  (25) 
0.241379

>  <daylight>  (25) 
0.355856

>  <topodist>  (25) 
2.0

>  <mces>  (25) 
25.0

>  <tdn>  (25) 
1.0

>  <tup>  (25) 
0.0

>  <rdn>  (25) 
0.0

>  <rup>  (25) 
1.0

>  <ldn>  (25) 
0.0

>  <lup>  (25) 
0.0

>  <mut>  (25) 
5.0

>  <maj>  (25) 
5.0

>  <min>  (25) 
0.0

>  <hyb>  (25) 
2.0

>  <sub>  (25) 
1.0

>  <query_index>  (25) 
34.0

>  <max_hit_Tanimoto>  (25) 
0.301345

>  <largest_ring>  (25) 
6

>  <N_interactions_kept>  (25) 
3.0

>  <N_interactions_lost>  (25) 
3.0

>  <interaction_uniqueness_metric>  (25) 
0.358547

>  <ad_hoc_penalty>  (25) 
-12.762134

>  <N_rotatable_bonds>  (25) 
7

>  <N_HA>  (25) 
24

>  <cluster>  (25) 
4933

>  <N_interactions>  (25) 
8

>  <Enamine>  (25) 
1

>  <Mcule>  (25) 
0

>  <N_PAINS>  (25) 
0

>  <UFF_Gibbs>  (25) 
155.512193

>  <strain_per_HA>  (25) 
6.479675

>  <intxn_scored>  (25) 
13.0

>  <saltbridge:HIS:51>  (25) 
0

>  <pistack:HIS:51>  (25) 
1

>  <hydroph_interaction:HIS:51>  (25) 
0

>  <hbond:ALA:132>  (25) 
0

>  <hbond:SER:135>  (25) 
0

>  <hydroph_interaction:TYR:150>  (25) 
0

>  <pistack:TYR:161>  (25) 
2

>  <hydroph_interaction:TYR:161>  (25) 
0

>  <hydroph_interaction:ASP:83>  (25) 
0

>  <hbond:TYR:130>  (25) 
1

>  <hydroph_interaction:ALA:132>  (25) 
0

>  <hbond:HIS:51>  (25) 
0

>  <hbond:ASP:129>  (25) 
1

>  <hbond:TYR:150>  (25) 
1

>  <hbond:GLY:151>  (25) 
1

>  <hbond:TYR:161>  (25) 
0

>  <hydroph_interaction:TYR:130>  (25) 
0

>  <hydroph_interaction:PRO:131>  (25) 
0

>  <hydroph_interaction:ASP:129>  (25) 
0

>  <saltbridge:ASP:75>  (25) 
0

>  <saltbridge:ASP:83>  (25) 
0

>  <hbond:ASN:152>  (25) 
0

>  <hydroph_interaction:ASN:152>  (25) 
0

>  <halogenbond:TYR:150>  (25) 
0

>  <hbond:ASP:83>  (25) 
0

>  <hydroph_interaction:VAL:155>  (25) 
0

>  <pication:TYR:161>  (25) 
0

>  <hbond:PRO:131>  (25) 
0

>  <saltbridge:ASP:129>  (25) 
1

>  <hbond:THR:134>  (25) 
0

>  <pication:HIS:51>  (25) 
0

>  <hbond:SER:81>  (25) 
0

>  <hydroph_interaction:THR:134>  (25) 
0

>  <hydroph_interaction:MET:49>  (25) 
0

$$$$
Z2770279474
     RDKit          3D

 37 40  0  0  0  0  0  0  0  0999 V2000
   -8.5330    4.9870  -18.9590 C   0  0  0  0  0  0  0  0  0  0  0  0
   -9.7820    4.6520  -18.1250 C   0  0  0  0  0  0  0  0  0  0  0  0
   -9.6490    4.7440  -16.5900 C   0  0  0  0  0  0  0  0  0  0  0  0
   -8.4110    5.1210  -16.0250 C   0  0  0  0  0  0  0  0  0  0  0  0
   -7.9660    5.2870  -14.5940 C   0  0  0  0  0  0  0  0  0  0  0  0
   -8.6790    5.0880  -13.3710 C   0  0  0  0  0  0  0  0  0  0  0  0
   -8.6550    6.1310  -12.4920 N   0  0  0  0  0  0  0  0  0  0  0  0
   -8.7500    5.9180  -10.9790 C   0  0  0  0  0  0  0  0  0  0  0  0
   -8.8730    4.6960  -10.2560 C   0  0  0  0  0  0  0  0  0  0  0  0
   -8.9420    3.3830  -10.6800 C   0  0  0  0  0  0  0  0  0  0  0  0
   -9.3880    2.4570   -9.5520 C   0  0  0  0  0  0  0  0  0  0  0  0
   -9.5040    2.8800   -8.2040 C   0  0  0  0  0  0  0  0  0  0  0  0
   -9.0440    4.1400   -7.8110 C   0  0  0  0  0  0  0  0  0  0  0  0
   -8.9210    4.9940   -8.9750 N   0  0  0  0  0  0  0  0  0  0  0  0
   -8.8440    6.3020   -8.6600 N   0  0  0  0  0  0  0  0  0  0  0  0
   -8.7430    6.8450   -9.8960 C   0  0  0  0  0  0  0  0  0  0  0  0
   -6.6510    5.6870  -14.5930 N   0  0  0  0  0  0  0  0  0  0  0  0
   -6.2630    5.7640  -15.9040 N   0  0  0  0  0  0  0  0  0  0  0  0
   -7.3520    5.4090  -16.8080 C   0  0  0  0  0  0  0  0  0  0  0  0
   -7.3320    5.3630  -18.3510 C   0  0  0  0  0  0  0  0  0  0  0  0
   -8.6550    4.9090  -20.0450 H   0  0  0  0  0  0  0  0  0  0  0  0
  -10.7580    4.3520  -18.5220 H   0  0  0  0  0  0  0  0  0  0  0  0
  -10.4930    4.5180  -15.9550 H   0  0  0  0  0  0  0  0  0  0  0  0
   -8.2390    4.2150  -12.8710 H   0  0  0  0  0  0  0  0  0  0  0  0
   -9.7210    4.8020  -13.5820 H   0  0  0  0  0  0  0  0  0  0  0  0
   -8.1500    6.9460  -12.8410 H   0  0  0  0  0  0  0  0  0  0  0  0
   -7.9100    3.0820  -10.8900 H   0  0  0  0  0  0  0  0  0  0  0  0
   -9.4250    3.2370  -11.6420 H   0  0  0  0  0  0  0  0  0  0  0  0
   -8.6750    1.6260   -9.5270 H   0  0  0  0  0  0  0  0  0  0  0  0
  -10.3330    1.9850   -9.7270 H   0  0  0  0  0  0  0  0  0  0  0  0
  -10.5600    2.8010   -7.9270 H   0  0  0  0  0  0  0  0  0  0  0  0
   -8.9900    2.1390   -7.5780 H   0  0  0  0  0  0  0  0  0  0  0  0
   -8.0840    4.2310   -7.2870 H   0  0  0  0  0  0  0  0  0  0  0  0
   -9.7710    4.6050   -7.1400 H   0  0  0  0  0  0  0  0  0  0  0  0
   -8.6700    7.9390   -9.8560 H   0  0  0  0  0  0  0  0  0  0  0  0
   -5.3150    6.0410  -16.1290 H   0  0  0  0  0  0  0  0  0  0  0  0
   -6.3920    5.6220  -18.8490 H   0  0  0  0  0  0  0  0  0  0  0  0
  1  2  2  0
  2  3  1  0
  3  4  2  0
  4  5  1  0
  5  6  1  0
  6  7  1  0
  7  8  1  0
  8  9  2  0
  9 10  1  0
 10 11  1  0
 11 12  1  0
 12 13  1  0
 13 14  1  0
 14 15  1  0
 15 16  2  0
  5 17  2  0
 17 18  1  0
 18 19  1  0
 19 20  2  0
 20  1  1  0
 19  4  1  0
 16  8  1  0
 14  9  1  0
  1 21  1  0
  2 22  1  0
  3 23  1  0
  6 24  1  0
  6 25  1  0
  7 26  1  0
 10 27  1  0
 10 28  1  0
 11 29  1  0
 11 30  1  0
 12 31  1  0
 12 32  1  0
 13 33  1  0
 13 34  1  0
 16 35  1  0
 18 36  1  0
 20 37  1  0
A    1
 C1 
A    2
 C2 
A    3
 C3 
A    4
 C4 
A    5
 C5 
A    6
 C6 
A    7
 N1 
A    8
 C7 
A    9
 C8 
A   10
 C9 
A   11
 C10
A   12
 C11
A   13
 C12
A   14
 N2 
A   15
 N3 
A   16
 C13
A   17
 N4 
A   18
 N5 
A   19
 C14
A   20
 C15
A   21
 H1 
A   22
 H2 
A   23
 H3 
A   24
 H4 
A   25
 H5 
A   26
 H6 
A   27
 H7 
A   28
 H8 
A   29
 H9 
A   30
 H10
A   31
 H11
A   32
 H12
A   33
 H13
A   34
 H14
A   35
 H15
A   36
 H16
A   37
 H17
M  END
>  <ref_pdb>  (26) 
x0051_0B

>  <ref_mols>  (26) 
x0951_0B,x0969_1B

>  <original SMILES>  (26) 
[H]c1nn2c(c1N([H])C([H])([H])c1nn([H])c3c([H])c([H])c([H])c([H])c13)C([H])([H])C([H])([H])C([H])([H])C2([H])[H]

>  <index>  (26) 
424

>  <∆∆G>  (26) 
-6.200886

>  <∆G_bound>  (26) 
-5.805047

>  <∆G_unbound>  (26) 
0.395839

>  <comRMSD>  (26) 
0.648681

>  <N_constrained_atoms>  (26) 
21.0

>  <N_unconstrained_atoms>  (26) 
0.0

>  <runtime>  (26) 
46.459597

>  <LE>  (26) 
0.29528

>  <percent_hybrid>  (26) 
48.0

>  <dist>  (26) 
4.0

>  <ecfp4>  (26) 
0.181818

>  <daylight>  (26) 
0.431159

>  <topodist>  (26) 
1.0

>  <mces>  (26) 
23.0

>  <tdn>  (26) 
1.0

>  <tup>  (26) 
0.0

>  <rdn>  (26) 
0.0

>  <rup>  (26) 
0.0

>  <ldn>  (26) 
0.0

>  <lup>  (26) 
0.0

>  <mut>  (26) 
2.0

>  <maj>  (26) 
2.0

>  <min>  (26) 
0.0

>  <hyb>  (26) 
1.0

>  <sub>  (26) 
1.0

>  <query_index>  (26) 
201.0

>  <max_hit_Tanimoto>  (26) 
0.27177

>  <largest_ring>  (26) 
0

>  <N_interactions_kept>  (26) 
1.0

>  <N_interactions_lost>  (26) 
2.0

>  <interaction_uniqueness_metric>  (26) 
0.111558

>  <ad_hoc_penalty>  (26) 
-19.033422

>  <N_rotatable_bonds>  (26) 
3

>  <N_HA>  (26) 
20

>  <cluster>  (26) 
5834

>  <N_interactions>  (26) 
6

>  <Enamine>  (26) 
1

>  <Mcule>  (26) 
0

>  <N_PAINS>  (26) 
0

>  <UFF_Gibbs>  (26) 
145.443478

>  <strain_per_HA>  (26) 
7.272174

>  <intxn_scored>  (26) 
13.0

>  <saltbridge:HIS:51>  (26) 
0

>  <pistack:HIS:51>  (26) 
2

>  <hydroph_interaction:HIS:51>  (26) 
1

>  <hbond:ALA:132>  (26) 
0

>  <hbond:SER:135>  (26) 
0

>  <hydroph_interaction:TYR:150>  (26) 
1

>  <pistack:TYR:161>  (26) 
2

>  <hydroph_interaction:TYR:161>  (26) 
0

>  <hydroph_interaction:ASP:83>  (26) 
0

>  <hbond:TYR:130>  (26) 
0

>  <hydroph_interaction:ALA:132>  (26) 
0

>  <hbond:HIS:51>  (26) 
0

>  <hbond:ASP:129>  (26) 
0

>  <hbond:TYR:150>  (26) 
0

>  <hbond:GLY:151>  (26) 
0

>  <hbond:TYR:161>  (26) 
0

>  <hydroph_interaction:TYR:130>  (26) 
0

>  <hydroph_interaction:PRO:131>  (26) 
0

>  <hydroph_interaction:ASP:129>  (26) 
0

>  <saltbridge:ASP:75>  (26) 
0

>  <saltbridge:ASP:83>  (26) 
0

>  <hbond:ASN:152>  (26) 
0

>  <hydroph_interaction:ASN:152>  (26) 
0

>  <halogenbond:TYR:150>  (26) 
0

>  <hbond:ASP:83>  (26) 
0

>  <hydroph_interaction:VAL:155>  (26) 
0

>  <pication:TYR:161>  (26) 
0

>  <hbond:PRO:131>  (26) 
0

>  <saltbridge:ASP:129>  (26) 
0

>  <hbond:THR:134>  (26) 
0

>  <pication:HIS:51>  (26) 
0

>  <hbond:SER:81>  (26) 
0

>  <hydroph_interaction:THR:134>  (26) 
0

>  <hydroph_interaction:MET:49>  (26) 
0

$$$$
PV-003577494058
     RDKit          3D

 28 30  0  0  0  0  0  0  0  0999 V2000
   -4.1960    6.7930  -15.9050 N   0  0  0  0  0  0  0  0  0  0  0  0
   -5.0530    6.4160  -16.5930 C   0  0  0  0  0  0  0  0  0  0  0  0
   -6.1090    5.9350  -17.5850 C   0  0  0  0  0  0  0  0  0  0  0  0
   -5.6870    5.8750  -19.0370 C   0  0  0  0  0  0  0  0  0  0  0  0
   -6.7930    5.4270  -19.7130 N   0  0  0  0  0  0  0  0  0  0  0  0
   -7.8660    5.1980  -18.8520 C   0  0  0  0  0  0  0  0  0  0  0  0
   -7.4490    5.5080  -17.5240 C   0  0  0  0  0  0  0  0  0  0  0  0
   -8.5810    5.2710  -16.5480 C   0  0  0  0  0  0  0  0  0  0  0  0
   -8.2150    5.5930  -15.1030 C   0  0  0  0  0  0  0  0  0  0  0  0
   -7.4710    6.5350  -14.8890 O   0  0  0  0  0  0  0  0  0  0  0  0
   -8.7990    4.7780  -14.1560 N   0  0  0  0  0  0  0  0  0  0  0  0
   -8.7730    5.0610  -12.8050 C   0  0  0  0  0  0  0  0  0  0  0  0
   -8.5250    4.0550  -11.6960 C   0  0  0  0  0  0  0  0  0  0  0  0
   -8.5840    4.7960  -10.5520 N   0  0  0  0  0  0  0  0  0  0  0  0
   -8.8320    6.1090  -10.7570 N   0  0  0  0  0  0  0  0  0  0  0  0
   -8.9460    6.2650  -12.0910 C   0  0  0  0  0  0  0  0  0  0  0  0
   -9.8240    4.8180  -16.9060 C   0  0  0  0  0  0  0  0  0  0  0  0
  -10.1130    4.5580  -18.2390 C   0  0  0  0  0  0  0  0  0  0  0  0
   -9.1450    4.7420  -19.2160 C   0  0  0  0  0  0  0  0  0  0  0  0
   -4.7570    6.1080  -19.5410 H   0  0  0  0  0  0  0  0  0  0  0  0
   -6.8280    5.2820  -20.7140 H   0  0  0  0  0  0  0  0  0  0  0  0
   -9.2440    3.9100  -14.4490 H   0  0  0  0  0  0  0  0  0  0  0  0
   -8.3330    2.9920  -11.6780 H   0  0  0  0  0  0  0  0  0  0  0  0
   -8.4620    4.4710   -9.5940 H   0  0  0  0  0  0  0  0  0  0  0  0
   -9.1500    7.2550  -12.4800 H   0  0  0  0  0  0  0  0  0  0  0  0
  -10.5680    4.6660  -16.1440 H   0  0  0  0  0  0  0  0  0  0  0  0
  -11.1010    4.2090  -18.5130 H   0  0  0  0  0  0  0  0  0  0  0  0
   -9.3790    4.5340  -20.2590 H   0  0  0  0  0  0  0  0  0  0  0  0
  1  2  3  0
  2  3  1  0
  3  4  2  0
  4  5  1  0
  5  6  1  0
  6  7  2  0
  7  8  1  0
  8  9  1  0
  9 10  2  0
  9 11  1  0
 11 12  1  0
 12 13  2  0
 13 14  1  0
 14 15  1  0
 15 16  2  0
  8 17  2  0
 17 18  1  0
 18 19  2  0
  7  3  1  0
 19  6  1  0
 16 12  1  0
  4 20  1  0
  5 21  1  0
 11 22  1  0
 13 23  1  0
 14 24  1  0
 16 25  1  0
 17 26  1  0
 18 27  1  0
 19 28  1  0
A    1
 N1 
A    2
 C1 
A    3
 C2 
A    4
 C3 
A    5
 N2 
A    6
 C4 
A    7
 C5 
A    8
 C6 
A    9
 C7 
A   10
 O1 
A   11
 N3 
A   12
 C8 
A   13
 C9 
A   14
 N4 
A   15
 N5 
A   16
 C10
A   17
 C11
A   18
 C12
A   19
 C13
A   20
 H1 
A   21
 H2 
A   22
 H3 
A   23
 H4 
A   24
 H5 
A   25
 H6 
A   26
 H7 
A   27
 H8 
A   28
 H9 
M  END
>  <ref_pdb>  (27) 
x0051_0B

>  <ref_mols>  (27) 
x1098_0B,x0490_0B

>  <original SMILES>  (27) 
[H]c1nn([H])c([H])c1N([H])C(=O)c1c([H])c([H])c([H])c2c1c(C#N)c([H])n2[H]

>  <index>  (27) 
2986

>  <∆∆G>  (27) 
-7.4565

>  <∆G_bound>  (27) 
-6.140967

>  <∆G_unbound>  (27) 
1.315533

>  <comRMSD>  (27) 
0.42938

>  <N_constrained_atoms>  (27) 
19.0

>  <N_unconstrained_atoms>  (27) 
1.0

>  <runtime>  (27) 
42.167567

>  <LE>  (27) 
0.372825

>  <percent_hybrid>  (27) 
10.0

>  <dist>  (27) 
5.0

>  <ecfp4>  (27) 
0.30137

>  <daylight>  (27) 
0.330049

>  <topodist>  (27) 
1.0

>  <mces>  (27) 
21.0

>  <tdn>  (27) 
1.0

>  <tup>  (27) 
0.0

>  <rdn>  (27) 
0.0

>  <rup>  (27) 
0.0

>  <ldn>  (27) 
0.0

>  <lup>  (27) 
0.0

>  <mut>  (27) 
2.0

>  <maj>  (27) 
2.0

>  <min>  (27) 
0.0

>  <hyb>  (27) 
2.0

>  <sub>  (27) 
1.0

>  <query_index>  (27) 
69.0

>  <max_hit_Tanimoto>  (27) 
0.383095

>  <largest_ring>  (27) 
6

>  <N_interactions_kept>  (27) 
1.0

>  <N_interactions_lost>  (27) 
5.0

>  <interaction_uniqueness_metric>  (27) 
0.164058

>  <ad_hoc_penalty>  (27) 
-4.556669

>  <N_rotatable_bonds>  (27) 
2

>  <N_HA>  (27) 
19

>  <cluster>  (27) 
3458

>  <N_interactions>  (27) 
7

>  <Enamine>  (27) 
1

>  <Mcule>  (27) 
0

>  <N_PAINS>  (27) 
0

>  <UFF_Gibbs>  (27) 
71.76484

>  <strain_per_HA>  (27) 
3.777097

>  <intxn_scored>  (27) 
13.0

>  <saltbridge:HIS:51>  (27) 
0

>  <pistack:HIS:51>  (27) 
1

>  <hydroph_interaction:HIS:51>  (27) 
0

>  <hbond:ALA:132>  (27) 
0

>  <hbond:SER:135>  (27) 
0

>  <hydroph_interaction:TYR:150>  (27) 
1

>  <pistack:TYR:161>  (27) 
2

>  <hydroph_interaction:TYR:161>  (27) 
0

>  <hydroph_interaction:ASP:83>  (27) 
0

>  <hbond:TYR:130>  (27) 
0

>  <hydroph_interaction:ALA:132>  (27) 
1

>  <hbond:HIS:51>  (27) 
0

>  <hbond:ASP:129>  (27) 
0

>  <hbond:TYR:150>  (27) 
0

>  <hbond:GLY:151>  (27) 
1

>  <hbond:TYR:161>  (27) 
1

>  <hydroph_interaction:TYR:130>  (27) 
0

>  <hydroph_interaction:PRO:131>  (27) 
0

>  <hydroph_interaction:ASP:129>  (27) 
0

>  <saltbridge:ASP:75>  (27) 
0

>  <saltbridge:ASP:83>  (27) 
0

>  <hbond:ASN:152>  (27) 
0

>  <hydroph_interaction:ASN:152>  (27) 
0

>  <halogenbond:TYR:150>  (27) 
0

>  <hbond:ASP:83>  (27) 
0

>  <hydroph_interaction:VAL:155>  (27) 
0

>  <pication:TYR:161>  (27) 
0

>  <hbond:PRO:131>  (27) 
0

>  <saltbridge:ASP:129>  (27) 
0

>  <hbond:THR:134>  (27) 
0

>  <pication:HIS:51>  (27) 
0

>  <hbond:SER:81>  (27) 
0

>  <hydroph_interaction:THR:134>  (27) 
0

>  <hydroph_interaction:MET:49>  (27) 
0

$$$$
CSSS00000099547
     RDKit          3D

 20 21  0  0  0  0  0  0  0  0999 V2000
   -6.8220    4.7990  -20.8570 N   0  0  0  0  0  0  0  0  0  0  0  0
   -6.4950    5.4770  -19.6110 C   0  0  0  0  0  0  0  0  0  0  0  0
   -7.5080    5.2810  -18.6780 C   0  0  0  0  0  0  0  0  0  0  0  0
   -7.2990    5.4620  -17.3110 C   0  0  0  0  0  0  0  0  0  0  0  0
   -6.1980    5.8350  -16.5860 N   0  0  0  0  0  0  0  0  0  0  0  0
   -6.4060    5.8960  -15.2600 N   0  0  0  0  0  0  0  0  0  0  0  0
   -7.6880    5.5460  -15.1420 C   0  0  0  0  0  0  0  0  0  0  0  0
   -8.2940    5.2680  -16.3690 C   0  0  0  0  0  0  0  0  0  0  0  0
   -9.5720    4.8740  -16.7760 C   0  0  0  0  0  0  0  0  0  0  0  0
   -9.8160    4.6860  -18.1400 C   0  0  0  0  0  0  0  0  0  0  0  0
   -8.8010    4.8870  -19.0670 C   0  0  0  0  0  0  0  0  0  0  0  0
   -7.5360    5.3450  -21.3490 H   0  0  0  0  0  0  0  0  0  0  0  0
   -7.2330    3.8910  -20.6510 H   0  0  0  0  0  0  0  0  0  0  0  0
   -6.3520    6.5460  -19.8070 H   0  0  0  0  0  0  0  0  0  0  0  0
   -5.5490    5.0960  -19.2150 H   0  0  0  0  0  0  0  0  0  0  0  0
   -5.2770    6.0620  -16.9350 H   0  0  0  0  0  0  0  0  0  0  0  0
   -8.1330    5.5090  -14.1570 H   0  0  0  0  0  0  0  0  0  0  0  0
  -10.3580    4.7180  -16.0480 H   0  0  0  0  0  0  0  0  0  0  0  0
  -10.8050    4.3820  -18.4720 H   0  0  0  0  0  0  0  0  0  0  0  0
   -9.0130    4.7320  -20.1250 H   0  0  0  0  0  0  0  0  0  0  0  0
  1  2  1  0
  2  3  1  0
  3  4  2  0
  4  5  1  0
  5  6  1  0
  6  7  2  0
  7  8  1  0
  8  9  2  0
  9 10  1  0
 10 11  2  0
 11  3  1  0
  8  4  1  0
  1 12  1  0
  1 13  1  0
  2 14  1  0
  2 15  1  0
  5 16  1  0
  7 17  1  0
  9 18  1  0
 10 19  1  0
 11 20  1  0
A    1
 N1 
A    2
 C1 
A    3
 C2 
A    4
 C3 
A    5
 N2 
A    6
 N3 
A    7
 C4 
A    8
 C5 
A    9
 C6 
A   10
 C7 
A   11
 C8 
A   12
 H1 
A   13
 H2 
A   14
 H3 
A   15
 H4 
A   16
 H5 
A   17
 H6 
A   18
 H7 
A   19
 H8 
A   20
 H9 
M  END
>  <ref_pdb>  (28) 
x0051_0B

>  <ref_mols>  (28) 
x0951_0B,x0693_0B

>  <original SMILES>  (28) 
[H]c1c([H])c(C([H])([H])N([H])[H])c2c(c([H])nn2[H])c1[H]

>  <index>  (28) 
257

>  <∆∆G>  (28) 
-6.97895

>  <∆G_bound>  (28) 
-6.911687

>  <∆G_unbound>  (28) 
0.067263

>  <comRMSD>  (28) 
0.539473

>  <N_constrained_atoms>  (28) 
12.0

>  <N_unconstrained_atoms>  (28) 
0.0

>  <runtime>  (28) 
27.251801

>  <LE>  (28) 
0.581579

>  <percent_hybrid>  (28) 
50.0

>  <dist>  (28) 
7.0

>  <ecfp4>  (28) 
0.065574

>  <daylight>  (28) 
0.236025

>  <topodist>  (28) 
4.0

>  <mces>  (28) 
12.0

>  <tdn>  (28) 
4.0

>  <tup>  (28) 
0.0

>  <rdn>  (28) 
0.0

>  <rup>  (28) 
0.0

>  <ldn>  (28) 
0.0

>  <lup>  (28) 
0.0

>  <mut>  (28) 
2.0

>  <maj>  (28) 
2.0

>  <min>  (28) 
0.0

>  <hyb>  (28) 
1.0

>  <sub>  (28) 
1.0

>  <query_index>  (28) 
138.0

>  <max_hit_Tanimoto>  (28) 
0.155653

>  <largest_ring>  (28) 
0

>  <N_interactions_kept>  (28) 
3.0

>  <N_interactions_lost>  (28) 
1.5

>  <interaction_uniqueness_metric>  (28) 
0.068471

>  <ad_hoc_penalty>  (28) 
-26.220098

>  <N_rotatable_bonds>  (28) 
2

>  <N_HA>  (28) 
11

>  <cluster>  (28) 
5983

>  <N_interactions>  (28) 
5

>  <Enamine>  (28) 
1

>  <Mcule>  (28) 
0

>  <N_PAINS>  (28) 
0

>  <UFF_Gibbs>  (28) 
29.060161

>  <strain_per_HA>  (28) 
2.641833

>  <intxn_scored>  (28) 
12.5

>  <saltbridge:HIS:51>  (28) 
0

>  <pistack:HIS:51>  (28) 
0

>  <hydroph_interaction:HIS:51>  (28) 
0

>  <hbond:ALA:132>  (28) 
0

>  <hbond:SER:135>  (28) 
0

>  <hydroph_interaction:TYR:150>  (28) 
1

>  <pistack:TYR:161>  (28) 
2

>  <hydroph_interaction:TYR:161>  (28) 
0

>  <hydroph_interaction:ASP:83>  (28) 
0

>  <hbond:TYR:130>  (28) 
2

>  <hydroph_interaction:ALA:132>  (28) 
0

>  <hbond:HIS:51>  (28) 
0

>  <hbond:ASP:129>  (28) 
0

>  <hbond:TYR:150>  (28) 
0

>  <hbond:GLY:151>  (28) 
0

>  <hbond:TYR:161>  (28) 
0

>  <hydroph_interaction:TYR:130>  (28) 
0

>  <hydroph_interaction:PRO:131>  (28) 
0

>  <hydroph_interaction:ASP:129>  (28) 
0

>  <saltbridge:ASP:75>  (28) 
0

>  <saltbridge:ASP:83>  (28) 
0

>  <hbond:ASN:152>  (28) 
0

>  <hydroph_interaction:ASN:152>  (28) 
0

>  <halogenbond:TYR:150>  (28) 
0

>  <hbond:ASP:83>  (28) 
0

>  <hydroph_interaction:VAL:155>  (28) 
0

>  <pication:TYR:161>  (28) 
0

>  <hbond:PRO:131>  (28) 
0

>  <saltbridge:ASP:129>  (28) 
0

>  <hbond:THR:134>  (28) 
0

>  <pication:HIS:51>  (28) 
0

>  <hbond:SER:81>  (28) 
0

>  <hydroph_interaction:THR:134>  (28) 
0

>  <hydroph_interaction:MET:49>  (28) 
0

$$$$
CSSB00020651198
     RDKit          3D

 50 53  0  0  0  0  0  0  0  0999 V2000
   -4.0740    5.4240  -18.8000 C   0  0  0  0  0  0  0  0  0  0  0  0
   -5.1930    5.4010  -18.0700 N   0  0  0  0  0  0  0  0  0  0  0  0
   -5.3880    5.6260  -16.6700 C   0  0  0  0  0  0  0  0  0  0  0  0
   -6.8390    5.4730  -16.3670 C   0  0  0  0  0  0  0  0  0  0  0  0
   -7.4350    5.6560  -14.9980 C   0  0  0  0  0  0  0  0  0  0  0  0
   -8.0990    6.8770  -15.0510 C   0  0  0  0  0  0  0  0  0  0  0  0
   -8.6710    7.4410  -13.7640 C   0  0  0  0  0  0  0  0  0  0  0  0
   -9.0590    8.8210  -13.7860 O   0  0  0  0  0  0  0  0  0  0  0  0
   -8.7520    6.5740  -12.5540 C   0  0  0  0  0  0  0  0  0  0  0  0
   -8.5750    7.2920  -11.2560 C   0  0  0  0  0  0  0  0  0  0  0  0
   -8.6240    6.4780  -10.0210 C   0  0  0  0  0  0  0  0  0  0  0  0
   -8.8470    4.9680  -10.1180 C   0  0  0  0  0  0  0  0  0  0  0  0
   -9.0040    4.4520  -11.4230 C   0  0  0  0  0  0  0  0  0  0  0  0
   -8.9640    5.1990  -12.5970 C   0  0  0  0  0  0  0  0  0  0  0  0
   -8.8880    4.1580   -8.9380 N   0  0  0  0  0  0  0  0  0  0  0  0
   -9.1220    2.7000   -9.0230 C   0  0  0  0  0  0  0  0  0  0  0  0
   -9.7360    2.3070   -7.9070 C   0  0  0  0  0  0  0  0  0  0  0  0
   -8.9030    2.5750   -6.7800 O   0  0  0  0  0  0  0  0  0  0  0  0
   -8.7490    3.9760   -6.5660 C   0  0  0  0  0  0  0  0  0  0  0  0
   -8.2470    4.6130   -7.6830 C   0  0  0  0  0  0  0  0  0  0  0  0
   -7.4530    5.1650  -17.5530 C   0  0  0  0  0  0  0  0  0  0  0  0
   -8.7870    4.9160  -17.8260 C   0  0  0  0  0  0  0  0  0  0  0  0
   -9.1990    4.6250  -19.0880 C   0  0  0  0  0  0  0  0  0  0  0  0
   -8.2700    4.5750  -20.1190 C   0  0  0  0  0  0  0  0  0  0  0  0
   -6.9100    4.8160  -19.9260 C   0  0  0  0  0  0  0  0  0  0  0  0
   -6.4640    5.1250  -18.5820 C   0  0  0  0  0  0  0  0  0  0  0  0
   -3.3690    4.6660  -18.4460 H   0  0  0  0  0  0  0  0  0  0  0  0
   -4.3210    5.2370  -19.8500 H   0  0  0  0  0  0  0  0  0  0  0  0
   -3.5950    6.4040  -18.7030 H   0  0  0  0  0  0  0  0  0  0  0  0
   -4.6970    5.8720  -15.8610 H   0  0  0  0  0  0  0  0  0  0  0  0
   -6.7480    5.5330  -14.1690 H   0  0  0  0  0  0  0  0  0  0  0  0
   -8.1100    4.8020  -14.8560 H   0  0  0  0  0  0  0  0  0  0  0  0
   -7.5280    7.6050  -15.6090 H   0  0  0  0  0  0  0  0  0  0  0  0
   -8.9780    6.6950  -15.6790 H   0  0  0  0  0  0  0  0  0  0  0  0
   -8.4050    8.3650  -11.1110 H   0  0  0  0  0  0  0  0  0  0  0  0
   -8.4850    7.0590   -9.1020 H   0  0  0  0  0  0  0  0  0  0  0  0
   -9.1710    3.3850  -11.5530 H   0  0  0  0  0  0  0  0  0  0  0  0
   -9.0930    4.7080  -13.5560 H   0  0  0  0  0  0  0  0  0  0  0  0
   -8.1740    2.2290   -9.2770 H   0  0  0  0  0  0  0  0  0  0  0  0
   -9.8190    2.4860   -9.8420 H   0  0  0  0  0  0  0  0  0  0  0  0
  -10.7110    2.7120   -7.6580 H   0  0  0  0  0  0  0  0  0  0  0  0
   -9.8750    1.2280   -7.9450 H   0  0  0  0  0  0  0  0  0  0  0  0
   -9.7310    4.3800   -6.2960 H   0  0  0  0  0  0  0  0  0  0  0  0
   -8.0830    4.1120   -5.7050 H   0  0  0  0  0  0  0  0  0  0  0  0
   -7.1710    4.4140   -7.7570 H   0  0  0  0  0  0  0  0  0  0  0  0
   -8.3910    5.6910   -7.5370 H   0  0  0  0  0  0  0  0  0  0  0  0
   -9.5890    4.9310  -17.0830 H   0  0  0  0  0  0  0  0  0  0  0  0
  -10.2450    4.4400  -19.2650 H   0  0  0  0  0  0  0  0  0  0  0  0
   -8.6110    4.3440  -21.1160 H   0  0  0  0  0  0  0  0  0  0  0  0
   -6.2170    4.7680  -20.7600 H   0  0  0  0  0  0  0  0  0  0  0  0
  1  2  1  0
  2  3  1  0
  3  4  2  0
  4  5  1  0
  5  6  1  0
  6  7  1  0
  7  8  2  0
  7  9  1  0
  9 10  2  0
 10 11  1  0
 11 12  2  0
 12 13  1  0
 13 14  2  0
 12 15  1  0
 15 16  1  0
 16 17  1  0
 17 18  1  0
 18 19  1  0
 19 20  1  0
  4 21  1  0
 21 22  2  0
 22 23  1  0
 23 24  2  0
 24 25  1  0
 25 26  2  0
 26  2  1  0
 14  9  1  0
 20 15  1  0
 26 21  1  0
  1 27  1  0
  1 28  1  0
  1 29  1  0
  3 30  1  0
  5 31  1  0
  5 32  1  0
  6 33  1  0
  6 34  1  0
 10 35  1  0
 11 36  1  0
 13 37  1  0
 14 38  1  0
 16 39  1  0
 16 40  1  0
 17 41  1  0
 17 42  1  0
 19 43  1  0
 19 44  1  0
 20 45  1  0
 20 46  1  0
 22 47  1  0
 23 48  1  0
 24 49  1  0
 25 50  1  0
A    1
 C1 
A    2
 N1 
A    3
 C2 
A    4
 C3 
A    5
 C4 
A    6
 C5 
A    7
 C6 
A    8
 O1 
A    9
 C7 
A   10
 C8 
A   11
 C9 
A   12
 C10
A   13
 C11
A   14
 C12
A   15
 N2 
A   16
 C13
A   17
 C14
A   18
 O2 
A   19
 C15
A   20
 C16
A   21
 C17
A   22
 C18
A   23
 C19
A   24
 C20
A   25
 C21
A   26
 C22
A   27
 H1 
A   28
 H2 
A   29
 H3 
A   30
 H4 
A   31
 H5 
A   32
 H6 
A   33
 H7 
A   34
 H8 
A   35
 H9 
A   36
 H10
A   37
 H11
A   38
 H12
A   39
 H13
A   40
 H14
A   41
 H15
A   42
 H16
A   43
 H17
A   44
 H18
A   45
 H19
A   46
 H20
A   47
 H21
A   48
 H22
A   49
 H23
A   50
 H24
M  END
>  <ref_pdb>  (29) 
x0051_0B

>  <ref_mols>  (29) 
x0727_0B,x0404_0B

>  <original SMILES>  (29) 
[H]c1c([H])c(N2C([H])([H])C([H])([H])OC([H])([H])C2([H])[H])c([H])c([H])c1C(=O)C([H])([H])C([H])([H])c1c([H])n(C([H])([H])[H])c2c([H])c([H])c([H])c([H])c12

>  <index>  (29) 
2674

>  <∆∆G>  (29) 
-6.787491

>  <∆G_bound>  (29) 
-8.120401

>  <∆G_unbound>  (29) 
-1.33291

>  <comRMSD>  (29) 
0.973562

>  <N_constrained_atoms>  (29) 
27.0

>  <N_unconstrained_atoms>  (29) 
2.0

>  <runtime>  (29) 
87.307436

>  <LE>  (29) 
0.234051

>  <percent_hybrid>  (29) 
45.0

>  <dist>  (29) 
11.0

>  <ecfp4>  (29) 
0.176471

>  <daylight>  (29) 
0.252101

>  <topodist>  (29) 
5.0

>  <mces>  (29) 
28.0

>  <tdn>  (29) 
3.0

>  <tup>  (29) 
1.0

>  <rdn>  (29) 
0.0

>  <rup>  (29) 
0.0

>  <ldn>  (29) 
1.0

>  <lup>  (29) 
0.0

>  <mut>  (29) 
6.0

>  <maj>  (29) 
6.0

>  <min>  (29) 
0.0

>  <hyb>  (29) 
0.0

>  <sub>  (29) 
1.0

>  <query_index>  (29) 
0.0

>  <max_hit_Tanimoto>  (29) 
0.212054

>  <largest_ring>  (29) 
6

>  <N_interactions_kept>  (29) 
1.0

>  <N_interactions_lost>  (29) 
3.5

>  <interaction_uniqueness_metric>  (29) 
0.131151

>  <ad_hoc_penalty>  (29) 
-2.98791

>  <N_rotatable_bonds>  (29) 
6

>  <N_HA>  (29) 
26

>  <cluster>  (29) 
3753

>  <N_interactions>  (29) 
7

>  <Enamine>  (29) 
1

>  <Mcule>  (29) 
0

>  <N_PAINS>  (29) 
0

>  <UFF_Gibbs>  (29) 
171.850597

>  <strain_per_HA>  (29) 
6.609638

>  <intxn_scored>  (29) 
12.5

>  <saltbridge:HIS:51>  (29) 
0

>  <pistack:HIS:51>  (29) 
1

>  <hydroph_interaction:HIS:51>  (29) 
1

>  <hbond:ALA:132>  (29) 
0

>  <hbond:SER:135>  (29) 
0

>  <hydroph_interaction:TYR:150>  (29) 
1

>  <pistack:TYR:161>  (29) 
2

>  <hydroph_interaction:TYR:161>  (29) 
1

>  <hydroph_interaction:ASP:83>  (29) 
0

>  <hbond:TYR:130>  (29) 
0

>  <hydroph_interaction:ALA:132>  (29) 
1

>  <hbond:HIS:51>  (29) 
0

>  <hbond:ASP:129>  (29) 
0

>  <hbond:TYR:150>  (29) 
0

>  <hbond:GLY:151>  (29) 
0

>  <hbond:TYR:161>  (29) 
0

>  <hydroph_interaction:TYR:130>  (29) 
0

>  <hydroph_interaction:PRO:131>  (29) 
0

>  <hydroph_interaction:ASP:129>  (29) 
0

>  <saltbridge:ASP:75>  (29) 
0

>  <saltbridge:ASP:83>  (29) 
0

>  <hbond:ASN:152>  (29) 
0

>  <hydroph_interaction:ASN:152>  (29) 
0

>  <halogenbond:TYR:150>  (29) 
0

>  <hbond:ASP:83>  (29) 
0

>  <hydroph_interaction:VAL:155>  (29) 
0

>  <pication:TYR:161>  (29) 
0

>  <hbond:PRO:131>  (29) 
0

>  <saltbridge:ASP:129>  (29) 
0

>  <hbond:THR:134>  (29) 
0

>  <pication:HIS:51>  (29) 
0

>  <hbond:SER:81>  (29) 
0

>  <hydroph_interaction:THR:134>  (29) 
0

>  <hydroph_interaction:MET:49>  (29) 
0

$$$$
Z4224773093
     RDKit          3D

 44 47  0  0  0  0  0  0  0  0999 V2000
   -9.0450    8.8120  -13.3940 O   0  0  0  0  0  0  0  0  0  0  0  0
   -9.0960    7.5910  -13.5410 C   0  0  0  0  0  0  0  0  0  0  0  0
   -9.1970    6.9480  -14.7180 N   0  0  0  0  0  0  0  0  0  0  0  0
   -8.1240    6.0200  -15.0450 C   0  0  0  0  0  0  0  0  0  0  0  0
   -8.2530    5.5400  -16.4550 C   0  0  0  0  0  0  0  0  0  0  0  0
   -9.6610    5.0960  -16.7470 C   0  0  0  0  0  0  0  0  0  0  0  0
   -9.9760    4.6240  -18.1490 C   0  0  0  0  0  0  0  0  0  0  0  0
   -8.8190    4.6390  -19.1360 C   0  0  0  0  0  0  0  0  0  0  0  0
   -7.5510    5.0720  -18.6860 C   0  0  0  0  0  0  0  0  0  0  0  0
   -7.2360    5.5050  -17.4150 C   0  0  0  0  0  0  0  0  0  0  0  0
   -5.9040    5.8670  -17.2560 N   0  0  0  0  0  0  0  0  0  0  0  0
   -5.3470    5.6540  -18.4860 N   0  0  0  0  0  0  0  0  0  0  0  0
   -6.3290    5.1930  -19.3050 N   0  0  0  0  0  0  0  0  0  0  0  0
   -9.0160    6.6390  -12.4170 C   0  0  0  0  0  0  0  0  0  0  0  0
   -8.7960    7.1650  -11.0310 C   0  0  0  0  0  0  0  0  0  0  0  0
   -8.6730    6.6290   -9.7730 C   0  0  0  0  0  0  0  0  0  0  0  0
   -8.8300    5.1290  -10.1050 C   0  0  0  0  0  0  0  0  0  0  0  0
   -8.7620    4.2740   -9.0140 N   0  0  0  0  0  0  0  0  0  0  0  0
   -8.9720    2.8270   -9.1850 C   0  0  0  0  0  0  0  0  0  0  0  0
   -9.6110    2.3780   -8.0250 C   0  0  0  0  0  0  0  0  0  0  0  0
   -8.7770    2.5850   -6.8780 O   0  0  0  0  0  0  0  0  0  0  0  0
   -8.6980    3.9840   -6.5960 C   0  0  0  0  0  0  0  0  0  0  0  0
   -8.1140    4.7500   -7.7850 C   0  0  0  0  0  0  0  0  0  0  0  0
   -9.0340    4.5400  -11.3590 C   0  0  0  0  0  0  0  0  0  0  0  0
   -9.1380    5.3060  -12.6070 C   0  0  0  0  0  0  0  0  0  0  0  0
  -10.1010    6.8120  -15.1620 H   0  0  0  0  0  0  0  0  0  0  0  0
   -8.0760    5.1760  -14.3490 H   0  0  0  0  0  0  0  0  0  0  0  0
   -7.1850    6.5830  -14.9480 H   0  0  0  0  0  0  0  0  0  0  0  0
  -10.4150    5.1230  -15.9670 H   0  0  0  0  0  0  0  0  0  0  0  0
  -10.9730    4.2930  -18.4340 H   0  0  0  0  0  0  0  0  0  0  0  0
   -9.0030    4.3100  -20.1570 H   0  0  0  0  0  0  0  0  0  0  0  0
   -6.0900    4.9830  -20.2660 H   0  0  0  0  0  0  0  0  0  0  0  0
   -8.7150    8.2490  -11.0160 H   0  0  0  0  0  0  0  0  0  0  0  0
   -8.5140    7.1230   -8.8170 H   0  0  0  0  0  0  0  0  0  0  0  0
   -9.6670    2.6890  -10.0210 H   0  0  0  0  0  0  0  0  0  0  0  0
   -8.0340    2.3510   -9.4660 H   0  0  0  0  0  0  0  0  0  0  0  0
  -10.5800    2.8070   -7.7800 H   0  0  0  0  0  0  0  0  0  0  0  0
   -9.7770    1.3030   -8.0960 H   0  0  0  0  0  0  0  0  0  0  0  0
   -9.7150    4.3570   -6.4020 H   0  0  0  0  0  0  0  0  0  0  0  0
   -8.0990    4.1250   -5.6910 H   0  0  0  0  0  0  0  0  0  0  0  0
   -7.0370    4.5670   -7.8500 H   0  0  0  0  0  0  0  0  0  0  0  0
   -8.2920    5.8200   -7.6180 H   0  0  0  0  0  0  0  0  0  0  0  0
   -9.1370    3.4590  -11.5230 H   0  0  0  0  0  0  0  0  0  0  0  0
   -9.3000    4.8180  -13.5640 H   0  0  0  0  0  0  0  0  0  0  0  0
  1  2  2  0
  2  3  1  0
  3  4  1  0
  4  5  1  0
  5  6  2  0
  6  7  1  0
  7  8  2  0
  8  9  1  0
  9 10  2  0
 10 11  1  0
 11 12  2  0
 12 13  1  0
  2 14  1  0
 14 15  2  0
 15 16  1  0
 16 17  2  0
 17 18  1  0
 18 19  1  0
 19 20  1  0
 20 21  1  0
 21 22  1  0
 22 23  1  0
 17 24  1  0
 24 25  2  0
 10  5  1  0
 13  9  1  0
 25 14  1  0
 23 18  1  0
  3 26  1  0
  4 27  1  0
  4 28  1  0
  6 29  1  0
  7 30  1  0
  8 31  1  0
 13 32  1  0
 15 33  1  0
 16 34  1  0
 19 35  1  0
 19 36  1  0
 20 37  1  0
 20 38  1  0
 22 39  1  0
 22 40  1  0
 23 41  1  0
 23 42  1  0
 24 43  1  0
 25 44  1  0
A    1
 O1 
A    2
 C1 
A    3
 N1 
A    4
 C2 
A    5
 C3 
A    6
 C4 
A    7
 C5 
A    8
 C6 
A    9
 C7 
A   10
 C8 
A   11
 N2 
A   12
 N3 
A   13
 N4 
A   14
 C9 
A   15
 C10
A   16
 C11
A   17
 C12
A   18
 N5 
A   19
 C13
A   20
 C14
A   21
 O2 
A   22
 C15
A   23
 C16
A   24
 C17
A   25
 C18
A   26
 H1 
A   27
 H2 
A   28
 H3 
A   29
 H4 
A   30
 H5 
A   31
 H6 
A   32
 H7 
A   33
 H8 
A   34
 H9 
A   35
 H10
A   36
 H11
A   37
 H12
A   38
 H13
A   39
 H14
A   40
 H15
A   41
 H16
A   42
 H17
A   43
 H18
A   44
 H19
M  END
>  <ref_pdb>  (30) 
x0051_0B

>  <ref_mols>  (30) 
x0435_0B,x0404_0B

>  <original SMILES>  (30) 
[H]c1c([H])c(N2C([H])([H])C([H])([H])OC([H])([H])C2([H])[H])c([H])c([H])c1C(=O)N([H])C([H])([H])c1c([H])c([H])c([H])c2c1nnn2[H]

>  <index>  (30) 
337

>  <∆∆G>  (30) 
-7.10121

>  <∆G_bound>  (30) 
-6.467167

>  <∆G_unbound>  (30) 
0.634043

>  <comRMSD>  (30) 
0.649021

>  <N_constrained_atoms>  (30) 
26.0

>  <N_unconstrained_atoms>  (30) 
0.0

>  <runtime>  (30) 
77.505338

>  <LE>  (30) 
0.273123

>  <percent_hybrid>  (30) 
39.0

>  <dist>  (30) 
8.0

>  <ecfp4>  (30) 
0.181818

>  <daylight>  (30) 
0.183824

>  <topodist>  (30) 
2.0

>  <mces>  (30) 
28.0

>  <tdn>  (30) 
2.0

>  <tup>  (30) 
0.0

>  <rdn>  (30) 
0.0

>  <rup>  (30) 
0.0

>  <ldn>  (30) 
0.0

>  <lup>  (30) 
0.0

>  <mut>  (30) 
5.0

>  <maj>  (30) 
5.0

>  <min>  (30) 
0.0

>  <hyb>  (30) 
1.0

>  <sub>  (30) 
0.0

>  <query_index>  (30) 
26.0

>  <max_hit_Tanimoto>  (30) 
0.218159

>  <largest_ring>  (30) 
0

>  <N_interactions_kept>  (30) 
2.0

>  <N_interactions_lost>  (30) 
2.5

>  <interaction_uniqueness_metric>  (30) 
0.180995

>  <ad_hoc_penalty>  (30) 
-15.626336

>  <N_rotatable_bonds>  (30) 
4

>  <N_HA>  (30) 
25

>  <cluster>  (30) 
5911

>  <N_interactions>  (30) 
7

>  <Enamine>  (30) 
1

>  <Mcule>  (30) 
0

>  <N_PAINS>  (30) 
0

>  <UFF_Gibbs>  (30) 
317.883838

>  <strain_per_HA>  (30) 
12.715354

>  <intxn_scored>  (30) 
12.5

>  <saltbridge:HIS:51>  (30) 
0

>  <pistack:HIS:51>  (30) 
1

>  <hydroph_interaction:HIS:51>  (30) 
1

>  <hbond:ALA:132>  (30) 
1

>  <hbond:SER:135>  (30) 
0

>  <hydroph_interaction:TYR:150>  (30) 
1

>  <pistack:TYR:161>  (30) 
2

>  <hydroph_interaction:TYR:161>  (30) 
0

>  <hydroph_interaction:ASP:83>  (30) 
0

>  <hbond:TYR:130>  (30) 
0

>  <hydroph_interaction:ALA:132>  (30) 
1

>  <hbond:HIS:51>  (30) 
0

>  <hbond:ASP:129>  (30) 
0

>  <hbond:TYR:150>  (30) 
0

>  <hbond:GLY:151>  (30) 
0

>  <hbond:TYR:161>  (30) 
0

>  <hydroph_interaction:TYR:130>  (30) 
0

>  <hydroph_interaction:PRO:131>  (30) 
0

>  <hydroph_interaction:ASP:129>  (30) 
0

>  <saltbridge:ASP:75>  (30) 
0

>  <saltbridge:ASP:83>  (30) 
0

>  <hbond:ASN:152>  (30) 
0

>  <hydroph_interaction:ASN:152>  (30) 
0

>  <halogenbond:TYR:150>  (30) 
0

>  <hbond:ASP:83>  (30) 
0

>  <hydroph_interaction:VAL:155>  (30) 
0

>  <pication:TYR:161>  (30) 
0

>  <hbond:PRO:131>  (30) 
0

>  <saltbridge:ASP:129>  (30) 
0

>  <hbond:THR:134>  (30) 
0

>  <pication:HIS:51>  (30) 
0

>  <hbond:SER:81>  (30) 
0

>  <hydroph_interaction:THR:134>  (30) 
0

>  <hydroph_interaction:MET:49>  (30) 
0

$$$$
Z5258104359
     RDKit          3D

 49 52  0  0  0  0  0  0  0  0999 V2000
   -4.5590    5.3430  -19.9490 O   0  0  0  0  0  0  0  0  0  0  0  0
   -5.7340    5.3250  -19.1380 C   0  0  0  0  0  0  0  0  0  0  0  0
   -6.9760    4.9340  -19.8030 C   0  0  0  0  0  0  0  0  0  0  0  0
   -7.9410    4.9690  -18.8160 C   0  0  0  0  0  0  0  0  0  0  0  0
   -7.3920    5.3840  -17.5650 C   0  0  0  0  0  0  0  0  0  0  0  0
   -6.0290    5.6110  -17.7610 N   0  0  0  0  0  0  0  0  0  0  0  0
   -8.1090    5.5170  -16.4410 C   0  0  0  0  0  0  0  0  0  0  0  0
   -7.4730    5.9770  -15.1980 C   0  0  0  0  0  0  0  0  0  0  0  0
   -7.8510    7.2380  -14.7430 N   0  0  0  0  0  0  0  0  0  0  0  0
   -8.9780    7.3230  -13.9830 C   0  0  0  0  0  0  0  0  0  0  0  0
   -9.9340    8.0050  -14.2680 O   0  0  0  0  0  0  0  0  0  0  0  0
   -8.9180    6.4620  -12.7360 C   0  0  0  0  0  0  0  0  0  0  0  0
   -8.6920    7.1550  -11.3980 C   0  0  0  0  0  0  0  0  0  0  0  0
   -8.6140    6.3500  -10.2480 C   0  0  0  0  0  0  0  0  0  0  0  0
   -8.7340    4.9560  -10.2900 C   0  0  0  0  0  0  0  0  0  0  0  0
   -8.6400    4.2110   -9.1480 N   0  0  0  0  0  0  0  0  0  0  0  0
   -8.8330    2.7700   -9.2100 C   0  0  0  0  0  0  0  0  0  0  0  0
   -9.7430    2.4250   -8.0560 C   0  0  0  0  0  0  0  0  0  0  0  0
   -9.3370    3.1210   -6.7640 C   0  0  0  0  0  0  0  0  0  0  0  0
   -8.8750    4.5610   -6.8900 C   0  0  0  0  0  0  0  0  0  0  0  0
   -8.0070    4.7470   -7.9510 C   0  0  0  0  0  0  0  0  0  0  0  0
   -8.9500    4.3130  -11.5210 C   0  0  0  0  0  0  0  0  0  0  0  0
   -9.0490    5.0960  -12.8120 C   0  0  0  0  0  0  0  0  0  0  0  0
   -9.4810    5.2050  -16.5240 C   0  0  0  0  0  0  0  0  0  0  0  0
  -10.0770    4.7660  -17.8230 C   0  0  0  0  0  0  0  0  0  0  0  0
   -9.2750    4.6620  -18.9490 C   0  0  0  0  0  0  0  0  0  0  0  0
   -7.1990    5.4580  -20.7130 H   0  0  0  0  0  0  0  0  0  0  0  0
   -6.8770    3.8730  -20.0450 H   0  0  0  0  0  0  0  0  0  0  0  0
   -5.4180    6.1580  -17.1770 H   0  0  0  0  0  0  0  0  0  0  0  0
   -6.3850    5.9920  -15.2060 H   0  0  0  0  0  0  0  0  0  0  0  0
   -7.7180    5.2640  -14.4070 H   0  0  0  0  0  0  0  0  0  0  0  0
   -7.6170    7.9940  -15.3830 H   0  0  0  0  0  0  0  0  0  0  0  0
   -8.5920    8.2310  -11.3390 H   0  0  0  0  0  0  0  0  0  0  0  0
   -8.4510    6.8530   -9.3000 H   0  0  0  0  0  0  0  0  0  0  0  0
   -9.3920    2.5040  -10.1170 H   0  0  0  0  0  0  0  0  0  0  0  0
   -7.8510    2.2890   -9.2930 H   0  0  0  0  0  0  0  0  0  0  0  0
  -10.7620    2.7280   -8.3090 H   0  0  0  0  0  0  0  0  0  0  0  0
   -9.7750    1.3460   -7.9030 H   0  0  0  0  0  0  0  0  0  0  0  0
   -8.5060    2.5630   -6.3130 H   0  0  0  0  0  0  0  0  0  0  0  0
  -10.1910    3.1090   -6.0830 H   0  0  0  0  0  0  0  0  0  0  0  0
   -8.3800    4.8670   -5.9630 H   0  0  0  0  0  0  0  0  0  0  0  0
   -9.7600    5.2040   -6.9940 H   0  0  0  0  0  0  0  0  0  0  0  0
   -7.1240    4.1300   -7.7330 H   0  0  0  0  0  0  0  0  0  0  0  0
   -7.6480    5.7560   -8.1840 H   0  0  0  0  0  0  0  0  0  0  0  0
   -9.0480    3.2340  -11.5820 H   0  0  0  0  0  0  0  0  0  0  0  0
   -9.2140    4.5870  -13.7590 H   0  0  0  0  0  0  0  0  0  0  0  0
  -10.1160    5.2870  -15.6450 H   0  0  0  0  0  0  0  0  0  0  0  0
  -11.1360    4.5310  -17.8890 H   0  0  0  0  0  0  0  0  0  0  0  0
   -9.6760    4.3540  -19.9020 H   0  0  0  0  0  0  0  0  0  0  0  0
  1  2  2  0
  2  3  1  0
  3  4  1  0
  4  5  2  0
  5  6  1  0
  5  7  1  0
  7  8  1  0
  8  9  1  0
  9 10  1  0
 10 11  2  0
 10 12  1  0
 12 13  2  0
 13 14  1  0
 14 15  2  0
 15 16  1  0
 16 17  1  0
 17 18  1  0
 18 19  1  0
 19 20  1  0
 20 21  1  0
 15 22  1  0
 22 23  2  0
  7 24  2  0
 24 25  1  0
 25 26  2  0
  6  2  1  0
 26  4  1  0
 23 12  1  0
 21 16  1  0
  3 27  1  0
  3 28  1  0
  6 29  1  0
  8 30  1  0
  8 31  1  0
  9 32  1  0
 13 33  1  0
 14 34  1  0
 17 35  1  0
 17 36  1  0
 18 37  1  0
 18 38  1  0
 19 39  1  0
 19 40  1  0
 20 41  1  0
 20 42  1  0
 21 43  1  0
 21 44  1  0
 22 45  1  0
 23 46  1  0
 24 47  1  0
 25 48  1  0
 26 49  1  0
A    1
 O1 
A    2
 C1 
A    3
 C2 
A    4
 C3 
A    5
 C4 
A    6
 N1 
A    7
 C5 
A    8
 C6 
A    9
 N2 
A   10
 C7 
A   11
 O2 
A   12
 C8 
A   13
 C9 
A   14
 C10
A   15
 C11
A   16
 N3 
A   17
 C12
A   18
 C13
A   19
 C14
A   20
 C15
A   21
 C16
A   22
 C17
A   23
 C18
A   24
 C19
A   25
 C20
A   26
 C21
A   27
 H1 
A   28
 H2 
A   29
 H3 
A   30
 H4 
A   31
 H5 
A   32
 H6 
A   33
 H7 
A   34
 H8 
A   35
 H9 
A   36
 H10
A   37
 H11
A   38
 H12
A   39
 H13
A   40
 H14
A   41
 H15
A   42
 H16
A   43
 H17
A   44
 H18
A   45
 H19
A   46
 H20
A   47
 H21
A   48
 H22
A   49
 H23
M  END
>  <ref_pdb>  (31) 
x0051_0B

>  <ref_mols>  (31) 
x0443_0B,x0404_0B

>  <original SMILES>  (31) 
[H]c1c([H])c2c(c(C([H])([H])N([H])C(=O)c3c([H])c([H])c(N4C([H])([H])C([H])([H])C([H])([H])C([H])([H])C4([H])[H])c([H])c3[H])c1[H])N([H])C(=O)C2([H])[H]

>  <index>  (31) 
695

>  <∆∆G>  (31) 
-9.094995

>  <∆G_bound>  (31) 
-8.577814

>  <∆G_unbound>  (31) 
0.517182

>  <comRMSD>  (31) 
0.675673

>  <N_constrained_atoms>  (31) 
26.0

>  <N_unconstrained_atoms>  (31) 
1.0

>  <runtime>  (31) 
76.853372

>  <LE>  (31) 
0.336852

>  <percent_hybrid>  (31) 
43.0

>  <dist>  (31) 
8.0

>  <ecfp4>  (31) 
0.190476

>  <daylight>  (31) 
0.151625

>  <topodist>  (31) 
2.0

>  <mces>  (31) 
29.0

>  <tdn>  (31) 
2.0

>  <tup>  (31) 
0.0

>  <rdn>  (31) 
0.0

>  <rup>  (31) 
0.0

>  <ldn>  (31) 
0.0

>  <lup>  (31) 
0.0

>  <mut>  (31) 
5.0

>  <maj>  (31) 
5.0

>  <min>  (31) 
0.0

>  <hyb>  (31) 
1.0

>  <sub>  (31) 
1.0

>  <query_index>  (31) 
13.0

>  <max_hit_Tanimoto>  (31) 
0.218072

>  <largest_ring>  (31) 
6

>  <N_interactions_kept>  (31) 
1.0

>  <N_interactions_lost>  (31) 
3.5

>  <interaction_uniqueness_metric>  (31) 
0.131151

>  <ad_hoc_penalty>  (31) 
-15.104047

>  <N_rotatable_bonds>  (31) 
4

>  <N_HA>  (31) 
26

>  <cluster>  (31) 
5581

>  <N_interactions>  (31) 
7

>  <Enamine>  (31) 
1

>  <Mcule>  (31) 
0

>  <N_PAINS>  (31) 
0

>  <UFF_Gibbs>  (31) 
200.77287

>  <strain_per_HA>  (31) 
7.722033

>  <intxn_scored>  (31) 
12.5

>  <saltbridge:HIS:51>  (31) 
0

>  <pistack:HIS:51>  (31) 
1

>  <hydroph_interaction:HIS:51>  (31) 
1

>  <hbond:ALA:132>  (31) 
0

>  <hbond:SER:135>  (31) 
0

>  <hydroph_interaction:TYR:150>  (31) 
1

>  <pistack:TYR:161>  (31) 
2

>  <hydroph_interaction:TYR:161>  (31) 
1

>  <hydroph_interaction:ASP:83>  (31) 
0

>  <hbond:TYR:130>  (31) 
0

>  <hydroph_interaction:ALA:132>  (31) 
1

>  <hbond:HIS:51>  (31) 
0

>  <hbond:ASP:129>  (31) 
0

>  <hbond:TYR:150>  (31) 
0

>  <hbond:GLY:151>  (31) 
0

>  <hbond:TYR:161>  (31) 
0

>  <hydroph_interaction:TYR:130>  (31) 
0

>  <hydroph_interaction:PRO:131>  (31) 
0

>  <hydroph_interaction:ASP:129>  (31) 
0

>  <saltbridge:ASP:75>  (31) 
0

>  <saltbridge:ASP:83>  (31) 
0

>  <hbond:ASN:152>  (31) 
0

>  <hydroph_interaction:ASN:152>  (31) 
0

>  <halogenbond:TYR:150>  (31) 
0

>  <hbond:ASP:83>  (31) 
0

>  <hydroph_interaction:VAL:155>  (31) 
0

>  <pication:TYR:161>  (31) 
0

>  <hbond:PRO:131>  (31) 
0

>  <saltbridge:ASP:129>  (31) 
0

>  <hbond:THR:134>  (31) 
0

>  <pication:HIS:51>  (31) 
0

>  <hbond:SER:81>  (31) 
0

>  <hydroph_interaction:THR:134>  (31) 
0

>  <hydroph_interaction:MET:49>  (31) 
0

$$$$
CSSS00048943359
     RDKit          3D

 41 43  0  0  0  0  0  0  0  0999 V2000
   -6.0160    6.7580  -15.3400 O   0  0  0  0  0  0  0  0  0  0  0  0
   -6.4140    5.6500  -14.9830 C   0  0  0  0  0  0  0  0  0  0  0  0
   -7.8420    5.2530  -15.1850 C   0  0  0  0  0  0  0  0  0  0  0  0
   -8.2490    5.1320  -16.5160 C   0  0  0  0  0  0  0  0  0  0  0  0
   -9.5860    4.8620  -16.7630 C   0  0  0  0  0  0  0  0  0  0  0  0
  -10.0630    4.7180  -18.0610 C   0  0  0  0  0  0  0  0  0  0  0  0
   -9.2010    4.8400  -19.1240 C   0  0  0  0  0  0  0  0  0  0  0  0
   -7.8470    5.1140  -18.9140 C   0  0  0  0  0  0  0  0  0  0  0  0
   -7.0240    5.2220  -20.0320 C   0  0  0  0  0  0  0  0  0  0  0  0
   -5.6770    5.5020  -19.8650 C   0  0  0  0  0  0  0  0  0  0  0  0
   -5.1490    5.6640  -18.5980 C   0  0  0  0  0  0  0  0  0  0  0  0
   -5.9690    5.5470  -17.4770 C   0  0  0  0  0  0  0  0  0  0  0  0
   -7.3470    5.2680  -17.6160 C   0  0  0  0  0  0  0  0  0  0  0  0
   -5.5350    4.6530  -14.3380 N   0  0  0  0  0  0  0  0  0  0  0  0
   -4.0940    4.8690  -14.2780 C   0  0  0  0  0  0  0  0  0  0  0  0
   -3.3410    3.5410  -14.2570 C   0  0  0  0  0  0  0  0  0  0  0  0
   -1.9660    3.6610  -13.5940 C   0  0  0  0  0  0  0  0  0  0  0  0
   -2.0240    4.1110  -12.1340 C   0  0  0  0  0  0  0  0  0  0  0  0
   -3.2670    4.9440  -11.8440 C   0  0  0  0  0  0  0  0  0  0  0  0
   -3.7250    5.7440  -13.0690 C   0  0  0  0  0  0  0  0  0  0  0  0
   -8.4260    6.0970  -14.7950 H   0  0  0  0  0  0  0  0  0  0  0  0
   -8.1850    4.4300  -14.5580 H   0  0  0  0  0  0  0  0  0  0  0  0
  -10.2820    4.7560  -15.9330 H   0  0  0  0  0  0  0  0  0  0  0  0
  -11.1130    4.5090  -18.2390 H   0  0  0  0  0  0  0  0  0  0  0  0
   -9.5650    4.7250  -20.1420 H   0  0  0  0  0  0  0  0  0  0  0  0
   -7.4060    5.0910  -21.0300 H   0  0  0  0  0  0  0  0  0  0  0  0
   -5.0250    5.5930  -20.7300 H   0  0  0  0  0  0  0  0  0  0  0  0
   -4.0910    5.8810  -18.4750 H   0  0  0  0  0  0  0  0  0  0  0  0
   -5.5020    5.6770  -16.5080 H   0  0  0  0  0  0  0  0  0  0  0  0
   -5.8540    3.6830  -14.3550 H   0  0  0  0  0  0  0  0  0  0  0  0
   -3.8100    5.4070  -15.1920 H   0  0  0  0  0  0  0  0  0  0  0  0
   -3.2100    3.1880  -15.2860 H   0  0  0  0  0  0  0  0  0  0  0  0
   -3.9280    2.7680  -13.7440 H   0  0  0  0  0  0  0  0  0  0  0  0
   -1.3590    4.3640  -14.1780 H   0  0  0  0  0  0  0  0  0  0  0  0
   -1.4460    2.6980  -13.6440 H   0  0  0  0  0  0  0  0  0  0  0  0
   -2.0240    3.2300  -11.4820 H   0  0  0  0  0  0  0  0  0  0  0  0
   -1.1190    4.6800  -11.8900 H   0  0  0  0  0  0  0  0  0  0  0  0
   -4.0760    4.2780  -11.5200 H   0  0  0  0  0  0  0  0  0  0  0  0
   -3.0760    5.6290  -11.0090 H   0  0  0  0  0  0  0  0  0  0  0  0
   -4.5960    6.3570  -12.8000 H   0  0  0  0  0  0  0  0  0  0  0  0
   -2.9320    6.4570  -13.3300 H   0  0  0  0  0  0  0  0  0  0  0  0
  1  2  2  0
  2  3  1  0
  3  4  1  0
  4  5  2  0
  5  6  1  0
  6  7  2  0
  7  8  1  0
  8  9  2  0
  9 10  1  0
 10 11  2  0
 11 12  1  0
 12 13  2  0
  2 14  1  0
 14 15  1  0
 15 16  1  0
 16 17  1  0
 17 18  1  0
 18 19  1  0
 19 20  1  0
 13  4  1  0
 13  8  1  0
 20 15  1  0
  3 21  1  0
  3 22  1  0
  5 23  1  0
  6 24  1  0
  7 25  1  0
  9 26  1  0
 10 27  1  0
 11 28  1  0
 12 29  1  0
 14 30  1  0
 15 31  1  0
 16 32  1  0
 16 33  1  0
 17 34  1  0
 17 35  1  0
 18 36  1  0
 18 37  1  0
 19 38  1  0
 19 39  1  0
 20 40  1  0
 20 41  1  0
A    1
 O1 
A    2
 C1 
A    3
 C2 
A    4
 C3 
A    5
 C4 
A    6
 C5 
A    7
 C6 
A    8
 C7 
A    9
 C8 
A   10
 C9 
A   11
 C10
A   12
 C11
A   13
 C12
A   14
 N1 
A   15
 C13
A   16
 C14
A   17
 C15
A   18
 C16
A   19
 C17
A   20
 C18
A   21
 H1 
A   22
 H2 
A   23
 H3 
A   24
 H4 
A   25
 H5 
A   26
 H6 
A   27
 H7 
A   28
 H8 
A   29
 H9 
A   30
 H10
A   31
 H11
A   32
 H12
A   33
 H13
A   34
 H14
A   35
 H15
A   36
 H16
A   37
 H17
A   38
 H18
A   39
 H19
A   40
 H20
A   41
 H21
M  END
>  <ref_pdb>  (32) 
x0051_0B

>  <ref_mols>  (32) 
x0429_0B,x0455_0B

>  <original SMILES>  (32) 
[H]c1c([H])c([H])c2c(C([H])([H])C(=O)N([H])C3([H])C([H])([H])C([H])([H])C([H])([H])C([H])([H])C3([H])[H])c([H])c([H])c([H])c2c1[H]

>  <index>  (32) 
485

>  <∆∆G>  (32) 
-7.112244

>  <∆G_bound>  (32) 
-6.255153

>  <∆G_unbound>  (32) 
0.857091

>  <comRMSD>  (32) 
0.685581

>  <N_constrained_atoms>  (32) 
17.0

>  <N_unconstrained_atoms>  (32) 
6.0

>  <runtime>  (32) 
43.435091

>  <LE>  (32) 
0.309228

>  <percent_hybrid>  (32) 
23.0

>  <dist>  (32) 
6.0

>  <ecfp4>  (32) 
0.166667

>  <daylight>  (32) 
0.361345

>  <topodist>  (32) 
3.0

>  <mces>  (32) 
20.0

>  <tdn>  (32) 
0.0

>  <tup>  (32) 
1.0

>  <rdn>  (32) 
1.0

>  <rup>  (32) 
0.0

>  <ldn>  (32) 
0.0

>  <lup>  (32) 
1.0

>  <mut>  (32) 
2.0

>  <maj>  (32) 
2.0

>  <min>  (32) 
0.0

>  <hyb>  (32) 
1.0

>  <sub>  (32) 
2.0

>  <query_index>  (32) 
158.0

>  <max_hit_Tanimoto>  (32) 
0.160294

>  <largest_ring>  (32) 
0

>  <N_interactions_kept>  (32) 
0.0

>  <N_interactions_lost>  (32) 
2.5

>  <interaction_uniqueness_metric>  (32) 
0.122688

>  <ad_hoc_penalty>  (32) 
-11.6415

>  <N_rotatable_bonds>  (32) 
3

>  <N_HA>  (32) 
20

>  <cluster>  (32) 
5776

>  <N_interactions>  (32) 
7

>  <Enamine>  (32) 
1

>  <Mcule>  (32) 
0

>  <N_PAINS>  (32) 
0

>  <UFF_Gibbs>  (32) 
274.185806

>  <strain_per_HA>  (32) 
13.70929

>  <intxn_scored>  (32) 
12.5

>  <saltbridge:HIS:51>  (32) 
0

>  <pistack:HIS:51>  (32) 
0

>  <hydroph_interaction:HIS:51>  (32) 
0

>  <hbond:ALA:132>  (32) 
0

>  <hbond:SER:135>  (32) 
0

>  <hydroph_interaction:TYR:150>  (32) 
1

>  <pistack:TYR:161>  (32) 
2

>  <hydroph_interaction:TYR:161>  (32) 
2

>  <hydroph_interaction:ASP:83>  (32) 
0

>  <hbond:TYR:130>  (32) 
0

>  <hydroph_interaction:ALA:132>  (32) 
0

>  <hbond:HIS:51>  (32) 
0

>  <hbond:ASP:129>  (32) 
0

>  <hbond:TYR:150>  (32) 
0

>  <hbond:GLY:151>  (32) 
0

>  <hbond:TYR:161>  (32) 
1

>  <hydroph_interaction:TYR:130>  (32) 
0

>  <hydroph_interaction:PRO:131>  (32) 
0

>  <hydroph_interaction:ASP:129>  (32) 
0

>  <saltbridge:ASP:75>  (32) 
0

>  <saltbridge:ASP:83>  (32) 
0

>  <hbond:ASN:152>  (32) 
0

>  <hydroph_interaction:ASN:152>  (32) 
0

>  <halogenbond:TYR:150>  (32) 
0

>  <hbond:ASP:83>  (32) 
0

>  <hydroph_interaction:VAL:155>  (32) 
1

>  <pication:TYR:161>  (32) 
0

>  <hbond:PRO:131>  (32) 
0

>  <saltbridge:ASP:129>  (32) 
0

>  <hbond:THR:134>  (32) 
0

>  <pication:HIS:51>  (32) 
0

>  <hbond:SER:81>  (32) 
0

>  <hydroph_interaction:THR:134>  (32) 
0

>  <hydroph_interaction:MET:49>  (32) 
0

$$$$
Z3363955323
     RDKit          3D

 46 48  0  0  0  0  0  0  0  0999 V2000
   -4.6140    4.5780  -15.7280 C   0  0  0  0  0  0  0  0  0  0  0  0
   -5.2090    5.6790  -16.3920 O   0  0  0  0  0  0  0  0  0  0  0  0
   -6.5690    5.4740  -16.7540 C   0  0  0  0  0  0  0  0  0  0  0  0
   -6.8430    5.3320  -18.2270 C   0  0  0  0  0  0  0  0  0  0  0  0
   -8.2790    5.1120  -18.6200 C   0  0  0  0  0  0  0  0  0  0  0  0
   -9.2900    5.0650  -17.4630 C   0  0  0  0  0  0  0  0  0  0  0  0
  -10.6610    4.8390  -18.0770 C   0  0  0  0  0  0  0  0  0  0  0  0
   -8.9100    5.2260  -16.0550 C   0  0  0  0  0  0  0  0  0  0  0  0
   -9.8210    5.2240  -14.7980 C   0  0  0  0  0  0  0  0  0  0  0  0
   -9.1660    4.8010  -13.4980 N   0  0  0  0  0  0  0  0  0  0  0  0
   -8.8440    5.9200  -12.5710 C   0  0  0  0  0  0  0  0  0  0  0  0
   -8.8820    5.6650  -11.0310 C   0  0  0  0  0  0  0  0  0  0  0  0
   -9.0550    4.4970  -10.2980 C   0  0  0  0  0  0  0  0  0  0  0  0
   -9.2680    3.0590  -10.6280 C   0  0  0  0  0  0  0  0  0  0  0  0
   -8.6040    2.3030   -9.5760 N   0  0  0  0  0  0  0  0  0  0  0  0
   -7.2780    2.8990   -9.5380 C   0  0  0  0  0  0  0  0  0  0  0  0
   -9.3200    2.5320   -8.3000 C   0  0  0  0  0  0  0  0  0  0  0  0
   -9.1180    3.9450   -7.7530 C   0  0  0  0  0  0  0  0  0  0  0  0
   -8.9910    4.8610   -8.8790 N   0  0  0  0  0  0  0  0  0  0  0  0
   -8.7920    6.1720   -8.7180 N   0  0  0  0  0  0  0  0  0  0  0  0
   -8.7310    6.6470   -9.9870 C   0  0  0  0  0  0  0  0  0  0  0  0
   -7.5530    5.4190  -15.7690 C   0  0  0  0  0  0  0  0  0  0  0  0
   -3.8920    4.9210  -14.9820 H   0  0  0  0  0  0  0  0  0  0  0  0
   -4.0810    3.9800  -16.4700 H   0  0  0  0  0  0  0  0  0  0  0  0
   -5.3730    3.9530  -15.2550 H   0  0  0  0  0  0  0  0  0  0  0  0
   -6.0000    5.3920  -18.9250 H   0  0  0  0  0  0  0  0  0  0  0  0
   -8.5700    4.9950  -19.6650 H   0  0  0  0  0  0  0  0  0  0  0  0
  -11.1110    5.7660  -18.4270 H   0  0  0  0  0  0  0  0  0  0  0  0
  -10.5670    4.1840  -18.9330 H   0  0  0  0  0  0  0  0  0  0  0  0
  -11.3150    4.3530  -17.3940 H   0  0  0  0  0  0  0  0  0  0  0  0
  -10.2260    6.2370  -14.6780 H   0  0  0  0  0  0  0  0  0  0  0  0
  -10.6960    4.6020  -14.9920 H   0  0  0  0  0  0  0  0  0  0  0  0
   -8.3280    4.2630  -13.7040 H   0  0  0  0  0  0  0  0  0  0  0  0
   -7.8470    6.2930  -12.8240 H   0  0  0  0  0  0  0  0  0  0  0  0
   -9.5340    6.7490  -12.7750 H   0  0  0  0  0  0  0  0  0  0  0  0
  -10.3340    2.8140  -10.6220 H   0  0  0  0  0  0  0  0  0  0  0  0
   -8.8860    2.7990  -11.6220 H   0  0  0  0  0  0  0  0  0  0  0  0
   -6.9010    2.9470   -8.5200 H   0  0  0  0  0  0  0  0  0  0  0  0
   -6.5560    2.3870  -10.1700 H   0  0  0  0  0  0  0  0  0  0  0  0
   -7.3190    3.9360   -9.8840 H   0  0  0  0  0  0  0  0  0  0  0  0
  -10.3890    2.3210   -8.4130 H   0  0  0  0  0  0  0  0  0  0  0  0
   -8.9550    1.8070   -7.5620 H   0  0  0  0  0  0  0  0  0  0  0  0
   -8.2070    4.0050   -7.1510 H   0  0  0  0  0  0  0  0  0  0  0  0
   -9.9720    4.2690   -7.1510 H   0  0  0  0  0  0  0  0  0  0  0  0
   -8.5750    7.7100  -10.1170 H   0  0  0  0  0  0  0  0  0  0  0  0
   -7.2440    5.5370  -14.7310 H   0  0  0  0  0  0  0  0  0  0  0  0
  1  2  1  0
  2  3  1  0
  3  4  2  0
  4  5  1  0
  5  6  2  0
  6  7  1  0
  6  8  1  0
  8  9  1  0
  9 10  1  0
 10 11  1  0
 11 12  1  0
 12 13  2  0
 13 14  1  0
 14 15  1  0
 15 16  1  0
 15 17  1  0
 17 18  1  0
 18 19  1  0
 19 20  1  0
 20 21  2  0
  8 22  2  0
 22  3  1  0
 21 12  1  0
 19 13  1  0
  1 23  1  0
  1 24  1  0
  1 25  1  0
  4 26  1  0
  5 27  1  0
  7 28  1  0
  7 29  1  0
  7 30  1  0
  9 31  1  0
  9 32  1  0
 10 33  1  0
 11 34  1  0
 11 35  1  0
 14 36  1  0
 14 37  1  0
 16 38  1  0
 16 39  1  0
 16 40  1  0
 17 41  1  0
 17 42  1  0
 18 43  1  0
 18 44  1  0
 21 45  1  0
 22 46  1  0
A    1
 C1 
A    2
 O1 
A    3
 C2 
A    4
 C3 
A    5
 C4 
A    6
 C5 
A    7
 C6 
A    8
 C7 
A    9
 C8 
A   10
 N1 
A   11
 C9 
A   12
 C10
A   13
 C11
A   14
 C12
A   15
 N2 
A   16
 C13
A   17
 C14
A   18
 C15
A   19
 N3 
A   20
 N4 
A   21
 C16
A   22
 C17
A   23
 H1 
A   24
 H2 
A   25
 H3 
A   26
 H4 
A   27
 H5 
A   28
 H6 
A   29
 H7 
A   30
 H8 
A   31
 H9 
A   32
 H10
A   33
 H11
A   34
 H12
A   35
 H13
A   36
 H14
A   37
 H15
A   38
 H16
A   39
 H17
A   40
 H18
A   41
 H19
A   42
 H20
A   43
 H21
A   44
 H22
A   45
 H23
A   46
 H24
M  END
>  <ref_pdb>  (33) 
x0051_0B

>  <ref_mols>  (33) 
x0969_1B,x0553_0B

>  <original SMILES>  (33) 
[H]c1nn2c(c1C([H])([H])N([H])C([H])([H])c1c([H])c(OC([H])([H])[H])c([H])c([H])c1C([H])([H])[H])C([H])([H])N(C([H])([H])[H])C([H])([H])C2([H])[H]

>  <index>  (33) 
282

>  <∆∆G>  (33) 
-6.947227

>  <∆G_bound>  (33) 
-6.643199

>  <∆G_unbound>  (33) 
0.304028

>  <comRMSD>  (33) 
0.679861

>  <N_constrained_atoms>  (33) 
19.0

>  <N_unconstrained_atoms>  (33) 
4.0

>  <runtime>  (33) 
60.924924

>  <LE>  (33) 
0.302053

>  <percent_hybrid>  (33) 
48.0

>  <dist>  (33) 
4.0

>  <ecfp4>  (33) 
0.381579

>  <daylight>  (33) 
0.555046

>  <topodist>  (33) 
1.0

>  <mces>  (33) 
23.0

>  <tdn>  (33) 
0.0

>  <tup>  (33) 
1.0

>  <rdn>  (33) 
0.0

>  <rup>  (33) 
0.0

>  <ldn>  (33) 
0.0

>  <lup>  (33) 
0.0

>  <mut>  (33) 
3.0

>  <maj>  (33) 
3.0

>  <min>  (33) 
0.0

>  <hyb>  (33) 
0.0

>  <sub>  (33) 
1.0

>  <query_index>  (33) 
376.0

>  <max_hit_Tanimoto>  (33) 
0.590966

>  <largest_ring>  (33) 
0

>  <N_interactions_kept>  (33) 
1.5

>  <N_interactions_lost>  (33) 
1.0

>  <interaction_uniqueness_metric>  (33) 
0.353633

>  <ad_hoc_penalty>  (33) 
-22.449347

>  <N_rotatable_bonds>  (33) 
8

>  <N_HA>  (33) 
22

>  <cluster>  (33) 
5958

>  <N_interactions>  (33) 
7

>  <Enamine>  (33) 
1

>  <Mcule>  (33) 
0

>  <N_PAINS>  (33) 
0

>  <UFF_Gibbs>  (33) 
194.831207

>  <strain_per_HA>  (33) 
8.855964

>  <intxn_scored>  (33) 
12.5

>  <saltbridge:HIS:51>  (33) 
0

>  <pistack:HIS:51>  (33) 
1

>  <hydroph_interaction:HIS:51>  (33) 
0

>  <hbond:ALA:132>  (33) 
0

>  <hbond:SER:135>  (33) 
0

>  <hydroph_interaction:TYR:150>  (33) 
1

>  <pistack:TYR:161>  (33) 
1

>  <hydroph_interaction:TYR:161>  (33) 
0

>  <hydroph_interaction:ASP:83>  (33) 
0

>  <hbond:TYR:130>  (33) 
0

>  <hydroph_interaction:ALA:132>  (33) 
0

>  <hbond:HIS:51>  (33) 
0

>  <hbond:ASP:129>  (33) 
0

>  <hbond:TYR:150>  (33) 
0

>  <hbond:GLY:151>  (33) 
0

>  <hbond:TYR:161>  (33) 
2

>  <hydroph_interaction:TYR:130>  (33) 
0

>  <hydroph_interaction:PRO:131>  (33) 
0

>  <hydroph_interaction:ASP:129>  (33) 
0

>  <saltbridge:ASP:75>  (33) 
1

>  <saltbridge:ASP:83>  (33) 
1

>  <hbond:ASN:152>  (33) 
0

>  <hydroph_interaction:ASN:152>  (33) 
0

>  <halogenbond:TYR:150>  (33) 
0

>  <hbond:ASP:83>  (33) 
0

>  <hydroph_interaction:VAL:155>  (33) 
0

>  <pication:TYR:161>  (33) 
0

>  <hbond:PRO:131>  (33) 
0

>  <saltbridge:ASP:129>  (33) 
0

>  <hbond:THR:134>  (33) 
0

>  <pication:HIS:51>  (33) 
0

>  <hbond:SER:81>  (33) 
0

>  <hydroph_interaction:THR:134>  (33) 
0

>  <hydroph_interaction:MET:49>  (33) 
0

$$$$
CSSB00090686147
     RDKit          3D

 38 40  0  0  0  0  0  0  0  0999 V2000
   -9.8390    2.1350   -7.7820 C   0  0  0  0  0  0  0  0  0  0  0  0
   -9.3830    2.3910   -9.1040 O   0  0  0  0  0  0  0  0  0  0  0  0
   -9.1250    3.7060   -9.3150 C   0  0  0  0  0  0  0  0  0  0  0  0
   -8.9490    4.6540   -8.2740 C   0  0  0  0  0  0  0  0  0  0  0  0
   -8.6950    5.9920   -8.5690 C   0  0  0  0  0  0  0  0  0  0  0  0
   -8.6090    6.4070   -9.8930 C   0  0  0  0  0  0  0  0  0  0  0  0
   -8.7760    5.4810  -10.9380 C   0  0  0  0  0  0  0  0  0  0  0  0
   -8.6690    5.9910  -12.3630 C   0  0  0  0  0  0  0  0  0  0  0  0
   -8.3780    4.9020  -13.4200 C   0  0  0  0  0  0  0  0  0  0  0  0
   -7.6650    5.4310  -14.5900 N   0  0  0  0  0  0  0  0  0  0  0  0
   -8.0580    5.2390  -15.9160 C   0  0  0  0  0  0  0  0  0  0  0  0
   -9.3210    5.0010  -16.2050 N   0  0  0  0  0  0  0  0  0  0  0  0
   -9.7080    4.8220  -17.5250 C   0  0  0  0  0  0  0  0  0  0  0  0
   -8.8760    4.8780  -18.5710 C   0  0  0  0  0  0  0  0  0  0  0  0
   -7.5500    5.1290  -18.3110 N   0  0  0  0  0  0  0  0  0  0  0  0
   -6.4380    5.2560  -19.1000 C   0  0  0  0  0  0  0  0  0  0  0  0
   -6.4560    5.1320  -20.5740 C   0  0  0  0  0  0  0  0  0  0  0  0
   -5.3920    5.4940  -18.3290 N   0  0  0  0  0  0  0  0  0  0  0  0
   -5.8180    5.5270  -17.0120 N   0  0  0  0  0  0  0  0  0  0  0  0
   -7.1140    5.3080  -17.0240 C   0  0  0  0  0  0  0  0  0  0  0  0
   -9.0340    4.1320  -10.6340 C   0  0  0  0  0  0  0  0  0  0  0  0
   -8.9640    2.0360   -7.1350 H   0  0  0  0  0  0  0  0  0  0  0  0
  -10.4550    2.9510   -7.3990 H   0  0  0  0  0  0  0  0  0  0  0  0
  -10.4110    1.2090   -7.7300 H   0  0  0  0  0  0  0  0  0  0  0  0
   -9.0080    4.3640   -7.2310 H   0  0  0  0  0  0  0  0  0  0  0  0
   -8.5640    6.7100   -7.7640 H   0  0  0  0  0  0  0  0  0  0  0  0
   -8.4100    7.4530  -10.1150 H   0  0  0  0  0  0  0  0  0  0  0  0
   -9.5970    6.5180  -12.6180 H   0  0  0  0  0  0  0  0  0  0  0  0
   -7.8860    6.7580  -12.4100 H   0  0  0  0  0  0  0  0  0  0  0  0
   -7.7640    4.1090  -12.9770 H   0  0  0  0  0  0  0  0  0  0  0  0
   -9.3100    4.4150  -13.7360 H   0  0  0  0  0  0  0  0  0  0  0  0
   -7.0780    6.2460  -14.4300 H   0  0  0  0  0  0  0  0  0  0  0  0
  -10.7630    4.6290  -17.6800 H   0  0  0  0  0  0  0  0  0  0  0  0
   -9.1890    4.7380  -19.5990 H   0  0  0  0  0  0  0  0  0  0  0  0
   -5.5700    4.5960  -20.9280 H   0  0  0  0  0  0  0  0  0  0  0  0
   -6.4560    6.1180  -21.0430 H   0  0  0  0  0  0  0  0  0  0  0  0
   -7.3380    4.5780  -20.9110 H   0  0  0  0  0  0  0  0  0  0  0  0
   -9.1670    3.4040  -11.4320 H   0  0  0  0  0  0  0  0  0  0  0  0
  1  2  1  0
  2  3  1  0
  3  4  2  0
  4  5  1  0
  5  6  2  0
  6  7  1  0
  7  8  1  0
  8  9  1  0
  9 10  1  0
 10 11  1  0
 11 12  2  0
 12 13  1  0
 13 14  2  0
 14 15  1  0
 15 16  1  0
 16 17  1  0
 16 18  2  0
 18 19  1  0
 19 20  2  0
  7 21  2  0
 21  3  1  0
 20 11  1  0
 20 15  1  0
  1 22  1  0
  1 23  1  0
  1 24  1  0
  4 25  1  0
  5 26  1  0
  6 27  1  0
  8 28  1  0
  8 29  1  0
  9 30  1  0
  9 31  1  0
 10 32  1  0
 13 33  1  0
 14 34  1  0
 17 35  1  0
 17 36  1  0
 17 37  1  0
 21 38  1  0
A    1
 C1 
A    2
 O1 
A    3
 C2 
A    4
 C3 
A    5
 C4 
A    6
 C5 
A    7
 C6 
A    8
 C7 
A    9
 C8 
A   10
 N1 
A   11
 C9 
A   12
 N2 
A   13
 C10
A   14
 C11
A   15
 N3 
A   16
 C12
A   17
 C13
A   18
 N4 
A   19
 N5 
A   20
 C14
A   21
 C15
A   22
 H1 
A   23
 H2 
A   24
 H3 
A   25
 H4 
A   26
 H5 
A   27
 H6 
A   28
 H7 
A   29
 H8 
A   30
 H9 
A   31
 H10
A   32
 H11
A   33
 H12
A   34
 H13
A   35
 H14
A   36
 H15
A   37
 H16
A   38
 H17
M  END
>  <ref_pdb>  (34) 
x0051_0B

>  <ref_mols>  (34) 
x0435_0B,x0969_1B

>  <original SMILES>  (34) 
[H]c1nc(N([H])C([H])([H])C([H])([H])c2c([H])c([H])c([H])c(OC([H])([H])[H])c2[H])c2nnc(C([H])([H])[H])n2c1[H]

>  <index>  (34) 
947

>  <∆∆G>  (34) 
-5.776269

>  <∆G_bound>  (34) 
-5.12851

>  <∆G_unbound>  (34) 
0.647759

>  <comRMSD>  (34) 
0.485249

>  <N_constrained_atoms>  (34) 
20.0

>  <N_unconstrained_atoms>  (34) 
2.0

>  <runtime>  (34) 
65.663742

>  <LE>  (34) 
0.262558

>  <percent_hybrid>  (34) 
50.0

>  <dist>  (34) 
11.0

>  <ecfp4>  (34) 
0.149425

>  <daylight>  (34) 
0.202492

>  <topodist>  (34) 
4.0

>  <mces>  (34) 
22.0

>  <tdn>  (34) 
0.0

>  <tup>  (34) 
0.0

>  <rdn>  (34) 
2.0

>  <rup>  (34) 
1.0

>  <ldn>  (34) 
1.0

>  <lup>  (34) 
0.0

>  <mut>  (34) 
5.0

>  <maj>  (34) 
5.0

>  <min>  (34) 
0.0

>  <hyb>  (34) 
2.0

>  <sub>  (34) 
2.0

>  <query_index>  (34) 
311.0

>  <max_hit_Tanimoto>  (34) 
0.246667

>  <largest_ring>  (34) 
6

>  <N_interactions_kept>  (34) 
2.0

>  <N_interactions_lost>  (34) 
1.5

>  <interaction_uniqueness_metric>  (34) 
0.167375

>  <ad_hoc_penalty>  (34) 
-15.664473

>  <N_rotatable_bonds>  (34) 
7

>  <N_HA>  (34) 
21

>  <cluster>  (34) 
5351

>  <N_interactions>  (34) 
6

>  <Enamine>  (34) 
1

>  <Mcule>  (34) 
0

>  <N_PAINS>  (34) 
0

>  <UFF_Gibbs>  (34) 
47.428501

>  <strain_per_HA>  (34) 
2.2585

>  <intxn_scored>  (34) 
12.5

>  <saltbridge:HIS:51>  (34) 
0

>  <pistack:HIS:51>  (34) 
1

>  <hydroph_interaction:HIS:51>  (34) 
1

>  <hbond:ALA:132>  (34) 
0

>  <hbond:SER:135>  (34) 
0

>  <hydroph_interaction:TYR:150>  (34) 
0

>  <pistack:TYR:161>  (34) 
2

>  <hydroph_interaction:TYR:161>  (34) 
1

>  <hydroph_interaction:ASP:83>  (34) 
0

>  <hbond:TYR:130>  (34) 
0

>  <hydroph_interaction:ALA:132>  (34) 
0

>  <hbond:HIS:51>  (34) 
1

>  <hbond:ASP:129>  (34) 
0

>  <hbond:TYR:150>  (34) 
0

>  <hbond:GLY:151>  (34) 
0

>  <hbond:TYR:161>  (34) 
0

>  <hydroph_interaction:TYR:130>  (34) 
0

>  <hydroph_interaction:PRO:131>  (34) 
0

>  <hydroph_interaction:ASP:129>  (34) 
0

>  <saltbridge:ASP:75>  (34) 
0

>  <saltbridge:ASP:83>  (34) 
0

>  <hbond:ASN:152>  (34) 
0

>  <hydroph_interaction:ASN:152>  (34) 
0

>  <halogenbond:TYR:150>  (34) 
0

>  <hbond:ASP:83>  (34) 
0

>  <hydroph_interaction:VAL:155>  (34) 
0

>  <pication:TYR:161>  (34) 
0

>  <hbond:PRO:131>  (34) 
0

>  <saltbridge:ASP:129>  (34) 
0

>  <hbond:THR:134>  (34) 
0

>  <pication:HIS:51>  (34) 
0

>  <hbond:SER:81>  (34) 
0

>  <hydroph_interaction:THR:134>  (34) 
0

>  <hydroph_interaction:MET:49>  (34) 
0

$$$$
Z46075302
     RDKit          3D

 47 50  0  0  0  0  0  0  0  0999 V2000
   -9.1580    8.9000  -13.2570 O   0  0  0  0  0  0  0  0  0  0  0  0
   -9.2020    7.6780  -13.3810 C   0  0  0  0  0  0  0  0  0  0  0  0
   -9.3950    7.0070  -14.6950 C   0  0  0  0  0  0  0  0  0  0  0  0
   -8.1520    6.2040  -15.1440 C   0  0  0  0  0  0  0  0  0  0  0  0
   -8.3090    5.5990  -16.5150 C   0  0  0  0  0  0  0  0  0  0  0  0
   -9.7190    5.1180  -16.7390 C   0  0  0  0  0  0  0  0  0  0  0  0
  -10.0390    4.5540  -18.1120 C   0  0  0  0  0  0  0  0  0  0  0  0
   -8.8970    4.5180  -19.1180 C   0  0  0  0  0  0  0  0  0  0  0  0
   -7.6290    4.9870  -18.7480 C   0  0  0  0  0  0  0  0  0  0  0  0
   -6.5740    4.8970  -19.8330 C   0  0  0  0  0  0  0  0  0  0  0  0
   -5.2960    5.3420  -19.5220 C   0  0  0  0  0  0  0  0  0  0  0  0
   -5.0070    5.8510  -18.2600 C   0  0  0  0  0  0  0  0  0  0  0  0
   -5.9920    5.9350  -17.2730 C   0  0  0  0  0  0  0  0  0  0  0  0
   -7.2990    5.5160  -17.4850 C   0  0  0  0  0  0  0  0  0  0  0  0
   -9.0220    6.7830  -12.2470 C   0  0  0  0  0  0  0  0  0  0  0  0
   -8.8300    7.2760  -10.9720 C   0  0  0  0  0  0  0  0  0  0  0  0
   -8.6610    6.3950   -9.9190 C   0  0  0  0  0  0  0  0  0  0  0  0
   -8.6790    5.0120  -10.1110 C   0  0  0  0  0  0  0  0  0  0  0  0
   -8.5060    4.1310   -9.0600 N   0  0  0  0  0  0  0  0  0  0  0  0
   -9.0050    2.7370   -9.2000 C   0  0  0  0  0  0  0  0  0  0  0  0
   -9.7280    2.3150   -7.9180 C   0  0  0  0  0  0  0  0  0  0  0  0
   -8.9260    2.5840   -6.7680 O   0  0  0  0  0  0  0  0  0  0  0  0
   -8.8300    3.9950   -6.6100 C   0  0  0  0  0  0  0  0  0  0  0  0
   -7.9900    4.5770   -7.7450 C   0  0  0  0  0  0  0  0  0  0  0  0
   -8.8770    4.5280  -11.4150 C   0  0  0  0  0  0  0  0  0  0  0  0
   -9.0480    5.4060  -12.4810 C   0  0  0  0  0  0  0  0  0  0  0  0
  -10.3070    7.1120  -15.2660 H   0  0  0  0  0  0  0  0  0  0  0  0
   -7.2280    6.0840  -14.5870 H   0  0  0  0  0  0  0  0  0  0  0  0
  -10.4450    5.1910  -15.9570 H   0  0  0  0  0  0  0  0  0  0  0  0
  -11.0310    4.2000  -18.3620 H   0  0  0  0  0  0  0  0  0  0  0  0
   -9.0760    4.1280  -20.1150 H   0  0  0  0  0  0  0  0  0  0  0  0
   -6.7960    4.4990  -20.8230 H   0  0  0  0  0  0  0  0  0  0  0  0
   -4.5140    5.2890  -20.2740 H   0  0  0  0  0  0  0  0  0  0  0  0
   -3.9980    6.1910  -18.0400 H   0  0  0  0  0  0  0  0  0  0  0  0
   -5.6970    6.3490  -16.3080 H   0  0  0  0  0  0  0  0  0  0  0  0
   -8.8070    8.3410  -10.7690 H   0  0  0  0  0  0  0  0  0  0  0  0
   -8.5140    6.8210   -8.9310 H   0  0  0  0  0  0  0  0  0  0  0  0
   -9.7090    2.6250  -10.0340 H   0  0  0  0  0  0  0  0  0  0  0  0
   -8.1520    2.0670   -9.3760 H   0  0  0  0  0  0  0  0  0  0  0  0
  -10.6610    2.8720   -7.8100 H   0  0  0  0  0  0  0  0  0  0  0  0
   -9.9840    1.2540   -7.9380 H   0  0  0  0  0  0  0  0  0  0  0  0
   -8.3940    4.2140   -5.6280 H   0  0  0  0  0  0  0  0  0  0  0  0
   -9.8460    4.4050   -6.6330 H   0  0  0  0  0  0  0  0  0  0  0  0
   -8.0250    5.6710   -7.6810 H   0  0  0  0  0  0  0  0  0  0  0  0
   -6.9550    4.2410   -7.6090 H   0  0  0  0  0  0  0  0  0  0  0  0
   -8.8990    3.4570  -11.6130 H   0  0  0  0  0  0  0  0  0  0  0  0
   -9.2000    5.0110  -13.4860 H   0  0  0  0  0  0  0  0  0  0  0  0
  1  2  2  0
  2  3  1  0
  3  4  2  3
  4  5  1  0
  5  6  2  0
  6  7  1  0
  7  8  2  0
  8  9  1  0
  9 10  2  0
 10 11  1  0
 11 12  2  0
 12 13  1  0
 13 14  2  0
  2 15  1  0
 15 16  2  0
 16 17  1  0
 17 18  2  0
 18 19  1  0
 19 20  1  0
 20 21  1  0
 21 22  1  0
 22 23  1  0
 23 24  1  0
 18 25  1  0
 25 26  2  0
 14  5  1  0
 14  9  1  0
 26 15  1  0
 24 19  1  0
  3 27  1  0
  4 28  1  0
  6 29  1  0
  7 30  1  0
  8 31  1  0
 10 32  1  0
 11 33  1  0
 12 34  1  0
 13 35  1  0
 16 36  1  0
 17 37  1  0
 20 38  1  0
 20 39  1  0
 21 40  1  0
 21 41  1  0
 23 42  1  0
 23 43  1  0
 24 44  1  0
 24 45  1  0
 25 46  1  0
 26 47  1  0
A    1
 O1 
A    2
 C1 
A    3
 C2 
A    4
 C3 
A    5
 C4 
A    6
 C5 
A    7
 C6 
A    8
 C7 
A    9
 C8 
A   10
 C9 
A   11
 C10
A   12
 C11
A   13
 C12
A   14
 C13
A   15
 C14
A   16
 C15
A   17
 C16
A   18
 C17
A   19
 N1 
A   20
 C18
A   21
 C19
A   22
 O2 
A   23
 C20
A   24
 C21
A   25
 C22
A   26
 C23
A   27
 H1 
A   28
 H2 
A   29
 H3 
A   30
 H4 
A   31
 H5 
A   32
 H6 
A   33
 H7 
A   34
 H8 
A   35
 H9 
A   36
 H10
A   37
 H11
A   38
 H12
A   39
 H13
A   40
 H14
A   41
 H15
A   42
 H16
A   43
 H17
A   44
 H18
A   45
 H19
A   46
 H20
A   47
 H21
M  END
>  <ref_pdb>  (35) 
x0051_0B

>  <ref_mols>  (35) 
x0727_0B,x0404_0B

>  <original SMILES>  (35) 
[H]C(C(=O)c1c([H])c([H])c(N2C([H])([H])C([H])([H])OC([H])([H])C2([H])[H])c([H])c1[H])=C([H])c1c([H])c([H])c([H])c2c([H])c([H])c([H])c([H])c12

>  <index>  (35) 
835

>  <∆∆G>  (35) 
-8.418841

>  <∆G_bound>  (35) 
-8.127761

>  <∆G_unbound>  (35) 
0.29108

>  <comRMSD>  (35) 
0.600918

>  <N_constrained_atoms>  (35) 
27.0

>  <N_unconstrained_atoms>  (35) 
0.0

>  <runtime>  (35) 
60.371154

>  <LE>  (35) 
0.311809

>  <percent_hybrid>  (35) 
41.0

>  <dist>  (35) 
8.0

>  <ecfp4>  (35) 
0.209877

>  <daylight>  (35) 
0.182648

>  <topodist>  (35) 
3.0

>  <mces>  (35) 
29.0

>  <tdn>  (35) 
3.0

>  <tup>  (35) 
0.0

>  <rdn>  (35) 
0.0

>  <rup>  (35) 
0.0

>  <ldn>  (35) 
0.0

>  <lup>  (35) 
0.0

>  <mut>  (35) 
5.0

>  <maj>  (35) 
5.0

>  <min>  (35) 
0.0

>  <hyb>  (35) 
0.0

>  <sub>  (35) 
1.0

>  <query_index>  (35) 
0.0

>  <max_hit_Tanimoto>  (35) 
0.25

>  <largest_ring>  (35) 
6

>  <N_interactions_kept>  (35) 
1.0

>  <N_interactions_lost>  (35) 
3.5

>  <interaction_uniqueness_metric>  (35) 
0.131151

>  <ad_hoc_penalty>  (35) 
-17.111131

>  <N_rotatable_bonds>  (35) 
4

>  <N_HA>  (35) 
26

>  <cluster>  (35) 
5454

>  <N_interactions>  (35) 
7

>  <Enamine>  (35) 
1

>  <Mcule>  (35) 
0

>  <N_PAINS>  (35) 
0

>  <UFF_Gibbs>  (35) 
114.878769

>  <strain_per_HA>  (35) 
4.418414

>  <intxn_scored>  (35) 
12.5

>  <saltbridge:HIS:51>  (35) 
0

>  <pistack:HIS:51>  (35) 
1

>  <hydroph_interaction:HIS:51>  (35) 
1

>  <hbond:ALA:132>  (35) 
0

>  <hbond:SER:135>  (35) 
0

>  <hydroph_interaction:TYR:150>  (35) 
1

>  <pistack:TYR:161>  (35) 
2

>  <hydroph_interaction:TYR:161>  (35) 
1

>  <hydroph_interaction:ASP:83>  (35) 
0

>  <hbond:TYR:130>  (35) 
0

>  <hydroph_interaction:ALA:132>  (35) 
1

>  <hbond:HIS:51>  (35) 
0

>  <hbond:ASP:129>  (35) 
0

>  <hbond:TYR:150>  (35) 
0

>  <hbond:GLY:151>  (35) 
0

>  <hbond:TYR:161>  (35) 
0

>  <hydroph_interaction:TYR:130>  (35) 
0

>  <hydroph_interaction:PRO:131>  (35) 
0

>  <hydroph_interaction:ASP:129>  (35) 
0

>  <saltbridge:ASP:75>  (35) 
0

>  <saltbridge:ASP:83>  (35) 
0

>  <hbond:ASN:152>  (35) 
0

>  <hydroph_interaction:ASN:152>  (35) 
0

>  <halogenbond:TYR:150>  (35) 
0

>  <hbond:ASP:83>  (35) 
0

>  <hydroph_interaction:VAL:155>  (35) 
0

>  <pication:TYR:161>  (35) 
0

>  <hbond:PRO:131>  (35) 
0

>  <saltbridge:ASP:129>  (35) 
0

>  <hbond:THR:134>  (35) 
0

>  <pication:HIS:51>  (35) 
0

>  <hbond:SER:81>  (35) 
0

>  <hydroph_interaction:THR:134>  (35) 
0

>  <hydroph_interaction:MET:49>  (35) 
0

$$$$
CSSS00000011682
     RDKit          3D

 23 24  0  0  0  0  0  0  0  0999 V2000
   -4.4760    5.1370  -16.2990 C   0  0  0  0  0  0  0  0  0  0  0  0
   -4.5970    5.2890  -17.7920 C   0  0  0  0  0  0  0  0  0  0  0  0
   -3.4810    5.1430  -18.5380 C   0  0  0  0  0  0  0  0  0  0  0  0
   -5.8360    5.5770  -18.3390 N   0  0  0  0  0  0  0  0  0  0  0  0
   -6.0040    5.7560  -19.7630 C   0  0  0  0  0  0  0  0  0  0  0  0
   -5.2470    6.2510  -20.5860 O   0  0  0  0  0  0  0  0  0  0  0  0
   -7.2500    5.2560  -20.1250 N   0  0  0  0  0  0  0  0  0  0  0  0
   -7.9690    5.1060  -18.9790 C   0  0  0  0  0  0  0  0  0  0  0  0
   -9.3070    4.8190  -18.8830 C   0  0  0  0  0  0  0  0  0  0  0  0
   -9.8490    4.7210  -17.6170 C   0  0  0  0  0  0  0  0  0  0  0  0
   -9.0480    4.9050  -16.4830 C   0  0  0  0  0  0  0  0  0  0  0  0
   -7.6760    5.1940  -16.6020 C   0  0  0  0  0  0  0  0  0  0  0  0
   -7.1440    5.2950  -17.8760 C   0  0  0  0  0  0  0  0  0  0  0  0
   -4.2300    6.1000  -15.8410 H   0  0  0  0  0  0  0  0  0  0  0  0
   -3.6700    4.4350  -16.0650 H   0  0  0  0  0  0  0  0  0  0  0  0
   -5.4050    4.7380  -15.8800 H   0  0  0  0  0  0  0  0  0  0  0  0
   -3.4630    5.2370  -19.6290 H   0  0  0  0  0  0  0  0  0  0  0  0
   -2.4780    4.9160  -18.1630 H   0  0  0  0  0  0  0  0  0  0  0  0
   -7.6690    5.5310  -21.0010 H   0  0  0  0  0  0  0  0  0  0  0  0
   -9.9090    4.6820  -19.7650 H   0  0  0  0  0  0  0  0  0  0  0  0
  -10.9050    4.4990  -17.5030 H   0  0  0  0  0  0  0  0  0  0  0  0
   -9.4930    4.8240  -15.4950 H   0  0  0  0  0  0  0  0  0  0  0  0
   -7.1050    5.3260  -15.7000 H   0  0  0  0  0  0  0  0  0  0  0  0
  1  2  1  0
  2  3  2  3
  2  4  1  0
  4  5  1  0
  5  6  2  0
  5  7  1  0
  7  8  1  0
  8  9  2  0
  9 10  1  0
 10 11  2  0
 11 12  1  0
 12 13  2  0
 13  4  1  0
 13  8  1  0
  1 14  1  0
  1 15  1  0
  1 16  1  0
  3 17  1  0
  3 18  1  0
  7 19  1  0
  9 20  1  0
 10 21  1  0
 11 22  1  0
 12 23  1  0
A    1
 C1 
A    2
 C2 
A    3
 C3 
A    4
 N1 
A    5
 C4 
A    6
 O1 
A    7
 N2 
A    8
 C5 
A    9
 C6 
A   10
 C7 
A   11
 C8 
A   12
 C9 
A   13
 C10
A   14
 H1 
A   15
 H2 
A   16
 H3 
A   17
 H4 
A   18
 H5 
A   19
 H6 
A   20
 H7 
A   21
 H8 
A   22
 H9 
A   23
 H10
M  END
>  <ref_pdb>  (36) 
x0051_0B

>  <ref_mols>  (36) 
x0490_0B,x0800_0B

>  <original SMILES>  (36) 
[H]C([H])=C(n1c(=O)n([H])c2c([H])c([H])c([H])c([H])c21)C([H])([H])[H]

>  <index>  (36) 
2708

>  <∆∆G>  (36) 
-6.814068

>  <∆G_bound>  (36) 
-6.868543

>  <∆G_unbound>  (36) 
-0.054474

>  <comRMSD>  (36) 
0.755015

>  <N_constrained_atoms>  (36) 
14.0

>  <N_unconstrained_atoms>  (36) 
1.0

>  <runtime>  (36) 
25.201948

>  <LE>  (36) 
0.454271

>  <percent_hybrid>  (36) 
50.0

>  <dist>  (36) 
3.0

>  <ecfp4>  (36) 
0.276596

>  <daylight>  (36) 
0.109375

>  <topodist>  (36) 
1.0

>  <mces>  (36) 
13.0

>  <tdn>  (36) 
0.0

>  <tup>  (36) 
1.0

>  <rdn>  (36) 
0.0

>  <rup>  (36) 
0.0

>  <ldn>  (36) 
0.0

>  <lup>  (36) 
0.0

>  <mut>  (36) 
1.0

>  <maj>  (36) 
1.0

>  <min>  (36) 
0.0

>  <hyb>  (36) 
1.0

>  <sub>  (36) 
1.0

>  <query_index>  (36) 
250.0

>  <max_hit_Tanimoto>  (36) 
0.568058

>  <largest_ring>  (36) 
6

>  <N_interactions_kept>  (36) 
0.0

>  <N_interactions_lost>  (36) 
4.0

>  <interaction_uniqueness_metric>  (36) 
0.071662

>  <ad_hoc_penalty>  (36) 
-4.596132

>  <N_rotatable_bonds>  (36) 
2

>  <N_HA>  (36) 
13

>  <cluster>  (36) 
3720

>  <N_interactions>  (36) 
6

>  <Enamine>  (36) 
1

>  <Mcule>  (36) 
0

>  <N_PAINS>  (36) 
0

>  <UFF_Gibbs>  (36) 
53.9157

>  <strain_per_HA>  (36) 
4.147362

>  <intxn_scored>  (36) 
12.5

>  <saltbridge:HIS:51>  (36) 
0

>  <pistack:HIS:51>  (36) 
0

>  <hydroph_interaction:HIS:51>  (36) 
0

>  <hbond:ALA:132>  (36) 
0

>  <hbond:SER:135>  (36) 
0

>  <hydroph_interaction:TYR:150>  (36) 
1

>  <pistack:TYR:161>  (36) 
2

>  <hydroph_interaction:TYR:161>  (36) 
2

>  <hydroph_interaction:ASP:83>  (36) 
0

>  <hbond:TYR:130>  (36) 
1

>  <hydroph_interaction:ALA:132>  (36) 
0

>  <hbond:HIS:51>  (36) 
0

>  <hbond:ASP:129>  (36) 
0

>  <hbond:TYR:150>  (36) 
0

>  <hbond:GLY:151>  (36) 
0

>  <hbond:TYR:161>  (36) 
0

>  <hydroph_interaction:TYR:130>  (36) 
0

>  <hydroph_interaction:PRO:131>  (36) 
0

>  <hydroph_interaction:ASP:129>  (36) 
0

>  <saltbridge:ASP:75>  (36) 
0

>  <saltbridge:ASP:83>  (36) 
0

>  <hbond:ASN:152>  (36) 
0

>  <hydroph_interaction:ASN:152>  (36) 
0

>  <halogenbond:TYR:150>  (36) 
0

>  <hbond:ASP:83>  (36) 
0

>  <hydroph_interaction:VAL:155>  (36) 
0

>  <pication:TYR:161>  (36) 
0

>  <hbond:PRO:131>  (36) 
0

>  <saltbridge:ASP:129>  (36) 
0

>  <hbond:THR:134>  (36) 
0

>  <pication:HIS:51>  (36) 
0

>  <hbond:SER:81>  (36) 
0

>  <hydroph_interaction:THR:134>  (36) 
0

>  <hydroph_interaction:MET:49>  (36) 
0

$$$$
Z3075286444
     RDKit          3D

 27 28  0  0  0  0  0  0  0  0999 V2000
  -11.4270    4.8400  -19.7260 C   0  0  0  0  0  0  0  0  0  0  0  0
  -10.4560    4.2450  -18.7990 C   0  0  0  0  0  0  0  0  0  0  0  0
   -9.2570    4.9830  -18.9100 N   0  0  0  0  0  0  0  0  0  0  0  0
   -8.4160    5.0630  -17.8810 C   0  0  0  0  0  0  0  0  0  0  0  0
   -8.9990    4.9830  -16.6180 C   0  0  0  0  0  0  0  0  0  0  0  0
   -8.0190    5.0660  -15.4350 C   0  0  0  0  0  0  0  0  0  0  0  0
   -6.7000    5.2010  -15.6450 N   0  0  0  0  0  0  0  0  0  0  0  0
   -6.2360    5.2700  -16.9920 C   0  0  0  0  0  0  0  0  0  0  0  0
   -4.8770    5.4010  -17.2930 C   0  0  0  0  0  0  0  0  0  0  0  0
   -3.9330    5.4530  -16.2770 C   0  0  0  0  0  0  0  0  0  0  0  0
   -4.4530    5.4770  -18.6240 C   0  0  0  0  0  0  0  0  0  0  0  0
   -5.4030    5.4150  -19.6340 C   0  0  0  0  0  0  0  0  0  0  0  0
   -6.7040    5.2800  -19.3910 N   0  0  0  0  0  0  0  0  0  0  0  0
   -7.0850    5.2100  -18.1090 C   0  0  0  0  0  0  0  0  0  0  0  0
  -12.3630    4.2770  -19.7230 H   0  0  0  0  0  0  0  0  0  0  0  0
  -11.6510    5.8660  -19.4270 H   0  0  0  0  0  0  0  0  0  0  0  0
  -11.0290    4.8570  -20.7380 H   0  0  0  0  0  0  0  0  0  0  0  0
  -10.2900    3.1980  -19.0660 H   0  0  0  0  0  0  0  0  0  0  0  0
  -10.8510    4.3430  -17.7870 H   0  0  0  0  0  0  0  0  0  0  0  0
   -8.6910    4.6320  -19.6860 H   0  0  0  0  0  0  0  0  0  0  0  0
  -10.0650    4.8690  -16.4600 H   0  0  0  0  0  0  0  0  0  0  0  0
   -8.3470    5.0170  -14.4020 H   0  0  0  0  0  0  0  0  0  0  0  0
   -4.3370    5.0080  -15.3620 H   0  0  0  0  0  0  0  0  0  0  0  0
   -3.0300    4.8970  -16.5440 H   0  0  0  0  0  0  0  0  0  0  0  0
   -3.6400    6.4910  -16.0810 H   0  0  0  0  0  0  0  0  0  0  0  0
   -3.4030    5.5830  -18.8760 H   0  0  0  0  0  0  0  0  0  0  0  0
   -5.1260    5.4710  -20.6810 H   0  0  0  0  0  0  0  0  0  0  0  0
  1  2  1  0
  2  3  1  0
  3  4  1  0
  4  5  2  0
  5  6  1  0
  6  7  2  0
  7  8  1  0
  8  9  2  0
  9 10  1  0
  9 11  1  0
 11 12  2  0
 12 13  1  0
 13 14  2  0
 14  4  1  0
 14  8  1  0
  1 15  1  0
  1 16  1  0
  1 17  1  0
  2 18  1  0
  2 19  1  0
  3 20  1  0
  5 21  1  0
  6 22  1  0
 10 23  1  0
 10 24  1  0
 10 25  1  0
 11 26  1  0
 12 27  1  0
A    1
 C1 
A    2
 C2 
A    3
 N1 
A    4
 C3 
A    5
 C4 
A    6
 C5 
A    7
 N2 
A    8
 C6 
A    9
 C7 
A   10
 C8 
A   11
 C9 
A   12
 C10
A   13
 N3 
A   14
 C11
A   15
 H1 
A   16
 H2 
A   17
 H3 
A   18
 H4 
A   19
 H5 
A   20
 H6 
A   21
 H7 
A   22
 H8 
A   23
 H9 
A   24
 H10
A   25
 H11
A   26
 H12
A   27
 H13
M  END
>  <ref_pdb>  (37) 
x0051_0B

>  <ref_mols>  (37) 
x0425_0B,x0435_0B

>  <original SMILES>  (37) 
[H]c1nc2c(C([H])([H])[H])c([H])c([H])nc2c(N([H])C([H])([H])C([H])([H])[H])c1[H]

>  <index>  (37) 
2844

>  <∆∆G>  (37) 
-7.422126

>  <∆G_bound>  (37) 
-7.222332

>  <∆G_unbound>  (37) 
0.199794

>  <comRMSD>  (37) 
0.902951

>  <N_constrained_atoms>  (37) 
13.0

>  <N_unconstrained_atoms>  (37) 
3.0

>  <runtime>  (37) 
33.877628

>  <LE>  (37) 
0.463883

>  <percent_hybrid>  (37) 
40.0

>  <dist>  (37) 
3.0

>  <ecfp4>  (37) 
0.348837

>  <daylight>  (37) 
0.389381

>  <topodist>  (37) 
1.0

>  <mces>  (37) 
14.0

>  <tdn>  (37) 
0.0

>  <tup>  (37) 
0.0

>  <rdn>  (37) 
0.0

>  <rup>  (37) 
0.0

>  <ldn>  (37) 
0.0

>  <lup>  (37) 
1.0

>  <mut>  (37) 
2.0

>  <maj>  (37) 
2.0

>  <min>  (37) 
0.0

>  <hyb>  (37) 
0.0

>  <sub>  (37) 
0.0

>  <query_index>  (37) 
107.0

>  <max_hit_Tanimoto>  (37) 
0.187592

>  <largest_ring>  (37) 
6

>  <N_interactions_kept>  (37) 
0.0

>  <N_interactions_lost>  (37) 
3.5

>  <interaction_uniqueness_metric>  (37) 
0.071662

>  <ad_hoc_penalty>  (37) 
-0.179865

>  <N_rotatable_bonds>  (37) 
4

>  <N_HA>  (37) 
14

>  <cluster>  (37) 
3592

>  <N_interactions>  (37) 
6

>  <Enamine>  (37) 
1

>  <Mcule>  (37) 
0

>  <N_PAINS>  (37) 
0

>  <UFF_Gibbs>  (37) 
109.302703

>  <strain_per_HA>  (37) 
7.807336

>  <intxn_scored>  (37) 
12.5

>  <saltbridge:HIS:51>  (37) 
0

>  <pistack:HIS:51>  (37) 
0

>  <hydroph_interaction:HIS:51>  (37) 
0

>  <hbond:ALA:132>  (37) 
0

>  <hbond:SER:135>  (37) 
0

>  <hydroph_interaction:TYR:150>  (37) 
1

>  <pistack:TYR:161>  (37) 
2

>  <hydroph_interaction:TYR:161>  (37) 
2

>  <hydroph_interaction:ASP:83>  (37) 
0

>  <hbond:TYR:130>  (37) 
1

>  <hydroph_interaction:ALA:132>  (37) 
0

>  <hbond:HIS:51>  (37) 
0

>  <hbond:ASP:129>  (37) 
0

>  <hbond:TYR:150>  (37) 
0

>  <hbond:GLY:151>  (37) 
0

>  <hbond:TYR:161>  (37) 
0

>  <hydroph_interaction:TYR:130>  (37) 
0

>  <hydroph_interaction:PRO:131>  (37) 
0

>  <hydroph_interaction:ASP:129>  (37) 
0

>  <saltbridge:ASP:75>  (37) 
0

>  <saltbridge:ASP:83>  (37) 
0

>  <hbond:ASN:152>  (37) 
0

>  <hydroph_interaction:ASN:152>  (37) 
0

>  <halogenbond:TYR:150>  (37) 
0

>  <hbond:ASP:83>  (37) 
0

>  <hydroph_interaction:VAL:155>  (37) 
0

>  <pication:TYR:161>  (37) 
0

>  <hbond:PRO:131>  (37) 
0

>  <saltbridge:ASP:129>  (37) 
0

>  <hbond:THR:134>  (37) 
0

>  <pication:HIS:51>  (37) 
0

>  <hbond:SER:81>  (37) 
0

>  <hydroph_interaction:THR:134>  (37) 
0

>  <hydroph_interaction:MET:49>  (37) 
0

$$$$
CSSS00000015475
     RDKit          3D

 24 25  0  0  0  0  0  0  0  0999 V2000
  -10.1530    4.7570  -18.5610 C   0  0  0  0  0  0  0  0  0  0  0  0
   -9.0320    5.0540  -17.5490 C   0  0  0  0  0  0  0  0  0  0  0  0
   -9.3090    5.1500  -16.1550 C   0  0  0  0  0  0  0  0  0  0  0  0
   -8.2480    5.4140  -15.2340 C   0  0  0  0  0  0  0  0  0  0  0  0
   -8.4540    5.8920  -14.1230 O   0  0  0  0  0  0  0  0  0  0  0  0
   -7.0050    5.0990  -15.6930 N   0  0  0  0  0  0  0  0  0  0  0  0
   -6.6120    5.2430  -17.0380 C   0  0  0  0  0  0  0  0  0  0  0  0
   -5.2600    5.3890  -17.4360 C   0  0  0  0  0  0  0  0  0  0  0  0
   -4.3400    5.3710  -16.4200 C   0  0  0  0  0  0  0  0  0  0  0  0
   -4.9530    5.5320  -18.7910 C   0  0  0  0  0  0  0  0  0  0  0  0
   -3.3310    5.7190  -19.3600 Cl  0  0  0  0  0  0  0  0  0  0  0  0
   -5.9690    5.5280  -19.7560 C   0  0  0  0  0  0  0  0  0  0  0  0
   -7.3110    5.3740  -19.3480 C   0  0  0  0  0  0  0  0  0  0  0  0
   -7.6400    5.2300  -18.0020 C   0  0  0  0  0  0  0  0  0  0  0  0
  -10.0860    3.7050  -18.8280 H   0  0  0  0  0  0  0  0  0  0  0  0
  -10.0050    5.3560  -19.4650 H   0  0  0  0  0  0  0  0  0  0  0  0
  -11.1360    4.9820  -18.1490 H   0  0  0  0  0  0  0  0  0  0  0  0
  -10.2840    5.0310  -15.7160 H   0  0  0  0  0  0  0  0  0  0  0  0
   -6.3940    4.6710  -15.0040 H   0  0  0  0  0  0  0  0  0  0  0  0
   -3.4420    4.8330  -16.7380 H   0  0  0  0  0  0  0  0  0  0  0  0
   -4.7390    4.9070  -15.5110 H   0  0  0  0  0  0  0  0  0  0  0  0
   -4.0330    6.3910  -16.1600 H   0  0  0  0  0  0  0  0  0  0  0  0
   -5.7360    5.6400  -20.8180 H   0  0  0  0  0  0  0  0  0  0  0  0
   -8.0790    5.3670  -20.1150 H   0  0  0  0  0  0  0  0  0  0  0  0
  1  2  1  0
  2  3  2  0
  3  4  1  0
  4  5  2  0
  4  6  1  0
  6  7  1  0
  7  8  2  0
  8  9  1  0
  8 10  1  0
 10 11  1  0
 10 12  2  0
 12 13  1  0
 13 14  2  0
 14  2  1  0
 14  7  1  0
  1 15  1  0
  1 16  1  0
  1 17  1  0
  3 18  1  0
  6 19  1  0
  9 20  1  0
  9 21  1  0
  9 22  1  0
 12 23  1  0
 13 24  1  0
A    1
 C1 
A    2
 C2 
A    3
 C3 
A    4
 C4 
A    5
 O1 
A    6
 N1 
A    7
 C5 
A    8
 C6 
A    9
 C7 
A   10
 C8 
A   11
CL1 
A   12
 C9 
A   13
 C10
A   14
 C11
A   15
 H1 
A   16
 H2 
A   17
 H3 
A   18
 H4 
A   19
 H5 
A   20
 H6 
A   21
 H7 
A   22
 H8 
A   23
 H9 
A   24
 H10
M  END
>  <ref_pdb>  (38) 
x0051_0B

>  <ref_mols>  (38) 
x0425_0B,x0435_0B

>  <original SMILES>  (38) 
[H]c1c(Cl)c(C([H])([H])[H])c2c(c1[H])c(C([H])([H])[H])c([H])c(=O)n2[H]

>  <index>  (38) 
421

>  <∆∆G>  (38) 
-8.013758

>  <∆G_bound>  (38) 
-8.031411

>  <∆G_unbound>  (38) 
-0.017653

>  <comRMSD>  (38) 
0.903182

>  <N_constrained_atoms>  (38) 
13.0

>  <N_unconstrained_atoms>  (38) 
3.0

>  <runtime>  (38) 
18.537195

>  <LE>  (38) 
0.50086

>  <percent_hybrid>  (38) 
40.0

>  <dist>  (38) 
4.0

>  <ecfp4>  (38) 
0.083333

>  <daylight>  (38) 
0.106918

>  <topodist>  (38) 
3.0

>  <mces>  (38) 
13.0

>  <tdn>  (38) 
1.0

>  <tup>  (38) 
2.0

>  <rdn>  (38) 
0.0

>  <rup>  (38) 
0.0

>  <ldn>  (38) 
0.0

>  <lup>  (38) 
0.0

>  <mut>  (38) 
0.0

>  <maj>  (38) 
0.0

>  <min>  (38) 
0.0

>  <hyb>  (38) 
1.0

>  <sub>  (38) 
3.0

>  <query_index>  (38) 
107.0

>  <max_hit_Tanimoto>  (38) 
0.161332

>  <largest_ring>  (38) 
0

>  <N_interactions_kept>  (38) 
1.0

>  <N_interactions_lost>  (38) 
2.5

>  <interaction_uniqueness_metric>  (38) 
0.08952

>  <ad_hoc_penalty>  (38) 
-21.827116

>  <N_rotatable_bonds>  (38) 
2

>  <N_HA>  (38) 
14

>  <cluster>  (38) 
5836

>  <N_interactions>  (38) 
6

>  <Enamine>  (38) 
1

>  <Mcule>  (38) 
0

>  <N_PAINS>  (38) 
0

>  <UFF_Gibbs>  (38) 
59.722539

>  <strain_per_HA>  (38) 
4.265896

>  <intxn_scored>  (38) 
12.5

>  <saltbridge:HIS:51>  (38) 
0

>  <pistack:HIS:51>  (38) 
0

>  <hydroph_interaction:HIS:51>  (38) 
0

>  <hbond:ALA:132>  (38) 
0

>  <hbond:SER:135>  (38) 
0

>  <hydroph_interaction:TYR:150>  (38) 
1

>  <pistack:TYR:161>  (38) 
2

>  <hydroph_interaction:TYR:161>  (38) 
2

>  <hydroph_interaction:ASP:83>  (38) 
0

>  <hbond:TYR:130>  (38) 
0

>  <hydroph_interaction:ALA:132>  (38) 
0

>  <hbond:HIS:51>  (38) 
0

>  <hbond:ASP:129>  (38) 
0

>  <hbond:TYR:150>  (38) 
0

>  <hbond:GLY:151>  (38) 
0

>  <hbond:TYR:161>  (38) 
1

>  <hydroph_interaction:TYR:130>  (38) 
0

>  <hydroph_interaction:PRO:131>  (38) 
0

>  <hydroph_interaction:ASP:129>  (38) 
0

>  <saltbridge:ASP:75>  (38) 
0

>  <saltbridge:ASP:83>  (38) 
0

>  <hbond:ASN:152>  (38) 
0

>  <hydroph_interaction:ASN:152>  (38) 
0

>  <halogenbond:TYR:150>  (38) 
0

>  <hbond:ASP:83>  (38) 
0

>  <hydroph_interaction:VAL:155>  (38) 
0

>  <pication:TYR:161>  (38) 
0

>  <hbond:PRO:131>  (38) 
0

>  <saltbridge:ASP:129>  (38) 
0

>  <hbond:THR:134>  (38) 
0

>  <pication:HIS:51>  (38) 
0

>  <hbond:SER:81>  (38) 
0

>  <hydroph_interaction:THR:134>  (38) 
0

>  <hydroph_interaction:MET:49>  (38) 
0

$$$$
Z5001525277
     RDKit          3D

 52 55  0  0  0  0  0  0  0  0999 V2000
  -11.2310    2.9100   -6.2920 C   0  0  0  0  0  0  0  0  0  0  0  0
  -10.1230    3.1550   -7.0750 N   0  0  0  0  0  0  0  0  0  0  0  0
   -9.6280    2.2780   -8.0800 C   0  0  0  0  0  0  0  0  0  0  0  0
   -9.2990    2.9680   -9.2510 C   0  0  0  0  0  0  0  0  0  0  0  0
   -8.9680    4.2940   -9.0690 N   0  0  0  0  0  0  0  0  0  0  0  0
   -8.9610    5.0650  -10.1580 C   0  0  0  0  0  0  0  0  0  0  0  0
   -8.8330    6.4590  -10.0990 C   0  0  0  0  0  0  0  0  0  0  0  0
   -8.8390    7.2730  -11.2450 C   0  0  0  0  0  0  0  0  0  0  0  0
   -8.9750    6.7320  -12.5320 C   0  0  0  0  0  0  0  0  0  0  0  0
   -8.9890    7.5260  -13.6630 C   0  0  0  0  0  0  0  0  0  0  0  0
   -8.8460    8.7470  -13.6010 O   0  0  0  0  0  0  0  0  0  0  0  0
   -9.1600    6.8260  -14.8130 N   0  0  0  0  0  0  0  0  0  0  0  0
   -8.1180    5.9030  -15.2560 C   0  0  0  0  0  0  0  0  0  0  0  0
   -8.3740    5.4880  -16.6440 C   0  0  0  0  0  0  0  0  0  0  0  0
   -9.7430    5.1180  -16.8960 C   0  0  0  0  0  0  0  0  0  0  0  0
  -10.1960    4.7110  -18.2540 C   0  0  0  0  0  0  0  0  0  0  0  0
   -9.2850    4.6770  -19.3080 C   0  0  0  0  0  0  0  0  0  0  0  0
   -7.9710    5.0020  -19.1000 C   0  0  0  0  0  0  0  0  0  0  0  0
   -7.4890    5.4160  -17.7270 C   0  0  0  0  0  0  0  0  0  0  0  0
   -6.1570    5.6340  -17.9510 N   0  0  0  0  0  0  0  0  0  0  0  0
   -5.1660    6.0390  -16.9940 C   0  0  0  0  0  0  0  0  0  0  0  0
   -5.8800    5.3950  -19.2800 C   0  0  0  0  0  0  0  0  0  0  0  0
   -6.9300    5.0210  -19.9810 N   0  0  0  0  0  0  0  0  0  0  0  0
   -9.1020    5.3560  -12.6900 C   0  0  0  0  0  0  0  0  0  0  0  0
   -9.0910    4.5010  -11.4290 C   0  0  0  0  0  0  0  0  0  0  0  0
   -8.4740    4.7760   -7.7550 C   0  0  0  0  0  0  0  0  0  0  0  0
   -9.2190    4.2430   -6.6880 C   0  0  0  0  0  0  0  0  0  0  0  0
  -12.1400    3.2880   -6.7180 H   0  0  0  0  0  0  0  0  0  0  0  0
  -11.3760    1.8290   -6.1950 H   0  0  0  0  0  0  0  0  0  0  0  0
  -11.1270    3.3240   -5.2850 H   0  0  0  0  0  0  0  0  0  0  0  0
   -8.7410    1.8120   -7.6630 H   0  0  0  0  0  0  0  0  0  0  0  0
  -10.3310    1.4690   -8.2850 H   0  0  0  0  0  0  0  0  0  0  0  0
   -8.4940    2.4490   -9.7730 H   0  0  0  0  0  0  0  0  0  0  0  0
  -10.1530    2.9340   -9.9270 H   0  0  0  0  0  0  0  0  0  0  0  0
   -8.7270    6.9450   -9.1340 H   0  0  0  0  0  0  0  0  0  0  0  0
   -8.7380    8.3510  -11.1350 H   0  0  0  0  0  0  0  0  0  0  0  0
  -10.0870    6.7020  -15.2010 H   0  0  0  0  0  0  0  0  0  0  0  0
   -8.0400    5.0170  -14.6140 H   0  0  0  0  0  0  0  0  0  0  0  0
   -7.1560    6.4300  -15.2050 H   0  0  0  0  0  0  0  0  0  0  0  0
  -10.4350    5.1480  -16.0730 H   0  0  0  0  0  0  0  0  0  0  0  0
  -11.2350    4.4450  -18.4230 H   0  0  0  0  0  0  0  0  0  0  0  0
   -9.5900    4.3920  -20.3030 H   0  0  0  0  0  0  0  0  0  0  0  0
   -5.3490    5.6550  -15.9930 H   0  0  0  0  0  0  0  0  0  0  0  0
   -5.1320    7.1300  -16.9910 H   0  0  0  0  0  0  0  0  0  0  0  0
   -4.2030    5.6700  -17.3190 H   0  0  0  0  0  0  0  0  0  0  0  0
   -4.8700    5.5080  -19.6960 H   0  0  0  0  0  0  0  0  0  0  0  0
   -9.2110    4.8940  -13.6680 H   0  0  0  0  0  0  0  0  0  0  0  0
   -9.1970    3.4270  -11.6230 H   0  0  0  0  0  0  0  0  0  0  0  0
   -8.4360    5.8610   -7.7880 H   0  0  0  0  0  0  0  0  0  0  0  0
   -7.4380    4.4470   -7.6420 H   0  0  0  0  0  0  0  0  0  0  0  0
   -9.7870    5.0650   -6.2300 H   0  0  0  0  0  0  0  0  0  0  0  0
   -8.5270    3.8630   -5.9270 H   0  0  0  0  0  0  0  0  0  0  0  0
  1  2  1  0
  2  3  1  0
  3  4  1  0
  4  5  1  0
  5  6  1  0
  6  7  2  0
  7  8  1  0
  8  9  2  0
  9 10  1  0
 10 11  2  0
 10 12  1  0
 12 13  1  0
 13 14  1  0
 14 15  2  0
 15 16  1  0
 16 17  2  0
 17 18  1  0
 18 19  2  0
 19 20  1  0
 20 21  1  0
 20 22  1  0
 22 23  2  0
  9 24  1  0
 24 25  2  0
  5 26  1  0
 26 27  1  0
 27  2  1  0
 25  6  1  0
 19 14  1  0
 23 18  1  0
  1 28  1  0
  1 29  1  0
  1 30  1  0
  3 31  1  0
  3 32  1  0
  4 33  1  0
  4 34  1  0
  7 35  1  0
  8 36  1  0
 12 37  1  0
 13 38  1  0
 13 39  1  0
 15 40  1  0
 16 41  1  0
 17 42  1  0
 21 43  1  0
 21 44  1  0
 21 45  1  0
 22 46  1  0
 24 47  1  0
 25 48  1  0
 26 49  1  0
 26 50  1  0
 27 51  1  0
 27 52  1  0
A    1
 C1 
A    2
 N1 
A    3
 C2 
A    4
 C3 
A    5
 N2 
A    6
 C4 
A    7
 C5 
A    8
 C6 
A    9
 C7 
A   10
 C8 
A   11
 O1 
A   12
 N3 
A   13
 C9 
A   14
 C10
A   15
 C11
A   16
 C12
A   17
 C13
A   18
 C14
A   19
 C15
A   20
 N4 
A   21
 C16
A   22
 C17
A   23
 N5 
A   24
 C18
A   25
 C19
A   26
 C20
A   27
 C21
A   28
 H1 
A   29
 H2 
A   30
 H3 
A   31
 H4 
A   32
 H5 
A   33
 H6 
A   34
 H7 
A   35
 H8 
A   36
 H9 
A   37
 H10
A   38
 H11
A   39
 H12
A   40
 H13
A   41
 H14
A   42
 H15
A   43
 H16
A   44
 H17
A   45
 H18
A   46
 H19
A   47
 H20
A   48
 H21
A   49
 H22
A   50
 H23
A   51
 H24
A   52
 H25
M  END
>  <ref_pdb>  (39) 
x0051_0B

>  <ref_mols>  (39) 
x0490_0B,x0404_0B

>  <original SMILES>  (39) 
[H]c1c([H])c(N2C([H])([H])C([H])([H])N(C([H])([H])[H])C([H])([H])C2([H])[H])c([H])c([H])c1C(=O)N([H])C([H])([H])c1c([H])c([H])c([H])c2nc([H])n(C([H])([H])[H])c12

>  <index>  (39) 
367

>  <∆∆G>  (39) 
-6.53236

>  <∆G_bound>  (39) 
-5.915081

>  <∆G_unbound>  (39) 
0.617279

>  <comRMSD>  (39) 
0.656272

>  <N_constrained_atoms>  (39) 
27.0

>  <N_unconstrained_atoms>  (39) 
1.0

>  <runtime>  (39) 
71.439461

>  <LE>  (39) 
0.233299

>  <percent_hybrid>  (39) 
41.0

>  <dist>  (39) 
6.0

>  <ecfp4>  (39) 
0.296296

>  <daylight>  (39) 
0.344538

>  <topodist>  (39) 
3.0

>  <mces>  (39) 
29.0

>  <tdn>  (39) 
2.0

>  <tup>  (39) 
1.0

>  <rdn>  (39) 
0.0

>  <rup>  (39) 
0.0

>  <ldn>  (39) 
0.0

>  <lup>  (39) 
0.0

>  <mut>  (39) 
2.0

>  <maj>  (39) 
2.0

>  <min>  (39) 
0.0

>  <hyb>  (39) 
1.0

>  <sub>  (39) 
2.0

>  <query_index>  (39) 
10.0

>  <max_hit_Tanimoto>  (39) 
0.332521

>  <largest_ring>  (39) 
0

>  <N_interactions_kept>  (39) 
1.0

>  <N_interactions_lost>  (39) 
3.5

>  <interaction_uniqueness_metric>  (39) 
0.42576

>  <ad_hoc_penalty>  (39) 
-20.282425

>  <N_rotatable_bonds>  (39) 
6

>  <N_HA>  (39) 
27

>  <cluster>  (39) 
5882

>  <N_interactions>  (39) 
10

>  <Enamine>  (39) 
1

>  <Mcule>  (39) 
0

>  <N_PAINS>  (39) 
0

>  <UFF_Gibbs>  (39) 
271.684396

>  <strain_per_HA>  (39) 
10.062385

>  <intxn_scored>  (39) 
12.5

>  <saltbridge:HIS:51>  (39) 
0

>  <pistack:HIS:51>  (39) 
1

>  <hydroph_interaction:HIS:51>  (39) 
1

>  <hbond:ALA:132>  (39) 
1

>  <hbond:SER:135>  (39) 
0

>  <hydroph_interaction:TYR:150>  (39) 
1

>  <pistack:TYR:161>  (39) 
1

>  <hydroph_interaction:TYR:161>  (39) 
2

>  <hydroph_interaction:ASP:83>  (39) 
0

>  <hbond:TYR:130>  (39) 
0

>  <hydroph_interaction:ALA:132>  (39) 
1

>  <hbond:HIS:51>  (39) 
0

>  <hbond:ASP:129>  (39) 
0

>  <hbond:TYR:150>  (39) 
0

>  <hbond:GLY:151>  (39) 
0

>  <hbond:TYR:161>  (39) 
0

>  <hydroph_interaction:TYR:130>  (39) 
0

>  <hydroph_interaction:PRO:131>  (39) 
0

>  <hydroph_interaction:ASP:129>  (39) 
0

>  <saltbridge:ASP:75>  (39) 
1

>  <saltbridge:ASP:83>  (39) 
1

>  <hbond:ASN:152>  (39) 
0

>  <hydroph_interaction:ASN:152>  (39) 
0

>  <halogenbond:TYR:150>  (39) 
0

>  <hbond:ASP:83>  (39) 
0

>  <hydroph_interaction:VAL:155>  (39) 
0

>  <pication:TYR:161>  (39) 
0

>  <hbond:PRO:131>  (39) 
0

>  <saltbridge:ASP:129>  (39) 
0

>  <hbond:THR:134>  (39) 
0

>  <pication:HIS:51>  (39) 
0

>  <hbond:SER:81>  (39) 
0

>  <hydroph_interaction:THR:134>  (39) 
0

>  <hydroph_interaction:MET:49>  (39) 
0

$$$$
CSSB03437227659
     RDKit          3D

 39 42  0  0  0  0  0  0  0  0999 V2000
   -7.9960    3.8480  -10.3780 C   0  0  0  0  0  0  0  0  0  0  0  0
   -8.4260    4.9770  -11.0160 C   0  0  0  0  0  0  0  0  0  0  0  0
   -8.8450    6.0800  -10.2940 C   0  0  0  0  0  0  0  0  0  0  0  0
   -9.3670    7.3950  -11.3340 S   0  0  0  0  0  0  0  0  0  0  0  0
   -9.0030    6.3960  -12.6850 C   0  0  0  0  0  0  0  0  0  0  0  0
   -9.0770    6.5200  -14.0070 N   0  0  0  0  0  0  0  0  0  0  0  0
   -8.6460    5.4140  -14.6530 C   0  0  0  0  0  0  0  0  0  0  0  0
   -8.2550    4.5010  -13.6570 C   0  0  0  0  0  0  0  0  0  0  0  0
   -8.5140    5.1730  -12.3810 N   0  0  0  0  0  0  0  0  0  0  0  0
   -8.6370    5.2730  -16.1150 C   0  0  0  0  0  0  0  0  0  0  0  0
   -7.5830    5.5850  -16.9360 C   0  0  0  0  0  0  0  0  0  0  0  0
   -7.7390    5.4120  -18.4260 C   0  0  0  0  0  0  0  0  0  0  0  0
   -6.6740    5.7360  -19.2310 N   0  0  0  0  0  0  0  0  0  0  0  0
   -6.4010    5.0830  -20.3840 C   0  0  0  0  0  0  0  0  0  0  0  0
   -7.1310    4.3430  -21.0320 O   0  0  0  0  0  0  0  0  0  0  0  0
   -5.0150    5.3090  -20.8960 C   0  0  0  0  0  0  0  0  0  0  0  0
   -4.9050    5.4260  -22.2700 C   0  0  0  0  0  0  0  0  0  0  0  0
   -3.5540    5.6310  -22.8700 C   0  0  0  0  0  0  0  0  0  0  0  0
   -2.3910    5.7000  -21.9320 C   0  0  0  0  0  0  0  0  0  0  0  0
   -2.5870    5.5830  -20.5670 C   0  0  0  0  0  0  0  0  0  0  0  0
   -3.8800    5.3940  -20.0510 C   0  0  0  0  0  0  0  0  0  0  0  0
   -3.9740    5.2530  -17.9630 I   0  0  0  0  0  0  0  0  0  0  0  0
   -8.9390    4.9380  -18.9320 C   0  0  0  0  0  0  0  0  0  0  0  0
   -9.9680    4.6360  -18.0630 C   0  0  0  0  0  0  0  0  0  0  0  0
   -9.8060    4.8010  -16.6930 C   0  0  0  0  0  0  0  0  0  0  0  0
   -8.4190    3.8080   -9.3710 H   0  0  0  0  0  0  0  0  0  0  0  0
   -8.3060    2.9460  -10.9140 H   0  0  0  0  0  0  0  0  0  0  0  0
   -6.9040    3.8640  -10.3220 H   0  0  0  0  0  0  0  0  0  0  0  0
   -8.8740    6.1720   -9.2170 H   0  0  0  0  0  0  0  0  0  0  0  0
   -7.8540    3.5060  -13.6920 H   0  0  0  0  0  0  0  0  0  0  0  0
   -6.6090    5.9660  -16.6060 H   0  0  0  0  0  0  0  0  0  0  0  0
   -5.8960    6.1940  -18.7760 H   0  0  0  0  0  0  0  0  0  0  0  0
   -5.7730    5.3690  -22.9160 H   0  0  0  0  0  0  0  0  0  0  0  0
   -3.4420    5.7220  -23.9460 H   0  0  0  0  0  0  0  0  0  0  0  0
   -1.3480    5.8420  -22.2350 H   0  0  0  0  0  0  0  0  0  0  0  0
   -1.7210    5.6410  -19.9090 H   0  0  0  0  0  0  0  0  0  0  0  0
   -9.1010    4.7960  -19.9950 H   0  0  0  0  0  0  0  0  0  0  0  0
  -10.9110    4.2690  -18.4490 H   0  0  0  0  0  0  0  0  0  0  0  0
  -10.6290    4.5510  -16.0410 H   0  0  0  0  0  0  0  0  0  0  0  0
  1  2  1  0
  2  3  2  0
  3  4  1  0
  4  5  1  0
  5  6  2  0
  6  7  1  0
  7  8  2  0
  8  9  1  0
  7 10  1  0
 10 11  2  0
 11 12  1  0
 12 13  1  0
 13 14  1  0
 14 15  2  0
 14 16  1  0
 16 17  2  0
 17 18  1  0
 18 19  2  0
 19 20  1  0
 20 21  2  0
 21 22  1  0
 12 23  2  0
 23 24  1  0
 24 25  2  0
  9  2  1  0
  9  5  1  0
 25 10  1  0
 21 16  1  0
  1 26  1  0
  1 27  1  0
  1 28  1  0
  3 29  1  0
  8 30  1  0
 11 31  1  0
 13 32  1  0
 17 33  1  0
 18 34  1  0
 19 35  1  0
 20 36  1  0
 23 37  1  0
 24 38  1  0
 25 39  1  0
A    1
 C1 
A    2
 C2 
A    3
 C3 
A    4
 S1 
A    5
 C4 
A    6
 N1 
A    7
 C5 
A    8
 C6 
A    9
 N2 
A   10
 C7 
A   11
 C8 
A   12
 C9 
A   13
 N3 
A   14
 C10
A   15
 O1 
A   16
 C11
A   17
 C12
A   18
 C13
A   19
 C14
A   20
 C15
A   21
 C16
A   22
 I1 
A   23
 C17
A   24
 C18
A   25
 C19
A   26
 H1 
A   27
 H2 
A   28
 H3 
A   29
 H4 
A   30
 H5 
A   31
 H6 
A   32
 H7 
A   33
 H8 
A   34
 H9 
A   35
 H10
A   36
 H11
A   37
 H12
A   38
 H13
A   39
 H14
M  END
>  <ref_pdb>  (40) 
x0051_0B

>  <ref_mols>  (40) 
x0852_0B,x1098_0B

>  <original SMILES>  (40) 
[H]c1sc2nc(-c3c([H])c([H])c([H])c(N([H])C(=O)c4c([H])c([H])c([H])c([H])c4I)c3[H])c([H])n2c1C([H])([H])[H]

>  <index>  (40) 
3411

>  <∆∆G>  (40) 
-8.004314

>  <∆G_bound>  (40) 
-7.59511

>  <∆G_unbound>  (40) 
0.409204

>  <comRMSD>  (40) 
0.897305

>  <N_constrained_atoms>  (40) 
28.0

>  <N_unconstrained_atoms>  (40) 
0.0

>  <runtime>  (40) 
52.557504

>  <LE>  (40) 
0.285868

>  <percent_hybrid>  (40) 
48.0

>  <dist>  (40) 
12.0

>  <ecfp4>  (40) 
0.156863

>  <daylight>  (40) 
0.306897

>  <topodist>  (40) 
4.0

>  <mces>  (40) 
27.0

>  <tdn>  (40) 
3.0

>  <tup>  (40) 
0.0

>  <rdn>  (40) 
0.0

>  <rup>  (40) 
1.0

>  <ldn>  (40) 
0.0

>  <lup>  (40) 
0.0

>  <mut>  (40) 
7.0

>  <maj>  (40) 
6.0

>  <min>  (40) 
1.0

>  <hyb>  (40) 
1.0

>  <sub>  (40) 
3.0

>  <query_index>  (40) 
73.0

>  <max_hit_Tanimoto>  (40) 
0.309304

>  <largest_ring>  (40) 
6

>  <N_interactions_kept>  (40) 
3.0

>  <N_interactions_lost>  (40) 
5.5

>  <interaction_uniqueness_metric>  (40) 
0.161258

>  <ad_hoc_penalty>  (40) 
-1.942775

>  <N_rotatable_bonds>  (40) 
4

>  <N_HA>  (40) 
25

>  <cluster>  (40) 
3055

>  <N_interactions>  (40) 
8

>  <Enamine>  (40) 
1

>  <Mcule>  (40) 
0

>  <N_PAINS>  (40) 
0

>  <UFF_Gibbs>  (40) 
105.115568

>  <strain_per_HA>  (40) 
4.204623

>  <intxn_scored>  (40) 
12.0

>  <saltbridge:HIS:51>  (40) 
0

>  <pistack:HIS:51>  (40) 
2

>  <hydroph_interaction:HIS:51>  (40) 
0

>  <hbond:ALA:132>  (40) 
0

>  <hbond:SER:135>  (40) 
0

>  <hydroph_interaction:TYR:150>  (40) 
1

>  <pistack:TYR:161>  (40) 
1

>  <hydroph_interaction:TYR:161>  (40) 
1

>  <hydroph_interaction:ASP:83>  (40) 
0

>  <hbond:TYR:130>  (40) 
1

>  <hydroph_interaction:ALA:132>  (40) 
1

>  <hbond:HIS:51>  (40) 
0

>  <hbond:ASP:129>  (40) 
0

>  <hbond:TYR:150>  (40) 
0

>  <hbond:GLY:151>  (40) 
0

>  <hbond:TYR:161>  (40) 
0

>  <hydroph_interaction:TYR:130>  (40) 
0

>  <hydroph_interaction:PRO:131>  (40) 
0

>  <hydroph_interaction:ASP:129>  (40) 
1

>  <saltbridge:ASP:75>  (40) 
0

>  <saltbridge:ASP:83>  (40) 
0

>  <hbond:ASN:152>  (40) 
0

>  <hydroph_interaction:ASN:152>  (40) 
0

>  <halogenbond:TYR:150>  (40) 
0

>  <hbond:ASP:83>  (40) 
0

>  <hydroph_interaction:VAL:155>  (40) 
0

>  <pication:TYR:161>  (40) 
0

>  <hbond:PRO:131>  (40) 
0

>  <saltbridge:ASP:129>  (40) 
0

>  <hbond:THR:134>  (40) 
0

>  <pication:HIS:51>  (40) 
0

>  <hbond:SER:81>  (40) 
0

>  <hydroph_interaction:THR:134>  (40) 
0

>  <hydroph_interaction:MET:49>  (40) 
0

$$$$
Z1981667928
     RDKit          3D

 31 33  0  0  0  0  0  0  0  0999 V2000
   -8.5160    4.4770   -9.2640 C   0  0  0  0  0  0  0  0  0  0  0  0
   -8.6540    4.9440  -10.6170 N   0  0  0  0  0  0  0  0  0  0  0  0
   -8.5900    4.2210  -11.7610 C   0  0  0  0  0  0  0  0  0  0  0  0
   -8.7970    5.1790  -12.9080 C   0  0  0  0  0  0  0  0  0  0  0  0
   -8.8010    4.8410  -14.2160 O   0  0  0  0  0  0  0  0  0  0  0  0
   -8.2390    5.7020  -15.1110 C   0  0  0  0  0  0  0  0  0  0  0  0
   -7.5410    6.6650  -14.8490 O   0  0  0  0  0  0  0  0  0  0  0  0
   -8.5790    5.3580  -16.4430 C   0  0  0  0  0  0  0  0  0  0  0  0
   -9.8330    4.8870  -16.7760 C   0  0  0  0  0  0  0  0  0  0  0  0
  -10.2010    4.5590  -18.0740 C   0  0  0  0  0  0  0  0  0  0  0  0
   -9.2150    4.6940  -19.1610 C   0  0  0  0  0  0  0  0  0  0  0  0
   -7.9450    5.1620  -18.8350 C   0  0  0  0  0  0  0  0  0  0  0  0
   -7.6340    5.4950  -17.4890 C   0  0  0  0  0  0  0  0  0  0  0  0
   -6.3390    5.9230  -17.5690 N   0  0  0  0  0  0  0  0  0  0  0  0
   -5.5130    6.3960  -16.5050 C   0  0  0  0  0  0  0  0  0  0  0  0
   -5.9240    5.8130  -18.9490 C   0  0  0  0  0  0  0  0  0  0  0  0
   -6.8900    5.3570  -19.6950 N   0  0  0  0  0  0  0  0  0  0  0  0
   -8.9660    6.3950  -12.2150 C   0  0  0  0  0  0  0  0  0  0  0  0
   -8.8780    6.2600  -10.8640 N   0  0  0  0  0  0  0  0  0  0  0  0
   -8.7790    3.4120   -9.2270 H   0  0  0  0  0  0  0  0  0  0  0  0
   -7.4650    4.5680   -8.9720 H   0  0  0  0  0  0  0  0  0  0  0  0
   -9.1370    5.0280   -8.5550 H   0  0  0  0  0  0  0  0  0  0  0  0
   -8.4270    3.1550  -11.9590 H   0  0  0  0  0  0  0  0  0  0  0  0
  -10.5080    4.7990  -15.9240 H   0  0  0  0  0  0  0  0  0  0  0  0
  -11.2010    4.1990  -18.3080 H   0  0  0  0  0  0  0  0  0  0  0  0
   -9.4540    4.4440  -20.1900 H   0  0  0  0  0  0  0  0  0  0  0  0
   -5.9240    7.3340  -16.1220 H   0  0  0  0  0  0  0  0  0  0  0  0
   -5.5100    5.6630  -15.7010 H   0  0  0  0  0  0  0  0  0  0  0  0
   -4.4960    6.5170  -16.8820 H   0  0  0  0  0  0  0  0  0  0  0  0
   -4.9340    6.0850  -19.2960 H   0  0  0  0  0  0  0  0  0  0  0  0
   -9.1460    7.3980  -12.6180 H   0  0  0  0  0  0  0  0  0  0  0  0
  1  2  1  0
  2  3  1  0
  3  4  2  0
  4  5  1  0
  5  6  1  0
  6  7  2  0
  6  8  1  0
  8  9  2  0
  9 10  1  0
 10 11  2  0
 11 12  1  0
 12 13  2  0
 13 14  1  0
 14 15  1  0
 14 16  1  0
 16 17  2  0
  4 18  1  0
 18 19  2  0
 19  2  1  0
 13  8  1  0
 17 12  1  0
  1 20  1  0
  1 21  1  0
  1 22  1  0
  3 23  1  0
  9 24  1  0
 10 25  1  0
 11 26  1  0
 15 27  1  0
 15 28  1  0
 15 29  1  0
 16 30  1  0
 18 31  1  0
A    1
 C1 
A    2
 N1 
A    3
 C2 
A    4
 C3 
A    5
 O1 
A    6
 C4 
A    7
 O2 
A    8
 C5 
A    9
 C6 
A   10
 C7 
A   11
 C8 
A   12
 C9 
A   13
 C10
A   14
 N2 
A   15
 C11
A   16
 C12
A   17
 N3 
A   18
 C13
A   19
 N4 
A   20
 H1 
A   21
 H2 
A   22
 H3 
A   23
 H4 
A   24
 H5 
A   25
 H6 
A   26
 H7 
A   27
 H8 
A   28
 H9 
A   29
 H10
A   30
 H11
A   31
 H12
M  END
>  <ref_pdb>  (41) 
x0051_0B

>  <ref_mols>  (41) 
x1098_0B,x0490_0B

>  <original SMILES>  (41) 
[H]c1nn(C([H])([H])[H])c([H])c1OC(=O)c1c([H])c([H])c([H])c2nc([H])n(C([H])([H])[H])c12

>  <index>  (41) 
2086

>  <∆∆G>  (41) 
-5.765448

>  <∆G_bound>  (41) 
-4.797179

>  <∆G_unbound>  (41) 
0.968268

>  <comRMSD>  (41) 
0.508536

>  <N_constrained_atoms>  (41) 
20.0

>  <N_unconstrained_atoms>  (41) 
0.0

>  <runtime>  (41) 
51.808263

>  <LE>  (41) 
0.288272

>  <percent_hybrid>  (41) 
17.0

>  <dist>  (41) 
4.0

>  <ecfp4>  (41) 
0.319444

>  <daylight>  (41) 
0.2125

>  <topodist>  (41) 
1.0

>  <mces>  (41) 
21.0

>  <tdn>  (41) 
1.0

>  <tup>  (41) 
0.0

>  <rdn>  (41) 
0.0

>  <rup>  (41) 
0.0

>  <ldn>  (41) 
0.0

>  <lup>  (41) 
0.0

>  <mut>  (41) 
1.0

>  <maj>  (41) 
1.0

>  <min>  (41) 
0.0

>  <hyb>  (41) 
2.0

>  <sub>  (41) 
1.0

>  <query_index>  (41) 
69.0

>  <max_hit_Tanimoto>  (41) 
0.316411

>  <largest_ring>  (41) 
6

>  <N_interactions_kept>  (41) 
3.0

>  <N_interactions_lost>  (41) 
3.0

>  <interaction_uniqueness_metric>  (41) 
0.172803

>  <ad_hoc_penalty>  (41) 
-10.218641

>  <N_rotatable_bonds>  (41) 
4

>  <N_HA>  (41) 
19

>  <cluster>  (41) 
4305

>  <N_interactions>  (41) 
6

>  <Enamine>  (41) 
1

>  <Mcule>  (41) 
0

>  <N_PAINS>  (41) 
0

>  <UFF_Gibbs>  (41) 
54.153205

>  <strain_per_HA>  (41) 
2.850169

>  <intxn_scored>  (41) 
12.0

>  <saltbridge:HIS:51>  (41) 
1

>  <pistack:HIS:51>  (41) 
1

>  <hydroph_interaction:HIS:51>  (41) 
0

>  <hbond:ALA:132>  (41) 
0

>  <hbond:SER:135>  (41) 
0

>  <hydroph_interaction:TYR:150>  (41) 
1

>  <pistack:TYR:161>  (41) 
2

>  <hydroph_interaction:TYR:161>  (41) 
0

>  <hydroph_interaction:ASP:83>  (41) 
0

>  <hbond:TYR:130>  (41) 
0

>  <hydroph_interaction:ALA:132>  (41) 
1

>  <hbond:HIS:51>  (41) 
0

>  <hbond:ASP:129>  (41) 
0

>  <hbond:TYR:150>  (41) 
0

>  <hbond:GLY:151>  (41) 
0

>  <hbond:TYR:161>  (41) 
0

>  <hydroph_interaction:TYR:130>  (41) 
0

>  <hydroph_interaction:PRO:131>  (41) 
0

>  <hydroph_interaction:ASP:129>  (41) 
0

>  <saltbridge:ASP:75>  (41) 
0

>  <saltbridge:ASP:83>  (41) 
0

>  <hbond:ASN:152>  (41) 
0

>  <hydroph_interaction:ASN:152>  (41) 
0

>  <halogenbond:TYR:150>  (41) 
0

>  <hbond:ASP:83>  (41) 
0

>  <hydroph_interaction:VAL:155>  (41) 
0

>  <pication:TYR:161>  (41) 
0

>  <hbond:PRO:131>  (41) 
0

>  <saltbridge:ASP:129>  (41) 
0

>  <hbond:THR:134>  (41) 
0

>  <pication:HIS:51>  (41) 
0

>  <hbond:SER:81>  (41) 
0

>  <hydroph_interaction:THR:134>  (41) 
0

>  <hydroph_interaction:MET:49>  (41) 
0

$$$$
Z4081801489
     RDKit          3D

 45 48  0  0  0  0  0  0  0  0999 V2000
   -9.1860    8.1350  -13.4820 C   0  0  0  0  0  0  0  0  0  0  0  0
   -9.0880    7.1630  -12.3180 C   0  0  0  0  0  0  0  0  0  0  0  0
   -8.9400    7.7810  -10.9470 C   0  0  0  0  0  0  0  0  0  0  0  0
   -8.8450    6.7870   -9.7680 C   0  0  0  0  0  0  0  0  0  0  0  0
   -8.9110    5.3050  -10.1130 C   0  0  0  0  0  0  0  0  0  0  0  0
   -8.8320    4.3850   -8.9750 N   0  0  0  0  0  0  0  0  0  0  0  0
   -9.0120    2.9630   -9.2530 C   0  0  0  0  0  0  0  0  0  0  0  0
   -9.6220    2.3330   -7.9990 C   0  0  0  0  0  0  0  0  0  0  0  0
   -8.7990    2.5740   -6.8460 O   0  0  0  0  0  0  0  0  0  0  0  0
   -8.7230    3.9830   -6.5870 C   0  0  0  0  0  0  0  0  0  0  0  0
   -8.0590    4.7020   -7.7640 C   0  0  0  0  0  0  0  0  0  0  0  0
   -9.0470    4.9080  -11.4420 C   0  0  0  0  0  0  0  0  0  0  0  0
   -9.1320    5.7970  -12.4990 C   0  0  0  0  0  0  0  0  0  0  0  0
   -9.2470    5.3820  -13.7750 N   0  0  0  0  0  0  0  0  0  0  0  0
   -8.0600    4.7180  -14.1840 C   0  0  0  0  0  0  0  0  0  0  0  0
   -7.4920    5.0430  -15.3690 C   0  0  0  0  0  0  0  0  0  0  0  0
   -8.0900    4.9980  -16.5950 C   0  0  0  0  0  0  0  0  0  0  0  0
   -9.4200    4.6380  -16.8280 C   0  0  0  0  0  0  0  0  0  0  0  0
   -9.7620    4.6440  -18.1880 C   0  0  0  0  0  0  0  0  0  0  0  0
   -8.8530    4.9880  -19.2150 C   0  0  0  0  0  0  0  0  0  0  0  0
   -7.5180    5.3680  -18.9760 C   0  0  0  0  0  0  0  0  0  0  0  0
   -7.1250    5.3750  -17.6250 C   0  0  0  0  0  0  0  0  0  0  0  0
   -5.9160    5.6990  -17.1410 N   0  0  0  0  0  0  0  0  0  0  0  0
   -5.8800    5.5530  -15.5070 S   0  0  0  0  0  0  0  0  0  0  0  0
   -8.2450    8.1620  -14.0400 H   0  0  0  0  0  0  0  0  0  0  0  0
  -10.0030    7.8450  -14.1510 H   0  0  0  0  0  0  0  0  0  0  0  0
   -9.3930    9.1420  -13.1100 H   0  0  0  0  0  0  0  0  0  0  0  0
   -8.9020    8.8550  -10.7840 H   0  0  0  0  0  0  0  0  0  0  0  0
   -8.7380    7.1380   -8.7440 H   0  0  0  0  0  0  0  0  0  0  0  0
   -9.7000    2.8330  -10.1000 H   0  0  0  0  0  0  0  0  0  0  0  0
   -8.0690    2.4520   -9.4830 H   0  0  0  0  0  0  0  0  0  0  0  0
  -10.6080    2.7650   -7.8000 H   0  0  0  0  0  0  0  0  0  0  0  0
   -9.7570    1.2600   -8.1220 H   0  0  0  0  0  0  0  0  0  0  0  0
   -8.1730    4.1450   -5.6530 H   0  0  0  0  0  0  0  0  0  0  0  0
   -9.7460    4.3500   -6.4470 H   0  0  0  0  0  0  0  0  0  0  0  0
   -7.0300    4.3360   -7.8640 H   0  0  0  0  0  0  0  0  0  0  0  0
   -8.0520    5.7800   -7.5690 H   0  0  0  0  0  0  0  0  0  0  0  0
   -9.0880    3.8480  -11.6530 H   0  0  0  0  0  0  0  0  0  0  0  0
   -9.4820    6.1480  -14.3950 H   0  0  0  0  0  0  0  0  0  0  0  0
   -8.2030    3.6480  -14.0810 H   0  0  0  0  0  0  0  0  0  0  0  0
   -7.3170    4.9390  -13.4220 H   0  0  0  0  0  0  0  0  0  0  0  0
  -10.1420    4.3740  -16.0740 H   0  0  0  0  0  0  0  0  0  0  0  0
  -10.7790    4.3740  -18.4690 H   0  0  0  0  0  0  0  0  0  0  0  0
   -9.2090    4.9620  -20.2470 H   0  0  0  0  0  0  0  0  0  0  0  0
   -6.8360    5.6350  -19.7740 H   0  0  0  0  0  0  0  0  0  0  0  0
  1  2  1  0
  2  3  2  0
  3  4  1  0
  4  5  2  0
  5  6  1  0
  6  7  1  0
  7  8  1  0
  8  9  1  0
  9 10  1  0
 10 11  1  0
  5 12  1  0
 12 13  2  0
 13 14  1  0
 14 15  1  0
 15 16  1  0
 16 17  2  0
 17 18  1  0
 18 19  2  0
 19 20  1  0
 20 21  2  0
 21 22  1  0
 22 23  2  0
 23 24  1  0
 13  2  1  0
 11  6  1  0
 24 16  1  0
 22 17  1  0
  1 25  1  0
  1 26  1  0
  1 27  1  0
  3 28  1  0
  4 29  1  0
  7 30  1  0
  7 31  1  0
  8 32  1  0
  8 33  1  0
 10 34  1  0
 10 35  1  0
 11 36  1  0
 11 37  1  0
 12 38  1  0
 14 39  1  0
 15 40  1  0
 15 41  1  0
 18 42  1  0
 19 43  1  0
 20 44  1  0
 21 45  1  0
A    1
 C1 
A    2
 C2 
A    3
 C3 
A    4
 C4 
A    5
 C5 
A    6
 N1 
A    7
 C6 
A    8
 C7 
A    9
 O1 
A   10
 C8 
A   11
 C9 
A   12
 C10
A   13
 C11
A   14
 N2 
A   15
 C12
A   16
 C13
A   17
 C14
A   18
 C15
A   19
 C16
A   20
 C17
A   21
 C18
A   22
 C19
A   23
 N3 
A   24
 S1 
A   25
 H1 
A   26
 H2 
A   27
 H3 
A   28
 H4 
A   29
 H5 
A   30
 H6 
A   31
 H7 
A   32
 H8 
A   33
 H9 
A   34
 H10
A   35
 H11
A   36
 H12
A   37
 H13
A   38
 H14
A   39
 H15
A   40
 H16
A   41
 H17
A   42
 H18
A   43
 H19
A   44
 H20
A   45
 H21
M  END
>  <ref_pdb>  (42) 
x0051_0B

>  <ref_mols>  (42) 
x0404_0B,x0951_0B

>  <original SMILES>  (42) 
[H]c1c([H])c(C([H])([H])[H])c(N([H])C([H])([H])c2snc3c([H])c([H])c([H])c([H])c23)c([H])c1N1C([H])([H])C([H])([H])OC([H])([H])C1([H])[H]

>  <index>  (42) 
1386

>  <∆∆G>  (42) 
-8.009116

>  <∆G_bound>  (42) 
-7.973088

>  <∆G_unbound>  (42) 
0.036028

>  <comRMSD>  (42) 
0.737679

>  <N_constrained_atoms>  (42) 
27.0

>  <N_unconstrained_atoms>  (42) 
1.0

>  <runtime>  (42) 
44.243557

>  <LE>  (42) 
0.28604

>  <percent_hybrid>  (42) 
43.0

>  <dist>  (42) 
5.0

>  <ecfp4>  (42) 
0.28

>  <daylight>  (42) 
0.210938

>  <topodist>  (42) 
1.0

>  <mces>  (42) 
26.0

>  <tdn>  (42) 
0.0

>  <tup>  (42) 
0.0

>  <rdn>  (42) 
0.0

>  <rup>  (42) 
0.0

>  <ldn>  (42) 
0.0

>  <lup>  (42) 
1.0

>  <mut>  (42) 
4.0

>  <maj>  (42) 
4.0

>  <min>  (42) 
0.0

>  <hyb>  (42) 
0.0

>  <sub>  (42) 
0.0

>  <query_index>  (42) 
58.0

>  <max_hit_Tanimoto>  (42) 
0.214286

>  <largest_ring>  (42) 
6

>  <N_interactions_kept>  (42) 
1.0

>  <N_interactions_lost>  (42) 
3.0

>  <interaction_uniqueness_metric>  (42) 
0.173507

>  <ad_hoc_penalty>  (42) 
-12.728446

>  <N_rotatable_bonds>  (42) 
5

>  <N_HA>  (42) 
24

>  <cluster>  (42) 
4947

>  <N_interactions>  (42) 
6

>  <Enamine>  (42) 
1

>  <Mcule>  (42) 
0

>  <N_PAINS>  (42) 
0

>  <UFF_Gibbs>  (42) 
117.199894

>  <strain_per_HA>  (42) 
4.883329

>  <intxn_scored>  (42) 
12.0

>  <saltbridge:HIS:51>  (42) 
0

>  <pistack:HIS:51>  (42) 
1

>  <hydroph_interaction:HIS:51>  (42) 
1

>  <hbond:ALA:132>  (42) 
0

>  <hbond:SER:135>  (42) 
0

>  <hydroph_interaction:TYR:150>  (42) 
1

>  <pistack:TYR:161>  (42) 
2

>  <hydroph_interaction:TYR:161>  (42) 
0

>  <hydroph_interaction:ASP:83>  (42) 
0

>  <hbond:TYR:130>  (42) 
0

>  <hydroph_interaction:ALA:132>  (42) 
0

>  <hbond:HIS:51>  (42) 
1

>  <hbond:ASP:129>  (42) 
0

>  <hbond:TYR:150>  (42) 
0

>  <hbond:GLY:151>  (42) 
0

>  <hbond:TYR:161>  (42) 
0

>  <hydroph_interaction:TYR:130>  (42) 
0

>  <hydroph_interaction:PRO:131>  (42) 
0

>  <hydroph_interaction:ASP:129>  (42) 
0

>  <saltbridge:ASP:75>  (42) 
0

>  <saltbridge:ASP:83>  (42) 
0

>  <hbond:ASN:152>  (42) 
0

>  <hydroph_interaction:ASN:152>  (42) 
0

>  <halogenbond:TYR:150>  (42) 
0

>  <hbond:ASP:83>  (42) 
0

>  <hydroph_interaction:VAL:155>  (42) 
0

>  <pication:TYR:161>  (42) 
0

>  <hbond:PRO:131>  (42) 
0

>  <saltbridge:ASP:129>  (42) 
0

>  <hbond:THR:134>  (42) 
0

>  <pication:HIS:51>  (42) 
0

>  <hbond:SER:81>  (42) 
0

>  <hydroph_interaction:THR:134>  (42) 
0

>  <hydroph_interaction:MET:49>  (42) 
0

$$$$
CSSB00015185378
     RDKit          3D

 26 27  0  0  0  0  0  0  0  0999 V2000
   -7.1300    5.7960  -15.1160 C   0  0  0  0  0  0  0  0  0  0  0  0
   -7.9290    5.4340  -16.3720 C   0  0  0  0  0  0  0  0  0  0  0  0
   -7.1870    5.4140  -17.6590 C   0  0  0  0  0  0  0  0  0  0  0  0
   -5.7730    5.7020  -17.8640 N   0  0  0  0  0  0  0  0  0  0  0  0
   -5.6220    5.5210  -19.3070 C   0  0  0  0  0  0  0  0  0  0  0  0
   -4.3490    5.7220  -19.8540 C   0  0  0  0  0  0  0  0  0  0  0  0
   -3.2500    5.3310  -18.9120 C   0  0  0  0  0  0  0  0  0  0  0  0
   -2.1900    4.6250  -19.6400 N   0  0  0  0  0  0  0  0  0  0  0  0
   -6.7640    5.1780  -19.8880 N   0  0  0  0  0  0  0  0  0  0  0  0
   -7.7240    5.1150  -18.8860 C   0  0  0  0  0  0  0  0  0  0  0  0
   -9.2010    4.7800  -18.9290 C   0  0  0  0  0  0  0  0  0  0  0  0
   -9.9170    4.7950  -17.7250 C   0  0  0  0  0  0  0  0  0  0  0  0
   -9.2920    5.1090  -16.5020 C   0  0  0  0  0  0  0  0  0  0  0  0
   -7.7470    6.3310  -14.3830 H   0  0  0  0  0  0  0  0  0  0  0  0
   -6.2850    6.4500  -15.3620 H   0  0  0  0  0  0  0  0  0  0  0  0
   -6.7660    4.8740  -14.6470 H   0  0  0  0  0  0  0  0  0  0  0  0
   -5.0760    5.9600  -17.1840 H   0  0  0  0  0  0  0  0  0  0  0  0
   -4.2880    5.0340  -20.7080 H   0  0  0  0  0  0  0  0  0  0  0  0
   -4.2690    6.6980  -20.3260 H   0  0  0  0  0  0  0  0  0  0  0  0
   -2.8040    6.2440  -18.5010 H   0  0  0  0  0  0  0  0  0  0  0  0
   -3.5080    4.7210  -18.0470 H   0  0  0  0  0  0  0  0  0  0  0  0
   -1.4220    5.2710  -19.8260 H   0  0  0  0  0  0  0  0  0  0  0  0
   -2.5460    4.3490  -20.5570 H   0  0  0  0  0  0  0  0  0  0  0  0
   -9.6690    4.5390  -19.8740 H   0  0  0  0  0  0  0  0  0  0  0  0
  -10.9730    4.5590  -17.7440 H   0  0  0  0  0  0  0  0  0  0  0  0
   -9.9930    5.0730  -15.6590 H   0  0  0  0  0  0  0  0  0  0  0  0
  1  2  1  0
  2  3  2  0
  3  4  1  0
  4  5  1  0
  5  6  1  0
  6  7  1  0
  7  8  1  0
  5  9  2  0
  9 10  1  0
 10 11  2  0
 11 12  1  0
 12 13  2  0
 13  2  1  0
 10  3  1  0
  1 14  1  0
  1 15  1  0
  1 16  1  0
  4 17  1  0
  6 18  1  0
  6 19  1  0
  7 20  1  0
  7 21  1  0
  8 22  1  0
  8 23  1  0
 11 24  1  0
 12 25  1  0
 13 26  1  0
A    1
 C1 
A    2
 C2 
A    3
 C3 
A    4
 N1 
A    5
 C4 
A    6
 C5 
A    7
 C6 
A    8
 N2 
A    9
 N3 
A   10
 C7 
A   11
 C8 
A   12
 C9 
A   13
 C10
A   14
 H1 
A   15
 H2 
A   16
 H3 
A   17
 H4 
A   18
 H5 
A   19
 H6 
A   20
 H7 
A   21
 H8 
A   22
 H9 
A   23
 H10
A   24
 H11
A   25
 H12
A   26
 H13
M  END
>  <ref_pdb>  (43) 
x0051_0B

>  <ref_mols>  (43) 
x0089_0B,x0693_0B

>  <original SMILES>  (43) 
[H]c1c([H])c(C([H])([H])[H])c2c(nc(C([H])([H])C([H])([H])N([H])[H])n2[H])c1[H]

>  <index>  (43) 
2232

>  <∆∆G>  (43) 
-6.12189

>  <∆G_bound>  (43) 
-6.102996

>  <∆G_unbound>  (43) 
0.018895

>  <comRMSD>  (43) 
0.676878

>  <N_constrained_atoms>  (43) 
15.0

>  <N_unconstrained_atoms>  (43) 
0.0

>  <runtime>  (43) 
21.435287

>  <LE>  (43) 
0.408126

>  <percent_hybrid>  (43) 
29.0

>  <dist>  (43) 
5.0

>  <ecfp4>  (43) 
0.254237

>  <daylight>  (43) 
0.387097

>  <topodist>  (43) 
4.0

>  <mces>  (43) 
14.0

>  <tdn>  (43) 
3.0

>  <tup>  (43) 
0.0

>  <rdn>  (43) 
0.0

>  <rup>  (43) 
0.0

>  <ldn>  (43) 
1.0

>  <lup>  (43) 
0.0

>  <mut>  (43) 
1.0

>  <maj>  (43) 
1.0

>  <min>  (43) 
0.0

>  <hyb>  (43) 
0.0

>  <sub>  (43) 
2.0

>  <query_index>  (43) 
207.0

>  <max_hit_Tanimoto>  (43) 
0.336

>  <largest_ring>  (43) 
6

>  <N_interactions_kept>  (43) 
2.0

>  <N_interactions_lost>  (43) 
3.0

>  <interaction_uniqueness_metric>  (43) 
0.089746

>  <ad_hoc_penalty>  (43) 
-6.141657

>  <N_rotatable_bonds>  (43) 
4

>  <N_HA>  (43) 
13

>  <cluster>  (43) 
4166

>  <N_interactions>  (43) 
6

>  <Enamine>  (43) 
1

>  <Mcule>  (43) 
0

>  <N_PAINS>  (43) 
0

>  <UFF_Gibbs>  (43) 
69.614059

>  <strain_per_HA>  (43) 
5.354928

>  <intxn_scored>  (43) 
12.0

>  <saltbridge:HIS:51>  (43) 
0

>  <pistack:HIS:51>  (43) 
0

>  <hydroph_interaction:HIS:51>  (43) 
0

>  <hbond:ALA:132>  (43) 
0

>  <hbond:SER:135>  (43) 
0

>  <hydroph_interaction:TYR:150>  (43) 
1

>  <pistack:TYR:161>  (43) 
2

>  <hydroph_interaction:TYR:161>  (43) 
1

>  <hydroph_interaction:ASP:83>  (43) 
0

>  <hbond:TYR:130>  (43) 
1

>  <hydroph_interaction:ALA:132>  (43) 
1

>  <hbond:HIS:51>  (43) 
0

>  <hbond:ASP:129>  (43) 
0

>  <hbond:TYR:150>  (43) 
0

>  <hbond:GLY:151>  (43) 
0

>  <hbond:TYR:161>  (43) 
0

>  <hydroph_interaction:TYR:130>  (43) 
0

>  <hydroph_interaction:PRO:131>  (43) 
0

>  <hydroph_interaction:ASP:129>  (43) 
0

>  <saltbridge:ASP:75>  (43) 
0

>  <saltbridge:ASP:83>  (43) 
0

>  <hbond:ASN:152>  (43) 
0

>  <hydroph_interaction:ASN:152>  (43) 
0

>  <halogenbond:TYR:150>  (43) 
0

>  <hbond:ASP:83>  (43) 
0

>  <hydroph_interaction:VAL:155>  (43) 
0

>  <pication:TYR:161>  (43) 
0

>  <hbond:PRO:131>  (43) 
0

>  <saltbridge:ASP:129>  (43) 
0

>  <hbond:THR:134>  (43) 
0

>  <pication:HIS:51>  (43) 
0

>  <hbond:SER:81>  (43) 
0

>  <hydroph_interaction:THR:134>  (43) 
0

>  <hydroph_interaction:MET:49>  (43) 
0

$$$$
CSSS00011216843
     RDKit          3D

 22 23  0  0  0  0  0  0  0  0999 V2000
   -8.2590    4.3540  -20.7690 O   0  0  0  0  0  0  0  0  0  0  0  0
   -9.2550    4.6870  -19.8130 C   0  0  0  0  0  0  0  0  0  0  0  0
   -8.7430    4.9240  -18.4710 C   0  0  0  0  0  0  0  0  0  0  0  0
   -9.8330    4.8330  -17.4400 C   0  0  0  0  0  0  0  0  0  0  0  0
   -9.4070    5.0570  -15.9930 C   0  0  0  0  0  0  0  0  0  0  0  0
   -7.9190    5.3430  -15.7360 C   0  0  0  0  0  0  0  0  0  0  0  0
   -7.0580    5.3840  -16.8480 C   0  0  0  0  0  0  0  0  0  0  0  0
   -5.6180    5.6650  -16.5240 C   0  0  0  0  0  0  0  0  0  0  0  0
   -4.7100    5.7180  -17.5730 C   0  0  0  0  0  0  0  0  0  0  0  0
   -5.1410    5.5170  -18.8960 C   0  0  0  0  0  0  0  0  0  0  0  0
   -6.4820    5.2560  -19.1870 C   0  0  0  0  0  0  0  0  0  0  0  0
   -7.4430    5.1850  -18.1820 C   0  0  0  0  0  0  0  0  0  0  0  0
   -8.6090    3.5680  -21.2000 H   0  0  0  0  0  0  0  0  0  0  0  0
   -9.9180    5.4820  -20.1750 H   0  0  0  0  0  0  0  0  0  0  0  0
   -9.8070    3.7970  -19.6730 H   0  0  0  0  0  0  0  0  0  0  0  0
  -10.8610    4.6230  -17.7210 H   0  0  0  0  0  0  0  0  0  0  0  0
  -10.1280    5.0130  -15.1790 H   0  0  0  0  0  0  0  0  0  0  0  0
   -7.5580    5.5050  -14.7230 H   0  0  0  0  0  0  0  0  0  0  0  0
   -5.2970    5.8190  -15.5000 H   0  0  0  0  0  0  0  0  0  0  0  0
   -3.6630    5.9170  -17.3590 H   0  0  0  0  0  0  0  0  0  0  0  0
   -4.4220    5.5620  -19.7080 H   0  0  0  0  0  0  0  0  0  0  0  0
   -6.7410    5.1090  -20.2320 H   0  0  0  0  0  0  0  0  0  0  0  0
  1  2  1  0
  2  3  1  0
  3  4  2  0
  4  5  1  0
  5  6  2  0
  6  7  1  0
  7  8  2  0
  8  9  1  0
  9 10  2  0
 10 11  1  0
 11 12  2  0
 12  3  1  0
 12  7  1  0
  1 13  1  0
  2 14  1  0
  2 15  1  0
  4 16  1  0
  5 17  1  0
  6 18  1  0
  8 19  1  0
  9 20  1  0
 10 21  1  0
 11 22  1  0
A    1
 O1 
A    2
 C1 
A    3
 C2 
A    4
 C3 
A    5
 C4 
A    6
 C5 
A    7
 C6 
A    8
 C7 
A    9
 C8 
A   10
 C9 
A   11
 C10
A   12
 C11
A   13
 H1 
A   14
 H2 
A   15
 H3 
A   16
 H4 
A   17
 H5 
A   18
 H6 
A   19
 H7 
A   20
 H8 
A   21
 H9 
A   22
 H10
M  END
>  <ref_pdb>  (44) 
x0051_0B

>  <ref_mols>  (44) 
x0727_0B,x0800_0B

>  <original SMILES>  (44) 
[H]OC([H])([H])c1c([H])c([H])c([H])c2c([H])c([H])c([H])c([H])c12

>  <index>  (44) 
2247

>  <∆∆G>  (44) 
-5.836214

>  <∆G_bound>  (44) 
-5.826313

>  <∆G_unbound>  (44) 
0.009901

>  <comRMSD>  (44) 
0.992096

>  <N_constrained_atoms>  (44) 
15.0

>  <N_unconstrained_atoms>  (44) 
1.0

>  <runtime>  (44) 
26.672093

>  <LE>  (44) 
0.364763

>  <percent_hybrid>  (44) 
45.0

>  <dist>  (44) 
3.0

>  <ecfp4>  (44) 
0.314286

>  <daylight>  (44) 
0.222222

>  <topodist>  (44) 
1.0

>  <mces>  (44) 
13.0

>  <tdn>  (44) 
1.0

>  <tup>  (44) 
0.0

>  <rdn>  (44) 
0.0

>  <rup>  (44) 
0.0

>  <ldn>  (44) 
0.0

>  <lup>  (44) 
0.0

>  <mut>  (44) 
2.0

>  <maj>  (44) 
2.0

>  <min>  (44) 
0.0

>  <hyb>  (44) 
0.0

>  <sub>  (44) 
1.0

>  <query_index>  (44) 
67.0

>  <max_hit_Tanimoto>  (44) 
0.173669

>  <largest_ring>  (44) 
6

>  <N_interactions_kept>  (44) 
1.0

>  <N_interactions_lost>  (44) 
3.0

>  <interaction_uniqueness_metric>  (44) 
0.132831

>  <ad_hoc_penalty>  (44) 
-3.368131

>  <N_rotatable_bonds>  (44) 
2

>  <N_HA>  (44) 
12

>  <cluster>  (44) 
4154

>  <N_interactions>  (44) 
5

>  <Enamine>  (44) 
1

>  <Mcule>  (44) 
0

>  <N_PAINS>  (44) 
0

>  <UFF_Gibbs>  (44) 
101.649579

>  <strain_per_HA>  (44) 
8.470798

>  <intxn_scored>  (44) 
12.0

>  <saltbridge:HIS:51>  (44) 
0

>  <pistack:HIS:51>  (44) 
0

>  <hydroph_interaction:HIS:51>  (44) 
0

>  <hbond:ALA:132>  (44) 
0

>  <hbond:SER:135>  (44) 
0

>  <hydroph_interaction:TYR:150>  (44) 
0

>  <pistack:TYR:161>  (44) 
2

>  <hydroph_interaction:TYR:161>  (44) 
1

>  <hydroph_interaction:ASP:83>  (44) 
0

>  <hbond:TYR:130>  (44) 
1

>  <hydroph_interaction:ALA:132>  (44) 
0

>  <hbond:HIS:51>  (44) 
0

>  <hbond:ASP:129>  (44) 
0

>  <hbond:TYR:150>  (44) 
1

>  <hbond:GLY:151>  (44) 
0

>  <hbond:TYR:161>  (44) 
0

>  <hydroph_interaction:TYR:130>  (44) 
0

>  <hydroph_interaction:PRO:131>  (44) 
0

>  <hydroph_interaction:ASP:129>  (44) 
0

>  <saltbridge:ASP:75>  (44) 
0

>  <saltbridge:ASP:83>  (44) 
0

>  <hbond:ASN:152>  (44) 
0

>  <hydroph_interaction:ASN:152>  (44) 
0

>  <halogenbond:TYR:150>  (44) 
0

>  <hbond:ASP:83>  (44) 
0

>  <hydroph_interaction:VAL:155>  (44) 
0

>  <pication:TYR:161>  (44) 
0

>  <hbond:PRO:131>  (44) 
0

>  <saltbridge:ASP:129>  (44) 
0

>  <hbond:THR:134>  (44) 
0

>  <pication:HIS:51>  (44) 
0

>  <hbond:SER:81>  (44) 
0

>  <hydroph_interaction:THR:134>  (44) 
0

>  <hydroph_interaction:MET:49>  (44) 
0

$$$$
CSSS00121650439
     RDKit          3D

 45 47  0  0  0  0  0  0  0  0999 V2000
   -9.0380    3.4660   -8.9280 C   0  0  0  0  0  0  0  0  0  0  0  0
   -8.9280    4.4690  -10.0620 C   0  0  0  0  0  0  0  0  0  0  0  0
   -8.9320    5.9180   -9.7510 C   0  0  0  0  0  0  0  0  0  0  0  0
   -8.8460    6.8250  -10.7570 C   0  0  0  0  0  0  0  0  0  0  0  0
   -8.7520    6.4460  -12.0410 N   0  0  0  0  0  0  0  0  0  0  0  0
   -8.7390    5.1260  -12.3480 C   0  0  0  0  0  0  0  0  0  0  0  0
   -8.6260    4.7900  -13.6790 N   0  0  0  0  0  0  0  0  0  0  0  0
   -8.2040    5.7010  -14.5460 C   0  0  0  0  0  0  0  0  0  0  0  0
   -7.6170    6.7450  -14.3150 O   0  0  0  0  0  0  0  0  0  0  0  0
   -8.4780    5.4330  -15.9220 C   0  0  0  0  0  0  0  0  0  0  0  0
   -9.7090    4.9480  -16.3100 C   0  0  0  0  0  0  0  0  0  0  0  0
   -9.9500    4.6970  -17.6340 C   0  0  0  0  0  0  0  0  0  0  0  0
   -8.9470    4.9370  -18.5320 C   0  0  0  0  0  0  0  0  0  0  0  0
   -9.3300    4.5850  -20.1270 Cl  0  0  0  0  0  0  0  0  0  0  0  0
   -7.7110    5.4360  -18.1630 C   0  0  0  0  0  0  0  0  0  0  0  0
   -6.7450    5.6840  -19.1390 N   0  0  0  0  0  0  0  0  0  0  0  0
   -6.4750    4.9960  -20.2760 C   0  0  0  0  0  0  0  0  0  0  0  0
   -7.1870    4.2270  -20.9020 O   0  0  0  0  0  0  0  0  0  0  0  0
   -5.1160    5.2590  -20.7630 C   0  0  0  0  0  0  0  0  0  0  0  0
   -4.9440    5.4860  -22.2500 C   0  0  0  0  0  0  0  0  0  0  0  0
   -3.6650    5.7220  -22.7460 C   0  0  0  0  0  0  0  0  0  0  0  0
   -2.5710    5.7470  -21.8710 C   0  0  0  0  0  0  0  0  0  0  0  0
   -2.7340    5.5450  -20.4970 C   0  0  0  0  0  0  0  0  0  0  0  0
   -3.9900    5.3060  -19.9380 C   0  0  0  0  0  0  0  0  0  0  0  0
   -4.0800    5.0980  -18.4520 C   0  0  0  0  0  0  0  0  0  0  0  0
   -7.4720    5.6830  -16.8360 C   0  0  0  0  0  0  0  0  0  0  0  0
   -8.8250    4.1050  -11.4040 C   0  0  0  0  0  0  0  0  0  0  0  0
  -10.0610    3.4380   -8.5520 H   0  0  0  0  0  0  0  0  0  0  0  0
   -8.3730    3.7460   -8.1090 H   0  0  0  0  0  0  0  0  0  0  0  0
   -8.7700    2.4710   -9.2900 H   0  0  0  0  0  0  0  0  0  0  0  0
   -9.0100    6.1760   -8.6880 H   0  0  0  0  0  0  0  0  0  0  0  0
   -8.8490    7.9030  -10.5640 H   0  0  0  0  0  0  0  0  0  0  0  0
   -9.1510    3.9890  -14.0340 H   0  0  0  0  0  0  0  0  0  0  0  0
  -10.4840    4.7640  -15.5700 H   0  0  0  0  0  0  0  0  0  0  0  0
  -10.9070    4.3180  -17.9680 H   0  0  0  0  0  0  0  0  0  0  0  0
   -6.0860    6.4190  -18.8940 H   0  0  0  0  0  0  0  0  0  0  0  0
   -5.8090    5.4610  -22.9100 H   0  0  0  0  0  0  0  0  0  0  0  0
   -3.5150    5.8830  -23.8110 H   0  0  0  0  0  0  0  0  0  0  0  0
   -1.5760    5.9290  -22.2690 H   0  0  0  0  0  0  0  0  0  0  0  0
   -1.8520    5.5770  -19.8570 H   0  0  0  0  0  0  0  0  0  0  0  0
   -5.0700    4.7350  -18.1570 H   0  0  0  0  0  0  0  0  0  0  0  0
   -3.3130    4.3880  -18.1220 H   0  0  0  0  0  0  0  0  0  0  0  0
   -3.9210    6.0440  -17.9190 H   0  0  0  0  0  0  0  0  0  0  0  0
   -6.5220    6.0700  -16.4780 H   0  0  0  0  0  0  0  0  0  0  0  0
   -8.8140    3.0580  -11.6940 H   0  0  0  0  0  0  0  0  0  0  0  0
  1  2  1  0
  2  3  2  0
  3  4  1  0
  4  5  2  0
  5  6  1  0
  6  7  1  0
  7  8  1  0
  8  9  2  0
  8 10  1  0
 10 11  2  0
 11 12  1  0
 12 13  2  0
 13 14  1  0
 13 15  1  0
 15 16  1  0
 16 17  1  0
 17 18  2  0
 17 19  1  0
 19 20  2  0
 20 21  1  0
 21 22  2  0
 22 23  1  0
 23 24  2  0
 24 25  1  0
 15 26  2  0
  6 27  2  0
 27  2  1  0
 26 10  1  0
 24 19  1  0
  1 28  1  0
  1 29  1  0
  1 30  1  0
  3 31  1  0
  4 32  1  0
  7 33  1  0
 11 34  1  0
 12 35  1  0
 16 36  1  0
 20 37  1  0
 21 38  1  0
 22 39  1  0
 23 40  1  0
 25 41  1  0
 25 42  1  0
 25 43  1  0
 26 44  1  0
 27 45  1  0
A    1
 C1 
A    2
 C2 
A    3
 C3 
A    4
 C4 
A    5
 N1 
A    6
 C5 
A    7
 N2 
A    8
 C6 
A    9
 O1 
A   10
 C7 
A   11
 C8 
A   12
 C9 
A   13
 C10
A   14
CL1 
A   15
 C11
A   16
 N3 
A   17
 C12
A   18
 O2 
A   19
 C13
A   20
 C14
A   21
 C15
A   22
 C16
A   23
 C17
A   24
 C18
A   25
 C19
A   26
 C20
A   27
 C21
A   28
 H1 
A   29
 H2 
A   30
 H3 
A   31
 H4 
A   32
 H5 
A   33
 H6 
A   34
 H7 
A   35
 H8 
A   36
 H9 
A   37
 H10
A   38
 H11
A   39
 H12
A   40
 H13
A   41
 H14
A   42
 H15
A   43
 H16
A   44
 H17
A   45
 H18
M  END
>  <ref_pdb>  (45) 
x0051_0B

>  <ref_mols>  (45) 
x0852_0B,x1098_0B

>  <original SMILES>  (45) 
[H]c1nc(N([H])C(=O)c2c([H])c([H])c(Cl)c(N([H])C(=O)c3c([H])c([H])c([H])c([H])c3C([H])([H])[H])c2[H])c([H])c(C([H])([H])[H])c1[H]

>  <index>  (45) 
2417

>  <∆∆G>  (45) 
-7.888465

>  <∆G_bound>  (45) 
-7.415407

>  <∆G_unbound>  (45) 
0.473058

>  <comRMSD>  (45) 
0.668472

>  <N_constrained_atoms>  (45) 
29.0

>  <N_unconstrained_atoms>  (45) 
1.0

>  <runtime>  (45) 
80.642396

>  <LE>  (45) 
0.262949

>  <percent_hybrid>  (45) 
50.0

>  <dist>  (45) 
8.0

>  <ecfp4>  (45) 
0.166667

>  <daylight>  (45) 
0.438914

>  <topodist>  (45) 
3.0

>  <mces>  (45) 
28.0

>  <tdn>  (45) 
2.0

>  <tup>  (45) 
0.0

>  <rdn>  (45) 
0.0

>  <rup>  (45) 
0.0

>  <ldn>  (45) 
0.0

>  <lup>  (45) 
1.0

>  <mut>  (45) 
5.0

>  <maj>  (45) 
5.0

>  <min>  (45) 
0.0

>  <hyb>  (45) 
0.0

>  <sub>  (45) 
2.0

>  <query_index>  (45) 
73.0

>  <max_hit_Tanimoto>  (45) 
0.379894

>  <largest_ring>  (45) 
6

>  <N_interactions_kept>  (45) 
3.0

>  <N_interactions_lost>  (45) 
5.5

>  <interaction_uniqueness_metric>  (45) 
0.366925

>  <ad_hoc_penalty>  (45) 
-9.674195

>  <N_rotatable_bonds>  (45) 
6

>  <N_HA>  (45) 
27

>  <cluster>  (45) 
3994

>  <N_interactions>  (45) 
10

>  <Enamine>  (45) 
1

>  <Mcule>  (45) 
0

>  <N_PAINS>  (45) 
0

>  <UFF_Gibbs>  (45) 
108.259071

>  <strain_per_HA>  (45) 
4.009595

>  <intxn_scored>  (45) 
12.0

>  <saltbridge:HIS:51>  (45) 
0

>  <pistack:HIS:51>  (45) 
1

>  <hydroph_interaction:HIS:51>  (45) 
1

>  <hbond:ALA:132>  (45) 
0

>  <hbond:SER:135>  (45) 
0

>  <hydroph_interaction:TYR:150>  (45) 
0

>  <pistack:TYR:161>  (45) 
1

>  <hydroph_interaction:TYR:161>  (45) 
2

>  <hydroph_interaction:ASP:83>  (45) 
0

>  <hbond:TYR:130>  (45) 
1

>  <hydroph_interaction:ALA:132>  (45) 
1

>  <hbond:HIS:51>  (45) 
0

>  <hbond:ASP:129>  (45) 
0

>  <hbond:TYR:150>  (45) 
0

>  <hbond:GLY:151>  (45) 
1

>  <hbond:TYR:161>  (45) 
0

>  <hydroph_interaction:TYR:130>  (45) 
0

>  <hydroph_interaction:PRO:131>  (45) 
0

>  <hydroph_interaction:ASP:129>  (45) 
1

>  <saltbridge:ASP:75>  (45) 
0

>  <saltbridge:ASP:83>  (45) 
0

>  <hbond:ASN:152>  (45) 
0

>  <hydroph_interaction:ASN:152>  (45) 
0

>  <halogenbond:TYR:150>  (45) 
1

>  <hbond:ASP:83>  (45) 
0

>  <hydroph_interaction:VAL:155>  (45) 
0

>  <pication:TYR:161>  (45) 
0

>  <hbond:PRO:131>  (45) 
0

>  <saltbridge:ASP:129>  (45) 
0

>  <hbond:THR:134>  (45) 
0

>  <pication:HIS:51>  (45) 
0

>  <hbond:SER:81>  (45) 
0

>  <hydroph_interaction:THR:134>  (45) 
0

>  <hydroph_interaction:MET:49>  (45) 
0

$$$$
CSSB00102622537
     RDKit          3D

 37 39  0  0  0  0  0  0  0  0999 V2000
   -8.6160    5.3630   -8.3210 C   0  0  0  0  0  0  0  0  0  0  0  0
   -8.7190    5.2760   -9.7010 C   0  0  0  0  0  0  0  0  0  0  0  0
   -8.6970    3.9700  -10.3510 C   0  0  0  0  0  0  0  0  0  0  0  0
   -8.7990    3.8630  -11.7300 C   0  0  0  0  0  0  0  0  0  0  0  0
   -8.9270    5.0150  -12.4990 C   0  0  0  0  0  0  0  0  0  0  0  0
   -9.0130    4.8030  -13.8380 O   0  0  0  0  0  0  0  0  0  0  0  0
   -7.7930    5.3350  -14.7490 S   0  0  0  0  0  6  0  0  0  0  0  0
   -6.6760    4.4510  -14.5210 O   0  0  0  0  0  0  0  0  0  0  0  0
   -7.6510    6.7630  -14.5450 O   0  0  0  0  0  0  0  0  0  0  0  0
   -8.2730    5.1620  -16.4540 C   0  0  0  0  0  0  0  0  0  0  0  0
   -9.6230    4.9270  -16.6690 C   0  0  0  0  0  0  0  0  0  0  0  0
  -10.0740    4.7790  -18.0430 C   0  0  0  0  0  0  0  0  0  0  0  0
   -9.0910    4.8810  -19.1660 C   0  0  0  0  0  0  0  0  0  0  0  0
   -7.7450    5.1180  -18.8670 C   0  0  0  0  0  0  0  0  0  0  0  0
   -6.8400    5.2070  -19.9260 C   0  0  0  0  0  0  0  0  0  0  0  0
   -5.4850    5.4390  -19.7230 C   0  0  0  0  0  0  0  0  0  0  0  0
   -4.9640    5.5940  -18.4460 C   0  0  0  0  0  0  0  0  0  0  0  0
   -5.7950    5.5190  -17.3420 C   0  0  0  0  0  0  0  0  0  0  0  0
   -5.1580    5.6890  -16.0980 N   0  0  0  0  0  0  0  0  0  0  0  0
   -7.2910    5.2670  -17.5070 C   0  0  0  0  0  0  0  0  0  0  0  0
   -8.9540    6.2740  -11.8990 C   0  0  0  0  0  0  0  0  0  0  0  0
   -8.8500    6.4120  -10.5080 C   0  0  0  0  0  0  0  0  0  0  0  0
   -9.3390    4.6970   -7.8450 H   0  0  0  0  0  0  0  0  0  0  0  0
   -8.8040    6.3860   -7.9840 H   0  0  0  0  0  0  0  0  0  0  0  0
   -7.6130    5.0870   -7.9780 H   0  0  0  0  0  0  0  0  0  0  0  0
   -8.6020    3.0590   -9.7610 H   0  0  0  0  0  0  0  0  0  0  0  0
   -8.7810    2.8870  -12.2070 H   0  0  0  0  0  0  0  0  0  0  0  0
  -10.3340    4.8510  -15.8510 H   0  0  0  0  0  0  0  0  0  0  0  0
  -11.1000    4.5920  -18.3800 H   0  0  0  0  0  0  0  0  0  0  0  0
   -9.4410    4.7690  -20.1940 H   0  0  0  0  0  0  0  0  0  0  0  0
   -7.2030    5.0900  -20.9410 H   0  0  0  0  0  0  0  0  0  0  0  0
   -4.8220    5.4990  -20.5790 H   0  0  0  0  0  0  0  0  0  0  0  0
   -3.9030    5.7730  -18.3110 H   0  0  0  0  0  0  0  0  0  0  0  0
   -4.9090    6.6510  -15.8860 H   0  0  0  0  0  0  0  0  0  0  0  0
   -4.3240    5.1040  -15.9820 H   0  0  0  0  0  0  0  0  0  0  0  0
   -9.0570    7.1900  -12.4950 H   0  0  0  0  0  0  0  0  0  0  0  0
   -8.8720    7.3950  -10.0500 H   0  0  0  0  0  0  0  0  0  0  0  0
  1  2  1  0
  2  3  2  0
  3  4  1  0
  4  5  2  0
  5  6  1  0
  6  7  1  0
  7  8  2  0
  7  9  2  0
  7 10  1  0
 10 11  2  0
 11 12  1  0
 12 13  2  0
 13 14  1  0
 14 15  2  0
 15 16  1  0
 16 17  2  0
 17 18  1  0
 18 19  1  0
 18 20  2  0
  5 21  1  0
 21 22  2  0
 22  2  1  0
 20 10  1  0
 20 14  1  0
  1 23  1  0
  1 24  1  0
  1 25  1  0
  3 26  1  0
  4 27  1  0
 11 28  1  0
 12 29  1  0
 13 30  1  0
 15 31  1  0
 16 32  1  0
 17 33  1  0
 19 34  1  0
 19 35  1  0
 21 36  1  0
 22 37  1  0
A    1
 C1 
A    2
 C2 
A    3
 C3 
A    4
 C4 
A    5
 C5 
A    6
 O1 
A    7
 S1 
A    8
 O2 
A    9
 O3 
A   10
 C6 
A   11
 C7 
A   12
 C8 
A   13
 C9 
A   14
 C10
A   15
 C11
A   16
 C12
A   17
 C13
A   18
 C14
A   19
 N1 
A   20
 C15
A   21
 C16
A   22
 C17
A   23
 H1 
A   24
 H2 
A   25
 H3 
A   26
 H4 
A   27
 H5 
A   28
 H6 
A   29
 H7 
A   30
 H8 
A   31
 H9 
A   32
 H10
A   33
 H11
A   34
 H12
A   35
 H13
A   36
 H14
A   37
 H15
M  END
>  <ref_pdb>  (46) 
x0051_0B

>  <ref_mols>  (46) 
x1098_0B,x0727_0B

>  <original SMILES>  (46) 
[H]c1c([H])c(C([H])([H])[H])c([H])c([H])c1OS(=O)(=O)c1c([H])c([H])c([H])c2c([H])c([H])c([H])c(N([H])[H])c12

>  <index>  (46) 
3003

>  <∆∆G>  (46) 
-9.131027

>  <∆G_bound>  (46) 
-7.156056

>  <∆G_unbound>  (46) 
1.974971

>  <comRMSD>  (46) 
0.521072

>  <N_constrained_atoms>  (46) 
20.0

>  <N_unconstrained_atoms>  (46) 
3.0

>  <runtime>  (46) 
57.395048

>  <LE>  (46) 
0.397001

>  <percent_hybrid>  (46) 
28.0

>  <dist>  (46) 
9.0

>  <ecfp4>  (46) 
0.144737

>  <daylight>  (46) 
0.186747

>  <topodist>  (46) 
4.0

>  <mces>  (46) 
22.0

>  <tdn>  (46) 
2.0

>  <tup>  (46) 
1.0

>  <rdn>  (46) 
0.0

>  <rup>  (46) 
0.0

>  <ldn>  (46) 
0.0

>  <lup>  (46) 
1.0

>  <mut>  (46) 
5.0

>  <maj>  (46) 
5.0

>  <min>  (46) 
0.0

>  <hyb>  (46) 
0.0

>  <sub>  (46) 
1.0

>  <query_index>  (46) 
11.0

>  <max_hit_Tanimoto>  (46) 
0.194861

>  <largest_ring>  (46) 
6

>  <N_interactions_kept>  (46) 
1.0

>  <N_interactions_lost>  (46) 
5.0

>  <interaction_uniqueness_metric>  (46) 
0.152854

>  <ad_hoc_penalty>  (46) 
-5.563461

>  <N_rotatable_bonds>  (46) 
5

>  <N_HA>  (46) 
22

>  <cluster>  (46) 
3441

>  <N_interactions>  (46) 
8

>  <Enamine>  (46) 
1

>  <Mcule>  (46) 
0

>  <N_PAINS>  (46) 
0

>  <UFF_Gibbs>  (46) 
56.794471

>  <strain_per_HA>  (46) 
2.581567

>  <intxn_scored>  (46) 
12.0

>  <saltbridge:HIS:51>  (46) 
0

>  <pistack:HIS:51>  (46) 
1

>  <hydroph_interaction:HIS:51>  (46) 
1

>  <hbond:ALA:132>  (46) 
0

>  <hbond:SER:135>  (46) 
0

>  <hydroph_interaction:TYR:150>  (46) 
1

>  <pistack:TYR:161>  (46) 
1

>  <hydroph_interaction:TYR:161>  (46) 
3

>  <hydroph_interaction:ASP:83>  (46) 
0

>  <hbond:TYR:130>  (46) 
0

>  <hydroph_interaction:ALA:132>  (46) 
0

>  <hbond:HIS:51>  (46) 
0

>  <hbond:ASP:129>  (46) 
0

>  <hbond:TYR:150>  (46) 
0

>  <hbond:GLY:151>  (46) 
0

>  <hbond:TYR:161>  (46) 
1

>  <hydroph_interaction:TYR:130>  (46) 
0

>  <hydroph_interaction:PRO:131>  (46) 
0

>  <hydroph_interaction:ASP:129>  (46) 
0

>  <saltbridge:ASP:75>  (46) 
0

>  <saltbridge:ASP:83>  (46) 
0

>  <hbond:ASN:152>  (46) 
0

>  <hydroph_interaction:ASN:152>  (46) 
0

>  <halogenbond:TYR:150>  (46) 
0

>  <hbond:ASP:83>  (46) 
0

>  <hydroph_interaction:VAL:155>  (46) 
0

>  <pication:TYR:161>  (46) 
0

>  <hbond:PRO:131>  (46) 
0

>  <saltbridge:ASP:129>  (46) 
0

>  <hbond:THR:134>  (46) 
0

>  <pication:HIS:51>  (46) 
0

>  <hbond:SER:81>  (46) 
0

>  <hydroph_interaction:THR:134>  (46) 
0

>  <hydroph_interaction:MET:49>  (46) 
0

$$$$
Z2187861332
     RDKit          3D

 37 39  0  0  0  0  0  0  0  0999 V2000
   -8.5240    4.6830   -9.1300 C   0  0  0  0  0  0  0  0  0  0  0  0
   -8.6230    5.0360  -10.4570 N   0  0  0  0  0  0  0  0  0  0  0  0
   -8.4880    4.1660  -11.5670 C   0  0  0  0  0  0  0  0  0  0  0  0
   -8.6790    5.0550  -12.7620 C   0  0  0  0  0  0  0  0  0  0  0  0
   -8.6070    4.5510  -14.1410 N   0  0  0  0  0  0  0  0  0  0  0  0
   -8.2230    5.5900  -15.0930 C   0  0  0  0  0  0  0  0  0  0  0  0
   -7.6170    6.8410  -14.7580 O   0  0  0  0  0  0  0  0  0  0  0  0
   -8.4830    5.3160  -16.4420 C   0  0  0  0  0  0  0  0  0  0  0  0
   -9.7500    4.8640  -16.7960 C   0  0  0  0  0  0  0  0  0  0  0  0
  -10.0330    4.6040  -18.1280 C   0  0  0  0  0  0  0  0  0  0  0  0
   -9.0800    4.7760  -19.1100 C   0  0  0  0  0  0  0  0  0  0  0  0
   -7.8060    5.2180  -18.7910 C   0  0  0  0  0  0  0  0  0  0  0  0
   -7.4890    5.4970  -17.4410 C   0  0  0  0  0  0  0  0  0  0  0  0
   -6.2130    5.9510  -17.0740 N   0  0  0  0  0  0  0  0  0  0  0  0
   -5.0830    5.5660  -17.9050 C   0  0  0  0  0  0  0  0  0  0  0  0
   -5.1240    6.1960  -19.1370 C   0  0  0  0  0  0  0  0  0  0  0  0
   -6.0250    7.1710  -19.5460 C   0  0  0  0  0  0  0  0  0  0  0  0
   -5.8050    7.6020  -20.8070 C   0  0  0  0  0  0  0  0  0  0  0  0
   -4.6040    6.7790  -21.2320 C   0  0  0  0  0  0  0  0  0  0  0  0
   -4.2240    5.9350  -20.1870 O   0  0  0  0  0  0  0  0  0  0  0  0
   -8.9070    6.3260  -12.2830 N   0  0  0  0  0  0  0  0  0  0  0  0
   -8.8690    6.3030  -10.9110 N   0  0  0  0  0  0  0  0  0  0  0  0
   -7.4750    4.6880   -8.8150 H   0  0  0  0  0  0  0  0  0  0  0  0
   -8.9110    3.6650   -8.9990 H   0  0  0  0  0  0  0  0  0  0  0  0
   -9.1040    5.3710   -8.5070 H   0  0  0  0  0  0  0  0  0  0  0  0
   -8.2910    3.0950  -11.7030 H   0  0  0  0  0  0  0  0  0  0  0  0
   -9.2320    3.7950  -14.3910 H   0  0  0  0  0  0  0  0  0  0  0  0
  -10.4820    4.7290  -16.0110 H   0  0  0  0  0  0  0  0  0  0  0  0
  -11.0060    4.2510  -18.4870 H   0  0  0  0  0  0  0  0  0  0  0  0
   -9.4110    4.5390  -20.1290 H   0  0  0  0  0  0  0  0  0  0  0  0
   -7.0600    5.3500  -19.5730 H   0  0  0  0  0  0  0  0  0  0  0  0
   -6.2370    6.9530  -16.9640 H   0  0  0  0  0  0  0  0  0  0  0  0
   -5.0200    4.4860  -17.8980 H   0  0  0  0  0  0  0  0  0  0  0  0
   -4.1650    5.9300  -17.4290 H   0  0  0  0  0  0  0  0  0  0  0  0
   -6.8210    7.5420  -18.9160 H   0  0  0  0  0  0  0  0  0  0  0  0
   -6.3360    8.3430  -21.3910 H   0  0  0  0  0  0  0  0  0  0  0  0
   -4.1360    6.8560  -22.2110 H   0  0  0  0  0  0  0  0  0  0  0  0
  1  2  1  0
  2  3  1  0
  3  4  2  0
  4  5  1  0
  5  6  1  0
  6  7  2  0
  6  8  1  0
  8  9  2  0
  9 10  1  0
 10 11  2  0
 11 12  1  0
 12 13  2  0
 13 14  1  0
 14 15  1  0
 15 16  1  0
 16 17  2  0
 17 18  1  0
 18 19  2  0
 19 20  1  0
  4 21  1  0
 21 22  2  0
 22  2  1  0
 13  8  1  0
 20 16  1  0
  1 23  1  0
  1 24  1  0
  1 25  1  0
  3 26  1  0
  5 27  1  0
  9 28  1  0
 10 29  1  0
 11 30  1  0
 12 31  1  0
 14 32  1  0
 15 33  1  0
 15 34  1  0
 17 35  1  0
 18 36  1  0
 19 37  1  0
A    1
 C1 
A    2
 N1 
A    3
 C2 
A    4
 C3 
A    5
 N2 
A    6
 C4 
A    7
 O1 
A    8
 C5 
A    9
 C6 
A   10
 C7 
A   11
 C8 
A   12
 C9 
A   13
 C10
A   14
 N3 
A   15
 C11
A   16
 C12
A   17
 C13
A   18
 C14
A   19
 C15
A   20
 O2 
A   21
 N4 
A   22
 N5 
A   23
 H1 
A   24
 H2 
A   25
 H3 
A   26
 H4 
A   27
 H5 
A   28
 H6 
A   29
 H7 
A   30
 H8 
A   31
 H9 
A   32
 H10
A   33
 H11
A   34
 H12
A   35
 H13
A   36
 H14
A   37
 H15
M  END
>  <ref_pdb>  (47) 
x0051_0B

>  <ref_mols>  (47) 
x1098_0B,x0229_0B

>  <original SMILES>  (47) 
[H]c1oc(C([H])([H])N([H])c2c([H])c([H])c([H])c([H])c2C(=O)N([H])c2nnn(C([H])([H])[H])c2[H])c([H])c1[H]

>  <index>  (47) 
1791

>  <∆∆G>  (47) 
-8.686642

>  <∆G_bound>  (47) 
-7.90536

>  <∆G_unbound>  (47) 
0.781282

>  <comRMSD>  (47) 
0.710653

>  <N_constrained_atoms>  (47) 
27.0

>  <N_unconstrained_atoms>  (47) 
0.0

>  <runtime>  (47) 
49.539828

>  <LE>  (47) 
0.321727

>  <percent_hybrid>  (47) 
40.0

>  <dist>  (47) 
9.0

>  <ecfp4>  (47) 
0.261364

>  <daylight>  (47) 
0.343972

>  <topodist>  (47) 
3.0

>  <mces>  (47) 
24.0

>  <tdn>  (47) 
2.0

>  <tup>  (47) 
0.0

>  <rdn>  (47) 
1.0

>  <rup>  (47) 
0.0

>  <ldn>  (47) 
0.0

>  <lup>  (47) 
0.0

>  <mut>  (47) 
2.0

>  <maj>  (47) 
2.0

>  <min>  (47) 
0.0

>  <hyb>  (47) 
4.0

>  <sub>  (47) 
2.0

>  <query_index>  (47) 
28.0

>  <max_hit_Tanimoto>  (47) 
0.358575

>  <largest_ring>  (47) 
6

>  <N_interactions_kept>  (47) 
1.0

>  <N_interactions_lost>  (47) 
4.5

>  <interaction_uniqueness_metric>  (47) 
0.451595

>  <ad_hoc_penalty>  (47) 
-11.205871

>  <N_rotatable_bonds>  (47) 
6

>  <N_HA>  (47) 
22

>  <cluster>  (47) 
4574

>  <N_interactions>  (47) 
8

>  <Enamine>  (47) 
1

>  <Mcule>  (47) 
0

>  <N_PAINS>  (47) 
0

>  <UFF_Gibbs>  (47) 
146.179641

>  <strain_per_HA>  (47) 
6.644529

>  <intxn_scored>  (47) 
12.0

>  <saltbridge:HIS:51>  (47) 
0

>  <pistack:HIS:51>  (47) 
1

>  <hydroph_interaction:HIS:51>  (47) 
0

>  <hbond:ALA:132>  (47) 
0

>  <hbond:SER:135>  (47) 
0

>  <hydroph_interaction:TYR:150>  (47) 
1

>  <pistack:TYR:161>  (47) 
1

>  <hydroph_interaction:TYR:161>  (47) 
0

>  <hydroph_interaction:ASP:83>  (47) 
0

>  <hbond:TYR:130>  (47) 
0

>  <hydroph_interaction:ALA:132>  (47) 
1

>  <hbond:HIS:51>  (47) 
0

>  <hbond:ASP:129>  (47) 
0

>  <hbond:TYR:150>  (47) 
0

>  <hbond:GLY:151>  (47) 
1

>  <hbond:TYR:161>  (47) 
1

>  <hydroph_interaction:TYR:130>  (47) 
0

>  <hydroph_interaction:PRO:131>  (47) 
0

>  <hydroph_interaction:ASP:129>  (47) 
0

>  <saltbridge:ASP:75>  (47) 
0

>  <saltbridge:ASP:83>  (47) 
1

>  <hbond:ASN:152>  (47) 
0

>  <hydroph_interaction:ASN:152>  (47) 
0

>  <halogenbond:TYR:150>  (47) 
0

>  <hbond:ASP:83>  (47) 
0

>  <hydroph_interaction:VAL:155>  (47) 
0

>  <pication:TYR:161>  (47) 
0

>  <hbond:PRO:131>  (47) 
0

>  <saltbridge:ASP:129>  (47) 
0

>  <hbond:THR:134>  (47) 
0

>  <pication:HIS:51>  (47) 
1

>  <hbond:SER:81>  (47) 
0

>  <hydroph_interaction:THR:134>  (47) 
0

>  <hydroph_interaction:MET:49>  (47) 
0

$$$$
Z2761221075
     RDKit          3D

 41 43  0  0  0  0  0  0  0  0999 V2000
  -10.5370    4.5760  -18.4360 C   0  0  0  0  0  0  0  0  0  0  0  0
   -9.3140    4.9900  -17.6530 C   0  0  0  0  0  0  0  0  0  0  0  0
   -8.0850    5.0580  -18.5680 C   0  0  0  0  0  0  0  0  0  0  0  0
   -6.8970    5.4400  -17.9600 C   0  0  0  0  0  0  0  0  0  0  0  0
   -5.7390    5.5210  -18.7340 C   0  0  0  0  0  0  0  0  0  0  0  0
   -6.8560    5.7490  -16.5790 C   0  0  0  0  0  0  0  0  0  0  0  0
   -7.9950    5.6910  -15.7330 C   0  0  0  0  0  0  0  0  0  0  0  0
   -7.8160    6.0600  -14.3900 C   0  0  0  0  0  0  0  0  0  0  0  0
   -7.6320    7.2530  -14.1690 O   0  0  0  0  0  0  0  0  0  0  0  0
   -7.8410    5.1480  -13.3260 N   0  0  0  0  0  0  0  0  0  0  0  0
   -9.0410    4.9600  -12.5160 C   0  0  0  0  0  0  0  0  0  0  0  0
   -8.9480    5.2990  -11.0920 C   0  0  0  0  0  0  0  0  0  0  0  0
   -9.0410    4.5120   -9.9710 C   0  0  0  0  0  0  0  0  0  0  0  0
   -9.2390    3.0460  -10.2390 C   0  0  0  0  0  0  0  0  0  0  0  0
   -9.0140    2.1640   -9.1080 N   0  0  0  0  0  0  0  0  0  0  0  0
   -9.6400    2.6860   -7.9070 C   0  0  0  0  0  0  0  0  0  0  0  0
   -9.1170    3.9380   -7.6430 C   0  0  0  0  0  0  0  0  0  0  0  0
   -9.0000    4.7340   -8.8610 N   0  0  0  0  0  0  0  0  0  0  0  0
   -8.7990    6.0960   -8.8800 N   0  0  0  0  0  0  0  0  0  0  0  0
   -8.7680    6.4480  -10.2460 C   0  0  0  0  0  0  0  0  0  0  0  0
   -9.2340    5.2980  -16.2840 C   0  0  0  0  0  0  0  0  0  0  0  0
  -10.3150    3.6230  -18.9010 H   0  0  0  0  0  0  0  0  0  0  0  0
  -10.7690    5.2990  -19.2280 H   0  0  0  0  0  0  0  0  0  0  0  0
  -11.4200    4.4530  -17.8200 H   0  0  0  0  0  0  0  0  0  0  0  0
   -8.1300    4.8250  -19.6300 H   0  0  0  0  0  0  0  0  0  0  0  0
   -5.5180    6.5740  -18.9320 H   0  0  0  0  0  0  0  0  0  0  0  0
   -5.9390    5.0400  -19.6990 H   0  0  0  0  0  0  0  0  0  0  0  0
   -4.8160    5.0940  -18.3520 H   0  0  0  0  0  0  0  0  0  0  0  0
   -5.9040    6.0500  -16.1480 H   0  0  0  0  0  0  0  0  0  0  0  0
   -7.1270    4.4370  -13.2650 H   0  0  0  0  0  0  0  0  0  0  0  0
   -9.4010    3.9300  -12.6190 H   0  0  0  0  0  0  0  0  0  0  0  0
   -9.8020    5.5950  -12.9810 H   0  0  0  0  0  0  0  0  0  0  0  0
   -8.5530    2.7480  -11.0350 H   0  0  0  0  0  0  0  0  0  0  0  0
  -10.2320    2.8150  -10.6100 H   0  0  0  0  0  0  0  0  0  0  0  0
   -8.0110    2.1560   -8.9690 H   0  0  0  0  0  0  0  0  0  0  0  0
  -10.6970    2.7820   -8.0970 H   0  0  0  0  0  0  0  0  0  0  0  0
   -9.5610    1.9260   -7.1360 H   0  0  0  0  0  0  0  0  0  0  0  0
   -8.1120    3.8720   -7.2170 H   0  0  0  0  0  0  0  0  0  0  0  0
   -9.7580    4.4780   -6.9500 H   0  0  0  0  0  0  0  0  0  0  0  0
   -8.6260    7.4820  -10.5340 H   0  0  0  0  0  0  0  0  0  0  0  0
  -10.1280    5.2390  -15.6680 H   0  0  0  0  0  0  0  0  0  0  0  0
  1  2  1  0
  2  3  2  0
  3  4  1  0
  4  5  1  0
  4  6  2  0
  6  7  1  0
  7  8  1  0
  8  9  2  0
  8 10  1  0
 10 11  1  0
 11 12  1  0
 12 13  2  0
 13 14  1  0
 14 15  1  0
 15 16  1  0
 16 17  1  0
 17 18  1  0
 18 19  1  0
 19 20  2  0
  7 21  2  0
 21  2  1  0
 20 12  1  0
 18 13  1  0
  1 22  1  0
  1 23  1  0
  1 24  1  0
  3 25  1  0
  5 26  1  0
  5 27  1  0
  5 28  1  0
  6 29  1  0
 10 30  1  0
 11 31  1  0
 11 32  1  0
 14 33  1  0
 14 34  1  0
 15 35  1  0
 16 36  1  0
 16 37  1  0
 17 38  1  0
 17 39  1  0
 20 40  1  0
 21 41  1  0
A    1
 C1 
A    2
 C2 
A    3
 C3 
A    4
 C4 
A    5
 C5 
A    6
 C6 
A    7
 C7 
A    8
 C8 
A    9
 O1 
A   10
 N1 
A   11
 C9 
A   12
 C10
A   13
 C11
A   14
 C12
A   15
 N2 
A   16
 C13
A   17
 C14
A   18
 N3 
A   19
 N4 
A   20
 C15
A   21
 C16
A   22
 H1 
A   23
 H2 
A   24
 H3 
A   25
 H4 
A   26
 H5 
A   27
 H6 
A   28
 H7 
A   29
 H8 
A   30
 H9 
A   31
 H10
A   32
 H11
A   33
 H12
A   34
 H13
A   35
 H14
A   36
 H15
A   37
 H16
A   38
 H17
A   39
 H18
A   40
 H19
A   41
 H20
M  END
>  <ref_pdb>  (48) 
x0051_0B

>  <ref_mols>  (48) 
x0589_0B,x0969_1B

>  <original SMILES>  (48) 
[H]c1nn2c(c1C([H])([H])N([H])C(=O)c1c([H])c(C([H])([H])[H])c([H])c(C([H])([H])[H])c1[H])C([H])([H])N([H])C([H])([H])C2([H])[H]

>  <index>  (48) 
324

>  <∆∆G>  (48) 
-7.237126

>  <∆G_bound>  (48) 
-6.821553

>  <∆G_unbound>  (48) 
0.415573

>  <comRMSD>  (48) 
0.549176

>  <N_constrained_atoms>  (48) 
18.0

>  <N_unconstrained_atoms>  (48) 
3.0

>  <runtime>  (48) 
62.457753

>  <LE>  (48) 
0.344625

>  <percent_hybrid>  (48) 
45.0

>  <dist>  (48) 
4.0

>  <ecfp4>  (48) 
0.5

>  <daylight>  (48) 
0.538117

>  <topodist>  (48) 
1.0

>  <mces>  (48) 
22.0

>  <tdn>  (48) 
0.0

>  <tup>  (48) 
1.0

>  <rdn>  (48) 
0.0

>  <rup>  (48) 
0.0

>  <ldn>  (48) 
0.0

>  <lup>  (48) 
0.0

>  <mut>  (48) 
3.0

>  <maj>  (48) 
3.0

>  <min>  (48) 
0.0

>  <hyb>  (48) 
0.0

>  <sub>  (48) 
0.0

>  <query_index>  (48) 
379.0

>  <max_hit_Tanimoto>  (48) 
0.639077

>  <largest_ring>  (48) 
0

>  <N_interactions_kept>  (48) 
0.5

>  <N_interactions_lost>  (48) 
2.0

>  <interaction_uniqueness_metric>  (48) 
0.256596

>  <ad_hoc_penalty>  (48) 
-22.117771

>  <N_rotatable_bonds>  (48) 
5

>  <N_HA>  (48) 
21

>  <cluster>  (48) 
5924

>  <N_interactions>  (48) 
7

>  <Enamine>  (48) 
1

>  <Mcule>  (48) 
0

>  <N_PAINS>  (48) 
0

>  <UFF_Gibbs>  (48) 
156.756726

>  <strain_per_HA>  (48) 
7.464606

>  <intxn_scored>  (48) 
12.0

>  <saltbridge:HIS:51>  (48) 
0

>  <pistack:HIS:51>  (48) 
1

>  <hydroph_interaction:HIS:51>  (48) 
0

>  <hbond:ALA:132>  (48) 
0

>  <hbond:SER:135>  (48) 
0

>  <hydroph_interaction:TYR:150>  (48) 
1

>  <pistack:TYR:161>  (48) 
1

>  <hydroph_interaction:TYR:161>  (48) 
1

>  <hydroph_interaction:ASP:83>  (48) 
0

>  <hbond:TYR:130>  (48) 
0

>  <hydroph_interaction:ALA:132>  (48) 
1

>  <hbond:HIS:51>  (48) 
0

>  <hbond:ASP:129>  (48) 
0

>  <hbond:TYR:150>  (48) 
0

>  <hbond:GLY:151>  (48) 
0

>  <hbond:TYR:161>  (48) 
1

>  <hydroph_interaction:TYR:130>  (48) 
0

>  <hydroph_interaction:PRO:131>  (48) 
0

>  <hydroph_interaction:ASP:129>  (48) 
0

>  <saltbridge:ASP:75>  (48) 
0

>  <saltbridge:ASP:83>  (48) 
0

>  <hbond:ASN:152>  (48) 
0

>  <hydroph_interaction:ASN:152>  (48) 
0

>  <halogenbond:TYR:150>  (48) 
0

>  <hbond:ASP:83>  (48) 
1

>  <hydroph_interaction:VAL:155>  (48) 
0

>  <pication:TYR:161>  (48) 
0

>  <hbond:PRO:131>  (48) 
0

>  <saltbridge:ASP:129>  (48) 
0

>  <hbond:THR:134>  (48) 
0

>  <pication:HIS:51>  (48) 
0

>  <hbond:SER:81>  (48) 
0

>  <hydroph_interaction:THR:134>  (48) 
0

>  <hydroph_interaction:MET:49>  (48) 
0

$$$$
CSSB00012000599
     RDKit          3D

 20 21  0  0  0  0  0  0  0  0999 V2000
   -7.2130    5.6190  -14.9120 C   0  0  0  0  0  0  0  0  0  0  0  0
   -7.8140    5.3700  -16.1360 C   0  0  0  0  0  0  0  0  0  0  0  0
   -7.0500    5.3840  -17.3030 C   0  0  0  0  0  0  0  0  0  0  0  0
   -5.7130    5.6080  -17.4970 N   0  0  0  0  0  0  0  0  0  0  0  0
   -5.3140    5.5440  -18.7760 N   0  0  0  0  0  0  0  0  0  0  0  0
   -6.4560    5.2630  -19.4370 C   0  0  0  0  0  0  0  0  0  0  0  0
   -6.4770    5.1050  -20.8260 N   0  0  0  0  0  0  0  0  0  0  0  0
   -7.5700    5.1480  -18.5790 C   0  0  0  0  0  0  0  0  0  0  0  0
   -8.9410    4.8760  -18.7030 C   0  0  0  0  0  0  0  0  0  0  0  0
   -9.7030    4.8580  -17.5490 C   0  0  0  0  0  0  0  0  0  0  0  0
   -9.1920    5.0950  -16.2790 C   0  0  0  0  0  0  0  0  0  0  0  0
   -7.6210    4.9410  -14.1540 H   0  0  0  0  0  0  0  0  0  0  0  0
   -7.3820    6.6440  -14.5750 H   0  0  0  0  0  0  0  0  0  0  0  0
   -6.1330    5.4590  -14.9850 H   0  0  0  0  0  0  0  0  0  0  0  0
   -5.0140    5.8130  -16.7910 H   0  0  0  0  0  0  0  0  0  0  0  0
   -7.2620    5.5560  -21.3030 H   0  0  0  0  0  0  0  0  0  0  0  0
   -5.6100    5.1610  -21.3410 H   0  0  0  0  0  0  0  0  0  0  0  0
   -9.4750    4.6740  -19.6390 H   0  0  0  0  0  0  0  0  0  0  0  0
  -10.7730    4.6450  -17.6420 H   0  0  0  0  0  0  0  0  0  0  0  0
   -9.8520    5.0660  -15.4110 H   0  0  0  0  0  0  0  0  0  0  0  0
  1  2  1  0
  2  3  2  0
  3  4  1  0
  4  5  1  0
  5  6  2  0
  6  7  1  0
  6  8  1  0
  8  9  2  0
  9 10  1  0
 10 11  2  0
 11  2  1  0
  8  3  1  0
  1 12  1  0
  1 13  1  0
  1 14  1  0
  4 15  1  0
  7 16  1  0
  7 17  1  0
  9 18  1  0
 10 19  1  0
 11 20  1  0
A    1
 C1 
A    2
 C2 
A    3
 C3 
A    4
 N1 
A    5
 N2 
A    6
 C4 
A    7
 N3 
A    8
 C5 
A    9
 C6 
A   10
 C7 
A   11
 C8 
A   12
 H1 
A   13
 H2 
A   14
 H3 
A   15
 H4 
A   16
 H5 
A   17
 H6 
A   18
 H7 
A   19
 H8 
A   20
 H9 
M  END
>  <ref_pdb>  (49) 
x0051_0B

>  <ref_mols>  (49) 
x0435_0B,x0693_0B

>  <original SMILES>  (49) 
[H]c1c([H])c(C([H])([H])[H])c2c(c(N([H])[H])nn2[H])c1[H]

>  <index>  (49) 
1402

>  <∆∆G>  (49) 
-6.101434

>  <∆G_bound>  (49) 
-6.058219

>  <∆G_unbound>  (49) 
0.043216

>  <comRMSD>  (49) 
0.605922

>  <N_constrained_atoms>  (49) 
13.0

>  <N_unconstrained_atoms>  (49) 
0.0

>  <runtime>  (49) 
16.446796

>  <LE>  (49) 
0.469341

>  <percent_hybrid>  (49) 
50.0

>  <dist>  (49) 
3.0

>  <ecfp4>  (49) 
0.1

>  <daylight>  (49) 
0.347107

>  <topodist>  (49) 
1.0

>  <mces>  (49) 
12.0

>  <tdn>  (49) 
1.0

>  <tup>  (49) 
0.0

>  <rdn>  (49) 
0.0

>  <rup>  (49) 
0.0

>  <ldn>  (49) 
0.0

>  <lup>  (49) 
0.0

>  <mut>  (49) 
1.0

>  <maj>  (49) 
1.0

>  <min>  (49) 
0.0

>  <hyb>  (49) 
1.0

>  <sub>  (49) 
1.0

>  <query_index>  (49) 
205.0

>  <max_hit_Tanimoto>  (49) 
0.169753

>  <largest_ring>  (49) 
6

>  <N_interactions_kept>  (49) 
3.0

>  <N_interactions_lost>  (49) 
2.0

>  <interaction_uniqueness_metric>  (49) 
0.052948

>  <ad_hoc_penalty>  (49) 
-13.977968

>  <N_rotatable_bonds>  (49) 
2

>  <N_HA>  (49) 
11

>  <cluster>  (49) 
4932

>  <N_interactions>  (49) 
4

>  <Enamine>  (49) 
1

>  <Mcule>  (49) 
0

>  <N_PAINS>  (49) 
0

>  <UFF_Gibbs>  (49) 
23.705603

>  <strain_per_HA>  (49) 
2.155055

>  <intxn_scored>  (49) 
12.0

>  <saltbridge:HIS:51>  (49) 
0

>  <pistack:HIS:51>  (49) 
0

>  <hydroph_interaction:HIS:51>  (49) 
0

>  <hbond:ALA:132>  (49) 
0

>  <hbond:SER:135>  (49) 
0

>  <hydroph_interaction:TYR:150>  (49) 
0

>  <pistack:TYR:161>  (49) 
2

>  <hydroph_interaction:TYR:161>  (49) 
0

>  <hydroph_interaction:ASP:83>  (49) 
0

>  <hbond:TYR:130>  (49) 
2

>  <hydroph_interaction:ALA:132>  (49) 
0

>  <hbond:HIS:51>  (49) 
0

>  <hbond:ASP:129>  (49) 
0

>  <hbond:TYR:150>  (49) 
0

>  <hbond:GLY:151>  (49) 
0

>  <hbond:TYR:161>  (49) 
0

>  <hydroph_interaction:TYR:130>  (49) 
0

>  <hydroph_interaction:PRO:131>  (49) 
0

>  <hydroph_interaction:ASP:129>  (49) 
0

>  <saltbridge:ASP:75>  (49) 
0

>  <saltbridge:ASP:83>  (49) 
0

>  <hbond:ASN:152>  (49) 
0

>  <hydroph_interaction:ASN:152>  (49) 
0

>  <halogenbond:TYR:150>  (49) 
0

>  <hbond:ASP:83>  (49) 
0

>  <hydroph_interaction:VAL:155>  (49) 
0

>  <pication:TYR:161>  (49) 
0

>  <hbond:PRO:131>  (49) 
0

>  <saltbridge:ASP:129>  (49) 
0

>  <hbond:THR:134>  (49) 
0

>  <pication:HIS:51>  (49) 
0

>  <hbond:SER:81>  (49) 
0

>  <hydroph_interaction:THR:134>  (49) 
0

>  <hydroph_interaction:MET:49>  (49) 
0

$$$$
Z1966932008
     RDKit          3D

 46 49  0  0  0  0  0  0  0  0999 V2000
   -9.4460    7.9650  -13.4150 C   0  0  0  0  0  0  0  0  0  0  0  0
   -9.2460    7.0130  -12.2650 C   0  0  0  0  0  0  0  0  0  0  0  0
   -9.1990    7.4900  -10.9580 C   0  0  0  0  0  0  0  0  0  0  0  0
   -9.0160    6.6090   -9.8860 C   0  0  0  0  0  0  0  0  0  0  0  0
   -8.8780    5.2310  -10.0710 C   0  0  0  0  0  0  0  0  0  0  0  0
   -8.7020    4.3510   -9.0280 N   0  0  0  0  0  0  0  0  0  0  0  0
   -8.9530    2.9070   -9.2070 C   0  0  0  0  0  0  0  0  0  0  0  0
   -9.6420    2.3500   -7.9610 C   0  0  0  0  0  0  0  0  0  0  0  0
   -8.9550    2.6830   -6.7560 O   0  0  0  0  0  0  0  0  0  0  0  0
   -8.8140    4.0920   -6.5910 C   0  0  0  0  0  0  0  0  0  0  0  0
   -8.0830    4.7600   -7.7620 C   0  0  0  0  0  0  0  0  0  0  0  0
   -8.9260    4.7830  -11.3850 C   0  0  0  0  0  0  0  0  0  0  0  0
   -9.1030    5.6450  -12.4680 C   0  0  0  0  0  0  0  0  0  0  0  0
   -9.1170    5.1440  -13.7240 N   0  0  0  0  0  0  0  0  0  0  0  0
   -7.7740    4.7570  -14.0460 C   0  0  0  0  0  0  0  0  0  0  0  0
   -7.3400    5.0830  -15.4080 C   0  0  0  0  0  0  0  0  0  0  0  0
   -6.0990    5.5080  -15.6310 N   0  0  0  0  0  0  0  0  0  0  0  0
   -6.0730    5.6660  -16.9560 N   0  0  0  0  0  0  0  0  0  0  0  0
   -7.2490    5.3610  -17.5820 C   0  0  0  0  0  0  0  0  0  0  0  0
   -7.6170    5.3820  -18.9250 C   0  0  0  0  0  0  0  0  0  0  0  0
   -8.9280    5.0020  -19.2300 C   0  0  0  0  0  0  0  0  0  0  0  0
   -9.8250    4.6300  -18.2360 C   0  0  0  0  0  0  0  0  0  0  0  0
   -9.4300    4.6200  -16.8990 C   0  0  0  0  0  0  0  0  0  0  0  0
   -8.1140    4.9850  -16.5790 C   0  0  0  0  0  0  0  0  0  0  0  0
   -8.5850    8.6310  -13.5490 H   0  0  0  0  0  0  0  0  0  0  0  0
   -9.5790    7.4120  -14.3510 H   0  0  0  0  0  0  0  0  0  0  0  0
  -10.3260    8.5940  -13.2330 H   0  0  0  0  0  0  0  0  0  0  0  0
   -9.3050    8.5530  -10.7510 H   0  0  0  0  0  0  0  0  0  0  0  0
   -8.9870    7.0390   -8.8890 H   0  0  0  0  0  0  0  0  0  0  0  0
   -9.5980    2.7620  -10.0830 H   0  0  0  0  0  0  0  0  0  0  0  0
   -8.0220    2.3470   -9.3510 H   0  0  0  0  0  0  0  0  0  0  0  0
   -9.7120    1.2620   -8.0170 H   0  0  0  0  0  0  0  0  0  0  0  0
  -10.6650    2.7360   -7.8840 H   0  0  0  0  0  0  0  0  0  0  0  0
   -8.2750    4.2620   -5.6530 H   0  0  0  0  0  0  0  0  0  0  0  0
   -9.8200    4.5130   -6.4750 H   0  0  0  0  0  0  0  0  0  0  0  0
   -7.0280    4.4600   -7.7640 H   0  0  0  0  0  0  0  0  0  0  0  0
   -8.1390    5.8460   -7.6230 H   0  0  0  0  0  0  0  0  0  0  0  0
   -8.8200    3.7190  -11.5840 H   0  0  0  0  0  0  0  0  0  0  0  0
   -9.7710    4.3790  -13.8710 H   0  0  0  0  0  0  0  0  0  0  0  0
   -7.0750    5.2520  -13.3580 H   0  0  0  0  0  0  0  0  0  0  0  0
   -7.6640    3.6810  -13.8860 H   0  0  0  0  0  0  0  0  0  0  0  0
   -5.2130    5.9870  -17.3820 H   0  0  0  0  0  0  0  0  0  0  0  0
   -6.9250    5.6770  -19.7080 H   0  0  0  0  0  0  0  0  0  0  0  0
   -9.2570    5.0030  -20.2680 H   0  0  0  0  0  0  0  0  0  0  0  0
  -10.8410    4.3470  -18.4990 H   0  0  0  0  0  0  0  0  0  0  0  0
  -10.1320    4.3310  -16.1290 H   0  0  0  0  0  0  0  0  0  0  0  0
  1  2  1  0
  2  3  2  0
  3  4  1  0
  4  5  2  0
  5  6  1  0
  6  7  1  0
  7  8  1  0
  8  9  1  0
  9 10  1  0
 10 11  1  0
  5 12  1  0
 12 13  2  0
 13 14  1  0
 14 15  1  0
 15 16  1  0
 16 17  2  0
 17 18  1  0
 18 19  1  0
 19 20  2  0
 20 21  1  0
 21 22  2  0
 22 23  1  0
 23 24  2  0
 13  2  1  0
 11  6  1  0
 24 16  1  0
 24 19  1  0
  1 25  1  0
  1 26  1  0
  1 27  1  0
  3 28  1  0
  4 29  1  0
  7 30  1  0
  7 31  1  0
  8 32  1  0
  8 33  1  0
 10 34  1  0
 10 35  1  0
 11 36  1  0
 11 37  1  0
 12 38  1  0
 14 39  1  0
 15 40  1  0
 15 41  1  0
 18 42  1  0
 20 43  1  0
 21 44  1  0
 22 45  1  0
 23 46  1  0
A    1
 C1 
A    2
 C2 
A    3
 C3 
A    4
 C4 
A    5
 C5 
A    6
 N1 
A    7
 C6 
A    8
 C7 
A    9
 O1 
A   10
 C8 
A   11
 C9 
A   12
 C10
A   13
 C11
A   14
 N2 
A   15
 C12
A   16
 C13
A   17
 N3 
A   18
 N4 
A   19
 C14
A   20
 C15
A   21
 C16
A   22
 C17
A   23
 C18
A   24
 C19
A   25
 H1 
A   26
 H2 
A   27
 H3 
A   28
 H4 
A   29
 H5 
A   30
 H6 
A   31
 H7 
A   32
 H8 
A   33
 H9 
A   34
 H10
A   35
 H11
A   36
 H12
A   37
 H13
A   38
 H14
A   39
 H15
A   40
 H16
A   41
 H17
A   42
 H18
A   43
 H19
A   44
 H20
A   45
 H21
A   46
 H22
M  END
>  <ref_pdb>  (50) 
x0051_0B

>  <ref_mols>  (50) 
x0404_0B,x0951_0B

>  <original SMILES>  (50) 
[H]c1c([H])c(C([H])([H])[H])c(N([H])C([H])([H])c2nn([H])c3c([H])c([H])c([H])c([H])c23)c([H])c1N1C([H])([H])C([H])([H])OC([H])([H])C1([H])[H]

>  <index>  (50) 
1590

>  <∆∆G>  (50) 
-7.605255

>  <∆G_bound>  (50) 
-7.56198

>  <∆G_unbound>  (50) 
0.043276

>  <comRMSD>  (50) 
0.814253

>  <N_constrained_atoms>  (50) 
26.0

>  <N_unconstrained_atoms>  (50) 
1.0

>  <runtime>  (50) 
69.134826

>  <LE>  (50) 
0.281676

>  <percent_hybrid>  (50) 
42.0

>  <dist>  (50) 
5.0

>  <ecfp4>  (50) 
0.287671

>  <daylight>  (50) 
0.273128

>  <topodist>  (50) 
1.0

>  <mces>  (50) 
26.0

>  <tdn>  (50) 
0.0

>  <tup>  (50) 
0.0

>  <rdn>  (50) 
0.0

>  <rup>  (50) 
0.0

>  <ldn>  (50) 
0.0

>  <lup>  (50) 
1.0

>  <mut>  (50) 
3.0

>  <maj>  (50) 
3.0

>  <min>  (50) 
0.0

>  <hyb>  (50) 
1.0

>  <sub>  (50) 
0.0

>  <query_index>  (50) 
58.0

>  <max_hit_Tanimoto>  (50) 
0.207933

>  <largest_ring>  (50) 
6

>  <N_interactions_kept>  (50) 
1.0

>  <N_interactions_lost>  (50) 
3.0

>  <interaction_uniqueness_metric>  (50) 
0.173507

>  <ad_hoc_penalty>  (50) 
-13.949316

>  <N_rotatable_bonds>  (50) 
5

>  <N_HA>  (50) 
24

>  <cluster>  (50) 
4757

>  <N_interactions>  (50) 
6

>  <Enamine>  (50) 
1

>  <Mcule>  (50) 
0

>  <N_PAINS>  (50) 
0

>  <UFF_Gibbs>  (50) 
53.868564

>  <strain_per_HA>  (50) 
2.244523

>  <intxn_scored>  (50) 
12.0

>  <saltbridge:HIS:51>  (50) 
0

>  <pistack:HIS:51>  (50) 
1

>  <hydroph_interaction:HIS:51>  (50) 
1

>  <hbond:ALA:132>  (50) 
0

>  <hbond:SER:135>  (50) 
0

>  <hydroph_interaction:TYR:150>  (50) 
1

>  <pistack:TYR:161>  (50) 
2

>  <hydroph_interaction:TYR:161>  (50) 
0

>  <hydroph_interaction:ASP:83>  (50) 
0

>  <hbond:TYR:130>  (50) 
0

>  <hydroph_interaction:ALA:132>  (50) 
0

>  <hbond:HIS:51>  (50) 
1

>  <hbond:ASP:129>  (50) 
0

>  <hbond:TYR:150>  (50) 
0

>  <hbond:GLY:151>  (50) 
0

>  <hbond:TYR:161>  (50) 
0

>  <hydroph_interaction:TYR:130>  (50) 
0

>  <hydroph_interaction:PRO:131>  (50) 
0

>  <hydroph_interaction:ASP:129>  (50) 
0

>  <saltbridge:ASP:75>  (50) 
0

>  <saltbridge:ASP:83>  (50) 
0

>  <hbond:ASN:152>  (50) 
0

>  <hydroph_interaction:ASN:152>  (50) 
0

>  <halogenbond:TYR:150>  (50) 
0

>  <hbond:ASP:83>  (50) 
0

>  <hydroph_interaction:VAL:155>  (50) 
0

>  <pication:TYR:161>  (50) 
0

>  <hbond:PRO:131>  (50) 
0

>  <saltbridge:ASP:129>  (50) 
0

>  <hbond:THR:134>  (50) 
0

>  <pication:HIS:51>  (50) 
0

>  <hbond:SER:81>  (50) 
0

>  <hydroph_interaction:THR:134>  (50) 
0

>  <hydroph_interaction:MET:49>  (50) 
0

$$$$
Z1966931846
     RDKit          3D

 46 49  0  0  0  0  0  0  0  0999 V2000
   -9.3470    8.0960  -13.2610 C   0  0  0  0  0  0  0  0  0  0  0  0
   -9.1450    7.1490  -12.1400 C   0  0  0  0  0  0  0  0  0  0  0  0
   -9.0690    7.5900  -10.8350 C   0  0  0  0  0  0  0  0  0  0  0  0
   -8.8640    6.6280   -9.7350 C   0  0  0  0  0  0  0  0  0  0  0  0
   -8.7550    5.2130  -10.1060 C   0  0  0  0  0  0  0  0  0  0  0  0
   -8.5520    4.2800   -8.9960 N   0  0  0  0  0  0  0  0  0  0  0  0
   -9.0820    2.9950   -9.0720 C   0  0  0  0  0  0  0  0  0  0  0  0
   -9.6030    2.4300   -7.9180 C   0  0  0  0  0  0  0  0  0  0  0  0
   -8.9080    2.7130   -6.9600 O   0  0  0  0  0  0  0  0  0  0  0  0
   -8.9920    4.0860   -6.6390 C   0  0  0  0  0  0  0  0  0  0  0  0
   -8.4670    4.9100   -7.6480 C   0  0  0  0  0  0  0  0  0  0  0  0
   -8.8340    4.7890  -11.4180 C   0  0  0  0  0  0  0  0  0  0  0  0
   -9.0220    5.7520  -12.4090 C   0  0  0  0  0  0  0  0  0  0  0  0
   -9.0740    5.3650  -13.6950 N   0  0  0  0  0  0  0  0  0  0  0  0
   -7.8140    4.8220  -14.0610 C   0  0  0  0  0  0  0  0  0  0  0  0
   -7.4360    5.0590  -15.3440 C   0  0  0  0  0  0  0  0  0  0  0  0
   -6.1420    5.4610  -15.6870 C   0  0  0  0  0  0  0  0  0  0  0  0
   -5.9630    5.6210  -17.0030 O   0  0  0  0  0  0  0  0  0  0  0  0
   -7.1850    5.3090  -17.5360 C   0  0  0  0  0  0  0  0  0  0  0  0
   -7.5470    5.2960  -18.8950 C   0  0  0  0  0  0  0  0  0  0  0  0
   -8.8530    4.9470  -19.2380 C   0  0  0  0  0  0  0  0  0  0  0  0
   -9.7940    4.6280  -18.2700 C   0  0  0  0  0  0  0  0  0  0  0  0
   -9.4520    4.6360  -16.9210 C   0  0  0  0  0  0  0  0  0  0  0  0
   -8.1450    4.9680  -16.5670 C   0  0  0  0  0  0  0  0  0  0  0  0
  -10.1130    7.7070  -13.9380 H   0  0  0  0  0  0  0  0  0  0  0  0
   -9.6810    9.0620  -12.8690 H   0  0  0  0  0  0  0  0  0  0  0  0
   -8.4090    8.2450  -13.8000 H   0  0  0  0  0  0  0  0  0  0  0  0
   -9.1580    8.6480  -10.6030 H   0  0  0  0  0  0  0  0  0  0  0  0
   -8.8120    7.0500   -8.7290 H   0  0  0  0  0  0  0  0  0  0  0  0
   -9.8180    2.9140   -9.8760 H   0  0  0  0  0  0  0  0  0  0  0  0
   -8.2520    2.3520   -9.3970 H   0  0  0  0  0  0  0  0  0  0  0  0
   -9.5880    1.3460   -8.0080 H   0  0  0  0  0  0  0  0  0  0  0  0
  -10.6250    2.7020   -7.6550 H   0  0  0  0  0  0  0  0  0  0  0  0
  -10.0600    4.3140   -6.5440 H   0  0  0  0  0  0  0  0  0  0  0  0
   -8.6030    4.1670   -5.6280 H   0  0  0  0  0  0  0  0  0  0  0  0
   -9.0150    5.8520   -7.6670 H   0  0  0  0  0  0  0  0  0  0  0  0
   -7.4140    5.1300   -7.4280 H   0  0  0  0  0  0  0  0  0  0  0  0
   -8.7570    3.7570  -11.7510 H   0  0  0  0  0  0  0  0  0  0  0  0
   -9.3630    6.1110  -14.3170 H   0  0  0  0  0  0  0  0  0  0  0  0
   -7.0350    5.2510  -13.4130 H   0  0  0  0  0  0  0  0  0  0  0  0
   -7.8200    3.7410  -13.8880 H   0  0  0  0  0  0  0  0  0  0  0  0
   -5.3820    5.6110  -14.9130 H   0  0  0  0  0  0  0  0  0  0  0  0
   -6.8210    5.5520  -19.6560 H   0  0  0  0  0  0  0  0  0  0  0  0
   -9.1430    4.9300  -20.2870 H   0  0  0  0  0  0  0  0  0  0  0  0
  -10.8060    4.3680  -18.5620 H   0  0  0  0  0  0  0  0  0  0  0  0
  -10.1880    4.3860  -16.1660 H   0  0  0  0  0  0  0  0  0  0  0  0
  1  2  1  0
  2  3  2  0
  3  4  1  0
  4  5  2  0
  5  6  1  0
  6  7  1  0
  7  8  1  0
  8  9  1  0
  9 10  1  0
 10 11  1  0
  5 12  1  0
 12 13  2  0
 13 14  1  0
 14 15  1  0
 15 16  1  0
 16 17  2  0
 17 18  1  0
 18 19  1  0
 19 20  2  0
 20 21  1  0
 21 22  2  0
 22 23  1  0
 23 24  2  0
 13  2  1  0
 11  6  1  0
 24 16  1  0
 24 19  1  0
  1 25  1  0
  1 26  1  0
  1 27  1  0
  3 28  1  0
  4 29  1  0
  7 30  1  0
  7 31  1  0
  8 32  1  0
  8 33  1  0
 10 34  1  0
 10 35  1  0
 11 36  1  0
 11 37  1  0
 12 38  1  0
 14 39  1  0
 15 40  1  0
 15 41  1  0
 17 42  1  0
 20 43  1  0
 21 44  1  0
 22 45  1  0
 23 46  1  0
A    1
 C1 
A    2
 C2 
A    3
 C3 
A    4
 C4 
A    5
 C5 
A    6
 N1 
A    7
 C6 
A    8
 C7 
A    9
 O1 
A   10
 C8 
A   11
 C9 
A   12
 C10
A   13
 C11
A   14
 N2 
A   15
 C12
A   16
 C13
A   17
 C14
A   18
 O2 
A   19
 C15
A   20
 C16
A   21
 C17
A   22
 C18
A   23
 C19
A   24
 C20
A   25
 H1 
A   26
 H2 
A   27
 H3 
A   28
 H4 
A   29
 H5 
A   30
 H6 
A   31
 H7 
A   32
 H8 
A   33
 H9 
A   34
 H10
A   35
 H11
A   36
 H12
A   37
 H13
A   38
 H14
A   39
 H15
A   40
 H16
A   41
 H17
A   42
 H18
A   43
 H19
A   44
 H20
A   45
 H21
A   46
 H22
M  END
>  <ref_pdb>  (51) 
x0051_0B

>  <ref_mols>  (51) 
x0404_0B,x0951_0B

>  <original SMILES>  (51) 
[H]c1oc2c([H])c([H])c([H])c([H])c2c1C([H])([H])N([H])c1c([H])c(N2C([H])([H])C([H])([H])OC([H])([H])C2([H])[H])c([H])c([H])c1C([H])([H])[H]

>  <index>  (51) 
1159

>  <∆∆G>  (51) 
-8.713414

>  <∆G_bound>  (51) 
-8.53299

>  <∆G_unbound>  (51) 
0.180424

>  <comRMSD>  (51) 
0.711931

>  <N_constrained_atoms>  (51) 
25.0

>  <N_unconstrained_atoms>  (51) 
1.0

>  <runtime>  (51) 
74.819616

>  <LE>  (51) 
0.335131

>  <percent_hybrid>  (51) 
44.0

>  <dist>  (51) 
6.0

>  <ecfp4>  (51) 
0.30137

>  <daylight>  (51) 
0.194915

>  <topodist>  (51) 
1.0

>  <mces>  (51) 
26.0

>  <tdn>  (51) 
0.0

>  <tup>  (51) 
0.0

>  <rdn>  (51) 
0.0

>  <rup>  (51) 
0.0

>  <ldn>  (51) 
0.0

>  <lup>  (51) 
1.0

>  <mut>  (51) 
5.0

>  <maj>  (51) 
5.0

>  <min>  (51) 
0.0

>  <hyb>  (51) 
0.0

>  <sub>  (51) 
0.0

>  <query_index>  (51) 
58.0

>  <max_hit_Tanimoto>  (51) 
0.20122

>  <largest_ring>  (51) 
6

>  <N_interactions_kept>  (51) 
1.0

>  <N_interactions_lost>  (51) 
3.0

>  <interaction_uniqueness_metric>  (51) 
0.173507

>  <ad_hoc_penalty>  (51) 
-11.701209

>  <N_rotatable_bonds>  (51) 
5

>  <N_HA>  (51) 
24

>  <cluster>  (51) 
5154

>  <N_interactions>  (51) 
6

>  <Enamine>  (51) 
1

>  <Mcule>  (51) 
0

>  <N_PAINS>  (51) 
0

>  <UFF_Gibbs>  (51) 
182.649417

>  <strain_per_HA>  (51) 
7.610392

>  <intxn_scored>  (51) 
12.0

>  <saltbridge:HIS:51>  (51) 
0

>  <pistack:HIS:51>  (51) 
1

>  <hydroph_interaction:HIS:51>  (51) 
1

>  <hbond:ALA:132>  (51) 
0

>  <hbond:SER:135>  (51) 
0

>  <hydroph_interaction:TYR:150>  (51) 
1

>  <pistack:TYR:161>  (51) 
2

>  <hydroph_interaction:TYR:161>  (51) 
0

>  <hydroph_interaction:ASP:83>  (51) 
0

>  <hbond:TYR:130>  (51) 
0

>  <hydroph_interaction:ALA:132>  (51) 
0

>  <hbond:HIS:51>  (51) 
1

>  <hbond:ASP:129>  (51) 
0

>  <hbond:TYR:150>  (51) 
0

>  <hbond:GLY:151>  (51) 
0

>  <hbond:TYR:161>  (51) 
0

>  <hydroph_interaction:TYR:130>  (51) 
0

>  <hydroph_interaction:PRO:131>  (51) 
0

>  <hydroph_interaction:ASP:129>  (51) 
0

>  <saltbridge:ASP:75>  (51) 
0

>  <saltbridge:ASP:83>  (51) 
0

>  <hbond:ASN:152>  (51) 
0

>  <hydroph_interaction:ASN:152>  (51) 
0

>  <halogenbond:TYR:150>  (51) 
0

>  <hbond:ASP:83>  (51) 
0

>  <hydroph_interaction:VAL:155>  (51) 
0

>  <pication:TYR:161>  (51) 
0

>  <hbond:PRO:131>  (51) 
0

>  <saltbridge:ASP:129>  (51) 
0

>  <hbond:THR:134>  (51) 
0

>  <pication:HIS:51>  (51) 
0

>  <hbond:SER:81>  (51) 
0

>  <hydroph_interaction:THR:134>  (51) 
0

>  <hydroph_interaction:MET:49>  (51) 
0

$$$$
Z4910380085
     RDKit          3D

 44 47  0  0  0  0  0  0  0  0999 V2000
   -6.5140    6.3360  -20.2210 N   0  0  0  0  0  0  0  0  0  0  0  0
   -6.4070    5.2800  -19.2350 C   0  0  0  0  0  0  0  0  0  0  0  0
   -5.4150    5.5050  -18.3680 C   0  0  0  0  0  0  0  0  0  0  0  0
   -5.7980    5.6090  -16.9830 C   0  0  0  0  0  0  0  0  0  0  0  0
   -7.1180    5.3900  -16.8860 C   0  0  0  0  0  0  0  0  0  0  0  0
   -7.5540    5.1720  -18.2400 C   0  0  0  0  0  0  0  0  0  0  0  0
   -8.8710    4.9060  -18.4560 C   0  0  0  0  0  0  0  0  0  0  0  0
   -9.7760    4.8610  -17.3250 C   0  0  0  0  0  0  0  0  0  0  0  0
   -9.3680    5.0900  -15.9100 C   0  0  0  0  0  0  0  0  0  0  0  0
   -7.9620    5.3620  -15.7340 C   0  0  0  0  0  0  0  0  0  0  0  0
   -7.4040    5.6030  -14.4230 C   0  0  0  0  0  0  0  0  0  0  0  0
   -6.1910    5.4920  -14.2690 O   0  0  0  0  0  0  0  0  0  0  0  0
   -8.2340    5.9830  -13.3420 N   0  0  0  0  0  0  0  0  0  0  0  0
   -8.8060    4.9740  -12.4470 C   0  0  0  0  0  0  0  0  0  0  0  0
   -8.8070    5.2660  -11.0450 C   0  0  0  0  0  0  0  0  0  0  0  0
   -8.9170    4.2400  -10.1190 C   0  0  0  0  0  0  0  0  0  0  0  0
   -9.0410    2.7770  -10.2580 C   0  0  0  0  0  0  0  0  0  0  0  0
   -8.7230    2.1450   -8.9800 N   0  0  0  0  0  0  0  0  0  0  0  0
   -9.4600    2.7730   -7.8770 C   0  0  0  0  0  0  0  0  0  0  0  0
   -9.0030    4.0750   -7.6310 C   0  0  0  0  0  0  0  0  0  0  0  0
   -8.8990    4.8210   -8.8800 N   0  0  0  0  0  0  0  0  0  0  0  0
   -8.7760    6.1650   -8.9190 N   0  0  0  0  0  0  0  0  0  0  0  0
   -8.7220    6.4390  -10.2440 C   0  0  0  0  0  0  0  0  0  0  0  0
   -6.5980    7.2320  -19.7470 H   0  0  0  0  0  0  0  0  0  0  0  0
   -7.3610    6.2390  -20.7880 H   0  0  0  0  0  0  0  0  0  0  0  0
   -6.2710    4.3330  -19.7510 H   0  0  0  0  0  0  0  0  0  0  0  0
   -4.8540    6.3920  -18.6680 H   0  0  0  0  0  0  0  0  0  0  0  0
   -4.6930    4.6790  -18.4310 H   0  0  0  0  0  0  0  0  0  0  0  0
   -5.5260    6.5980  -16.6010 H   0  0  0  0  0  0  0  0  0  0  0  0
   -5.2720    4.8460  -16.3990 H   0  0  0  0  0  0  0  0  0  0  0  0
   -9.2350    4.7320  -19.4670 H   0  0  0  0  0  0  0  0  0  0  0  0
  -10.8200    4.6480  -17.5300 H   0  0  0  0  0  0  0  0  0  0  0  0
  -10.0860    5.0480  -15.0930 H   0  0  0  0  0  0  0  0  0  0  0  0
   -8.6770    6.8910  -13.3610 H   0  0  0  0  0  0  0  0  0  0  0  0
   -8.2480    4.0470  -12.6250 H   0  0  0  0  0  0  0  0  0  0  0  0
   -9.8270    4.7840  -12.7900 H   0  0  0  0  0  0  0  0  0  0  0  0
  -10.0800    2.5420  -10.5140 H   0  0  0  0  0  0  0  0  0  0  0  0
   -8.4320    2.2870  -11.0120 H   0  0  0  0  0  0  0  0  0  0  0  0
   -7.7170    2.2200   -8.8180 H   0  0  0  0  0  0  0  0  0  0  0  0
   -9.3580    2.1560   -6.9760 H   0  0  0  0  0  0  0  0  0  0  0  0
  -10.5260    2.7970   -8.1220 H   0  0  0  0  0  0  0  0  0  0  0  0
   -8.0160    4.0570   -7.1580 H   0  0  0  0  0  0  0  0  0  0  0  0
   -9.7030    4.6230   -6.9920 H   0  0  0  0  0  0  0  0  0  0  0  0
   -8.6230    7.4680  -10.5660 H   0  0  0  0  0  0  0  0  0  0  0  0
  1  2  1  0
  2  3  1  0
  3  4  1  0
  4  5  1  0
  5  6  2  0
  6  7  1  0
  7  8  2  0
  8  9  1  0
  9 10  2  0
 10 11  1  0
 11 12  2  0
 11 13  1  0
 13 14  1  0
 14 15  1  0
 15 16  2  0
 16 17  1  0
 17 18  1  0
 18 19  1  0
 19 20  1  0
 20 21  1  0
 21 22  1  0
 22 23  2  0
  6  2  1  0
 10  5  1  0
 23 15  1  0
 21 16  1  0
  1 24  1  0
  1 25  1  0
  2 26  1  0
  3 27  1  0
  3 28  1  0
  4 29  1  0
  4 30  1  0
  7 31  1  0
  8 32  1  0
  9 33  1  0
 13 34  1  0
 14 35  1  0
 14 36  1  0
 17 37  1  0
 17 38  1  0
 18 39  1  0
 19 40  1  0
 19 41  1  0
 20 42  1  0
 20 43  1  0
 23 44  1  0
A    1
 N1 
A    2
 C1 
A    3
 C2 
A    4
 C3 
A    5
 C4 
A    6
 C5 
A    7
 C6 
A    8
 C7 
A    9
 C8 
A   10
 C9 
A   11
 C10
A   12
 O1 
A   13
 N2 
A   14
 C11
A   15
 C12
A   16
 C13
A   17
 C14
A   18
 N3 
A   19
 C15
A   20
 C16
A   21
 N4 
A   22
 N5 
A   23
 C17
A   24
 H1 
A   25
 H2 
A   26
 H3 
A   27
 H4 
A   28
 H5 
A   29
 H6 
A   30
 H7 
A   31
 H8 
A   32
 H9 
A   33
 H10
A   34
 H11
A   35
 H12
A   36
 H13
A   37
 H14
A   38
 H15
A   39
 H16
A   40
 H17
A   41
 H18
A   42
 H19
A   43
 H20
A   44
 H21
M  END
>  <ref_pdb>  (52) 
x0051_0B

>  <ref_mols>  (52) 
x0435_0B,x0969_1B

>  <original SMILES>  (52) 
[H]c1nn2c(c1C([H])([H])N([H])C(=O)c1c([H])c([H])c([H])c3c1C([H])([H])C([H])([H])C3([H])N([H])[H])C([H])([H])N([H])C([H])([H])C2([H])[H]

>  <index>  (52) 
1377

>  <∆∆G>  (52) 
-7.750806

>  <∆G_bound>  (52) 
-6.987423

>  <∆G_unbound>  (52) 
0.763382

>  <comRMSD>  (52) 
0.532562

>  <N_constrained_atoms>  (52) 
20.0

>  <N_unconstrained_atoms>  (52) 
3.0

>  <runtime>  (52) 
62.958107

>  <LE>  (52) 
0.336992

>  <percent_hybrid>  (52) 
50.0

>  <dist>  (52) 
7.0

>  <ecfp4>  (52) 
0.292683

>  <daylight>  (52) 
0.422442

>  <topodist>  (52) 
1.0

>  <mces>  (52) 
25.0

>  <tdn>  (52) 
0.0

>  <tup>  (52) 
1.0

>  <rdn>  (52) 
0.0

>  <rup>  (52) 
0.0

>  <ldn>  (52) 
0.0

>  <lup>  (52) 
0.0

>  <mut>  (52) 
5.0

>  <maj>  (52) 
5.0

>  <min>  (52) 
0.0

>  <hyb>  (52) 
1.0

>  <sub>  (52) 
0.0

>  <query_index>  (52) 
311.0

>  <max_hit_Tanimoto>  (52) 
0.487073

>  <largest_ring>  (52) 
6

>  <N_interactions_kept>  (52) 
1.5

>  <N_interactions_lost>  (52) 
2.0

>  <interaction_uniqueness_metric>  (52) 
0.172906

>  <ad_hoc_penalty>  (52) 
-13.821175

>  <N_rotatable_bonds>  (52) 
4

>  <N_HA>  (52) 
23

>  <cluster>  (52) 
4955

>  <N_interactions>  (52) 
4

>  <Enamine>  (52) 
1

>  <Mcule>  (52) 
0

>  <N_PAINS>  (52) 
0

>  <UFF_Gibbs>  (52) 
89.157787

>  <strain_per_HA>  (52) 
3.876426

>  <intxn_scored>  (52) 
12.0

>  <saltbridge:HIS:51>  (52) 
0

>  <pistack:HIS:51>  (52) 
1

>  <hydroph_interaction:HIS:51>  (52) 
0

>  <hbond:ALA:132>  (52) 
0

>  <hbond:SER:135>  (52) 
0

>  <hydroph_interaction:TYR:150>  (52) 
0

>  <pistack:TYR:161>  (52) 
2

>  <hydroph_interaction:TYR:161>  (52) 
0

>  <hydroph_interaction:ASP:83>  (52) 
0

>  <hbond:TYR:130>  (52) 
0

>  <hydroph_interaction:ALA:132>  (52) 
0

>  <hbond:HIS:51>  (52) 
0

>  <hbond:ASP:129>  (52) 
0

>  <hbond:TYR:150>  (52) 
0

>  <hbond:GLY:151>  (52) 
0

>  <hbond:TYR:161>  (52) 
0

>  <hydroph_interaction:TYR:130>  (52) 
0

>  <hydroph_interaction:PRO:131>  (52) 
0

>  <hydroph_interaction:ASP:129>  (52) 
0

>  <saltbridge:ASP:75>  (52) 
0

>  <saltbridge:ASP:83>  (52) 
0

>  <hbond:ASN:152>  (52) 
0

>  <hydroph_interaction:ASN:152>  (52) 
0

>  <halogenbond:TYR:150>  (52) 
0

>  <hbond:ASP:83>  (52) 
1

>  <hydroph_interaction:VAL:155>  (52) 
0

>  <pication:TYR:161>  (52) 
0

>  <hbond:PRO:131>  (52) 
0

>  <saltbridge:ASP:129>  (52) 
0

>  <hbond:THR:134>  (52) 
0

>  <pication:HIS:51>  (52) 
0

>  <hbond:SER:81>  (52) 
0

>  <hydroph_interaction:THR:134>  (52) 
0

>  <hydroph_interaction:MET:49>  (52) 
0

$$$$
Z27039637
     RDKit          3D

 50 54  0  0  0  0  0  0  0  0999 V2000
   -5.6120    5.3100  -21.7390 O   0  0  0  0  0  0  0  0  0  0  0  0
   -4.9850    6.3460  -21.5800 C   0  0  0  0  0  0  0  0  0  0  0  0
   -3.8950    6.5400  -20.7290 N   0  0  0  0  0  0  0  0  0  0  0  0
   -3.3770    5.4980  -20.0600 N   0  0  0  0  0  0  0  0  0  0  0  0
   -3.5290    5.4930  -18.6920 C   0  0  0  0  0  0  0  0  0  0  0  0
   -2.5630    5.4900  -17.9290 O   0  0  0  0  0  0  0  0  0  0  0  0
   -4.8390    5.4790  -18.1950 C   0  0  0  0  0  0  0  0  0  0  0  0
   -5.0780    5.8830  -16.8760 C   0  0  0  0  0  0  0  0  0  0  0  0
   -6.3600    5.8660  -16.3510 C   0  0  0  0  0  0  0  0  0  0  0  0
   -7.4610    5.4090  -17.2130 C   0  0  0  0  0  0  0  0  0  0  0  0
   -8.8210    5.2650  -16.9990 N   0  0  0  0  0  0  0  0  0  0  0  0
   -9.3800    4.7950  -18.1510 C   0  0  0  0  0  0  0  0  0  0  0  0
   -8.3660    4.6240  -19.1600 N   0  0  0  0  0  0  0  0  0  0  0  0
   -7.2170    5.0150  -18.5230 C   0  0  0  0  0  0  0  0  0  0  0  0
   -5.9020    5.0530  -19.0170 C   0  0  0  0  0  0  0  0  0  0  0  0
   -5.3350    7.5390  -22.3490 C   0  0  0  0  0  0  0  0  0  0  0  0
   -4.8850    8.8700  -21.7640 C   0  0  0  0  0  0  0  0  0  0  0  0
   -5.2850   10.0140  -22.6650 C   0  0  0  0  0  0  0  0  0  0  0  0
   -5.9780    9.8060  -23.8630 C   0  0  0  0  0  0  0  0  0  0  0  0
   -6.3330   10.9560  -24.7450 C   0  0  0  0  0  0  0  0  0  0  0  0
   -5.9100   10.5030  -26.4560 S   0  0  0  0  0  0  0  0  0  0  0  0
   -7.3690    9.7630  -26.9820 C   0  0  0  0  0  0  0  0  0  0  0  0
   -8.5160   10.3590  -27.1250 N   0  0  0  0  0  0  0  0  0  0  0  0
   -9.3650    9.3770  -27.5550 C   0  0  0  0  0  0  0  0  0  0  0  0
  -10.7290    9.4530  -27.8560 C   0  0  0  0  0  0  0  0  0  0  0  0
  -11.3880    8.2910  -28.2790 C   0  0  0  0  0  0  0  0  0  0  0  0
  -10.7040    7.0840  -28.4030 C   0  0  0  0  0  0  0  0  0  0  0  0
   -9.3390    6.9890  -28.1050 C   0  0  0  0  0  0  0  0  0  0  0  0
   -8.7050    8.1550  -27.6810 C   0  0  0  0  0  0  0  0  0  0  0  0
   -7.4200    8.4390  -27.3050 N   0  0  0  0  0  0  0  0  0  0  0  0
   -6.3490    8.5320  -24.2880 C   0  0  0  0  0  0  0  0  0  0  0  0
   -6.0380    7.4210  -23.5550 C   0  0  0  0  0  0  0  0  0  0  0  0
   -3.8850    7.4300  -20.2400 H   0  0  0  0  0  0  0  0  0  0  0  0
   -2.7840    4.8630  -20.5930 H   0  0  0  0  0  0  0  0  0  0  0  0
   -4.2440    6.2130  -16.2590 H   0  0  0  0  0  0  0  0  0  0  0  0
   -6.5450    6.1800  -15.3250 H   0  0  0  0  0  0  0  0  0  0  0  0
   -9.3140    5.4710  -16.1390 H   0  0  0  0  0  0  0  0  0  0  0  0
  -10.4370    4.5920  -18.2570 H   0  0  0  0  0  0  0  0  0  0  0  0
   -5.7530    4.7370  -20.0370 H   0  0  0  0  0  0  0  0  0  0  0  0
   -4.3440    8.9920  -20.8280 H   0  0  0  0  0  0  0  0  0  0  0  0
   -5.0180   11.0270  -22.3710 H   0  0  0  0  0  0  0  0  0  0  0  0
   -7.3790   11.2460  -24.6540 H   0  0  0  0  0  0  0  0  0  0  0  0
   -5.7390   11.8340  -24.4600 H   0  0  0  0  0  0  0  0  0  0  0  0
  -11.2570   10.3930  -27.7590 H   0  0  0  0  0  0  0  0  0  0  0  0
  -12.4500    8.3420  -28.5140 H   0  0  0  0  0  0  0  0  0  0  0  0
  -11.2410    6.2000  -28.7350 H   0  0  0  0  0  0  0  0  0  0  0  0
   -8.8100    6.0480  -28.2010 H   0  0  0  0  0  0  0  0  0  0  0  0
   -6.6460    7.7950  -27.2680 H   0  0  0  0  0  0  0  0  0  0  0  0
   -6.8900    8.4070  -25.2220 H   0  0  0  0  0  0  0  0  0  0  0  0
   -6.3490    6.4550  -23.9420 H   0  0  0  0  0  0  0  0  0  0  0  0
  1  2  2  0
  2  3  1  0
  3  4  1  0
  4  5  1  0
  5  6  2  0
  5  7  1  0
  7  8  2  0
  8  9  1  0
  9 10  2  0
 10 11  1  0
 11 12  1  0
 12 13  2  0
 13 14  1  0
 14 15  2  0
  2 16  1  0
 16 17  2  0
 17 18  1  0
 18 19  2  0
 19 20  1  0
 20 21  1  0
 21 22  1  0
 22 23  2  0
 23 24  1  0
 24 25  2  0
 25 26  1  0
 26 27  2  0
 27 28  1  0
 28 29  2  0
 29 30  1  0
 19 31  1  0
 31 32  2  0
 15  7  1  0
 14 10  1  0
 32 16  1  0
 30 22  1  0
 29 24  1  0
  3 33  1  0
  4 34  1  0
  8 35  1  0
  9 36  1  0
 11 37  1  0
 12 38  1  0
 15 39  1  0
 17 40  1  0
 18 41  1  0
 20 42  1  0
 20 43  1  0
 25 44  1  0
 26 45  1  0
 27 46  1  0
 28 47  1  0
 30 48  1  0
 31 49  1  0
 32 50  1  0
A    1
 O1 
A    2
 C1 
A    3
 N1 
A    4
 N2 
A    5
 C2 
A    6
 O2 
A    7
 C3 
A    8
 C4 
A    9
 C5 
A   10
 C6 
A   11
 N3 
A   12
 C7 
A   13
 N4 
A   14
 C8 
A   15
 C9 
A   16
 C10
A   17
 C11
A   18
 C12
A   19
 C13
A   20
 C14
A   21
 S1 
A   22
 C15
A   23
 N5 
A   24
 C16
A   25
 C17
A   26
 C18
A   27
 C19
A   28
 C20
A   29
 C21
A   30
 N6 
A   31
 C22
A   32
 C23
A   33
 H1 
A   34
 H2 
A   35
 H3 
A   36
 H4 
A   37
 H5 
A   38
 H6 
A   39
 H7 
A   40
 H8 
A   41
 H9 
A   42
 H10
A   43
 H11
A   44
 H12
A   45
 H13
A   46
 H14
A   47
 H15
A   48
 H16
A   49
 H17
A   50
 H18
M  END
>  <ref_pdb>  (53) 
x0051_0B

>  <ref_mols>  (53) 
x0051_0B,x0846_1B

>  <original SMILES>  (53) 
[H]c1c([H])c(C([H])([H])Sc2nc3c([H])c([H])c([H])c([H])c3n2[H])c([H])c([H])c1C(=O)N([H])N([H])C(=O)c1c([H])c([H])c2c(nc([H])n2[H])c1[H]

>  <index>  (53) 
365

>  <∆∆G>  (53) 
-8.064691

>  <∆G_bound>  (53) 
-7.12783

>  <∆G_unbound>  (53) 
0.936861

>  <comRMSD>  (53) 
0.583408

>  <N_constrained_atoms>  (53) 
30.0

>  <N_unconstrained_atoms>  (53) 
3.0

>  <runtime>  (53) 
52.093193

>  <LE>  (53) 
0.244385

>  <percent_hybrid>  (53) 
40.0

>  <dist>  (53) 
10.0

>  <ecfp4>  (53) 
0.215054

>  <daylight>  (53) 
0.219231

>  <topodist>  (53) 
4.0

>  <mces>  (53) 
34.0

>  <tdn>  (53) 
2.0

>  <tup>  (53) 
2.0

>  <rdn>  (53) 
0.0

>  <rup>  (53) 
0.0

>  <ldn>  (53) 
0.0

>  <lup>  (53) 
0.0

>  <mut>  (53) 
5.0

>  <maj>  (53) 
5.0

>  <min>  (53) 
0.0

>  <hyb>  (53) 
1.0

>  <sub>  (53) 
2.0

>  <query_index>  (53) 
185.0

>  <max_hit_Tanimoto>  (53) 
0.312661

>  <largest_ring>  (53) 
0

>  <N_interactions_kept>  (53) 
1.0

>  <N_interactions_lost>  (53) 
2.5

>  <interaction_uniqueness_metric>  (53) 
0.196459

>  <ad_hoc_penalty>  (53) 
-22.628397

>  <N_rotatable_bonds>  (53) 
5

>  <N_HA>  (53) 
32

>  <cluster>  (53) 
5884

>  <N_interactions>  (53) 
7

>  <Enamine>  (53) 
1

>  <Mcule>  (53) 
0

>  <N_PAINS>  (53) 
0

>  <UFF_Gibbs>  (53) 
169.840521

>  <strain_per_HA>  (53) 
5.307516

>  <intxn_scored>  (53) 
12.0

>  <saltbridge:HIS:51>  (53) 
0

>  <pistack:HIS:51>  (53) 
0

>  <hydroph_interaction:HIS:51>  (53) 
0

>  <hbond:ALA:132>  (53) 
0

>  <hbond:SER:135>  (53) 
0

>  <hydroph_interaction:TYR:150>  (53) 
0

>  <pistack:TYR:161>  (53) 
2

>  <hydroph_interaction:TYR:161>  (53) 
1

>  <hydroph_interaction:ASP:83>  (53) 
0

>  <hbond:TYR:130>  (53) 
1

>  <hydroph_interaction:ALA:132>  (53) 
0

>  <hbond:HIS:51>  (53) 
0

>  <hbond:ASP:129>  (53) 
1

>  <hbond:TYR:150>  (53) 
0

>  <hbond:GLY:151>  (53) 
0

>  <hbond:TYR:161>  (53) 
0

>  <hydroph_interaction:TYR:130>  (53) 
1

>  <hydroph_interaction:PRO:131>  (53) 
1

>  <hydroph_interaction:ASP:129>  (53) 
0

>  <saltbridge:ASP:75>  (53) 
0

>  <saltbridge:ASP:83>  (53) 
0

>  <hbond:ASN:152>  (53) 
0

>  <hydroph_interaction:ASN:152>  (53) 
0

>  <halogenbond:TYR:150>  (53) 
0

>  <hbond:ASP:83>  (53) 
0

>  <hydroph_interaction:VAL:155>  (53) 
0

>  <pication:TYR:161>  (53) 
0

>  <hbond:PRO:131>  (53) 
0

>  <saltbridge:ASP:129>  (53) 
0

>  <hbond:THR:134>  (53) 
0

>  <pication:HIS:51>  (53) 
0

>  <hbond:SER:81>  (53) 
0

>  <hydroph_interaction:THR:134>  (53) 
0

>  <hydroph_interaction:MET:49>  (53) 
0

$$$$
CSCS03437705286
     RDKit          3D

 34 36  0  0  0  0  0  0  0  0999 V2000
   -8.7860    5.4920   -8.3030 C   0  0  0  0  0  0  0  0  0  0  0  0
   -8.7080    5.3140   -9.8120 C   0  0  0  0  0  0  0  0  0  0  0  0
   -8.5780    3.8830  -10.2850 C   0  0  0  0  0  0  0  0  0  0  0  0
   -8.4880    3.6250  -11.6500 C   0  0  0  0  0  0  0  0  0  0  0  0
   -8.5240    4.7750  -12.6290 C   0  0  0  0  0  0  0  0  0  0  0  0
   -8.4190    4.6090  -14.0270 N   0  0  0  0  0  0  0  0  0  0  0  0
   -7.8310    5.5340  -14.8660 C   0  0  0  0  0  0  0  0  0  0  0  0
   -7.2130    6.5200  -14.4940 O   0  0  0  0  0  0  0  0  0  0  0  0
   -7.9860    5.3550  -16.3390 C   0  0  0  0  0  0  0  0  0  0  0  0
   -9.2740    5.1500  -16.7670 C   0  0  0  0  0  0  0  0  0  0  0  0
   -9.5150    5.0040  -18.1110 C   0  0  0  0  0  0  0  0  0  0  0  0
  -11.2050    4.8050  -18.6920 Br  0  0  0  0  0  0  0  0  0  0  0  0
   -8.5620    5.0310  -19.0780 C   0  0  0  0  0  0  0  0  0  0  0  0
   -7.2920    5.2290  -18.6810 C   0  0  0  0  0  0  0  0  0  0  0  0
   -6.9910    5.3900  -17.3280 C   0  0  0  0  0  0  0  0  0  0  0  0
   -5.6480    5.5860  -17.1330 O   0  0  0  0  0  0  0  0  0  0  0  0
   -5.0460    5.4940  -18.4540 C   0  0  0  0  0  0  0  0  0  0  0  0
   -6.1010    5.3170  -19.5260 C   0  0  0  0  0  0  0  0  0  0  0  0
   -8.6580    6.0880  -12.1260 C   0  0  0  0  0  0  0  0  0  0  0  0
   -8.7490    6.3560  -10.7440 C   0  0  0  0  0  0  0  0  0  0  0  0
   -7.8050    5.3340   -7.8470 H   0  0  0  0  0  0  0  0  0  0  0  0
   -9.4870    4.7790   -7.8580 H   0  0  0  0  0  0  0  0  0  0  0  0
   -9.1180    6.5030   -8.0570 H   0  0  0  0  0  0  0  0  0  0  0  0
   -8.5500    3.0560   -9.5800 H   0  0  0  0  0  0  0  0  0  0  0  0
   -8.3890    2.5910  -11.9720 H   0  0  0  0  0  0  0  0  0  0  0  0
   -8.2310    3.6390  -14.3140 H   0  0  0  0  0  0  0  0  0  0  0  0
  -10.0920    5.1170  -16.0520 H   0  0  0  0  0  0  0  0  0  0  0  0
   -8.8160    4.9100  -20.1270 H   0  0  0  0  0  0  0  0  0  0  0  0
   -4.3500    4.6500  -18.4390 H   0  0  0  0  0  0  0  0  0  0  0  0
   -4.4580    6.3950  -18.6340 H   0  0  0  0  0  0  0  0  0  0  0  0
   -5.9250    4.4400  -20.1440 H   0  0  0  0  0  0  0  0  0  0  0  0
   -6.1680    6.2030  -20.1620 H   0  0  0  0  0  0  0  0  0  0  0  0
   -8.6910    6.9330  -12.8120 H   0  0  0  0  0  0  0  0  0  0  0  0
   -8.8480    7.3830  -10.4070 H   0  0  0  0  0  0  0  0  0  0  0  0
  1  2  1  0
  2  3  2  0
  3  4  1  0
  4  5  2  0
  5  6  1  0
  6  7  1  0
  7  8  2  0
  7  9  1  0
  9 10  2  0
 10 11  1  0
 11 12  1  0
 11 13  2  0
 13 14  1  0
 14 15  2  0
 15 16  1  0
 16 17  1  0
 17 18  1  0
  5 19  1  0
 19 20  2  0
 20  2  1  0
 15  9  1  0
 18 14  1  0
  1 21  1  0
  1 22  1  0
  1 23  1  0
  3 24  1  0
  4 25  1  0
  6 26  1  0
 10 27  1  0
 13 28  1  0
 17 29  1  0
 17 30  1  0
 18 31  1  0
 18 32  1  0
 19 33  1  0
 20 34  1  0
A    1
 C1 
A    2
 C2 
A    3
 C3 
A    4
 C4 
A    5
 C5 
A    6
 N1 
A    7
 C6 
A    8
 O1 
A    9
 C7 
A   10
 C8 
A   11
 C9 
A   12
BR1 
A   13
 C10
A   14
 C11
A   15
 C12
A   16
 O2 
A   17
 C13
A   18
 C14
A   19
 C15
A   20
 C16
A   21
 H1 
A   22
 H2 
A   23
 H3 
A   24
 H4 
A   25
 H5 
A   26
 H6 
A   27
 H7 
A   28
 H8 
A   29
 H9 
A   30
 H10
A   31
 H11
A   32
 H12
A   33
 H13
A   34
 H14
M  END
>  <ref_pdb>  (54) 
x0051_0B

>  <ref_mols>  (54) 
x1098_0B,x0490_0B

>  <original SMILES>  (54) 
[H]c1c(Br)c([H])c2c(c1C(=O)N([H])c1c([H])c([H])c(C([H])([H])[H])c([H])c1[H])OC([H])([H])C2([H])[H]

>  <index>  (54) 
4013

>  <∆∆G>  (54) 
-5.481986

>  <∆G_bound>  (54) 
-4.724945

>  <∆G_unbound>  (54) 
0.757041

>  <comRMSD>  (54) 
0.806817

>  <N_constrained_atoms>  (54) 
18.0

>  <N_unconstrained_atoms>  (54) 
2.0

>  <runtime>  (54) 
64.119798

>  <LE>  (54) 
0.274099

>  <percent_hybrid>  (54) 
10.0

>  <dist>  (54) 
8.0

>  <ecfp4>  (54) 
0.1625

>  <daylight>  (54) 
0.252101

>  <topodist>  (54) 
4.0

>  <mces>  (54) 
20.0

>  <tdn>  (54) 
2.0

>  <tup>  (54) 
1.0

>  <rdn>  (54) 
0.0

>  <rup>  (54) 
0.0

>  <ldn>  (54) 
0.0

>  <lup>  (54) 
1.0

>  <mut>  (54) 
4.0

>  <maj>  (54) 
4.0

>  <min>  (54) 
0.0

>  <hyb>  (54) 
0.0

>  <sub>  (54) 
1.0

>  <query_index>  (54) 
69.0

>  <max_hit_Tanimoto>  (54) 
0.308554

>  <largest_ring>  (54) 
6

>  <N_interactions_kept>  (54) 
2.0

>  <N_interactions_lost>  (54) 
4.0

>  <interaction_uniqueness_metric>  (54) 
0.131078

>  <ad_hoc_penalty>  (54) 
-0.666457

>  <N_rotatable_bonds>  (54) 
3

>  <N_HA>  (54) 
20

>  <cluster>  (54) 
2483

>  <N_interactions>  (54) 
6

>  <Enamine>  (54) 
1

>  <Mcule>  (54) 
0

>  <N_PAINS>  (54) 
0

>  <UFF_Gibbs>  (54) 
46.19235

>  <strain_per_HA>  (54) 
2.309618

>  <intxn_scored>  (54) 
11.5

>  <saltbridge:HIS:51>  (54) 
0

>  <pistack:HIS:51>  (54) 
1

>  <hydroph_interaction:HIS:51>  (54) 
1

>  <hbond:ALA:132>  (54) 
0

>  <hbond:SER:135>  (54) 
0

>  <hydroph_interaction:TYR:150>  (54) 
0

>  <pistack:TYR:161>  (54) 
2

>  <hydroph_interaction:TYR:161>  (54) 
1

>  <hydroph_interaction:ASP:83>  (54) 
0

>  <hbond:TYR:130>  (54) 
0

>  <hydroph_interaction:ALA:132>  (54) 
0

>  <hbond:HIS:51>  (54) 
0

>  <hbond:ASP:129>  (54) 
0

>  <hbond:TYR:150>  (54) 
0

>  <hbond:GLY:151>  (54) 
1

>  <hbond:TYR:161>  (54) 
0

>  <hydroph_interaction:TYR:130>  (54) 
0

>  <hydroph_interaction:PRO:131>  (54) 
0

>  <hydroph_interaction:ASP:129>  (54) 
0

>  <saltbridge:ASP:75>  (54) 
0

>  <saltbridge:ASP:83>  (54) 
0

>  <hbond:ASN:152>  (54) 
0

>  <hydroph_interaction:ASN:152>  (54) 
0

>  <halogenbond:TYR:150>  (54) 
0

>  <hbond:ASP:83>  (54) 
0

>  <hydroph_interaction:VAL:155>  (54) 
0

>  <pication:TYR:161>  (54) 
0

>  <hbond:PRO:131>  (54) 
0

>  <saltbridge:ASP:129>  (54) 
0

>  <hbond:THR:134>  (54) 
0

>  <pication:HIS:51>  (54) 
0

>  <hbond:SER:81>  (54) 
0

>  <hydroph_interaction:THR:134>  (54) 
0

>  <hydroph_interaction:MET:49>  (54) 
0

$$$$
CSSS00000040781
     RDKit          3D

 22 23  0  0  0  0  0  0  0  0999 V2000
  -11.0410    4.9570  -18.5670 C   0  0  0  0  0  0  0  0  0  0  0  0
   -9.6450    4.9800  -18.0440 C   0  0  0  0  0  0  0  0  0  0  0  0
   -8.6560    5.0640  -19.1730 C   0  0  0  0  0  0  0  0  0  0  0  0
   -7.2330    5.1590  -18.7260 C   0  0  0  0  0  0  0  0  0  0  0  0
   -6.1830    5.2650  -19.8010 C   0  0  0  0  0  0  0  0  0  0  0  0
   -6.4270    5.2680  -21.1570 O   0  0  0  0  0  0  0  0  0  0  0  0
   -4.8700    5.3670  -19.3920 C   0  0  0  0  0  0  0  0  0  0  0  0
   -4.5530    5.3630  -18.0290 C   0  0  0  0  0  0  0  0  0  0  0  0
   -5.5420    5.2570  -17.0320 C   0  0  0  0  0  0  0  0  0  0  0  0
   -6.8960    5.1530  -17.3630 C   0  0  0  0  0  0  0  0  0  0  0  0
   -7.8960    5.0480  -16.3780 C   0  0  0  0  0  0  0  0  0  0  0  0
   -9.2560    4.9640  -16.7090 C   0  0  0  0  0  0  0  0  0  0  0  0
  -11.0420    5.2810  -19.6080 H   0  0  0  0  0  0  0  0  0  0  0  0
  -11.5850    5.7170  -18.0720 H   0  0  0  0  0  0  0  0  0  0  0  0
  -11.5830    4.0400  -18.4410 H   0  0  0  0  0  0  0  0  0  0  0  0
   -8.9760    5.0680  -20.2100 H   0  0  0  0  0  0  0  0  0  0  0  0
   -7.2450    5.7800  -21.3460 H   0  0  0  0  0  0  0  0  0  0  0  0
   -4.0800    5.4500  -20.1350 H   0  0  0  0  0  0  0  0  0  0  0  0
   -3.5140    5.4430  -17.7330 H   0  0  0  0  0  0  0  0  0  0  0  0
   -5.2270    5.2590  -15.9900 H   0  0  0  0  0  0  0  0  0  0  0  0
   -7.6240    5.0350  -15.3260 H   0  0  0  0  0  0  0  0  0  0  0  0
   -9.9980    4.8970  -15.9170 H   0  0  0  0  0  0  0  0  0  0  0  0
  1  2  1  0
  2  3  2  0
  3  4  1  0
  4  5  2  0
  5  6  1  0
  5  7  1  0
  7  8  2  0
  8  9  1  0
  9 10  2  0
 10 11  1  0
 11 12  2  0
 12  2  1  0
 10  4  1  0
  1 13  1  0
  1 14  1  0
  1 15  1  0
  3 16  1  0
  6 17  1  0
  7 18  1  0
  8 19  1  0
  9 20  1  0
 11 21  1  0
 12 22  1  0
A    1
 C1 
A    2
 C2 
A    3
 C3 
A    4
 C4 
A    5
 C5 
A    6
 O1 
A    7
 C6 
A    8
 C7 
A    9
 C8 
A   10
 C9 
A   11
 C10
A   12
 C11
A   13
 H1 
A   14
 H2 
A   15
 H3 
A   16
 H4 
A   17
 H5 
A   18
 H6 
A   19
 H7 
A   20
 H8 
A   21
 H9 
A   22
 H10
M  END
>  <ref_pdb>  (55) 
x0051_0B

>  <ref_mols>  (55) 
x0727_0B,x0605_0B

>  <original SMILES>  (55) 
[H]Oc1c([H])c([H])c([H])c2c([H])c([H])c(C([H])([H])[H])c([H])c12

>  <index>  (55) 
2509

>  <∆∆G>  (55) 
-7.461791

>  <∆G_bound>  (55) 
-7.493757

>  <∆G_unbound>  (55) 
-0.031966

>  <comRMSD>  (55) 
0.690071

>  <N_constrained_atoms>  (55) 
12.0

>  <N_unconstrained_atoms>  (55) 
1.0

>  <runtime>  (55) 
25.652875

>  <LE>  (55) 
0.573984

>  <percent_hybrid>  (55) 
25.0

>  <dist>  (55) 
4.0

>  <ecfp4>  (55) 
0.325

>  <daylight>  (55) 
0.222222

>  <topodist>  (55) 
3.0

>  <mces>  (55) 
12.0

>  <tdn>  (55) 
2.0

>  <tup>  (55) 
1.0

>  <rdn>  (55) 
0.0

>  <rup>  (55) 
0.0

>  <ldn>  (55) 
0.0

>  <lup>  (55) 
0.0

>  <mut>  (55) 
1.0

>  <maj>  (55) 
1.0

>  <min>  (55) 
0.0

>  <hyb>  (55) 
0.0

>  <sub>  (55) 
2.0

>  <query_index>  (55) 
74.0

>  <max_hit_Tanimoto>  (55) 
0.14433

>  <largest_ring>  (55) 
6

>  <N_interactions_kept>  (55) 
0.0

>  <N_interactions_lost>  (55) 
3.5

>  <interaction_uniqueness_metric>  (55) 
0.067772

>  <ad_hoc_penalty>  (55) 
-7.016218

>  <N_rotatable_bonds>  (55) 
2

>  <N_HA>  (55) 
12

>  <cluster>  (55) 
3908

>  <N_interactions>  (55) 
5

>  <Enamine>  (55) 
1

>  <Mcule>  (55) 
0

>  <N_PAINS>  (55) 
0

>  <UFF_Gibbs>  (55) 
33.227017

>  <strain_per_HA>  (55) 
2.768918

>  <intxn_scored>  (55) 
11.5

>  <saltbridge:HIS:51>  (55) 
0

>  <pistack:HIS:51>  (55) 
0

>  <hydroph_interaction:HIS:51>  (55) 
0

>  <hbond:ALA:132>  (55) 
0

>  <hbond:SER:135>  (55) 
0

>  <hydroph_interaction:TYR:150>  (55) 
1

>  <pistack:TYR:161>  (55) 
2

>  <hydroph_interaction:TYR:161>  (55) 
1

>  <hydroph_interaction:ASP:83>  (55) 
0

>  <hbond:TYR:130>  (55) 
1

>  <hydroph_interaction:ALA:132>  (55) 
0

>  <hbond:HIS:51>  (55) 
0

>  <hbond:ASP:129>  (55) 
0

>  <hbond:TYR:150>  (55) 
0

>  <hbond:GLY:151>  (55) 
0

>  <hbond:TYR:161>  (55) 
0

>  <hydroph_interaction:TYR:130>  (55) 
0

>  <hydroph_interaction:PRO:131>  (55) 
0

>  <hydroph_interaction:ASP:129>  (55) 
0

>  <saltbridge:ASP:75>  (55) 
0

>  <saltbridge:ASP:83>  (55) 
0

>  <hbond:ASN:152>  (55) 
0

>  <hydroph_interaction:ASN:152>  (55) 
0

>  <halogenbond:TYR:150>  (55) 
0

>  <hbond:ASP:83>  (55) 
0

>  <hydroph_interaction:VAL:155>  (55) 
0

>  <pication:TYR:161>  (55) 
0

>  <hbond:PRO:131>  (55) 
0

>  <saltbridge:ASP:129>  (55) 
0

>  <hbond:THR:134>  (55) 
0

>  <pication:HIS:51>  (55) 
0

>  <hbond:SER:81>  (55) 
0

>  <hydroph_interaction:THR:134>  (55) 
0

>  <hydroph_interaction:MET:49>  (55) 
0

$$$$
Z1037507360
     RDKit          3D

 52 55  0  0  0  0  0  0  0  0999 V2000
   -7.1180    4.2890  -20.7480 O   0  0  0  0  0  0  0  0  0  0  0  0
   -6.3320    5.1030  -20.2770 C   0  0  0  0  0  0  0  0  0  0  0  0
   -6.5390    5.9130  -19.1070 N   0  0  0  0  0  0  0  0  0  0  0  0
   -7.7380    5.5100  -18.4350 C   0  0  0  0  0  0  0  0  0  0  0  0
   -7.8330    5.8380  -16.9310 C   0  0  0  0  0  0  0  0  0  0  0  0
   -9.1240    5.3950  -16.2970 C   0  0  0  0  0  0  0  0  0  0  0  0
   -9.3280    5.6870  -14.8320 C   0  0  0  0  0  0  0  0  0  0  0  0
   -9.7880    7.0340  -14.5860 N   0  0  0  0  0  0  0  0  0  0  0  0
   -9.2410    7.6780  -13.4950 C   0  0  0  0  0  0  0  0  0  0  0  0
   -8.9170    8.8640  -13.4990 O   0  0  0  0  0  0  0  0  0  0  0  0
   -9.0480    6.8800  -12.3520 C   0  0  0  0  0  0  0  0  0  0  0  0
   -8.8790    7.4350  -11.1130 C   0  0  0  0  0  0  0  0  0  0  0  0
   -8.6800    6.5910   -9.9310 C   0  0  0  0  0  0  0  0  0  0  0  0
   -8.6710    5.0960  -10.1580 C   0  0  0  0  0  0  0  0  0  0  0  0
   -8.4870    4.2110   -9.1100 N   0  0  0  0  0  0  0  0  0  0  0  0
   -8.4960    4.6610   -7.7270 C   0  0  0  0  0  0  0  0  0  0  0  0
   -9.0750    3.5610   -7.0320 C   0  0  0  0  0  0  0  0  0  0  0  0
   -9.6310    2.6180   -7.8350 C   0  0  0  0  0  0  0  0  0  0  0  0
   -9.0060    2.8500   -9.2160 C   0  0  0  0  0  0  0  0  0  0  0  0
   -8.8490    4.6580  -11.4340 N   0  0  0  0  0  0  0  0  0  0  0  0
   -9.0330    5.5260  -12.5090 N   0  0  0  0  0  0  0  0  0  0  0  0
  -10.0960    4.7460  -17.0200 C   0  0  0  0  0  0  0  0  0  0  0  0
   -9.9850    4.4760  -18.3450 C   0  0  0  0  0  0  0  0  0  0  0  0
   -8.7590    4.8650  -19.1200 C   0  0  0  0  0  0  0  0  0  0  0  0
   -5.0290    5.3230  -20.9120 C   0  0  0  0  0  0  0  0  0  0  0  0
   -3.9000    5.3040  -20.0940 C   0  0  0  0  0  0  0  0  0  0  0  0
   -2.6730    5.5020  -20.6860 C   0  0  0  0  0  0  0  0  0  0  0  0
   -2.5120    5.7160  -22.0100 N   0  0  0  0  0  0  0  0  0  0  0  0
   -3.6260    5.7350  -22.7750 C   0  0  0  0  0  0  0  0  0  0  0  0
   -4.9100    5.5450  -22.2710 C   0  0  0  0  0  0  0  0  0  0  0  0
   -5.7060    6.1350  -18.5780 H   0  0  0  0  0  0  0  0  0  0  0  0
   -7.0600    6.3460  -16.3630 H   0  0  0  0  0  0  0  0  0  0  0  0
   -8.3460    5.6450  -14.3530 H   0  0  0  0  0  0  0  0  0  0  0  0
   -9.9570    5.0270  -14.2490 H   0  0  0  0  0  0  0  0  0  0  0  0
  -10.7190    7.3090  -14.8980 H   0  0  0  0  0  0  0  0  0  0  0  0
   -8.8930    8.5120  -11.0050 H   0  0  0  0  0  0  0  0  0  0  0  0
   -8.5460    7.0310   -8.9460 H   0  0  0  0  0  0  0  0  0  0  0  0
   -7.4730    4.8360   -7.3910 H   0  0  0  0  0  0  0  0  0  0  0  0
   -9.0940    5.5660   -7.5540 H   0  0  0  0  0  0  0  0  0  0  0  0
   -9.6920    3.8520   -6.1870 H   0  0  0  0  0  0  0  0  0  0  0  0
   -8.2290    3.0430   -6.5610 H   0  0  0  0  0  0  0  0  0  0  0  0
  -10.7210    2.6730   -7.8600 H   0  0  0  0  0  0  0  0  0  0  0  0
   -9.3500    1.6240   -7.4820 H   0  0  0  0  0  0  0  0  0  0  0  0
   -8.1870    2.1310   -9.3500 H   0  0  0  0  0  0  0  0  0  0  0  0
   -9.6780    2.7640  -10.0660 H   0  0  0  0  0  0  0  0  0  0  0  0
  -11.0190    4.4000  -16.5920 H   0  0  0  0  0  0  0  0  0  0  0  0
  -10.7920    3.9670  -18.8690 H   0  0  0  0  0  0  0  0  0  0  0  0
   -8.7810    4.5980  -20.1810 H   0  0  0  0  0  0  0  0  0  0  0  0
   -3.9800    5.1350  -19.0260 H   0  0  0  0  0  0  0  0  0  0  0  0
   -1.7560    5.4950  -20.1010 H   0  0  0  0  0  0  0  0  0  0  0  0
   -3.4550    5.9110  -23.8330 H   0  0  0  0  0  0  0  0  0  0  0  0
   -5.7700    5.5700  -22.9290 H   0  0  0  0  0  0  0  0  0  0  0  0
  1  2  2  0
  2  3  1  0
  3  4  1  0
  4  5  2  0
  5  6  1  0
  6  7  1  0
  7  8  1  0
  8  9  1  0
  9 10  2  0
  9 11  1  0
 11 12  2  0
 12 13  1  0
 13 14  2  0
 14 15  1  0
 15 16  1  0
 16 17  1  0
 17 18  1  0
 18 19  1  0
 14 20  1  0
 20 21  2  0
  6 22  2  0
 22 23  1  0
 23 24  2  0
  2 25  1  0
 25 26  2  0
 26 27  1  0
 27 28  2  0
 28 29  1  0
 29 30  2  0
 24  4  1  0
 21 11  1  0
 19 15  1  0
 30 25  1  0
  3 31  1  0
  5 32  1  0
  7 33  1  0
  7 34  1  0
  8 35  1  0
 12 36  1  0
 13 37  1  0
 16 38  1  0
 16 39  1  0
 17 40  1  0
 17 41  1  0
 18 42  1  0
 18 43  1  0
 19 44  1  0
 19 45  1  0
 22 46  1  0
 23 47  1  0
 24 48  1  0
 26 49  1  0
 27 50  1  0
 29 51  1  0
 30 52  1  0
A    1
 O1 
A    2
 C1 
A    3
 N1 
A    4
 C2 
A    5
 C3 
A    6
 C4 
A    7
 C5 
A    8
 N2 
A    9
 C6 
A   10
 O2 
A   11
 C7 
A   12
 C8 
A   13
 C9 
A   14
 C10
A   15
 N3 
A   16
 C11
A   17
 C12
A   18
 C13
A   19
 C14
A   20
 N4 
A   21
 N5 
A   22
 C15
A   23
 C16
A   24
 C17
A   25
 C18
A   26
 C19
A   27
 C20
A   28
 N6 
A   29
 C21
A   30
 C22
A   31
 H1 
A   32
 H2 
A   33
 H3 
A   34
 H4 
A   35
 H5 
A   36
 H6 
A   37
 H7 
A   38
 H8 
A   39
 H9 
A   40
 H10
A   41
 H11
A   42
 H12
A   43
 H13
A   44
 H14
A   45
 H15
A   46
 H16
A   47
 H17
A   48
 H18
A   49
 H19
A   50
 H20
A   51
 H21
A   52
 H22
M  END
>  <ref_pdb>  (56) 
x0051_0B

>  <ref_mols>  (56) 
x0852_0B,x0404_0B

>  <original SMILES>  (56) 
[H]c1nc([H])c([H])c(C(=O)N([H])c2c([H])c([H])c([H])c(C([H])([H])N([H])C(=O)c3nnc(N4C([H])([H])C([H])([H])C([H])([H])C4([H])[H])c([H])c3[H])c2[H])c1[H]

>  <index>  (56) 
2982

>  <∆∆G>  (56) 
-6.69016

>  <∆G_bound>  (56) 
-5.857246

>  <∆G_unbound>  (56) 
0.832914

>  <comRMSD>  (56) 
0.596284

>  <N_constrained_atoms>  (56) 
34.0

>  <N_unconstrained_atoms>  (56) 
0.0

>  <runtime>  (56) 
141.197233

>  <LE>  (56) 
0.196769

>  <percent_hybrid>  (56) 
48.0

>  <dist>  (56) 
10.0

>  <ecfp4>  (56) 
0.21

>  <daylight>  (56) 
0.280405

>  <topodist>  (56) 
5.0

>  <mces>  (56) 
33.0

>  <tdn>  (56) 
4.0

>  <tup>  (56) 
0.0

>  <rdn>  (56) 
0.0

>  <rup>  (56) 
0.0

>  <ldn>  (56) 
1.0

>  <lup>  (56) 
0.0

>  <mut>  (56) 
4.0

>  <maj>  (56) 
4.0

>  <min>  (56) 
0.0

>  <hyb>  (56) 
1.0

>  <sub>  (56) 
3.0

>  <query_index>  (56) 
6.0

>  <max_hit_Tanimoto>  (56) 
0.368164

>  <largest_ring>  (56) 
6

>  <N_interactions_kept>  (56) 
2.0

>  <N_interactions_lost>  (56) 
5.0

>  <interaction_uniqueness_metric>  (56) 
0.246066

>  <ad_hoc_penalty>  (56) 
-1.384442

>  <N_rotatable_bonds>  (56) 
6

>  <N_HA>  (56) 
30

>  <cluster>  (56) 
3462

>  <N_interactions>  (56) 
9

>  <Enamine>  (56) 
1

>  <Mcule>  (56) 
0

>  <N_PAINS>  (56) 
0

>  <UFF_Gibbs>  (56) 
233.265513

>  <strain_per_HA>  (56) 
7.775517

>  <intxn_scored>  (56) 
11.5

>  <saltbridge:HIS:51>  (56) 
0

>  <pistack:HIS:51>  (56) 
1

>  <hydroph_interaction:HIS:51>  (56) 
1

>  <hbond:ALA:132>  (56) 
1

>  <hbond:SER:135>  (56) 
0

>  <hydroph_interaction:TYR:150>  (56) 
1

>  <pistack:TYR:161>  (56) 
1

>  <hydroph_interaction:TYR:161>  (56) 
1

>  <hydroph_interaction:ASP:83>  (56) 
0

>  <hbond:TYR:130>  (56) 
1

>  <hydroph_interaction:ALA:132>  (56) 
1

>  <hbond:HIS:51>  (56) 
0

>  <hbond:ASP:129>  (56) 
0

>  <hbond:TYR:150>  (56) 
0

>  <hbond:GLY:151>  (56) 
0

>  <hbond:TYR:161>  (56) 
0

>  <hydroph_interaction:TYR:130>  (56) 
0

>  <hydroph_interaction:PRO:131>  (56) 
0

>  <hydroph_interaction:ASP:129>  (56) 
1

>  <saltbridge:ASP:75>  (56) 
0

>  <saltbridge:ASP:83>  (56) 
0

>  <hbond:ASN:152>  (56) 
0

>  <hydroph_interaction:ASN:152>  (56) 
0

>  <halogenbond:TYR:150>  (56) 
0

>  <hbond:ASP:83>  (56) 
0

>  <hydroph_interaction:VAL:155>  (56) 
0

>  <pication:TYR:161>  (56) 
0

>  <hbond:PRO:131>  (56) 
0

>  <saltbridge:ASP:129>  (56) 
0

>  <hbond:THR:134>  (56) 
0

>  <pication:HIS:51>  (56) 
0

>  <hbond:SER:81>  (56) 
0

>  <hydroph_interaction:THR:134>  (56) 
0

>  <hydroph_interaction:MET:49>  (56) 
0

$$$$
CSCS00000013446
     RDKit          3D

 23 25  0  0  0  0  0  0  0  0999 V2000
   -5.5720    4.8620  -14.9660 O   0  0  0  0  0  0  0  0  0  0  0  0
   -6.3380    5.8100  -15.6780 C   0  0  0  0  0  0  0  0  0  0  0  0
   -7.7150    5.5440  -15.5080 C   0  0  0  0  0  0  0  0  0  0  0  0
   -8.4080    5.2610  -16.6740 C   0  0  0  0  0  0  0  0  0  0  0  0
   -9.7500    4.9720  -16.8120 C   0  0  0  0  0  0  0  0  0  0  0  0
  -10.2420    4.7030  -18.2540 C   0  0  0  0  0  0  0  0  0  0  0  0
   -9.2750    4.7690  -19.2820 C   0  0  0  0  0  0  0  0  0  0  0  0
   -7.9310    5.0670  -19.0060 C   0  0  0  0  0  0  0  0  0  0  0  0
   -6.8690    5.1590  -19.8990 C   0  0  0  0  0  0  0  0  0  0  0  0
   -5.5700    5.4650  -19.4560 C   0  0  0  0  0  0  0  0  0  0  0  0
   -5.1870    5.7090  -18.1260 C   0  0  0  0  0  0  0  0  0  0  0  0
   -6.2090    5.6360  -17.1700 C   0  0  0  0  0  0  0  0  0  0  0  0
   -7.5860    5.2960  -17.7130 C   0  0  0  0  0  0  0  0  0  0  0  0
   -5.4010    4.1210  -15.5730 H   0  0  0  0  0  0  0  0  0  0  0  0
   -6.0830    6.8230  -15.3480 H   0  0  0  0  0  0  0  0  0  0  0  0
   -7.8500    4.7010  -14.8150 H   0  0  0  0  0  0  0  0  0  0  0  0
   -8.1860    6.3920  -14.9980 H   0  0  0  0  0  0  0  0  0  0  0  0
  -10.4100    4.9400  -15.9540 H   0  0  0  0  0  0  0  0  0  0  0  0
  -11.2900    4.4780  -18.4220 H   0  0  0  0  0  0  0  0  0  0  0  0
   -9.5820    4.5840  -20.3080 H   0  0  0  0  0  0  0  0  0  0  0  0
   -7.0830    4.9820  -20.9600 H   0  0  0  0  0  0  0  0  0  0  0  0
   -4.8150    5.5080  -20.2470 H   0  0  0  0  0  0  0  0  0  0  0  0
   -4.1610    5.9400  -17.8630 H   0  0  0  0  0  0  0  0  0  0  0  0
  1  2  1  0
  2  3  1  0
  3  4  1  0
  4  5  2  0
  5  6  1  0
  6  7  2  0
  7  8  1  0
  8  9  2  0
  9 10  1  0
 10 11  2  0
 11 12  1  0
 12 13  2  0
 12  2  1  0
 13  4  1  0
 13  8  1  0
  1 14  1  0
  2 15  1  0
  3 16  1  0
  3 17  1  0
  5 18  1  0
  6 19  1  0
  7 20  1  0
  9 21  1  0
 10 22  1  0
 11 23  1  0
A    1
 O1 
A    2
 C1 
A    3
 C2 
A    4
 C3 
A    5
 C4 
A    6
 C5 
A    7
 C6 
A    8
 C7 
A    9
 C8 
A   10
 C9 
A   11
 C10
A   12
 C11
A   13
 C12
A   14
 H1 
A   15
 H2 
A   16
 H3 
A   17
 H4 
A   18
 H5 
A   19
 H6 
A   20
 H7 
A   21
 H8 
A   22
 H9 
A   23
 H10
M  END
>  <ref_pdb>  (57) 
x0051_0B

>  <ref_mols>  (57) 
x0727_0B,x0455_0B

>  <original SMILES>  (57) 
[H]OC1([H])c2c([H])c([H])c([H])c3c([H])c([H])c([H])c(c23)C1([H])[H]

>  <index>  (57) 
806

>  <∆∆G>  (57) 
-6.795026

>  <∆G_bound>  (57) 
-6.76641

>  <∆G_unbound>  (57) 
0.028615

>  <comRMSD>  (57) 
0.854707

>  <N_constrained_atoms>  (57) 
14.0

>  <N_unconstrained_atoms>  (57) 
1.0

>  <runtime>  (57) 
19.112678

>  <LE>  (57) 
0.453002

>  <percent_hybrid>  (57) 
34.0

>  <dist>  (57) 
3.0

>  <ecfp4>  (57) 
0.27907

>  <daylight>  (57) 
0.281553

>  <topodist>  (57) 
1.0

>  <mces>  (57) 
15.0

>  <tdn>  (57) 
0.0

>  <tup>  (57) 
0.0

>  <rdn>  (57) 
0.0

>  <rup>  (57) 
0.0

>  <ldn>  (57) 
1.0

>  <lup>  (57) 
0.0

>  <mut>  (57) 
2.0

>  <maj>  (57) 
2.0

>  <min>  (57) 
0.0

>  <hyb>  (57) 
0.0

>  <sub>  (57) 
0.0

>  <query_index>  (57) 
57.0

>  <max_hit_Tanimoto>  (57) 
0.154275

>  <largest_ring>  (57) 
6

>  <N_interactions_kept>  (57) 
0.0

>  <N_interactions_lost>  (57) 
3.0

>  <interaction_uniqueness_metric>  (57) 
0.050285

>  <ad_hoc_penalty>  (57) 
-16.729522

>  <N_rotatable_bonds>  (57) 
1

>  <N_HA>  (57) 
13

>  <cluster>  (57) 
5478

>  <N_interactions>  (57) 
6

>  <Enamine>  (57) 
1

>  <Mcule>  (57) 
0

>  <N_PAINS>  (57) 
0

>  <UFF_Gibbs>  (57) 
53.501911

>  <strain_per_HA>  (57) 
4.115532

>  <intxn_scored>  (57) 
11.5

>  <saltbridge:HIS:51>  (57) 
0

>  <pistack:HIS:51>  (57) 
0

>  <hydroph_interaction:HIS:51>  (57) 
0

>  <hbond:ALA:132>  (57) 
0

>  <hbond:SER:135>  (57) 
0

>  <hydroph_interaction:TYR:150>  (57) 
1

>  <pistack:TYR:161>  (57) 
2

>  <hydroph_interaction:TYR:161>  (57) 
3

>  <hydroph_interaction:ASP:83>  (57) 
0

>  <hbond:TYR:130>  (57) 
0

>  <hydroph_interaction:ALA:132>  (57) 
0

>  <hbond:HIS:51>  (57) 
0

>  <hbond:ASP:129>  (57) 
0

>  <hbond:TYR:150>  (57) 
0

>  <hbond:GLY:151>  (57) 
0

>  <hbond:TYR:161>  (57) 
0

>  <hydroph_interaction:TYR:130>  (57) 
0

>  <hydroph_interaction:PRO:131>  (57) 
0

>  <hydroph_interaction:ASP:129>  (57) 
0

>  <saltbridge:ASP:75>  (57) 
0

>  <saltbridge:ASP:83>  (57) 
0

>  <hbond:ASN:152>  (57) 
0

>  <hydroph_interaction:ASN:152>  (57) 
0

>  <halogenbond:TYR:150>  (57) 
0

>  <hbond:ASP:83>  (57) 
0

>  <hydroph_interaction:VAL:155>  (57) 
0

>  <pication:TYR:161>  (57) 
0

>  <hbond:PRO:131>  (57) 
0

>  <saltbridge:ASP:129>  (57) 
0

>  <hbond:THR:134>  (57) 
0

>  <pication:HIS:51>  (57) 
0

>  <hbond:SER:81>  (57) 
0

>  <hydroph_interaction:THR:134>  (57) 
0

>  <hydroph_interaction:MET:49>  (57) 
0

$$$$
CSSS00000080862
     RDKit          3D

 24 26  0  0  0  0  0  0  0  0999 V2000
  -10.1730    4.9370  -17.4760 N   0  0  0  0  0  0  0  0  0  0  0  0
   -8.9230    4.9470  -18.1060 C   0  0  0  0  0  0  0  0  0  0  0  0
   -7.6430    5.1510  -17.3990 C   0  0  0  0  0  0  0  0  0  0  0  0
   -7.6380    5.3450  -16.0170 C   0  0  0  0  0  0  0  0  0  0  0  0
   -6.4380    5.5050  -15.3340 C   0  0  0  0  0  0  0  0  0  0  0  0
   -5.2570    5.4560  -16.0700 C   0  0  0  0  0  0  0  0  0  0  0  0
   -3.8700    5.5450  -15.6290 C   0  0  0  0  0  0  0  0  0  0  0  0
   -3.0190    5.4340  -16.8100 C   0  0  0  0  0  0  0  0  0  0  0  0
   -3.9060    5.2820  -17.8820 C   0  0  0  0  0  0  0  0  0  0  0  0
   -5.2380    5.2910  -17.4300 N   0  0  0  0  0  0  0  0  0  0  0  0
   -6.4410    5.1370  -18.1490 C   0  0  0  0  0  0  0  0  0  0  0  0
   -6.4590    4.9490  -19.5270 C   0  0  0  0  0  0  0  0  0  0  0  0
   -7.6700    4.7570  -20.1730 C   0  0  0  0  0  0  0  0  0  0  0  0
   -8.8890    4.7580  -19.4700 C   0  0  0  0  0  0  0  0  0  0  0  0
  -10.7560    5.6940  -17.8190 H   0  0  0  0  0  0  0  0  0  0  0  0
  -10.0550    5.0340  -16.4660 H   0  0  0  0  0  0  0  0  0  0  0  0
   -8.5740    5.3700  -15.4710 H   0  0  0  0  0  0  0  0  0  0  0  0
   -6.4100    5.6610  -14.2600 H   0  0  0  0  0  0  0  0  0  0  0  0
   -3.5420    5.6750  -14.6080 H   0  0  0  0  0  0  0  0  0  0  0  0
   -1.9390    5.4600  -16.8600 H   0  0  0  0  0  0  0  0  0  0  0  0
   -3.6780    5.1630  -18.9290 H   0  0  0  0  0  0  0  0  0  0  0  0
   -5.5520    4.9380  -20.1190 H   0  0  0  0  0  0  0  0  0  0  0  0
   -7.6750    4.6050  -21.2440 H   0  0  0  0  0  0  0  0  0  0  0  0
   -9.8100    4.6120  -20.0130 H   0  0  0  0  0  0  0  0  0  0  0  0
  1  2  1  0
  2  3  2  0
  3  4  1  0
  4  5  2  0
  5  6  1  0
  6  7  2  0
  7  8  1  0
  8  9  2  0
  9 10  1  0
 10 11  1  0
 11 12  2  0
 12 13  1  0
 13 14  2  0
 14  2  1  0
 11  3  1  0
 10  6  1  0
  1 15  1  0
  1 16  1  0
  4 17  1  0
  5 18  1  0
  7 19  1  0
  8 20  1  0
  9 21  1  0
 12 22  1  0
 13 23  1  0
 14 24  1  0
A    1
 N1 
A    2
 C1 
A    3
 C2 
A    4
 C3 
A    5
 C4 
A    6
 C5 
A    7
 C6 
A    8
 C7 
A    9
 C8 
A   10
 N2 
A   11
 C9 
A   12
 C10
A   13
 C11
A   14
 C12
A   15
 H1 
A   16
 H2 
A   17
 H3 
A   18
 H4 
A   19
 H5 
A   20
 H6 
A   21
 H7 
A   22
 H8 
A   23
 H9 
A   24
 H10
M  END
>  <ref_pdb>  (58) 
x0051_0B

>  <ref_mols>  (58) 
x0680_0B,x0472_0B

>  <original SMILES>  (58) 
[H]c1c([H])c([H])c2c(c([H])c([H])c3c([H])c([H])c([H])n32)c1N([H])[H]

>  <index>  (58) 
726

>  <∆∆G>  (58) 
-5.367527

>  <∆G_bound>  (58) 
-5.290504

>  <∆G_unbound>  (58) 
0.077023

>  <comRMSD>  (58) 
0.804954

>  <N_constrained_atoms>  (58) 
15.0

>  <N_unconstrained_atoms>  (58) 
2.0

>  <runtime>  (58) 
20.041733

>  <LE>  (58) 
0.315737

>  <percent_hybrid>  (58) 
34.0

>  <dist>  (58) 
7.0

>  <ecfp4>  (58) 
0.089552

>  <daylight>  (58) 
0.109524

>  <topodist>  (58) 
2.0

>  <mces>  (58) 
16.0

>  <tdn>  (58) 
1.0

>  <tup>  (58) 
0.0

>  <rdn>  (58) 
0.0

>  <rup>  (58) 
0.0

>  <ldn>  (58) 
1.0

>  <lup>  (58) 
0.0

>  <mut>  (58) 
3.0

>  <maj>  (58) 
3.0

>  <min>  (58) 
0.0

>  <hyb>  (58) 
2.0

>  <sub>  (58) 
1.0

>  <query_index>  (58) 
38.0

>  <max_hit_Tanimoto>  (58) 
0.134301

>  <largest_ring>  (58) 
6

>  <N_interactions_kept>  (58) 
2.0

>  <N_interactions_lost>  (58) 
3.0

>  <interaction_uniqueness_metric>  (58) 
0.087709

>  <ad_hoc_penalty>  (58) 
-19.356181

>  <N_rotatable_bonds>  (58) 
1

>  <N_HA>  (58) 
14

>  <cluster>  (58) 
5555

>  <N_interactions>  (58) 
7

>  <Enamine>  (58) 
1

>  <Mcule>  (58) 
0

>  <N_PAINS>  (58) 
0

>  <UFF_Gibbs>  (58) 
36.888395

>  <strain_per_HA>  (58) 
2.634885

>  <intxn_scored>  (58) 
11.5

>  <saltbridge:HIS:51>  (58) 
0

>  <pistack:HIS:51>  (58) 
0

>  <hydroph_interaction:HIS:51>  (58) 
0

>  <hbond:ALA:132>  (58) 
0

>  <hbond:SER:135>  (58) 
0

>  <hydroph_interaction:TYR:150>  (58) 
1

>  <pistack:TYR:161>  (58) 
2

>  <hydroph_interaction:TYR:161>  (58) 
3

>  <hydroph_interaction:ASP:83>  (58) 
0

>  <hbond:TYR:130>  (58) 
0

>  <hydroph_interaction:ALA:132>  (58) 
0

>  <hbond:HIS:51>  (58) 
0

>  <hbond:ASP:129>  (58) 
0

>  <hbond:TYR:150>  (58) 
0

>  <hbond:GLY:151>  (58) 
1

>  <hbond:TYR:161>  (58) 
0

>  <hydroph_interaction:TYR:130>  (58) 
0

>  <hydroph_interaction:PRO:131>  (58) 
0

>  <hydroph_interaction:ASP:129>  (58) 
0

>  <saltbridge:ASP:75>  (58) 
0

>  <saltbridge:ASP:83>  (58) 
0

>  <hbond:ASN:152>  (58) 
0

>  <hydroph_interaction:ASN:152>  (58) 
0

>  <halogenbond:TYR:150>  (58) 
0

>  <hbond:ASP:83>  (58) 
0

>  <hydroph_interaction:VAL:155>  (58) 
0

>  <pication:TYR:161>  (58) 
0

>  <hbond:PRO:131>  (58) 
0

>  <saltbridge:ASP:129>  (58) 
0

>  <hbond:THR:134>  (58) 
0

>  <pication:HIS:51>  (58) 
0

>  <hbond:SER:81>  (58) 
0

>  <hydroph_interaction:THR:134>  (58) 
0

>  <hydroph_interaction:MET:49>  (58) 
0

$$$$
Z928927188
     RDKit          3D

 48 51  0  0  0  0  0  0  0  0999 V2000
   -8.9500    8.8120  -13.6910 O   0  0  0  0  0  0  0  0  0  0  0  0
   -9.0880    7.4970  -13.7180 C   0  0  0  0  0  0  0  0  0  0  0  0
   -9.2930    6.7950  -14.7840 N   0  0  0  0  0  0  0  0  0  0  0  0
   -8.2650    5.8220  -15.1450 C   0  0  0  0  0  0  0  0  0  0  0  0
   -8.4690    5.4490  -16.4410 C   0  0  0  0  0  0  0  0  0  0  0  0
   -9.6900    5.0680  -16.7760 C   0  0  0  0  0  0  0  0  0  0  0  0
   -9.9950    4.7110  -18.0270 C   0  0  0  0  0  0  0  0  0  0  0  0
   -8.9930    4.7260  -19.0510 C   0  0  0  0  0  0  0  0  0  0  0  0
   -7.7430    5.0930  -18.7480 C   0  0  0  0  0  0  0  0  0  0  0  0
   -6.7950    5.0880  -19.7610 C   0  0  0  0  0  0  0  0  0  0  0  0
   -5.3740    5.4800  -19.4800 C   0  0  0  0  0  0  0  0  0  0  0  0
   -4.9890    5.8540  -18.2090 C   0  0  0  0  0  0  0  0  0  0  0  0
   -6.0010    5.8730  -17.0860 C   0  0  0  0  0  0  0  0  0  0  0  0
   -7.4280    5.4700  -17.4120 C   0  0  0  0  0  0  0  0  0  0  0  0
   -8.9920    6.7470  -12.5600 C   0  0  0  0  0  0  0  0  0  0  0  0
   -8.7720    7.4020  -11.2080 C   0  0  0  0  0  0  0  0  0  0  0  0
   -8.6880    6.4760  -10.0040 C   0  0  0  0  0  0  0  0  0  0  0  0
   -8.8170    5.0910  -10.2170 C   0  0  0  0  0  0  0  0  0  0  0  0
   -8.7430    4.2730   -9.0940 N   0  0  0  0  0  0  0  0  0  0  0  0
   -9.0120    2.8220   -9.2490 C   0  0  0  0  0  0  0  0  0  0  0  0
   -9.6790    2.3340   -7.9590 C   0  0  0  0  0  0  0  0  0  0  0  0
   -8.8450    2.6140   -6.8240 O   0  0  0  0  0  0  0  0  0  0  0  0
   -8.7500    4.0290   -6.6470 C   0  0  0  0  0  0  0  0  0  0  0  0
   -8.0550    4.6790   -7.8500 C   0  0  0  0  0  0  0  0  0  0  0  0
   -9.0160    4.5680  -11.5060 C   0  0  0  0  0  0  0  0  0  0  0  0
   -9.1030    5.3640  -12.6450 C   0  0  0  0  0  0  0  0  0  0  0  0
  -10.2330    6.6430  -15.1350 H   0  0  0  0  0  0  0  0  0  0  0  0
   -8.1390    4.9330  -14.5480 H   0  0  0  0  0  0  0  0  0  0  0  0
   -7.3180    6.3390  -14.9970 H   0  0  0  0  0  0  0  0  0  0  0  0
  -10.4510    5.0470  -16.0250 H   0  0  0  0  0  0  0  0  0  0  0  0
  -11.0140    4.4140  -18.2480 H   0  0  0  0  0  0  0  0  0  0  0  0
   -9.2760    4.4340  -20.0570 H   0  0  0  0  0  0  0  0  0  0  0  0
   -7.0810    4.7940  -20.7680 H   0  0  0  0  0  0  0  0  0  0  0  0
   -4.6380    5.4700  -20.2800 H   0  0  0  0  0  0  0  0  0  0  0  0
   -3.9560    6.1360  -18.0130 H   0  0  0  0  0  0  0  0  0  0  0  0
   -5.6900    6.1700  -16.0860 H   0  0  0  0  0  0  0  0  0  0  0  0
   -8.6780    8.4750  -11.0820 H   0  0  0  0  0  0  0  0  0  0  0  0
   -8.5350    6.8880   -9.0130 H   0  0  0  0  0  0  0  0  0  0  0  0
   -8.0620    2.2870   -9.4000 H   0  0  0  0  0  0  0  0  0  0  0  0
   -9.6780    2.6010  -10.0910 H   0  0  0  0  0  0  0  0  0  0  0  0
   -9.8390    1.2590   -8.0030 H   0  0  0  0  0  0  0  0  0  0  0  0
  -10.6590    2.8050   -7.8070 H   0  0  0  0  0  0  0  0  0  0  0  0
   -9.7570    4.4410   -6.4910 H   0  0  0  0  0  0  0  0  0  0  0  0
   -8.1700    4.2070   -5.7350 H   0  0  0  0  0  0  0  0  0  0  0  0
   -7.0090    4.3500   -7.8570 H   0  0  0  0  0  0  0  0  0  0  0  0
   -8.0900    5.7720   -7.7340 H   0  0  0  0  0  0  0  0  0  0  0  0
   -9.1150    3.4970  -11.6570 H   0  0  0  0  0  0  0  0  0  0  0  0
   -9.2640    4.8810  -13.6110 H   0  0  0  0  0  0  0  0  0  0  0  0
  1  2  2  0
  2  3  1  0
  3  4  1  0
  4  5  1  0
  5  6  2  0
  6  7  1  0
  7  8  2  0
  8  9  1  0
  9 10  2  0
 10 11  1  0
 11 12  2  0
 12 13  1  0
 13 14  2  0
  2 15  1  0
 15 16  2  0
 16 17  1  0
 17 18  2  0
 18 19  1  0
 19 20  1  0
 20 21  1  0
 21 22  1  0
 22 23  1  0
 23 24  1  0
 18 25  1  0
 25 26  2  0
 14  5  1  0
 14  9  1  0
 26 15  1  0
 24 19  1  0
  3 27  1  0
  4 28  1  0
  4 29  1  0
  6 30  1  0
  7 31  1  0
  8 32  1  0
 10 33  1  0
 11 34  1  0
 12 35  1  0
 13 36  1  0
 16 37  1  0
 17 38  1  0
 20 39  1  0
 20 40  1  0
 21 41  1  0
 21 42  1  0
 23 43  1  0
 23 44  1  0
 24 45  1  0
 24 46  1  0
 25 47  1  0
 26 48  1  0
A    1
 O1 
A    2
 C1 
A    3
 N1 
A    4
 C2 
A    5
 C3 
A    6
 C4 
A    7
 C5 
A    8
 C6 
A    9
 C7 
A   10
 C8 
A   11
 C9 
A   12
 C10
A   13
 C11
A   14
 C12
A   15
 C13
A   16
 C14
A   17
 C15
A   18
 C16
A   19
 N2 
A   20
 C17
A   21
 C18
A   22
 O2 
A   23
 C19
A   24
 C20
A   25
 C21
A   26
 C22
A   27
 H1 
A   28
 H2 
A   29
 H3 
A   30
 H4 
A   31
 H5 
A   32
 H6 
A   33
 H7 
A   34
 H8 
A   35
 H9 
A   36
 H10
A   37
 H11
A   38
 H12
A   39
 H13
A   40
 H14
A   41
 H15
A   42
 H16
A   43
 H17
A   44
 H18
A   45
 H19
A   46
 H20
A   47
 H21
A   48
 H22
M  END
>  <ref_pdb>  (59) 
x0051_0B

>  <ref_mols>  (59) 
x0727_0B,x0404_0B

>  <original SMILES>  (59) 
[H]c1c([H])c(N2C([H])([H])C([H])([H])OC([H])([H])C2([H])[H])c([H])c([H])c1C(=O)N([H])C([H])([H])c1c([H])c([H])c([H])c2c([H])c([H])c([H])c([H])c12

>  <index>  (59) 
142

>  <∆∆G>  (59) 
-8.776467

>  <∆G_bound>  (59) 
-8.455695

>  <∆G_unbound>  (59) 
0.320772

>  <comRMSD>  (59) 
0.576933

>  <N_constrained_atoms>  (59) 
27.0

>  <N_unconstrained_atoms>  (59) 
0.0

>  <runtime>  (59) 
62.2425

>  <LE>  (59) 
0.325054

>  <percent_hybrid>  (59) 
41.0

>  <dist>  (59) 
8.0

>  <ecfp4>  (59) 
0.225

>  <daylight>  (59) 
0.177885

>  <topodist>  (59) 
3.0

>  <mces>  (59) 
29.0

>  <tdn>  (59) 
3.0

>  <tup>  (59) 
0.0

>  <rdn>  (59) 
0.0

>  <rup>  (59) 
0.0

>  <ldn>  (59) 
0.0

>  <lup>  (59) 
0.0

>  <mut>  (59) 
4.0

>  <maj>  (59) 
4.0

>  <min>  (59) 
0.0

>  <hyb>  (59) 
1.0

>  <sub>  (59) 
1.0

>  <query_index>  (59) 
0.0

>  <max_hit_Tanimoto>  (59) 
0.2384

>  <largest_ring>  (59) 
0

>  <N_interactions_kept>  (59) 
1.0

>  <N_interactions_lost>  (59) 
3.5

>  <interaction_uniqueness_metric>  (59) 
0.191843

>  <ad_hoc_penalty>  (59) 
-21.677796

>  <N_rotatable_bonds>  (59) 
4

>  <N_HA>  (59) 
26

>  <cluster>  (59) 
534

>  <N_interactions>  (59) 
9

>  <Enamine>  (59) 
1

>  <Mcule>  (59) 
0

>  <N_PAINS>  (59) 
0

>  <UFF_Gibbs>  (59) 
315.298642

>  <strain_per_HA>  (59) 
12.126871

>  <intxn_scored>  (59) 
11.5

>  <saltbridge:HIS:51>  (59) 
0

>  <pistack:HIS:51>  (59) 
1

>  <hydroph_interaction:HIS:51>  (59) 
1

>  <hbond:ALA:132>  (59) 
1

>  <hbond:SER:135>  (59) 
0

>  <hydroph_interaction:TYR:150>  (59) 
1

>  <pistack:TYR:161>  (59) 
1

>  <hydroph_interaction:TYR:161>  (59) 
3

>  <hydroph_interaction:ASP:83>  (59) 
0

>  <hbond:TYR:130>  (59) 
0

>  <hydroph_interaction:ALA:132>  (59) 
1

>  <hbond:HIS:51>  (59) 
0

>  <hbond:ASP:129>  (59) 
0

>  <hbond:TYR:150>  (59) 
0

>  <hbond:GLY:151>  (59) 
0

>  <hbond:TYR:161>  (59) 
0

>  <hydroph_interaction:TYR:130>  (59) 
0

>  <hydroph_interaction:PRO:131>  (59) 
0

>  <hydroph_interaction:ASP:129>  (59) 
0

>  <saltbridge:ASP:75>  (59) 
0

>  <saltbridge:ASP:83>  (59) 
0

>  <hbond:ASN:152>  (59) 
0

>  <hydroph_interaction:ASN:152>  (59) 
0

>  <halogenbond:TYR:150>  (59) 
0

>  <hbond:ASP:83>  (59) 
0

>  <hydroph_interaction:VAL:155>  (59) 
0

>  <pication:TYR:161>  (59) 
0

>  <hbond:PRO:131>  (59) 
0

>  <saltbridge:ASP:129>  (59) 
0

>  <hbond:THR:134>  (59) 
0

>  <pication:HIS:51>  (59) 
0

>  <hbond:SER:81>  (59) 
0

>  <hydroph_interaction:THR:134>  (59) 
0

>  <hydroph_interaction:MET:49>  (59) 
0

$$$$
CSSB00009860934
     RDKit          3D

 19 20  0  0  0  0  0  0  0  0999 V2000
  -10.5250    4.9350  -18.6170 C   0  0  0  0  0  0  0  0  0  0  0  0
   -9.1110    5.0620  -18.2370 C   0  0  0  0  0  0  0  0  0  0  0  0
   -8.1550    5.1060  -19.1140 N   0  0  0  0  0  0  0  0  0  0  0  0
   -6.9530    5.2750  -18.4700 C   0  0  0  0  0  0  0  0  0  0  0  0
   -5.7130    5.3690  -19.1280 C   0  0  0  0  0  0  0  0  0  0  0  0
   -5.6480    5.2890  -20.5320 N   0  0  0  0  0  0  0  0  0  0  0  0
   -4.5570    5.5390  -18.3570 C   0  0  0  0  0  0  0  0  0  0  0  0
   -4.6380    5.6150  -16.9680 C   0  0  0  0  0  0  0  0  0  0  0  0
   -5.8710    5.5220  -16.3120 C   0  0  0  0  0  0  0  0  0  0  0  0
   -7.0180    5.3510  -17.0860 C   0  0  0  0  0  0  0  0  0  0  0  0
   -8.6570    5.2020  -16.5920 S   0  0  0  0  0  0  0  0  0  0  0  0
  -10.8360    3.9120  -18.5920 H   0  0  0  0  0  0  0  0  0  0  0  0
  -11.1470    5.4960  -17.9380 H   0  0  0  0  0  0  0  0  0  0  0  0
  -10.6840    5.3350  -19.6220 H   0  0  0  0  0  0  0  0  0  0  0  0
   -6.2840    4.5960  -20.9030 H   0  0  0  0  0  0  0  0  0  0  0  0
   -5.8070    6.2110  -20.9400 H   0  0  0  0  0  0  0  0  0  0  0  0
   -3.5880    5.6120  -18.8430 H   0  0  0  0  0  0  0  0  0  0  0  0
   -3.7290    5.7480  -16.3850 H   0  0  0  0  0  0  0  0  0  0  0  0
   -5.9360    5.5800  -15.2330 H   0  0  0  0  0  0  0  0  0  0  0  0
  1  2  1  0
  2  3  2  0
  3  4  1  0
  4  5  2  0
  5  6  1  0
  5  7  1  0
  7  8  2  0
  8  9  1  0
  9 10  2  0
 10 11  1  0
 11  2  1  0
 10  4  1  0
  1 12  1  0
  1 13  1  0
  1 14  1  0
  6 15  1  0
  6 16  1  0
  7 17  1  0
  8 18  1  0
  9 19  1  0
A    1
 C1 
A    2
 C2 
A    3
 N1 
A    4
 C3 
A    5
 C4 
A    6
 N2 
A    7
 C5 
A    8
 C6 
A    9
 C7 
A   10
 C8 
A   11
 S1 
A   12
 H1 
A   13
 H2 
A   14
 H3 
A   15
 H4 
A   16
 H5 
A   17
 H6 
A   18
 H7 
A   19
 H8 
M  END
>  <ref_pdb>  (60) 
x0051_0B

>  <ref_mols>  (60) 
x0051_0B,x0435_0B

>  <original SMILES>  (60) 
[H]c1c([H])c([H])c2sc(C([H])([H])[H])nc2c1N([H])[H]

>  <index>  (60) 
3454

>  <∆∆G>  (60) 
-5.607992

>  <∆G_bound>  (60) 
-5.545174

>  <∆G_unbound>  (60) 
0.062818

>  <comRMSD>  (60) 
0.549599

>  <N_constrained_atoms>  (60) 
12.0

>  <N_unconstrained_atoms>  (60) 
0.0

>  <runtime>  (60) 
20.904579

>  <LE>  (60) 
0.467333

>  <percent_hybrid>  (60) 
25.0

>  <dist>  (60) 
3.0

>  <ecfp4>  (60) 
0.297872

>  <daylight>  (60) 
0.549618

>  <topodist>  (60) 
2.0

>  <mces>  (60) 
12.0

>  <tdn>  (60) 
2.0

>  <tup>  (60) 
0.0

>  <rdn>  (60) 
0.0

>  <rup>  (60) 
0.0

>  <ldn>  (60) 
0.0

>  <lup>  (60) 
0.0

>  <mut>  (60) 
1.0

>  <maj>  (60) 
1.0

>  <min>  (60) 
0.0

>  <hyb>  (60) 
0.0

>  <sub>  (60) 
1.0

>  <query_index>  (60) 
299.0

>  <max_hit_Tanimoto>  (60) 
0.399413

>  <largest_ring>  (60) 
6

>  <N_interactions_kept>  (60) 
1.0

>  <N_interactions_lost>  (60) 
3.5

>  <interaction_uniqueness_metric>  (60) 
0.067772

>  <ad_hoc_penalty>  (60) 
-3.197424

>  <N_rotatable_bonds>  (60) 
2

>  <N_HA>  (60) 
11

>  <cluster>  (60) 
417

>  <N_interactions>  (60) 
5

>  <Enamine>  (60) 
1

>  <Mcule>  (60) 
0

>  <N_PAINS>  (60) 
0

>  <UFF_Gibbs>  (60) 
19.595374

>  <strain_per_HA>  (60) 
1.781398

>  <intxn_scored>  (60) 
11.5

>  <saltbridge:HIS:51>  (60) 
0

>  <pistack:HIS:51>  (60) 
0

>  <hydroph_interaction:HIS:51>  (60) 
0

>  <hbond:ALA:132>  (60) 
0

>  <hbond:SER:135>  (60) 
0

>  <hydroph_interaction:TYR:150>  (60) 
1

>  <pistack:TYR:161>  (60) 
2

>  <hydroph_interaction:TYR:161>  (60) 
1

>  <hydroph_interaction:ASP:83>  (60) 
0

>  <hbond:TYR:130>  (60) 
1

>  <hydroph_interaction:ALA:132>  (60) 
0

>  <hbond:HIS:51>  (60) 
0

>  <hbond:ASP:129>  (60) 
0

>  <hbond:TYR:150>  (60) 
0

>  <hbond:GLY:151>  (60) 
0

>  <hbond:TYR:161>  (60) 
0

>  <hydroph_interaction:TYR:130>  (60) 
0

>  <hydroph_interaction:PRO:131>  (60) 
0

>  <hydroph_interaction:ASP:129>  (60) 
0

>  <saltbridge:ASP:75>  (60) 
0

>  <saltbridge:ASP:83>  (60) 
0

>  <hbond:ASN:152>  (60) 
0

>  <hydroph_interaction:ASN:152>  (60) 
0

>  <halogenbond:TYR:150>  (60) 
0

>  <hbond:ASP:83>  (60) 
0

>  <hydroph_interaction:VAL:155>  (60) 
0

>  <pication:TYR:161>  (60) 
0

>  <hbond:PRO:131>  (60) 
0

>  <saltbridge:ASP:129>  (60) 
0

>  <hbond:THR:134>  (60) 
0

>  <pication:HIS:51>  (60) 
0

>  <hbond:SER:81>  (60) 
0

>  <hydroph_interaction:THR:134>  (60) 
0

>  <hydroph_interaction:MET:49>  (60) 
0

$$$$
Z3553180198
     RDKit          3D

 41 44  0  0  0  0  0  0  0  0999 V2000
   -6.3840    5.0890  -20.2420 C   0  0  0  0  0  0  0  0  0  0  0  0
   -6.5610    5.1650  -18.9230 N   0  0  0  0  0  0  0  0  0  0  0  0
   -5.4060    5.4070  -18.2860 N   0  0  0  0  0  0  0  0  0  0  0  0
   -5.7240    5.4580  -16.9870 N   0  0  0  0  0  0  0  0  0  0  0  0
   -7.0860    5.2460  -16.8400 C   0  0  0  0  0  0  0  0  0  0  0  0
   -7.9040    5.2080  -15.6950 C   0  0  0  0  0  0  0  0  0  0  0  0
   -7.3220    5.4130  -14.4150 C   0  0  0  0  0  0  0  0  0  0  0  0
   -8.1760    4.9240  -13.3100 O   0  0  0  0  0  0  0  0  0  0  0  0
   -8.7520    5.9250  -12.5270 C   0  0  0  0  0  0  0  0  0  0  0  0
   -9.2490    6.9090  -13.0670 O   0  0  0  0  0  0  0  0  0  0  0  0
   -8.7680    5.8370  -10.9910 C   0  0  0  0  0  0  0  0  0  0  0  0
   -8.9060    4.5750  -10.1490 C   0  0  0  0  0  0  0  0  0  0  0  0
   -9.0420    3.1320  -10.5070 C   0  0  0  0  0  0  0  0  0  0  0  0
   -9.3520    2.1520   -9.3590 C   0  0  0  0  0  0  0  0  0  0  0  0
   -9.5880    2.7920   -7.9940 C   0  0  0  0  0  0  0  0  0  0  0  0
   -9.0110    4.1540   -7.6650 C   0  0  0  0  0  0  0  0  0  0  0  0
   -8.8910    5.0050   -8.8300 N   0  0  0  0  0  0  0  0  0  0  0  0
   -8.7470    6.3620   -8.7480 C   0  0  0  0  0  0  0  0  0  0  0  0
   -8.6720    6.8960  -10.0390 C   0  0  0  0  0  0  0  0  0  0  0  0
   -9.2760    4.9680  -15.9350 C   0  0  0  0  0  0  0  0  0  0  0  0
   -9.7900    4.7730  -17.2300 C   0  0  0  0  0  0  0  0  0  0  0  0
   -8.9780    4.8080  -18.3560 C   0  0  0  0  0  0  0  0  0  0  0  0
   -7.6400    5.0510  -18.1130 C   0  0  0  0  0  0  0  0  0  0  0  0
   -5.3580    4.7920  -20.4800 H   0  0  0  0  0  0  0  0  0  0  0  0
   -6.5930    6.0610  -20.6990 H   0  0  0  0  0  0  0  0  0  0  0  0
   -7.0720    4.3460  -20.6590 H   0  0  0  0  0  0  0  0  0  0  0  0
   -6.3650    4.9110  -14.2790 H   0  0  0  0  0  0  0  0  0  0  0  0
   -7.1160    6.4460  -14.1600 H   0  0  0  0  0  0  0  0  0  0  0  0
   -8.1190    2.7920  -10.9860 H   0  0  0  0  0  0  0  0  0  0  0  0
   -9.8330    3.0430  -11.2590 H   0  0  0  0  0  0  0  0  0  0  0  0
   -8.7200    1.2780   -9.3130 H   0  0  0  0  0  0  0  0  0  0  0  0
  -10.3210    1.7440   -9.5970 H   0  0  0  0  0  0  0  0  0  0  0  0
  -10.6700    2.8280   -7.8380 H   0  0  0  0  0  0  0  0  0  0  0  0
   -9.2130    2.0960   -7.2350 H   0  0  0  0  0  0  0  0  0  0  0  0
   -9.6650    4.6820   -6.9640 H   0  0  0  0  0  0  0  0  0  0  0  0
   -8.0210    4.0570   -7.2160 H   0  0  0  0  0  0  0  0  0  0  0  0
   -8.7100    6.8570   -7.7870 H   0  0  0  0  0  0  0  0  0  0  0  0
   -8.5620    7.9490  -10.2730 H   0  0  0  0  0  0  0  0  0  0  0  0
   -9.9650    4.9310  -15.0870 H   0  0  0  0  0  0  0  0  0  0  0  0
  -10.8470    4.5910  -17.3650 H   0  0  0  0  0  0  0  0  0  0  0  0
   -9.3780    4.6560  -19.3540 H   0  0  0  0  0  0  0  0  0  0  0  0
  1  2  1  0
  2  3  1  0
  3  4  2  0
  4  5  1  0
  5  6  2  0
  6  7  1  0
  7  8  1  0
  8  9  1  0
  9 10  2  0
  9 11  1  0
 11 12  2  0
 12 13  1  0
 13 14  1  0
 14 15  1  0
 15 16  1  0
 16 17  1  0
 17 18  1  0
 18 19  2  0
  6 20  1  0
 20 21  2  0
 21 22  1  0
 22 23  2  0
 23  2  1  0
 23  5  1  0
 19 11  1  0
 17 12  1  0
  1 24  1  0
  1 25  1  0
  1 26  1  0
  7 27  1  0
  7 28  1  0
 13 29  1  0
 13 30  1  0
 14 31  1  0
 14 32  1  0
 15 33  1  0
 15 34  1  0
 16 35  1  0
 16 36  1  0
 18 37  1  0
 19 38  1  0
 20 39  1  0
 21 40  1  0
 22 41  1  0
A    1
 C1 
A    2
 N1 
A    3
 N2 
A    4
 N3 
A    5
 C2 
A    6
 C3 
A    7
 C4 
A    8
 O1 
A    9
 C5 
A   10
 O2 
A   11
 C6 
A   12
 C7 
A   13
 C8 
A   14
 C9 
A   15
 C10
A   16
 C11
A   17
 N4 
A   18
 C12
A   19
 C13
A   20
 C14
A   21
 C15
A   22
 C16
A   23
 C17
A   24
 H1 
A   25
 H2 
A   26
 H3 
A   27
 H4 
A   28
 H5 
A   29
 H6 
A   30
 H7 
A   31
 H8 
A   32
 H9 
A   33
 H10
A   34
 H11
A   35
 H12
A   36
 H13
A   37
 H14
A   38
 H15
A   39
 H16
A   40
 H17
A   41
 H18
M  END
>  <ref_pdb>  (61) 
x0051_0B

>  <ref_mols>  (61) 
x0969_1B,x0435_0B

>  <original SMILES>  (61) 
[H]c1c([H])c([H])c2c(nnn2C([H])([H])[H])c1C([H])([H])OC(=O)c1c([H])c([H])n2c1C([H])([H])C([H])([H])C([H])([H])C2([H])[H]

>  <index>  (61) 
640

>  <∆∆G>  (61) 
-6.52204

>  <∆G_bound>  (61) 
-6.059121

>  <∆G_unbound>  (61) 
0.462919

>  <comRMSD>  (61) 
0.455673

>  <N_constrained_atoms>  (61) 
20.0

>  <N_unconstrained_atoms>  (61) 
3.0

>  <runtime>  (61) 
61.534674

>  <LE>  (61) 
0.283567

>  <percent_hybrid>  (61) 
50.0

>  <dist>  (61) 
7.0

>  <ecfp4>  (61) 
0.106383

>  <daylight>  (61) 
0.300292

>  <topodist>  (61) 
1.0

>  <mces>  (61) 
25.0

>  <tdn>  (61) 
0.0

>  <tup>  (61) 
1.0

>  <rdn>  (61) 
0.0

>  <rup>  (61) 
0.0

>  <ldn>  (61) 
0.0

>  <lup>  (61) 
0.0

>  <mut>  (61) 
5.0

>  <maj>  (61) 
5.0

>  <min>  (61) 
0.0

>  <hyb>  (61) 
1.0

>  <sub>  (61) 
0.0

>  <query_index>  (61) 
343.0

>  <max_hit_Tanimoto>  (61) 
0.223929

>  <largest_ring>  (61) 
6

>  <N_interactions_kept>  (61) 
2.0

>  <N_interactions_lost>  (61) 
1.5

>  <interaction_uniqueness_metric>  (61) 
0.172651

>  <ad_hoc_penalty>  (61) 
-20.011472

>  <N_rotatable_bonds>  (61) 
4

>  <N_HA>  (61) 
23

>  <cluster>  (61) 
5633

>  <N_interactions>  (61) 
5

>  <Enamine>  (61) 
1

>  <Mcule>  (61) 
0

>  <N_PAINS>  (61) 
0

>  <UFF_Gibbs>  (61) 
85.826902

>  <strain_per_HA>  (61) 
3.731604

>  <intxn_scored>  (61) 
11.5

>  <saltbridge:HIS:51>  (61) 
1

>  <pistack:HIS:51>  (61) 
1

>  <hydroph_interaction:HIS:51>  (61) 
1

>  <hbond:ALA:132>  (61) 
0

>  <hbond:SER:135>  (61) 
0

>  <hydroph_interaction:TYR:150>  (61) 
0

>  <pistack:TYR:161>  (61) 
2

>  <hydroph_interaction:TYR:161>  (61) 
0

>  <hydroph_interaction:ASP:83>  (61) 
0

>  <hbond:TYR:130>  (61) 
0

>  <hydroph_interaction:ALA:132>  (61) 
0

>  <hbond:HIS:51>  (61) 
0

>  <hbond:ASP:129>  (61) 
0

>  <hbond:TYR:150>  (61) 
0

>  <hbond:GLY:151>  (61) 
0

>  <hbond:TYR:161>  (61) 
0

>  <hydroph_interaction:TYR:130>  (61) 
0

>  <hydroph_interaction:PRO:131>  (61) 
0

>  <hydroph_interaction:ASP:129>  (61) 
0

>  <saltbridge:ASP:75>  (61) 
0

>  <saltbridge:ASP:83>  (61) 
0

>  <hbond:ASN:152>  (61) 
0

>  <hydroph_interaction:ASN:152>  (61) 
0

>  <halogenbond:TYR:150>  (61) 
0

>  <hbond:ASP:83>  (61) 
0

>  <hydroph_interaction:VAL:155>  (61) 
0

>  <pication:TYR:161>  (61) 
0

>  <hbond:PRO:131>  (61) 
0

>  <saltbridge:ASP:129>  (61) 
0

>  <hbond:THR:134>  (61) 
0

>  <pication:HIS:51>  (61) 
0

>  <hbond:SER:81>  (61) 
0

>  <hydroph_interaction:THR:134>  (61) 
0

>  <hydroph_interaction:MET:49>  (61) 
0

$$$$
CSCS03437701792
     RDKit          3D

 32 33  0  0  0  0  0  0  0  0999 V2000
   -2.2940    1.9860  -14.4200 C   0  0  0  0  0  0  0  0  0  0  0  0
   -1.9010    3.3390  -14.7440 N   0  0  0  0  0  0  0  0  0  0  0  0
   -0.6190    3.7680  -14.5870 C   0  0  0  0  0  0  0  0  0  0  0  0
   -2.7310    4.1850  -15.4880 C   0  0  0  0  0  0  0  0  0  0  0  0
   -2.4280    4.9670  -16.7730 C   0  0  0  0  0  0  0  0  0  0  0  0
   -3.3980    5.8840  -17.5190 C   0  0  0  0  0  0  0  0  0  0  0  0
   -2.9630    6.7250  -18.3040 O   0  0  0  0  0  0  0  0  0  0  0  0
   -4.8840    5.7100  -17.2620 C   0  0  0  0  0  0  0  0  0  0  0  0
   -5.7750    5.4060  -18.4340 C   0  0  0  0  0  0  0  0  0  0  0  0
   -5.2300    5.2860  -19.8580 C   0  0  0  0  0  0  0  0  0  0  0  0
   -7.0420    5.2940  -17.9450 C   0  0  0  0  0  0  0  0  0  0  0  0
   -7.1950    5.5130  -16.4720 C   0  0  0  0  0  0  0  0  0  0  0  0
   -8.8000    5.3800  -16.0120 S   0  0  0  0  0  0  0  0  0  0  0  0
   -9.2010    5.0650  -17.6640 C   0  0  0  0  0  0  0  0  0  0  0  0
  -10.9150    4.8170  -18.3390 Br  0  0  0  0  0  0  0  0  0  0  0  0
   -8.2090    5.0250  -18.5410 C   0  0  0  0  0  0  0  0  0  0  0  0
   -8.5930    4.7100  -19.9390 C   0  0  0  0  0  0  0  0  0  0  0  0
   -5.7310    5.8290  -15.7310 S   0  0  0  0  0  0  0  0  0  0  0  0
   -2.5540    1.4600  -15.3390 H   0  0  0  0  0  0  0  0  0  0  0  0
   -3.1600    2.0050  -13.7530 H   0  0  0  0  0  0  0  0  0  0  0  0
   -1.4750    1.4600  -13.9270 H   0  0  0  0  0  0  0  0  0  0  0  0
    0.1010    3.1580  -14.0260 H   0  0  0  0  0  0  0  0  0  0  0  0
   -0.6250    4.7410  -14.0900 H   0  0  0  0  0  0  0  0  0  0  0  0
   -0.1770    3.9430  -15.5720 H   0  0  0  0  0  0  0  0  0  0  0  0
   -3.7480    4.3250  -15.1120 H   0  0  0  0  0  0  0  0  0  0  0  0
   -1.4180    4.8610  -17.1940 H   0  0  0  0  0  0  0  0  0  0  0  0
   -4.1710    5.0130  -19.8230 H   0  0  0  0  0  0  0  0  0  0  0  0
   -5.7780    4.5030  -20.3860 H   0  0  0  0  0  0  0  0  0  0  0  0
   -5.2630    6.1730  -20.4850 H   0  0  0  0  0  0  0  0  0  0  0  0
   -9.4670    5.2910  -20.2460 H   0  0  0  0  0  0  0  0  0  0  0  0
   -7.7840    4.8900  -20.6510 H   0  0  0  0  0  0  0  0  0  0  0  0
   -8.8390    3.6550  -19.9910 H   0  0  0  0  0  0  0  0  0  0  0  0
  1  2  1  0
  2  3  1  0
  2  4  1  0
  4  5  2  0
  5  6  1  0
  6  7  2  0
  6  8  1  0
  8  9  2  0
  9 10  1  0
  9 11  1  0
 11 12  2  0
 12 13  1  0
 13 14  1  0
 14 15  1  0
 14 16  2  0
 16 17  1  0
 12 18  1  0
 18  8  1  0
 16 11  1  0
  1 19  1  0
  1 20  1  0
  1 21  1  0
  3 22  1  0
  3 23  1  0
  3 24  1  0
  4 25  1  0
  5 26  1  0
 10 27  1  0
 10 28  1  0
 10 29  1  0
 17 30  1  0
 17 31  1  0
 17 32  1  0
A    1
 C1 
A    2
 N1 
A    3
 C2 
A    4
 C3 
A    5
 C4 
A    6
 C5 
A    7
 O1 
A    8
 C6 
A    9
 C7 
A   10
 C8 
A   11
 C9 
A   12
 C10
A   13
 S1 
A   14
 C11
A   15
BR1 
A   16
 C12
A   17
 C13
A   18
 S2 
A   19
 H1 
A   20
 H2 
A   21
 H3 
A   22
 H4 
A   23
 H5 
A   24
 H6 
A   25
 H7 
A   26
 H8 
A   27
 H9 
A   28
 H10
A   29
 H11
A   30
 H12
A   31
 H13
A   32
 H14
M  END
>  <ref_pdb>  (62) 
x0051_0B

>  <ref_mols>  (62) 
x0472_0B,x0904_0B

>  <original SMILES>  (62) 
[H]/C(C(=O)c1sc2sc(Br)c(C([H])([H])[H])c2c1C([H])([H])[H])=C(/[H])N(C([H])([H])[H])C([H])([H])[H]

>  <index>  (62) 
2707

>  <∆∆G>  (62) 
-7.426764

>  <∆G_bound>  (62) 
-7.310126

>  <∆G_unbound>  (62) 
0.116639

>  <comRMSD>  (62) 
0.86051

>  <N_constrained_atoms>  (62) 
15.0

>  <N_unconstrained_atoms>  (62) 
4.0

>  <runtime>  (62) 
29.324651

>  <LE>  (62) 
0.390882

>  <percent_hybrid>  (62) 
38.0

>  <dist>  (62) 
10.0

>  <ecfp4>  (62) 
0.09589

>  <daylight>  (62) 
0.245342

>  <topodist>  (62) 
4.0

>  <mces>  (62) 
18.0

>  <tdn>  (62) 
1.0

>  <tup>  (62) 
1.0

>  <rdn>  (62) 
1.0

>  <rup>  (62) 
0.0

>  <ldn>  (62) 
1.0

>  <lup>  (62) 
0.0

>  <mut>  (62) 
4.0

>  <maj>  (62) 
3.0

>  <min>  (62) 
1.0

>  <hyb>  (62) 
2.0

>  <sub>  (62) 
3.0

>  <query_index>  (62) 
174.0

>  <max_hit_Tanimoto>  (62) 
0.259683

>  <largest_ring>  (62) 
5

>  <N_interactions_kept>  (62) 
1.5

>  <N_interactions_lost>  (62) 
2.5

>  <interaction_uniqueness_metric>  (62) 
0.050285

>  <ad_hoc_penalty>  (62) 
-3.033127

>  <N_rotatable_bonds>  (62) 
7

>  <N_HA>  (62) 
18

>  <cluster>  (62) 
3721

>  <N_interactions>  (62) 
6

>  <Enamine>  (62) 
1

>  <Mcule>  (62) 
0

>  <N_PAINS>  (62) 
0

>  <UFF_Gibbs>  (62) 
99.225899

>  <strain_per_HA>  (62) 
5.51255

>  <intxn_scored>  (62) 
11.5

>  <saltbridge:HIS:51>  (62) 
0

>  <pistack:HIS:51>  (62) 
0

>  <hydroph_interaction:HIS:51>  (62) 
0

>  <hbond:ALA:132>  (62) 
0

>  <hbond:SER:135>  (62) 
0

>  <hydroph_interaction:TYR:150>  (62) 
1

>  <pistack:TYR:161>  (62) 
2

>  <hydroph_interaction:TYR:161>  (62) 
3

>  <hydroph_interaction:ASP:83>  (62) 
0

>  <hbond:TYR:130>  (62) 
0

>  <hydroph_interaction:ALA:132>  (62) 
0

>  <hbond:HIS:51>  (62) 
0

>  <hbond:ASP:129>  (62) 
0

>  <hbond:TYR:150>  (62) 
0

>  <hbond:GLY:151>  (62) 
0

>  <hbond:TYR:161>  (62) 
0

>  <hydroph_interaction:TYR:130>  (62) 
0

>  <hydroph_interaction:PRO:131>  (62) 
0

>  <hydroph_interaction:ASP:129>  (62) 
0

>  <saltbridge:ASP:75>  (62) 
0

>  <saltbridge:ASP:83>  (62) 
0

>  <hbond:ASN:152>  (62) 
0

>  <hydroph_interaction:ASN:152>  (62) 
0

>  <halogenbond:TYR:150>  (62) 
0

>  <hbond:ASP:83>  (62) 
0

>  <hydroph_interaction:VAL:155>  (62) 
0

>  <pication:TYR:161>  (62) 
0

>  <hbond:PRO:131>  (62) 
0

>  <saltbridge:ASP:129>  (62) 
0

>  <hbond:THR:134>  (62) 
0

>  <pication:HIS:51>  (62) 
0

>  <hbond:SER:81>  (62) 
0

>  <hydroph_interaction:THR:134>  (62) 
0

>  <hydroph_interaction:MET:49>  (62) 
0

$$$$
Z4925595120
     RDKit          3D

 22 23  0  0  0  0  0  0  0  0999 V2000
  -10.1960    4.7920  -18.4860 C   0  0  0  0  0  0  0  0  0  0  0  0
   -8.8820    5.0290  -17.7750 C   0  0  0  0  0  0  0  0  0  0  0  0
   -8.8830    5.1000  -16.4030 N   0  0  0  0  0  0  0  0  0  0  0  0
   -7.5630    5.3030  -16.1390 N   0  0  0  0  0  0  0  0  0  0  0  0
   -6.7550    5.3610  -17.2680 C   0  0  0  0  0  0  0  0  0  0  0  0
   -5.3760    5.5410  -17.4760 C   0  0  0  0  0  0  0  0  0  0  0  0
   -4.4680    5.7030  -16.4290 C   0  0  0  0  0  0  0  0  0  0  0  0
   -3.1550    5.3950  -16.7150 N   0  0  0  0  0  0  0  0  0  0  0  0
   -4.8080    6.0930  -15.3200 O   0  0  0  0  0  0  0  0  0  0  0  0
   -4.8970    5.5530  -18.8010 C   0  0  0  0  0  0  0  0  0  0  0  0
   -5.7700    5.3850  -19.8890 C   0  0  0  0  0  0  0  0  0  0  0  0
   -7.1100    5.2050  -19.6400 C   0  0  0  0  0  0  0  0  0  0  0  0
   -7.6200    5.1900  -18.3400 C   0  0  0  0  0  0  0  0  0  0  0  0
  -10.2820    3.7380  -18.7460 H   0  0  0  0  0  0  0  0  0  0  0  0
  -11.0510    5.0740  -17.8730 H   0  0  0  0  0  0  0  0  0  0  0  0
  -10.2360    5.3500  -19.4330 H   0  0  0  0  0  0  0  0  0  0  0  0
   -7.2680    5.3920  -15.1710 H   0  0  0  0  0  0  0  0  0  0  0  0
   -2.9310    4.9960  -17.6190 H   0  0  0  0  0  0  0  0  0  0  0  0
   -2.6450    5.0100  -15.9270 H   0  0  0  0  0  0  0  0  0  0  0  0
   -3.8340    5.6930  -18.9780 H   0  0  0  0  0  0  0  0  0  0  0  0
   -5.3940    5.3930  -20.9100 H   0  0  0  0  0  0  0  0  0  0  0  0
   -7.7170    5.0750  -20.5390 H   0  0  0  0  0  0  0  0  0  0  0  0
  1  2  1  0
  2  3  2  0
  3  4  1  0
  4  5  1  0
  5  6  2  0
  6  7  1  0
  7  8  1  0
  7  9  2  0
  6 10  1  0
 10 11  2  0
 11 12  1  0
 12 13  2  0
 13  2  1  0
 13  5  1  0
  1 14  1  0
  1 15  1  0
  1 16  1  0
  4 17  1  0
  8 18  1  0
  8 19  1  0
 10 20  1  0
 11 21  1  0
 12 22  1  0
A    1
 C1 
A    2
 C2 
A    3
 N1 
A    4
 N2 
A    5
 C3 
A    6
 C4 
A    7
 C5 
A    8
 N3 
A    9
 O1 
A   10
 C6 
A   11
 C7 
A   12
 C8 
A   13
 C9 
A   14
 H1 
A   15
 H2 
A   16
 H3 
A   17
 H4 
A   18
 H5 
A   19
 H6 
A   20
 H7 
A   21
 H8 
A   22
 H9 
M  END
>  <ref_pdb>  (63) 
x0051_0B

>  <ref_mols>  (63) 
x0425_0B,x0969_0B

>  <original SMILES>  (63) 
[H]c1c([H])c(C(=O)N([H])[H])c2c(c(C([H])([H])[H])nn2[H])c1[H]

>  <index>  (63) 
1179

>  <∆∆G>  (63) 
-6.667945

>  <∆G_bound>  (63) 
-6.321409

>  <∆G_unbound>  (63) 
0.346537

>  <comRMSD>  (63) 
0.44485

>  <N_constrained_atoms>  (63) 
12.0

>  <N_unconstrained_atoms>  (63) 
1.0

>  <runtime>  (63) 
19.483955

>  <LE>  (63) 
0.512919

>  <percent_hybrid>  (63) 
34.0

>  <dist>  (63) 
4.0

>  <ecfp4>  (63) 
0.163636

>  <daylight>  (63) 
0.27907

>  <topodist>  (63) 
1.0

>  <mces>  (63) 
13.0

>  <tdn>  (63) 
0.0

>  <tup>  (63) 
1.0

>  <rdn>  (63) 
0.0

>  <rup>  (63) 
0.0

>  <ldn>  (63) 
0.0

>  <lup>  (63) 
0.0

>  <mut>  (63) 
2.0

>  <maj>  (63) 
2.0

>  <min>  (63) 
0.0

>  <hyb>  (63) 
1.0

>  <sub>  (63) 
0.0

>  <query_index>  (63) 
188.0

>  <max_hit_Tanimoto>  (63) 
0.212941

>  <largest_ring>  (63) 
6

>  <N_interactions_kept>  (63) 
0.0

>  <N_interactions_lost>  (63) 
3.0

>  <interaction_uniqueness_metric>  (63) 
0.123054

>  <ad_hoc_penalty>  (63) 
-15.172426

>  <N_rotatable_bonds>  (63) 
2

>  <N_HA>  (63) 
13

>  <cluster>  (63) 
5134

>  <N_interactions>  (63) 
6

>  <Enamine>  (63) 
1

>  <Mcule>  (63) 
0

>  <N_PAINS>  (63) 
0

>  <UFF_Gibbs>  (63) 
44.270711

>  <strain_per_HA>  (63) 
3.405439

>  <intxn_scored>  (63) 
11.5

>  <saltbridge:HIS:51>  (63) 
0

>  <pistack:HIS:51>  (63) 
0

>  <hydroph_interaction:HIS:51>  (63) 
0

>  <hbond:ALA:132>  (63) 
0

>  <hbond:SER:135>  (63) 
0

>  <hydroph_interaction:TYR:150>  (63) 
1

>  <pistack:TYR:161>  (63) 
2

>  <hydroph_interaction:TYR:161>  (63) 
1

>  <hydroph_interaction:ASP:83>  (63) 
0

>  <hbond:TYR:130>  (63) 
0

>  <hydroph_interaction:ALA:132>  (63) 
0

>  <hbond:HIS:51>  (63) 
0

>  <hbond:ASP:129>  (63) 
0

>  <hbond:TYR:150>  (63) 
0

>  <hbond:GLY:151>  (63) 
1

>  <hbond:TYR:161>  (63) 
1

>  <hydroph_interaction:TYR:130>  (63) 
0

>  <hydroph_interaction:PRO:131>  (63) 
0

>  <hydroph_interaction:ASP:129>  (63) 
0

>  <saltbridge:ASP:75>  (63) 
0

>  <saltbridge:ASP:83>  (63) 
0

>  <hbond:ASN:152>  (63) 
0

>  <hydroph_interaction:ASN:152>  (63) 
0

>  <halogenbond:TYR:150>  (63) 
0

>  <hbond:ASP:83>  (63) 
0

>  <hydroph_interaction:VAL:155>  (63) 
0

>  <pication:TYR:161>  (63) 
0

>  <hbond:PRO:131>  (63) 
0

>  <saltbridge:ASP:129>  (63) 
0

>  <hbond:THR:134>  (63) 
0

>  <pication:HIS:51>  (63) 
0

>  <hbond:SER:81>  (63) 
0

>  <hydroph_interaction:THR:134>  (63) 
0

>  <hydroph_interaction:MET:49>  (63) 
0

$$$$
CSSB00000717164
     RDKit          3D

 23 24  0  0  0  0  0  0  0  0999 V2000
  -10.2240    4.8780  -18.6360 C   0  0  0  0  0  0  0  0  0  0  0  0
   -9.1290    5.0150  -17.6210 C   0  0  0  0  0  0  0  0  0  0  0  0
   -9.4140    5.0200  -16.2540 C   0  0  0  0  0  0  0  0  0  0  0  0
   -8.3720    5.1460  -15.3380 C   0  0  0  0  0  0  0  0  0  0  0  0
   -7.0490    5.2650  -15.7330 C   0  0  0  0  0  0  0  0  0  0  0  0
   -6.7560    5.2600  -17.1090 C   0  0  0  0  0  0  0  0  0  0  0  0
   -5.4510    5.3710  -17.5510 C   0  0  0  0  0  0  0  0  0  0  0  0
   -4.3530    5.4900  -16.6660 N   0  0  0  0  0  0  0  0  0  0  0  0
   -5.1910    5.3610  -18.9190 C   0  0  0  0  0  0  0  0  0  0  0  0
   -6.2580    5.2370  -19.7960 C   0  0  0  0  0  0  0  0  0  0  0  0
   -6.0230    5.2020  -21.5510 S   0  0  0  0  0  0  0  0  0  0  0  0
   -7.5670    5.1280  -19.3630 N   0  0  0  0  0  0  0  0  0  0  0  0
   -7.8040    5.1370  -18.0500 C   0  0  0  0  0  0  0  0  0  0  0  0
   -9.9010    5.2230  -19.6250 H   0  0  0  0  0  0  0  0  0  0  0  0
  -11.0960    5.4780  -18.3510 H   0  0  0  0  0  0  0  0  0  0  0  0
  -10.4850    3.8310  -18.7230 H   0  0  0  0  0  0  0  0  0  0  0  0
  -10.4270    4.9240  -15.9160 H   0  0  0  0  0  0  0  0  0  0  0  0
   -8.5220    5.1560  -14.2540 H   0  0  0  0  0  0  0  0  0  0  0  0
   -6.2460    5.3580  -15.0080 H   0  0  0  0  0  0  0  0  0  0  0  0
   -4.5090    5.0580  -15.7590 H   0  0  0  0  0  0  0  0  0  0  0  0
   -4.0060    6.4380  -16.5680 H   0  0  0  0  0  0  0  0  0  0  0  0
   -4.1770    5.4450  -19.2920 H   0  0  0  0  0  0  0  0  0  0  0  0
   -7.1640    5.8660  -21.8080 H   0  0  0  0  0  0  0  0  0  0  0  0
  1  2  1  0
  2  3  2  0
  3  4  1  0
  4  5  2  0
  5  6  1  0
  6  7  2  0
  7  8  1  0
  7  9  1  0
  9 10  2  0
 10 11  1  0
 10 12  1  0
 12 13  2  0
 13  2  1  0
 13  6  1  0
  1 14  1  0
  1 15  1  0
  1 16  1  0
  3 17  1  0
  4 18  1  0
  5 19  1  0
  8 20  1  0
  8 21  1  0
  9 22  1  0
 11 23  1  0
A    1
 C1 
A    2
 C2 
A    3
 C3 
A    4
 C4 
A    5
 C5 
A    6
 C6 
A    7
 C7 
A    8
 N1 
A    9
 C8 
A   10
 C9 
A   11
 S1 
A   12
 N2 
A   13
 C10
A   14
 H1 
A   15
 H2 
A   16
 H3 
A   17
 H4 
A   18
 H5 
A   19
 H6 
A   20
 H7 
A   21
 H8 
A   22
 H9 
A   23
 H10
M  END
>  <ref_pdb>  (64) 
x0051_0B

>  <ref_mols>  (64) 
x0425_0B,x0435_0B

>  <original SMILES>  (64) 
[H]Sc1nc2c(C([H])([H])[H])c([H])c([H])c([H])c2c(N([H])[H])c1[H]

>  <index>  (64) 
2868

>  <∆∆G>  (64) 
-7.986801

>  <∆G_bound>  (64) 
-8.164168

>  <∆G_unbound>  (64) 
-0.177367

>  <comRMSD>  (64) 
0.709989

>  <N_constrained_atoms>  (64) 
12.0

>  <N_unconstrained_atoms>  (64) 
2.0

>  <runtime>  (64) 
27.93766

>  <LE>  (64) 
0.570486

>  <percent_hybrid>  (64) 
34.0

>  <dist>  (64) 
2.0

>  <ecfp4>  (64) 
0.363636

>  <daylight>  (64) 
0.511628

>  <topodist>  (64) 
2.0

>  <mces>  (64) 
13.0

>  <tdn>  (64) 
0.0

>  <tup>  (64) 
1.0

>  <rdn>  (64) 
0.0

>  <rup>  (64) 
0.0

>  <ldn>  (64) 
1.0

>  <lup>  (64) 
0.0

>  <mut>  (64) 
0.0

>  <maj>  (64) 
0.0

>  <min>  (64) 
0.0

>  <hyb>  (64) 
0.0

>  <sub>  (64) 
1.0

>  <query_index>  (64) 
107.0

>  <max_hit_Tanimoto>  (64) 
0.153324

>  <largest_ring>  (64) 
6

>  <N_interactions_kept>  (64) 
0.0

>  <N_interactions_lost>  (64) 
3.5

>  <interaction_uniqueness_metric>  (64) 
0.067772

>  <ad_hoc_penalty>  (64) 
-5.718375

>  <N_rotatable_bonds>  (64) 
3

>  <N_HA>  (64) 
13

>  <cluster>  (64) 
3571

>  <N_interactions>  (64) 
5

>  <Enamine>  (64) 
1

>  <Mcule>  (64) 
0

>  <N_PAINS>  (64) 
0

>  <UFF_Gibbs>  (64) 
27.960201

>  <strain_per_HA>  (64) 
2.150785

>  <intxn_scored>  (64) 
11.5

>  <saltbridge:HIS:51>  (64) 
0

>  <pistack:HIS:51>  (64) 
0

>  <hydroph_interaction:HIS:51>  (64) 
0

>  <hbond:ALA:132>  (64) 
0

>  <hbond:SER:135>  (64) 
0

>  <hydroph_interaction:TYR:150>  (64) 
1

>  <pistack:TYR:161>  (64) 
2

>  <hydroph_interaction:TYR:161>  (64) 
1

>  <hydroph_interaction:ASP:83>  (64) 
0

>  <hbond:TYR:130>  (64) 
1

>  <hydroph_interaction:ALA:132>  (64) 
0

>  <hbond:HIS:51>  (64) 
0

>  <hbond:ASP:129>  (64) 
0

>  <hbond:TYR:150>  (64) 
0

>  <hbond:GLY:151>  (64) 
0

>  <hbond:TYR:161>  (64) 
0

>  <hydroph_interaction:TYR:130>  (64) 
0

>  <hydroph_interaction:PRO:131>  (64) 
0

>  <hydroph_interaction:ASP:129>  (64) 
0

>  <saltbridge:ASP:75>  (64) 
0

>  <saltbridge:ASP:83>  (64) 
0

>  <hbond:ASN:152>  (64) 
0

>  <hydroph_interaction:ASN:152>  (64) 
0

>  <halogenbond:TYR:150>  (64) 
0

>  <hbond:ASP:83>  (64) 
0

>  <hydroph_interaction:VAL:155>  (64) 
0

>  <pication:TYR:161>  (64) 
0

>  <hbond:PRO:131>  (64) 
0

>  <saltbridge:ASP:129>  (64) 
0

>  <hbond:THR:134>  (64) 
0

>  <pication:HIS:51>  (64) 
0

>  <hbond:SER:81>  (64) 
0

>  <hydroph_interaction:THR:134>  (64) 
0

>  <hydroph_interaction:MET:49>  (64) 
0

$$$$
CSSB00015213507
     RDKit          3D

 23 25  0  0  0  0  0  0  0  0999 V2000
   -5.5260    5.6890  -15.8190 C   0  0  0  0  0  0  0  0  0  0  0  0
   -6.5570    5.5480  -14.7010 C   0  0  0  0  0  0  0  0  0  0  0  0
   -7.9880    5.2560  -15.1200 C   0  0  0  0  0  0  0  0  0  0  0  0
   -8.3490    5.1180  -16.5250 C   0  0  0  0  0  0  0  0  0  0  0  0
   -9.6720    4.8480  -16.8470 C   0  0  0  0  0  0  0  0  0  0  0  0
  -10.0680    4.7030  -18.1710 C   0  0  0  0  0  0  0  0  0  0  0  0
   -9.1260    4.8270  -19.1870 C   0  0  0  0  0  0  0  0  0  0  0  0
   -7.7880    5.0960  -18.8840 C   0  0  0  0  0  0  0  0  0  0  0  0
   -6.8350    5.2160  -19.9040 C   0  0  0  0  0  0  0  0  0  0  0  0
   -5.5060    5.4800  -19.5920 C   0  0  0  0  0  0  0  0  0  0  0  0
   -5.1030    5.6280  -18.2730 C   0  0  0  0  0  0  0  0  0  0  0  0
   -6.0300    5.5160  -17.2350 C   0  0  0  0  0  0  0  0  0  0  0  0
   -7.3820    5.2470  -17.5360 C   0  0  0  0  0  0  0  0  0  0  0  0
   -5.0590    6.6760  -15.7620 H   0  0  0  0  0  0  0  0  0  0  0  0
   -4.7330    4.9460  -15.6690 H   0  0  0  0  0  0  0  0  0  0  0  0
   -6.2590    5.6570  -13.6630 H   0  0  0  0  0  0  0  0  0  0  0  0
   -8.7720    5.1450  -14.3760 H   0  0  0  0  0  0  0  0  0  0  0  0
  -10.4040    4.7460  -16.0560 H   0  0  0  0  0  0  0  0  0  0  0  0
  -11.1060    4.4960  -18.4090 H   0  0  0  0  0  0  0  0  0  0  0  0
   -9.4450    4.7120  -20.2210 H   0  0  0  0  0  0  0  0  0  0  0  0
   -7.1200    5.1030  -20.9480 H   0  0  0  0  0  0  0  0  0  0  0  0
   -4.7700    5.5710  -20.3930 H   0  0  0  0  0  0  0  0  0  0  0  0
   -4.0600    5.8330  -18.0550 H   0  0  0  0  0  0  0  0  0  0  0  0
  1  2  1  0
  2  3  2  0
  3  4  1  0
  4  5  1  0
  5  6  2  0
  6  7  1  0
  7  8  2  0
  8  9  1  0
  9 10  2  0
 10 11  1  0
 11 12  2  0
 12 13  1  0
 12  1  1  0
 13  4  2  0
 13  8  1  0
  1 14  1  0
  1 15  1  0
  2 16  1  0
  3 17  1  0
  5 18  1  0
  6 19  1  0
  7 20  1  0
  9 21  1  0
 10 22  1  0
 11 23  1  0
A    1
 C1 
A    2
 C2 
A    3
 C3 
A    4
 C4 
A    5
 C5 
A    6
 C6 
A    7
 C7 
A    8
 C8 
A    9
 C9 
A   10
 C10
A   11
 C11
A   12
 C12
A   13
 C13
A   14
 H1 
A   15
 H2 
A   16
 H3 
A   17
 H4 
A   18
 H5 
A   19
 H6 
A   20
 H7 
A   21
 H8 
A   22
 H9 
A   23
 H10
M  END
>  <ref_pdb>  (65) 
x0051_0B

>  <ref_mols>  (65) 
x0727_0B,x0455_0B

>  <original SMILES>  (65) 
[H]C1=C([H])C([H])([H])c2c([H])c([H])c([H])c3c([H])c([H])c([H])c1c23

>  <index>  (65) 
467

>  <∆∆G>  (65) 
-6.982584

>  <∆G_bound>  (65) 
-6.97662

>  <∆G_unbound>  (65) 
0.005964

>  <comRMSD>  (65) 
0.390878

>  <N_constrained_atoms>  (65) 
14.0

>  <N_unconstrained_atoms>  (65) 
0.0

>  <runtime>  (65) 
18.0905

>  <LE>  (65) 
0.498756

>  <percent_hybrid>  (65) 
34.0

>  <dist>  (65) 
4.0

>  <ecfp4>  (65) 
0.255814

>  <daylight>  (65) 
0.236364

>  <topodist>  (65) 
1.0

>  <mces>  (65) 
15.0

>  <tdn>  (65) 
1.0

>  <tup>  (65) 
0.0

>  <rdn>  (65) 
0.0

>  <rup>  (65) 
0.0

>  <ldn>  (65) 
0.0

>  <lup>  (65) 
0.0

>  <mut>  (65) 
1.0

>  <maj>  (65) 
1.0

>  <min>  (65) 
0.0

>  <hyb>  (65) 
2.0

>  <sub>  (65) 
1.0

>  <query_index>  (65) 
57.0

>  <max_hit_Tanimoto>  (65) 
0.160714

>  <largest_ring>  (65) 
0

>  <N_interactions_kept>  (65) 
0.0

>  <N_interactions_lost>  (65) 
3.0

>  <interaction_uniqueness_metric>  (65) 
0.050285

>  <ad_hoc_penalty>  (65) 
-23.234126

>  <N_rotatable_bonds>  (65) 
0

>  <N_HA>  (65) 
13

>  <cluster>  (65) 
5794

>  <N_interactions>  (65) 
6

>  <Enamine>  (65) 
1

>  <Mcule>  (65) 
0

>  <N_PAINS>  (65) 
0

>  <UFF_Gibbs>  (65) 
21.840526

>  <strain_per_HA>  (65) 
1.68004

>  <intxn_scored>  (65) 
11.5

>  <saltbridge:HIS:51>  (65) 
0

>  <pistack:HIS:51>  (65) 
0

>  <hydroph_interaction:HIS:51>  (65) 
0

>  <hbond:ALA:132>  (65) 
0

>  <hbond:SER:135>  (65) 
0

>  <hydroph_interaction:TYR:150>  (65) 
1

>  <pistack:TYR:161>  (65) 
2

>  <hydroph_interaction:TYR:161>  (65) 
3

>  <hydroph_interaction:ASP:83>  (65) 
0

>  <hbond:TYR:130>  (65) 
0

>  <hydroph_interaction:ALA:132>  (65) 
0

>  <hbond:HIS:51>  (65) 
0

>  <hbond:ASP:129>  (65) 
0

>  <hbond:TYR:150>  (65) 
0

>  <hbond:GLY:151>  (65) 
0

>  <hbond:TYR:161>  (65) 
0

>  <hydroph_interaction:TYR:130>  (65) 
0

>  <hydroph_interaction:PRO:131>  (65) 
0

>  <hydroph_interaction:ASP:129>  (65) 
0

>  <saltbridge:ASP:75>  (65) 
0

>  <saltbridge:ASP:83>  (65) 
0

>  <hbond:ASN:152>  (65) 
0

>  <hydroph_interaction:ASN:152>  (65) 
0

>  <halogenbond:TYR:150>  (65) 
0

>  <hbond:ASP:83>  (65) 
0

>  <hydroph_interaction:VAL:155>  (65) 
0

>  <pication:TYR:161>  (65) 
0

>  <hbond:PRO:131>  (65) 
0

>  <saltbridge:ASP:129>  (65) 
0

>  <hbond:THR:134>  (65) 
0

>  <pication:HIS:51>  (65) 
0

>  <hbond:SER:81>  (65) 
0

>  <hydroph_interaction:THR:134>  (65) 
0

>  <hydroph_interaction:MET:49>  (65) 
0

$$$$
CSSB00000751862
     RDKit          3D

 26 27  0  0  0  0  0  0  0  0999 V2000
   -5.8920    6.4710  -23.0190 N   0  0  0  0  0  0  0  0  0  0  0  0
   -5.7430    6.5360  -21.5640 C   0  0  0  0  0  0  0  0  0  0  0  0
   -6.2100    5.2410  -20.8880 C   0  0  0  0  0  0  0  0  0  0  0  0
   -6.1870    5.3370  -19.3920 C   0  0  0  0  0  0  0  0  0  0  0  0
   -4.9350    5.5900  -18.8380 C   0  0  0  0  0  0  0  0  0  0  0  0
   -4.7750    5.6980  -17.4730 C   0  0  0  0  0  0  0  0  0  0  0  0
   -5.8770    5.5500  -16.6440 C   0  0  0  0  0  0  0  0  0  0  0  0
   -7.1480    5.2940  -17.1630 C   0  0  0  0  0  0  0  0  0  0  0  0
   -8.2320    5.1460  -16.2930 C   0  0  0  0  0  0  0  0  0  0  0  0
   -9.5060    4.8860  -16.7750 C   0  0  0  0  0  0  0  0  0  0  0  0
   -9.7200    4.7690  -18.1430 C   0  0  0  0  0  0  0  0  0  0  0  0
   -8.6470    4.9160  -19.0290 C   0  0  0  0  0  0  0  0  0  0  0  0
   -7.3350    5.1800  -18.5620 C   0  0  0  0  0  0  0  0  0  0  0  0
   -5.6310    7.3690  -23.4260 H   0  0  0  0  0  0  0  0  0  0  0  0
   -6.8790    6.3370  -23.2440 H   0  0  0  0  0  0  0  0  0  0  0  0
   -6.3150    7.3970  -21.1930 H   0  0  0  0  0  0  0  0  0  0  0  0
   -4.6910    6.7270  -21.3270 H   0  0  0  0  0  0  0  0  0  0  0  0
   -5.5460    4.4280  -21.2040 H   0  0  0  0  0  0  0  0  0  0  0  0
   -7.1970    4.9180  -21.2280 H   0  0  0  0  0  0  0  0  0  0  0  0
   -4.0600    5.7080  -19.4780 H   0  0  0  0  0  0  0  0  0  0  0  0
   -3.7950    5.8960  -17.0490 H   0  0  0  0  0  0  0  0  0  0  0  0
   -5.7310    5.6370  -15.5680 H   0  0  0  0  0  0  0  0  0  0  0  0
   -8.0900    5.2320  -15.2190 H   0  0  0  0  0  0  0  0  0  0  0  0
  -10.3260    4.7730  -16.0810 H   0  0  0  0  0  0  0  0  0  0  0  0
  -10.7140    4.5660  -18.5250 H   0  0  0  0  0  0  0  0  0  0  0  0
   -8.8580    4.8190  -20.0930 H   0  0  0  0  0  0  0  0  0  0  0  0
  1  2  1  0
  2  3  1  0
  3  4  1  0
  4  5  2  0
  5  6  1  0
  6  7  2  0
  7  8  1  0
  8  9  2  0
  9 10  1  0
 10 11  2  0
 11 12  1  0
 12 13  2  0
 13  4  1  0
 13  8  1  0
  1 14  1  0
  1 15  1  0
  2 16  1  0
  2 17  1  0
  3 18  1  0
  3 19  1  0
  5 20  1  0
  6 21  1  0
  7 22  1  0
  9 23  1  0
 10 24  1  0
 11 25  1  0
 12 26  1  0
A    1
 N1 
A    2
 C1 
A    3
 C2 
A    4
 C3 
A    5
 C4 
A    6
 C5 
A    7
 C6 
A    8
 C7 
A    9
 C8 
A   10
 C9 
A   11
 C10
A   12
 C11
A   13
 C12
A   14
 H1 
A   15
 H2 
A   16
 H3 
A   17
 H4 
A   18
 H5 
A   19
 H6 
A   20
 H7 
A   21
 H8 
A   22
 H9 
A   23
 H10
A   24
 H11
A   25
 H12
A   26
 H13
M  END
>  <ref_pdb>  (66) 
x0051_0B

>  <ref_mols>  (66) 
x0727_0B,x0425_0B

>  <original SMILES>  (66) 
[H]c1c([H])c([H])c2c(C([H])([H])C([H])([H])N([H])[H])c([H])c([H])c([H])c2c1[H]

>  <index>  (66) 
3187

>  <∆∆G>  (66) 
-7.391985

>  <∆G_bound>  (66) 
-7.455801

>  <∆G_unbound>  (66) 
-0.063816

>  <comRMSD>  (66) 
0.770696

>  <N_constrained_atoms>  (66) 
13.0

>  <N_unconstrained_atoms>  (66) 
2.0

>  <runtime>  (66) 
31.543013

>  <LE>  (66) 
0.492799

>  <percent_hybrid>  (66) 
50.0

>  <dist>  (66) 
2.0

>  <ecfp4>  (66) 
0.342105

>  <daylight>  (66) 
0.126582

>  <topodist>  (66) 
0.0

>  <mces>  (66) 
14.0

>  <tdn>  (66) 
0.0

>  <tup>  (66) 
0.0

>  <rdn>  (66) 
0.0

>  <rup>  (66) 
0.0

>  <ldn>  (66) 
0.0

>  <lup>  (66) 
0.0

>  <mut>  (66) 
2.0

>  <maj>  (66) 
2.0

>  <min>  (66) 
0.0

>  <hyb>  (66) 
0.0

>  <sub>  (66) 
0.0

>  <query_index>  (66) 
105.0

>  <max_hit_Tanimoto>  (66) 
0.174603

>  <largest_ring>  (66) 
6

>  <N_interactions_kept>  (66) 
0.0

>  <N_interactions_lost>  (66) 
3.5

>  <interaction_uniqueness_metric>  (66) 
0.067772

>  <ad_hoc_penalty>  (66) 
-5.680607

>  <N_rotatable_bonds>  (66) 
3

>  <N_HA>  (66) 
13

>  <cluster>  (66) 
3268

>  <N_interactions>  (66) 
5

>  <Enamine>  (66) 
1

>  <Mcule>  (66) 
0

>  <N_PAINS>  (66) 
0

>  <UFF_Gibbs>  (66) 
8.130007

>  <strain_per_HA>  (66) 
0.625385

>  <intxn_scored>  (66) 
11.5

>  <saltbridge:HIS:51>  (66) 
0

>  <pistack:HIS:51>  (66) 
0

>  <hydroph_interaction:HIS:51>  (66) 
0

>  <hbond:ALA:132>  (66) 
0

>  <hbond:SER:135>  (66) 
0

>  <hydroph_interaction:TYR:150>  (66) 
1

>  <pistack:TYR:161>  (66) 
2

>  <hydroph_interaction:TYR:161>  (66) 
1

>  <hydroph_interaction:ASP:83>  (66) 
0

>  <hbond:TYR:130>  (66) 
1

>  <hydroph_interaction:ALA:132>  (66) 
0

>  <hbond:HIS:51>  (66) 
0

>  <hbond:ASP:129>  (66) 
0

>  <hbond:TYR:150>  (66) 
0

>  <hbond:GLY:151>  (66) 
0

>  <hbond:TYR:161>  (66) 
0

>  <hydroph_interaction:TYR:130>  (66) 
0

>  <hydroph_interaction:PRO:131>  (66) 
0

>  <hydroph_interaction:ASP:129>  (66) 
0

>  <saltbridge:ASP:75>  (66) 
0

>  <saltbridge:ASP:83>  (66) 
0

>  <hbond:ASN:152>  (66) 
0

>  <hydroph_interaction:ASN:152>  (66) 
0

>  <halogenbond:TYR:150>  (66) 
0

>  <hbond:ASP:83>  (66) 
0

>  <hydroph_interaction:VAL:155>  (66) 
0

>  <pication:TYR:161>  (66) 
0

>  <hbond:PRO:131>  (66) 
0

>  <saltbridge:ASP:129>  (66) 
0

>  <hbond:THR:134>  (66) 
0

>  <pication:HIS:51>  (66) 
0

>  <hbond:SER:81>  (66) 
0

>  <hydroph_interaction:THR:134>  (66) 
0

>  <hydroph_interaction:MET:49>  (66) 
0

$$$$
CSSB00102599878
     RDKit          3D

 22 23  0  0  0  0  0  0  0  0999 V2000
   -6.5750    5.0760  -20.6600 C   0  0  0  0  0  0  0  0  0  0  0  0
   -6.3810    5.2510  -19.1650 C   0  0  0  0  0  0  0  0  0  0  0  0
   -5.2160    5.4780  -18.5870 N   0  0  0  0  0  0  0  0  0  0  0  0
   -5.4110    5.5740  -17.2360 N   0  0  0  0  0  0  0  0  0  0  0  0
   -6.6850    5.4070  -17.0290 C   0  0  0  0  0  0  0  0  0  0  0  0
   -7.3600    5.1990  -18.1930 N   0  0  0  0  0  0  0  0  0  0  0  0
   -8.7390    4.9950  -18.1330 C   0  0  0  0  0  0  0  0  0  0  0  0
   -9.5670    4.7830  -19.3260 C   0  0  0  0  0  0  0  0  0  0  0  0
   -9.3240    5.0010  -16.9290 C   0  0  0  0  0  0  0  0  0  0  0  0
   -8.6790    5.2080  -15.7400 N   0  0  0  0  0  0  0  0  0  0  0  0
   -7.3940    5.4130  -15.7930 C   0  0  0  0  0  0  0  0  0  0  0  0
   -6.6660    5.6500  -14.6420 C   0  0  0  0  0  0  0  0  0  0  0  0
   -6.5140    6.0390  -21.1740 H   0  0  0  0  0  0  0  0  0  0  0  0
   -7.5510    4.6250  -20.8700 H   0  0  0  0  0  0  0  0  0  0  0  0
   -5.8080    4.4230  -21.0830 H   0  0  0  0  0  0  0  0  0  0  0  0
  -10.6130    4.6520  -19.0370 H   0  0  0  0  0  0  0  0  0  0  0  0
   -9.5290    5.6360  -19.9980 H   0  0  0  0  0  0  0  0  0  0  0  0
   -9.2290    3.8800  -19.8430 H   0  0  0  0  0  0  0  0  0  0  0  0
  -10.4010    4.8380  -16.8380 H   0  0  0  0  0  0  0  0  0  0  0  0
   -6.2720    6.6680  -14.6710 H   0  0  0  0  0  0  0  0  0  0  0  0
   -7.3290    5.5550  -13.7770 H   0  0  0  0  0  0  0  0  0  0  0  0
   -5.8310    4.9540  -14.5160 H   0  0  0  0  0  0  0  0  0  0  0  0
  1  2  1  0
  2  3  2  0
  3  4  1  0
  4  5  2  0
  5  6  1  0
  6  7  1  0
  7  8  1  0
  7  9  2  0
  9 10  1  0
 10 11  2  0
 11 12  1  0
  6  2  1  0
 11  5  1  0
  1 13  1  0
  1 14  1  0
  1 15  1  0
  8 16  1  0
  8 17  1  0
  8 18  1  0
  9 19  1  0
 12 20  1  0
 12 21  1  0
 12 22  1  0
A    1
 C1 
A    2
 C2 
A    3
 N1 
A    4
 N2 
A    5
 C3 
A    6
 N3 
A    7
 C4 
A    8
 C5 
A    9
 C6 
A   10
 N4 
A   11
 C7 
A   12
 C8 
A   13
 H1 
A   14
 H2 
A   15
 H3 
A   16
 H4 
A   17
 H5 
A   18
 H6 
A   19
 H7 
A   20
 H8 
A   21
 H9 
A   22
 H10
M  END
>  <ref_pdb>  (67) 
x0051_0B

>  <ref_mols>  (67) 
x0435_0B,x0693_0B

>  <original SMILES>  (67) 
[H]c1nc(C([H])([H])[H])c2nnc(C([H])([H])[H])n2c1C([H])([H])[H]

>  <index>  (67) 
2034

>  <∆∆G>  (67) 
-5.960111

>  <∆G_bound>  (67) 
-5.947003

>  <∆G_unbound>  (67) 
0.013109

>  <comRMSD>  (67) 
0.635269

>  <N_constrained_atoms>  (67) 
11.0

>  <N_unconstrained_atoms>  (67) 
1.0

>  <runtime>  (67) 
26.776784

>  <LE>  (67) 
0.496676

>  <percent_hybrid>  (67) 
34.0

>  <dist>  (67) 
2.0

>  <ecfp4>  (67) 
0.292683

>  <daylight>  (67) 
0.328467

>  <topodist>  (67) 
0.0

>  <mces>  (67) 
13.0

>  <tdn>  (67) 
0.0

>  <tup>  (67) 
0.0

>  <rdn>  (67) 
0.0

>  <rup>  (67) 
0.0

>  <ldn>  (67) 
0.0

>  <lup>  (67) 
0.0

>  <mut>  (67) 
2.0

>  <maj>  (67) 
2.0

>  <min>  (67) 
0.0

>  <hyb>  (67) 
0.0

>  <sub>  (67) 
0.0

>  <query_index>  (67) 
205.0

>  <max_hit_Tanimoto>  (67) 
0.242047

>  <largest_ring>  (67) 
6

>  <N_interactions_kept>  (67) 
2.5

>  <N_interactions_lost>  (67) 
2.5

>  <interaction_uniqueness_metric>  (67) 
0.08563

>  <ad_hoc_penalty>  (67) 
-10.237442

>  <N_rotatable_bonds>  (67) 
3

>  <N_HA>  (67) 
12

>  <cluster>  (67) 
4356

>  <N_interactions>  (67) 
5

>  <Enamine>  (67) 
1

>  <Mcule>  (67) 
0

>  <N_PAINS>  (67) 
0

>  <UFF_Gibbs>  (67) 
27.570561

>  <strain_per_HA>  (67) 
2.297547

>  <intxn_scored>  (67) 
11.5

>  <saltbridge:HIS:51>  (67) 
0

>  <pistack:HIS:51>  (67) 
0

>  <hydroph_interaction:HIS:51>  (67) 
0

>  <hbond:ALA:132>  (67) 
0

>  <hbond:SER:135>  (67) 
0

>  <hydroph_interaction:TYR:150>  (67) 
1

>  <pistack:TYR:161>  (67) 
2

>  <hydroph_interaction:TYR:161>  (67) 
1

>  <hydroph_interaction:ASP:83>  (67) 
0

>  <hbond:TYR:130>  (67) 
0

>  <hydroph_interaction:ALA:132>  (67) 
0

>  <hbond:HIS:51>  (67) 
0

>  <hbond:ASP:129>  (67) 
0

>  <hbond:TYR:150>  (67) 
0

>  <hbond:GLY:151>  (67) 
0

>  <hbond:TYR:161>  (67) 
1

>  <hydroph_interaction:TYR:130>  (67) 
0

>  <hydroph_interaction:PRO:131>  (67) 
0

>  <hydroph_interaction:ASP:129>  (67) 
0

>  <saltbridge:ASP:75>  (67) 
0

>  <saltbridge:ASP:83>  (67) 
0

>  <hbond:ASN:152>  (67) 
0

>  <hydroph_interaction:ASN:152>  (67) 
0

>  <halogenbond:TYR:150>  (67) 
0

>  <hbond:ASP:83>  (67) 
0

>  <hydroph_interaction:VAL:155>  (67) 
0

>  <pication:TYR:161>  (67) 
0

>  <hbond:PRO:131>  (67) 
0

>  <saltbridge:ASP:129>  (67) 
0

>  <hbond:THR:134>  (67) 
0

>  <pication:HIS:51>  (67) 
0

>  <hbond:SER:81>  (67) 
0

>  <hydroph_interaction:THR:134>  (67) 
0

>  <hydroph_interaction:MET:49>  (67) 
0

$$$$
Z1334285278
     RDKit          3D

 36 37  0  0  0  0  0  0  0  0999 V2000
   -4.5190    6.8550  -23.5270 C   0  0  0  0  0  0  0  0  0  0  0  0
   -5.6830    6.7100  -22.5410 C   0  0  0  0  0  0  0  0  0  0  0  0
   -5.2410    6.2560  -21.2510 O   0  0  0  0  0  0  0  0  0  0  0  0
   -6.0150    5.2790  -20.7010 C   0  0  0  0  0  0  0  0  0  0  0  0
   -6.5570    4.3950  -21.3400 O   0  0  0  0  0  0  0  0  0  0  0  0
   -6.0630    5.5040  -19.2470 N   0  0  0  0  0  0  0  0  0  0  0  0
   -7.3380    5.2610  -18.5380 C   0  0  0  0  0  0  0  0  0  0  0  0
   -8.5620    4.7600  -19.2560 C   0  0  0  0  0  0  0  0  0  0  0  0
   -9.7900    4.5500  -18.3860 C   0  0  0  0  0  0  0  0  0  0  0  0
   -9.6240    4.8720  -16.9230 C   0  0  0  0  0  0  0  0  0  0  0  0
   -8.4540    5.3360  -16.3650 C   0  0  0  0  0  0  0  0  0  0  0  0
   -8.3840    5.6540  -14.8740 C   0  0  0  0  0  0  0  0  0  0  0  0
   -7.8690    6.7180  -14.5570 O   0  0  0  0  0  0  0  0  0  0  0  0
   -8.9010    4.7260  -14.0120 N   0  0  0  0  0  0  0  0  0  0  0  0
   -8.8380    4.9430  -12.6680 C   0  0  0  0  0  0  0  0  0  0  0  0
   -8.6950    4.1900  -11.5230 C   0  0  0  0  0  0  0  0  0  0  0  0
   -8.6870    4.9680  -10.3800 C   0  0  0  0  0  0  0  0  0  0  0  0
   -8.5480    4.4180   -9.0110 C   0  0  0  0  0  0  0  0  0  0  0  0
   -8.8160    6.2840  -10.5630 N   0  0  0  0  0  0  0  0  0  0  0  0
   -8.9520    6.5680  -12.1910 S   0  0  0  0  0  0  0  0  0  0  0  0
   -7.3310    5.5230  -17.1660 C   0  0  0  0  0  0  0  0  0  0  0  0
   -4.8910    6.8500  -24.5590 H   0  0  0  0  0  0  0  0  0  0  0  0
   -3.8030    6.0310  -23.4420 H   0  0  0  0  0  0  0  0  0  0  0  0
   -3.9800    7.7970  -23.3870 H   0  0  0  0  0  0  0  0  0  0  0  0
   -6.1730    7.6870  -22.4100 H   0  0  0  0  0  0  0  0  0  0  0  0
   -6.4150    6.0260  -22.9840 H   0  0  0  0  0  0  0  0  0  0  0  0
   -5.4870    6.2800  -18.9570 H   0  0  0  0  0  0  0  0  0  0  0  0
   -8.5830    4.5530  -20.3330 H   0  0  0  0  0  0  0  0  0  0  0  0
  -10.7380    4.1910  -18.7770 H   0  0  0  0  0  0  0  0  0  0  0  0
  -10.4650    4.7380  -16.2430 H   0  0  0  0  0  0  0  0  0  0  0  0
   -9.3160    3.8620  -14.3500 H   0  0  0  0  0  0  0  0  0  0  0  0
   -8.6000    3.1120  -11.5170 H   0  0  0  0  0  0  0  0  0  0  0  0
   -8.7460    3.3400   -8.9980 H   0  0  0  0  0  0  0  0  0  0  0  0
   -9.2540    4.8960   -8.3260 H   0  0  0  0  0  0  0  0  0  0  0  0
   -7.5330    4.5840   -8.6340 H   0  0  0  0  0  0  0  0  0  0  0  0
   -6.4170    5.8860  -16.7070 H   0  0  0  0  0  0  0  0  0  0  0  0
  1  2  1  0
  2  3  1  0
  3  4  1  0
  4  5  2  0
  4  6  1  0
  6  7  1  0
  7  8  2  0
  8  9  1  0
  9 10  2  0
 10 11  1  0
 11 12  1  0
 12 13  2  0
 12 14  1  0
 14 15  1  0
 15 16  2  0
 16 17  1  0
 17 18  1  0
 17 19  2  0
 19 20  1  0
 11 21  2  0
 21  7  1  0
 20 15  1  0
  1 22  1  0
  1 23  1  0
  1 24  1  0
  2 25  1  0
  2 26  1  0
  6 27  1  0
  8 28  1  0
  9 29  1  0
 10 30  1  0
 14 31  1  0
 16 32  1  0
 18 33  1  0
 18 34  1  0
 18 35  1  0
 21 36  1  0
A    1
 C1 
A    2
 C2 
A    3
 O1 
A    4
 C3 
A    5
 O2 
A    6
 N1 
A    7
 C4 
A    8
 C5 
A    9
 C6 
A   10
 C7 
A   11
 C8 
A   12
 C9 
A   13
 O3 
A   14
 N2 
A   15
 C10
A   16
 C11
A   17
 C12
A   18
 C13
A   19
 N3 
A   20
 S1 
A   21
 C14
A   22
 H1 
A   23
 H2 
A   24
 H3 
A   25
 H4 
A   26
 H5 
A   27
 H6 
A   28
 H7 
A   29
 H8 
A   30
 H9 
A   31
 H10
A   32
 H11
A   33
 H12
A   34
 H13
A   35
 H14
A   36
 H15
M  END
>  <ref_pdb>  (68) 
x0051_0B

>  <ref_mols>  (68) 
x0443_0B,x1098_0B

>  <original SMILES>  (68) 
[H]c1c(C([H])([H])[H])nsc1N([H])C(=O)c1c([H])c([H])c([H])c(N([H])C(=O)OC([H])([H])C([H])([H])[H])c1[H]

>  <index>  (68) 
3508

>  <∆∆G>  (68) 
-7.483572

>  <∆G_bound>  (68) 
-6.95881

>  <∆G_unbound>  (68) 
0.524762

>  <comRMSD>  (68) 
0.685192

>  <N_constrained_atoms>  (68) 
19.0

>  <N_unconstrained_atoms>  (68) 
4.0

>  <runtime>  (68) 
60.764315

>  <LE>  (68) 
0.325373

>  <percent_hybrid>  (68) 
19.0

>  <dist>  (68) 
8.0

>  <ecfp4>  (68) 
0.191011

>  <daylight>  (68) 
0.25

>  <topodist>  (68) 
2.0

>  <mces>  (68) 
22.0

>  <tdn>  (68) 
1.0

>  <tup>  (68) 
0.0

>  <rdn>  (68) 
1.0

>  <rup>  (68) 
0.0

>  <ldn>  (68) 
0.0

>  <lup>  (68) 
0.0

>  <mut>  (68) 
5.0

>  <maj>  (68) 
5.0

>  <min>  (68) 
0.0

>  <hyb>  (68) 
1.0

>  <sub>  (68) 
1.0

>  <query_index>  (68) 
80.0

>  <max_hit_Tanimoto>  (68) 
0.307782

>  <largest_ring>  (68) 
6

>  <N_interactions_kept>  (68) 
1.0

>  <N_interactions_lost>  (68) 
5.0

>  <interaction_uniqueness_metric>  (68) 
0.259421

>  <ad_hoc_penalty>  (68) 
-2.307984

>  <N_rotatable_bonds>  (68) 
6

>  <N_HA>  (68) 
21

>  <cluster>  (68) 
2965

>  <N_interactions>  (68) 
9

>  <Enamine>  (68) 
1

>  <Mcule>  (68) 
0

>  <N_PAINS>  (68) 
0

>  <UFF_Gibbs>  (68) 
93.217693

>  <strain_per_HA>  (68) 
4.438938

>  <intxn_scored>  (68) 
11.5

>  <saltbridge:HIS:51>  (68) 
0

>  <pistack:HIS:51>  (68) 
1

>  <hydroph_interaction:HIS:51>  (68) 
1

>  <hbond:ALA:132>  (68) 
0

>  <hbond:SER:135>  (68) 
0

>  <hydroph_interaction:TYR:150>  (68) 
1

>  <pistack:TYR:161>  (68) 
1

>  <hydroph_interaction:TYR:161>  (68) 
0

>  <hydroph_interaction:ASP:83>  (68) 
0

>  <hbond:TYR:130>  (68) 
1

>  <hydroph_interaction:ALA:132>  (68) 
1

>  <hbond:HIS:51>  (68) 
0

>  <hbond:ASP:129>  (68) 
1

>  <hbond:TYR:150>  (68) 
0

>  <hbond:GLY:151>  (68) 
1

>  <hbond:TYR:161>  (68) 
1

>  <hydroph_interaction:TYR:130>  (68) 
0

>  <hydroph_interaction:PRO:131>  (68) 
0

>  <hydroph_interaction:ASP:129>  (68) 
0

>  <saltbridge:ASP:75>  (68) 
0

>  <saltbridge:ASP:83>  (68) 
0

>  <hbond:ASN:152>  (68) 
0

>  <hydroph_interaction:ASN:152>  (68) 
0

>  <halogenbond:TYR:150>  (68) 
0

>  <hbond:ASP:83>  (68) 
0

>  <hydroph_interaction:VAL:155>  (68) 
0

>  <pication:TYR:161>  (68) 
0

>  <hbond:PRO:131>  (68) 
0

>  <saltbridge:ASP:129>  (68) 
0

>  <hbond:THR:134>  (68) 
0

>  <pication:HIS:51>  (68) 
0

>  <hbond:SER:81>  (68) 
0

>  <hydroph_interaction:THR:134>  (68) 
0

>  <hydroph_interaction:MET:49>  (68) 
0

$$$$
Z5453069706
     RDKit          3D

 38 40  0  0  0  0  0  0  0  0999 V2000
   -5.4610    5.3550  -16.1310 C   0  0  0  0  0  0  0  0  0  0  0  0
   -6.8170    5.2050  -16.7280 C   0  0  0  0  0  0  0  0  0  0  0  0
   -6.9590    5.3340  -18.1120 C   0  0  0  0  0  0  0  0  0  0  0  0
   -8.3200    5.1680  -18.7130 C   0  0  0  0  0  0  0  0  0  0  0  0
   -9.4440    4.8870  -17.8110 C   0  0  0  0  0  0  0  0  0  0  0  0
  -10.7320    4.7130  -18.2180 C   0  0  0  0  0  0  0  0  0  0  0  0
  -11.3560    5.4930  -19.1800 N   0  0  0  0  0  0  0  0  0  0  0  0
   -9.1740    4.7890  -16.4380 C   0  0  0  0  0  0  0  0  0  0  0  0
   -7.9370    4.9270  -15.8930 C   0  0  0  0  0  0  0  0  0  0  0  0
   -7.7220    4.7740  -14.4700 N   0  0  0  0  0  0  0  0  0  0  0  0
   -7.8890    5.6570  -13.3710 C   0  0  0  0  0  0  0  0  0  0  0  0
   -7.2380    6.6780  -13.1590 O   0  0  0  0  0  0  0  0  0  0  0  0
   -8.9160    5.2700  -12.4680 C   0  0  0  0  0  0  0  0  0  0  0  0
   -8.8670    5.4200  -10.9570 C   0  0  0  0  0  0  0  0  0  0  0  0
   -8.9640    4.4050  -10.0120 C   0  0  0  0  0  0  0  0  0  0  0  0
   -9.1070    3.1020  -10.1890 O   0  0  0  0  0  0  0  0  0  0  0  0
   -9.4380    2.2810   -9.0550 C   0  0  0  0  0  0  0  0  0  0  0  0
   -9.5750    2.9150   -7.6660 C   0  0  0  0  0  0  0  0  0  0  0  0
   -8.9590    4.3000   -7.5200 C   0  0  0  0  0  0  0  0  0  0  0  0
   -8.8900    4.9990   -8.7850 N   0  0  0  0  0  0  0  0  0  0  0  0
   -8.7420    6.3420   -8.8370 N   0  0  0  0  0  0  0  0  0  0  0  0
   -8.7310    6.5920  -10.1560 C   0  0  0  0  0  0  0  0  0  0  0  0
   -4.7000    5.3010  -16.9110 H   0  0  0  0  0  0  0  0  0  0  0  0
   -5.2990    4.5580  -15.4000 H   0  0  0  0  0  0  0  0  0  0  0  0
   -5.3700    6.3260  -15.6310 H   0  0  0  0  0  0  0  0  0  0  0  0
   -6.1030    5.5460  -18.7520 H   0  0  0  0  0  0  0  0  0  0  0  0
   -8.4610    5.2580  -19.7970 H   0  0  0  0  0  0  0  0  0  0  0  0
  -10.0340    4.5810  -15.7940 H   0  0  0  0  0  0  0  0  0  0  0  0
   -7.5680    3.7950  -14.2080 H   0  0  0  0  0  0  0  0  0  0  0  0
   -9.8030    5.8080  -12.8160 H   0  0  0  0  0  0  0  0  0  0  0  0
   -9.1370    4.2190  -12.6950 H   0  0  0  0  0  0  0  0  0  0  0  0
  -10.4050    1.8730   -9.2980 H   0  0  0  0  0  0  0  0  0  0  0  0
   -8.7330    1.4480   -9.0230 H   0  0  0  0  0  0  0  0  0  0  0  0
   -9.0680    2.2510   -6.9530 H   0  0  0  0  0  0  0  0  0  0  0  0
  -10.6280    2.9420   -7.3690 H   0  0  0  0  0  0  0  0  0  0  0  0
   -7.9340    4.2320   -7.1440 H   0  0  0  0  0  0  0  0  0  0  0  0
   -9.5500    4.9080   -6.8280 H   0  0  0  0  0  0  0  0  0  0  0  0
   -8.6270    7.6190  -10.4870 H   0  0  0  0  0  0  0  0  0  0  0  0
  1  2  1  0
  2  3  2  0
  3  4  1  0
  4  5  2  0
  5  6  1  0
  6  7  3  0
  5  8  1  0
  8  9  2  0
  9 10  1  0
 10 11  1  0
 11 12  2  0
 11 13  1  0
 13 14  1  0
 14 15  2  0
 15 16  1  0
 16 17  1  0
 17 18  1  0
 18 19  1  0
 19 20  1  0
 20 21  1  0
 21 22  2  0
  9  2  1  0
 22 14  1  0
 20 15  1  0
  1 23  1  0
  1 24  1  0
  1 25  1  0
  3 26  1  0
  4 27  1  0
  8 28  1  0
 10 29  1  0
 13 30  1  0
 13 31  1  0
 17 32  1  0
 17 33  1  0
 18 34  1  0
 18 35  1  0
 19 36  1  0
 19 37  1  0
 22 38  1  0
A    1
 C1 
A    2
 C2 
A    3
 C3 
A    4
 C4 
A    5
 C5 
A    6
 C6 
A    7
 N1 
A    8
 C7 
A    9
 C8 
A   10
 N2 
A   11
 C9 
A   12
 O1 
A   13
 C10
A   14
 C11
A   15
 C12
A   16
 O2 
A   17
 C13
A   18
 C14
A   19
 C15
A   20
 N3 
A   21
 N4 
A   22
 C16
A   23
 H1 
A   24
 H2 
A   25
 H3 
A   26
 H4 
A   27
 H5 
A   28
 H6 
A   29
 H7 
A   30
 H8 
A   31
 H9 
A   32
 H10
A   33
 H11
A   34
 H12
A   35
 H13
A   36
 H14
A   37
 H15
A   38
 H16
M  END
>  <ref_pdb>  (69) 
x0051_0B

>  <ref_mols>  (69) 
x0553_0B,x0969_1B

>  <original SMILES>  (69) 
[H]c1nn2c(c1C([H])([H])C(=O)N([H])c1c([H])c(C#N)c([H])c([H])c1C([H])([H])[H])OC([H])([H])C([H])([H])C2([H])[H]

>  <index>  (69) 
162

>  <∆∆G>  (69) 
-5.911013

>  <∆G_bound>  (69) 
-5.012307

>  <∆G_unbound>  (69) 
0.898707

>  <comRMSD>  (69) 
0.528172

>  <N_constrained_atoms>  (69) 
19.0

>  <N_unconstrained_atoms>  (69) 
3.0

>  <runtime>  (69) 
49.207972

>  <LE>  (69) 
0.268682

>  <percent_hybrid>  (69) 
48.0

>  <dist>  (69) 
5.0

>  <ecfp4>  (69) 
0.44

>  <daylight>  (69) 
0.333333

>  <topodist>  (69) 
1.0

>  <mces>  (69) 
23.0

>  <tdn>  (69) 
0.0

>  <tup>  (69) 
1.0

>  <rdn>  (69) 
0.0

>  <rup>  (69) 
0.0

>  <ldn>  (69) 
0.0

>  <lup>  (69) 
0.0

>  <mut>  (69) 
3.0

>  <maj>  (69) 
3.0

>  <min>  (69) 
0.0

>  <hyb>  (69) 
1.0

>  <sub>  (69) 
0.0

>  <query_index>  (69) 
375.0

>  <max_hit_Tanimoto>  (69) 
0.255771

>  <largest_ring>  (69) 
0

>  <N_interactions_kept>  (69) 
1.0

>  <N_interactions_lost>  (69) 
1.5

>  <interaction_uniqueness_metric>  (69) 
0.312932

>  <ad_hoc_penalty>  (69) 
-25.225529

>  <N_rotatable_bonds>  (69) 
4

>  <N_HA>  (69) 
22

>  <cluster>  (69) 
6070

>  <N_interactions>  (69) 
7

>  <Enamine>  (69) 
1

>  <Mcule>  (69) 
0

>  <N_PAINS>  (69) 
0

>  <UFF_Gibbs>  (69) 
205.082185

>  <strain_per_HA>  (69) 
9.321918

>  <intxn_scored>  (69) 
11.5

>  <saltbridge:HIS:51>  (69) 
0

>  <pistack:HIS:51>  (69) 
1

>  <hydroph_interaction:HIS:51>  (69) 
1

>  <hbond:ALA:132>  (69) 
0

>  <hbond:SER:135>  (69) 
0

>  <hydroph_interaction:TYR:150>  (69) 
0

>  <pistack:TYR:161>  (69) 
1

>  <hydroph_interaction:TYR:161>  (69) 
1

>  <hydroph_interaction:ASP:83>  (69) 
0

>  <hbond:TYR:130>  (69) 
1

>  <hydroph_interaction:ALA:132>  (69) 
0

>  <hbond:HIS:51>  (69) 
0

>  <hbond:ASP:129>  (69) 
0

>  <hbond:TYR:150>  (69) 
0

>  <hbond:GLY:151>  (69) 
0

>  <hbond:TYR:161>  (69) 
1

>  <hydroph_interaction:TYR:130>  (69) 
0

>  <hydroph_interaction:PRO:131>  (69) 
0

>  <hydroph_interaction:ASP:129>  (69) 
0

>  <saltbridge:ASP:75>  (69) 
0

>  <saltbridge:ASP:83>  (69) 
0

>  <hbond:ASN:152>  (69) 
0

>  <hydroph_interaction:ASN:152>  (69) 
0

>  <halogenbond:TYR:150>  (69) 
0

>  <hbond:ASP:83>  (69) 
0

>  <hydroph_interaction:VAL:155>  (69) 
0

>  <pication:TYR:161>  (69) 
0

>  <hbond:PRO:131>  (69) 
0

>  <saltbridge:ASP:129>  (69) 
0

>  <hbond:THR:134>  (69) 
1

>  <pication:HIS:51>  (69) 
0

>  <hbond:SER:81>  (69) 
0

>  <hydroph_interaction:THR:134>  (69) 
0

>  <hydroph_interaction:MET:49>  (69) 
0

$$$$
CSSS00011962882
     RDKit          3D

 22 23  0  0  0  0  0  0  0  0999 V2000
   -7.1390    4.3270  -21.2740 N   0  0  0  0  0  0  0  0  0  0  0  0
   -6.1790    5.2870  -20.7570 C   0  0  0  0  0  0  0  0  0  0  0  0
   -6.1790    5.3710  -19.2800 C   0  0  0  0  0  0  0  0  0  0  0  0
   -4.9470    5.6150  -18.6910 C   0  0  0  0  0  0  0  0  0  0  0  0
   -4.7400    5.7230  -17.3710 N   0  0  0  0  0  0  0  0  0  0  0  0
   -5.8270    5.5740  -16.5990 C   0  0  0  0  0  0  0  0  0  0  0  0
   -7.1160    5.3240  -17.0540 C   0  0  0  0  0  0  0  0  0  0  0  0
   -8.1640    5.1830  -16.1550 C   0  0  0  0  0  0  0  0  0  0  0  0
   -9.5900    4.9050  -16.6320 C   0  0  0  0  0  0  0  0  0  0  0  0
   -9.8370    4.7920  -18.0000 C   0  0  0  0  0  0  0  0  0  0  0  0
   -8.6300    4.9600  -18.8980 C   0  0  0  0  0  0  0  0  0  0  0  0
   -7.3150    5.2170  -18.4490 C   0  0  0  0  0  0  0  0  0  0  0  0
   -6.6950    3.7950  -22.0240 H   0  0  0  0  0  0  0  0  0  0  0  0
   -7.8780    4.8820  -21.7070 H   0  0  0  0  0  0  0  0  0  0  0  0
   -6.4170    6.2600  -21.2000 H   0  0  0  0  0  0  0  0  0  0  0  0
   -5.1750    4.9940  -21.0840 H   0  0  0  0  0  0  0  0  0  0  0  0
   -4.0460    5.7360  -19.2910 H   0  0  0  0  0  0  0  0  0  0  0  0
   -5.6440    5.6640  -15.5290 H   0  0  0  0  0  0  0  0  0  0  0  0
   -7.9680    5.2710  -15.0860 H   0  0  0  0  0  0  0  0  0  0  0  0
  -10.3870    4.7970  -15.9080 H   0  0  0  0  0  0  0  0  0  0  0  0
  -10.8740    4.5950  -18.2890 H   0  0  0  0  0  0  0  0  0  0  0  0
   -8.7800    4.8770  -19.9790 H   0  0  0  0  0  0  0  0  0  0  0  0
  1  2  1  0
  2  3  1  0
  3  4  2  0
  4  5  1  0
  5  6  2  0
  6  7  1  0
  7  8  2  0
  8  9  1  0
  9 10  2  0
 10 11  1  0
 11 12  2  0
 12  3  1  0
 12  7  1  0
  1 13  1  0
  1 14  1  0
  2 15  1  0
  2 16  1  0
  4 17  1  0
  6 18  1  0
  8 19  1  0
  9 20  1  0
 10 21  1  0
 11 22  1  0
A    1
 N1 
A    2
 C1 
A    3
 C2 
A    4
 C3 
A    5
 N2 
A    6
 C4 
A    7
 C5 
A    8
 C6 
A    9
 C7 
A   10
 C8 
A   11
 C9 
A   12
 C10
A   13
 H1 
A   14
 H2 
A   15
 H3 
A   16
 H4 
A   17
 H5 
A   18
 H6 
A   19
 H7 
A   20
 H8 
A   21
 H9 
A   22
 H10
M  END
>  <ref_pdb>  (70) 
x0051_0B

>  <ref_mols>  (70) 
x0727_0B,x0425_0B

>  <original SMILES>  (70) 
[H]c1nc([H])c2c([H])c([H])c([H])c([H])c2c1C([H])([H])N([H])[H]

>  <index>  (70) 
827

>  <∆∆G>  (70) 
-7.562166

>  <∆G_bound>  (70) 
-7.490015

>  <∆G_unbound>  (70) 
0.072152

>  <comRMSD>  (70) 
0.723293

>  <N_constrained_atoms>  (70) 
12.0

>  <N_unconstrained_atoms>  (70) 
1.0

>  <runtime>  (70) 
27.158079

>  <LE>  (70) 
0.581705

>  <percent_hybrid>  (70) 
34.0

>  <dist>  (70) 
3.0

>  <ecfp4>  (70) 
0.325

>  <daylight>  (70) 
0.337209

>  <topodist>  (70) 
1.0

>  <mces>  (70) 
13.0

>  <tdn>  (70) 
0.0

>  <tup>  (70) 
0.0

>  <rdn>  (70) 
0.0

>  <rup>  (70) 
0.0

>  <ldn>  (70) 
1.0

>  <lup>  (70) 
0.0

>  <mut>  (70) 
2.0

>  <maj>  (70) 
2.0

>  <min>  (70) 
0.0

>  <hyb>  (70) 
0.0

>  <sub>  (70) 
0.0

>  <query_index>  (70) 
105.0

>  <max_hit_Tanimoto>  (70) 
0.319149

>  <largest_ring>  (70) 
6

>  <N_interactions_kept>  (70) 
0.0

>  <N_interactions_lost>  (70) 
3.5

>  <interaction_uniqueness_metric>  (70) 
0.12303

>  <ad_hoc_penalty>  (70) 
-17.78107

>  <N_rotatable_bonds>  (70) 
2

>  <N_HA>  (70) 
12

>  <cluster>  (70) 
5461

>  <N_interactions>  (70) 
7

>  <Enamine>  (70) 
1

>  <Mcule>  (70) 
0

>  <N_PAINS>  (70) 
0

>  <UFF_Gibbs>  (70) 
43.022018

>  <strain_per_HA>  (70) 
3.585168

>  <intxn_scored>  (70) 
11.5

>  <saltbridge:HIS:51>  (70) 
0

>  <pistack:HIS:51>  (70) 
0

>  <hydroph_interaction:HIS:51>  (70) 
0

>  <hbond:ALA:132>  (70) 
0

>  <hbond:SER:135>  (70) 
0

>  <hydroph_interaction:TYR:150>  (70) 
1

>  <pistack:TYR:161>  (70) 
2

>  <hydroph_interaction:TYR:161>  (70) 
1

>  <hydroph_interaction:ASP:83>  (70) 
0

>  <hbond:TYR:130>  (70) 
1

>  <hydroph_interaction:ALA:132>  (70) 
0

>  <hbond:HIS:51>  (70) 
0

>  <hbond:ASP:129>  (70) 
2

>  <hbond:TYR:150>  (70) 
0

>  <hbond:GLY:151>  (70) 
0

>  <hbond:TYR:161>  (70) 
0

>  <hydroph_interaction:TYR:130>  (70) 
0

>  <hydroph_interaction:PRO:131>  (70) 
0

>  <hydroph_interaction:ASP:129>  (70) 
0

>  <saltbridge:ASP:75>  (70) 
0

>  <saltbridge:ASP:83>  (70) 
0

>  <hbond:ASN:152>  (70) 
0

>  <hydroph_interaction:ASN:152>  (70) 
0

>  <halogenbond:TYR:150>  (70) 
0

>  <hbond:ASP:83>  (70) 
0

>  <hydroph_interaction:VAL:155>  (70) 
0

>  <pication:TYR:161>  (70) 
0

>  <hbond:PRO:131>  (70) 
0

>  <saltbridge:ASP:129>  (70) 
0

>  <hbond:THR:134>  (70) 
0

>  <pication:HIS:51>  (70) 
0

>  <hbond:SER:81>  (70) 
0

>  <hydroph_interaction:THR:134>  (70) 
0

>  <hydroph_interaction:MET:49>  (70) 
0

$$$$
CSSS00000029118
     RDKit          3D

 21 23  0  0  0  0  0  0  0  0999 V2000
   -5.2590    5.5880  -14.9730 O   0  0  0  0  0  0  0  0  0  0  0  0
   -6.2160    5.4460  -15.6930 C   0  0  0  0  0  0  0  0  0  0  0  0
   -7.6460    5.2400  -15.2610 C   0  0  0  0  0  0  0  0  0  0  0  0
   -8.3840    5.0880  -16.5630 C   0  0  0  0  0  0  0  0  0  0  0  0
   -9.8060    4.8430  -16.8100 C   0  0  0  0  0  0  0  0  0  0  0  0
  -10.2690    4.7360  -18.2730 C   0  0  0  0  0  0  0  0  0  0  0  0
   -9.1710    4.8950  -19.3220 C   0  0  0  0  0  0  0  0  0  0  0  0
   -7.8200    5.1290  -18.9730 C   0  0  0  0  0  0  0  0  0  0  0  0
   -6.7800    5.2800  -19.8960 C   0  0  0  0  0  0  0  0  0  0  0  0
   -5.4600    5.5050  -19.4490 C   0  0  0  0  0  0  0  0  0  0  0  0
   -5.1780    5.5780  -18.0760 C   0  0  0  0  0  0  0  0  0  0  0  0
   -6.2120    5.4280  -17.1650 C   0  0  0  0  0  0  0  0  0  0  0  0
   -7.5020    5.2110  -17.6080 C   0  0  0  0  0  0  0  0  0  0  0  0
   -7.7210    4.3290  -14.6630 H   0  0  0  0  0  0  0  0  0  0  0  0
   -7.9930    6.1210  -14.7180 H   0  0  0  0  0  0  0  0  0  0  0  0
  -10.4920    4.7410  -15.9840 H   0  0  0  0  0  0  0  0  0  0  0  0
  -11.3080    4.5600  -18.5390 H   0  0  0  0  0  0  0  0  0  0  0  0
   -9.4420    4.8250  -20.3720 H   0  0  0  0  0  0  0  0  0  0  0  0
   -6.9810    5.2230  -20.9630 H   0  0  0  0  0  0  0  0  0  0  0  0
   -4.6580    5.6180  -20.1730 H   0  0  0  0  0  0  0  0  0  0  0  0
   -4.1680    5.7480  -17.7230 H   0  0  0  0  0  0  0  0  0  0  0  0
  1  2  2  0
  2  3  1  0
  3  4  1  0
  4  5  2  0
  5  6  1  0
  6  7  2  0
  7  8  1  0
  8  9  2  0
  9 10  1  0
 10 11  2  0
 11 12  1  0
 12 13  2  0
 12  2  1  0
 13  4  1  0
 13  8  1  0
  3 14  1  0
  3 15  1  0
  5 16  1  0
  6 17  1  0
  7 18  1  0
  9 19  1  0
 10 20  1  0
 11 21  1  0
A    1
 O1 
A    2
 C1 
A    3
 C2 
A    4
 C3 
A    5
 C4 
A    6
 C5 
A    7
 C6 
A    8
 C7 
A    9
 C8 
A   10
 C9 
A   11
 C10
A   12
 C11
A   13
 C12
A   14
 H1 
A   15
 H2 
A   16
 H3 
A   17
 H4 
A   18
 H5 
A   19
 H6 
A   20
 H7 
A   21
 H8 
M  END
>  <ref_pdb>  (71) 
x0051_0B

>  <ref_mols>  (71) 
x0727_0B,x0455_0B

>  <original SMILES>  (71) 
[H]c1c([H])c2c3c(c([H])c([H])c([H])c3c1[H])C([H])([H])C2=O

>  <index>  (71) 
483

>  <∆∆G>  (71) 
-6.979772

>  <∆G_bound>  (71) 
-7.002299

>  <∆G_unbound>  (71) 
-0.022527

>  <comRMSD>  (71) 
0.536321

>  <N_constrained_atoms>  (71) 
13.0

>  <N_unconstrained_atoms>  (71) 
0.0

>  <runtime>  (71) 
18.485505

>  <LE>  (71) 
0.536906

>  <percent_hybrid>  (71) 
40.0

>  <dist>  (71) 
4.0

>  <ecfp4>  (71) 
0.25

>  <daylight>  (71) 
0.294118

>  <topodist>  (71) 
1.0

>  <mces>  (71) 
15.0

>  <tdn>  (71) 
0.0

>  <tup>  (71) 
0.0

>  <rdn>  (71) 
0.0

>  <rup>  (71) 
0.0

>  <ldn>  (71) 
1.0

>  <lup>  (71) 
0.0

>  <mut>  (71) 
2.0

>  <maj>  (71) 
2.0

>  <min>  (71) 
0.0

>  <hyb>  (71) 
1.0

>  <sub>  (71) 
0.0

>  <query_index>  (71) 
57.0

>  <max_hit_Tanimoto>  (71) 
0.143975

>  <largest_ring>  (71) 
0

>  <N_interactions_kept>  (71) 
0.0

>  <N_interactions_lost>  (71) 
3.0

>  <interaction_uniqueness_metric>  (71) 
0.050285

>  <ad_hoc_penalty>  (71) 
-22.948362

>  <N_rotatable_bonds>  (71) 
0

>  <N_HA>  (71) 
13

>  <cluster>  (71) 
5778

>  <N_interactions>  (71) 
6

>  <Enamine>  (71) 
1

>  <Mcule>  (71) 
0

>  <N_PAINS>  (71) 
0

>  <UFF_Gibbs>  (71) 
22.628177

>  <strain_per_HA>  (71) 
1.740629

>  <intxn_scored>  (71) 
11.5

>  <saltbridge:HIS:51>  (71) 
0

>  <pistack:HIS:51>  (71) 
0

>  <hydroph_interaction:HIS:51>  (71) 
0

>  <hbond:ALA:132>  (71) 
0

>  <hbond:SER:135>  (71) 
0

>  <hydroph_interaction:TYR:150>  (71) 
1

>  <pistack:TYR:161>  (71) 
2

>  <hydroph_interaction:TYR:161>  (71) 
3

>  <hydroph_interaction:ASP:83>  (71) 
0

>  <hbond:TYR:130>  (71) 
0

>  <hydroph_interaction:ALA:132>  (71) 
0

>  <hbond:HIS:51>  (71) 
0

>  <hbond:ASP:129>  (71) 
0

>  <hbond:TYR:150>  (71) 
0

>  <hbond:GLY:151>  (71) 
0

>  <hbond:TYR:161>  (71) 
0

>  <hydroph_interaction:TYR:130>  (71) 
0

>  <hydroph_interaction:PRO:131>  (71) 
0

>  <hydroph_interaction:ASP:129>  (71) 
0

>  <saltbridge:ASP:75>  (71) 
0

>  <saltbridge:ASP:83>  (71) 
0

>  <hbond:ASN:152>  (71) 
0

>  <hydroph_interaction:ASN:152>  (71) 
0

>  <halogenbond:TYR:150>  (71) 
0

>  <hbond:ASP:83>  (71) 
0

>  <hydroph_interaction:VAL:155>  (71) 
0

>  <pication:TYR:161>  (71) 
0

>  <hbond:PRO:131>  (71) 
0

>  <saltbridge:ASP:129>  (71) 
0

>  <hbond:THR:134>  (71) 
0

>  <pication:HIS:51>  (71) 
0

>  <hbond:SER:81>  (71) 
0

>  <hydroph_interaction:THR:134>  (71) 
0

>  <hydroph_interaction:MET:49>  (71) 
0

$$$$
CSSB00016994521
     RDKit          3D

 28 30  0  0  0  0  0  0  0  0999 V2000
   -8.8530    4.6320   -8.9450 Br  0  0  0  0  0  0  0  0  0  0  0  0
   -8.6600    4.9770  -10.7830 C   0  0  0  0  0  0  0  0  0  0  0  0
   -8.5330    3.8630  -11.7650 C   0  0  0  0  0  0  0  0  0  0  0  0
   -8.3570    4.1680  -13.1190 C   0  0  0  0  0  0  0  0  0  0  0  0
   -8.3000    5.4970  -13.5400 C   0  0  0  0  0  0  0  0  0  0  0  0
   -8.4480    6.5350  -12.5990 C   0  0  0  0  0  0  0  0  0  0  0  0
   -8.6260    6.2850  -11.2300 C   0  0  0  0  0  0  0  0  0  0  0  0
   -8.0560    5.9710  -14.9420 C   0  0  0  0  0  0  0  0  0  0  0  0
   -7.3560    6.9700  -14.9650 O   0  0  0  0  0  0  0  0  0  0  0  0
   -8.4950    5.4990  -16.2950 C   0  0  0  0  0  0  0  0  0  0  0  0
   -7.5670    5.5460  -17.3710 C   0  0  0  0  0  0  0  0  0  0  0  0
   -6.2160    5.9400  -17.4550 N   0  0  0  0  0  0  0  0  0  0  0  0
   -5.7750    5.7930  -18.7600 C   0  0  0  0  0  0  0  0  0  0  0  0
   -6.8500    5.3130  -19.4740 C   0  0  0  0  0  0  0  0  0  0  0  0
   -7.9310    5.1600  -18.6520 C   0  0  0  0  0  0  0  0  0  0  0  0
   -9.3040    4.6850  -18.9400 C   0  0  0  0  0  0  0  0  0  0  0  0
  -10.1940    4.6400  -17.8840 C   0  0  0  0  0  0  0  0  0  0  0  0
   -9.7840    5.0340  -16.5890 C   0  0  0  0  0  0  0  0  0  0  0  0
   -8.5690    2.8320  -11.4250 H   0  0  0  0  0  0  0  0  0  0  0  0
   -8.2510    3.3810  -13.8360 H   0  0  0  0  0  0  0  0  0  0  0  0
   -8.4100    7.5680  -12.9400 H   0  0  0  0  0  0  0  0  0  0  0  0
   -8.7250    7.1160  -10.5390 H   0  0  0  0  0  0  0  0  0  0  0  0
   -5.6760    6.2760  -16.6620 H   0  0  0  0  0  0  0  0  0  0  0  0
   -4.7850    6.0110  -19.1540 H   0  0  0  0  0  0  0  0  0  0  0  0
   -6.8350    5.0890  -20.5360 H   0  0  0  0  0  0  0  0  0  0  0  0
   -9.4940    4.4090  -19.9840 H   0  0  0  0  0  0  0  0  0  0  0  0
  -11.2110    4.3020  -18.0590 H   0  0  0  0  0  0  0  0  0  0  0  0
  -10.4930    4.9830  -15.7810 H   0  0  0  0  0  0  0  0  0  0  0  0
  1  2  1  0
  2  3  2  0
  3  4  1  0
  4  5  2  0
  5  6  1  0
  6  7  2  0
  5  8  1  0
  8  9  2  0
  8 10  1  0
 10 11  2  0
 11 12  1  0
 12 13  1  0
 13 14  2  0
 14 15  1  0
 15 16  2  0
 16 17  1  0
 17 18  2  0
  7  2  1  0
 18 10  1  0
 15 11  1  0
  3 19  1  0
  4 20  1  0
  6 21  1  0
  7 22  1  0
 12 23  1  0
 13 24  1  0
 14 25  1  0
 16 26  1  0
 17 27  1  0
 18 28  1  0
A    1
BR1 
A    2
 C1 
A    3
 C2 
A    4
 C3 
A    5
 C4 
A    6
 C5 
A    7
 C6 
A    8
 C7 
A    9
 O1 
A   10
 C8 
A   11
 C9 
A   12
 N1 
A   13
 C10
A   14
 C11
A   15
 C12
A   16
 C13
A   17
 C14
A   18
 C15
A   19
 H1 
A   20
 H2 
A   21
 H3 
A   22
 H4 
A   23
 H5 
A   24
 H6 
A   25
 H7 
A   26
 H8 
A   27
 H9 
A   28
 H10
M  END
>  <ref_pdb>  (72) 
x0051_0B

>  <ref_mols>  (72) 
x1098_0B,x0490_0B

>  <original SMILES>  (72) 
[H]c1c([H])c(C(=O)c2c([H])c([H])c([H])c3c([H])c([H])n([H])c23)c([H])c([H])c1Br

>  <index>  (72) 
1912

>  <∆∆G>  (72) 
-6.18992

>  <∆G_bound>  (72) 
-5.96241

>  <∆G_unbound>  (72) 
0.22751

>  <comRMSD>  (72) 
0.634694

>  <N_constrained_atoms>  (72) 
19.0

>  <N_unconstrained_atoms>  (72) 
0.0

>  <runtime>  (72) 
58.418727

>  <LE>  (72) 
0.325785

>  <percent_hybrid>  (72) 
10.0

>  <dist>  (72) 
10.0

>  <ecfp4>  (72) 
0.164384

>  <daylight>  (72) 
0.138614

>  <topodist>  (72) 
4.0

>  <mces>  (72) 
19.0

>  <tdn>  (72) 
2.0

>  <tup>  (72) 
0.0

>  <rdn>  (72) 
1.0

>  <rup>  (72) 
1.0

>  <ldn>  (72) 
0.0

>  <lup>  (72) 
0.0

>  <mut>  (72) 
5.0

>  <maj>  (72) 
5.0

>  <min>  (72) 
0.0

>  <hyb>  (72) 
1.0

>  <sub>  (72) 
2.0

>  <query_index>  (72) 
69.0

>  <max_hit_Tanimoto>  (72) 
0.201835

>  <largest_ring>  (72) 
6

>  <N_interactions_kept>  (72) 
3.0

>  <N_interactions_lost>  (72) 
3.0

>  <interaction_uniqueness_metric>  (72) 
0.084414

>  <ad_hoc_penalty>  (72) 
-11.158078

>  <N_rotatable_bonds>  (72) 
2

>  <N_HA>  (72) 
18

>  <cluster>  (72) 
4463

>  <N_interactions>  (72) 
5

>  <Enamine>  (72) 
1

>  <Mcule>  (72) 
0

>  <N_PAINS>  (72) 
0

>  <UFF_Gibbs>  (72) 
37.832487

>  <strain_per_HA>  (72) 
2.101805

>  <intxn_scored>  (72) 
11.0

>  <saltbridge:HIS:51>  (72) 
0

>  <pistack:HIS:51>  (72) 
1

>  <hydroph_interaction:HIS:51>  (72) 
0

>  <hbond:ALA:132>  (72) 
0

>  <hbond:SER:135>  (72) 
0

>  <hydroph_interaction:TYR:150>  (72) 
1

>  <pistack:TYR:161>  (72) 
2

>  <hydroph_interaction:TYR:161>  (72) 
0

>  <hydroph_interaction:ASP:83>  (72) 
0

>  <hbond:TYR:130>  (72) 
0

>  <hydroph_interaction:ALA:132>  (72) 
1

>  <hbond:HIS:51>  (72) 
0

>  <hbond:ASP:129>  (72) 
0

>  <hbond:TYR:150>  (72) 
0

>  <hbond:GLY:151>  (72) 
0

>  <hbond:TYR:161>  (72) 
0

>  <hydroph_interaction:TYR:130>  (72) 
0

>  <hydroph_interaction:PRO:131>  (72) 
0

>  <hydroph_interaction:ASP:129>  (72) 
0

>  <saltbridge:ASP:75>  (72) 
0

>  <saltbridge:ASP:83>  (72) 
0

>  <hbond:ASN:152>  (72) 
0

>  <hydroph_interaction:ASN:152>  (72) 
0

>  <halogenbond:TYR:150>  (72) 
0

>  <hbond:ASP:83>  (72) 
0

>  <hydroph_interaction:VAL:155>  (72) 
0

>  <pication:TYR:161>  (72) 
0

>  <hbond:PRO:131>  (72) 
0

>  <saltbridge:ASP:129>  (72) 
0

>  <hbond:THR:134>  (72) 
0

>  <pication:HIS:51>  (72) 
0

>  <hbond:SER:81>  (72) 
0

>  <hydroph_interaction:THR:134>  (72) 
0

>  <hydroph_interaction:MET:49>  (72) 
0

$$$$
Z3537468956
     RDKit          3D

 40 43  0  0  0  0  0  0  0  0999 V2000
   -6.4930    5.1440  -20.4210 C   0  0  0  0  0  0  0  0  0  0  0  0
   -6.5290    5.2490  -18.9840 N   0  0  0  0  0  0  0  0  0  0  0  0
   -5.4040    5.4940  -18.2980 N   0  0  0  0  0  0  0  0  0  0  0  0
   -5.7240    5.5390  -17.0040 N   0  0  0  0  0  0  0  0  0  0  0  0
   -7.0740    5.3190  -16.8680 C   0  0  0  0  0  0  0  0  0  0  0  0
   -7.9270    5.2650  -15.7230 C   0  0  0  0  0  0  0  0  0  0  0  0
   -7.3480    5.4890  -14.3300 C   0  0  0  0  0  0  0  0  0  0  0  0
   -6.3470    6.1570  -14.1330 O   0  0  0  0  0  0  0  0  0  0  0  0
   -8.0430    4.8760  -13.2900 O   0  0  0  0  0  0  0  0  0  0  0  0
   -8.8220    5.7850  -12.4530 C   0  0  0  0  0  0  0  0  0  0  0  0
   -8.8260    5.5780  -10.9370 C   0  0  0  0  0  0  0  0  0  0  0  0
   -8.9180    4.4370  -10.1220 C   0  0  0  0  0  0  0  0  0  0  0  0
   -9.0310    2.9810  -10.3960 C   0  0  0  0  0  0  0  0  0  0  0  0
   -8.6120    2.2100   -9.1510 C   0  0  0  0  0  0  0  0  0  0  0  0
   -9.4210    2.6550   -7.9430 C   0  0  0  0  0  0  0  0  0  0  0  0
   -8.9840    4.0700   -7.6110 C   0  0  0  0  0  0  0  0  0  0  0  0
   -8.8940    4.8920   -8.8130 N   0  0  0  0  0  0  0  0  0  0  0  0
   -8.7830    6.2150   -8.7050 N   0  0  0  0  0  0  0  0  0  0  0  0
   -8.7430    6.6280   -9.9770 C   0  0  0  0  0  0  0  0  0  0  0  0
   -9.2960    5.0090  -15.9840 C   0  0  0  0  0  0  0  0  0  0  0  0
   -9.7820    4.8180  -17.2910 C   0  0  0  0  0  0  0  0  0  0  0  0
   -8.9520    4.8720  -18.4020 C   0  0  0  0  0  0  0  0  0  0  0  0
   -7.6090    5.1260  -18.1540 C   0  0  0  0  0  0  0  0  0  0  0  0
   -7.3460    4.5580  -20.7750 H   0  0  0  0  0  0  0  0  0  0  0  0
   -6.5290    6.1520  -20.8380 H   0  0  0  0  0  0  0  0  0  0  0  0
   -5.5670    4.6500  -20.7170 H   0  0  0  0  0  0  0  0  0  0  0  0
   -9.8620    5.7340  -12.7940 H   0  0  0  0  0  0  0  0  0  0  0  0
   -8.4650    6.8020  -12.6570 H   0  0  0  0  0  0  0  0  0  0  0  0
  -10.0630    2.7300  -10.6620 H   0  0  0  0  0  0  0  0  0  0  0  0
   -8.3960    2.6920  -11.2430 H   0  0  0  0  0  0  0  0  0  0  0  0
   -7.5490    2.3830   -8.9630 H   0  0  0  0  0  0  0  0  0  0  0  0
   -8.7340    1.1490   -9.3050 H   0  0  0  0  0  0  0  0  0  0  0  0
   -9.2190    1.9870   -7.1020 H   0  0  0  0  0  0  0  0  0  0  0  0
  -10.4980    2.6150   -8.1520 H   0  0  0  0  0  0  0  0  0  0  0  0
   -8.0020    4.0640   -7.1230 H   0  0  0  0  0  0  0  0  0  0  0  0
   -9.7090    4.5570   -6.9500 H   0  0  0  0  0  0  0  0  0  0  0  0
   -8.6560    7.6910  -10.1640 H   0  0  0  0  0  0  0  0  0  0  0  0
  -10.0070    4.9560  -15.1620 H   0  0  0  0  0  0  0  0  0  0  0  0
  -10.8390    4.6240  -17.4400 H   0  0  0  0  0  0  0  0  0  0  0  0
   -9.3430    4.7230  -19.4030 H   0  0  0  0  0  0  0  0  0  0  0  0
  1  2  1  0
  2  3  1  0
  3  4  2  0
  4  5  1  0
  5  6  2  0
  6  7  1  0
  7  8  2  0
  7  9  1  0
  9 10  1  0
 10 11  1  0
 11 12  2  0
 12 13  1  0
 13 14  1  0
 14 15  1  0
 15 16  1  0
 16 17  1  0
 17 18  1  0
 18 19  2  0
  6 20  1  0
 20 21  2  0
 21 22  1  0
 22 23  2  0
 23  2  1  0
 23  5  1  0
 19 11  1  0
 17 12  1  0
  1 24  1  0
  1 25  1  0
  1 26  1  0
 10 27  1  0
 10 28  1  0
 13 29  1  0
 13 30  1  0
 14 31  1  0
 14 32  1  0
 15 33  1  0
 15 34  1  0
 16 35  1  0
 16 36  1  0
 19 37  1  0
 20 38  1  0
 21 39  1  0
 22 40  1  0
A    1
 C1 
A    2
 N1 
A    3
 N2 
A    4
 N3 
A    5
 C2 
A    6
 C3 
A    7
 C4 
A    8
 O1 
A    9
 O2 
A   10
 C5 
A   11
 C6 
A   12
 C7 
A   13
 C8 
A   14
 C9 
A   15
 C10
A   16
 C11
A   17
 N4 
A   18
 N5 
A   19
 C12
A   20
 C13
A   21
 C14
A   22
 C15
A   23
 C16
A   24
 H1 
A   25
 H2 
A   26
 H3 
A   27
 H4 
A   28
 H5 
A   29
 H6 
A   30
 H7 
A   31
 H8 
A   32
 H9 
A   33
 H10
A   34
 H11
A   35
 H12
A   36
 H13
A   37
 H14
A   38
 H15
A   39
 H16
A   40
 H17
M  END
>  <ref_pdb>  (73) 
x0051_0B

>  <ref_mols>  (73) 
x0969_1B,x0435_0B

>  <original SMILES>  (73) 
[H]c1nn2c(c1C([H])([H])OC(=O)c1c([H])c([H])c([H])c3c1nnn3C([H])([H])[H])C([H])([H])C([H])([H])C([H])([H])C2([H])[H]

>  <index>  (73) 
368

>  <∆∆G>  (73) 
-7.886131

>  <∆G_bound>  (73) 
-7.266658

>  <∆G_unbound>  (73) 
0.619473

>  <comRMSD>  (73) 
0.384331

>  <N_constrained_atoms>  (73) 
20.0

>  <N_unconstrained_atoms>  (73) 
3.0

>  <runtime>  (73) 
61.988242

>  <LE>  (73) 
0.342875

>  <percent_hybrid>  (73) 
50.0

>  <dist>  (73) 
6.0

>  <ecfp4>  (73) 
0.197674

>  <daylight>  (73) 
0.332335

>  <topodist>  (73) 
1.0

>  <mces>  (73) 
25.0

>  <tdn>  (73) 
0.0

>  <tup>  (73) 
1.0

>  <rdn>  (73) 
0.0

>  <rup>  (73) 
0.0

>  <ldn>  (73) 
0.0

>  <lup>  (73) 
0.0

>  <mut>  (73) 
4.0

>  <maj>  (73) 
4.0

>  <min>  (73) 
0.0

>  <hyb>  (73) 
1.0

>  <sub>  (73) 
0.0

>  <query_index>  (73) 
343.0

>  <max_hit_Tanimoto>  (73) 
0.299233

>  <largest_ring>  (73) 
0

>  <N_interactions_kept>  (73) 
2.5

>  <N_interactions_lost>  (73) 
1.0

>  <interaction_uniqueness_metric>  (73) 
0.131133

>  <ad_hoc_penalty>  (73) 
-25.338246

>  <N_rotatable_bonds>  (73) 
4

>  <N_HA>  (73) 
23

>  <cluster>  (73) 
5881

>  <N_interactions>  (73) 
4

>  <Enamine>  (73) 
1

>  <Mcule>  (73) 
0

>  <N_PAINS>  (73) 
0

>  <UFF_Gibbs>  (73) 
40.066731

>  <strain_per_HA>  (73) 
1.742032

>  <intxn_scored>  (73) 
11.0

>  <saltbridge:HIS:51>  (73) 
0

>  <pistack:HIS:51>  (73) 
1

>  <hydroph_interaction:HIS:51>  (73) 
0

>  <hbond:ALA:132>  (73) 
0

>  <hbond:SER:135>  (73) 
0

>  <hydroph_interaction:TYR:150>  (73) 
0

>  <pistack:TYR:161>  (73) 
2

>  <hydroph_interaction:TYR:161>  (73) 
0

>  <hydroph_interaction:ASP:83>  (73) 
1

>  <hbond:TYR:130>  (73) 
0

>  <hydroph_interaction:ALA:132>  (73) 
0

>  <hbond:HIS:51>  (73) 
0

>  <hbond:ASP:129>  (73) 
0

>  <hbond:TYR:150>  (73) 
0

>  <hbond:GLY:151>  (73) 
0

>  <hbond:TYR:161>  (73) 
0

>  <hydroph_interaction:TYR:130>  (73) 
0

>  <hydroph_interaction:PRO:131>  (73) 
0

>  <hydroph_interaction:ASP:129>  (73) 
0

>  <saltbridge:ASP:75>  (73) 
0

>  <saltbridge:ASP:83>  (73) 
0

>  <hbond:ASN:152>  (73) 
0

>  <hydroph_interaction:ASN:152>  (73) 
0

>  <halogenbond:TYR:150>  (73) 
0

>  <hbond:ASP:83>  (73) 
0

>  <hydroph_interaction:VAL:155>  (73) 
0

>  <pication:TYR:161>  (73) 
0

>  <hbond:PRO:131>  (73) 
0

>  <saltbridge:ASP:129>  (73) 
0

>  <hbond:THR:134>  (73) 
0

>  <pication:HIS:51>  (73) 
0

>  <hbond:SER:81>  (73) 
0

>  <hydroph_interaction:THR:134>  (73) 
0

>  <hydroph_interaction:MET:49>  (73) 
0

$$$$
Z666227788
     RDKit          3D

 37 38  0  0  0  0  0  0  0  0999 V2000
   -5.8170    6.9740  -23.0760 C   0  0  0  0  0  0  0  0  0  0  0  0
   -4.7400    6.7890  -21.9870 C   0  0  0  0  0  0  0  0  0  0  0  0
   -5.3640    6.6730  -20.6960 O   0  0  0  0  0  0  0  0  0  0  0  0
   -5.9680    5.4680  -20.4780 C   0  0  0  0  0  0  0  0  0  0  0  0
   -6.3430    4.7300  -21.3690 O   0  0  0  0  0  0  0  0  0  0  0  0
   -6.0520    5.2700  -19.1460 N   0  0  0  0  0  0  0  0  0  0  0  0
   -7.2200    5.1190  -18.4800 C   0  0  0  0  0  0  0  0  0  0  0  0
   -8.3910    4.6590  -19.0870 C   0  0  0  0  0  0  0  0  0  0  0  0
   -9.5670    4.5060  -18.3420 C   0  0  0  0  0  0  0  0  0  0  0  0
   -9.6070    4.8130  -16.9650 C   0  0  0  0  0  0  0  0  0  0  0  0
   -8.4350    5.2770  -16.3910 C   0  0  0  0  0  0  0  0  0  0  0  0
   -8.3720    5.6290  -15.0300 C   0  0  0  0  0  0  0  0  0  0  0  0
   -7.8700    6.7060  -14.7320 O   0  0  0  0  0  0  0  0  0  0  0  0
   -8.8790    4.7380  -14.1080 N   0  0  0  0  0  0  0  0  0  0  0  0
   -8.8310    5.0260  -12.7580 C   0  0  0  0  0  0  0  0  0  0  0  0
   -8.7050    4.2060  -11.6430 C   0  0  0  0  0  0  0  0  0  0  0  0
   -8.7100    5.0220  -10.5490 C   0  0  0  0  0  0  0  0  0  0  0  0
   -8.5920    4.5210   -9.1230 C   0  0  0  0  0  0  0  0  0  0  0  0
   -8.8350    6.3830  -10.8580 N   0  0  0  0  0  0  0  0  0  0  0  0
   -8.9060    6.3190  -12.2210 N   0  0  0  0  0  0  0  0  0  0  0  0
   -7.2670    5.4230  -17.1310 C   0  0  0  0  0  0  0  0  0  0  0  0
   -5.3540    7.1800  -24.0430 H   0  0  0  0  0  0  0  0  0  0  0  0
   -6.3930    6.0520  -23.1900 H   0  0  0  0  0  0  0  0  0  0  0  0
   -6.4810    7.8150  -22.8550 H   0  0  0  0  0  0  0  0  0  0  0  0
   -4.1530    5.8880  -22.2120 H   0  0  0  0  0  0  0  0  0  0  0  0
   -4.0790    7.6620  -21.9840 H   0  0  0  0  0  0  0  0  0  0  0  0
   -5.2590    5.6480  -18.6440 H   0  0  0  0  0  0  0  0  0  0  0  0
   -8.4090    4.4080  -20.1500 H   0  0  0  0  0  0  0  0  0  0  0  0
  -10.4640    4.1480  -18.8230 H   0  0  0  0  0  0  0  0  0  0  0  0
  -10.5150    4.6890  -16.3980 H   0  0  0  0  0  0  0  0  0  0  0  0
   -9.3060    3.8650  -14.4120 H   0  0  0  0  0  0  0  0  0  0  0  0
   -8.6180    3.1310  -11.6430 H   0  0  0  0  0  0  0  0  0  0  0  0
   -8.8820    3.4700   -9.0620 H   0  0  0  0  0  0  0  0  0  0  0  0
   -7.5680    4.6170   -8.7510 H   0  0  0  0  0  0  0  0  0  0  0  0
   -9.2440    5.0950   -8.4580 H   0  0  0  0  0  0  0  0  0  0  0  0
   -9.0040    7.1780  -12.7550 H   0  0  0  0  0  0  0  0  0  0  0  0
   -6.3840    5.7860  -16.6180 H   0  0  0  0  0  0  0  0  0  0  0  0
  1  2  1  0
  2  3  1  0
  3  4  1  0
  4  5  2  0
  4  6  1  0
  6  7  1  0
  7  8  2  0
  8  9  1  0
  9 10  2  0
 10 11  1  0
 11 12  1  0
 12 13  2  0
 12 14  1  0
 14 15  1  0
 15 16  2  0
 16 17  1  0
 17 18  1  0
 17 19  2  0
 19 20  1  0
 11 21  2  0
 21  7  1  0
 20 15  1  0
  1 22  1  0
  1 23  1  0
  1 24  1  0
  2 25  1  0
  2 26  1  0
  6 27  1  0
  8 28  1  0
  9 29  1  0
 10 30  1  0
 14 31  1  0
 16 32  1  0
 18 33  1  0
 18 34  1  0
 18 35  1  0
 20 36  1  0
 21 37  1  0
A    1
 C1 
A    2
 C2 
A    3
 O1 
A    4
 C3 
A    5
 O2 
A    6
 N1 
A    7
 C4 
A    8
 C5 
A    9
 C6 
A   10
 C7 
A   11
 C8 
A   12
 C9 
A   13
 O3 
A   14
 N2 
A   15
 C10
A   16
 C11
A   17
 C12
A   18
 C13
A   19
 N3 
A   20
 N4 
A   21
 C14
A   22
 H1 
A   23
 H2 
A   24
 H3 
A   25
 H4 
A   26
 H5 
A   27
 H6 
A   28
 H7 
A   29
 H8 
A   30
 H9 
A   31
 H10
A   32
 H11
A   33
 H12
A   34
 H13
A   35
 H14
A   36
 H15
A   37
 H16
M  END
>  <ref_pdb>  (74) 
x0051_0B

>  <ref_mols>  (74) 
x0443_0B,x1098_0B

>  <original SMILES>  (74) 
[H]c1c([H])c(C(=O)N([H])c2c([H])c(C([H])([H])[H])nn2[H])c([H])c(N([H])C(=O)OC([H])([H])C([H])([H])[H])c1[H]

>  <index>  (74) 
4115

>  <∆∆G>  (74) 
-8.192736

>  <∆G_bound>  (74) 
-7.447969

>  <∆G_unbound>  (74) 
0.744768

>  <comRMSD>  (74) 
0.635683

>  <N_constrained_atoms>  (74) 
19.0

>  <N_unconstrained_atoms>  (74) 
4.0

>  <runtime>  (74) 
67.405313

>  <LE>  (74) 
0.356206

>  <percent_hybrid>  (74) 
19.0

>  <dist>  (74) 
8.0

>  <ecfp4>  (74) 
0.193182

>  <daylight>  (74) 
0.294355

>  <topodist>  (74) 
2.0

>  <mces>  (74) 
22.0

>  <tdn>  (74) 
1.0

>  <tup>  (74) 
0.0

>  <rdn>  (74) 
1.0

>  <rup>  (74) 
0.0

>  <ldn>  (74) 
0.0

>  <lup>  (74) 
0.0

>  <mut>  (74) 
5.0

>  <maj>  (74) 
5.0

>  <min>  (74) 
0.0

>  <hyb>  (74) 
1.0

>  <sub>  (74) 
1.0

>  <query_index>  (74) 
80.0

>  <max_hit_Tanimoto>  (74) 
0.317967

>  <largest_ring>  (74) 
6

>  <N_interactions_kept>  (74) 
1.0

>  <N_interactions_lost>  (74) 
5.0

>  <interaction_uniqueness_metric>  (74) 
0.237447

>  <ad_hoc_penalty>  (74) 
-0.289462

>  <N_rotatable_bonds>  (74) 
6

>  <N_HA>  (74) 
21

>  <cluster>  (74) 
2389

>  <N_interactions>  (74) 
8

>  <Enamine>  (74) 
1

>  <Mcule>  (74) 
0

>  <N_PAINS>  (74) 
0

>  <UFF_Gibbs>  (74) 
66.268824

>  <strain_per_HA>  (74) 
3.155658

>  <intxn_scored>  (74) 
11.0

>  <saltbridge:HIS:51>  (74) 
0

>  <pistack:HIS:51>  (74) 
1

>  <hydroph_interaction:HIS:51>  (74) 
1

>  <hbond:ALA:132>  (74) 
0

>  <hbond:SER:135>  (74) 
0

>  <hydroph_interaction:TYR:150>  (74) 
1

>  <pistack:TYR:161>  (74) 
1

>  <hydroph_interaction:TYR:161>  (74) 
0

>  <hydroph_interaction:ASP:83>  (74) 
0

>  <hbond:TYR:130>  (74) 
1

>  <hydroph_interaction:ALA:132>  (74) 
0

>  <hbond:HIS:51>  (74) 
0

>  <hbond:ASP:129>  (74) 
1

>  <hbond:TYR:150>  (74) 
0

>  <hbond:GLY:151>  (74) 
1

>  <hbond:TYR:161>  (74) 
1

>  <hydroph_interaction:TYR:130>  (74) 
0

>  <hydroph_interaction:PRO:131>  (74) 
0

>  <hydroph_interaction:ASP:129>  (74) 
0

>  <saltbridge:ASP:75>  (74) 
0

>  <saltbridge:ASP:83>  (74) 
0

>  <hbond:ASN:152>  (74) 
0

>  <hydroph_interaction:ASN:152>  (74) 
0

>  <halogenbond:TYR:150>  (74) 
0

>  <hbond:ASP:83>  (74) 
0

>  <hydroph_interaction:VAL:155>  (74) 
0

>  <pication:TYR:161>  (74) 
0

>  <hbond:PRO:131>  (74) 
0

>  <saltbridge:ASP:129>  (74) 
0

>  <hbond:THR:134>  (74) 
0

>  <pication:HIS:51>  (74) 
0

>  <hbond:SER:81>  (74) 
0

>  <hydroph_interaction:THR:134>  (74) 
0

>  <hydroph_interaction:MET:49>  (74) 
0

$$$$
Z3205056479
     RDKit          3D

 42 45  0  0  0  0  0  0  0  0999 V2000
   -6.3790    5.1080  -20.5420 C   0  0  0  0  0  0  0  0  0  0  0  0
   -6.4880    5.2560  -19.0690 C   0  0  0  0  0  0  0  0  0  0  0  0
   -5.4180    5.5340  -18.3150 N   0  0  0  0  0  0  0  0  0  0  0  0
   -5.9110    5.5910  -17.0610 N   0  0  0  0  0  0  0  0  0  0  0  0
   -7.2610    5.3600  -16.9730 C   0  0  0  0  0  0  0  0  0  0  0  0
   -8.1770    5.3260  -15.8900 C   0  0  0  0  0  0  0  0  0  0  0  0
   -7.7950    5.5810  -14.4640 C   0  0  0  0  0  0  0  0  0  0  0  0
   -6.7390    6.1530  -14.2210 O   0  0  0  0  0  0  0  0  0  0  0  0
   -8.6950    5.1450  -13.4850 N   0  0  0  0  0  0  0  0  0  0  0  0
   -9.3730    6.0450  -12.5390 C   0  0  0  0  0  0  0  0  0  0  0  0
   -8.9320    5.7380  -11.1390 C   0  0  0  0  0  0  0  0  0  0  0  0
   -8.5720    4.5230  -10.6250 C   0  0  0  0  0  0  0  0  0  0  0  0
   -8.5150    3.1590  -11.2450 C   0  0  0  0  0  0  0  0  0  0  0  0
   -7.7540    2.2010  -10.3540 C   0  0  0  0  0  0  0  0  0  0  0  0
   -8.3240    2.4050   -9.0000 C   0  0  0  0  0  0  0  0  0  0  0  0
   -7.7390    3.7070   -8.4710 C   0  0  0  0  0  0  0  0  0  0  0  0
   -8.2200    4.7540   -9.3230 N   0  0  0  0  0  0  0  0  0  0  0  0
   -8.3490    6.0270   -8.9240 N   0  0  0  0  0  0  0  0  0  0  0  0
   -8.7850    6.6300  -10.0370 C   0  0  0  0  0  0  0  0  0  0  0  0
   -9.5090    5.0450  -16.2060 C   0  0  0  0  0  0  0  0  0  0  0  0
   -9.9150    4.8110  -17.5240 C   0  0  0  0  0  0  0  0  0  0  0  0
   -9.0060    4.8510  -18.5760 C   0  0  0  0  0  0  0  0  0  0  0  0
   -7.6620    5.1310  -18.2930 C   0  0  0  0  0  0  0  0  0  0  0  0
   -7.1850    4.4720  -20.9250 H   0  0  0  0  0  0  0  0  0  0  0  0
   -6.4490    6.0860  -21.0260 H   0  0  0  0  0  0  0  0  0  0  0  0
   -5.4260    4.6600  -20.8350 H   0  0  0  0  0  0  0  0  0  0  0  0
   -5.2660    5.7940  -16.3020 H   0  0  0  0  0  0  0  0  0  0  0  0
   -9.0890    4.2160  -13.5770 H   0  0  0  0  0  0  0  0  0  0  0  0
   -9.0970    7.0670  -12.8150 H   0  0  0  0  0  0  0  0  0  0  0  0
  -10.4600    5.9530  -12.6250 H   0  0  0  0  0  0  0  0  0  0  0  0
   -8.0470    3.1960  -12.2360 H   0  0  0  0  0  0  0  0  0  0  0  0
   -9.5400    2.7900  -11.3820 H   0  0  0  0  0  0  0  0  0  0  0  0
   -6.6930    2.4600  -10.3740 H   0  0  0  0  0  0  0  0  0  0  0  0
   -7.8670    1.1650  -10.6860 H   0  0  0  0  0  0  0  0  0  0  0  0
   -9.3810    2.4580   -9.1760 H   0  0  0  0  0  0  0  0  0  0  0  0
   -8.1390    1.5830   -8.3300 H   0  0  0  0  0  0  0  0  0  0  0  0
   -6.6510    3.6820   -8.5770 H   0  0  0  0  0  0  0  0  0  0  0  0
   -7.9610    3.9370   -7.4400 H   0  0  0  0  0  0  0  0  0  0  0  0
   -8.9740    7.6960  -10.0060 H   0  0  0  0  0  0  0  0  0  0  0  0
  -10.2450    5.0090  -15.4060 H   0  0  0  0  0  0  0  0  0  0  0  0
  -10.9580    4.5970  -17.7390 H   0  0  0  0  0  0  0  0  0  0  0  0
   -9.3340    4.6690  -19.5970 H   0  0  0  0  0  0  0  0  0  0  0  0
  1  2  1  0
  2  3  2  0
  3  4  1  0
  4  5  1  0
  5  6  2  0
  6  7  1  0
  7  8  2  0
  7  9  1  0
  9 10  1  0
 10 11  1  0
 11 12  2  0
 12 13  1  0
 13 14  1  0
 14 15  1  0
 15 16  1  0
 16 17  1  0
 17 18  1  0
 18 19  2  0
  6 20  1  0
 20 21  2  0
 21 22  1  0
 22 23  2  0
 23  2  1  0
 23  5  1  0
 19 11  1  0
 17 12  1  0
  1 24  1  0
  1 25  1  0
  1 26  1  0
  4 27  1  0
  9 28  1  0
 10 29  1  0
 10 30  1  0
 13 31  1  0
 13 32  1  0
 14 33  1  0
 14 34  1  0
 15 35  1  0
 15 36  1  0
 16 37  1  0
 16 38  1  0
 19 39  1  0
 20 40  1  0
 21 41  1  0
 22 42  1  0
A    1
 C1 
A    2
 C2 
A    3
 N1 
A    4
 N2 
A    5
 C3 
A    6
 C4 
A    7
 C5 
A    8
 O1 
A    9
 N3 
A   10
 C6 
A   11
 C7 
A   12
 C8 
A   13
 C9 
A   14
 C10
A   15
 C11
A   16
 C12
A   17
 N4 
A   18
 N5 
A   19
 C13
A   20
 C14
A   21
 C15
A   22
 C16
A   23
 C17
A   24
 H1 
A   25
 H2 
A   26
 H3 
A   27
 H4 
A   28
 H5 
A   29
 H6 
A   30
 H7 
A   31
 H8 
A   32
 H9 
A   33
 H10
A   34
 H11
A   35
 H12
A   36
 H13
A   37
 H14
A   38
 H15
A   39
 H16
A   40
 H17
A   41
 H18
A   42
 H19
M  END
>  <ref_pdb>  (75) 
x0051_0B

>  <ref_mols>  (75) 
x0435_0B,x0969_1B

>  <original SMILES>  (75) 
[H]c1nn2c(c1C([H])([H])N([H])C(=O)c1c([H])c([H])c([H])c3c(C([H])([H])[H])nn([H])c13)C([H])([H])C([H])([H])C([H])([H])C2([H])[H]

>  <index>  (75) 
34

>  <∆∆G>  (75) 
-7.095099

>  <∆G_bound>  (75) 
-5.445786

>  <∆G_unbound>  (75) 
1.649313

>  <comRMSD>  (75) 
0.947262

>  <N_constrained_atoms>  (75) 
20.0

>  <N_unconstrained_atoms>  (75) 
3.0

>  <runtime>  (75) 
33.031139

>  <LE>  (75) 
0.308483

>  <percent_hybrid>  (75) 
50.0

>  <dist>  (75) 
7.0

>  <ecfp4>  (75) 
0.197674

>  <daylight>  (75) 
0.304878

>  <topodist>  (75) 
1.0

>  <mces>  (75) 
25.0

>  <tdn>  (75) 
0.0

>  <tup>  (75) 
1.0

>  <rdn>  (75) 
0.0

>  <rup>  (75) 
0.0

>  <ldn>  (75) 
0.0

>  <lup>  (75) 
0.0

>  <mut>  (75) 
5.0

>  <maj>  (75) 
5.0

>  <min>  (75) 
0.0

>  <hyb>  (75) 
1.0

>  <sub>  (75) 
0.0

>  <query_index>  (75) 
311.0

>  <max_hit_Tanimoto>  (75) 
0.31736

>  <largest_ring>  (75) 
0

>  <N_interactions_kept>  (75) 
2.5

>  <N_interactions_lost>  (75) 
1.0

>  <interaction_uniqueness_metric>  (75) 
0.21864

>  <ad_hoc_penalty>  (75) 
-39.257141

>  <N_rotatable_bonds>  (75) 
4

>  <N_HA>  (75) 
23

>  <cluster>  (75) 
6185

>  <N_interactions>  (75) 
7

>  <Enamine>  (75) 
1

>  <Mcule>  (75) 
0

>  <N_PAINS>  (75) 
0

>  <UFF_Gibbs>  (75) 
51.021346

>  <strain_per_HA>  (75) 
2.218319

>  <intxn_scored>  (75) 
11.0

>  <saltbridge:HIS:51>  (75) 
0

>  <pistack:HIS:51>  (75) 
1

>  <hydroph_interaction:HIS:51>  (75) 
0

>  <hbond:ALA:132>  (75) 
0

>  <hbond:SER:135>  (75) 
0

>  <hydroph_interaction:TYR:150>  (75) 
0

>  <pistack:TYR:161>  (75) 
1

>  <hydroph_interaction:TYR:161>  (75) 
2

>  <hydroph_interaction:ASP:83>  (75) 
1

>  <hbond:TYR:130>  (75) 
0

>  <hydroph_interaction:ALA:132>  (75) 
0

>  <hbond:HIS:51>  (75) 
0

>  <hbond:ASP:129>  (75) 
0

>  <hbond:TYR:150>  (75) 
0

>  <hbond:GLY:151>  (75) 
1

>  <hbond:TYR:161>  (75) 
1

>  <hydroph_interaction:TYR:130>  (75) 
0

>  <hydroph_interaction:PRO:131>  (75) 
0

>  <hydroph_interaction:ASP:129>  (75) 
0

>  <saltbridge:ASP:75>  (75) 
0

>  <saltbridge:ASP:83>  (75) 
0

>  <hbond:ASN:152>  (75) 
0

>  <hydroph_interaction:ASN:152>  (75) 
0

>  <halogenbond:TYR:150>  (75) 
0

>  <hbond:ASP:83>  (75) 
0

>  <hydroph_interaction:VAL:155>  (75) 
0

>  <pication:TYR:161>  (75) 
0

>  <hbond:PRO:131>  (75) 
0

>  <saltbridge:ASP:129>  (75) 
0

>  <hbond:THR:134>  (75) 
0

>  <pication:HIS:51>  (75) 
0

>  <hbond:SER:81>  (75) 
0

>  <hydroph_interaction:THR:134>  (75) 
0

>  <hydroph_interaction:MET:49>  (75) 
0

$$$$
Z3414280809
     RDKit          3D

 46 49  0  0  0  0  0  0  0  0999 V2000
   -8.2350    7.0550  -12.3320 O   0  0  0  0  0  0  0  0  0  0  0  0
   -8.6320    5.9700  -11.9300 C   0  0  0  0  0  0  0  0  0  0  0  0
   -8.9630    4.9730  -12.8260 N   0  0  0  0  0  0  0  0  0  0  0  0
   -7.9710    4.5370  -13.8050 C   0  0  0  0  0  0  0  0  0  0  0  0
   -7.6030    5.4770  -14.9770 C   0  0  0  0  0  0  0  0  0  0  0  0
   -6.2100    5.3880  -15.1270 C   0  0  0  0  0  0  0  0  0  0  0  0
   -5.7390    6.0890  -16.2330 C   0  0  0  0  0  0  0  0  0  0  0  0
   -6.1570    5.5800  -17.4630 C   0  0  0  0  0  0  0  0  0  0  0  0
   -7.4490    5.2840  -17.5560 C   0  0  0  0  0  0  0  0  0  0  0  0
   -8.0070    5.0570  -18.8210 C   0  0  0  0  0  0  0  0  0  0  0  0
   -9.3320    4.7580  -19.0160 C   0  0  0  0  0  0  0  0  0  0  0  0
  -10.1260    4.6830  -17.8980 C   0  0  0  0  0  0  0  0  0  0  0  0
   -9.6090    4.9000  -16.5880 C   0  0  0  0  0  0  0  0  0  0  0  0
   -8.2610    5.2070  -16.3700 C   0  0  0  0  0  0  0  0  0  0  0  0
   -8.7660    5.7120  -10.4780 C   0  0  0  0  0  0  0  0  0  0  0  0
   -8.9840    4.5430   -9.7550 C   0  0  0  0  0  0  0  0  0  0  0  0
   -9.1220    3.2880  -10.3500 C   0  0  0  0  0  0  0  0  0  0  0  0
   -9.0030    2.3240   -9.3950 N   0  0  0  0  0  0  0  0  0  0  0  0
   -9.7180    2.6010   -8.1260 C   0  0  0  0  0  0  0  0  0  0  0  0
   -9.2650    3.7430   -7.4560 C   0  0  0  0  0  0  0  0  0  0  0  0
   -9.0380    4.7970   -8.4170 N   0  0  0  0  0  0  0  0  0  0  0  0
   -8.8550    6.1290   -8.1580 C   0  0  0  0  0  0  0  0  0  0  0  0
   -8.6830    6.7700   -9.3710 C   0  0  0  0  0  0  0  0  0  0  0  0
   -9.9150    5.0190  -13.1650 H   0  0  0  0  0  0  0  0  0  0  0  0
   -7.0600    4.3490  -13.2280 H   0  0  0  0  0  0  0  0  0  0  0  0
   -8.2690    3.5830  -14.1800 H   0  0  0  0  0  0  0  0  0  0  0  0
   -7.9760    6.4740  -14.7400 H   0  0  0  0  0  0  0  0  0  0  0  0
   -5.7470    4.4100  -15.1390 H   0  0  0  0  0  0  0  0  0  0  0  0
   -5.7630    5.8740  -14.2480 H   0  0  0  0  0  0  0  0  0  0  0  0
   -4.6820    6.3440  -16.2360 H   0  0  0  0  0  0  0  0  0  0  0  0
   -6.2130    7.0760  -16.1510 H   0  0  0  0  0  0  0  0  0  0  0  0
   -5.5580    4.7010  -17.7110 H   0  0  0  0  0  0  0  0  0  0  0  0
   -5.9400    6.3180  -18.2440 H   0  0  0  0  0  0  0  0  0  0  0  0
   -7.3520    5.1250  -19.6970 H   0  0  0  0  0  0  0  0  0  0  0  0
   -9.7470    4.5900  -20.0090 H   0  0  0  0  0  0  0  0  0  0  0  0
  -11.1910    4.4510  -18.0160 H   0  0  0  0  0  0  0  0  0  0  0  0
  -10.2230    4.8450  -15.6810 H   0  0  0  0  0  0  0  0  0  0  0  0
   -8.2870    3.1640  -11.0480 H   0  0  0  0  0  0  0  0  0  0  0  0
  -10.0040    3.0390  -10.9150 H   0  0  0  0  0  0  0  0  0  0  0  0
   -8.0090    2.2570   -9.1940 H   0  0  0  0  0  0  0  0  0  0  0  0
  -10.7820    2.7120   -8.3370 H   0  0  0  0  0  0  0  0  0  0  0  0
   -9.6330    1.7270   -7.4690 H   0  0  0  0  0  0  0  0  0  0  0  0
  -10.0050    4.0870   -6.7250 H   0  0  0  0  0  0  0  0  0  0  0  0
   -8.3180    3.5570   -6.9490 H   0  0  0  0  0  0  0  0  0  0  0  0
   -8.8640    6.5140   -7.1480 H   0  0  0  0  0  0  0  0  0  0  0  0
   -8.5190    7.8320   -9.4850 H   0  0  0  0  0  0  0  0  0  0  0  0
  1  2  2  0
  2  3  1  0
  3  4  1  0
  4  5  1  0
  5  6  1  0
  6  7  1  0
  7  8  1  0
  8  9  1  0
  9 10  2  0
 10 11  1  0
 11 12  2  0
 12 13  1  0
 13 14  2  0
  2 15  1  0
 15 16  2  0
 16 17  1  0
 17 18  1  0
 18 19  1  0
 19 20  1  0
 20 21  1  0
 21 22  1  0
 22 23  2  0
 14  5  1  0
 14  9  1  0
 23 15  1  0
 21 16  1  0
  3 24  1  0
  4 25  1  0
  4 26  1  0
  5 27  1  0
  6 28  1  0
  6 29  1  0
  7 30  1  0
  7 31  1  0
  8 32  1  0
  8 33  1  0
 10 34  1  0
 11 35  1  0
 12 36  1  0
 13 37  1  0
 17 38  1  0
 17 39  1  0
 18 40  1  0
 19 41  1  0
 19 42  1  0
 20 43  1  0
 20 44  1  0
 22 45  1  0
 23 46  1  0
A    1
 O1 
A    2
 C1 
A    3
 N1 
A    4
 C2 
A    5
 C3 
A    6
 C4 
A    7
 C5 
A    8
 C6 
A    9
 C7 
A   10
 C8 
A   11
 C9 
A   12
 C10
A   13
 C11
A   14
 C12
A   15
 C13
A   16
 C14
A   17
 C15
A   18
 N2 
A   19
 C16
A   20
 C17
A   21
 N3 
A   22
 C18
A   23
 C19
A   24
 H1 
A   25
 H2 
A   26
 H3 
A   27
 H4 
A   28
 H5 
A   29
 H6 
A   30
 H7 
A   31
 H8 
A   32
 H9 
A   33
 H10
A   34
 H11
A   35
 H12
A   36
 H13
A   37
 H14
A   38
 H15
A   39
 H16
A   40
 H17
A   41
 H18
A   42
 H19
A   43
 H20
A   44
 H21
A   45
 H22
A   46
 H23
M  END
>  <ref_pdb>  (76) 
x0051_0B

>  <ref_mols>  (76) 
x0969_1B,x0455_0B

>  <original SMILES>  (76) 
[H]c1c([H])c([H])c2c(c1[H])C([H])([H])C([H])([H])C([H])([H])C2([H])C([H])([H])N([H])C(=O)c1c([H])c([H])n2c1C([H])([H])N([H])C([H])([H])C2([H])[H]

>  <index>  (76) 
310

>  <∆∆G>  (76) 
-5.175787

>  <∆G_bound>  (76) 
-4.462196

>  <∆G_unbound>  (76) 
0.713592

>  <comRMSD>  (76) 
0.356821

>  <N_constrained_atoms>  (76) 
20.0

>  <N_unconstrained_atoms>  (76) 
3.0

>  <runtime>  (76) 
66.536399

>  <LE>  (76) 
0.225034

>  <percent_hybrid>  (76) 
50.0

>  <dist>  (76) 
6.0

>  <ecfp4>  (76) 
0.232558

>  <daylight>  (76) 
0.309249

>  <topodist>  (76) 
1.0

>  <mces>  (76) 
25.0

>  <tdn>  (76) 
0.0

>  <tup>  (76) 
1.0

>  <rdn>  (76) 
0.0

>  <rup>  (76) 
0.0

>  <ldn>  (76) 
0.0

>  <lup>  (76) 
0.0

>  <mut>  (76) 
4.0

>  <maj>  (76) 
4.0

>  <min>  (76) 
0.0

>  <hyb>  (76) 
1.0

>  <sub>  (76) 
0.0

>  <query_index>  (76) 
204.0

>  <max_hit_Tanimoto>  (76) 
0.276408

>  <largest_ring>  (76) 
0

>  <N_interactions_kept>  (76) 
0.0

>  <N_interactions_lost>  (76) 
2.5

>  <interaction_uniqueness_metric>  (76) 
0.309474

>  <ad_hoc_penalty>  (76) 
-25.49208

>  <N_rotatable_bonds>  (76) 
3

>  <N_HA>  (76) 
23

>  <cluster>  (76) 
5935

>  <N_interactions>  (76) 
8

>  <Enamine>  (76) 
1

>  <Mcule>  (76) 
0

>  <N_PAINS>  (76) 
0

>  <UFF_Gibbs>  (76) 
115.026861

>  <strain_per_HA>  (76) 
5.001168

>  <intxn_scored>  (76) 
11.0

>  <saltbridge:HIS:51>  (76) 
0

>  <pistack:HIS:51>  (76) 
0

>  <hydroph_interaction:HIS:51>  (76) 
1

>  <hbond:ALA:132>  (76) 
0

>  <hbond:SER:135>  (76) 
0

>  <hydroph_interaction:TYR:150>  (76) 
1

>  <pistack:TYR:161>  (76) 
1

>  <hydroph_interaction:TYR:161>  (76) 
2

>  <hydroph_interaction:ASP:83>  (76) 
0

>  <hbond:TYR:130>  (76) 
0

>  <hydroph_interaction:ALA:132>  (76) 
0

>  <hbond:HIS:51>  (76) 
2

>  <hbond:ASP:129>  (76) 
0

>  <hbond:TYR:150>  (76) 
0

>  <hbond:GLY:151>  (76) 
0

>  <hbond:TYR:161>  (76) 
0

>  <hydroph_interaction:TYR:130>  (76) 
0

>  <hydroph_interaction:PRO:131>  (76) 
0

>  <hydroph_interaction:ASP:129>  (76) 
0

>  <saltbridge:ASP:75>  (76) 
0

>  <saltbridge:ASP:83>  (76) 
0

>  <hbond:ASN:152>  (76) 
0

>  <hydroph_interaction:ASN:152>  (76) 
0

>  <halogenbond:TYR:150>  (76) 
0

>  <hbond:ASP:83>  (76) 
1

>  <hydroph_interaction:VAL:155>  (76) 
0

>  <pication:TYR:161>  (76) 
0

>  <hbond:PRO:131>  (76) 
0

>  <saltbridge:ASP:129>  (76) 
0

>  <hbond:THR:134>  (76) 
0

>  <pication:HIS:51>  (76) 
0

>  <hbond:SER:81>  (76) 
0

>  <hydroph_interaction:THR:134>  (76) 
0

>  <hydroph_interaction:MET:49>  (76) 
0

$$$$
Z3099884436
     RDKit          3D

 49 51  0  0  0  0  0  0  0  0999 V2000
   -2.3690    4.8780  -21.6470 C   0  0  0  0  0  0  0  0  0  0  0  0
   -3.7360    5.2800  -21.3390 N   0  0  0  0  0  0  0  0  0  0  0  0
   -4.5940    5.3300  -22.4920 C   0  0  0  0  0  0  0  0  0  0  0  0
   -4.2050    5.3550  -20.0210 C   0  0  0  0  0  0  0  0  0  0  0  0
   -3.4320    5.1110  -19.0970 O   0  0  0  0  0  0  0  0  0  0  0  0
   -5.5290    5.6770  -19.7260 C   0  0  0  0  0  0  0  0  0  0  0  0
   -5.8400    5.7030  -18.3350 O   0  0  0  0  0  0  0  0  0  0  0  0
   -7.1280    5.3630  -18.0110 C   0  0  0  0  0  0  0  0  0  0  0  0
   -8.0320    4.8560  -18.9400 C   0  0  0  0  0  0  0  0  0  0  0  0
   -9.4040    4.5190  -18.4750 C   0  0  0  0  0  0  0  0  0  0  0  0
   -9.7490    4.7200  -17.1360 C   0  0  0  0  0  0  0  0  0  0  0  0
   -8.8280    5.2370  -16.2100 C   0  0  0  0  0  0  0  0  0  0  0  0
   -9.4380    5.4070  -14.7470 C   0  0  0  0  0  0  0  0  0  0  0  0
   -8.7160    4.9740  -13.5190 N   0  0  0  0  0  0  0  0  0  0  0  0
   -8.3860    5.8960  -12.4980 C   0  0  0  0  0  0  0  0  0  0  0  0
   -7.8820    6.9650  -12.8260 O   0  0  0  0  0  0  0  0  0  0  0  0
   -8.6180    5.6510  -10.9430 C   0  0  0  0  0  0  0  0  0  0  0  0
   -8.8620    4.4310  -10.2800 C   0  0  0  0  0  0  0  0  0  0  0  0
   -9.0120    3.0070  -10.6630 C   0  0  0  0  0  0  0  0  0  0  0  0
   -8.9350    2.1450   -9.4690 N   0  0  0  0  0  0  0  0  0  0  0  0
   -9.6850    2.6580   -8.3110 C   0  0  0  0  0  0  0  0  0  0  0  0
   -9.1950    3.8750   -7.8330 C   0  0  0  0  0  0  0  0  0  0  0  0
   -8.9570    4.7970   -8.9370 N   0  0  0  0  0  0  0  0  0  0  0  0
   -8.7860    6.1400   -8.8310 C   0  0  0  0  0  0  0  0  0  0  0  0
   -8.5830    6.6930  -10.0050 N   0  0  0  0  0  0  0  0  0  0  0  0
   -7.5170    5.5530  -16.6550 C   0  0  0  0  0  0  0  0  0  0  0  0
   -1.9040    4.3160  -20.8300 H   0  0  0  0  0  0  0  0  0  0  0  0
   -1.7560    5.7590  -21.8540 H   0  0  0  0  0  0  0  0  0  0  0  0
   -2.3830    4.2350  -22.5350 H   0  0  0  0  0  0  0  0  0  0  0  0
   -5.3670    4.5570  -22.4400 H   0  0  0  0  0  0  0  0  0  0  0  0
   -5.0740    6.3110  -22.5360 H   0  0  0  0  0  0  0  0  0  0  0  0
   -3.9860    5.1730  -23.3860 H   0  0  0  0  0  0  0  0  0  0  0  0
   -5.8090    6.6170  -20.2170 H   0  0  0  0  0  0  0  0  0  0  0  0
   -6.1440    4.8810  -20.1600 H   0  0  0  0  0  0  0  0  0  0  0  0
   -7.7710    4.6980  -19.9820 H   0  0  0  0  0  0  0  0  0  0  0  0
  -10.1310    4.1200  -19.1720 H   0  0  0  0  0  0  0  0  0  0  0  0
  -10.7430    4.4720  -16.8220 H   0  0  0  0  0  0  0  0  0  0  0  0
   -9.7580    6.4480  -14.6270 H   0  0  0  0  0  0  0  0  0  0  0  0
  -10.3870    4.8540  -14.7120 H   0  0  0  0  0  0  0  0  0  0  0  0
   -8.7610    4.0020  -13.2280 H   0  0  0  0  0  0  0  0  0  0  0  0
   -9.9670    2.8470  -11.1740 H   0  0  0  0  0  0  0  0  0  0  0  0
   -8.2190    2.7060  -11.3560 H   0  0  0  0  0  0  0  0  0  0  0  0
   -9.2760    1.2260   -9.7220 H   0  0  0  0  0  0  0  0  0  0  0  0
  -10.7370    2.7580   -8.5870 H   0  0  0  0  0  0  0  0  0  0  0  0
   -9.6490    1.9160   -7.5050 H   0  0  0  0  0  0  0  0  0  0  0  0
   -9.9430    4.3320   -7.1800 H   0  0  0  0  0  0  0  0  0  0  0  0
   -8.2580    3.8550   -7.2810 H   0  0  0  0  0  0  0  0  0  0  0  0
   -8.8190    6.6600   -7.8840 H   0  0  0  0  0  0  0  0  0  0  0  0
   -6.7920    5.9540  -15.9510 H   0  0  0  0  0  0  0  0  0  0  0  0
  1  2  1  0
  2  3  1  0
  2  4  1  0
  4  5  2  0
  4  6  1  0
  6  7  1  0
  7  8  1  0
  8  9  2  0
  9 10  1  0
 10 11  2  0
 11 12  1  0
 12 13  1  0
 13 14  1  0
 14 15  1  0
 15 16  2  0
 15 17  1  0
 17 18  2  0
 18 19  1  0
 19 20  1  0
 20 21  1  0
 21 22  1  0
 22 23  1  0
 23 24  1  0
 24 25  2  0
 12 26  2  0
 26  8  1  0
 25 17  1  0
 23 18  1  0
  1 27  1  0
  1 28  1  0
  1 29  1  0
  3 30  1  0
  3 31  1  0
  3 32  1  0
  6 33  1  0
  6 34  1  0
  9 35  1  0
 10 36  1  0
 11 37  1  0
 13 38  1  0
 13 39  1  0
 14 40  1  0
 19 41  1  0
 19 42  1  0
 20 43  1  0
 21 44  1  0
 21 45  1  0
 22 46  1  0
 22 47  1  0
 24 48  1  0
 26 49  1  0
A    1
 C1 
A    2
 N1 
A    3
 C2 
A    4
 C3 
A    5
 O1 
A    6
 C4 
A    7
 O2 
A    8
 C5 
A    9
 C6 
A   10
 C7 
A   11
 C8 
A   12
 C9 
A   13
 C10
A   14
 N2 
A   15
 C11
A   16
 O3 
A   17
 C12
A   18
 C13
A   19
 C14
A   20
 N3 
A   21
 C15
A   22
 C16
A   23
 N4 
A   24
 C17
A   25
 N5 
A   26
 C18
A   27
 H1 
A   28
 H2 
A   29
 H3 
A   30
 H4 
A   31
 H5 
A   32
 H6 
A   33
 H7 
A   34
 H8 
A   35
 H9 
A   36
 H10
A   37
 H11
A   38
 H12
A   39
 H13
A   40
 H14
A   41
 H15
A   42
 H16
A   43
 H17
A   44
 H18
A   45
 H19
A   46
 H20
A   47
 H21
A   48
 H22
A   49
 H23
M  END
>  <ref_pdb>  (77) 
x0051_0B

>  <ref_mols>  (77) 
x0969_1B,x0904_0B

>  <original SMILES>  (77) 
[H]c1c([H])c(OC([H])([H])C(=O)N(C([H])([H])[H])C([H])([H])[H])c([H])c(C([H])([H])N([H])C(=O)c2nc([H])n3c2C([H])([H])N([H])C([H])([H])C3([H])[H])c1[H]

>  <index>  (77) 
3818

>  <∆∆G>  (77) 
-6.766573

>  <∆G_bound>  (77) 
-5.881867

>  <∆G_unbound>  (77) 
0.884706

>  <comRMSD>  (77) 
0.566654

>  <N_constrained_atoms>  (77) 
24.0

>  <N_unconstrained_atoms>  (77) 
2.0

>  <runtime>  (77) 
75.581788

>  <LE>  (77) 
0.260253

>  <percent_hybrid>  (77) 
42.0

>  <dist>  (77) 
6.0

>  <ecfp4>  (77) 
0.5

>  <daylight>  (77) 
0.335593

>  <topodist>  (77) 
2.0

>  <mces>  (77) 
27.0

>  <tdn>  (77) 
0.0

>  <tup>  (77) 
1.0

>  <rdn>  (77) 
0.0

>  <rup>  (77) 
0.0

>  <ldn>  (77) 
1.0

>  <lup>  (77) 
0.0

>  <mut>  (77) 
3.0

>  <maj>  (77) 
3.0

>  <min>  (77) 
0.0

>  <hyb>  (77) 
1.0

>  <sub>  (77) 
0.0

>  <query_index>  (77) 
111.0

>  <max_hit_Tanimoto>  (77) 
0.254848

>  <largest_ring>  (77) 
6

>  <N_interactions_kept>  (77) 
0.5

>  <N_interactions_lost>  (77) 
3.0

>  <interaction_uniqueness_metric>  (77) 
0.247205

>  <ad_hoc_penalty>  (77) 
-0.696622

>  <N_rotatable_bonds>  (77) 
8

>  <N_HA>  (77) 
26

>  <cluster>  (77) 
2669

>  <N_interactions>  (77) 
6

>  <Enamine>  (77) 
1

>  <Mcule>  (77) 
0

>  <N_PAINS>  (77) 
0

>  <UFF_Gibbs>  (77) 
119.653214

>  <strain_per_HA>  (77) 
4.602047

>  <intxn_scored>  (77) 
11.0

>  <saltbridge:HIS:51>  (77) 
0

>  <pistack:HIS:51>  (77) 
1

>  <hydroph_interaction:HIS:51>  (77) 
0

>  <hbond:ALA:132>  (77) 
0

>  <hbond:SER:135>  (77) 
0

>  <hydroph_interaction:TYR:150>  (77) 
1

>  <pistack:TYR:161>  (77) 
1

>  <hydroph_interaction:TYR:161>  (77) 
0

>  <hydroph_interaction:ASP:83>  (77) 
0

>  <hbond:TYR:130>  (77) 
0

>  <hydroph_interaction:ALA:132>  (77) 
1

>  <hbond:HIS:51>  (77) 
0

>  <hbond:ASP:129>  (77) 
0

>  <hbond:TYR:150>  (77) 
0

>  <hbond:GLY:151>  (77) 
0

>  <hbond:TYR:161>  (77) 
1

>  <hydroph_interaction:TYR:130>  (77) 
0

>  <hydroph_interaction:PRO:131>  (77) 
0

>  <hydroph_interaction:ASP:129>  (77) 
0

>  <saltbridge:ASP:75>  (77) 
0

>  <saltbridge:ASP:83>  (77) 
0

>  <hbond:ASN:152>  (77) 
0

>  <hydroph_interaction:ASN:152>  (77) 
0

>  <halogenbond:TYR:150>  (77) 
0

>  <hbond:ASP:83>  (77) 
1

>  <hydroph_interaction:VAL:155>  (77) 
0

>  <pication:TYR:161>  (77) 
0

>  <hbond:PRO:131>  (77) 
0

>  <saltbridge:ASP:129>  (77) 
0

>  <hbond:THR:134>  (77) 
0

>  <pication:HIS:51>  (77) 
0

>  <hbond:SER:81>  (77) 
0

>  <hydroph_interaction:THR:134>  (77) 
0

>  <hydroph_interaction:MET:49>  (77) 
0

$$$$
CSSB00003527525
     RDKit          3D

 35 37  0  0  0  0  0  0  0  0999 V2000
   -6.1170    5.5040  -15.0320 O   0  0  0  0  0  0  0  0  0  0  0  0
   -7.3330    5.6170  -15.0460 C   0  0  0  0  0  0  0  0  0  0  0  0
   -8.0650    6.0460  -13.7590 C   0  0  0  0  0  0  0  0  0  0  0  0
   -8.9710    7.0310  -14.1250 C   0  0  0  0  0  0  0  0  0  0  0  0
   -9.8530    7.2680  -13.0720 C   0  0  0  0  0  0  0  0  0  0  0  0
   -9.4700    6.6790  -11.8970 N   0  0  0  0  0  0  0  0  0  0  0  0
   -9.0740    5.3730  -11.8680 C   0  0  0  0  0  0  0  0  0  0  0  0
   -8.8430    4.9040  -13.1510 C   0  0  0  0  0  0  0  0  0  0  0  0
   -8.0000    5.3460  -16.3490 C   0  0  0  0  0  0  0  0  0  0  0  0
   -9.3650    5.0390  -16.4000 C   0  0  0  0  0  0  0  0  0  0  0  0
   -9.9640    4.7800  -17.6470 C   0  0  0  0  0  0  0  0  0  0  0  0
   -9.2000    4.8260  -18.8110 C   0  0  0  0  0  0  0  0  0  0  0  0
   -7.8580    5.1290  -18.7590 C   0  0  0  0  0  0  0  0  0  0  0  0
   -7.1540    5.1620  -19.9250 C   0  0  0  0  0  0  0  0  0  0  0  0
   -5.7950    5.4690  -19.9390 C   0  0  0  0  0  0  0  0  0  0  0  0
   -5.1220    5.7440  -18.7630 C   0  0  0  0  0  0  0  0  0  0  0  0
   -5.8310    5.7090  -17.5600 C   0  0  0  0  0  0  0  0  0  0  0  0
   -7.2170    5.4020  -17.5270 C   0  0  0  0  0  0  0  0  0  0  0  0
   -7.3990    6.3260  -12.9500 H   0  0  0  0  0  0  0  0  0  0  0  0
   -9.5020    6.7920  -15.0430 H   0  0  0  0  0  0  0  0  0  0  0  0
   -8.4640    7.9290  -14.4520 H   0  0  0  0  0  0  0  0  0  0  0  0
  -10.8650    6.9380  -13.2680 H   0  0  0  0  0  0  0  0  0  0  0  0
  -10.0080    8.3170  -12.8240 H   0  0  0  0  0  0  0  0  0  0  0  0
   -8.9180    7.3500  -11.3730 H   0  0  0  0  0  0  0  0  0  0  0  0
   -8.2450    5.3080  -11.1700 H   0  0  0  0  0  0  0  0  0  0  0  0
   -9.8560    4.7670  -11.4200 H   0  0  0  0  0  0  0  0  0  0  0  0
   -9.7090    4.6950  -13.7730 H   0  0  0  0  0  0  0  0  0  0  0  0
   -8.2230    4.0140  -13.2610 H   0  0  0  0  0  0  0  0  0  0  0  0
   -9.9570    5.0000  -15.4910 H   0  0  0  0  0  0  0  0  0  0  0  0
  -11.0180    4.5440  -17.7130 H   0  0  0  0  0  0  0  0  0  0  0  0
   -9.6570    4.6240  -19.7770 H   0  0  0  0  0  0  0  0  0  0  0  0
   -7.6420    4.9450  -20.8630 H   0  0  0  0  0  0  0  0  0  0  0  0
   -5.2580    5.4900  -20.8830 H   0  0  0  0  0  0  0  0  0  0  0  0
   -4.0620    5.9810  -18.7770 H   0  0  0  0  0  0  0  0  0  0  0  0
   -5.2820    5.9270  -16.6440 H   0  0  0  0  0  0  0  0  0  0  0  0
  1  2  2  0
  2  3  1  0
  3  4  1  0
  4  5  1  0
  5  6  1  0
  6  7  1  0
  7  8  1  0
  2  9  1  0
  9 10  2  0
 10 11  1  0
 11 12  2  0
 12 13  1  0
 13 14  2  0
 14 15  1  0
 15 16  2  0
 16 17  1  0
 17 18  2  0
  8  3  1  0
 18  9  1  0
 18 13  1  0
  3 19  1  0
  4 20  1  0
  4 21  1  0
  5 22  1  0
  5 23  1  0
  6 24  1  0
  7 25  1  0
  7 26  1  0
  8 27  1  0
  8 28  1  0
 10 29  1  0
 11 30  1  0
 12 31  1  0
 14 32  1  0
 15 33  1  0
 16 34  1  0
 17 35  1  0
A    1
 O1 
A    2
 C1 
A    3
 C2 
A    4
 C3 
A    5
 C4 
A    6
 N1 
A    7
 C5 
A    8
 C6 
A    9
 C7 
A   10
 C8 
A   11
 C9 
A   12
 C10
A   13
 C11
A   14
 C12
A   15
 C13
A   16
 C14
A   17
 C15
A   18
 C16
A   19
 H1 
A   20
 H2 
A   21
 H3 
A   22
 H4 
A   23
 H5 
A   24
 H6 
A   25
 H7 
A   26
 H8 
A   27
 H9 
A   28
 H10
A   29
 H11
A   30
 H12
A   31
 H13
A   32
 H14
A   33
 H15
A   34
 H16
A   35
 H17
M  END
>  <ref_pdb>  (78) 
x0051_0B

>  <ref_mols>  (78) 
x0429_0B,x0951_0B

>  <original SMILES>  (78) 
[H]c1c([H])c([H])c2c(C(=O)C3([H])C([H])([H])C([H])([H])N([H])C([H])([H])C3([H])[H])c([H])c([H])c([H])c2c1[H]

>  <index>  (78) 
948

>  <∆∆G>  (78) 
-7.307422

>  <∆G_bound>  (78) 
-6.347815

>  <∆G_unbound>  (78) 
0.959607

>  <comRMSD>  (78) 
0.557674

>  <N_constrained_atoms>  (78) 
16.0

>  <N_unconstrained_atoms>  (78) 
3.0

>  <runtime>  (78) 
44.919122

>  <LE>  (78) 
0.384601

>  <percent_hybrid>  (78) 
45.0

>  <dist>  (78) 
7.0

>  <ecfp4>  (78) 
0.1875

>  <daylight>  (78) 
0.275168

>  <topodist>  (78) 
4.0

>  <mces>  (78) 
20.0

>  <tdn>  (78) 
2.0

>  <tup>  (78) 
0.0

>  <rdn>  (78) 
1.0

>  <rup>  (78) 
0.0

>  <ldn>  (78) 
1.0

>  <lup>  (78) 
0.0

>  <mut>  (78) 
2.0

>  <maj>  (78) 
2.0

>  <min>  (78) 
0.0

>  <hyb>  (78) 
1.0

>  <sub>  (78) 
2.0

>  <query_index>  (78) 
76.0

>  <max_hit_Tanimoto>  (78) 
0.182077

>  <largest_ring>  (78) 
6

>  <N_interactions_kept>  (78) 
0.0

>  <N_interactions_lost>  (78) 
3.0

>  <interaction_uniqueness_metric>  (78) 
0.139105

>  <ad_hoc_penalty>  (78) 
-12.30572

>  <N_rotatable_bonds>  (78) 
2

>  <N_HA>  (78) 
18

>  <cluster>  (78) 
5350

>  <N_interactions>  (78) 
6

>  <Enamine>  (78) 
1

>  <Mcule>  (78) 
0

>  <N_PAINS>  (78) 
0

>  <UFF_Gibbs>  (78) 
149.053163

>  <strain_per_HA>  (78) 
8.280731

>  <intxn_scored>  (78) 
11.0

>  <saltbridge:HIS:51>  (78) 
0

>  <pistack:HIS:51>  (78) 
0

>  <hydroph_interaction:HIS:51>  (78) 
0

>  <hbond:ALA:132>  (78) 
0

>  <hbond:SER:135>  (78) 
0

>  <hydroph_interaction:TYR:150>  (78) 
1

>  <pistack:TYR:161>  (78) 
2

>  <hydroph_interaction:TYR:161>  (78) 
1

>  <hydroph_interaction:ASP:83>  (78) 
0

>  <hbond:TYR:130>  (78) 
0

>  <hydroph_interaction:ALA:132>  (78) 
1

>  <hbond:HIS:51>  (78) 
1

>  <hbond:ASP:129>  (78) 
0

>  <hbond:TYR:150>  (78) 
0

>  <hbond:GLY:151>  (78) 
0

>  <hbond:TYR:161>  (78) 
0

>  <hydroph_interaction:TYR:130>  (78) 
0

>  <hydroph_interaction:PRO:131>  (78) 
0

>  <hydroph_interaction:ASP:129>  (78) 
0

>  <saltbridge:ASP:75>  (78) 
0

>  <saltbridge:ASP:83>  (78) 
0

>  <hbond:ASN:152>  (78) 
0

>  <hydroph_interaction:ASN:152>  (78) 
0

>  <halogenbond:TYR:150>  (78) 
0

>  <hbond:ASP:83>  (78) 
0

>  <hydroph_interaction:VAL:155>  (78) 
0

>  <pication:TYR:161>  (78) 
0

>  <hbond:PRO:131>  (78) 
0

>  <saltbridge:ASP:129>  (78) 
0

>  <hbond:THR:134>  (78) 
0

>  <pication:HIS:51>  (78) 
0

>  <hbond:SER:81>  (78) 
0

>  <hydroph_interaction:THR:134>  (78) 
0

>  <hydroph_interaction:MET:49>  (78) 
0

$$$$
CSSS00026427523
     RDKit          3D

 31 33  0  0  0  0  0  0  0  0999 V2000
   -6.5440    5.8600  -14.8820 O   0  0  0  0  0  0  0  0  0  0  0  0
   -7.7040    5.5310  -15.0320 C   0  0  0  0  0  0  0  0  0  0  0  0
   -8.6780    5.3320  -14.0550 N   0  0  0  0  0  0  0  0  0  0  0  0
   -9.1200    6.5460  -13.5260 C   0  0  0  0  0  0  0  0  0  0  0  0
  -10.1370    7.1800  -14.2370 C   0  0  0  0  0  0  0  0  0  0  0  0
  -10.6120    8.3950  -13.7480 C   0  0  0  0  0  0  0  0  0  0  0  0
  -10.0650    8.9350  -12.5780 C   0  0  0  0  0  0  0  0  0  0  0  0
   -9.0730    8.3270  -11.8740 N   0  0  0  0  0  0  0  0  0  0  0  0
   -8.6260    7.1440  -12.3690 C   0  0  0  0  0  0  0  0  0  0  0  0
   -8.1780    5.3030  -16.4200 C   0  0  0  0  0  0  0  0  0  0  0  0
   -9.6760    4.9830  -16.5220 C   0  0  0  0  0  0  0  0  0  0  0  0
  -10.2390    4.7390  -17.9270 C   0  0  0  0  0  0  0  0  0  0  0  0
   -9.2400    4.8380  -19.0530 C   0  0  0  0  0  0  0  0  0  0  0  0
   -7.7890    5.1590  -18.8250 C   0  0  0  0  0  0  0  0  0  0  0  0
   -6.9540    5.2230  -19.9430 C   0  0  0  0  0  0  0  0  0  0  0  0
   -5.6110    5.5160  -19.8160 C   0  0  0  0  0  0  0  0  0  0  0  0
   -5.1070    5.7440  -18.5470 C   0  0  0  0  0  0  0  0  0  0  0  0
   -5.9210    5.6820  -17.4170 C   0  0  0  0  0  0  0  0  0  0  0  0
   -7.2930    5.3850  -17.5220 C   0  0  0  0  0  0  0  0  0  0  0  0
   -9.1510    4.4400  -13.9340 H   0  0  0  0  0  0  0  0  0  0  0  0
  -10.5500    6.7490  -15.1400 H   0  0  0  0  0  0  0  0  0  0  0  0
  -11.4070    8.9230  -14.2750 H   0  0  0  0  0  0  0  0  0  0  0  0
  -10.4300    9.8900  -12.1810 H   0  0  0  0  0  0  0  0  0  0  0  0
   -7.8350    6.6860  -11.7820 H   0  0  0  0  0  0  0  0  0  0  0  0
  -10.3040    4.9330  -15.6360 H   0  0  0  0  0  0  0  0  0  0  0  0
  -11.2900    4.5100  -18.0790 H   0  0  0  0  0  0  0  0  0  0  0  0
   -9.5930    4.6710  -20.0670 H   0  0  0  0  0  0  0  0  0  0  0  0
   -7.3510    5.0400  -20.9360 H   0  0  0  0  0  0  0  0  0  0  0  0
   -4.9650    5.5660  -20.6900 H   0  0  0  0  0  0  0  0  0  0  0  0
   -4.0660    5.9840  -18.3110 H   0  0  0  0  0  0  0  0  0  0  0  0
   -5.3930    5.8820  -16.4760 H   0  0  0  0  0  0  0  0  0  0  0  0
  1  2  2  0
  2  3  1  0
  3  4  1  0
  4  5  2  0
  5  6  1  0
  6  7  2  0
  7  8  1  0
  8  9  2  0
  2 10  1  0
 10 11  2  0
 11 12  1  0
 12 13  2  0
 13 14  1  0
 14 15  2  0
 15 16  1  0
 16 17  2  0
 17 18  1  0
 18 19  2  0
  9  4  1  0
 19 10  1  0
 19 14  1  0
  3 20  1  0
  5 21  1  0
  6 22  1  0
  7 23  1  0
  9 24  1  0
 11 25  1  0
 12 26  1  0
 13 27  1  0
 15 28  1  0
 16 29  1  0
 17 30  1  0
 18 31  1  0
A    1
 O1 
A    2
 C1 
A    3
 N1 
A    4
 C2 
A    5
 C3 
A    6
 C4 
A    7
 C5 
A    8
 N2 
A    9
 C6 
A   10
 C7 
A   11
 C8 
A   12
 C9 
A   13
 C10
A   14
 C11
A   15
 C12
A   16
 C13
A   17
 C14
A   18
 C15
A   19
 C16
A   20
 H1 
A   21
 H2 
A   22
 H3 
A   23
 H4 
A   24
 H5 
A   25
 H6 
A   26
 H7 
A   27
 H8 
A   28
 H9 
A   29
 H10
A   30
 H11
A   31
 H12
M  END
>  <ref_pdb>  (79) 
x0051_0B

>  <ref_mols>  (79) 
x0429_0B,x0951_0B

>  <original SMILES>  (79) 
[H]c1nc([H])c(N([H])C(=O)c2c([H])c([H])c([H])c3c([H])c([H])c([H])c([H])c23)c([H])c1[H]

>  <index>  (79) 
222

>  <∆∆G>  (79) 
-8.734849

>  <∆G_bound>  (79) 
-8.565179

>  <∆G_unbound>  (79) 
0.16967

>  <comRMSD>  (79) 
0.38819

>  <N_constrained_atoms>  (79) 
16.0

>  <N_unconstrained_atoms>  (79) 
4.0

>  <runtime>  (79) 
52.196356

>  <LE>  (79) 
0.436742

>  <percent_hybrid>  (79) 
45.0

>  <dist>  (79) 
12.0

>  <ecfp4>  (79) 
0.144928

>  <daylight>  (79) 
0.24

>  <topodist>  (79) 
3.0

>  <mces>  (79) 
21.0

>  <tdn>  (79) 
2.0

>  <tup>  (79) 
0.0

>  <rdn>  (79) 
1.0

>  <rup>  (79) 
0.0

>  <ldn>  (79) 
0.0

>  <lup>  (79) 
0.0

>  <mut>  (79) 
4.0

>  <maj>  (79) 
4.0

>  <min>  (79) 
0.0

>  <hyb>  (79) 
5.0

>  <sub>  (79) 
1.0

>  <query_index>  (79) 
76.0

>  <max_hit_Tanimoto>  (79) 
0.220979

>  <largest_ring>  (79) 
0

>  <N_interactions_kept>  (79) 
0.0

>  <N_interactions_lost>  (79) 
3.0

>  <interaction_uniqueness_metric>  (79) 
0.260922

>  <ad_hoc_penalty>  (79) 
-26.864424

>  <N_rotatable_bonds>  (79) 
2

>  <N_HA>  (79) 
19

>  <cluster>  (79) 
6016

>  <N_interactions>  (79) 
7

>  <Enamine>  (79) 
1

>  <Mcule>  (79) 
0

>  <N_PAINS>  (79) 
0

>  <UFF_Gibbs>  (79) 
94.61144

>  <strain_per_HA>  (79) 
4.979549

>  <intxn_scored>  (79) 
11.0

>  <saltbridge:HIS:51>  (79) 
0

>  <pistack:HIS:51>  (79) 
0

>  <hydroph_interaction:HIS:51>  (79) 
0

>  <hbond:ALA:132>  (79) 
0

>  <hbond:SER:135>  (79) 
0

>  <hydroph_interaction:TYR:150>  (79) 
1

>  <pistack:TYR:161>  (79) 
2

>  <hydroph_interaction:TYR:161>  (79) 
1

>  <hydroph_interaction:ASP:83>  (79) 
0

>  <hbond:TYR:130>  (79) 
0

>  <hydroph_interaction:ALA:132>  (79) 
1

>  <hbond:HIS:51>  (79) 
0

>  <hbond:ASP:129>  (79) 
0

>  <hbond:TYR:150>  (79) 
0

>  <hbond:GLY:151>  (79) 
1

>  <hbond:TYR:161>  (79) 
0

>  <hydroph_interaction:TYR:130>  (79) 
0

>  <hydroph_interaction:PRO:131>  (79) 
0

>  <hydroph_interaction:ASP:129>  (79) 
0

>  <saltbridge:ASP:75>  (79) 
0

>  <saltbridge:ASP:83>  (79) 
0

>  <hbond:ASN:152>  (79) 
0

>  <hydroph_interaction:ASN:152>  (79) 
0

>  <halogenbond:TYR:150>  (79) 
0

>  <hbond:ASP:83>  (79) 
0

>  <hydroph_interaction:VAL:155>  (79) 
0

>  <pication:TYR:161>  (79) 
0

>  <hbond:PRO:131>  (79) 
0

>  <saltbridge:ASP:129>  (79) 
0

>  <hbond:THR:134>  (79) 
0

>  <pication:HIS:51>  (79) 
1

>  <hbond:SER:81>  (79) 
0

>  <hydroph_interaction:THR:134>  (79) 
0

>  <hydroph_interaction:MET:49>  (79) 
0

$$$$
Z1979075346
     RDKit          3D

 32 34  0  0  0  0  0  0  0  0999 V2000
   -8.5500    4.6240   -9.1070 C   0  0  0  0  0  0  0  0  0  0  0  0
   -8.6800    5.0120  -10.5820 C   0  0  0  0  0  0  0  0  0  0  0  0
   -8.8170    6.2980  -10.9200 N   0  0  0  0  0  0  0  0  0  0  0  0
   -8.9020    6.2640  -12.2570 N   0  0  0  0  0  0  0  0  0  0  0  0
   -8.8220    5.0070  -12.7950 C   0  0  0  0  0  0  0  0  0  0  0  0
   -8.8870    4.8030  -14.1650 N   0  0  0  0  0  0  0  0  0  0  0  0
   -8.1540    5.5790  -15.0480 C   0  0  0  0  0  0  0  0  0  0  0  0
   -7.3890    6.4800  -14.7440 O   0  0  0  0  0  0  0  0  0  0  0  0
   -8.3630    5.2700  -16.5430 C   0  0  0  0  0  0  0  0  0  0  0  0
   -9.7740    4.8430  -16.7690 C   0  0  0  0  0  0  0  0  0  0  0  0
  -10.0650    4.5350  -18.2370 C   0  0  0  0  0  0  0  0  0  0  0  0
   -9.1070    4.6330  -19.2500 C   0  0  0  0  0  0  0  0  0  0  0  0
   -7.8070    5.0400  -18.9010 C   0  0  0  0  0  0  0  0  0  0  0  0
   -7.4490    5.3510  -17.5870 C   0  0  0  0  0  0  0  0  0  0  0  0
   -6.1300    5.6980  -17.6840 N   0  0  0  0  0  0  0  0  0  0  0  0
   -5.2540    6.1090  -16.6240 C   0  0  0  0  0  0  0  0  0  0  0  0
   -5.7570    5.5880  -18.9930 C   0  0  0  0  0  0  0  0  0  0  0  0
   -6.7430    5.1900  -19.7510 N   0  0  0  0  0  0  0  0  0  0  0  0
   -8.6760    4.1640  -11.7160 C   0  0  0  0  0  0  0  0  0  0  0  0
   -8.9010    3.6050   -8.9180 H   0  0  0  0  0  0  0  0  0  0  0  0
   -7.5090    4.6920   -8.7710 H   0  0  0  0  0  0  0  0  0  0  0  0
   -9.1500    5.2870   -8.4760 H   0  0  0  0  0  0  0  0  0  0  0  0
   -9.0130    7.1440  -12.7450 H   0  0  0  0  0  0  0  0  0  0  0  0
   -9.3190    3.9510  -14.5170 H   0  0  0  0  0  0  0  0  0  0  0  0
  -10.5000    4.7670  -15.9750 H   0  0  0  0  0  0  0  0  0  0  0  0
  -11.0700    4.2240  -18.5130 H   0  0  0  0  0  0  0  0  0  0  0  0
   -9.3410    4.4080  -20.2840 H   0  0  0  0  0  0  0  0  0  0  0  0
   -5.5710    7.0890  -16.2550 H   0  0  0  0  0  0  0  0  0  0  0  0
   -4.2330    6.1340  -17.0120 H   0  0  0  0  0  0  0  0  0  0  0  0
   -5.3110    5.3890  -15.8030 H   0  0  0  0  0  0  0  0  0  0  0  0
   -4.7550    5.8060  -19.3430 H   0  0  0  0  0  0  0  0  0  0  0  0
   -8.5770    3.0870  -11.7300 H   0  0  0  0  0  0  0  0  0  0  0  0
  1  2  1  0
  2  3  2  0
  3  4  1  0
  4  5  1  0
  5  6  1  0
  6  7  1  0
  7  8  2  0
  7  9  1  0
  9 10  2  0
 10 11  1  0
 11 12  2  0
 12 13  1  0
 13 14  2  0
 14 15  1  0
 15 16  1  0
 15 17  1  0
 17 18  2  0
  5 19  2  0
 19  2  1  0
 14  9  1  0
 18 13  1  0
  1 20  1  0
  1 21  1  0
  1 22  1  0
  4 23  1  0
  6 24  1  0
 10 25  1  0
 11 26  1  0
 12 27  1  0
 16 28  1  0
 16 29  1  0
 16 30  1  0
 17 31  1  0
 19 32  1  0
A    1
 C1 
A    2
 C2 
A    3
 N1 
A    4
 N2 
A    5
 C3 
A    6
 N3 
A    7
 C4 
A    8
 O1 
A    9
 C5 
A   10
 C6 
A   11
 C7 
A   12
 C8 
A   13
 C9 
A   14
 C10
A   15
 N4 
A   16
 C11
A   17
 C12
A   18
 N5 
A   19
 C13
A   20
 H1 
A   21
 H2 
A   22
 H3 
A   23
 H4 
A   24
 H5 
A   25
 H6 
A   26
 H7 
A   27
 H8 
A   28
 H9 
A   29
 H10
A   30
 H11
A   31
 H12
A   32
 H13
M  END
>  <ref_pdb>  (80) 
x0051_0B

>  <ref_mols>  (80) 
x1098_0B,x0490_0B

>  <original SMILES>  (80) 
[H]c1c([H])c(C(=O)N([H])c2c([H])c(C([H])([H])[H])nn2[H])c2c(nc([H])n2C([H])([H])[H])c1[H]

>  <index>  (80) 
2963

>  <∆∆G>  (80) 
-7.773936

>  <∆G_bound>  (80) 
-7.239955

>  <∆G_unbound>  (80) 
0.533981

>  <comRMSD>  (80) 
0.375879

>  <N_constrained_atoms>  (80) 
19.0

>  <N_unconstrained_atoms>  (80) 
0.0

>  <runtime>  (80) 
55.779059

>  <LE>  (80) 
0.409155

>  <percent_hybrid>  (80) 
10.0

>  <dist>  (80) 
5.0

>  <ecfp4>  (80) 
0.297297

>  <daylight>  (80) 
0.278008

>  <topodist>  (80) 
1.0

>  <mces>  (80) 
21.0

>  <tdn>  (80) 
1.0

>  <tup>  (80) 
0.0

>  <rdn>  (80) 
0.0

>  <rup>  (80) 
0.0

>  <ldn>  (80) 
0.0

>  <lup>  (80) 
0.0

>  <mut>  (80) 
2.0

>  <maj>  (80) 
2.0

>  <min>  (80) 
0.0

>  <hyb>  (80) 
2.0

>  <sub>  (80) 
1.0

>  <query_index>  (80) 
69.0

>  <max_hit_Tanimoto>  (80) 
0.319887

>  <largest_ring>  (80) 
6

>  <N_interactions_kept>  (80) 
2.0

>  <N_interactions_lost>  (80) 
4.0

>  <interaction_uniqueness_metric>  (80) 
0.13721

>  <ad_hoc_penalty>  (80) 
-5.481751

>  <N_rotatable_bonds>  (80) 
4

>  <N_HA>  (80) 
19

>  <cluster>  (80) 
3481

>  <N_interactions>  (80) 
6

>  <Enamine>  (80) 
1

>  <Mcule>  (80) 
0

>  <N_PAINS>  (80) 
0

>  <UFF_Gibbs>  (80) 
51.37881

>  <strain_per_HA>  (80) 
2.704148

>  <intxn_scored>  (80) 
11.0

>  <saltbridge:HIS:51>  (80) 
0

>  <pistack:HIS:51>  (80) 
1

>  <hydroph_interaction:HIS:51>  (80) 
1

>  <hbond:ALA:132>  (80) 
0

>  <hbond:SER:135>  (80) 
0

>  <hydroph_interaction:TYR:150>  (80) 
1

>  <pistack:TYR:161>  (80) 
2

>  <hydroph_interaction:TYR:161>  (80) 
0

>  <hydroph_interaction:ASP:83>  (80) 
0

>  <hbond:TYR:130>  (80) 
0

>  <hydroph_interaction:ALA:132>  (80) 
0

>  <hbond:HIS:51>  (80) 
0

>  <hbond:ASP:129>  (80) 
0

>  <hbond:TYR:150>  (80) 
0

>  <hbond:GLY:151>  (80) 
1

>  <hbond:TYR:161>  (80) 
0

>  <hydroph_interaction:TYR:130>  (80) 
0

>  <hydroph_interaction:PRO:131>  (80) 
0

>  <hydroph_interaction:ASP:129>  (80) 
0

>  <saltbridge:ASP:75>  (80) 
0

>  <saltbridge:ASP:83>  (80) 
0

>  <hbond:ASN:152>  (80) 
0

>  <hydroph_interaction:ASN:152>  (80) 
0

>  <halogenbond:TYR:150>  (80) 
0

>  <hbond:ASP:83>  (80) 
0

>  <hydroph_interaction:VAL:155>  (80) 
0

>  <pication:TYR:161>  (80) 
0

>  <hbond:PRO:131>  (80) 
0

>  <saltbridge:ASP:129>  (80) 
0

>  <hbond:THR:134>  (80) 
0

>  <pication:HIS:51>  (80) 
0

>  <hbond:SER:81>  (80) 
0

>  <hydroph_interaction:THR:134>  (80) 
0

>  <hydroph_interaction:MET:49>  (80) 
0

$$$$
CSSB00010171618
     RDKit          3D

 28 29  0  0  0  0  0  0  0  0999 V2000
   -9.0190    3.8810  -12.6200 C   0  0  0  0  0  0  0  0  0  0  0  0
   -8.5790    4.8410  -13.5900 O   0  0  0  0  0  0  0  0  0  0  0  0
   -9.4930    5.1520  -14.5590 C   0  0  0  0  0  0  0  0  0  0  0  0
  -10.6410    5.4640  -14.3830 O   0  0  0  0  0  0  0  0  0  0  0  0
   -8.8790    5.1030  -15.9040 C   0  0  0  0  0  0  0  0  0  0  0  0
   -7.5110    5.3090  -15.9640 C   0  0  0  0  0  0  0  0  0  0  0  0
   -6.8340    5.3000  -17.1790 C   0  0  0  0  0  0  0  0  0  0  0  0
   -5.4590    5.5120  -17.2130 C   0  0  0  0  0  0  0  0  0  0  0  0
   -4.7740    5.5100  -18.4230 C   0  0  0  0  0  0  0  0  0  0  0  0
   -5.4620    5.2970  -19.6100 C   0  0  0  0  0  0  0  0  0  0  0  0
   -6.8370    5.0840  -19.5850 C   0  0  0  0  0  0  0  0  0  0  0  0
   -7.5470    5.0790  -18.3710 C   0  0  0  0  0  0  0  0  0  0  0  0
   -8.9340    4.8660  -18.2850 C   0  0  0  0  0  0  0  0  0  0  0  0
   -9.5890    4.6630  -19.4340 O   0  0  0  0  0  0  0  0  0  0  0  0
  -10.9080    5.2080  -19.4860 C   0  0  0  0  0  0  0  0  0  0  0  0
   -9.5890    4.8750  -17.0740 C   0  0  0  0  0  0  0  0  0  0  0  0
   -8.3360    3.0260  -12.5920 H   0  0  0  0  0  0  0  0  0  0  0  0
   -9.1100    4.3410  -11.6310 H   0  0  0  0  0  0  0  0  0  0  0  0
  -10.0020    3.5200  -12.9200 H   0  0  0  0  0  0  0  0  0  0  0  0
   -6.9580    5.4850  -15.0410 H   0  0  0  0  0  0  0  0  0  0  0  0
   -4.9010    5.6860  -16.2940 H   0  0  0  0  0  0  0  0  0  0  0  0
   -3.6990    5.6770  -18.4380 H   0  0  0  0  0  0  0  0  0  0  0  0
   -4.9310    5.2980  -20.5590 H   0  0  0  0  0  0  0  0  0  0  0  0
   -7.3570    4.9200  -20.5250 H   0  0  0  0  0  0  0  0  0  0  0  0
  -11.0570    6.0290  -18.8120 H   0  0  0  0  0  0  0  0  0  0  0  0
  -11.0210    5.5670  -20.5000 H   0  0  0  0  0  0  0  0  0  0  0  0
  -11.6770    4.4630  -19.2950 H   0  0  0  0  0  0  0  0  0  0  0  0
  -10.6530    4.7110  -17.0250 H   0  0  0  0  0  0  0  0  0  0  0  0
  1  2  1  0
  2  3  1  0
  3  4  2  0
  3  5  1  0
  5  6  2  0
  6  7  1  0
  7  8  2  0
  8  9  1  0
  9 10  2  0
 10 11  1  0
 11 12  2  0
 12 13  1  0
 13 14  1  0
 14 15  1  0
 13 16  2  0
 16  5  1  0
 12  7  1  0
  1 17  1  0
  1 18  1  0
  1 19  1  0
  6 20  1  0
  8 21  1  0
  9 22  1  0
 10 23  1  0
 11 24  1  0
 15 25  1  0
 15 26  1  0
 15 27  1  0
 16 28  1  0
A    1
 C1 
A    2
 O1 
A    3
 C2 
A    4
 O2 
A    5
 C3 
A    6
 C4 
A    7
 C5 
A    8
 C6 
A    9
 C7 
A   10
 C8 
A   11
 C9 
A   12
 C10
A   13
 C11
A   14
 O3 
A   15
 C12
A   16
 C13
A   17
 H1 
A   18
 H2 
A   19
 H3 
A   20
 H4 
A   21
 H5 
A   22
 H6 
A   23
 H7 
A   24
 H8 
A   25
 H9 
A   26
 H10
A   27
 H11
A   28
 H12
M  END
>  <ref_pdb>  (81) 
x0051_0B

>  <ref_mols>  (81) 
x0727_0B,x0904_0B

>  <original SMILES>  (81) 
[H]c1c([H])c([H])c2c(OC([H])([H])[H])c([H])c(C(=O)OC([H])([H])[H])c([H])c2c1[H]

>  <index>  (81) 
1749

>  <∆∆G>  (81) 
-7.478018

>  <∆G_bound>  (81) 
-7.508763

>  <∆G_unbound>  (81) 
-0.030745

>  <comRMSD>  (81) 
0.81705

>  <N_constrained_atoms>  (81) 
15.0

>  <N_unconstrained_atoms>  (81) 
4.0

>  <runtime>  (81) 
53.653533

>  <LE>  (81) 
0.39358

>  <percent_hybrid>  (81) 
50.0

>  <dist>  (81) 
6.0

>  <ecfp4>  (81) 
0.1875

>  <daylight>  (81) 
0.157576

>  <topodist>  (81) 
3.0

>  <mces>  (81) 
17.0

>  <tdn>  (81) 
2.0

>  <tup>  (81) 
0.0

>  <rdn>  (81) 
0.0

>  <rup>  (81) 
0.0

>  <ldn>  (81) 
1.0

>  <lup>  (81) 
0.0

>  <mut>  (81) 
3.0

>  <maj>  (81) 
3.0

>  <min>  (81) 
0.0

>  <hyb>  (81) 
0.0

>  <sub>  (81) 
1.0

>  <query_index>  (81) 
92.0

>  <max_hit_Tanimoto>  (81) 
0.170172

>  <largest_ring>  (81) 
6

>  <N_interactions_kept>  (81) 
1.5

>  <N_interactions_lost>  (81) 
2.5

>  <interaction_uniqueness_metric>  (81) 
0.164167

>  <ad_hoc_penalty>  (81) 
-12.359442

>  <N_rotatable_bonds>  (81) 
4

>  <N_HA>  (81) 
16

>  <cluster>  (81) 
4615

>  <N_interactions>  (81) 
5

>  <Enamine>  (81) 
1

>  <Mcule>  (81) 
0

>  <N_PAINS>  (81) 
0

>  <UFF_Gibbs>  (81) 
40.449976

>  <strain_per_HA>  (81) 
2.528123

>  <intxn_scored>  (81) 
11.0

>  <saltbridge:HIS:51>  (81) 
1

>  <pistack:HIS:51>  (81) 
0

>  <hydroph_interaction:HIS:51>  (81) 
0

>  <hbond:ALA:132>  (81) 
0

>  <hbond:SER:135>  (81) 
1

>  <hydroph_interaction:TYR:150>  (81) 
0

>  <pistack:TYR:161>  (81) 
2

>  <hydroph_interaction:TYR:161>  (81) 
1

>  <hydroph_interaction:ASP:83>  (81) 
0

>  <hbond:TYR:130>  (81) 
0

>  <hydroph_interaction:ALA:132>  (81) 
0

>  <hbond:HIS:51>  (81) 
0

>  <hbond:ASP:129>  (81) 
0

>  <hbond:TYR:150>  (81) 
0

>  <hbond:GLY:151>  (81) 
0

>  <hbond:TYR:161>  (81) 
0

>  <hydroph_interaction:TYR:130>  (81) 
0

>  <hydroph_interaction:PRO:131>  (81) 
0

>  <hydroph_interaction:ASP:129>  (81) 
0

>  <saltbridge:ASP:75>  (81) 
0

>  <saltbridge:ASP:83>  (81) 
0

>  <hbond:ASN:152>  (81) 
0

>  <hydroph_interaction:ASN:152>  (81) 
0

>  <halogenbond:TYR:150>  (81) 
0

>  <hbond:ASP:83>  (81) 
0

>  <hydroph_interaction:VAL:155>  (81) 
0

>  <pication:TYR:161>  (81) 
0

>  <hbond:PRO:131>  (81) 
0

>  <saltbridge:ASP:129>  (81) 
0

>  <hbond:THR:134>  (81) 
0

>  <pication:HIS:51>  (81) 
0

>  <hbond:SER:81>  (81) 
0

>  <hydroph_interaction:THR:134>  (81) 
0

>  <hydroph_interaction:MET:49>  (81) 
0

$$$$
PV-002952125525
     RDKit          3D

 33 35  0  0  0  0  0  0  0  0999 V2000
   -8.6340    4.3570   -9.2830 C   0  0  0  0  0  0  0  0  0  0  0  0
   -8.7010    5.0220  -10.6420 C   0  0  0  0  0  0  0  0  0  0  0  0
   -8.5520    4.3010  -11.7870 C   0  0  0  0  0  0  0  0  0  0  0  0
   -8.6360    5.0460  -12.9640 C   0  0  0  0  0  0  0  0  0  0  0  0
   -8.5160    4.5690  -14.2280 N   0  0  0  0  0  0  0  0  0  0  0  0
   -8.1040    5.4210  -15.1990 C   0  0  0  0  0  0  0  0  0  0  0  0
   -7.4370    6.4220  -14.9800 O   0  0  0  0  0  0  0  0  0  0  0  0
   -8.4590    5.2080  -16.5580 C   0  0  0  0  0  0  0  0  0  0  0  0
   -7.6410    5.2580  -17.6830 C   0  0  0  0  0  0  0  0  0  0  0  0
   -8.1260    5.0440  -18.9160 C   0  0  0  0  0  0  0  0  0  0  0  0
   -9.4380    4.7580  -19.2150 C   0  0  0  0  0  0  0  0  0  0  0  0
  -10.3070    4.6890  -18.1140 C   0  0  0  0  0  0  0  0  0  0  0  0
   -9.8120    4.9110  -16.7900 C   0  0  0  0  0  0  0  0  0  0  0  0
   -7.0500    5.1510  -19.9880 C   0  0  0  0  0  0  0  0  0  0  0  0
   -5.8870    5.4460  -19.2620 C   0  0  0  0  0  0  0  0  0  0  0  0
   -6.2120    5.5180  -17.8320 N   0  0  0  0  0  0  0  0  0  0  0  0
   -5.2410    5.7930  -16.8190 C   0  0  0  0  0  0  0  0  0  0  0  0
   -8.8620    6.3790  -12.6530 C   0  0  0  0  0  0  0  0  0  0  0  0
   -8.9560    6.6700  -10.9540 S   0  0  0  0  0  0  0  0  0  0  0  0
   -7.6470    4.5240   -8.8500 H   0  0  0  0  0  0  0  0  0  0  0  0
   -9.3830    4.7890   -8.6190 H   0  0  0  0  0  0  0  0  0  0  0  0
   -8.8280    3.2850   -9.3800 H   0  0  0  0  0  0  0  0  0  0  0  0
   -8.3790    3.2310  -11.8220 H   0  0  0  0  0  0  0  0  0  0  0  0
   -9.1040    3.7840  -14.4930 H   0  0  0  0  0  0  0  0  0  0  0  0
   -9.7710    4.5960  -20.2350 H   0  0  0  0  0  0  0  0  0  0  0  0
  -11.3570    4.4650  -18.2730 H   0  0  0  0  0  0  0  0  0  0  0  0
  -10.4760    4.8530  -15.9410 H   0  0  0  0  0  0  0  0  0  0  0  0
   -7.1430    5.0270  -21.0580 H   0  0  0  0  0  0  0  0  0  0  0  0
   -4.9010    5.5940  -19.7000 H   0  0  0  0  0  0  0  0  0  0  0  0
   -5.5350    5.2930  -15.8980 H   0  0  0  0  0  0  0  0  0  0  0  0
   -5.2080    6.8640  -16.6410 H   0  0  0  0  0  0  0  0  0  0  0  0
   -4.2800    5.4000  -17.1520 H   0  0  0  0  0  0  0  0  0  0  0  0
   -8.9780    7.2120  -13.3300 H   0  0  0  0  0  0  0  0  0  0  0  0
  1  2  1  0
  2  3  2  0
  3  4  1  0
  4  5  1  0
  5  6  1  0
  6  7  2  0
  6  8  1  0
  8  9  2  0
  9 10  1  0
 10 11  2  0
 11 12  1  0
 12 13  2  0
 10 14  1  0
 14 15  2  0
 15 16  1  0
 16 17  1  0
  4 18  2  0
 18 19  1  0
 19  2  1  0
 13  8  1  0
 16  9  1  0
  1 20  1  0
  1 21  1  0
  1 22  1  0
  3 23  1  0
  5 24  1  0
 11 25  1  0
 12 26  1  0
 13 27  1  0
 14 28  1  0
 15 29  1  0
 17 30  1  0
 17 31  1  0
 17 32  1  0
 18 33  1  0
A    1
 C1 
A    2
 C2 
A    3
 C3 
A    4
 C4 
A    5
 N1 
A    6
 C5 
A    7
 O1 
A    8
 C6 
A    9
 C7 
A   10
 C8 
A   11
 C9 
A   12
 C10
A   13
 C11
A   14
 C12
A   15
 C13
A   16
 N2 
A   17
 C14
A   18
 C15
A   19
 S1 
A   20
 H1 
A   21
 H2 
A   22
 H3 
A   23
 H4 
A   24
 H5 
A   25
 H6 
A   26
 H7 
A   27
 H8 
A   28
 H9 
A   29
 H10
A   30
 H11
A   31
 H12
A   32
 H13
A   33
 H14
M  END
>  <ref_pdb>  (82) 
x0051_0B

>  <ref_mols>  (82) 
x1098_0B,x0490_0B

>  <original SMILES>  (82) 
[H]c1sc(C([H])([H])[H])c([H])c1N([H])C(=O)c1c([H])c([H])c([H])c2c([H])c([H])n(C([H])([H])[H])c12

>  <index>  (82) 
3983

>  <∆∆G>  (82) 
-9.210795

>  <∆G_bound>  (82) 
-8.848225

>  <∆G_unbound>  (82) 
0.362569

>  <comRMSD>  (82) 
0.783857

>  <N_constrained_atoms>  (82) 
20.0

>  <N_unconstrained_atoms>  (82) 
0.0

>  <runtime>  (82) 
61.825796

>  <LE>  (82) 
0.46054

>  <percent_hybrid>  (82) 
25.0

>  <dist>  (82) 
5.0

>  <ecfp4>  (82) 
0.315068

>  <daylight>  (82) 
0.255507

>  <topodist>  (82) 
1.0

>  <mces>  (82) 
21.0

>  <tdn>  (82) 
1.0

>  <tup>  (82) 
0.0

>  <rdn>  (82) 
0.0

>  <rup>  (82) 
0.0

>  <ldn>  (82) 
0.0

>  <lup>  (82) 
0.0

>  <mut>  (82) 
3.0

>  <maj>  (82) 
3.0

>  <min>  (82) 
0.0

>  <hyb>  (82) 
1.0

>  <sub>  (82) 
1.0

>  <query_index>  (82) 
69.0

>  <max_hit_Tanimoto>  (82) 
0.310379

>  <largest_ring>  (82) 
6

>  <N_interactions_kept>  (82) 
0.0

>  <N_interactions_lost>  (82) 
6.0

>  <interaction_uniqueness_metric>  (82) 
0.187294

>  <ad_hoc_penalty>  (82) 
-0.534049

>  <N_rotatable_bonds>  (82) 
4

>  <N_HA>  (82) 
19

>  <cluster>  (82) 
2511

>  <N_interactions>  (82) 
8

>  <Enamine>  (82) 
1

>  <Mcule>  (82) 
0

>  <N_PAINS>  (82) 
0

>  <UFF_Gibbs>  (82) 
59.937134

>  <strain_per_HA>  (82) 
3.154586

>  <intxn_scored>  (82) 
11.0

>  <saltbridge:HIS:51>  (82) 
0

>  <pistack:HIS:51>  (82) 
1

>  <hydroph_interaction:HIS:51>  (82) 
1

>  <hbond:ALA:132>  (82) 
0

>  <hbond:SER:135>  (82) 
0

>  <hydroph_interaction:TYR:150>  (82) 
1

>  <pistack:TYR:161>  (82) 
1

>  <hydroph_interaction:TYR:161>  (82) 
2

>  <hydroph_interaction:ASP:83>  (82) 
0

>  <hbond:TYR:130>  (82) 
0

>  <hydroph_interaction:ALA:132>  (82) 
0

>  <hbond:HIS:51>  (82) 
0

>  <hbond:ASP:129>  (82) 
0

>  <hbond:TYR:150>  (82) 
0

>  <hbond:GLY:151>  (82) 
1

>  <hbond:TYR:161>  (82) 
1

>  <hydroph_interaction:TYR:130>  (82) 
0

>  <hydroph_interaction:PRO:131>  (82) 
0

>  <hydroph_interaction:ASP:129>  (82) 
0

>  <saltbridge:ASP:75>  (82) 
0

>  <saltbridge:ASP:83>  (82) 
0

>  <hbond:ASN:152>  (82) 
0

>  <hydroph_interaction:ASN:152>  (82) 
0

>  <halogenbond:TYR:150>  (82) 
0

>  <hbond:ASP:83>  (82) 
0

>  <hydroph_interaction:VAL:155>  (82) 
0

>  <pication:TYR:161>  (82) 
0

>  <hbond:PRO:131>  (82) 
0

>  <saltbridge:ASP:129>  (82) 
0

>  <hbond:THR:134>  (82) 
0

>  <pication:HIS:51>  (82) 
0

>  <hbond:SER:81>  (82) 
0

>  <hydroph_interaction:THR:134>  (82) 
0

>  <hydroph_interaction:MET:49>  (82) 
0

$$$$
PV-002432888144
     RDKit          3D

 51 54  0  0  0  0  0  0  0  0999 V2000
   -6.7270    6.1180  -17.3890 C   0  0  0  0  0  0  0  0  0  0  0  0
   -6.7120    6.4420  -16.0920 N   0  0  0  0  0  0  0  0  0  0  0  0
   -7.7560    6.0680  -15.3410 C   0  0  0  0  0  0  0  0  0  0  0  0
   -7.7520    6.4080  -13.9650 N   0  0  0  0  0  0  0  0  0  0  0  0
   -8.9920    6.2390  -13.1950 C   0  0  0  0  0  0  0  0  0  0  0  0
   -8.7650    5.3480  -12.1550 C   0  0  0  0  0  0  0  0  0  0  0  0
   -8.8030    5.5740  -10.6760 C   0  0  0  0  0  0  0  0  0  0  0  0
   -8.9460    4.4100   -9.7500 C   0  0  0  0  0  0  0  0  0  0  0  0
   -9.0530    2.9700  -10.1910 C   0  0  0  0  0  0  0  0  0  0  0  0
   -8.6740    2.1810   -8.9500 C   0  0  0  0  0  0  0  0  0  0  0  0
   -9.5020    2.6380   -7.7460 C   0  0  0  0  0  0  0  0  0  0  0  0
   -9.0950    4.0550   -7.3210 C   0  0  0  0  0  0  0  0  0  0  0  0
   -8.9580    4.8980   -8.4960 N   0  0  0  0  0  0  0  0  0  0  0  0
   -8.8320    6.2530   -8.4650 N   0  0  0  0  0  0  0  0  0  0  0  0
   -8.7410    6.6590   -9.7710 C   0  0  0  0  0  0  0  0  0  0  0  0
   -8.8110    5.3660  -15.8990 C   0  0  0  0  0  0  0  0  0  0  0  0
   -8.7160    5.0810  -17.2530 C   0  0  0  0  0  0  0  0  0  0  0  0
   -9.6580    4.3710  -17.8930 C   0  0  0  0  0  0  0  0  0  0  0  0
  -10.5590    5.0030  -18.9770 C   0  0  0  0  0  0  0  0  0  0  0  0
  -10.9240    3.9880  -20.0130 C   0  0  0  0  0  0  0  0  0  0  0  0
   -9.6190    3.7320  -20.6940 C   0  0  0  0  0  0  0  0  0  0  0  0
   -8.8410    2.7690  -19.8520 C   0  0  0  0  0  0  0  0  0  0  0  0
   -8.8510    3.1430  -18.3700 C   0  0  0  0  0  0  0  0  0  0  0  0
   -7.6840    5.4510  -18.0150 N   0  0  0  0  0  0  0  0  0  0  0  0
   -5.8730    6.4310  -17.9850 H   0  0  0  0  0  0  0  0  0  0  0  0
   -6.9670    5.9400  -13.5200 H   0  0  0  0  0  0  0  0  0  0  0  0
   -9.7960    5.8540  -13.8360 H   0  0  0  0  0  0  0  0  0  0  0  0
   -9.3190    7.2010  -12.7810 H   0  0  0  0  0  0  0  0  0  0  0  0
   -9.4550    4.5150  -12.3380 H   0  0  0  0  0  0  0  0  0  0  0  0
   -7.7820    4.9050  -12.3530 H   0  0  0  0  0  0  0  0  0  0  0  0
   -8.3520    2.7660  -11.0100 H   0  0  0  0  0  0  0  0  0  0  0  0
  -10.0630    2.7120  -10.5250 H   0  0  0  0  0  0  0  0  0  0  0  0
   -8.8300    1.1280   -9.1030 H   0  0  0  0  0  0  0  0  0  0  0  0
   -7.6170    2.3400   -8.7350 H   0  0  0  0  0  0  0  0  0  0  0  0
   -9.3380    1.9500   -6.9320 H   0  0  0  0  0  0  0  0  0  0  0  0
  -10.5720    2.6080   -7.9830 H   0  0  0  0  0  0  0  0  0  0  0  0
   -9.8660    4.5110   -6.6880 H   0  0  0  0  0  0  0  0  0  0  0  0
   -8.1440    4.0440   -6.7800 H   0  0  0  0  0  0  0  0  0  0  0  0
   -8.6370    7.7160   -9.9870 H   0  0  0  0  0  0  0  0  0  0  0  0
   -9.6600    5.0520  -15.3050 H   0  0  0  0  0  0  0  0  0  0  0  0
  -10.3100    4.1120  -17.0690 H   0  0  0  0  0  0  0  0  0  0  0  0
  -11.4630    5.4770  -18.5850 H   0  0  0  0  0  0  0  0  0  0  0  0
  -10.0000    5.7680  -19.5140 H   0  0  0  0  0  0  0  0  0  0  0  0
  -11.6830    4.3520  -20.6990 H   0  0  0  0  0  0  0  0  0  0  0  0
  -11.3020    3.0790  -19.5350 H   0  0  0  0  0  0  0  0  0  0  0  0
   -9.7390    3.3830  -21.7120 H   0  0  0  0  0  0  0  0  0  0  0  0
   -9.0500    4.6520  -20.7490 H   0  0  0  0  0  0  0  0  0  0  0  0
   -9.2250    1.7490  -19.9510 H   0  0  0  0  0  0  0  0  0  0  0  0
   -7.8120    2.7470  -20.2240 H   0  0  0  0  0  0  0  0  0  0  0  0
   -7.8140    3.3420  -18.1020 H   0  0  0  0  0  0  0  0  0  0  0  0
   -9.1200    2.2520  -17.8070 H   0  0  0  0  0  0  0  0  0  0  0  0
  1  2  2  0
  2  3  1  0
  3  4  1  0
  4  5  1  0
  5  6  1  0
  6  7  1  0
  7  8  2  0
  8  9  1  0
  9 10  1  0
 10 11  1  0
 11 12  1  0
 12 13  1  0
 13 14  1  0
 14 15  2  0
  3 16  2  0
 16 17  1  0
 17 18  1  0
 18 19  1  0
 19 20  1  0
 20 21  1  0
 21 22  1  0
 22 23  1  0
 17 24  2  0
 24  1  1  0
 15  7  1  0
 13  8  1  0
 23 18  1  0
  1 25  1  0
  4 26  1  0
  5 27  1  0
  5 28  1  0
  6 29  1  0
  6 30  1  0
  9 31  1  0
  9 32  1  0
 10 33  1  0
 10 34  1  0
 11 35  1  0
 11 36  1  0
 12 37  1  0
 12 38  1  0
 15 39  1  0
 16 40  1  0
 18 41  1  0
 19 42  1  0
 19 43  1  0
 20 44  1  0
 20 45  1  0
 21 46  1  0
 21 47  1  0
 22 48  1  0
 22 49  1  0
 23 50  1  0
 23 51  1  0
A    1
 C1 
A    2
 N1 
A    3
 C2 
A    4
 N2 
A    5
 C3 
A    6
 C4 
A    7
 C5 
A    8
 C6 
A    9
 C7 
A   10
 C8 
A   11
 C9 
A   12
 C10
A   13
 N3 
A   14
 N4 
A   15
 C11
A   16
 C12
A   17
 C13
A   18
 C14
A   19
 C15
A   20
 C16
A   21
 C17
A   22
 C18
A   23
 C19
A   24
 N5 
A   25
 H1 
A   26
 H2 
A   27
 H3 
A   28
 H4 
A   29
 H5 
A   30
 H6 
A   31
 H7 
A   32
 H8 
A   33
 H9 
A   34
 H10
A   35
 H11
A   36
 H12
A   37
 H13
A   38
 H14
A   39
 H15
A   40
 H16
A   41
 H17
A   42
 H18
A   43
 H19
A   44
 H20
A   45
 H21
A   46
 H22
A   47
 H23
A   48
 H24
A   49
 H25
A   50
 H26
A   51
 H27
M  END
>  <ref_pdb>  (83) 
x0051_0B

>  <ref_mols>  (83) 
x0945_0B,x0969_1B

>  <original SMILES>  (83) 
[H]c1nc(N([H])C([H])([H])C([H])([H])c2c([H])nn3c2C([H])([H])C([H])([H])C([H])([H])C3([H])[H])c([H])c(C2([H])C([H])([H])C([H])([H])C([H])([H])C([H])([H])C2([H])[H])n1

>  <index>  (83) 
60

>  <∆∆G>  (83) 
-5.943495

>  <∆G_bound>  (83) 
-5.150322

>  <∆G_unbound>  (83) 
0.793173

>  <comRMSD>  (83) 
0.556263

>  <N_constrained_atoms>  (83) 
19.0

>  <N_unconstrained_atoms>  (83) 
6.0

>  <runtime>  (83) 
68.043602

>  <LE>  (83) 
0.23774

>  <percent_hybrid>  (83) 
48.0

>  <dist>  (83) 
8.0

>  <ecfp4>  (83) 
0.298701

>  <daylight>  (83) 
0.276398

>  <topodist>  (83) 
2.0

>  <mces>  (83) 
27.0

>  <tdn>  (83) 
2.0

>  <tup>  (83) 
0.0

>  <rdn>  (83) 
0.0

>  <rup>  (83) 
0.0

>  <ldn>  (83) 
0.0

>  <lup>  (83) 
0.0

>  <mut>  (83) 
6.0

>  <maj>  (83) 
6.0

>  <min>  (83) 
0.0

>  <hyb>  (83) 
0.0

>  <sub>  (83) 
1.0

>  <query_index>  (83) 
347.0

>  <max_hit_Tanimoto>  (83) 
0.311348

>  <largest_ring>  (83) 
0

>  <N_interactions_kept>  (83) 
1.0

>  <N_interactions_lost>  (83) 
1.0

>  <interaction_uniqueness_metric>  (83) 
0.243164

>  <ad_hoc_penalty>  (83) 
-30.918804

>  <N_rotatable_bonds>  (83) 
5

>  <N_HA>  (83) 
24

>  <cluster>  (83) 
6163

>  <N_interactions>  (83) 
8

>  <Enamine>  (83) 
1

>  <Mcule>  (83) 
0

>  <N_PAINS>  (83) 
0

>  <UFF_Gibbs>  (83) 
189.271264

>  <strain_per_HA>  (83) 
7.886303

>  <intxn_scored>  (83) 
11.0

>  <saltbridge:HIS:51>  (83) 
0

>  <pistack:HIS:51>  (83) 
1

>  <hydroph_interaction:HIS:51>  (83) 
1

>  <hbond:ALA:132>  (83) 
0

>  <hbond:SER:135>  (83) 
0

>  <hydroph_interaction:TYR:150>  (83) 
1

>  <pistack:TYR:161>  (83) 
1

>  <hydroph_interaction:TYR:161>  (83) 
2

>  <hydroph_interaction:ASP:83>  (83) 
1

>  <hbond:TYR:130>  (83) 
0

>  <hydroph_interaction:ALA:132>  (83) 
0

>  <hbond:HIS:51>  (83) 
0

>  <hbond:ASP:129>  (83) 
0

>  <hbond:TYR:150>  (83) 
0

>  <hbond:GLY:151>  (83) 
0

>  <hbond:TYR:161>  (83) 
0

>  <hydroph_interaction:TYR:130>  (83) 
1

>  <hydroph_interaction:PRO:131>  (83) 
0

>  <hydroph_interaction:ASP:129>  (83) 
0

>  <saltbridge:ASP:75>  (83) 
0

>  <saltbridge:ASP:83>  (83) 
0

>  <hbond:ASN:152>  (83) 
0

>  <hydroph_interaction:ASN:152>  (83) 
0

>  <halogenbond:TYR:150>  (83) 
0

>  <hbond:ASP:83>  (83) 
0

>  <hydroph_interaction:VAL:155>  (83) 
0

>  <pication:TYR:161>  (83) 
0

>  <hbond:PRO:131>  (83) 
0

>  <saltbridge:ASP:129>  (83) 
0

>  <hbond:THR:134>  (83) 
0

>  <pication:HIS:51>  (83) 
0

>  <hbond:SER:81>  (83) 
0

>  <hydroph_interaction:THR:134>  (83) 
0

>  <hydroph_interaction:MET:49>  (83) 
0

$$$$
PV-005140056436
     RDKit          3D

 48 51  0  0  0  0  0  0  0  0999 V2000
   -6.3180    4.8060  -20.7950 C   0  0  0  0  0  0  0  0  0  0  0  0
   -6.4850    5.1620  -19.3170 C   0  0  0  0  0  0  0  0  0  0  0  0
   -5.3440    5.6380  -18.5620 N   0  0  0  0  0  0  0  0  0  0  0  0
   -5.8260    5.8690  -17.3280 N   0  0  0  0  0  0  0  0  0  0  0  0
   -7.1310    5.5800  -17.2900 C   0  0  0  0  0  0  0  0  0  0  0  0
   -8.0590    5.6830  -16.2470 C   0  0  0  0  0  0  0  0  0  0  0  0
   -7.6220    6.2370  -15.0790 N   0  0  0  0  0  0  0  0  0  0  0  0
   -8.7160    7.2520  -14.2310 S   0  0  0  0  0  6  0  0  0  0  0  0
   -8.1560    8.5720  -14.0060 O   0  0  0  0  0  0  0  0  0  0  0  0
  -10.0060    7.0550  -14.8230 O   0  0  0  0  0  0  0  0  0  0  0  0
   -8.6580    6.3670  -12.7440 C   0  0  0  0  0  0  0  0  0  0  0  0
   -8.4250    7.0040  -11.4280 C   0  0  0  0  0  0  0  0  0  0  0  0
   -8.3350    6.3120  -10.2460 C   0  0  0  0  0  0  0  0  0  0  0  0
   -8.4720    4.9170  -10.2990 C   0  0  0  0  0  0  0  0  0  0  0  0
   -8.3640    4.1600   -9.1580 C   0  0  0  0  0  0  0  0  0  0  0  0
   -9.3380    3.1860   -9.1420 C   0  0  0  0  0  0  0  0  0  0  0  0
   -9.2590    2.2810   -8.1250 C   0  0  0  0  0  0  0  0  0  0  0  0
   -9.0900    2.9210   -6.8120 C   0  0  0  0  0  0  0  0  0  0  0  0
   -8.6330    4.3580   -6.6830 C   0  0  0  0  0  0  0  0  0  0  0  0
   -8.5360    5.1200   -7.9840 C   0  0  0  0  0  0  0  0  0  0  0  0
   -8.7130    4.2570  -11.5110 C   0  0  0  0  0  0  0  0  0  0  0  0
   -8.8130    5.0120  -12.7930 C   0  0  0  0  0  0  0  0  0  0  0  0
   -9.3420    5.2980  -16.3650 C   0  0  0  0  0  0  0  0  0  0  0  0
   -9.9040    4.7570  -17.6730 C   0  0  0  0  0  0  0  0  0  0  0  0
   -8.9450    4.6770  -18.8330 C   0  0  0  0  0  0  0  0  0  0  0  0
   -7.5850    5.1080  -18.5290 N   0  0  0  0  0  0  0  0  0  0  0  0
   -6.9980    4.0030  -21.0970 H   0  0  0  0  0  0  0  0  0  0  0  0
   -5.2940    4.4910  -21.0120 H   0  0  0  0  0  0  0  0  0  0  0  0
   -6.5160    5.6730  -21.4270 H   0  0  0  0  0  0  0  0  0  0  0  0
   -7.2490    5.5450  -14.4210 H   0  0  0  0  0  0  0  0  0  0  0  0
   -8.3180    8.0960  -11.4730 H   0  0  0  0  0  0  0  0  0  0  0  0
   -8.1560    6.8450   -9.3150 H   0  0  0  0  0  0  0  0  0  0  0  0
   -7.3650    3.7770   -8.9630 H   0  0  0  0  0  0  0  0  0  0  0  0
  -10.3160    3.5680   -9.3270 H   0  0  0  0  0  0  0  0  0  0  0  0
   -9.1600    2.5980  -10.0530 H   0  0  0  0  0  0  0  0  0  0  0  0
  -10.2470    1.8130   -8.0610 H   0  0  0  0  0  0  0  0  0  0  0  0
   -8.6060    1.4450   -8.3000 H   0  0  0  0  0  0  0  0  0  0  0  0
   -8.3840    2.3020   -6.2470 H   0  0  0  0  0  0  0  0  0  0  0  0
  -10.0540    2.8620   -6.3070 H   0  0  0  0  0  0  0  0  0  0  0  0
   -7.6340    4.3620   -6.2230 H   0  0  0  0  0  0  0  0  0  0  0  0
   -9.2930    4.9030   -5.9970 H   0  0  0  0  0  0  0  0  0  0  0  0
   -7.6590    5.7770   -7.9360 H   0  0  0  0  0  0  0  0  0  0  0  0
   -9.3510    5.7950   -8.2090 H   0  0  0  0  0  0  0  0  0  0  0  0
   -8.8370    3.1750  -11.6260 H   0  0  0  0  0  0  0  0  0  0  0  0
   -8.9960    4.4010  -13.6880 H   0  0  0  0  0  0  0  0  0  0  0  0
  -10.0920    5.3580  -15.5740 H   0  0  0  0  0  0  0  0  0  0  0  0
  -10.9510    4.4880  -17.6800 H   0  0  0  0  0  0  0  0  0  0  0  0
   -9.1950    4.3300  -19.8270 H   0  0  0  0  0  0  0  0  0  0  0  0
  1  2  1  0
  2  3  2  0
  3  4  1  0
  4  5  2  0
  5  6  1  0
  6  7  1  0
  7  8  1  0
  8  9  2  0
  8 10  2  0
  8 11  1  0
 11 12  2  0
 12 13  1  0
 13 14  2  0
 14 15  1  0
 15 16  1  0
 16 17  1  0
 17 18  1  0
 18 19  1  0
 19 20  1  0
 14 21  1  0
 21 22  2  0
  6 23  2  0
 23 24  1  0
 24 25  2  0
 25 26  1  0
 26  2  1  0
 26  5  1  0
 22 11  1  0
 20 15  1  0
  1 27  1  0
  1 28  1  0
  1 29  1  0
  7 30  1  0
 12 31  1  0
 13 32  1  0
 15 33  1  0
 16 34  1  0
 16 35  1  0
 17 36  1  0
 17 37  1  0
 18 38  1  0
 18 39  1  0
 19 40  1  0
 19 41  1  0
 20 42  1  0
 20 43  1  0
 21 44  1  0
 22 45  1  0
 23 46  1  0
 24 47  1  0
 25 48  1  0
A    1
 C1 
A    2
 C2 
A    3
 N1 
A    4
 N2 
A    5
 C3 
A    6
 C4 
A    7
 N3 
A    8
 S1 
A    9
 O1 
A   10
 O2 
A   11
 C5 
A   12
 C6 
A   13
 C7 
A   14
 C8 
A   15
 C9 
A   16
 C10
A   17
 C11
A   18
 C12
A   19
 C13
A   20
 C14
A   21
 C15
A   22
 C16
A   23
 C17
A   24
 C18
A   25
 C19
A   26
 N4 
A   27
 H1 
A   28
 H2 
A   29
 H3 
A   30
 H4 
A   31
 H5 
A   32
 H6 
A   33
 H7 
A   34
 H8 
A   35
 H9 
A   36
 H10
A   37
 H11
A   38
 H12
A   39
 H13
A   40
 H14
A   41
 H15
A   42
 H16
A   43
 H17
A   44
 H18
A   45
 H19
A   46
 H20
A   47
 H21
A   48
 H22
M  END
>  <ref_pdb>  (84) 
x0051_0B

>  <ref_mols>  (84) 
x0435_0B,x0404_0B

>  <original SMILES>  (84) 
[H]c1c([H])c(S(=O)(=O)N([H])c2c([H])c([H])c([H])n3c(C([H])([H])[H])nnc23)c([H])c([H])c1C1([H])C([H])([H])C([H])([H])C([H])([H])C([H])([H])C1([H])[H]

>  <index>  (84) 
2155

>  <∆∆G>  (84) 
-6.877748

>  <∆G_bound>  (84) 
-5.493611

>  <∆G_unbound>  (84) 
1.384137

>  <comRMSD>  (84) 
0.543535

>  <N_constrained_atoms>  (84) 
25.0

>  <N_unconstrained_atoms>  (84) 
1.0

>  <runtime>  (84) 
52.920717

>  <LE>  (84) 
0.264529

>  <percent_hybrid>  (84) 
40.0

>  <dist>  (84) 
6.0

>  <ecfp4>  (84) 
0.285714

>  <daylight>  (84) 
0.272109

>  <topodist>  (84) 
1.0

>  <mces>  (84) 
29.0

>  <tdn>  (84) 
0.0

>  <tup>  (84) 
0.0

>  <rdn>  (84) 
0.0

>  <rup>  (84) 
0.0

>  <ldn>  (84) 
1.0

>  <lup>  (84) 
0.0

>  <mut>  (84) 
4.0

>  <maj>  (84) 
4.0

>  <min>  (84) 
0.0

>  <hyb>  (84) 
1.0

>  <sub>  (84) 
0.0

>  <query_index>  (84) 
26.0

>  <max_hit_Tanimoto>  (84) 
0.282103

>  <largest_ring>  (84) 
6

>  <N_interactions_kept>  (84) 
2.5

>  <N_interactions_lost>  (84) 
2.0

>  <interaction_uniqueness_metric>  (84) 
0.056308

>  <ad_hoc_penalty>  (84) 
-1.194123

>  <N_rotatable_bonds>  (84) 
5

>  <N_HA>  (84) 
26

>  <cluster>  (84) 
4239

>  <N_interactions>  (84) 
4

>  <Enamine>  (84) 
1

>  <Mcule>  (84) 
0

>  <N_PAINS>  (84) 
0

>  <UFF_Gibbs>  (84) 
269.032195

>  <strain_per_HA>  (84) 
10.347392

>  <intxn_scored>  (84) 
11.0

>  <saltbridge:HIS:51>  (84) 
0

>  <pistack:HIS:51>  (84) 
1

>  <hydroph_interaction:HIS:51>  (84) 
0

>  <hbond:ALA:132>  (84) 
0

>  <hbond:SER:135>  (84) 
0

>  <hydroph_interaction:TYR:150>  (84) 
0

>  <pistack:TYR:161>  (84) 
2

>  <hydroph_interaction:TYR:161>  (84) 
1

>  <hydroph_interaction:ASP:83>  (84) 
0

>  <hbond:TYR:130>  (84) 
0

>  <hydroph_interaction:ALA:132>  (84) 
0

>  <hbond:HIS:51>  (84) 
0

>  <hbond:ASP:129>  (84) 
0

>  <hbond:TYR:150>  (84) 
0

>  <hbond:GLY:151>  (84) 
0

>  <hbond:TYR:161>  (84) 
0

>  <hydroph_interaction:TYR:130>  (84) 
0

>  <hydroph_interaction:PRO:131>  (84) 
0

>  <hydroph_interaction:ASP:129>  (84) 
0

>  <saltbridge:ASP:75>  (84) 
0

>  <saltbridge:ASP:83>  (84) 
0

>  <hbond:ASN:152>  (84) 
0

>  <hydroph_interaction:ASN:152>  (84) 
0

>  <halogenbond:TYR:150>  (84) 
0

>  <hbond:ASP:83>  (84) 
0

>  <hydroph_interaction:VAL:155>  (84) 
0

>  <pication:TYR:161>  (84) 
0

>  <hbond:PRO:131>  (84) 
0

>  <saltbridge:ASP:129>  (84) 
0

>  <hbond:THR:134>  (84) 
0

>  <pication:HIS:51>  (84) 
0

>  <hbond:SER:81>  (84) 
0

>  <hydroph_interaction:THR:134>  (84) 
0

>  <hydroph_interaction:MET:49>  (84) 
0

$$$$
CSCS00103890873
     RDKit          3D

 30 32  0  0  0  0  0  0  0  0999 V2000
   -8.7410    5.4730   -8.3810 C   0  0  0  0  0  0  0  0  0  0  0  0
   -8.7090    5.3410   -9.9020 C   0  0  0  0  0  0  0  0  0  0  0  0
   -8.6110    3.9350  -10.4260 C   0  0  0  0  0  0  0  0  0  0  0  0
   -8.5670    3.7290  -11.8030 C   0  0  0  0  0  0  0  0  0  0  0  0
   -8.6140    4.8030  -12.6980 C   0  0  0  0  0  0  0  0  0  0  0  0
   -8.5560    4.6050  -14.0770 N   0  0  0  0  0  0  0  0  0  0  0  0
   -8.1730    5.5540  -15.0060 C   0  0  0  0  0  0  0  0  0  0  0  0
   -7.6550    6.6320  -14.7440 O   0  0  0  0  0  0  0  0  0  0  0  0
   -8.4020    5.2870  -16.3570 C   0  0  0  0  0  0  0  0  0  0  0  0
   -9.7110    4.9090  -16.7330 C   0  0  0  0  0  0  0  0  0  0  0  0
  -10.1290    4.5990  -18.1770 C   0  0  0  0  0  0  0  0  0  0  0  0
   -9.1190    4.6840  -19.2460 C   0  0  0  0  0  0  0  0  0  0  0  0
   -7.7100    5.0830  -18.8370 C   0  0  0  0  0  0  0  0  0  0  0  0
   -6.6680    5.2080  -19.6620 N   0  0  0  0  0  0  0  0  0  0  0  0
   -5.3680    5.6700  -18.6940 S   0  0  0  0  0  0  0  0  0  0  0  0
   -6.1000    5.7160  -17.2050 N   0  0  0  0  0  0  0  0  0  0  0  0
   -7.3960    5.3770  -17.3780 C   0  0  0  0  0  0  0  0  0  0  0  0
   -8.7160    6.1220  -12.2030 C   0  0  0  0  0  0  0  0  0  0  0  0
   -8.7640    6.3970  -10.8180 C   0  0  0  0  0  0  0  0  0  0  0  0
   -9.4130    4.7310   -7.9400 H   0  0  0  0  0  0  0  0  0  0  0  0
   -9.0860    6.4690   -8.0810 H   0  0  0  0  0  0  0  0  0  0  0  0
   -7.7460    5.3160   -7.9440 H   0  0  0  0  0  0  0  0  0  0  0  0
   -8.5740    3.0890   -9.7420 H   0  0  0  0  0  0  0  0  0  0  0  0
   -8.4930    2.7060  -12.1540 H   0  0  0  0  0  0  0  0  0  0  0  0
   -8.2990    3.6420  -14.3430 H   0  0  0  0  0  0  0  0  0  0  0  0
  -10.4480    4.8380  -15.9480 H   0  0  0  0  0  0  0  0  0  0  0  0
  -11.1600    4.3220  -18.3670 H   0  0  0  0  0  0  0  0  0  0  0  0
   -9.3580    4.4730  -20.2820 H   0  0  0  0  0  0  0  0  0  0  0  0
   -8.7580    6.9630  -12.8880 H   0  0  0  0  0  0  0  0  0  0  0  0
   -8.8400    7.4240  -10.4750 H   0  0  0  0  0  0  0  0  0  0  0  0
  1  2  1  0
  2  3  2  0
  3  4  1  0
  4  5  2  0
  5  6  1  0
  6  7  1  0
  7  8  2  0
  7  9  1  0
  9 10  2  0
 10 11  1  0
 11 12  2  0
 12 13  1  0
 13 14  2  0
 14 15  1  0
 15 16  1  0
 16 17  2  0
  5 18  1  0
 18 19  2  0
 19  2  1  0
 17  9  1  0
 17 13  1  0
  1 20  1  0
  1 21  1  0
  1 22  1  0
  3 23  1  0
  4 24  1  0
  6 25  1  0
 10 26  1  0
 11 27  1  0
 12 28  1  0
 18 29  1  0
 19 30  1  0
A    1
 C1 
A    2
 C2 
A    3
 C3 
A    4
 C4 
A    5
 C5 
A    6
 N1 
A    7
 C6 
A    8
 O1 
A    9
 C7 
A   10
 C8 
A   11
 C9 
A   12
 C10
A   13
 C11
A   14
 N2 
A   15
 S1 
A   16
 N3 
A   17
 C12
A   18
 C13
A   19
 C14
A   20
 H1 
A   21
 H2 
A   22
 H3 
A   23
 H4 
A   24
 H5 
A   25
 H6 
A   26
 H7 
A   27
 H8 
A   28
 H9 
A   29
 H10
A   30
 H11
M  END
>  <ref_pdb>  (85) 
x0051_0B

>  <ref_mols>  (85) 
x1098_0B,x0490_0B

>  <original SMILES>  (85) 
[H]c1c([H])c(C([H])([H])[H])c([H])c([H])c1N([H])C(=O)c1c([H])c([H])c([H])c2nsnc12

>  <index>  (85) 
2409

>  <∆∆G>  (85) 
-7.984267

>  <∆G_bound>  (85) 
-7.096257

>  <∆G_unbound>  (85) 
0.888011

>  <comRMSD>  (85) 
0.546634

>  <N_constrained_atoms>  (85) 
18.0

>  <N_unconstrained_atoms>  (85) 
1.0

>  <runtime>  (85) 
50.766569

>  <LE>  (85) 
0.420225

>  <percent_hybrid>  (85) 
10.0

>  <dist>  (85) 
8.0

>  <ecfp4>  (85) 
0.205479

>  <daylight>  (85) 
0.285024

>  <topodist>  (85) 
3.0

>  <mces>  (85) 
20.0

>  <tdn>  (85) 
2.0

>  <tup>  (85) 
0.0

>  <rdn>  (85) 
0.0

>  <rup>  (85) 
0.0

>  <ldn>  (85) 
0.0

>  <lup>  (85) 
1.0

>  <mut>  (85) 
3.0

>  <maj>  (85) 
3.0

>  <min>  (85) 
0.0

>  <hyb>  (85) 
2.0

>  <sub>  (85) 
0.0

>  <query_index>  (85) 
69.0

>  <max_hit_Tanimoto>  (85) 
0.312429

>  <largest_ring>  (85) 
6

>  <N_interactions_kept>  (85) 
2.0

>  <N_interactions_lost>  (85) 
4.0

>  <interaction_uniqueness_metric>  (85) 
0.13721

>  <ad_hoc_penalty>  (85) 
-8.005758

>  <N_rotatable_bonds>  (85) 
3

>  <N_HA>  (85) 
19

>  <cluster>  (85) 
4002

>  <N_interactions>  (85) 
6

>  <Enamine>  (85) 
1

>  <Mcule>  (85) 
0

>  <N_PAINS>  (85) 
0

>  <UFF_Gibbs>  (85) 
58.969803

>  <strain_per_HA>  (85) 
3.103674

>  <intxn_scored>  (85) 
11.0

>  <saltbridge:HIS:51>  (85) 
0

>  <pistack:HIS:51>  (85) 
1

>  <hydroph_interaction:HIS:51>  (85) 
1

>  <hbond:ALA:132>  (85) 
0

>  <hbond:SER:135>  (85) 
0

>  <hydroph_interaction:TYR:150>  (85) 
1

>  <pistack:TYR:161>  (85) 
2

>  <hydroph_interaction:TYR:161>  (85) 
0

>  <hydroph_interaction:ASP:83>  (85) 
0

>  <hbond:TYR:130>  (85) 
0

>  <hydroph_interaction:ALA:132>  (85) 
0

>  <hbond:HIS:51>  (85) 
0

>  <hbond:ASP:129>  (85) 
0

>  <hbond:TYR:150>  (85) 
0

>  <hbond:GLY:151>  (85) 
1

>  <hbond:TYR:161>  (85) 
0

>  <hydroph_interaction:TYR:130>  (85) 
0

>  <hydroph_interaction:PRO:131>  (85) 
0

>  <hydroph_interaction:ASP:129>  (85) 
0

>  <saltbridge:ASP:75>  (85) 
0

>  <saltbridge:ASP:83>  (85) 
0

>  <hbond:ASN:152>  (85) 
0

>  <hydroph_interaction:ASN:152>  (85) 
0

>  <halogenbond:TYR:150>  (85) 
0

>  <hbond:ASP:83>  (85) 
0

>  <hydroph_interaction:VAL:155>  (85) 
0

>  <pication:TYR:161>  (85) 
0

>  <hbond:PRO:131>  (85) 
0

>  <saltbridge:ASP:129>  (85) 
0

>  <hbond:THR:134>  (85) 
0

>  <pication:HIS:51>  (85) 
0

>  <hbond:SER:81>  (85) 
0

>  <hydroph_interaction:THR:134>  (85) 
0

>  <hydroph_interaction:MET:49>  (85) 
0

$$$$
Z3168640148
     RDKit          3D

 41 44  0  0  0  0  0  0  0  0999 V2000
   -6.4430    5.0370  -20.4440 C   0  0  0  0  0  0  0  0  0  0  0  0
   -6.5310    5.1840  -19.1130 C   0  0  0  0  0  0  0  0  0  0  0  0
   -5.4940    5.4830  -18.3340 N   0  0  0  0  0  0  0  0  0  0  0  0
   -5.7320    5.6010  -17.0300 N   0  0  0  0  0  0  0  0  0  0  0  0
   -7.0750    5.3610  -16.8990 C   0  0  0  0  0  0  0  0  0  0  0  0
   -7.8760    5.3640  -15.7360 C   0  0  0  0  0  0  0  0  0  0  0  0
   -7.3300    5.6770  -14.3510 C   0  0  0  0  0  0  0  0  0  0  0  0
   -6.5280    6.5880  -14.2060 O   0  0  0  0  0  0  0  0  0  0  0  0
   -7.7900    4.8950  -13.3060 O   0  0  0  0  0  0  0  0  0  0  0  0
   -8.9850    5.3200  -12.5820 C   0  0  0  0  0  0  0  0  0  0  0  0
   -8.8920    5.5810  -11.0330 C   0  0  0  0  0  0  0  0  0  0  0  0
   -8.9710    4.4820  -10.0060 C   0  0  0  0  0  0  0  0  0  0  0  0
   -9.1270    3.0210  -10.2310 C   0  0  0  0  0  0  0  0  0  0  0  0
   -9.4110    2.1240   -9.0920 C   0  0  0  0  0  0  0  0  0  0  0  0
   -9.5330    2.8150   -7.7110 C   0  0  0  0  0  0  0  0  0  0  0  0
   -8.9450    4.2500   -7.5650 C   0  0  0  0  0  0  0  0  0  0  0  0
   -8.8870    5.0270   -8.7950 N   0  0  0  0  0  0  0  0  0  0  0  0
   -8.7480    6.3770   -8.8440 N   0  0  0  0  0  0  0  0  0  0  0  0
   -8.7520    6.7100  -10.1750 C   0  0  0  0  0  0  0  0  0  0  0  0
   -9.2420    5.0720  -15.9290 C   0  0  0  0  0  0  0  0  0  0  0  0
   -9.7530    4.8020  -17.2040 C   0  0  0  0  0  0  0  0  0  0  0  0
   -8.9770    4.8010  -18.3540 C   0  0  0  0  0  0  0  0  0  0  0  0
   -7.6170    5.0850  -18.2140 C   0  0  0  0  0  0  0  0  0  0  0  0
   -5.5570    4.5500  -20.8570 H   0  0  0  0  0  0  0  0  0  0  0  0
   -6.5340    6.0170  -20.9150 H   0  0  0  0  0  0  0  0  0  0  0  0
   -7.3310    4.4990  -20.7960 H   0  0  0  0  0  0  0  0  0  0  0  0
   -5.0140    5.8270  -16.3480 H   0  0  0  0  0  0  0  0  0  0  0  0
   -9.2980    6.2650  -13.0480 H   0  0  0  0  0  0  0  0  0  0  0  0
   -9.8140    4.6240  -12.7590 H   0  0  0  0  0  0  0  0  0  0  0  0
   -8.2180    2.6480  -10.7190 H   0  0  0  0  0  0  0  0  0  0  0  0
   -9.9300    2.8880  -10.9670 H   0  0  0  0  0  0  0  0  0  0  0  0
  -10.3690    1.6710   -9.2940 H   0  0  0  0  0  0  0  0  0  0  0  0
   -8.6780    1.3190   -9.0420 H   0  0  0  0  0  0  0  0  0  0  0  0
  -10.5950    2.8510   -7.4350 H   0  0  0  0  0  0  0  0  0  0  0  0
   -9.0570    2.1660   -6.9680 H   0  0  0  0  0  0  0  0  0  0  0  0
   -9.5450    4.8070   -6.8360 H   0  0  0  0  0  0  0  0  0  0  0  0
   -7.9230    4.2100   -7.1720 H   0  0  0  0  0  0  0  0  0  0  0  0
   -8.6590    7.7670  -10.4520 H   0  0  0  0  0  0  0  0  0  0  0  0
   -9.9220    5.0540  -15.0750 H   0  0  0  0  0  0  0  0  0  0  0  0
  -10.8020    4.5690  -17.4090 H   0  0  0  0  0  0  0  0  0  0  0  0
   -9.4200    4.5860  -19.3250 H   0  0  0  0  0  0  0  0  0  0  0  0
  1  2  1  0
  2  3  2  0
  3  4  1  0
  4  5  1  0
  5  6  2  0
  6  7  1  0
  7  8  2  0
  7  9  1  0
  9 10  1  0
 10 11  1  0
 11 12  2  0
 12 13  1  0
 13 14  1  0
 14 15  1  0
 15 16  1  0
 16 17  1  0
 17 18  1  0
 18 19  2  0
  6 20  1  0
 20 21  2  0
 21 22  1  0
 22 23  2  0
 23  2  1  0
 23  5  1  0
 19 11  1  0
 17 12  1  0
  1 24  1  0
  1 25  1  0
  1 26  1  0
  4 27  1  0
 10 28  1  0
 10 29  1  0
 13 30  1  0
 13 31  1  0
 14 32  1  0
 14 33  1  0
 15 34  1  0
 15 35  1  0
 16 36  1  0
 16 37  1  0
 19 38  1  0
 20 39  1  0
 21 40  1  0
 22 41  1  0
A    1
 C1 
A    2
 C2 
A    3
 N1 
A    4
 N2 
A    5
 C3 
A    6
 C4 
A    7
 C5 
A    8
 O1 
A    9
 O2 
A   10
 C6 
A   11
 C7 
A   12
 C8 
A   13
 C9 
A   14
 C10
A   15
 C11
A   16
 C12
A   17
 N3 
A   18
 N4 
A   19
 C13
A   20
 C14
A   21
 C15
A   22
 C16
A   23
 C17
A   24
 H1 
A   25
 H2 
A   26
 H3 
A   27
 H4 
A   28
 H5 
A   29
 H6 
A   30
 H7 
A   31
 H8 
A   32
 H9 
A   33
 H10
A   34
 H11
A   35
 H12
A   36
 H13
A   37
 H14
A   38
 H15
A   39
 H16
A   40
 H17
A   41
 H18
M  END
>  <ref_pdb>  (86) 
x0051_0B

>  <ref_mols>  (86) 
x0435_0B,x0969_1B

>  <original SMILES>  (86) 
[H]c1nn2c(c1C([H])([H])OC(=O)c1c([H])c([H])c([H])c3c(C([H])([H])[H])nn([H])c13)C([H])([H])C([H])([H])C([H])([H])C2([H])[H]

>  <index>  (86) 
321

>  <∆∆G>  (86) 
-8.505779

>  <∆G_bound>  (86) 
-7.155748

>  <∆G_unbound>  (86) 
1.350031

>  <comRMSD>  (86) 
0.459061

>  <N_constrained_atoms>  (86) 
20.0

>  <N_unconstrained_atoms>  (86) 
3.0

>  <runtime>  (86) 
52.776127

>  <LE>  (86) 
0.369816

>  <percent_hybrid>  (86) 
50.0

>  <dist>  (86) 
7.0

>  <ecfp4>  (86) 
0.211765

>  <daylight>  (86) 
0.255952

>  <topodist>  (86) 
1.0

>  <mces>  (86) 
25.0

>  <tdn>  (86) 
0.0

>  <tup>  (86) 
1.0

>  <rdn>  (86) 
0.0

>  <rup>  (86) 
0.0

>  <ldn>  (86) 
0.0

>  <lup>  (86) 
0.0

>  <mut>  (86) 
5.0

>  <maj>  (86) 
5.0

>  <min>  (86) 
0.0

>  <hyb>  (86) 
1.0

>  <sub>  (86) 
0.0

>  <query_index>  (86) 
311.0

>  <max_hit_Tanimoto>  (86) 
0.299475

>  <largest_ring>  (86) 
0

>  <N_interactions_kept>  (86) 
2.5

>  <N_interactions_lost>  (86) 
1.0

>  <interaction_uniqueness_metric>  (86) 
0.056308

>  <ad_hoc_penalty>  (86) 
-23.834378

>  <N_rotatable_bonds>  (86) 
4

>  <N_HA>  (86) 
23

>  <cluster>  (86) 
5927

>  <N_interactions>  (86) 
4

>  <Enamine>  (86) 
1

>  <Mcule>  (86) 
0

>  <N_PAINS>  (86) 
0

>  <UFF_Gibbs>  (86) 
82.997821

>  <strain_per_HA>  (86) 
3.608601

>  <intxn_scored>  (86) 
11.0

>  <saltbridge:HIS:51>  (86) 
0

>  <pistack:HIS:51>  (86) 
1

>  <hydroph_interaction:HIS:51>  (86) 
0

>  <hbond:ALA:132>  (86) 
0

>  <hbond:SER:135>  (86) 
0

>  <hydroph_interaction:TYR:150>  (86) 
0

>  <pistack:TYR:161>  (86) 
2

>  <hydroph_interaction:TYR:161>  (86) 
1

>  <hydroph_interaction:ASP:83>  (86) 
0

>  <hbond:TYR:130>  (86) 
0

>  <hydroph_interaction:ALA:132>  (86) 
0

>  <hbond:HIS:51>  (86) 
0

>  <hbond:ASP:129>  (86) 
0

>  <hbond:TYR:150>  (86) 
0

>  <hbond:GLY:151>  (86) 
0

>  <hbond:TYR:161>  (86) 
0

>  <hydroph_interaction:TYR:130>  (86) 
0

>  <hydroph_interaction:PRO:131>  (86) 
0

>  <hydroph_interaction:ASP:129>  (86) 
0

>  <saltbridge:ASP:75>  (86) 
0

>  <saltbridge:ASP:83>  (86) 
0

>  <hbond:ASN:152>  (86) 
0

>  <hydroph_interaction:ASN:152>  (86) 
0

>  <halogenbond:TYR:150>  (86) 
0

>  <hbond:ASP:83>  (86) 
0

>  <hydroph_interaction:VAL:155>  (86) 
0

>  <pication:TYR:161>  (86) 
0

>  <hbond:PRO:131>  (86) 
0

>  <saltbridge:ASP:129>  (86) 
0

>  <hbond:THR:134>  (86) 
0

>  <pication:HIS:51>  (86) 
0

>  <hbond:SER:81>  (86) 
0

>  <hydroph_interaction:THR:134>  (86) 
0

>  <hydroph_interaction:MET:49>  (86) 
0

$$$$
PV-003441839679
     RDKit          3D

 34 36  0  0  0  0  0  0  0  0999 V2000
   -6.5390    4.4880  -14.1980 C   0  0  0  0  0  0  0  0  0  0  0  0
   -7.9620    4.8140  -14.0500 N   0  0  0  0  0  0  0  0  0  0  0  0
   -8.1650    5.8730  -15.0540 C   0  0  0  0  0  0  0  0  0  0  0  0
   -8.0630    7.2430  -14.6790 O   0  0  0  0  0  0  0  0  0  0  0  0
   -8.4760    5.4370  -16.4870 C   0  0  0  0  0  0  0  0  0  0  0  0
   -9.7500    4.9610  -16.7920 C   0  0  0  0  0  0  0  0  0  0  0  0
  -10.1290    4.5640  -18.1660 C   0  0  0  0  0  0  0  0  0  0  0  0
   -9.1540    4.6710  -19.1480 C   0  0  0  0  0  0  0  0  0  0  0  0
   -7.9030    5.1380  -18.7790 C   0  0  0  0  0  0  0  0  0  0  0  0
   -7.4940    5.5300  -17.5160 C   0  0  0  0  0  0  0  0  0  0  0  0
   -6.0760    5.9620  -17.6050 C   0  0  0  0  0  0  0  0  0  0  0  0
   -5.2850    6.4320  -16.5740 C   0  0  0  0  0  0  0  0  0  0  0  0
   -4.5590    6.8370  -15.7620 N   0  0  0  0  0  0  0  0  0  0  0  0
   -5.7000    5.7980  -18.9330 C   0  0  0  0  0  0  0  0  0  0  0  0
   -6.8050    5.3120  -19.5980 N   0  0  0  0  0  0  0  0  0  0  0  0
   -8.2980    5.0470  -12.7040 C   0  0  0  0  0  0  0  0  0  0  0  0
   -8.1560    4.2460  -11.5920 C   0  0  0  0  0  0  0  0  0  0  0  0
   -8.6120    4.9630  -10.5260 N   0  0  0  0  0  0  0  0  0  0  0  0
   -8.6470    4.5370   -9.1530 C   0  0  0  0  0  0  0  0  0  0  0  0
   -9.0590    6.1850  -10.8500 N   0  0  0  0  0  0  0  0  0  0  0  0
   -8.8710    6.2360  -12.1670 C   0  0  0  0  0  0  0  0  0  0  0  0
   -6.2580    4.3440  -15.2430 H   0  0  0  0  0  0  0  0  0  0  0  0
   -5.9270    5.3050  -13.8050 H   0  0  0  0  0  0  0  0  0  0  0  0
   -6.2770    3.5880  -13.6340 H   0  0  0  0  0  0  0  0  0  0  0  0
  -10.4670    4.8920  -15.9910 H   0  0  0  0  0  0  0  0  0  0  0  0
  -11.1340    4.2040  -18.3990 H   0  0  0  0  0  0  0  0  0  0  0  0
   -9.3450    4.3990  -20.1830 H   0  0  0  0  0  0  0  0  0  0  0  0
   -4.7690    5.9830  -19.4500 H   0  0  0  0  0  0  0  0  0  0  0  0
   -6.8100    5.1010  -20.5890 H   0  0  0  0  0  0  0  0  0  0  0  0
   -7.7760    3.2480  -11.4390 H   0  0  0  0  0  0  0  0  0  0  0  0
   -9.3130    5.1820   -8.5810 H   0  0  0  0  0  0  0  0  0  0  0  0
   -9.0100    3.5060   -9.1200 H   0  0  0  0  0  0  0  0  0  0  0  0
   -7.6350    4.6060   -8.7490 H   0  0  0  0  0  0  0  0  0  0  0  0
   -9.1540    7.1400  -12.6880 H   0  0  0  0  0  0  0  0  0  0  0  0
  1  2  1  0
  2  3  1  0
  3  4  2  0
  3  5  1  0
  5  6  2  0
  6  7  1  0
  7  8  2  0
  8  9  1  0
  9 10  2  0
 10 11  1  0
 11 12  1  0
 12 13  3  0
 11 14  2  0
 14 15  1  0
  2 16  1  0
 16 17  2  0
 17 18  1  0
 18 19  1  0
 18 20  1  0
 20 21  2  0
 10  5  1  0
 15  9  1  0
 21 16  1  0
  1 22  1  0
  1 23  1  0
  1 24  1  0
  6 25  1  0
  7 26  1  0
  8 27  1  0
 14 28  1  0
 15 29  1  0
 17 30  1  0
 19 31  1  0
 19 32  1  0
 19 33  1  0
 21 34  1  0
A    1
 C1 
A    2
 N1 
A    3
 C2 
A    4
 O1 
A    5
 C3 
A    6
 C4 
A    7
 C5 
A    8
 C6 
A    9
 C7 
A   10
 C8 
A   11
 C9 
A   12
 C10
A   13
 N2 
A   14
 C11
A   15
 N3 
A   16
 C12
A   17
 C13
A   18
 N4 
A   19
 C14
A   20
 N5 
A   21
 C15
A   22
 H1 
A   23
 H2 
A   24
 H3 
A   25
 H4 
A   26
 H5 
A   27
 H6 
A   28
 H7 
A   29
 H8 
A   30
 H9 
A   31
 H10
A   32
 H11
A   33
 H12
A   34
 H13
M  END
>  <ref_pdb>  (87) 
x0051_0B

>  <ref_mols>  (87) 
x1098_0B,x0490_0B

>  <original SMILES>  (87) 
[H]c1nn(C([H])([H])[H])c([H])c1N(C(=O)c1c([H])c([H])c([H])c2c1c(C#N)c([H])n2[H])C([H])([H])[H]

>  <index>  (87) 
2605

>  <∆∆G>  (87) 
-7.188593

>  <∆G_bound>  (87) 
-6.364581

>  <∆G_unbound>  (87) 
0.824011

>  <comRMSD>  (87) 
0.521443

>  <N_constrained_atoms>  (87) 
19.0

>  <N_unconstrained_atoms>  (87) 
2.0

>  <runtime>  (87) 
44.955085

>  <LE>  (87) 
0.342314

>  <percent_hybrid>  (87) 
10.0

>  <dist>  (87) 
5.0

>  <ecfp4>  (87) 
0.328947

>  <daylight>  (87) 
0.408867

>  <topodist>  (87) 
1.0

>  <mces>  (87) 
22.0

>  <tdn>  (87) 
0.0

>  <tup>  (87) 
1.0

>  <rdn>  (87) 
0.0

>  <rup>  (87) 
0.0

>  <ldn>  (87) 
0.0

>  <lup>  (87) 
0.0

>  <mut>  (87) 
2.0

>  <maj>  (87) 
2.0

>  <min>  (87) 
0.0

>  <hyb>  (87) 
2.0

>  <sub>  (87) 
1.0

>  <query_index>  (87) 
69.0

>  <max_hit_Tanimoto>  (87) 
0.413

>  <largest_ring>  (87) 
6

>  <N_interactions_kept>  (87) 
3.0

>  <N_interactions_lost>  (87) 
3.0

>  <interaction_uniqueness_metric>  (87) 
0.084414

>  <ad_hoc_penalty>  (87) 
-5.79499

>  <N_rotatable_bonds>  (87) 
4

>  <N_HA>  (87) 
21

>  <cluster>  (87) 
3819

>  <N_interactions>  (87) 
5

>  <Enamine>  (87) 
1

>  <Mcule>  (87) 
0

>  <N_PAINS>  (87) 
0

>  <UFF_Gibbs>  (87) 
77.113593

>  <strain_per_HA>  (87) 
3.672076

>  <intxn_scored>  (87) 
11.0

>  <saltbridge:HIS:51>  (87) 
0

>  <pistack:HIS:51>  (87) 
1

>  <hydroph_interaction:HIS:51>  (87) 
0

>  <hbond:ALA:132>  (87) 
0

>  <hbond:SER:135>  (87) 
0

>  <hydroph_interaction:TYR:150>  (87) 
1

>  <pistack:TYR:161>  (87) 
2

>  <hydroph_interaction:TYR:161>  (87) 
0

>  <hydroph_interaction:ASP:83>  (87) 
0

>  <hbond:TYR:130>  (87) 
0

>  <hydroph_interaction:ALA:132>  (87) 
1

>  <hbond:HIS:51>  (87) 
0

>  <hbond:ASP:129>  (87) 
0

>  <hbond:TYR:150>  (87) 
0

>  <hbond:GLY:151>  (87) 
0

>  <hbond:TYR:161>  (87) 
0

>  <hydroph_interaction:TYR:130>  (87) 
0

>  <hydroph_interaction:PRO:131>  (87) 
0

>  <hydroph_interaction:ASP:129>  (87) 
0

>  <saltbridge:ASP:75>  (87) 
0

>  <saltbridge:ASP:83>  (87) 
0

>  <hbond:ASN:152>  (87) 
0

>  <hydroph_interaction:ASN:152>  (87) 
0

>  <halogenbond:TYR:150>  (87) 
0

>  <hbond:ASP:83>  (87) 
0

>  <hydroph_interaction:VAL:155>  (87) 
0

>  <pication:TYR:161>  (87) 
0

>  <hbond:PRO:131>  (87) 
0

>  <saltbridge:ASP:129>  (87) 
0

>  <hbond:THR:134>  (87) 
0

>  <pication:HIS:51>  (87) 
0

>  <hbond:SER:81>  (87) 
0

>  <hydroph_interaction:THR:134>  (87) 
0

>  <hydroph_interaction:MET:49>  (87) 
0

$$$$
Z4468685870
     RDKit          3D

 46 48  0  0  0  0  0  0  0  0999 V2000
   -4.7320    5.1860  -22.2500 C   0  0  0  0  0  0  0  0  0  0  0  0
   -3.7820    5.4370  -21.1810 N   0  0  0  0  0  0  0  0  0  0  0  0
   -2.4360    4.9560  -21.4620 C   0  0  0  0  0  0  0  0  0  0  0  0
   -4.2810    5.6720  -19.8790 C   0  0  0  0  0  0  0  0  0  0  0  0
   -5.6090    6.1340  -19.7360 C   0  0  0  0  0  0  0  0  0  0  0  0
   -6.5850    5.0870  -19.5150 N   0  0  0  0  0  0  0  0  0  0  0  0
   -7.3370    4.5960  -20.5950 C   0  0  0  0  0  0  0  0  0  0  0  0
   -6.9750    4.4040  -21.7260 O   0  0  0  0  0  0  0  0  0  0  0  0
   -8.6720    4.3440  -20.2230 N   0  0  0  0  0  0  0  0  0  0  0  0
   -8.7980    4.6260  -18.8990 C   0  0  0  0  0  0  0  0  0  0  0  0
   -9.9320    4.5500  -17.9120 C   0  0  0  0  0  0  0  0  0  0  0  0
   -9.6720    4.9100  -16.5770 C   0  0  0  0  0  0  0  0  0  0  0  0
   -8.4000    5.3490  -16.1550 C   0  0  0  0  0  0  0  0  0  0  0  0
   -8.1710    5.7080  -14.8340 C   0  0  0  0  0  0  0  0  0  0  0  0
   -7.6600    6.7840  -14.5500 O   0  0  0  0  0  0  0  0  0  0  0  0
   -8.5570    4.7840  -13.8880 N   0  0  0  0  0  0  0  0  0  0  0  0
   -8.7170    5.0980  -12.5880 C   0  0  0  0  0  0  0  0  0  0  0  0
   -8.6400    4.2130  -11.6550 N   0  0  0  0  0  0  0  0  0  0  0  0
   -8.8540    4.9420  -10.5280 N   0  0  0  0  0  0  0  0  0  0  0  0
   -8.2850    4.5010   -9.2690 C   0  0  0  0  0  0  0  0  0  0  0  0
   -8.7290    6.3780  -10.7550 C   0  0  0  0  0  0  0  0  0  0  0  0
   -8.9830    6.4960  -12.1310 C   0  0  0  0  0  0  0  0  0  0  0  0
   -7.3180    5.4400  -17.0400 C   0  0  0  0  0  0  0  0  0  0  0  0
   -7.5900    5.0490  -18.4590 C   0  0  0  0  0  0  0  0  0  0  0  0
   -5.1700    4.1940  -22.1180 H   0  0  0  0  0  0  0  0  0  0  0  0
   -5.5320    5.9300  -22.2970 H   0  0  0  0  0  0  0  0  0  0  0  0
   -4.1870    5.1780  -23.1990 H   0  0  0  0  0  0  0  0  0  0  0  0
   -2.5010    4.1400  -22.1970 H   0  0  0  0  0  0  0  0  0  0  0  0
   -1.9410    4.5360  -20.5760 H   0  0  0  0  0  0  0  0  0  0  0  0
   -1.8240    5.7700  -21.8580 H   0  0  0  0  0  0  0  0  0  0  0  0
   -4.2120    4.7510  -19.3020 H   0  0  0  0  0  0  0  0  0  0  0  0
   -3.6160    6.3740  -19.3610 H   0  0  0  0  0  0  0  0  0  0  0  0
   -5.9140    6.7150  -20.6140 H   0  0  0  0  0  0  0  0  0  0  0  0
   -5.6670    6.8050  -18.8720 H   0  0  0  0  0  0  0  0  0  0  0  0
   -9.2020    3.6650  -20.7380 H   0  0  0  0  0  0  0  0  0  0  0  0
  -10.9210    4.2260  -18.2180 H   0  0  0  0  0  0  0  0  0  0  0  0
  -10.4500    4.8680  -15.8250 H   0  0  0  0  0  0  0  0  0  0  0  0
   -9.0630    3.9460  -14.1790 H   0  0  0  0  0  0  0  0  0  0  0  0
   -8.5420    3.4520   -9.0850 H   0  0  0  0  0  0  0  0  0  0  0  0
   -8.6860    5.0800   -8.4330 H   0  0  0  0  0  0  0  0  0  0  0  0
   -7.1930    4.5940   -9.2680 H   0  0  0  0  0  0  0  0  0  0  0  0
   -7.7390    6.7560  -10.4900 H   0  0  0  0  0  0  0  0  0  0  0  0
   -9.4880    6.9360  -10.1940 H   0  0  0  0  0  0  0  0  0  0  0  0
  -10.0020    6.8110  -12.3430 H   0  0  0  0  0  0  0  0  0  0  0  0
   -8.2710    7.1720  -12.6180 H   0  0  0  0  0  0  0  0  0  0  0  0
   -6.3000    5.7650  -16.8160 H   0  0  0  0  0  0  0  0  0  0  0  0
  1  2  1  0
  2  3  1  0
  2  4  1  0
  4  5  1  0
  5  6  1  0
  6  7  1  0
  7  8  2  0
  7  9  1  0
  9 10  1  0
 10 11  2  0
 11 12  1  0
 12 13  2  0
 13 14  1  0
 14 15  2  0
 14 16  1  0
 16 17  1  0
 17 18  2  0
 18 19  1  0
 19 20  1  0
 19 21  1  0
 21 22  1  0
 13 23  1  0
 23 24  2  0
 24  6  1  0
 24 10  1  0
 22 17  1  0
  1 25  1  0
  1 26  1  0
  1 27  1  0
  3 28  1  0
  3 29  1  0
  3 30  1  0
  4 31  1  0
  4 32  1  0
  5 33  1  0
  5 34  1  0
  9 35  1  0
 11 36  1  0
 12 37  1  0
 16 38  1  0
 20 39  1  0
 20 40  1  0
 20 41  1  0
 21 42  1  0
 21 43  1  0
 22 44  1  0
 22 45  1  0
 23 46  1  0
A    1
 C1 
A    2
 N1 
A    3
 C2 
A    4
 C3 
A    5
 C4 
A    6
 N2 
A    7
 C5 
A    8
 O1 
A    9
 N3 
A   10
 C6 
A   11
 C7 
A   12
 C8 
A   13
 C9 
A   14
 C10
A   15
 O2 
A   16
 N4 
A   17
 C11
A   18
 N5 
A   19
 N6 
A   20
 C12
A   21
 C13
A   22
 C14
A   23
 C15
A   24
 C16
A   25
 H1 
A   26
 H2 
A   27
 H3 
A   28
 H4 
A   29
 H5 
A   30
 H6 
A   31
 H7 
A   32
 H8 
A   33
 H9 
A   34
 H10
A   35
 H11
A   36
 H12
A   37
 H13
A   38
 H14
A   39
 H15
A   40
 H16
A   41
 H17
A   42
 H18
A   43
 H19
A   44
 H20
A   45
 H21
A   46
 H22
M  END
>  <ref_pdb>  (88) 
x0051_0B

>  <ref_mols>  (88) 
x0904_0B,x1098_0B

>  <original SMILES>  (88) 
[H]c1c(C(=O)N([H])C2=NN(C([H])([H])[H])C([H])([H])C2([H])[H])c([H])c2c(c1[H])n([H])c(=O)n2C([H])([H])C([H])([H])N(C([H])([H])[H])C([H])([H])[H]

>  <index>  (88) 
685

>  <∆∆G>  (88) 
-6.72962

>  <∆G_bound>  (88) 
-5.920342

>  <∆G_unbound>  (88) 
0.809278

>  <comRMSD>  (88) 
0.840915

>  <N_constrained_atoms>  (88) 
24.0

>  <N_unconstrained_atoms>  (88) 
2.0

>  <runtime>  (88) 
54.245556

>  <LE>  (88) 
0.258832

>  <percent_hybrid>  (88) 
42.0

>  <dist>  (88) 
9.0

>  <ecfp4>  (88) 
0.223529

>  <daylight>  (88) 
0.34375

>  <topodist>  (88) 
2.0

>  <mces>  (88) 
25.0

>  <tdn>  (88) 
1.0

>  <tup>  (88) 
0.0

>  <rdn>  (88) 
0.0

>  <rup>  (88) 
1.0

>  <ldn>  (88) 
0.0

>  <lup>  (88) 
0.0

>  <mut>  (88) 
4.0

>  <maj>  (88) 
4.0

>  <min>  (88) 
0.0

>  <hyb>  (88) 
3.0

>  <sub>  (88) 
1.0

>  <query_index>  (88) 
34.0

>  <max_hit_Tanimoto>  (88) 
0.259707

>  <largest_ring>  (88) 
6

>  <N_interactions_kept>  (88) 
4.0

>  <N_interactions_lost>  (88) 
2.0

>  <interaction_uniqueness_metric>  (88) 
0.330126

>  <ad_hoc_penalty>  (88) 
-17.401271

>  <N_rotatable_bonds>  (88) 
7

>  <N_HA>  (88) 
24

>  <cluster>  (88) 
5590

>  <N_interactions>  (88) 
7

>  <Enamine>  (88) 
1

>  <Mcule>  (88) 
0

>  <N_PAINS>  (88) 
0

>  <UFF_Gibbs>  (88) 
178.795598

>  <strain_per_HA>  (88) 
7.449817

>  <intxn_scored>  (88) 
11.0

>  <saltbridge:HIS:51>  (88) 
0

>  <pistack:HIS:51>  (88) 
0

>  <hydroph_interaction:HIS:51>  (88) 
0

>  <hbond:ALA:132>  (88) 
0

>  <hbond:SER:135>  (88) 
0

>  <hydroph_interaction:TYR:150>  (88) 
0

>  <pistack:TYR:161>  (88) 
2

>  <hydroph_interaction:TYR:161>  (88) 
0

>  <hydroph_interaction:ASP:83>  (88) 
0

>  <hbond:TYR:130>  (88) 
1

>  <hydroph_interaction:ALA:132>  (88) 
0

>  <hbond:HIS:51>  (88) 
0

>  <hbond:ASP:129>  (88) 
1

>  <hbond:TYR:150>  (88) 
1

>  <hbond:GLY:151>  (88) 
1

>  <hbond:TYR:161>  (88) 
0

>  <hydroph_interaction:TYR:130>  (88) 
0

>  <hydroph_interaction:PRO:131>  (88) 
0

>  <hydroph_interaction:ASP:129>  (88) 
0

>  <saltbridge:ASP:75>  (88) 
0

>  <saltbridge:ASP:83>  (88) 
0

>  <hbond:ASN:152>  (88) 
0

>  <hydroph_interaction:ASN:152>  (88) 
0

>  <halogenbond:TYR:150>  (88) 
0

>  <hbond:ASP:83>  (88) 
0

>  <hydroph_interaction:VAL:155>  (88) 
0

>  <pication:TYR:161>  (88) 
0

>  <hbond:PRO:131>  (88) 
0

>  <saltbridge:ASP:129>  (88) 
1

>  <hbond:THR:134>  (88) 
0

>  <pication:HIS:51>  (88) 
0

>  <hbond:SER:81>  (88) 
0

>  <hydroph_interaction:THR:134>  (88) 
0

>  <hydroph_interaction:MET:49>  (88) 
0

$$$$
PV-002222217627
     RDKit          3D

 32 34  0  0  0  0  0  0  0  0999 V2000
   -8.6380    4.5140   -9.0770 C   0  0  0  0  0  0  0  0  0  0  0  0
   -8.7000    4.9940  -10.4450 N   0  0  0  0  0  0  0  0  0  0  0  0
   -8.4570    4.1130  -11.5390 C   0  0  0  0  0  0  0  0  0  0  0  0
   -8.5880    4.9250  -12.8110 C   0  0  0  0  0  0  0  0  0  0  0  0
   -8.4480    4.6130  -14.1530 N   0  0  0  0  0  0  0  0  0  0  0  0
   -7.9830    5.6500  -15.0910 C   0  0  0  0  0  0  0  0  0  0  0  0
   -7.3750    6.6630  -14.7450 O   0  0  0  0  0  0  0  0  0  0  0  0
   -8.3680    5.3260  -16.5490 C   0  0  0  0  0  0  0  0  0  0  0  0
   -9.7740    4.8440  -16.8090 C   0  0  0  0  0  0  0  0  0  0  0  0
  -10.1740    4.5480  -18.2460 C   0  0  0  0  0  0  0  0  0  0  0  0
   -9.2560    4.7080  -19.2840 C   0  0  0  0  0  0  0  0  0  0  0  0
   -7.8500    5.1920  -18.9210 C   0  0  0  0  0  0  0  0  0  0  0  0
   -7.4700    5.4780  -17.6080 C   0  0  0  0  0  0  0  0  0  0  0  0
   -6.0470    5.9390  -17.5800 C   0  0  0  0  0  0  0  0  0  0  0  0
   -5.5000    6.3610  -16.3320 O   0  0  0  0  0  0  0  0  0  0  0  0
   -5.5820    5.8500  -18.8830 C   0  0  0  0  0  0  0  0  0  0  0  0
   -6.6970    5.4360  -19.8650 C   0  0  0  0  0  0  0  0  0  0  0  0
   -8.9100    6.2060  -12.2370 C   0  0  0  0  0  0  0  0  0  0  0  0
   -8.9730    6.2510  -10.8600 N   0  0  0  0  0  0  0  0  0  0  0  0
   -9.3030    5.1130   -8.4510 H   0  0  0  0  0  0  0  0  0  0  0  0
   -7.6300    4.5890   -8.6580 H   0  0  0  0  0  0  0  0  0  0  0  0
   -8.9590    3.4680   -8.9990 H   0  0  0  0  0  0  0  0  0  0  0  0
   -8.2080    3.0440  -11.5950 H   0  0  0  0  0  0  0  0  0  0  0  0
   -8.1470    3.6400  -14.3180 H   0  0  0  0  0  0  0  0  0  0  0  0
  -10.5300    4.6920  -16.0440 H   0  0  0  0  0  0  0  0  0  0  0  0
  -11.1780    4.2080  -18.4760 H   0  0  0  0  0  0  0  0  0  0  0  0
   -9.5150    4.5030  -20.3140 H   0  0  0  0  0  0  0  0  0  0  0  0
   -4.7760    5.1100  -18.9120 H   0  0  0  0  0  0  0  0  0  0  0  0
   -5.1740    6.8250  -19.1740 H   0  0  0  0  0  0  0  0  0  0  0  0
   -6.4330    4.5340  -20.4260 H   0  0  0  0  0  0  0  0  0  0  0  0
   -6.9070    6.2530  -20.5540 H   0  0  0  0  0  0  0  0  0  0  0  0
   -9.1000    7.1260  -12.7730 H   0  0  0  0  0  0  0  0  0  0  0  0
  1  2  1  0
  2  3  1  0
  3  4  2  0
  4  5  1  0
  5  6  1  0
  6  7  2  0
  6  8  1  0
  8  9  2  0
  9 10  1  0
 10 11  2  0
 11 12  1  0
 12 13  2  0
 13 14  1  0
 14 15  2  0
 14 16  1  0
 16 17  1  0
  4 18  1  0
 18 19  2  0
 19  2  1  0
 13  8  1  0
 17 12  1  0
  1 20  1  0
  1 21  1  0
  1 22  1  0
  3 23  1  0
  5 24  1  0
  9 25  1  0
 10 26  1  0
 11 27  1  0
 16 28  1  0
 16 29  1  0
 17 30  1  0
 17 31  1  0
 18 32  1  0
A    1
 C1 
A    2
 N1 
A    3
 C2 
A    4
 C3 
A    5
 N2 
A    6
 C4 
A    7
 O1 
A    8
 C5 
A    9
 C6 
A   10
 C7 
A   11
 C8 
A   12
 C9 
A   13
 C10
A   14
 C11
A   15
 O2 
A   16
 C12
A   17
 C13
A   18
 C14
A   19
 N3 
A   20
 H1 
A   21
 H2 
A   22
 H3 
A   23
 H4 
A   24
 H5 
A   25
 H6 
A   26
 H7 
A   27
 H8 
A   28
 H9 
A   29
 H10
A   30
 H11
A   31
 H12
A   32
 H13
M  END
>  <ref_pdb>  (89) 
x0051_0B

>  <ref_mols>  (89) 
x1098_0B,x0490_0B

>  <original SMILES>  (89) 
[H]c1nn(C([H])([H])[H])c([H])c1N([H])C(=O)c1c([H])c([H])c([H])c2c1C(=O)C([H])([H])C2([H])[H]

>  <index>  (89) 
2141

>  <∆∆G>  (89) 
-8.102721

>  <∆G_bound>  (89) 
-6.369348

>  <∆G_unbound>  (89) 
1.733373

>  <comRMSD>  (89) 
0.525118

>  <N_constrained_atoms>  (89) 
20.0

>  <N_unconstrained_atoms>  (89) 
0.0

>  <runtime>  (89) 
61.922705

>  <LE>  (89) 
0.405136

>  <percent_hybrid>  (89) 
17.0

>  <dist>  (89) 
4.0

>  <ecfp4>  (89) 
0.52381

>  <daylight>  (89) 
0.419192

>  <topodist>  (89) 
1.0

>  <mces>  (89) 
21.0

>  <tdn>  (89) 
1.0

>  <tup>  (89) 
0.0

>  <rdn>  (89) 
0.0

>  <rup>  (89) 
0.0

>  <ldn>  (89) 
0.0

>  <lup>  (89) 
0.0

>  <mut>  (89) 
3.0

>  <maj>  (89) 
3.0

>  <min>  (89) 
0.0

>  <hyb>  (89) 
0.0

>  <sub>  (89) 
0.0

>  <query_index>  (89) 
69.0

>  <max_hit_Tanimoto>  (89) 
0.534398

>  <largest_ring>  (89) 
6

>  <N_interactions_kept>  (89) 
2.0

>  <N_interactions_lost>  (89) 
4.0

>  <interaction_uniqueness_metric>  (89) 
0.121838

>  <ad_hoc_penalty>  (89) 
-6.906786

>  <N_rotatable_bonds>  (89) 
3

>  <N_HA>  (89) 
19

>  <cluster>  (89) 
4253

>  <N_interactions>  (89) 
6

>  <Enamine>  (89) 
1

>  <Mcule>  (89) 
0

>  <N_PAINS>  (89) 
0

>  <UFF_Gibbs>  (89) 
102.078314

>  <strain_per_HA>  (89) 
5.372543

>  <intxn_scored>  (89) 
11.0

>  <saltbridge:HIS:51>  (89) 
0

>  <pistack:HIS:51>  (89) 
1

>  <hydroph_interaction:HIS:51>  (89) 
0

>  <hbond:ALA:132>  (89) 
0

>  <hbond:SER:135>  (89) 
0

>  <hydroph_interaction:TYR:150>  (89) 
1

>  <pistack:TYR:161>  (89) 
2

>  <hydroph_interaction:TYR:161>  (89) 
0

>  <hydroph_interaction:ASP:83>  (89) 
0

>  <hbond:TYR:130>  (89) 
0

>  <hydroph_interaction:ALA:132>  (89) 
1

>  <hbond:HIS:51>  (89) 
0

>  <hbond:ASP:129>  (89) 
0

>  <hbond:TYR:150>  (89) 
0

>  <hbond:GLY:151>  (89) 
1

>  <hbond:TYR:161>  (89) 
0

>  <hydroph_interaction:TYR:130>  (89) 
0

>  <hydroph_interaction:PRO:131>  (89) 
0

>  <hydroph_interaction:ASP:129>  (89) 
0

>  <saltbridge:ASP:75>  (89) 
0

>  <saltbridge:ASP:83>  (89) 
0

>  <hbond:ASN:152>  (89) 
0

>  <hydroph_interaction:ASN:152>  (89) 
0

>  <halogenbond:TYR:150>  (89) 
0

>  <hbond:ASP:83>  (89) 
0

>  <hydroph_interaction:VAL:155>  (89) 
0

>  <pication:TYR:161>  (89) 
0

>  <hbond:PRO:131>  (89) 
0

>  <saltbridge:ASP:129>  (89) 
0

>  <hbond:THR:134>  (89) 
0

>  <pication:HIS:51>  (89) 
0

>  <hbond:SER:81>  (89) 
0

>  <hydroph_interaction:THR:134>  (89) 
0

>  <hydroph_interaction:MET:49>  (89) 
0

$$$$
Z1256088212
     RDKit          3D

 49 52  0  0  0  0  0  0  0  0999 V2000
   -9.6420    4.4960  -18.3560 N   0  0  0  0  0  0  0  0  0  0  0  0
   -8.7010    4.9240  -17.5620 C   0  0  0  0  0  0  0  0  0  0  0  0
   -8.6910    4.6240  -16.3850 O   0  0  0  0  0  0  0  0  0  0  0  0
   -7.8340    5.7120  -18.2440 N   0  0  0  0  0  0  0  0  0  0  0  0
   -6.4710    5.5660  -18.4870 C   0  0  0  0  0  0  0  0  0  0  0  0
   -5.5710    5.2000  -17.4980 C   0  0  0  0  0  0  0  0  0  0  0  0
   -4.2080    5.0610  -17.7380 C   0  0  0  0  0  0  0  0  0  0  0  0
   -3.6740    5.2920  -19.0030 C   0  0  0  0  0  0  0  0  0  0  0  0
   -4.5750    5.6620  -19.9920 C   0  0  0  0  0  0  0  0  0  0  0  0
   -4.0890    5.9290  -21.3240 N   0  0  0  0  0  0  0  0  0  0  0  0
   -5.2040    6.0780  -22.1040 C   0  0  0  0  0  0  0  0  0  0  0  0
   -6.0110    5.2070  -22.3680 O   0  0  0  0  0  0  0  0  0  0  0  0
   -5.4400    7.3270  -22.6300 C   0  0  0  0  0  0  0  0  0  0  0  0
   -6.1440    7.3380  -23.7990 C   0  0  0  0  0  0  0  0  0  0  0  0
   -6.4080    8.5370  -24.3760 C   0  0  0  0  0  0  0  0  0  0  0  0
   -5.9800    9.7300  -23.8140 C   0  0  0  0  0  0  0  0  0  0  0  0
   -6.4260   11.1570  -24.7560 S   0  0  0  0  0  0  0  0  0  0  0  0
   -6.1420   10.4490  -26.4270 C   0  0  0  0  0  0  0  0  0  0  0  0
   -7.2730    9.7660  -26.9040 C   0  0  0  0  0  0  0  0  0  0  0  0
   -7.3450    8.4870  -27.2430 N   0  0  0  0  0  0  0  0  0  0  0  0
   -8.6440    8.2700  -27.6330 C   0  0  0  0  0  0  0  0  0  0  0  0
   -9.3120    6.9930  -28.1110 C   0  0  0  0  0  0  0  0  0  0  0  0
  -10.6770    7.0690  -28.4350 C   0  0  0  0  0  0  0  0  0  0  0  0
  -11.3870    8.2570  -28.3270 C   0  0  0  0  0  0  0  0  0  0  0  0
  -10.7090    9.5520  -27.8480 C   0  0  0  0  0  0  0  0  0  0  0  0
   -9.3680    9.4500  -27.5340 C   0  0  0  0  0  0  0  0  0  0  0  0
   -8.4660   10.3690  -27.0780 N   0  0  0  0  0  0  0  0  0  0  0  0
   -5.2620    9.7300  -22.6130 C   0  0  0  0  0  0  0  0  0  0  0  0
   -4.9850    8.5040  -22.0070 C   0  0  0  0  0  0  0  0  0  0  0  0
   -5.9500    5.7950  -19.7480 C   0  0  0  0  0  0  0  0  0  0  0  0
  -10.5950    4.6900  -18.0800 H   0  0  0  0  0  0  0  0  0  0  0  0
   -9.4790    4.6620  -19.3410 H   0  0  0  0  0  0  0  0  0  0  0  0
   -8.3040    6.2410  -18.9650 H   0  0  0  0  0  0  0  0  0  0  0  0
   -5.9540    5.0110  -16.4850 H   0  0  0  0  0  0  0  0  0  0  0  0
   -3.5370    4.7660  -16.9240 H   0  0  0  0  0  0  0  0  0  0  0  0
   -2.6050    5.1800  -19.1680 H   0  0  0  0  0  0  0  0  0  0  0  0
   -3.5340    5.1330  -21.6670 H   0  0  0  0  0  0  0  0  0  0  0  0
   -6.4790    6.4050  -24.2440 H   0  0  0  0  0  0  0  0  0  0  0  0
   -6.9680    8.5450  -25.3050 H   0  0  0  0  0  0  0  0  0  0  0  0
   -5.3070    9.7420  -26.3650 H   0  0  0  0  0  0  0  0  0  0  0  0
   -5.7650   11.2730  -27.0290 H   0  0  0  0  0  0  0  0  0  0  0  0
   -8.7510    6.0660  -28.1930 H   0  0  0  0  0  0  0  0  0  0  0  0
  -11.1900    6.1720  -28.7790 H   0  0  0  0  0  0  0  0  0  0  0  0
  -12.4450    8.2780  -28.5860 H   0  0  0  0  0  0  0  0  0  0  0  0
  -11.2590   10.4830  -27.7630 H   0  0  0  0  0  0  0  0  0  0  0  0
   -8.6590   11.3430  -26.8910 H   0  0  0  0  0  0  0  0  0  0  0  0
   -4.9130   10.6460  -22.1440 H   0  0  0  0  0  0  0  0  0  0  0  0
   -4.4270    8.4660  -21.0730 H   0  0  0  0  0  0  0  0  0  0  0  0
   -6.6060    6.0870  -20.5610 H   0  0  0  0  0  0  0  0  0  0  0  0
  1  2  1  0
  2  3  2  0
  2  4  1  0
  4  5  1  0
  5  6  2  0
  6  7  1  0
  7  8  2  0
  8  9  1  0
  9 10  1  0
 10 11  1  0
 11 12  2  0
 11 13  1  0
 13 14  2  0
 14 15  1  0
 15 16  2  0
 16 17  1  0
 17 18  1  0
 18 19  1  0
 19 20  2  0
 20 21  1  0
 21 22  2  0
 22 23  1  0
 23 24  2  0
 24 25  1  0
 25 26  2  0
 26 27  1  0
 16 28  1  0
 28 29  2  0
  9 30  2  0
 30  5  1  0
 29 13  1  0
 27 19  1  0
 26 21  1  0
  1 31  1  0
  1 32  1  0
  4 33  1  0
  6 34  1  0
  7 35  1  0
  8 36  1  0
 10 37  1  0
 14 38  1  0
 15 39  1  0
 18 40  1  0
 18 41  1  0
 22 42  1  0
 23 43  1  0
 24 44  1  0
 25 45  1  0
 27 46  1  0
 28 47  1  0
 29 48  1  0
 30 49  1  0
A    1
 N1 
A    2
 C1 
A    3
 O1 
A    4
 N2 
A    5
 C2 
A    6
 C3 
A    7
 C4 
A    8
 C5 
A    9
 C6 
A   10
 N3 
A   11
 C7 
A   12
 O2 
A   13
 C8 
A   14
 C9 
A   15
 C10
A   16
 C11
A   17
 S1 
A   18
 C12
A   19
 C13
A   20
 N4 
A   21
 C14
A   22
 C15
A   23
 C16
A   24
 C17
A   25
 C18
A   26
 C19
A   27
 N5 
A   28
 C20
A   29
 C21
A   30
 C22
A   31
 H1 
A   32
 H2 
A   33
 H3 
A   34
 H4 
A   35
 H5 
A   36
 H6 
A   37
 H7 
A   38
 H8 
A   39
 H9 
A   40
 H10
A   41
 H11
A   42
 H12
A   43
 H13
A   44
 H14
A   45
 H15
A   46
 H16
A   47
 H17
A   48
 H18
A   49
 H19
M  END
>  <ref_pdb>  (90) 
x0051_0B

>  <ref_mols>  (90) 
x0846_1B,x0680_0B

>  <original SMILES>  (90) 
[H]c1c([H])c(N([H])C(=O)c2c([H])c([H])c(SC([H])([H])c3nc4c([H])c([H])c([H])c([H])c4n3[H])c([H])c2[H])c([H])c(N([H])C(=O)N([H])[H])c1[H]

>  <index>  (90) 
287

>  <∆∆G>  (90) 
-7.540854

>  <∆G_bound>  (90) 
-6.744474

>  <∆G_unbound>  (90) 
0.79638

>  <comRMSD>  (90) 
0.650011

>  <N_constrained_atoms>  (90) 
29.0

>  <N_unconstrained_atoms>  (90) 
2.0

>  <runtime>  (90) 
46.538776

>  <LE>  (90) 
0.243253

>  <percent_hybrid>  (90) 
38.0

>  <dist>  (90) 
8.0

>  <ecfp4>  (90) 
0.22093

>  <daylight>  (90) 
0.422111

>  <topodist>  (90) 
4.0

>  <mces>  (90) 
31.0

>  <tdn>  (90) 
2.0

>  <tup>  (90) 
1.0

>  <rdn>  (90) 
0.0

>  <rup>  (90) 
0.0

>  <ldn>  (90) 
0.0

>  <lup>  (90) 
1.0

>  <mut>  (90) 
4.0

>  <maj>  (90) 
4.0

>  <min>  (90) 
0.0

>  <hyb>  (90) 
0.0

>  <sub>  (90) 
2.0

>  <query_index>  (90) 
100.0

>  <max_hit_Tanimoto>  (90) 
0.3137

>  <largest_ring>  (90) 
0

>  <N_interactions_kept>  (90) 
1.5

>  <N_interactions_lost>  (90) 
2.5

>  <interaction_uniqueness_metric>  (90) 
0.281715

>  <ad_hoc_penalty>  (90) 
-23.105284

>  <N_rotatable_bonds>  (90) 
6

>  <N_HA>  (90) 
30

>  <cluster>  (90) 
5955

>  <N_interactions>  (90) 
8

>  <Enamine>  (90) 
1

>  <Mcule>  (90) 
0

>  <N_PAINS>  (90) 
0

>  <UFF_Gibbs>  (90) 
217.958107

>  <strain_per_HA>  (90) 
7.26527

>  <intxn_scored>  (90) 
11.0

>  <saltbridge:HIS:51>  (90) 
0

>  <pistack:HIS:51>  (90) 
0

>  <hydroph_interaction:HIS:51>  (90) 
0

>  <hbond:ALA:132>  (90) 
0

>  <hbond:SER:135>  (90) 
0

>  <hydroph_interaction:TYR:150>  (90) 
0

>  <pistack:TYR:161>  (90) 
1

>  <hydroph_interaction:TYR:161>  (90) 
1

>  <hydroph_interaction:ASP:83>  (90) 
0

>  <hbond:TYR:130>  (90) 
2

>  <hydroph_interaction:ALA:132>  (90) 
0

>  <hbond:HIS:51>  (90) 
0

>  <hbond:ASP:129>  (90) 
1

>  <hbond:TYR:150>  (90) 
1

>  <hbond:GLY:151>  (90) 
0

>  <hbond:TYR:161>  (90) 
0

>  <hydroph_interaction:TYR:130>  (90) 
1

>  <hydroph_interaction:PRO:131>  (90) 
1

>  <hydroph_interaction:ASP:129>  (90) 
0

>  <saltbridge:ASP:75>  (90) 
0

>  <saltbridge:ASP:83>  (90) 
0

>  <hbond:ASN:152>  (90) 
0

>  <hydroph_interaction:ASN:152>  (90) 
0

>  <halogenbond:TYR:150>  (90) 
0

>  <hbond:ASP:83>  (90) 
0

>  <hydroph_interaction:VAL:155>  (90) 
0

>  <pication:TYR:161>  (90) 
0

>  <hbond:PRO:131>  (90) 
0

>  <saltbridge:ASP:129>  (90) 
0

>  <hbond:THR:134>  (90) 
0

>  <pication:HIS:51>  (90) 
0

>  <hbond:SER:81>  (90) 
0

>  <hydroph_interaction:THR:134>  (90) 
0

>  <hydroph_interaction:MET:49>  (90) 
0

$$$$
CSSB00000600874
     RDKit          3D

 29 30  0  0  0  0  0  0  0  0999 V2000
   -8.9270    4.9950  -13.9200 O   0  0  0  0  0  0  0  0  0  0  0  0
   -8.0260    5.3590  -14.6560 C   0  0  0  0  0  0  0  0  0  0  0  0
   -6.8240    5.8150  -14.2320 O   0  0  0  0  0  0  0  0  0  0  0  0
   -8.4300    5.2370  -16.0840 C   0  0  0  0  0  0  0  0  0  0  0  0
   -9.8090    4.7990  -16.4670 C   0  0  0  0  0  0  0  0  0  0  0  0
  -10.0650    4.7140  -17.9670 C   0  0  0  0  0  0  0  0  0  0  0  0
   -9.0640    5.0350  -18.8670 C   0  0  0  0  0  0  0  0  0  0  0  0
   -7.8130    5.4420  -18.3920 C   0  0  0  0  0  0  0  0  0  0  0  0
   -6.8620    5.7650  -19.3010 N   0  0  0  0  0  0  0  0  0  0  0  0
   -6.4770    5.0380  -20.4130 C   0  0  0  0  0  0  0  0  0  0  0  0
   -7.1760    4.2170  -20.9990 O   0  0  0  0  0  0  0  0  0  0  0  0
   -5.1850    5.2620  -20.8990 C   0  0  0  0  0  0  0  0  0  0  0  0
   -4.9990    5.5300  -22.3540 C   0  0  0  0  0  0  0  0  0  0  0  0
   -3.5530    5.7430  -22.7910 C   0  0  0  0  0  0  0  0  0  0  0  0
   -2.5030    5.6850  -21.8830 C   0  0  0  0  0  0  0  0  0  0  0  0
   -2.7530    5.4390  -20.5350 C   0  0  0  0  0  0  0  0  0  0  0  0
   -4.0500    5.2390  -20.0660 C   0  0  0  0  0  0  0  0  0  0  0  0
   -4.1750    5.0070  -18.7470 F   0  0  0  0  0  0  0  0  0  0  0  0
   -7.4990    5.5410  -17.0530 C   0  0  0  0  0  0  0  0  0  0  0  0
   -9.2540    4.1450  -14.3310 H   0  0  0  0  0  0  0  0  0  0  0  0
  -10.5700    4.5540  -15.7290 H   0  0  0  0  0  0  0  0  0  0  0  0
  -11.0400    4.4050  -18.3370 H   0  0  0  0  0  0  0  0  0  0  0  0
   -9.2860    4.9650  -19.9290 H   0  0  0  0  0  0  0  0  0  0  0  0
   -6.3690    6.6350  -19.1280 H   0  0  0  0  0  0  0  0  0  0  0  0
   -5.8300    5.5720  -23.0550 H   0  0  0  0  0  0  0  0  0  0  0  0
   -3.3420    5.9400  -23.8400 H   0  0  0  0  0  0  0  0  0  0  0  0
   -1.4810    5.8370  -22.2250 H   0  0  0  0  0  0  0  0  0  0  0  0
   -1.9260    5.3970  -19.8320 H   0  0  0  0  0  0  0  0  0  0  0  0
   -6.5050    5.8600  -16.7550 H   0  0  0  0  0  0  0  0  0  0  0  0
  1  2  1  0
  2  3  2  0
  2  4  1  0
  4  5  2  0
  5  6  1  0
  6  7  2  0
  7  8  1  0
  8  9  1  0
  9 10  1  0
 10 11  2  0
 10 12  1  0
 12 13  2  0
 13 14  1  0
 14 15  2  0
 15 16  1  0
 16 17  2  0
 17 18  1  0
  8 19  2  0
 19  4  1  0
 17 12  1  0
  1 20  1  0
  5 21  1  0
  6 22  1  0
  7 23  1  0
  9 24  1  0
 13 25  1  0
 14 26  1  0
 15 27  1  0
 16 28  1  0
 19 29  1  0
A    1
 O1 
A    2
 C1 
A    3
 O2 
A    4
 C2 
A    5
 C3 
A    6
 C4 
A    7
 C5 
A    8
 C6 
A    9
 N1 
A   10
 C7 
A   11
 O3 
A   12
 C8 
A   13
 C9 
A   14
 C10
A   15
 C11
A   16
 C12
A   17
 C13
A   18
 F1 
A   19
 C14
A   20
 H1 
A   21
 H2 
A   22
 H3 
A   23
 H4 
A   24
 H5 
A   25
 H6 
A   26
 H7 
A   27
 H8 
A   28
 H9 
A   29
 H10
M  END
>  <ref_pdb>  (91) 
x0051_0B

>  <ref_mols>  (91) 
x0852_0B,x0951_0B

>  <original SMILES>  (91) 
[H]OC(=O)c1c([H])c([H])c([H])c(N([H])C(=O)c2c([H])c([H])c([H])c([H])c2F)c1[H]

>  <index>  (91) 
3032

>  <∆∆G>  (91) 
-5.74691

>  <∆G_bound>  (91) 
-4.960759

>  <∆G_unbound>  (91) 
0.78615

>  <comRMSD>  (91) 
0.678338

>  <N_constrained_atoms>  (91) 
22.0

>  <N_unconstrained_atoms>  (91) 
0.0

>  <runtime>  (91) 
30.554875

>  <LE>  (91) 
0.261223

>  <percent_hybrid>  (91) 
27.0

>  <dist>  (91) 
8.0

>  <ecfp4>  (91) 
0.304348

>  <daylight>  (91) 
0.341584

>  <topodist>  (91) 
5.0

>  <mces>  (91) 
20.0

>  <tdn>  (91) 
4.0

>  <tup>  (91) 
0.0

>  <rdn>  (91) 
1.0

>  <rup>  (91) 
0.0

>  <ldn>  (91) 
0.0

>  <lup>  (91) 
0.0

>  <mut>  (91) 
3.0

>  <maj>  (91) 
3.0

>  <min>  (91) 
0.0

>  <hyb>  (91) 
0.0

>  <sub>  (91) 
2.0

>  <query_index>  (91) 
95.0

>  <max_hit_Tanimoto>  (91) 
0.439314

>  <largest_ring>  (91) 
6

>  <N_interactions_kept>  (91) 
0.0

>  <N_interactions_lost>  (91) 
6.0

>  <interaction_uniqueness_metric>  (91) 
0.32817

>  <ad_hoc_penalty>  (91) 
-4.580818

>  <N_rotatable_bonds>  (91) 
3

>  <N_HA>  (91) 
19

>  <cluster>  (91) 
3415

>  <N_interactions>  (91) 
10

>  <Enamine>  (91) 
1

>  <Mcule>  (91) 
0

>  <N_PAINS>  (91) 
0

>  <UFF_Gibbs>  (91) 
96.189796

>  <strain_per_HA>  (91) 
5.062621

>  <intxn_scored>  (91) 
11.0

>  <saltbridge:HIS:51>  (91) 
1

>  <pistack:HIS:51>  (91) 
0

>  <hydroph_interaction:HIS:51>  (91) 
0

>  <hbond:ALA:132>  (91) 
0

>  <hbond:SER:135>  (91) 
0

>  <hydroph_interaction:TYR:150>  (91) 
1

>  <pistack:TYR:161>  (91) 
1

>  <hydroph_interaction:TYR:161>  (91) 
1

>  <hydroph_interaction:ASP:83>  (91) 
0

>  <hbond:TYR:130>  (91) 
1

>  <hydroph_interaction:ALA:132>  (91) 
1

>  <hbond:HIS:51>  (91) 
0

>  <hbond:ASP:129>  (91) 
1

>  <hbond:TYR:150>  (91) 
0

>  <hbond:GLY:151>  (91) 
1

>  <hbond:TYR:161>  (91) 
1

>  <hydroph_interaction:TYR:130>  (91) 
0

>  <hydroph_interaction:PRO:131>  (91) 
0

>  <hydroph_interaction:ASP:129>  (91) 
1

>  <saltbridge:ASP:75>  (91) 
0

>  <saltbridge:ASP:83>  (91) 
0

>  <hbond:ASN:152>  (91) 
0

>  <hydroph_interaction:ASN:152>  (91) 
0

>  <halogenbond:TYR:150>  (91) 
0

>  <hbond:ASP:83>  (91) 
0

>  <hydroph_interaction:VAL:155>  (91) 
0

>  <pication:TYR:161>  (91) 
0

>  <hbond:PRO:131>  (91) 
0

>  <saltbridge:ASP:129>  (91) 
0

>  <hbond:THR:134>  (91) 
0

>  <pication:HIS:51>  (91) 
0

>  <hbond:SER:81>  (91) 
0

>  <hydroph_interaction:THR:134>  (91) 
0

>  <hydroph_interaction:MET:49>  (91) 
0

$$$$
CSSB00042094995
     RDKit          3D

 33 35  0  0  0  0  0  0  0  0999 V2000
   -8.8910    3.7160   -9.0730 C   0  0  0  0  0  0  0  0  0  0  0  0
   -8.7590    4.7310  -10.1970 C   0  0  0  0  0  0  0  0  0  0  0  0
   -8.7430    4.1340  -11.6380 C   0  0  0  0  0  0  0  0  0  0  0  0
   -8.6160    5.0930  -12.8010 C   0  0  0  0  0  0  0  0  0  0  0  0
   -8.5780    4.6140  -14.1240 N   0  0  0  0  0  0  0  0  0  0  0  0
   -8.1470    5.4410  -15.1450 C   0  0  0  0  0  0  0  0  0  0  0  0
   -7.4660    6.4710  -15.0700 O   0  0  0  0  0  0  0  0  0  0  0  0
   -8.5400    5.1410  -16.5820 C   0  0  0  0  0  0  0  0  0  0  0  0
   -7.5020    5.2890  -17.6860 C   0  0  0  0  0  0  0  0  0  0  0  0
   -6.1610    5.6770  -17.5410 C   0  0  0  0  0  0  0  0  0  0  0  0
   -5.6250    5.6620  -18.8400 C   0  0  0  0  0  0  0  0  0  0  0  0
   -6.6440    5.2720  -19.7020 N   0  0  0  0  0  0  0  0  0  0  0  0
   -7.8100    5.0410  -18.9910 C   0  0  0  0  0  0  0  0  0  0  0  0
   -9.0940    4.6440  -19.3560 C   0  0  0  0  0  0  0  0  0  0  0  0
  -10.0750    4.4970  -18.3560 C   0  0  0  0  0  0  0  0  0  0  0  0
   -9.7980    4.7380  -16.9950 C   0  0  0  0  0  0  0  0  0  0  0  0
   -8.5320    6.4500  -12.5100 C   0  0  0  0  0  0  0  0  0  0  0  0
   -8.5490    6.9670  -11.0730 C   0  0  0  0  0  0  0  0  0  0  0  0
   -8.6530    6.1090   -9.9910 C   0  0  0  0  0  0  0  0  0  0  0  0
   -8.6370    6.8980   -8.2600 Br  0  0  0  0  0  0  0  0  0  0  0  0
   -8.6920    2.6940   -9.3990 H   0  0  0  0  0  0  0  0  0  0  0  0
   -8.2090    3.9460   -8.2520 H   0  0  0  0  0  0  0  0  0  0  0  0
   -9.9170    3.7470   -8.7040 H   0  0  0  0  0  0  0  0  0  0  0  0
   -8.8210    3.0490  -11.7870 H   0  0  0  0  0  0  0  0  0  0  0  0
   -8.2670    3.6410  -14.2210 H   0  0  0  0  0  0  0  0  0  0  0  0
   -5.6440    5.9330  -16.6260 H   0  0  0  0  0  0  0  0  0  0  0  0
   -4.6360    5.8880  -19.2090 H   0  0  0  0  0  0  0  0  0  0  0  0
   -6.5450    5.1730  -20.7030 H   0  0  0  0  0  0  0  0  0  0  0  0
   -9.3430    4.4480  -20.3930 H   0  0  0  0  0  0  0  0  0  0  0  0
  -11.0770    4.1870  -18.6480 H   0  0  0  0  0  0  0  0  0  0  0  0
  -10.5720    4.6080  -16.2590 H   0  0  0  0  0  0  0  0  0  0  0  0
   -8.4460    7.1880  -13.3030 H   0  0  0  0  0  0  0  0  0  0  0  0
   -8.4720    8.0390  -10.9110 H   0  0  0  0  0  0  0  0  0  0  0  0
  1  2  1  0
  2  3  2  0
  3  4  1  0
  4  5  1  0
  5  6  1  0
  6  7  2  0
  6  8  1  0
  8  9  2  0
  9 10  1  0
 10 11  2  0
 11 12  1  0
 12 13  1  0
 13 14  2  0
 14 15  1  0
 15 16  2  0
  4 17  2  0
 17 18  1  0
 18 19  2  0
 19 20  1  0
 19  2  1  0
 16  8  1  0
 13  9  1  0
  1 21  1  0
  1 22  1  0
  1 23  1  0
  3 24  1  0
  5 25  1  0
 10 26  1  0
 11 27  1  0
 12 28  1  0
 14 29  1  0
 15 30  1  0
 16 31  1  0
 17 32  1  0
 18 33  1  0
A    1
 C1 
A    2
 C2 
A    3
 C3 
A    4
 C4 
A    5
 N1 
A    6
 C5 
A    7
 O1 
A    8
 C6 
A    9
 C7 
A   10
 C8 
A   11
 C9 
A   12
 N2 
A   13
 C10
A   14
 C11
A   15
 C12
A   16
 C13
A   17
 C14
A   18
 C15
A   19
 C16
A   20
BR1 
A   21
 H1 
A   22
 H2 
A   23
 H3 
A   24
 H4 
A   25
 H5 
A   26
 H6 
A   27
 H7 
A   28
 H8 
A   29
 H9 
A   30
 H10
A   31
 H11
A   32
 H12
A   33
 H13
M  END
>  <ref_pdb>  (92) 
x0051_0B

>  <ref_mols>  (92) 
x1098_0B,x0490_0B

>  <original SMILES>  (92) 
[H]c1c([H])c(N([H])C(=O)c2c([H])c([H])c([H])c3c2c([H])c([H])n3[H])c([H])c(C([H])([H])[H])c1Br

>  <index>  (92) 
2358

>  <∆∆G>  (92) 
-8.187443

>  <∆G_bound>  (92) 
-7.869233

>  <∆G_unbound>  (92) 
0.31821

>  <comRMSD>  (92) 
0.558199

>  <N_constrained_atoms>  (92) 
19.0

>  <N_unconstrained_atoms>  (92) 
2.0

>  <runtime>  (92) 
63.892537

>  <LE>  (92) 
0.389878

>  <percent_hybrid>  (92) 
10.0

>  <dist>  (92) 
9.0

>  <ecfp4>  (92) 
0.220779

>  <daylight>  (92) 
0.292079

>  <topodist>  (92) 
4.0

>  <mces>  (92) 
20.0

>  <tdn>  (92) 
2.0

>  <tup>  (92) 
1.0

>  <rdn>  (92) 
0.0

>  <rup>  (92) 
0.0

>  <ldn>  (92) 
0.0

>  <lup>  (92) 
1.0

>  <mut>  (92) 
4.0

>  <maj>  (92) 
4.0

>  <min>  (92) 
0.0

>  <hyb>  (92) 
1.0

>  <sub>  (92) 
0.0

>  <query_index>  (92) 
69.0

>  <max_hit_Tanimoto>  (92) 
0.298787

>  <largest_ring>  (92) 
6

>  <N_interactions_kept>  (92) 
2.0

>  <N_interactions_lost>  (92) 
4.0

>  <interaction_uniqueness_metric>  (92) 
0.13721

>  <ad_hoc_penalty>  (92) 
-7.892028

>  <N_rotatable_bonds>  (92) 
3

>  <N_HA>  (92) 
20

>  <cluster>  (92) 
4051

>  <N_interactions>  (92) 
6

>  <Enamine>  (92) 
1

>  <Mcule>  (92) 
0

>  <N_PAINS>  (92) 
0

>  <UFF_Gibbs>  (92) 
70.265833

>  <strain_per_HA>  (92) 
3.513292

>  <intxn_scored>  (92) 
11.0

>  <saltbridge:HIS:51>  (92) 
0

>  <pistack:HIS:51>  (92) 
1

>  <hydroph_interaction:HIS:51>  (92) 
1

>  <hbond:ALA:132>  (92) 
0

>  <hbond:SER:135>  (92) 
0

>  <hydroph_interaction:TYR:150>  (92) 
1

>  <pistack:TYR:161>  (92) 
2

>  <hydroph_interaction:TYR:161>  (92) 
0

>  <hydroph_interaction:ASP:83>  (92) 
0

>  <hbond:TYR:130>  (92) 
0

>  <hydroph_interaction:ALA:132>  (92) 
0

>  <hbond:HIS:51>  (92) 
0

>  <hbond:ASP:129>  (92) 
0

>  <hbond:TYR:150>  (92) 
0

>  <hbond:GLY:151>  (92) 
1

>  <hbond:TYR:161>  (92) 
0

>  <hydroph_interaction:TYR:130>  (92) 
0

>  <hydroph_interaction:PRO:131>  (92) 
0

>  <hydroph_interaction:ASP:129>  (92) 
0

>  <saltbridge:ASP:75>  (92) 
0

>  <saltbridge:ASP:83>  (92) 
0

>  <hbond:ASN:152>  (92) 
0

>  <hydroph_interaction:ASN:152>  (92) 
0

>  <halogenbond:TYR:150>  (92) 
0

>  <hbond:ASP:83>  (92) 
0

>  <hydroph_interaction:VAL:155>  (92) 
0

>  <pication:TYR:161>  (92) 
0

>  <hbond:PRO:131>  (92) 
0

>  <saltbridge:ASP:129>  (92) 
0

>  <hbond:THR:134>  (92) 
0

>  <pication:HIS:51>  (92) 
0

>  <hbond:SER:81>  (92) 
0

>  <hydroph_interaction:THR:134>  (92) 
0

>  <hydroph_interaction:MET:49>  (92) 
0

$$$$
CSSB00132688920
     RDKit          3D

 41 42  0  0  0  0  0  0  0  0999 V2000
  -10.4570    4.8420  -17.9270 C   0  0  0  0  0  0  0  0  0  0  0  0
   -8.9890    5.0190  -17.7830 C   0  0  0  0  0  0  0  0  0  0  0  0
   -8.2460    4.8230  -18.9390 C   0  0  0  0  0  0  0  0  0  0  0  0
   -6.8620    4.9490  -18.9010 C   0  0  0  0  0  0  0  0  0  0  0  0
   -6.2180    5.2570  -17.7100 C   0  0  0  0  0  0  0  0  0  0  0  0
   -6.9490    5.4610  -16.5430 C   0  0  0  0  0  0  0  0  0  0  0  0
   -6.1410    5.7750  -15.3230 C   0  0  0  0  0  0  0  0  0  0  0  0
   -8.3590    5.3620  -16.5690 C   0  0  0  0  0  0  0  0  0  0  0  0
   -9.1410    5.6110  -15.3780 N   0  0  0  0  0  0  0  0  0  0  0  0
   -8.8530    6.9730  -14.3570 S   0  0  0  0  0  6  0  0  0  0  0  0
   -9.9530    7.9110  -14.3480 O   0  0  0  0  0  0  0  0  0  0  0  0
   -7.5370    7.4400  -14.6720 O   0  0  0  0  0  0  0  0  0  0  0  0
   -8.8510    6.2320  -12.7700 C   0  0  0  0  0  0  0  0  0  0  0  0
   -8.7140    6.9550  -11.5860 C   0  0  0  0  0  0  0  0  0  0  0  0
   -8.7320    6.2660  -10.3590 C   0  0  0  0  0  0  0  0  0  0  0  0
   -8.8880    4.8710  -10.3620 C   0  0  0  0  0  0  0  0  0  0  0  0
   -8.9120    4.1840   -9.1540 N   0  0  0  0  0  0  0  0  0  0  0  0
   -9.2710    2.8510   -9.0840 C   0  0  0  0  0  0  0  0  0  0  0  0
   -9.2720    2.0510  -10.0090 O   0  0  0  0  0  0  0  0  0  0  0  0
   -9.6800    2.4300   -7.7080 C   0  0  0  0  0  0  0  0  0  0  0  0
   -9.3710    3.5000   -6.7840 C   0  0  0  0  0  0  0  0  0  0  0  0
   -9.1320    4.4020   -6.1010 N   0  0  0  0  0  0  0  0  0  0  0  0
   -9.0200    4.1850  -11.5600 C   0  0  0  0  0  0  0  0  0  0  0  0
   -9.0030    4.8630  -12.7620 C   0  0  0  0  0  0  0  0  0  0  0  0
  -10.9650    5.7550  -18.2210 H   0  0  0  0  0  0  0  0  0  0  0  0
  -10.8770    4.5060  -16.9880 H   0  0  0  0  0  0  0  0  0  0  0  0
  -10.6410    4.0630  -18.6560 H   0  0  0  0  0  0  0  0  0  0  0  0
   -8.7140    4.5680  -19.8850 H   0  0  0  0  0  0  0  0  0  0  0  0
   -6.2810    4.7980  -19.8080 H   0  0  0  0  0  0  0  0  0  0  0  0
   -5.1340    5.3400  -17.6860 H   0  0  0  0  0  0  0  0  0  0  0  0
   -5.8160    6.8200  -15.3460 H   0  0  0  0  0  0  0  0  0  0  0  0
   -6.7420    5.6040  -14.4220 H   0  0  0  0  0  0  0  0  0  0  0  0
   -5.2510    5.1470  -15.2310 H   0  0  0  0  0  0  0  0  0  0  0  0
  -10.1010    5.2730  -15.3410 H   0  0  0  0  0  0  0  0  0  0  0  0
   -8.5950    8.0350  -11.5970 H   0  0  0  0  0  0  0  0  0  0  0  0
   -8.6260    6.8250   -9.4350 H   0  0  0  0  0  0  0  0  0  0  0  0
   -8.2330    4.5060   -8.4730 H   0  0  0  0  0  0  0  0  0  0  0  0
   -9.1540    1.5260   -7.4360 H   0  0  0  0  0  0  0  0  0  0  0  0
  -10.7480    2.2090   -7.6930 H   0  0  0  0  0  0  0  0  0  0  0  0
   -9.1430    3.1050  -11.6020 H   0  0  0  0  0  0  0  0  0  0  0  0
   -9.1100    4.3050  -13.6910 H   0  0  0  0  0  0  0  0  0  0  0  0
  1  2  1  0
  2  3  2  0
  3  4  1  0
  4  5  2  0
  5  6  1  0
  6  7  1  0
  6  8  2  0
  8  9  1  0
  9 10  1  0
 10 11  2  0
 10 12  2  0
 10 13  1  0
 13 14  2  0
 14 15  1  0
 15 16  2  0
 16 17  1  0
 17 18  1  0
 18 19  2  0
 18 20  1  0
 20 21  1  0
 21 22  3  0
 16 23  1  0
 23 24  2  0
  8  2  1  0
 24 13  1  0
  1 25  1  0
  1 26  1  0
  1 27  1  0
  3 28  1  0
  4 29  1  0
  5 30  1  0
  7 31  1  0
  7 32  1  0
  7 33  1  0
  9 34  1  0
 14 35  1  0
 15 36  1  0
 17 37  1  0
 20 38  1  0
 20 39  1  0
 23 40  1  0
 24 41  1  0
A    1
 C1 
A    2
 C2 
A    3
 C3 
A    4
 C4 
A    5
 C5 
A    6
 C6 
A    7
 C7 
A    8
 C8 
A    9
 N1 
A   10
 S1 
A   11
 O1 
A   12
 O2 
A   13
 C9 
A   14
 C10
A   15
 C11
A   16
 C12
A   17
 N2 
A   18
 C13
A   19
 O3 
A   20
 C14
A   21
 C15
A   22
 N3 
A   23
 C16
A   24
 C17
A   25
 H1 
A   26
 H2 
A   27
 H3 
A   28
 H4 
A   29
 H5 
A   30
 H6 
A   31
 H7 
A   32
 H8 
A   33
 H9 
A   34
 H10
A   35
 H11
A   36
 H12
A   37
 H13
A   38
 H14
A   39
 H15
A   40
 H16
A   41
 H17
M  END
>  <ref_pdb>  (93) 
x0051_0B

>  <ref_mols>  (93) 
x0605_0B,x0404_0B

>  <original SMILES>  (93) 
[H]c1c([H])c(C([H])([H])[H])c(N([H])S(=O)(=O)c2c([H])c([H])c(N([H])C(=O)C([H])([H])C#N)c([H])c2[H])c(C([H])([H])[H])c1[H]

>  <index>  (93) 
1221

>  <∆∆G>  (93) 
-6.94254

>  <∆G_bound>  (93) 
-8.260077

>  <∆G_unbound>  (93) 
-1.317537

>  <comRMSD>  (93) 
0.679747

>  <N_constrained_atoms>  (93) 
24.0

>  <N_unconstrained_atoms>  (93) 
2.0

>  <runtime>  (93) 
66.412028

>  <LE>  (93) 
0.267021

>  <percent_hybrid>  (93) 
38.0

>  <dist>  (93) 
11.0

>  <ecfp4>  (93) 
0.21519

>  <daylight>  (93) 
0.296296

>  <topodist>  (93) 
5.0

>  <mces>  (93) 
24.0

>  <tdn>  (93) 
1.0

>  <tup>  (93) 
1.0

>  <rdn>  (93) 
1.0

>  <rup>  (93) 
0.0

>  <ldn>  (93) 
2.0

>  <lup>  (93) 
0.0

>  <mut>  (93) 
2.0

>  <maj>  (93) 
2.0

>  <min>  (93) 
0.0

>  <hyb>  (93) 
4.0

>  <sub>  (93) 
1.0

>  <query_index>  (93) 
27.0

>  <max_hit_Tanimoto>  (93) 
0.303438

>  <largest_ring>  (93) 
6

>  <N_interactions_kept>  (93) 
1.0

>  <N_interactions_lost>  (93) 
3.0

>  <interaction_uniqueness_metric>  (93) 
0.340893

>  <ad_hoc_penalty>  (93) 
-14.978902

>  <N_rotatable_bonds>  (93) 
7

>  <N_HA>  (93) 
24

>  <cluster>  (93) 
5093

>  <N_interactions>  (93) 
8

>  <Enamine>  (93) 
1

>  <Mcule>  (93) 
0

>  <N_PAINS>  (93) 
0

>  <UFF_Gibbs>  (93) 
138.480304

>  <strain_per_HA>  (93) 
5.770013

>  <intxn_scored>  (93) 
11.0

>  <saltbridge:HIS:51>  (93) 
0

>  <pistack:HIS:51>  (93) 
1

>  <hydroph_interaction:HIS:51>  (93) 
1

>  <hbond:ALA:132>  (93) 
0

>  <hbond:SER:135>  (93) 
0

>  <hydroph_interaction:TYR:150>  (93) 
1

>  <pistack:TYR:161>  (93) 
1

>  <hydroph_interaction:TYR:161>  (93) 
1

>  <hydroph_interaction:ASP:83>  (93) 
0

>  <hbond:TYR:130>  (93) 
0

>  <hydroph_interaction:ALA:132>  (93) 
0

>  <hbond:HIS:51>  (93) 
1

>  <hbond:ASP:129>  (93) 
0

>  <hbond:TYR:150>  (93) 
0

>  <hbond:GLY:151>  (93) 
1

>  <hbond:TYR:161>  (93) 
0

>  <hydroph_interaction:TYR:130>  (93) 
0

>  <hydroph_interaction:PRO:131>  (93) 
0

>  <hydroph_interaction:ASP:129>  (93) 
0

>  <saltbridge:ASP:75>  (93) 
0

>  <saltbridge:ASP:83>  (93) 
0

>  <hbond:ASN:152>  (93) 
0

>  <hydroph_interaction:ASN:152>  (93) 
0

>  <halogenbond:TYR:150>  (93) 
0

>  <hbond:ASP:83>  (93) 
1

>  <hydroph_interaction:VAL:155>  (93) 
0

>  <pication:TYR:161>  (93) 
0

>  <hbond:PRO:131>  (93) 
0

>  <saltbridge:ASP:129>  (93) 
0

>  <hbond:THR:134>  (93) 
0

>  <pication:HIS:51>  (93) 
0

>  <hbond:SER:81>  (93) 
0

>  <hydroph_interaction:THR:134>  (93) 
0

>  <hydroph_interaction:MET:49>  (93) 
0

$$$$
CSSB00020653162
     RDKit          3D

 38 41  0  0  0  0  0  0  0  0999 V2000
  -10.3900    9.1870  -12.0270 C   0  0  0  0  0  0  0  0  0  0  0  0
   -9.1810    8.3630  -12.3940 C   0  0  0  0  0  0  0  0  0  0  0  0
   -9.2890    6.9520  -12.3690 C   0  0  0  0  0  0  0  0  0  0  0  0
  -10.5580    6.3340  -12.2620 C   0  0  0  0  0  0  0  0  0  0  0  0
  -11.6810    7.1320  -12.1580 C   0  0  0  0  0  0  0  0  0  0  0  0
  -11.4050    8.3580  -11.3810 N   0  0  0  0  0  0  0  0  0  0  0  0
   -8.5910    6.4230  -13.5650 C   0  0  0  0  0  0  0  0  0  0  0  0
   -9.1190    6.0970  -14.6790 N   0  0  0  0  0  0  0  0  0  0  0  0
   -8.0460    5.7070  -15.4410 C   0  0  0  0  0  0  0  0  0  0  0  0
   -6.8460    5.7460  -14.8420 N   0  0  0  0  0  0  0  0  0  0  0  0
   -7.1560    6.2250  -13.5770 O   0  0  0  0  0  0  0  0  0  0  0  0
   -8.3270    5.3480  -16.7400 C   0  0  0  0  0  0  0  0  0  0  0  0
   -9.6160    4.9190  -16.9970 C   0  0  0  0  0  0  0  0  0  0  0  0
  -10.0180    4.5740  -18.2730 C   0  0  0  0  0  0  0  0  0  0  0  0
   -9.1170    4.6500  -19.3250 C   0  0  0  0  0  0  0  0  0  0  0  0
   -7.7910    5.0750  -19.0890 C   0  0  0  0  0  0  0  0  0  0  0  0
   -6.9060    5.1390  -20.1640 C   0  0  0  0  0  0  0  0  0  0  0  0
   -5.5990    5.5520  -19.9850 C   0  0  0  0  0  0  0  0  0  0  0  0
   -5.1540    5.9080  -18.7210 C   0  0  0  0  0  0  0  0  0  0  0  0
   -6.0300    5.8490  -17.6380 C   0  0  0  0  0  0  0  0  0  0  0  0
   -7.3730    5.4310  -17.7870 C   0  0  0  0  0  0  0  0  0  0  0  0
  -10.0850    9.9900  -11.3490 H   0  0  0  0  0  0  0  0  0  0  0  0
  -10.8190    9.6190  -12.9340 H   0  0  0  0  0  0  0  0  0  0  0  0
   -8.8550    8.6750  -13.3960 H   0  0  0  0  0  0  0  0  0  0  0  0
   -8.3680    8.6680  -11.7200 H   0  0  0  0  0  0  0  0  0  0  0  0
   -8.7170    6.6190  -11.4930 H   0  0  0  0  0  0  0  0  0  0  0  0
  -10.6980    5.6760  -13.1280 H   0  0  0  0  0  0  0  0  0  0  0  0
  -10.5460    5.6610  -11.3950 H   0  0  0  0  0  0  0  0  0  0  0  0
  -12.0540    7.4020  -13.1570 H   0  0  0  0  0  0  0  0  0  0  0  0
  -12.4870    6.5750  -11.6680 H   0  0  0  0  0  0  0  0  0  0  0  0
  -12.2680    8.8950  -11.2690 H   0  0  0  0  0  0  0  0  0  0  0  0
  -10.3270    4.8580  -16.1810 H   0  0  0  0  0  0  0  0  0  0  0  0
  -11.0390    4.2480  -18.4530 H   0  0  0  0  0  0  0  0  0  0  0  0
   -9.4370    4.3810  -20.3260 H   0  0  0  0  0  0  0  0  0  0  0  0
   -7.2310    4.8600  -21.1650 H   0  0  0  0  0  0  0  0  0  0  0  0
   -4.9220    5.5950  -20.8350 H   0  0  0  0  0  0  0  0  0  0  0  0
   -4.1300    6.2330  -18.5720 H   0  0  0  0  0  0  0  0  0  0  0  0
   -5.6370    6.1400  -16.6680 H   0  0  0  0  0  0  0  0  0  0  0  0
  1  2  1  0
  2  3  1  0
  3  4  1  0
  4  5  1  0
  5  6  1  0
  3  7  1  0
  7  8  2  0
  8  9  1  0
  9 10  2  0
 10 11  1  0
  9 12  1  0
 12 13  2  0
 13 14  1  0
 14 15  2  0
 15 16  1  0
 16 17  2  0
 17 18  1  0
 18 19  2  0
 19 20  1  0
 20 21  2  0
  6  1  1  0
 11  7  1  0
 21 12  1  0
 21 16  1  0
  1 22  1  0
  1 23  1  0
  2 24  1  0
  2 25  1  0
  3 26  1  0
  4 27  1  0
  4 28  1  0
  5 29  1  0
  5 30  1  0
  6 31  1  0
 13 32  1  0
 14 33  1  0
 15 34  1  0
 17 35  1  0
 18 36  1  0
 19 37  1  0
 20 38  1  0
A    1
 C1 
A    2
 C2 
A    3
 C3 
A    4
 C4 
A    5
 C5 
A    6
 N1 
A    7
 C6 
A    8
 N2 
A    9
 C7 
A   10
 N3 
A   11
 O1 
A   12
 C8 
A   13
 C9 
A   14
 C10
A   15
 C11
A   16
 C12
A   17
 C13
A   18
 C14
A   19
 C15
A   20
 C16
A   21
 C17
A   22
 H1 
A   23
 H2 
A   24
 H3 
A   25
 H4 
A   26
 H5 
A   27
 H6 
A   28
 H7 
A   29
 H8 
A   30
 H9 
A   31
 H10
A   32
 H11
A   33
 H12
A   34
 H13
A   35
 H14
A   36
 H15
A   37
 H16
A   38
 H17
M  END
>  <ref_pdb>  (94) 
x0051_0B

>  <ref_mols>  (94) 
x0429_0B,x0951_0B

>  <original SMILES>  (94) 
[H]c1c([H])c([H])c2c(-c3noc(C4([H])C([H])([H])C([H])([H])N([H])C([H])([H])C4([H])[H])n3)c([H])c([H])c([H])c2c1[H]

>  <index>  (94) 
1121

>  <∆∆G>  (94) 
-7.109814

>  <∆G_bound>  (94) 
-6.527116

>  <∆G_unbound>  (94) 
0.582697

>  <comRMSD>  (94) 
0.974285

>  <N_constrained_atoms>  (94) 
17.0

>  <N_unconstrained_atoms>  (94) 
5.0

>  <runtime>  (94) 
63.033013

>  <LE>  (94) 
0.323173

>  <percent_hybrid>  (94) 
50.0

>  <dist>  (94) 
9.0

>  <ecfp4>  (94) 
0.169014

>  <daylight>  (94) 
0.217391

>  <topodist>  (94) 
4.0

>  <mces>  (94) 
22.0

>  <tdn>  (94) 
0.0

>  <tup>  (94) 
0.0

>  <rdn>  (94) 
1.0

>  <rup>  (94) 
1.0

>  <ldn>  (94) 
1.0

>  <lup>  (94) 
1.0

>  <mut>  (94) 
2.0

>  <maj>  (94) 
2.0

>  <min>  (94) 
0.0

>  <hyb>  (94) 
3.0

>  <sub>  (94) 
2.0

>  <query_index>  (94) 
76.0

>  <max_hit_Tanimoto>  (94) 
0.172031

>  <largest_ring>  (94) 
6

>  <N_interactions_kept>  (94) 
0.0

>  <N_interactions_lost>  (94) 
3.0

>  <interaction_uniqueness_metric>  (94) 
0.139105

>  <ad_hoc_penalty>  (94) 
-14.840549

>  <N_rotatable_bonds>  (94) 
2

>  <N_HA>  (94) 
21

>  <cluster>  (94) 
5190

>  <N_interactions>  (94) 
6

>  <Enamine>  (94) 
1

>  <Mcule>  (94) 
0

>  <N_PAINS>  (94) 
0

>  <UFF_Gibbs>  (94) 
91.203635

>  <strain_per_HA>  (94) 
4.34303

>  <intxn_scored>  (94) 
11.0

>  <saltbridge:HIS:51>  (94) 
0

>  <pistack:HIS:51>  (94) 
0

>  <hydroph_interaction:HIS:51>  (94) 
0

>  <hbond:ALA:132>  (94) 
0

>  <hbond:SER:135>  (94) 
0

>  <hydroph_interaction:TYR:150>  (94) 
1

>  <pistack:TYR:161>  (94) 
2

>  <hydroph_interaction:TYR:161>  (94) 
1

>  <hydroph_interaction:ASP:83>  (94) 
0

>  <hbond:TYR:130>  (94) 
0

>  <hydroph_interaction:ALA:132>  (94) 
1

>  <hbond:HIS:51>  (94) 
1

>  <hbond:ASP:129>  (94) 
0

>  <hbond:TYR:150>  (94) 
0

>  <hbond:GLY:151>  (94) 
0

>  <hbond:TYR:161>  (94) 
0

>  <hydroph_interaction:TYR:130>  (94) 
0

>  <hydroph_interaction:PRO:131>  (94) 
0

>  <hydroph_interaction:ASP:129>  (94) 
0

>  <saltbridge:ASP:75>  (94) 
0

>  <saltbridge:ASP:83>  (94) 
0

>  <hbond:ASN:152>  (94) 
0

>  <hydroph_interaction:ASN:152>  (94) 
0

>  <halogenbond:TYR:150>  (94) 
0

>  <hbond:ASP:83>  (94) 
0

>  <hydroph_interaction:VAL:155>  (94) 
0

>  <pication:TYR:161>  (94) 
0

>  <hbond:PRO:131>  (94) 
0

>  <saltbridge:ASP:129>  (94) 
0

>  <hbond:THR:134>  (94) 
0

>  <pication:HIS:51>  (94) 
0

>  <hbond:SER:81>  (94) 
0

>  <hydroph_interaction:THR:134>  (94) 
0

>  <hydroph_interaction:MET:49>  (94) 
0

$$$$
Z2974226583
     RDKit          3D

 39 42  0  0  0  0  0  0  0  0999 V2000
   -9.7160    4.8560  -17.3720 C   0  0  0  0  0  0  0  0  0  0  0  0
   -8.8400    4.8910  -18.5730 C   0  0  0  0  0  0  0  0  0  0  0  0
   -7.5280    5.1530  -18.2880 N   0  0  0  0  0  0  0  0  0  0  0  0
   -6.3970    5.2790  -19.0460 C   0  0  0  0  0  0  0  0  0  0  0  0
   -5.3310    5.5350  -18.2990 N   0  0  0  0  0  0  0  0  0  0  0  0
   -5.7880    5.5800  -16.9950 C   0  0  0  0  0  0  0  0  0  0  0  0
   -7.1470    5.3480  -16.9850 C   0  0  0  0  0  0  0  0  0  0  0  0
   -8.0030    5.3140  -15.8530 C   0  0  0  0  0  0  0  0  0  0  0  0
   -7.5360    5.5380  -14.5460 N   0  0  0  0  0  0  0  0  0  0  0  0
   -8.3290    6.1020  -13.4240 C   0  0  0  0  0  0  0  0  0  0  0  0
   -8.6930    5.0690  -12.3900 C   0  0  0  0  0  0  0  0  0  0  0  0
   -8.7570    5.3710  -10.8930 C   0  0  0  0  0  0  0  0  0  0  0  0
   -8.9030    4.3760   -9.9420 C   0  0  0  0  0  0  0  0  0  0  0  0
   -9.0050    3.0100  -10.1480 C   0  0  0  0  0  0  0  0  0  0  0  0
   -8.6900    2.2180   -8.9220 C   0  0  0  0  0  0  0  0  0  0  0  0
   -9.4700    2.7560   -7.7300 C   0  0  0  0  0  0  0  0  0  0  0  0
   -9.0770    4.2130   -7.4650 C   0  0  0  0  0  0  0  0  0  0  0  0
   -8.9290    4.9520   -8.7130 N   0  0  0  0  0  0  0  0  0  0  0  0
   -8.8050    6.2910   -8.7710 N   0  0  0  0  0  0  0  0  0  0  0  0
   -8.7010    6.5530  -10.0990 C   0  0  0  0  0  0  0  0  0  0  0  0
   -9.2810    5.0640  -16.0720 N   0  0  0  0  0  0  0  0  0  0  0  0
  -10.7690    4.6500  -17.5750 H   0  0  0  0  0  0  0  0  0  0  0  0
   -9.1580    4.7320  -19.5970 H   0  0  0  0  0  0  0  0  0  0  0  0
   -6.4040    5.1750  -20.1250 H   0  0  0  0  0  0  0  0  0  0  0  0
   -5.1220    5.7730  -16.1640 H   0  0  0  0  0  0  0  0  0  0  0  0
   -6.7980    4.9130  -14.2420 H   0  0  0  0  0  0  0  0  0  0  0  0
   -7.7840    6.9260  -12.9520 H   0  0  0  0  0  0  0  0  0  0  0  0
   -9.2440    6.5380  -13.8440 H   0  0  0  0  0  0  0  0  0  0  0  0
   -9.6760    4.6770  -12.6770 H   0  0  0  0  0  0  0  0  0  0  0  0
   -8.0160    4.2150  -12.5170 H   0  0  0  0  0  0  0  0  0  0  0  0
  -10.0090    2.7480  -10.4970 H   0  0  0  0  0  0  0  0  0  0  0  0
   -8.3080    2.7240  -10.9460 H   0  0  0  0  0  0  0  0  0  0  0  0
   -7.6240    2.2750   -8.7110 H   0  0  0  0  0  0  0  0  0  0  0  0
   -8.9200    1.1730   -9.0640 H   0  0  0  0  0  0  0  0  0  0  0  0
   -9.2570    2.1500   -6.8490 H   0  0  0  0  0  0  0  0  0  0  0  0
  -10.5480    2.6760   -7.9260 H   0  0  0  0  0  0  0  0  0  0  0  0
   -8.1090    4.2630   -6.9550 H   0  0  0  0  0  0  0  0  0  0  0  0
   -9.8330    4.7130   -6.8500 H   0  0  0  0  0  0  0  0  0  0  0  0
   -8.5900    7.5800  -10.4270 H   0  0  0  0  0  0  0  0  0  0  0  0
  1  2  2  0
  2  3  1  0
  3  4  1  0
  4  5  2  0
  5  6  1  0
  6  7  2  0
  7  8  1  0
  8  9  1  0
  9 10  1  0
 10 11  1  0
 11 12  1  0
 12 13  2  0
 13 14  1  0
 14 15  1  0
 15 16  1  0
 16 17  1  0
 17 18  1  0
 18 19  1  0
 19 20  2  0
  8 21  2  0
 21  1  1  0
  7  3  1  0
 20 12  1  0
 18 13  1  0
  1 22  1  0
  2 23  1  0
  4 24  1  0
  6 25  1  0
  9 26  1  0
 10 27  1  0
 10 28  1  0
 11 29  1  0
 11 30  1  0
 14 31  1  0
 14 32  1  0
 15 33  1  0
 15 34  1  0
 16 35  1  0
 16 36  1  0
 17 37  1  0
 17 38  1  0
 20 39  1  0
A    1
 C1 
A    2
 C2 
A    3
 N1 
A    4
 C3 
A    5
 N2 
A    6
 C4 
A    7
 C5 
A    8
 C6 
A    9
 N3 
A   10
 C7 
A   11
 C8 
A   12
 C9 
A   13
 C10
A   14
 C11
A   15
 C12
A   16
 C13
A   17
 C14
A   18
 N4 
A   19
 N5 
A   20
 C15
A   21
 N6 
A   22
 H1 
A   23
 H2 
A   24
 H3 
A   25
 H4 
A   26
 H5 
A   27
 H6 
A   28
 H7 
A   29
 H8 
A   30
 H9 
A   31
 H10
A   32
 H11
A   33
 H12
A   34
 H13
A   35
 H14
A   36
 H15
A   37
 H16
A   38
 H17
A   39
 H18
M  END
>  <ref_pdb>  (95) 
x0051_0B

>  <ref_mols>  (95) 
x0435_0B,x0969_1B

>  <original SMILES>  (95) 
[H]c1nn2c(c1C([H])([H])C([H])([H])N([H])c1nc([H])c([H])n3c([H])nc([H])c13)C([H])([H])C([H])([H])C([H])([H])C2([H])[H]

>  <index>  (95) 
693

>  <∆∆G>  (95) 
-5.237142

>  <∆G_bound>  (95) 
-4.218083

>  <∆G_unbound>  (95) 
1.019059

>  <comRMSD>  (95) 
0.406083

>  <N_constrained_atoms>  (95) 
20.0

>  <N_unconstrained_atoms>  (95) 
2.0

>  <runtime>  (95) 
47.987917

>  <LE>  (95) 
0.238052

>  <percent_hybrid>  (95) 
50.0

>  <dist>  (95) 
5.0

>  <ecfp4>  (95) 
0.24359

>  <daylight>  (95) 
0.268786

>  <topodist>  (95) 
1.0

>  <mces>  (95) 
24.0

>  <tdn>  (95) 
1.0

>  <tup>  (95) 
0.0

>  <rdn>  (95) 
0.0

>  <rup>  (95) 
0.0

>  <ldn>  (95) 
0.0

>  <lup>  (95) 
0.0

>  <mut>  (95) 
4.0

>  <maj>  (95) 
4.0

>  <min>  (95) 
0.0

>  <hyb>  (95) 
0.0

>  <sub>  (95) 
1.0

>  <query_index>  (95) 
311.0

>  <max_hit_Tanimoto>  (95) 
0.302718

>  <largest_ring>  (95) 
6

>  <N_interactions_kept>  (95) 
2.5

>  <N_interactions_lost>  (95) 
1.0

>  <interaction_uniqueness_metric>  (95) 
0.131133

>  <ad_hoc_penalty>  (95) 
-17.268306

>  <N_rotatable_bonds>  (95) 
4

>  <N_HA>  (95) 
21

>  <cluster>  (95) 
5583

>  <N_interactions>  (95) 
4

>  <Enamine>  (95) 
1

>  <Mcule>  (95) 
0

>  <N_PAINS>  (95) 
0

>  <UFF_Gibbs>  (95) 
49.73829

>  <strain_per_HA>  (95) 
2.36849

>  <intxn_scored>  (95) 
11.0

>  <saltbridge:HIS:51>  (95) 
0

>  <pistack:HIS:51>  (95) 
1

>  <hydroph_interaction:HIS:51>  (95) 
0

>  <hbond:ALA:132>  (95) 
0

>  <hbond:SER:135>  (95) 
0

>  <hydroph_interaction:TYR:150>  (95) 
0

>  <pistack:TYR:161>  (95) 
2

>  <hydroph_interaction:TYR:161>  (95) 
0

>  <hydroph_interaction:ASP:83>  (95) 
1

>  <hbond:TYR:130>  (95) 
0

>  <hydroph_interaction:ALA:132>  (95) 
0

>  <hbond:HIS:51>  (95) 
0

>  <hbond:ASP:129>  (95) 
0

>  <hbond:TYR:150>  (95) 
0

>  <hbond:GLY:151>  (95) 
0

>  <hbond:TYR:161>  (95) 
0

>  <hydroph_interaction:TYR:130>  (95) 
0

>  <hydroph_interaction:PRO:131>  (95) 
0

>  <hydroph_interaction:ASP:129>  (95) 
0

>  <saltbridge:ASP:75>  (95) 
0

>  <saltbridge:ASP:83>  (95) 
0

>  <hbond:ASN:152>  (95) 
0

>  <hydroph_interaction:ASN:152>  (95) 
0

>  <halogenbond:TYR:150>  (95) 
0

>  <hbond:ASP:83>  (95) 
0

>  <hydroph_interaction:VAL:155>  (95) 
0

>  <pication:TYR:161>  (95) 
0

>  <hbond:PRO:131>  (95) 
0

>  <saltbridge:ASP:129>  (95) 
0

>  <hbond:THR:134>  (95) 
0

>  <pication:HIS:51>  (95) 
0

>  <hbond:SER:81>  (95) 
0

>  <hydroph_interaction:THR:134>  (95) 
0

>  <hydroph_interaction:MET:49>  (95) 
0

$$$$
CSSS00026735883
     RDKit          3D

 28 30  0  0  0  0  0  0  0  0999 V2000
   -4.7120    5.7090  -20.3060 C   0  0  0  0  0  0  0  0  0  0  0  0
   -6.0290    5.5110  -19.5550 C   0  0  0  0  0  0  0  0  0  0  0  0
   -7.1210    5.0830  -20.1150 N   0  0  0  0  0  0  0  0  0  0  0  0
   -8.0460    5.0510  -19.1160 C   0  0  0  0  0  0  0  0  0  0  0  0
   -9.3690    4.6820  -19.1940 C   0  0  0  0  0  0  0  0  0  0  0  0
  -10.1530    4.7060  -18.0400 C   0  0  0  0  0  0  0  0  0  0  0  0
   -9.6050    5.0940  -16.8200 C   0  0  0  0  0  0  0  0  0  0  0  0
   -8.2670    5.4790  -16.7240 C   0  0  0  0  0  0  0  0  0  0  0  0
   -7.5200    5.4470  -17.9050 C   0  0  0  0  0  0  0  0  0  0  0  0
   -6.2240    5.7490  -18.2180 N   0  0  0  0  0  0  0  0  0  0  0  0
   -5.2450    6.2260  -17.2940 C   0  0  0  0  0  0  0  0  0  0  0  0
   -4.1570    5.2340  -17.1480 C   0  0  0  0  0  0  0  0  0  0  0  0
   -2.8660    5.3840  -17.6390 C   0  0  0  0  0  0  0  0  0  0  0  0
   -2.7920    5.6450  -16.3390 C   0  0  0  0  0  0  0  0  0  0  0  0
   -2.6090    7.3210  -15.8340 Cl  0  0  0  0  0  0  0  0  0  0  0  0
   -2.3610    4.4740  -15.1160 Cl  0  0  0  0  0  0  0  0  0  0  0  0
   -3.8730    5.3080  -19.7280 H   0  0  0  0  0  0  0  0  0  0  0  0
   -4.5170    6.7670  -20.5160 H   0  0  0  0  0  0  0  0  0  0  0  0
   -4.7250    5.1610  -21.2560 H   0  0  0  0  0  0  0  0  0  0  0  0
   -9.7490    4.3890  -20.1490 H   0  0  0  0  0  0  0  0  0  0  0  0
  -11.1970    4.4170  -18.1050 H   0  0  0  0  0  0  0  0  0  0  0  0
  -10.2220    5.1030  -15.9250 H   0  0  0  0  0  0  0  0  0  0  0  0
   -7.8470    5.7870  -15.7740 H   0  0  0  0  0  0  0  0  0  0  0  0
   -4.8830    7.1870  -17.6790 H   0  0  0  0  0  0  0  0  0  0  0  0
   -5.7080    6.4180  -16.3220 H   0  0  0  0  0  0  0  0  0  0  0  0
   -4.5330    4.2470  -16.9650 H   0  0  0  0  0  0  0  0  0  0  0  0
   -2.3880    4.4760  -17.9930 H   0  0  0  0  0  0  0  0  0  0  0  0
   -2.6780    6.2110  -18.3110 H   0  0  0  0  0  0  0  0  0  0  0  0
  1  2  1  0
  2  3  2  0
  3  4  1  0
  4  5  2  0
  5  6  1  0
  6  7  2  0
  7  8  1  0
  8  9  2  0
  9 10  1  0
 10 11  1  0
 11 12  1  0
 12 13  1  0
 13 14  1  0
 14 15  1  0
 14 16  1  0
 10  2  1  0
  9  4  1  0
 14 12  1  0
  1 17  1  0
  1 18  1  0
  1 19  1  0
  5 20  1  0
  6 21  1  0
  7 22  1  0
  8 23  1  0
 11 24  1  0
 11 25  1  0
 12 26  1  0
 13 27  1  0
 13 28  1  0
A    1
 C1 
A    2
 C2 
A    3
 N1 
A    4
 C3 
A    5
 C4 
A    6
 C5 
A    7
 C6 
A    8
 C7 
A    9
 C8 
A   10
 N2 
A   11
 C9 
A   12
 C10
A   13
 C11
A   14
 C12
A   15
CL1 
A   16
CL2 
A   17
 H1 
A   18
 H2 
A   19
 H3 
A   20
 H4 
A   21
 H5 
A   22
 H6 
A   23
 H7 
A   24
 H8 
A   25
 H9 
A   26
 H10
A   27
 H11
A   28
 H12
M  END
>  <ref_pdb>  (96) 
x0051_0B

>  <ref_mols>  (96) 
x0490_0B,x0472_0B

>  <original SMILES>  (96) 
[H]c1c([H])c([H])c2c(nc(C([H])([H])[H])n2C([H])([H])C2([H])C([H])([H])C2(Cl)Cl)c1[H]

>  <index>  (96) 
1185

>  <∆∆G>  (96) 
-5.831871

>  <∆G_bound>  (96) 
-5.749057

>  <∆G_unbound>  (96) 
0.082815

>  <comRMSD>  (96) 
0.794949

>  <N_constrained_atoms>  (96) 
16.0

>  <N_unconstrained_atoms>  (96) 
2.0

>  <runtime>  (96) 
23.233841

>  <LE>  (96) 
0.323993

>  <percent_hybrid>  (96) 
38.0

>  <dist>  (96) 
4.0

>  <ecfp4>  (96) 
0.267857

>  <daylight>  (96) 
0.605505

>  <topodist>  (96) 
3.0

>  <mces>  (96) 
15.0

>  <tdn>  (96) 
0.0

>  <tup>  (96) 
2.0

>  <rdn>  (96) 
0.0

>  <rup>  (96) 
1.0

>  <ldn>  (96) 
0.0

>  <lup>  (96) 
0.0

>  <mut>  (96) 
1.0

>  <maj>  (96) 
1.0

>  <min>  (96) 
0.0

>  <hyb>  (96) 
0.0

>  <sub>  (96) 
3.0

>  <query_index>  (96) 
228.0

>  <max_hit_Tanimoto>  (96) 
0.510604

>  <largest_ring>  (96) 
6

>  <N_interactions_kept>  (96) 
1.0

>  <N_interactions_lost>  (96) 
3.0

>  <interaction_uniqueness_metric>  (96) 
0.102442

>  <ad_hoc_penalty>  (96) 
-14.715568

>  <N_rotatable_bonds>  (96) 
3

>  <N_HA>  (96) 
16

>  <cluster>  (96) 
5129

>  <N_interactions>  (96) 
7

>  <Enamine>  (96) 
1

>  <Mcule>  (96) 
0

>  <N_PAINS>  (96) 
0

>  <UFF_Gibbs>  (96) 
56.63189

>  <strain_per_HA>  (96) 
3.539493

>  <intxn_scored>  (96) 
11.0

>  <saltbridge:HIS:51>  (96) 
0

>  <pistack:HIS:51>  (96) 
0

>  <hydroph_interaction:HIS:51>  (96) 
0

>  <hbond:ALA:132>  (96) 
0

>  <hbond:SER:135>  (96) 
0

>  <hydroph_interaction:TYR:150>  (96) 
1

>  <pistack:TYR:161>  (96) 
2

>  <hydroph_interaction:TYR:161>  (96) 
2

>  <hydroph_interaction:ASP:83>  (96) 
0

>  <hbond:TYR:130>  (96) 
0

>  <hydroph_interaction:ALA:132>  (96) 
1

>  <hbond:HIS:51>  (96) 
0

>  <hbond:ASP:129>  (96) 
0

>  <hbond:TYR:150>  (96) 
0

>  <hbond:GLY:151>  (96) 
0

>  <hbond:TYR:161>  (96) 
0

>  <hydroph_interaction:TYR:130>  (96) 
0

>  <hydroph_interaction:PRO:131>  (96) 
0

>  <hydroph_interaction:ASP:129>  (96) 
0

>  <saltbridge:ASP:75>  (96) 
0

>  <saltbridge:ASP:83>  (96) 
0

>  <hbond:ASN:152>  (96) 
0

>  <hydroph_interaction:ASN:152>  (96) 
0

>  <halogenbond:TYR:150>  (96) 
0

>  <hbond:ASP:83>  (96) 
0

>  <hydroph_interaction:VAL:155>  (96) 
1

>  <pication:TYR:161>  (96) 
0

>  <hbond:PRO:131>  (96) 
0

>  <saltbridge:ASP:129>  (96) 
0

>  <hbond:THR:134>  (96) 
0

>  <pication:HIS:51>  (96) 
0

>  <hbond:SER:81>  (96) 
0

>  <hydroph_interaction:THR:134>  (96) 
0

>  <hydroph_interaction:MET:49>  (96) 
0

$$$$
Z2000180482
     RDKit          3D

 26 27  0  0  0  0  0  0  0  0999 V2000
   -3.8520    5.1940  -15.3730 C   0  0  0  0  0  0  0  0  0  0  0  0
   -4.9970    5.8890  -15.9030 N   0  0  0  0  0  0  0  0  0  0  0  0
   -5.5650    5.6270  -17.1010 C   0  0  0  0  0  0  0  0  0  0  0  0
   -4.6090    5.7380  -18.2170 C   0  0  0  0  0  0  0  0  0  0  0  0
   -5.0330    5.4990  -19.4990 C   0  0  0  0  0  0  0  0  0  0  0  0
   -6.3570    5.1510  -19.7030 C   0  0  0  0  0  0  0  0  0  0  0  0
   -7.3400    5.0170  -18.6930 C   0  0  0  0  0  0  0  0  0  0  0  0
   -6.8900    5.2760  -17.3760 C   0  0  0  0  0  0  0  0  0  0  0  0
   -7.9730    5.1310  -16.3240 C   0  0  0  0  0  0  0  0  0  0  0  0
   -9.3650    4.7950  -16.8120 C   0  0  0  0  0  0  0  0  0  0  0  0
   -9.6920    4.6110  -18.1330 N   0  0  0  0  0  0  0  0  0  0  0  0
  -10.9800    5.0420  -18.5820 C   0  0  0  0  0  0  0  0  0  0  0  0
   -8.7040    4.6220  -19.0960 C   0  0  0  0  0  0  0  0  0  0  0  0
   -8.8920    4.3040  -20.2570 O   0  0  0  0  0  0  0  0  0  0  0  0
   -4.1730    4.5470  -14.5500 H   0  0  0  0  0  0  0  0  0  0  0  0
   -3.3750    4.5880  -16.1530 H   0  0  0  0  0  0  0  0  0  0  0  0
   -3.1190    5.9210  -15.0110 H   0  0  0  0  0  0  0  0  0  0  0  0
   -4.8880    6.8970  -15.8210 H   0  0  0  0  0  0  0  0  0  0  0  0
   -3.5740    6.0130  -17.9750 H   0  0  0  0  0  0  0  0  0  0  0  0
   -4.3760    5.5680  -20.3590 H   0  0  0  0  0  0  0  0  0  0  0  0
   -6.6570    4.9640  -20.7310 H   0  0  0  0  0  0  0  0  0  0  0  0
   -7.8740    5.2440  -15.2350 H   0  0  0  0  0  0  0  0  0  0  0  0
  -10.1010    4.7090  -16.0070 H   0  0  0  0  0  0  0  0  0  0  0  0
  -11.3270    5.8400  -17.9880 H   0  0  0  0  0  0  0  0  0  0  0  0
  -10.8970    5.4060  -19.6030 H   0  0  0  0  0  0  0  0  0  0  0  0
  -11.6920    4.2350  -18.5090 H   0  0  0  0  0  0  0  0  0  0  0  0
  1  2  1  0
  2  3  1  0
  3  4  2  0
  4  5  1  0
  5  6  2  0
  6  7  1  0
  7  8  2  0
  8  9  1  0
  9 10  2  0
 10 11  1  0
 11 12  1  0
 11 13  1  0
 13 14  2  0
  8  3  1  0
 13  7  1  0
  1 15  1  0
  1 16  1  0
  1 17  1  0
  2 18  1  0
  4 19  1  0
  5 20  1  0
  6 21  1  0
  9 22  1  0
 10 23  1  0
 12 24  1  0
 12 25  1  0
 12 26  1  0
A    1
 C1 
A    2
 N1 
A    3
 C2 
A    4
 C3 
A    5
 C4 
A    6
 C5 
A    7
 C6 
A    8
 C7 
A    9
 C8 
A   10
 C9 
A   11
 N2 
A   12
 C10
A   13
 C11
A   14
 O1 
A   15
 H1 
A   16
 H2 
A   17
 H3 
A   18
 H4 
A   19
 H5 
A   20
 H6 
A   21
 H7 
A   22
 H8 
A   23
 H9 
A   24
 H10
A   25
 H11
A   26
 H12
M  END
>  <ref_pdb>  (97) 
x0051_0B

>  <ref_mols>  (97) 
x0727_0B,x0605_0B

>  <original SMILES>  (97) 
[H]c1c([H])c([H])c2c(=O)n(C([H])([H])[H])c([H])c([H])c2c1N([H])C([H])([H])[H]

>  <index>  (97) 
2096

>  <∆∆G>  (97) 
-7.440288

>  <∆G_bound>  (97) 
-7.38901

>  <∆G_unbound>  (97) 
0.051278

>  <comRMSD>  (97) 
0.652147

>  <N_constrained_atoms>  (97) 
13.0

>  <N_unconstrained_atoms>  (97) 
1.0

>  <runtime>  (97) 
25.066646

>  <LE>  (97) 
0.531449

>  <percent_hybrid>  (97) 
20.0

>  <dist>  (97) 
3.0

>  <ecfp4>  (97) 
0.163636

>  <daylight>  (97) 
0.223022

>  <topodist>  (97) 
1.0

>  <mces>  (97) 
14.0

>  <tdn>  (97) 
0.0

>  <tup>  (97) 
1.0

>  <rdn>  (97) 
0.0

>  <rup>  (97) 
0.0

>  <ldn>  (97) 
0.0

>  <lup>  (97) 
0.0

>  <mut>  (97) 
2.0

>  <maj>  (97) 
2.0

>  <min>  (97) 
0.0

>  <hyb>  (97) 
0.0

>  <sub>  (97) 
1.0

>  <query_index>  (97) 
74.0

>  <max_hit_Tanimoto>  (97) 
0.33945

>  <largest_ring>  (97) 
6

>  <N_interactions_kept>  (97) 
1.0

>  <N_interactions_lost>  (97) 
2.5

>  <interaction_uniqueness_metric>  (97) 
0.052249

>  <ad_hoc_penalty>  (97) 
-6.822723

>  <N_rotatable_bonds>  (97) 
3

>  <N_HA>  (97) 
14

>  <cluster>  (97) 
4295

>  <N_interactions>  (97) 
4

>  <Enamine>  (97) 
1

>  <Mcule>  (97) 
0

>  <N_PAINS>  (97) 
0

>  <UFF_Gibbs>  (97) 
69.755872

>  <strain_per_HA>  (97) 
4.982562

>  <intxn_scored>  (97) 
11.0

>  <saltbridge:HIS:51>  (97) 
0

>  <pistack:HIS:51>  (97) 
0

>  <hydroph_interaction:HIS:51>  (97) 
0

>  <hbond:ALA:132>  (97) 
0

>  <hbond:SER:135>  (97) 
0

>  <hydroph_interaction:TYR:150>  (97) 
0

>  <pistack:TYR:161>  (97) 
2

>  <hydroph_interaction:TYR:161>  (97) 
1

>  <hydroph_interaction:ASP:83>  (97) 
0

>  <hbond:TYR:130>  (97) 
1

>  <hydroph_interaction:ALA:132>  (97) 
0

>  <hbond:HIS:51>  (97) 
0

>  <hbond:ASP:129>  (97) 
0

>  <hbond:TYR:150>  (97) 
0

>  <hbond:GLY:151>  (97) 
0

>  <hbond:TYR:161>  (97) 
0

>  <hydroph_interaction:TYR:130>  (97) 
0

>  <hydroph_interaction:PRO:131>  (97) 
0

>  <hydroph_interaction:ASP:129>  (97) 
0

>  <saltbridge:ASP:75>  (97) 
0

>  <saltbridge:ASP:83>  (97) 
0

>  <hbond:ASN:152>  (97) 
0

>  <hydroph_interaction:ASN:152>  (97) 
0

>  <halogenbond:TYR:150>  (97) 
0

>  <hbond:ASP:83>  (97) 
0

>  <hydroph_interaction:VAL:155>  (97) 
0

>  <pication:TYR:161>  (97) 
0

>  <hbond:PRO:131>  (97) 
0

>  <saltbridge:ASP:129>  (97) 
0

>  <hbond:THR:134>  (97) 
0

>  <pication:HIS:51>  (97) 
0

>  <hbond:SER:81>  (97) 
0

>  <hydroph_interaction:THR:134>  (97) 
0

>  <hydroph_interaction:MET:49>  (97) 
0

$$$$
CSSB00000704091
     RDKit          3D

 26 27  0  0  0  0  0  0  0  0999 V2000
   -5.0000    5.9050  -17.3620 C   0  0  0  0  0  0  0  0  0  0  0  0
   -6.2860    5.6680  -16.7530 N   0  0  0  0  0  0  0  0  0  0  0  0
   -6.4620    5.7510  -15.4080 N   0  0  0  0  0  0  0  0  0  0  0  0
   -7.7660    5.4560  -15.2420 C   0  0  0  0  0  0  0  0  0  0  0  0
   -8.4090    5.4240  -13.8790 C   0  0  0  0  0  0  0  0  0  0  0  0
   -9.0170    6.7680  -13.4350 C   0  0  0  0  0  0  0  0  0  0  0  0
  -10.3650    7.0000  -13.9750 N   0  0  0  0  0  0  0  0  0  0  0  0
   -8.3940    5.1920  -16.4810 C   0  0  0  0  0  0  0  0  0  0  0  0
   -9.6810    4.8430  -16.8810 C   0  0  0  0  0  0  0  0  0  0  0  0
   -9.9520    4.6590  -18.2380 C   0  0  0  0  0  0  0  0  0  0  0  0
   -8.9510    4.8170  -19.1870 C   0  0  0  0  0  0  0  0  0  0  0  0
   -7.6550    5.1640  -18.8070 C   0  0  0  0  0  0  0  0  0  0  0  0
   -7.4120    5.3420  -17.4430 C   0  0  0  0  0  0  0  0  0  0  0  0
   -4.6820    6.9240  -17.1290 H   0  0  0  0  0  0  0  0  0  0  0  0
   -5.0800    5.7850  -18.4440 H   0  0  0  0  0  0  0  0  0  0  0  0
   -4.2930    5.1760  -16.9550 H   0  0  0  0  0  0  0  0  0  0  0  0
   -9.2130    4.6770  -13.8890 H   0  0  0  0  0  0  0  0  0  0  0  0
   -7.6800    5.0720  -13.1380 H   0  0  0  0  0  0  0  0  0  0  0  0
   -9.0920    6.7830  -12.3430 H   0  0  0  0  0  0  0  0  0  0  0  0
   -8.3630    7.5970  -13.7300 H   0  0  0  0  0  0  0  0  0  0  0  0
  -11.0540    6.4230  -13.4700 H   0  0  0  0  0  0  0  0  0  0  0  0
  -10.6170    7.9770  -13.7830 H   0  0  0  0  0  0  0  0  0  0  0  0
  -10.4560    4.7180  -16.1420 H   0  0  0  0  0  0  0  0  0  0  0  0
  -10.9580    4.3900  -18.5470 H   0  0  0  0  0  0  0  0  0  0  0  0
   -9.1790    4.6690  -20.2410 H   0  0  0  0  0  0  0  0  0  0  0  0
   -6.8740    5.2860  -19.5500 H   0  0  0  0  0  0  0  0  0  0  0  0
  1  2  1  0
  2  3  1  0
  3  4  2  0
  4  5  1  0
  5  6  1  0
  6  7  1  0
  4  8  1  0
  8  9  2  0
  9 10  1  0
 10 11  2  0
 11 12  1  0
 12 13  2  0
 13  2  1  0
 13  8  1  0
  1 14  1  0
  1 15  1  0
  1 16  1  0
  5 17  1  0
  5 18  1  0
  6 19  1  0
  6 20  1  0
  7 21  1  0
  7 22  1  0
  9 23  1  0
 10 24  1  0
 11 25  1  0
 12 26  1  0
A    1
 C1 
A    2
 N1 
A    3
 N2 
A    4
 C2 
A    5
 C3 
A    6
 C4 
A    7
 N3 
A    8
 C5 
A    9
 C6 
A   10
 C7 
A   11
 C8 
A   12
 C9 
A   13
 C10
A   14
 H1 
A   15
 H2 
A   16
 H3 
A   17
 H4 
A   18
 H5 
A   19
 H6 
A   20
 H7 
A   21
 H8 
A   22
 H9 
A   23
 H10
A   24
 H11
A   25
 H12
A   26
 H13
M  END
>  <ref_pdb>  (98) 
x0051_0B

>  <ref_mols>  (98) 
x0951_0B,x0969_0B

>  <original SMILES>  (98) 
[H]c1c([H])c([H])c2c(c(C([H])([H])C([H])([H])N([H])[H])nn2C([H])([H])[H])c1[H]

>  <index>  (98) 
2258

>  <∆∆G>  (98) 
-7.524226

>  <∆G_bound>  (98) 
-7.538626

>  <∆G_unbound>  (98) 
-0.0144

>  <comRMSD>  (98) 
0.591907

>  <N_constrained_atoms>  (98) 
16.0

>  <N_unconstrained_atoms>  (98) 
0.0

>  <runtime>  (98) 
31.678713

>  <LE>  (98) 
0.470264

>  <percent_hybrid>  (98) 
40.0

>  <dist>  (98) 
4.0

>  <ecfp4>  (98) 
0.245283

>  <daylight>  (98) 
0.349727

>  <topodist>  (98) 
2.0

>  <mces>  (98) 
14.0

>  <tdn>  (98) 
1.0

>  <tup>  (98) 
0.0

>  <rdn>  (98) 
1.0

>  <rup>  (98) 
0.0

>  <ldn>  (98) 
0.0

>  <lup>  (98) 
0.0

>  <mut>  (98) 
2.0

>  <maj>  (98) 
2.0

>  <min>  (98) 
0.0

>  <hyb>  (98) 
0.0

>  <sub>  (98) 
2.0

>  <query_index>  (98) 
121.0

>  <max_hit_Tanimoto>  (98) 
0.227047

>  <largest_ring>  (98) 
6

>  <N_interactions_kept>  (98) 
0.0

>  <N_interactions_lost>  (98) 
3.0

>  <interaction_uniqueness_metric>  (98) 
0.155632

>  <ad_hoc_penalty>  (98) 
-11.178634

>  <N_rotatable_bonds>  (98) 
4

>  <N_HA>  (98) 
13

>  <cluster>  (98) 
4143

>  <N_interactions>  (98) 
5

>  <Enamine>  (98) 
1

>  <Mcule>  (98) 
0

>  <N_PAINS>  (98) 
0

>  <UFF_Gibbs>  (98) 
12.138402

>  <strain_per_HA>  (98) 
0.933723

>  <intxn_scored>  (98) 
10.5

>  <saltbridge:HIS:51>  (98) 
0

>  <pistack:HIS:51>  (98) 
0

>  <hydroph_interaction:HIS:51>  (98) 
0

>  <hbond:ALA:132>  (98) 
0

>  <hbond:SER:135>  (98) 
1

>  <hydroph_interaction:TYR:150>  (98) 
1

>  <pistack:TYR:161>  (98) 
2

>  <hydroph_interaction:TYR:161>  (98) 
0

>  <hydroph_interaction:ASP:83>  (98) 
0

>  <hbond:TYR:130>  (98) 
0

>  <hydroph_interaction:ALA:132>  (98) 
0

>  <hbond:HIS:51>  (98) 
1

>  <hbond:ASP:129>  (98) 
0

>  <hbond:TYR:150>  (98) 
0

>  <hbond:GLY:151>  (98) 
0

>  <hbond:TYR:161>  (98) 
0

>  <hydroph_interaction:TYR:130>  (98) 
0

>  <hydroph_interaction:PRO:131>  (98) 
0

>  <hydroph_interaction:ASP:129>  (98) 
0

>  <saltbridge:ASP:75>  (98) 
0

>  <saltbridge:ASP:83>  (98) 
0

>  <hbond:ASN:152>  (98) 
0

>  <hydroph_interaction:ASN:152>  (98) 
0

>  <halogenbond:TYR:150>  (98) 
0

>  <hbond:ASP:83>  (98) 
0

>  <hydroph_interaction:VAL:155>  (98) 
0

>  <pication:TYR:161>  (98) 
0

>  <hbond:PRO:131>  (98) 
0

>  <saltbridge:ASP:129>  (98) 
0

>  <hbond:THR:134>  (98) 
0

>  <pication:HIS:51>  (98) 
0

>  <hbond:SER:81>  (98) 
0

>  <hydroph_interaction:THR:134>  (98) 
0

>  <hydroph_interaction:MET:49>  (98) 
0

$$$$
Z3559502619
     RDKit          3D

 39 41  0  0  0  0  0  0  0  0999 V2000
   -9.1260    4.7190  -19.4510 C   0  0  0  0  0  0  0  0  0  0  0  0
   -8.5980    4.9810  -18.2510 C   0  0  0  0  0  0  0  0  0  0  0  0
   -9.4130    4.9100  -16.9930 C   0  0  0  0  0  0  0  0  0  0  0  0
   -8.8380    5.1910  -15.7420 C   0  0  0  0  0  0  0  0  0  0  0  0
   -9.5930    5.1390  -14.5360 N   0  0  0  0  0  0  0  0  0  0  0  0
   -9.0830    4.6430  -13.2150 C   0  0  0  0  0  0  0  0  0  0  0  0
   -8.7460    5.7130  -12.3440 C   0  0  0  0  0  0  0  0  0  0  0  0
   -8.8070    5.6540  -10.9090 C   0  0  0  0  0  0  0  0  0  0  0  0
   -8.8820    4.4400  -10.0310 C   0  0  0  0  0  0  0  0  0  0  0  0
   -8.9170    2.9880  -10.1900 C   0  0  0  0  0  0  0  0  0  0  0  0
   -8.7340    2.2620   -9.0490 C   0  0  0  0  0  0  0  0  0  0  0  0
   -9.3170    2.6430   -7.7490 C   0  0  0  0  0  0  0  0  0  0  0  0
   -9.0130    4.1230   -7.4930 C   0  0  0  0  0  0  0  0  0  0  0  0
   -8.9250    4.9330   -8.7440 N   0  0  0  0  0  0  0  0  0  0  0  0
   -8.8800    6.2750   -8.6790 N   0  0  0  0  0  0  0  0  0  0  0  0
   -8.8120    6.7040   -9.9550 C   0  0  0  0  0  0  0  0  0  0  0  0
   -7.4920    5.5240  -15.7770 C   0  0  0  0  0  0  0  0  0  0  0  0
   -6.7940    5.5720  -16.9810 C   0  0  0  0  0  0  0  0  0  0  0  0
   -5.4960    5.9040  -16.9290 F   0  0  0  0  0  0  0  0  0  0  0  0
   -7.2980    5.3160  -18.2050 N   0  0  0  0  0  0  0  0  0  0  0  0
   -9.9790    5.3240  -19.7470 H   0  0  0  0  0  0  0  0  0  0  0  0
   -8.4140    4.6380  -20.2650 H   0  0  0  0  0  0  0  0  0  0  0  0
   -9.5270    3.7100  -19.3480 H   0  0  0  0  0  0  0  0  0  0  0  0
  -10.4600    4.6320  -17.1310 H   0  0  0  0  0  0  0  0  0  0  0  0
  -10.5550    4.8630  -14.7180 H   0  0  0  0  0  0  0  0  0  0  0  0
   -9.8350    3.9420  -12.8610 H   0  0  0  0  0  0  0  0  0  0  0  0
   -8.2050    4.0020  -13.3810 H   0  0  0  0  0  0  0  0  0  0  0  0
   -7.7190    6.0080  -12.6010 H   0  0  0  0  0  0  0  0  0  0  0  0
   -9.3440    6.5810  -12.6420 H   0  0  0  0  0  0  0  0  0  0  0  0
   -8.1290    2.7140  -10.9010 H   0  0  0  0  0  0  0  0  0  0  0  0
   -9.8640    2.6870  -10.6510 H   0  0  0  0  0  0  0  0  0  0  0  0
   -7.6550    2.3150   -8.8760 H   0  0  0  0  0  0  0  0  0  0  0  0
   -8.8950    1.2130   -9.1390 H   0  0  0  0  0  0  0  0  0  0  0  0
  -10.3980    2.4620   -7.7340 H   0  0  0  0  0  0  0  0  0  0  0  0
   -8.8700    2.0330   -6.9590 H   0  0  0  0  0  0  0  0  0  0  0  0
   -9.7860    4.5670   -6.8580 H   0  0  0  0  0  0  0  0  0  0  0  0
   -8.0450    4.2300   -6.9900 H   0  0  0  0  0  0  0  0  0  0  0  0
   -8.7680    7.7700  -10.1380 H   0  0  0  0  0  0  0  0  0  0  0  0
   -6.9390    5.7580  -14.8780 H   0  0  0  0  0  0  0  0  0  0  0  0
  1  2  1  0
  2  3  2  0
  3  4  1  0
  4  5  1  0
  5  6  1  0
  6  7  1  0
  7  8  1  0
  8  9  2  0
  9 10  1  0
 10 11  1  0
 11 12  1  0
 12 13  1  0
 13 14  1  0
 14 15  1  0
 15 16  2  0
  4 17  2  0
 17 18  1  0
 18 19  1  0
 18 20  2  0
 20  2  1  0
 16  8  1  0
 14  9  1  0
  1 21  1  0
  1 22  1  0
  1 23  1  0
  3 24  1  0
  5 25  1  0
  6 26  1  0
  6 27  1  0
  7 28  1  0
  7 29  1  0
 10 30  1  0
 10 31  1  0
 11 32  1  0
 11 33  1  0
 12 34  1  0
 12 35  1  0
 13 36  1  0
 13 37  1  0
 16 38  1  0
 17 39  1  0
A    1
 C1 
A    2
 C2 
A    3
 C3 
A    4
 C4 
A    5
 N1 
A    6
 C5 
A    7
 C6 
A    8
 C7 
A    9
 C8 
A   10
 C9 
A   11
 C10
A   12
 C11
A   13
 C12
A   14
 N2 
A   15
 N3 
A   16
 C13
A   17
 C14
A   18
 C15
A   19
 F1 
A   20
 N4 
A   21
 H1 
A   22
 H2 
A   23
 H3 
A   24
 H4 
A   25
 H5 
A   26
 H6 
A   27
 H7 
A   28
 H8 
A   29
 H9 
A   30
 H10
A   31
 H11
A   32
 H12
A   33
 H13
A   34
 H14
A   35
 H15
A   36
 H16
A   37
 H17
A   38
 H18
A   39
 H19
M  END
>  <ref_pdb>  (99) 
x0051_0B

>  <ref_mols>  (99) 
x0589_0B,x0969_1B

>  <original SMILES>  (99) 
[H]c1nn2c(c1C([H])([H])C([H])([H])N([H])c1c([H])c(F)nc(C([H])([H])[H])c1[H])C([H])([H])C([H])([H])C([H])([H])C2([H])[H]

>  <index>  (99) 
80

>  <∆∆G>  (99) 
-7.116332

>  <∆G_bound>  (99) 
-6.782741

>  <∆G_unbound>  (99) 
0.333591

>  <comRMSD>  (99) 
0.698714

>  <N_constrained_atoms>  (99) 
17.0

>  <N_unconstrained_atoms>  (99) 
4.0

>  <runtime>  (99) 
46.686468

>  <LE>  (99) 
0.338873

>  <percent_hybrid>  (99) 
42.0

>  <dist>  (99) 
4.0

>  <ecfp4>  (99) 
0.310811

>  <daylight>  (99) 
0.265734

>  <topodist>  (99) 
0.0

>  <mces>  (99) 
22.0

>  <tdn>  (99) 
0.0

>  <tup>  (99) 
0.0

>  <rdn>  (99) 
0.0

>  <rup>  (99) 
0.0

>  <ldn>  (99) 
0.0

>  <lup>  (99) 
0.0

>  <mut>  (99) 
4.0

>  <maj>  (99) 
3.0

>  <min>  (99) 
1.0

>  <hyb>  (99) 
0.0

>  <sub>  (99) 
0.0

>  <query_index>  (99) 
379.0

>  <max_hit_Tanimoto>  (99) 
0.332629

>  <largest_ring>  (99) 
0

>  <N_interactions_kept>  (99) 
1.5

>  <N_interactions_lost>  (99) 
1.0

>  <interaction_uniqueness_metric>  (99) 
0.218358

>  <ad_hoc_penalty>  (99) 
-32.844165

>  <N_rotatable_bonds>  (99) 
5

>  <N_HA>  (99) 
20

>  <cluster>  (99) 
6144

>  <N_interactions>  (99) 
7

>  <Enamine>  (99) 
1

>  <Mcule>  (99) 
0

>  <N_PAINS>  (99) 
0

>  <UFF_Gibbs>  (99) 
92.092294

>  <strain_per_HA>  (99) 
4.604615

>  <intxn_scored>  (99) 
10.5

>  <saltbridge:HIS:51>  (99) 
0

>  <pistack:HIS:51>  (99) 
1

>  <hydroph_interaction:HIS:51>  (99) 
0

>  <hbond:ALA:132>  (99) 
0

>  <hbond:SER:135>  (99) 
2

>  <hydroph_interaction:TYR:150>  (99) 
1

>  <pistack:TYR:161>  (99) 
1

>  <hydroph_interaction:TYR:161>  (99) 
1

>  <hydroph_interaction:ASP:83>  (99) 
1

>  <hbond:TYR:130>  (99) 
0

>  <hydroph_interaction:ALA:132>  (99) 
0

>  <hbond:HIS:51>  (99) 
0

>  <hbond:ASP:129>  (99) 
0

>  <hbond:TYR:150>  (99) 
0

>  <hbond:GLY:151>  (99) 
0

>  <hbond:TYR:161>  (99) 
0

>  <hydroph_interaction:TYR:130>  (99) 
0

>  <hydroph_interaction:PRO:131>  (99) 
0

>  <hydroph_interaction:ASP:129>  (99) 
0

>  <saltbridge:ASP:75>  (99) 
0

>  <saltbridge:ASP:83>  (99) 
0

>  <hbond:ASN:152>  (99) 
0

>  <hydroph_interaction:ASN:152>  (99) 
0

>  <halogenbond:TYR:150>  (99) 
0

>  <hbond:ASP:83>  (99) 
0

>  <hydroph_interaction:VAL:155>  (99) 
0

>  <pication:TYR:161>  (99) 
0

>  <hbond:PRO:131>  (99) 
0

>  <saltbridge:ASP:129>  (99) 
0

>  <hbond:THR:134>  (99) 
0

>  <pication:HIS:51>  (99) 
0

>  <hbond:SER:81>  (99) 
0

>  <hydroph_interaction:THR:134>  (99) 
0

>  <hydroph_interaction:MET:49>  (99) 
0

$$$$
Z4211193669
     RDKit          3D

 49 51  0  0  0  0  0  0  0  0999 V2000
   -8.6120    5.3130   -7.4020 C   0  0  0  0  0  0  0  0  0  0  0  0
   -8.9010    4.1650   -6.4730 C   0  0  0  0  0  0  0  0  0  0  0  0
   -8.5520    2.9460   -7.0710 C   0  0  0  0  0  0  0  0  0  0  0  0
   -9.3660    2.4420   -8.0670 C   0  0  0  0  0  0  0  0  0  0  0  0
   -9.0160    2.8130   -9.3430 C   0  0  0  0  0  0  0  0  0  0  0  0
   -8.5410    3.9460   -9.3470 O   0  0  0  0  0  0  0  0  0  0  0  0
   -8.7780    4.7040  -10.4350 C   0  0  0  0  0  0  0  0  0  0  0  0
   -8.7890    6.1080  -10.2570 C   0  0  0  0  0  0  0  0  0  0  0  0
   -9.0560    6.9500  -11.4090 C   0  0  0  0  0  0  0  0  0  0  0  0
   -9.2870    6.3270  -12.6270 C   0  0  0  0  0  0  0  0  0  0  0  0
   -9.6350    7.2800  -14.0610 S   0  0  0  0  0  6  0  0  0  0  0  0
   -8.5070    8.1810  -14.2100 O   0  0  0  0  0  0  0  0  0  0  0  0
  -10.9810    7.7950  -13.9610 O   0  0  0  0  0  0  0  0  0  0  0  0
   -9.5950    6.0470  -15.2180 N   0  0  0  0  0  0  0  0  0  0  0  0
   -8.4240    5.9950  -15.9290 C   0  0  0  0  0  0  0  0  0  0  0  0
   -8.0660    5.4730  -17.1830 C   0  0  0  0  0  0  0  0  0  0  0  0
   -8.7280    4.7820  -18.2090 C   0  0  0  0  0  0  0  0  0  0  0  0
   -8.0660    4.6890  -19.4620 C   0  0  0  0  0  0  0  0  0  0  0  0
   -6.8390    5.3560  -19.6970 N   0  0  0  0  0  0  0  0  0  0  0  0
   -5.8640    5.4670  -18.5930 C   0  0  0  0  0  0  0  0  0  0  0  0
   -6.6050    5.8240  -17.3340 C   0  0  0  0  0  0  0  0  0  0  0  0
   -6.1460    6.5050  -16.1600 N   0  0  0  0  0  0  0  0  0  0  0  0
   -7.2590    6.5570  -15.4160 N   0  0  0  0  0  0  0  0  0  0  0  0
   -9.2760    4.9690  -12.8310 C   0  0  0  0  0  0  0  0  0  0  0  0
   -9.0010    4.0990  -11.6460 C   0  0  0  0  0  0  0  0  0  0  0  0
   -9.3320    5.3400   -8.2210 H   0  0  0  0  0  0  0  0  0  0  0  0
   -8.6330    6.2480   -6.8300 H   0  0  0  0  0  0  0  0  0  0  0  0
   -7.6040    5.2090   -7.8210 H   0  0  0  0  0  0  0  0  0  0  0  0
   -8.5930    4.5170   -5.5000 H   0  0  0  0  0  0  0  0  0  0  0  0
   -9.9930    4.1220   -6.4040 H   0  0  0  0  0  0  0  0  0  0  0  0
   -7.5580    3.0890   -7.5140 H   0  0  0  0  0  0  0  0  0  0  0  0
   -8.4090    2.1920   -6.2980 H   0  0  0  0  0  0  0  0  0  0  0  0
   -9.3440    1.3580   -8.0030 H   0  0  0  0  0  0  0  0  0  0  0  0
  -10.4020    2.7510   -7.8620 H   0  0  0  0  0  0  0  0  0  0  0  0
   -9.8450    2.6970  -10.0570 H   0  0  0  0  0  0  0  0  0  0  0  0
   -8.2160    2.1360   -9.6930 H   0  0  0  0  0  0  0  0  0  0  0  0
   -8.6040    6.5500   -9.2830 H   0  0  0  0  0  0  0  0  0  0  0  0
   -9.0740    8.0280  -11.3030 H   0  0  0  0  0  0  0  0  0  0  0  0
  -10.4420    6.0130  -15.7620 H   0  0  0  0  0  0  0  0  0  0  0  0
   -9.7060    5.2470  -18.3640 H   0  0  0  0  0  0  0  0  0  0  0  0
   -8.9320    3.7550  -17.8630 H   0  0  0  0  0  0  0  0  0  0  0  0
   -7.9140    3.6240  -19.6870 H   0  0  0  0  0  0  0  0  0  0  0  0
   -8.7820    5.0220  -20.2220 H   0  0  0  0  0  0  0  0  0  0  0  0
   -7.0090    6.2800  -20.0760 H   0  0  0  0  0  0  0  0  0  0  0  0
   -5.1490    6.2530  -18.8330 H   0  0  0  0  0  0  0  0  0  0  0  0
   -5.3140    4.5480  -18.4680 H   0  0  0  0  0  0  0  0  0  0  0  0
   -7.1760    7.0220  -14.5060 H   0  0  0  0  0  0  0  0  0  0  0  0
   -9.4620    4.5300  -13.8130 H   0  0  0  0  0  0  0  0  0  0  0  0
   -8.9900    3.0230  -11.7770 H   0  0  0  0  0  0  0  0  0  0  0  0
  1  2  1  0
  2  3  1  0
  3  4  1  0
  4  5  1  0
  5  6  1  0
  6  7  1  0
  7  8  2  0
  8  9  1  0
  9 10  2  0
 10 11  1  0
 11 12  2  0
 11 13  2  0
 11 14  1  0
 14 15  1  0
 15 16  2  0
 16 17  1  0
 17 18  1  0
 18 19  1  0
 19 20  1  0
 20 21  1  0
 21 22  2  0
 22 23  1  0
 10 24  1  0
 24 25  2  0
 25  7  1  0
 23 15  1  0
 21 16  1  0
  1 26  1  0
  1 27  1  0
  1 28  1  0
  2 29  1  0
  2 30  1  0
  3 31  1  0
  3 32  1  0
  4 33  1  0
  4 34  1  0
  5 35  1  0
  5 36  1  0
  8 37  1  0
  9 38  1  0
 14 39  1  0
 17 40  1  0
 17 41  1  0
 18 42  1  0
 18 43  1  0
 19 44  1  0
 20 45  1  0
 20 46  1  0
 23 47  1  0
 24 48  1  0
 25 49  1  0
A    1
 C1 
A    2
 C2 
A    3
 C3 
A    4
 C4 
A    5
 C5 
A    6
 O1 
A    7
 C6 
A    8
 C7 
A    9
 C8 
A   10
 C9 
A   11
 S1 
A   12
 O2 
A   13
 O3 
A   14
 N1 
A   15
 C10
A   16
 C11
A   17
 C12
A   18
 C13
A   19
 N2 
A   20
 C14
A   21
 C15
A   22
 N3 
A   23
 N4 
A   24
 C16
A   25
 C17
A   26
 H1 
A   27
 H2 
A   28
 H3 
A   29
 H4 
A   30
 H5 
A   31
 H6 
A   32
 H7 
A   33
 H8 
A   34
 H9 
A   35
 H10
A   36
 H11
A   37
 H12
A   38
 H13
A   39
 H14
A   40
 H15
A   41
 H16
A   42
 H17
A   43
 H18
A   44
 H19
A   45
 H20
A   46
 H21
A   47
 H22
A   48
 H23
A   49
 H24
M  END
>  <ref_pdb>  (100) 
x0051_0B

>  <ref_mols>  (100) 
x0969_0B,x0404_0B

>  <original SMILES>  (100) 
[H]c1c([H])c(S(=O)(=O)N([H])c2c3c(nn2[H])C([H])([H])N([H])C([H])([H])C3([H])[H])c([H])c([H])c1OC([H])([H])C([H])([H])C([H])([H])C([H])([H])C([H])([H])[H]

>  <index>  (100) 
1308

>  <∆∆G>  (100) 
-6.87406

>  <∆G_bound>  (100) 
-6.090631

>  <∆G_unbound>  (100) 
0.78343

>  <comRMSD>  (100) 
0.960428

>  <N_constrained_atoms>  (100) 
26.0

>  <N_unconstrained_atoms>  (100) 
0.0

>  <runtime>  (100) 
83.808399

>  <LE>  (100) 
0.264387

>  <percent_hybrid>  (100) 
39.0

>  <dist>  (100) 
9.0

>  <ecfp4>  (100) 
0.238095

>  <daylight>  (100) 
0.233429

>  <topodist>  (100) 
2.0

>  <mces>  (100) 
27.0

>  <tdn>  (100) 
1.0

>  <tup>  (100) 
0.0

>  <rdn>  (100) 
1.0

>  <rup>  (100) 
0.0

>  <ldn>  (100) 
0.0

>  <lup>  (100) 
0.0

>  <mut>  (100) 
6.0

>  <maj>  (100) 
6.0

>  <min>  (100) 
0.0

>  <hyb>  (100) 
1.0

>  <sub>  (100) 
1.0

>  <query_index>  (100) 
33.0

>  <max_hit_Tanimoto>  (100) 
0.272562

>  <largest_ring>  (100) 
6

>  <N_interactions_kept>  (100) 
2.0

>  <N_interactions_lost>  (100) 
2.0

>  <interaction_uniqueness_metric>  (100) 
0.218865

>  <ad_hoc_penalty>  (100) 
-5.615546

>  <N_rotatable_bonds>  (100) 
9

>  <N_HA>  (100) 
25

>  <cluster>  (100) 
5018

>  <N_interactions>  (100) 
7

>  <Enamine>  (100) 
1

>  <Mcule>  (100) 
0

>  <N_PAINS>  (100) 
0

>  <UFF_Gibbs>  (100) 
321.412651

>  <strain_per_HA>  (100) 
12.856506

>  <intxn_scored>  (100) 
10.5

>  <saltbridge:HIS:51>  (100) 
0

>  <pistack:HIS:51>  (100) 
1

>  <hydroph_interaction:HIS:51>  (100) 
0

>  <hbond:ALA:132>  (100) 
0

>  <hbond:SER:135>  (100) 
0

>  <hydroph_interaction:TYR:150>  (100) 
0

>  <pistack:TYR:161>  (100) 
1

>  <hydroph_interaction:TYR:161>  (100) 
1

>  <hydroph_interaction:ASP:83>  (100) 
1

>  <hbond:TYR:130>  (100) 
1

>  <hydroph_interaction:ALA:132>  (100) 
1

>  <hbond:HIS:51>  (100) 
0

>  <hbond:ASP:129>  (100) 
0

>  <hbond:TYR:150>  (100) 
0

>  <hbond:GLY:151>  (100) 
1

>  <hbond:TYR:161>  (100) 
0

>  <hydroph_interaction:TYR:130>  (100) 
0

>  <hydroph_interaction:PRO:131>  (100) 
0

>  <hydroph_interaction:ASP:129>  (100) 
0

>  <saltbridge:ASP:75>  (100) 
0

>  <saltbridge:ASP:83>  (100) 
0

>  <hbond:ASN:152>  (100) 
0

>  <hydroph_interaction:ASN:152>  (100) 
0

>  <halogenbond:TYR:150>  (100) 
0

>  <hbond:ASP:83>  (100) 
0

>  <hydroph_interaction:VAL:155>  (100) 
0

>  <pication:TYR:161>  (100) 
0

>  <hbond:PRO:131>  (100) 
0

>  <saltbridge:ASP:129>  (100) 
0

>  <hbond:THR:134>  (100) 
0

>  <pication:HIS:51>  (100) 
0

>  <hbond:SER:81>  (100) 
0

>  <hydroph_interaction:THR:134>  (100) 
0

>  <hydroph_interaction:MET:49>  (100) 
0

$$$$
Z5418899090
     RDKit          3D

 47 50  0  0  0  0  0  0  0  0999 V2000
   -5.1570    5.4790  -16.8030 C   0  0  0  0  0  0  0  0  0  0  0  0
   -6.1280    5.7470  -17.7370 N   0  0  0  0  0  0  0  0  0  0  0  0
   -5.8360    5.4150  -19.1160 C   0  0  0  0  0  0  0  0  0  0  0  0
   -4.7630    5.4840  -19.6920 O   0  0  0  0  0  0  0  0  0  0  0  0
   -7.0160    4.9790  -19.6910 N   0  0  0  0  0  0  0  0  0  0  0  0
   -8.0170    5.0380  -18.7440 C   0  0  0  0  0  0  0  0  0  0  0  0
   -9.3380    4.6770  -18.9350 C   0  0  0  0  0  0  0  0  0  0  0  0
  -10.2620    4.8160  -17.7810 C   0  0  0  0  0  0  0  0  0  0  0  0
   -9.6840    5.3270  -16.5970 C   0  0  0  0  0  0  0  0  0  0  0  0
   -8.3540    5.7060  -16.4000 C   0  0  0  0  0  0  0  0  0  0  0  0
   -7.8760    6.2410  -15.1630 N   0  0  0  0  0  0  0  0  0  0  0  0
   -8.4880    7.0500  -14.1750 C   0  0  0  0  0  0  0  0  0  0  0  0
   -8.8750    8.2160  -14.2100 O   0  0  0  0  0  0  0  0  0  0  0  0
   -8.6200    6.3280  -12.8550 C   0  0  0  0  0  0  0  0  0  0  0  0
   -8.5060    7.1900  -11.5890 C   0  0  0  0  0  0  0  0  0  0  0  0
   -8.6300    6.3830  -10.2990 C   0  0  0  0  0  0  0  0  0  0  0  0
   -8.8440    4.8780  -10.3060 C   0  0  0  0  0  0  0  0  0  0  0  0
   -8.9490    4.2230   -8.9510 C   0  0  0  0  0  0  0  0  0  0  0  0
   -7.8670    4.5250   -7.9420 C   0  0  0  0  0  0  0  0  0  0  0  0
   -8.3000    4.0030   -6.7110 C   0  0  0  0  0  0  0  0  0  0  0  0
   -8.6750    2.6230   -6.7880 O   0  0  0  0  0  0  0  0  0  0  0  0
   -9.6610    2.3440   -7.7830 C   0  0  0  0  0  0  0  0  0  0  0  0
   -9.1890    2.7240   -9.0350 C   0  0  0  0  0  0  0  0  0  0  0  0
   -8.9380    4.2030  -11.5210 C   0  0  0  0  0  0  0  0  0  0  0  0
   -8.8240    4.9550  -12.8240 C   0  0  0  0  0  0  0  0  0  0  0  0
   -7.5100    5.5280  -17.5230 C   0  0  0  0  0  0  0  0  0  0  0  0
   -4.7830    6.4160  -16.3810 H   0  0  0  0  0  0  0  0  0  0  0  0
   -5.5870    4.8770  -15.9960 H   0  0  0  0  0  0  0  0  0  0  0  0
   -4.3300    4.9240  -17.2580 H   0  0  0  0  0  0  0  0  0  0  0  0
   -7.0850    4.6360  -20.6340 H   0  0  0  0  0  0  0  0  0  0  0  0
   -9.6520    4.3090  -19.9000 H   0  0  0  0  0  0  0  0  0  0  0  0
  -11.3220    4.5770  -17.7530 H   0  0  0  0  0  0  0  0  0  0  0  0
  -10.3330    5.4530  -15.7230 H   0  0  0  0  0  0  0  0  0  0  0  0
   -6.9750    5.8860  -14.8920 H   0  0  0  0  0  0  0  0  0  0  0  0
   -8.3480    8.2640  -11.5910 H   0  0  0  0  0  0  0  0  0  0  0  0
   -8.5760    6.7970   -9.2890 H   0  0  0  0  0  0  0  0  0  0  0  0
   -9.8280    4.6320   -8.4820 H   0  0  0  0  0  0  0  0  0  0  0  0
   -7.6580    5.5980   -7.8540 H   0  0  0  0  0  0  0  0  0  0  0  0
   -6.9230    4.0380   -8.2250 H   0  0  0  0  0  0  0  0  0  0  0  0
   -7.4950    4.0680   -5.9730 H   0  0  0  0  0  0  0  0  0  0  0  0
   -9.1460    4.5800   -6.3200 H   0  0  0  0  0  0  0  0  0  0  0  0
   -9.9020    1.2850   -7.7700 H   0  0  0  0  0  0  0  0  0  0  0  0
  -10.5870    2.8850   -7.5500 H   0  0  0  0  0  0  0  0  0  0  0  0
   -9.8250    2.5460   -9.9010 H   0  0  0  0  0  0  0  0  0  0  0  0
   -8.2660    2.1600   -9.2350 H   0  0  0  0  0  0  0  0  0  0  0  0
   -9.0970    3.1210  -11.6330 H   0  0  0  0  0  0  0  0  0  0  0  0
   -8.9140    4.3130  -13.7130 H   0  0  0  0  0  0  0  0  0  0  0  0
  1  2  1  0
  2  3  1  0
  3  4  2  0
  3  5  1  0
  5  6  1  0
  6  7  2  0
  7  8  1  0
  8  9  2  0
  9 10  1  0
 10 11  1  0
 11 12  1  0
 12 13  2  0
 12 14  1  0
 14 15  2  0
 15 16  1  0
 16 17  2  0
 17 18  1  0
 18 19  1  0
 19 20  1  0
 20 21  1  0
 21 22  1  0
 22 23  1  0
 17 24  1  0
 24 25  2  0
 10 26  2  0
 26  2  1  0
 26  6  1  0
 25 14  1  0
 23 18  1  0
  1 27  1  0
  1 28  1  0
  1 29  1  0
  5 30  1  0
  7 31  1  0
  8 32  1  0
  9 33  1  0
 11 34  1  0
 15 35  1  0
 16 36  1  0
 18 37  1  0
 19 38  1  0
 19 39  1  0
 20 40  1  0
 20 41  1  0
 22 42  1  0
 22 43  1  0
 23 44  1  0
 23 45  1  0
 24 46  1  0
 25 47  1  0
A    1
 C1 
A    2
 N1 
A    3
 C2 
A    4
 O1 
A    5
 N2 
A    6
 C3 
A    7
 C4 
A    8
 C5 
A    9
 C6 
A   10
 C7 
A   11
 N3 
A   12
 C8 
A   13
 O2 
A   14
 C9 
A   15
 C10
A   16
 C11
A   17
 C12
A   18
 C13
A   19
 C14
A   20
 C15
A   21
 O3 
A   22
 C16
A   23
 C17
A   24
 C18
A   25
 C19
A   26
 C20
A   27
 H1 
A   28
 H2 
A   29
 H3 
A   30
 H4 
A   31
 H5 
A   32
 H6 
A   33
 H7 
A   34
 H8 
A   35
 H9 
A   36
 H10
A   37
 H11
A   38
 H12
A   39
 H13
A   40
 H14
A   41
 H15
A   42
 H16
A   43
 H17
A   44
 H18
A   45
 H19
A   46
 H20
A   47
 H21
M  END
>  <ref_pdb>  (101) 
x0051_0B

>  <ref_mols>  (101) 
x0443_0B,x0404_0B

>  <original SMILES>  (101) 
[H]c1c([H])c(C2([H])C([H])([H])C([H])([H])OC([H])([H])C2([H])[H])c([H])c([H])c1C(=O)N([H])c1c([H])c([H])c([H])c2c1n(C([H])([H])[H])c(=O)n2[H]

>  <index>  (101) 
980

>  <∆∆G>  (101) 
-7.951969

>  <∆G_bound>  (101) 
-7.905875

>  <∆G_unbound>  (101) 
0.046095

>  <comRMSD>  (101) 
0.527124

>  <N_constrained_atoms>  (101) 
26.0

>  <N_unconstrained_atoms>  (101) 
0.0

>  <runtime>  (101) 
62.711802

>  <LE>  (101) 
0.305845

>  <percent_hybrid>  (101) 
43.0

>  <dist>  (101) 
8.0

>  <ecfp4>  (101) 
0.188235

>  <daylight>  (101) 
0.140288

>  <topodist>  (101) 
2.0

>  <mces>  (101) 
29.0

>  <tdn>  (101) 
1.0

>  <tup>  (101) 
0.0

>  <rdn>  (101) 
0.0

>  <rup>  (101) 
0.0

>  <ldn>  (101) 
1.0

>  <lup>  (101) 
0.0

>  <mut>  (101) 
4.0

>  <maj>  (101) 
4.0

>  <min>  (101) 
0.0

>  <hyb>  (101) 
2.0

>  <sub>  (101) 
0.0

>  <query_index>  (101) 
13.0

>  <max_hit_Tanimoto>  (101) 
0.310521

>  <largest_ring>  (101) 
6

>  <N_interactions_kept>  (101) 
1.0

>  <N_interactions_lost>  (101) 
3.5

>  <interaction_uniqueness_metric>  (101) 
0.150095

>  <ad_hoc_penalty>  (101) 
-14.749545

>  <N_rotatable_bonds>  (101) 
4

>  <N_HA>  (101) 
26

>  <cluster>  (101) 
5320

>  <N_interactions>  (101) 
7

>  <Enamine>  (101) 
1

>  <Mcule>  (101) 
0

>  <N_PAINS>  (101) 
0

>  <UFF_Gibbs>  (101) 
146.088334

>  <strain_per_HA>  (101) 
5.618782

>  <intxn_scored>  (101) 
10.5

>  <saltbridge:HIS:51>  (101) 
0

>  <pistack:HIS:51>  (101) 
1

>  <hydroph_interaction:HIS:51>  (101) 
1

>  <hbond:ALA:132>  (101) 
0

>  <hbond:SER:135>  (101) 
0

>  <hydroph_interaction:TYR:150>  (101) 
1

>  <pistack:TYR:161>  (101) 
1

>  <hydroph_interaction:TYR:161>  (101) 
1

>  <hydroph_interaction:ASP:83>  (101) 
0

>  <hbond:TYR:130>  (101) 
1

>  <hydroph_interaction:ALA:132>  (101) 
1

>  <hbond:HIS:51>  (101) 
0

>  <hbond:ASP:129>  (101) 
0

>  <hbond:TYR:150>  (101) 
0

>  <hbond:GLY:151>  (101) 
0

>  <hbond:TYR:161>  (101) 
0

>  <hydroph_interaction:TYR:130>  (101) 
0

>  <hydroph_interaction:PRO:131>  (101) 
0

>  <hydroph_interaction:ASP:129>  (101) 
0

>  <saltbridge:ASP:75>  (101) 
0

>  <saltbridge:ASP:83>  (101) 
0

>  <hbond:ASN:152>  (101) 
0

>  <hydroph_interaction:ASN:152>  (101) 
0

>  <halogenbond:TYR:150>  (101) 
0

>  <hbond:ASP:83>  (101) 
0

>  <hydroph_interaction:VAL:155>  (101) 
0

>  <pication:TYR:161>  (101) 
0

>  <hbond:PRO:131>  (101) 
0

>  <saltbridge:ASP:129>  (101) 
0

>  <hbond:THR:134>  (101) 
0

>  <pication:HIS:51>  (101) 
0

>  <hbond:SER:81>  (101) 
0

>  <hydroph_interaction:THR:134>  (101) 
0

>  <hydroph_interaction:MET:49>  (101) 
0

$$$$
Z5578365196
     RDKit          3D

 44 47  0  0  0  0  0  0  0  0999 V2000
   -9.8750    4.7840  -18.5800 C   0  0  0  0  0  0  0  0  0  0  0  0
   -9.0210    4.9900  -17.3780 C   0  0  0  0  0  0  0  0  0  0  0  0
   -9.5380    4.7700  -16.1700 N   0  0  0  0  0  0  0  0  0  0  0  0
   -8.5350    5.0150  -15.3080 N   0  0  0  0  0  0  0  0  0  0  0  0
   -8.8060    4.8140  -13.8850 C   0  0  0  0  0  0  0  0  0  0  0  0
   -8.0700    5.6730  -12.8850 C   0  0  0  0  0  0  0  0  0  0  0  0
   -6.8710    5.9430  -12.9990 O   0  0  0  0  0  0  0  0  0  0  0  0
   -8.9200    6.0890  -11.8730 N   0  0  0  0  0  0  0  0  0  0  0  0
   -8.8740    5.8350  -10.4980 C   0  0  0  0  0  0  0  0  0  0  0  0
   -8.9600    4.6050   -9.8570 C   0  0  0  0  0  0  0  0  0  0  0  0
   -9.0890    3.3500  -10.2930 O   0  0  0  0  0  0  0  0  0  0  0  0
   -8.6440    2.3950   -9.3280 C   0  0  0  0  0  0  0  0  0  0  0  0
   -9.3990    2.5640   -8.0200 C   0  0  0  0  0  0  0  0  0  0  0  0
   -8.9630    3.8980   -7.4440 C   0  0  0  0  0  0  0  0  0  0  0  0
   -8.8920    4.8810   -8.5060 N   0  0  0  0  0  0  0  0  0  0  0  0
   -8.7540    6.1770   -8.2240 N   0  0  0  0  0  0  0  0  0  0  0  0
   -8.7440    6.7520   -9.4330 C   0  0  0  0  0  0  0  0  0  0  0  0
   -7.3890    5.4070  -15.9320 C   0  0  0  0  0  0  0  0  0  0  0  0
   -7.6600    5.4000  -17.2940 C   0  0  0  0  0  0  0  0  0  0  0  0
   -6.6760    5.7430  -18.3170 C   0  0  0  0  0  0  0  0  0  0  0  0
   -5.3930    5.2070  -18.2710 C   0  0  0  0  0  0  0  0  0  0  0  0
   -4.4530    5.5260  -19.2480 C   0  0  0  0  0  0  0  0  0  0  0  0
   -4.7810    6.3930  -20.2840 C   0  0  0  0  0  0  0  0  0  0  0  0
   -6.0490    6.9350  -20.3410 C   0  0  0  0  0  0  0  0  0  0  0  0
   -6.9730    6.6060  -19.3710 C   0  0  0  0  0  0  0  0  0  0  0  0
   -9.4990    5.3350  -19.4500 H   0  0  0  0  0  0  0  0  0  0  0  0
  -10.9070    5.1160  -18.4040 H   0  0  0  0  0  0  0  0  0  0  0  0
   -9.8880    3.7240  -18.8420 H   0  0  0  0  0  0  0  0  0  0  0  0
   -9.8830    4.9580  -13.7400 H   0  0  0  0  0  0  0  0  0  0  0  0
   -8.5980    3.7680  -13.6560 H   0  0  0  0  0  0  0  0  0  0  0  0
   -9.6350    6.7640  -12.1380 H   0  0  0  0  0  0  0  0  0  0  0  0
   -8.7330    1.3920   -9.7410 H   0  0  0  0  0  0  0  0  0  0  0  0
   -7.5740    2.5810   -9.1650 H   0  0  0  0  0  0  0  0  0  0  0  0
  -10.4820    2.5330   -8.1720 H   0  0  0  0  0  0  0  0  0  0  0  0
   -9.1260    1.7630   -7.3260 H   0  0  0  0  0  0  0  0  0  0  0  0
   -7.9850    3.8230   -6.9750 H   0  0  0  0  0  0  0  0  0  0  0  0
   -9.6880    4.2650   -6.7080 H   0  0  0  0  0  0  0  0  0  0  0  0
   -8.6460    7.8310   -9.4920 H   0  0  0  0  0  0  0  0  0  0  0  0
   -6.4940    5.6440  -15.3750 H   0  0  0  0  0  0  0  0  0  0  0  0
   -5.1010    4.5310  -17.4760 H   0  0  0  0  0  0  0  0  0  0  0  0
   -3.4550    5.0950  -19.1970 H   0  0  0  0  0  0  0  0  0  0  0  0
   -4.0440    6.6390  -21.0440 H   0  0  0  0  0  0  0  0  0  0  0  0
   -6.3270    7.6160  -21.1430 H   0  0  0  0  0  0  0  0  0  0  0  0
   -7.9350    7.0370  -19.4620 H   0  0  0  0  0  0  0  0  0  0  0  0
  1  2  1  0
  2  3  2  0
  3  4  1  0
  4  5  1  0
  5  6  1  0
  6  7  2  0
  6  8  1  0
  8  9  1  0
  9 10  2  0
 10 11  1  0
 11 12  1  0
 12 13  1  0
 13 14  1  0
 14 15  1  0
 15 16  1  0
 16 17  2  0
  4 18  1  0
 18 19  2  0
 19 20  1  0
 20 21  2  0
 21 22  1  0
 22 23  2  0
 23 24  1  0
 24 25  2  0
 19  2  1  0
 17  9  1  0
 15 10  1  0
 25 20  1  0
  1 26  1  0
  1 27  1  0
  1 28  1  0
  5 29  1  0
  5 30  1  0
  8 31  1  0
 12 32  1  0
 12 33  1  0
 13 34  1  0
 13 35  1  0
 14 36  1  0
 14 37  1  0
 17 38  1  0
 18 39  1  0
 21 40  1  0
 22 41  1  0
 23 42  1  0
 24 43  1  0
 25 44  1  0
A    1
 C1 
A    2
 C2 
A    3
 N1 
A    4
 N2 
A    5
 C3 
A    6
 C4 
A    7
 O1 
A    8
 N3 
A    9
 C5 
A   10
 C6 
A   11
 O2 
A   12
 C7 
A   13
 C8 
A   14
 C9 
A   15
 N4 
A   16
 N5 
A   17
 C10
A   18
 C11
A   19
 C12
A   20
 C13
A   21
 C14
A   22
 C15
A   23
 C16
A   24
 C17
A   25
 C18
A   26
 H1 
A   27
 H2 
A   28
 H3 
A   29
 H4 
A   30
 H5 
A   31
 H6 
A   32
 H7 
A   33
 H8 
A   34
 H9 
A   35
 H10
A   36
 H11
A   37
 H12
A   38
 H13
A   39
 H14
A   40
 H15
A   41
 H16
A   42
 H17
A   43
 H18
A   44
 H19
M  END
>  <ref_pdb>  (102) 
x0051_0B

>  <ref_mols>  (102) 
x0969_1B,x0803_0B

>  <original SMILES>  (102) 
[H]c1nn2c(c1N([H])C(=O)C([H])([H])n1nc(C([H])([H])[H])c(-c3c([H])c([H])c([H])c([H])c3[H])c1[H])OC([H])([H])C([H])([H])C2([H])[H]

>  <index>  (102) 
917

>  <∆∆G>  (102) 
-8.225215

>  <∆G_bound>  (102) 
-7.579022

>  <∆G_unbound>  (102) 
0.646193

>  <comRMSD>  (102) 
0.488496

>  <N_constrained_atoms>  (102) 
22.0

>  <N_unconstrained_atoms>  (102) 
3.0

>  <runtime>  (102) 
83.914318

>  <LE>  (102) 
0.329009

>  <percent_hybrid>  (102) 
46.0

>  <dist>  (102) 
11.0

>  <ecfp4>  (102) 
0.27381

>  <daylight>  (102) 
0.285714

>  <topodist>  (102) 
1.0

>  <mces>  (102) 
27.0

>  <tdn>  (102) 
0.0

>  <tup>  (102) 
1.0

>  <rdn>  (102) 
0.0

>  <rup>  (102) 
0.0

>  <ldn>  (102) 
0.0

>  <lup>  (102) 
0.0

>  <mut>  (102) 
5.0

>  <maj>  (102) 
5.0

>  <min>  (102) 
0.0

>  <hyb>  (102) 
5.0

>  <sub>  (102) 
0.0

>  <query_index>  (102) 
360.0

>  <max_hit_Tanimoto>  (102) 
0.265705

>  <largest_ring>  (102) 
6

>  <N_interactions_kept>  (102) 
3.0

>  <N_interactions_lost>  (102) 
3.0

>  <interaction_uniqueness_metric>  (102) 
0.160809

>  <ad_hoc_penalty>  (102) 
-18.725043

>  <N_rotatable_bonds>  (102) 
5

>  <N_HA>  (102) 
25

>  <cluster>  (102) 
5378

>  <N_interactions>  (102) 
7

>  <Enamine>  (102) 
1

>  <Mcule>  (102) 
0

>  <N_PAINS>  (102) 
0

>  <UFF_Gibbs>  (102) 
58.311949

>  <strain_per_HA>  (102) 
2.332478

>  <intxn_scored>  (102) 
10.5

>  <saltbridge:HIS:51>  (102) 
0

>  <pistack:HIS:51>  (102) 
0

>  <hydroph_interaction:HIS:51>  (102) 
0

>  <hbond:ALA:132>  (102) 
0

>  <hbond:SER:135>  (102) 
0

>  <hydroph_interaction:TYR:150>  (102) 
1

>  <pistack:TYR:161>  (102) 
1

>  <hydroph_interaction:TYR:161>  (102) 
3

>  <hydroph_interaction:ASP:83>  (102) 
0

>  <hbond:TYR:130>  (102) 
0

>  <hydroph_interaction:ALA:132>  (102) 
0

>  <hbond:HIS:51>  (102) 
1

>  <hbond:ASP:129>  (102) 
0

>  <hbond:TYR:150>  (102) 
0

>  <hbond:GLY:151>  (102) 
0

>  <hbond:TYR:161>  (102) 
1

>  <hydroph_interaction:TYR:130>  (102) 
0

>  <hydroph_interaction:PRO:131>  (102) 
0

>  <hydroph_interaction:ASP:129>  (102) 
0

>  <saltbridge:ASP:75>  (102) 
0

>  <saltbridge:ASP:83>  (102) 
0

>  <hbond:ASN:152>  (102) 
0

>  <hydroph_interaction:ASN:152>  (102) 
0

>  <halogenbond:TYR:150>  (102) 
0

>  <hbond:ASP:83>  (102) 
0

>  <hydroph_interaction:VAL:155>  (102) 
0

>  <pication:TYR:161>  (102) 
0

>  <hbond:PRO:131>  (102) 
0

>  <saltbridge:ASP:129>  (102) 
0

>  <hbond:THR:134>  (102) 
0

>  <pication:HIS:51>  (102) 
0

>  <hbond:SER:81>  (102) 
0

>  <hydroph_interaction:THR:134>  (102) 
0

>  <hydroph_interaction:MET:49>  (102) 
0

$$$$
Z2368180908
     RDKit          3D

 33 35  0  0  0  0  0  0  0  0999 V2000
   -5.3520    5.3690  -22.1510 F   0  0  0  0  0  0  0  0  0  0  0  0
   -4.8550    5.9130  -21.0020 C   0  0  0  0  0  0  0  0  0  0  0  0
   -3.5950    5.4030  -20.8540 F   0  0  0  0  0  0  0  0  0  0  0  0
   -4.6630    7.2420  -21.2820 F   0  0  0  0  0  0  0  0  0  0  0  0
   -5.7350    5.6940  -19.7610 C   0  0  0  0  0  0  0  0  0  0  0  0
   -5.1210    5.8230  -18.5720 N   0  0  0  0  0  0  0  0  0  0  0  0
   -5.8820    5.6480  -17.4300 C   0  0  0  0  0  0  0  0  0  0  0  0
   -5.2130    5.7790  -16.1950 N   0  0  0  0  0  0  0  0  0  0  0  0
   -5.2500    7.1280  -15.5960 C   0  0  0  0  0  0  0  0  0  0  0  0
   -4.1830    7.1920  -14.5520 C   0  0  0  0  0  0  0  0  0  0  0  0
   -3.8310    5.8980  -13.9270 N   0  0  0  0  0  0  0  0  0  0  0  0
   -3.3990    4.9090  -14.9370 C   0  0  0  0  0  0  0  0  0  0  0  0
   -3.8520    5.1830  -16.2330 C   0  0  0  0  0  0  0  0  0  0  0  0
   -7.2570    5.3500  -17.5070 C   0  0  0  0  0  0  0  0  0  0  0  0
   -8.0630    5.1780  -16.4560 C   0  0  0  0  0  0  0  0  0  0  0  0
   -9.5270    4.8570  -16.6850 C   0  0  0  0  0  0  0  0  0  0  0  0
  -10.0280    4.7380  -17.9620 C   0  0  0  0  0  0  0  0  0  0  0  0
   -9.1410    4.9260  -19.0190 C   0  0  0  0  0  0  0  0  0  0  0  0
   -7.7890    5.2290  -18.8150 C   0  0  0  0  0  0  0  0  0  0  0  0
   -7.0410    5.3960  -19.9080 N   0  0  0  0  0  0  0  0  0  0  0  0
   -5.0020    7.8930  -16.3430 H   0  0  0  0  0  0  0  0  0  0  0  0
   -6.2730    7.3250  -15.2920 H   0  0  0  0  0  0  0  0  0  0  0  0
   -3.2780    7.6310  -14.9850 H   0  0  0  0  0  0  0  0  0  0  0  0
   -4.5060    7.8690  -13.7520 H   0  0  0  0  0  0  0  0  0  0  0  0
   -4.6440    5.5230  -13.4390 H   0  0  0  0  0  0  0  0  0  0  0  0
   -2.3010    4.8600  -14.9410 H   0  0  0  0  0  0  0  0  0  0  0  0
   -3.7590    3.9220  -14.6270 H   0  0  0  0  0  0  0  0  0  0  0  0
   -3.1890    5.9520  -16.6470 H   0  0  0  0  0  0  0  0  0  0  0  0
   -3.8060    4.3610  -16.9400 H   0  0  0  0  0  0  0  0  0  0  0  0
   -7.6800    5.2660  -15.4410 H   0  0  0  0  0  0  0  0  0  0  0  0
  -10.1010    4.7390  -15.7600 H   0  0  0  0  0  0  0  0  0  0  0  0
  -11.0730    4.5110  -18.1470 H   0  0  0  0  0  0  0  0  0  0  0  0
   -9.5120    4.8390  -20.0390 H   0  0  0  0  0  0  0  0  0  0  0  0
  1  2  1  0
  2  3  1  0
  2  4  1  0
  2  5  1  0
  5  6  2  0
  6  7  1  0
  7  8  1  0
  8  9  1  0
  9 10  1  0
 10 11  1  0
 11 12  1  0
 12 13  1  0
  7 14  2  0
 14 15  1  0
 15 16  2  0
 16 17  1  0
 17 18  2  0
 18 19  1  0
 19 20  2  0
 20  5  1  0
 13  8  1  0
 19 14  1  0
  9 21  1  0
  9 22  1  0
 10 23  1  0
 10 24  1  0
 11 25  1  0
 12 26  1  0
 12 27  1  0
 13 28  1  0
 13 29  1  0
 15 30  1  0
 16 31  1  0
 17 32  1  0
 18 33  1  0
A    1
 F1 
A    2
 C1 
A    3
 F2 
A    4
 F3 
A    5
 C2 
A    6
 N1 
A    7
 C3 
A    8
 N2 
A    9
 C4 
A   10
 C5 
A   11
 N3 
A   12
 C6 
A   13
 C7 
A   14
 C8 
A   15
 C9 
A   16
 C10
A   17
 C11
A   18
 C12
A   19
 C13
A   20
 N4 
A   21
 H1 
A   22
 H2 
A   23
 H3 
A   24
 H4 
A   25
 H5 
A   26
 H6 
A   27
 H7 
A   28
 H8 
A   29
 H9 
A   30
 H10
A   31
 H11
A   32
 H12
A   33
 H13
M  END
>  <ref_pdb>  (103) 
x0051_0B

>  <ref_mols>  (103) 
x0101_0B,x0429_0B

>  <original SMILES>  (103) 
[H]c1c([H])c([H])c2c(N3C([H])([H])C([H])([H])N([H])C([H])([H])C3([H])[H])nc(C(F)(F)F)nc2c1[H]

>  <index>  (103) 
3620

>  <∆∆G>  (103) 
-5.395064

>  <∆G_bound>  (103) 
-4.313434

>  <∆G_unbound>  (103) 
1.08163

>  <comRMSD>  (103) 
0.441943

>  <N_constrained_atoms>  (103) 
22.0

>  <N_unconstrained_atoms>  (103) 
0.0

>  <runtime>  (103) 
22.067816

>  <LE>  (103) 
0.24523

>  <percent_hybrid>  (103) 
43.0

>  <dist>  (103) 
6.0

>  <ecfp4>  (103) 
0.301587

>  <daylight>  (103) 
0.414773

>  <topodist>  (103) 
2.0

>  <mces>  (103) 
22.0

>  <tdn>  (103) 
2.0

>  <tup>  (103) 
0.0

>  <rdn>  (103) 
0.0

>  <rup>  (103) 
0.0

>  <ldn>  (103) 
0.0

>  <lup>  (103) 
0.0

>  <mut>  (103) 
4.0

>  <maj>  (103) 
4.0

>  <min>  (103) 
0.0

>  <hyb>  (103) 
0.0

>  <sub>  (103) 
1.0

>  <query_index>  (103) 
278.0

>  <max_hit_Tanimoto>  (103) 
0.417783

>  <largest_ring>  (103) 
6

>  <N_interactions_kept>  (103) 
0.5

>  <N_interactions_lost>  (103) 
3.5

>  <interaction_uniqueness_metric>  (103) 
0.058381

>  <ad_hoc_penalty>  (103) 
-1.87474

>  <N_rotatable_bonds>  (103) 
1

>  <N_HA>  (103) 
20

>  <cluster>  (103) 
2856

>  <N_interactions>  (103) 
4

>  <Enamine>  (103) 
1

>  <Mcule>  (103) 
0

>  <N_PAINS>  (103) 
0

>  <UFF_Gibbs>  (103) 
45.916975

>  <strain_per_HA>  (103) 
2.295849

>  <intxn_scored>  (103) 
10.5

>  <saltbridge:HIS:51>  (103) 
0

>  <pistack:HIS:51>  (103) 
0

>  <hydroph_interaction:HIS:51>  (103) 
0

>  <hbond:ALA:132>  (103) 
0

>  <hbond:SER:135>  (103) 
0

>  <hydroph_interaction:TYR:150>  (103) 
1

>  <pistack:TYR:161>  (103) 
2

>  <hydroph_interaction:TYR:161>  (103) 
0

>  <hydroph_interaction:ASP:83>  (103) 
0

>  <hbond:TYR:130>  (103) 
1

>  <hydroph_interaction:ALA:132>  (103) 
0

>  <hbond:HIS:51>  (103) 
0

>  <hbond:ASP:129>  (103) 
0

>  <hbond:TYR:150>  (103) 
0

>  <hbond:GLY:151>  (103) 
0

>  <hbond:TYR:161>  (103) 
0

>  <hydroph_interaction:TYR:130>  (103) 
0

>  <hydroph_interaction:PRO:131>  (103) 
0

>  <hydroph_interaction:ASP:129>  (103) 
0

>  <saltbridge:ASP:75>  (103) 
0

>  <saltbridge:ASP:83>  (103) 
0

>  <hbond:ASN:152>  (103) 
0

>  <hydroph_interaction:ASN:152>  (103) 
0

>  <halogenbond:TYR:150>  (103) 
0

>  <hbond:ASP:83>  (103) 
0

>  <hydroph_interaction:VAL:155>  (103) 
0

>  <pication:TYR:161>  (103) 
0

>  <hbond:PRO:131>  (103) 
0

>  <saltbridge:ASP:129>  (103) 
0

>  <hbond:THR:134>  (103) 
0

>  <pication:HIS:51>  (103) 
0

>  <hbond:SER:81>  (103) 
0

>  <hydroph_interaction:THR:134>  (103) 
0

>  <hydroph_interaction:MET:49>  (103) 
0

$$$$
Z2853439340
     RDKit          3D

 46 48  0  0  0  0  0  0  0  0999 V2000
  -10.8490    5.0740  -18.3150 C   0  0  0  0  0  0  0  0  0  0  0  0
   -9.6730    4.3590  -18.7770 C   0  0  0  0  0  0  0  0  0  0  0  0
   -8.4830    4.7720  -18.3140 C   0  0  0  0  0  0  0  0  0  0  0  0
   -7.4190    5.1600  -19.2280 C   0  0  0  0  0  0  0  0  0  0  0  0
   -6.1790    5.5720  -18.8190 C   0  0  0  0  0  0  0  0  0  0  0  0
   -5.9500    5.6080  -17.2600 C   0  0  0  0  0  0  0  0  0  0  0  0
   -6.9850    5.2370  -16.4210 C   0  0  0  0  0  0  0  0  0  0  0  0
   -6.6810    5.3040  -14.9550 C   0  0  0  0  0  0  0  0  0  0  0  0
   -7.6950    4.6230  -14.1500 N   0  0  0  0  0  0  0  0  0  0  0  0
   -7.5850    4.9040  -12.7060 C   0  0  0  0  0  0  0  0  0  0  0  0
   -8.6190    5.6740  -12.1790 C   0  0  0  0  0  0  0  0  0  0  0  0
   -8.7300    5.5950  -10.7060 C   0  0  0  0  0  0  0  0  0  0  0  0
   -8.9260    4.4000   -9.8540 C   0  0  0  0  0  0  0  0  0  0  0  0
   -9.0710    2.9250  -10.1560 C   0  0  0  0  0  0  0  0  0  0  0  0
   -8.7070    2.1730   -8.9050 C   0  0  0  0  0  0  0  0  0  0  0  0
   -9.5390    2.6360   -7.7230 C   0  0  0  0  0  0  0  0  0  0  0  0
   -9.1490    4.0640   -7.3700 C   0  0  0  0  0  0  0  0  0  0  0  0
   -8.9650    4.8750   -8.5670 N   0  0  0  0  0  0  0  0  0  0  0  0
   -8.8160    6.2090   -8.4790 N   0  0  0  0  0  0  0  0  0  0  0  0
   -8.6790    6.6390   -9.7470 C   0  0  0  0  0  0  0  0  0  0  0  0
   -8.2340    4.8250  -16.9260 C   0  0  0  0  0  0  0  0  0  0  0  0
  -11.6470    4.3780  -18.0890 H   0  0  0  0  0  0  0  0  0  0  0  0
  -11.2070    5.7640  -19.0850 H   0  0  0  0  0  0  0  0  0  0  0  0
  -10.6140    5.6410  -17.4150 H   0  0  0  0  0  0  0  0  0  0  0  0
   -9.6250    4.4850  -19.8640 H   0  0  0  0  0  0  0  0  0  0  0  0
   -9.7700    3.2980  -18.5730 H   0  0  0  0  0  0  0  0  0  0  0  0
   -7.6850    5.0950  -20.2840 H   0  0  0  0  0  0  0  0  0  0  0  0
   -5.4140    5.8510  -19.5420 H   0  0  0  0  0  0  0  0  0  0  0  0
   -4.9930    5.9210  -16.8520 H   0  0  0  0  0  0  0  0  0  0  0  0
   -5.6970    4.8560  -14.7840 H   0  0  0  0  0  0  0  0  0  0  0  0
   -6.6030    6.3400  -14.6520 H   0  0  0  0  0  0  0  0  0  0  0  0
   -7.6330    3.6140  -14.3360 H   0  0  0  0  0  0  0  0  0  0  0  0
   -6.6450    5.4460  -12.5630 H   0  0  0  0  0  0  0  0  0  0  0  0
   -7.5100    3.9590  -12.1550 H   0  0  0  0  0  0  0  0  0  0  0  0
   -8.5070    6.7210  -12.4880 H   0  0  0  0  0  0  0  0  0  0  0  0
   -9.5410    5.3030  -12.6390 H   0  0  0  0  0  0  0  0  0  0  0  0
   -8.3930    2.6470  -10.9730 H   0  0  0  0  0  0  0  0  0  0  0  0
  -10.0890    2.6700  -10.4620 H   0  0  0  0  0  0  0  0  0  0  0  0
   -7.6510    2.3470   -8.6790 H   0  0  0  0  0  0  0  0  0  0  0  0
   -8.8260    1.1130   -9.0560 H   0  0  0  0  0  0  0  0  0  0  0  0
  -10.6080    2.5750   -7.9500 H   0  0  0  0  0  0  0  0  0  0  0  0
   -9.3450    1.9730   -6.8790 H   0  0  0  0  0  0  0  0  0  0  0  0
   -9.9190    4.5330   -6.7470 H   0  0  0  0  0  0  0  0  0  0  0  0
   -8.1960    4.0790   -6.8300 H   0  0  0  0  0  0  0  0  0  0  0  0
   -8.5480    7.6980   -9.9220 H   0  0  0  0  0  0  0  0  0  0  0  0
   -9.0250    4.5370  -16.2370 H   0  0  0  0  0  0  0  0  0  0  0  0
  1  2  1  0
  2  3  1  0
  3  4  2  0
  4  5  1  0
  5  6  2  0
  6  7  1  0
  7  8  1  0
  8  9  1  0
  9 10  1  0
 10 11  1  0
 11 12  1  0
 12 13  2  0
 13 14  1  0
 14 15  1  0
 15 16  1  0
 16 17  1  0
 17 18  1  0
 18 19  1  0
 19 20  2  0
  7 21  2  0
 21  3  1  0
 20 12  1  0
 18 13  1  0
  1 22  1  0
  1 23  1  0
  1 24  1  0
  2 25  1  0
  2 26  1  0
  4 27  1  0
  5 28  1  0
  6 29  1  0
  8 30  1  0
  8 31  1  0
  9 32  1  0
 10 33  1  0
 10 34  1  0
 11 35  1  0
 11 36  1  0
 14 37  1  0
 14 38  1  0
 15 39  1  0
 15 40  1  0
 16 41  1  0
 16 42  1  0
 17 43  1  0
 17 44  1  0
 20 45  1  0
 21 46  1  0
A    1
 C1 
A    2
 C2 
A    3
 C3 
A    4
 C4 
A    5
 C5 
A    6
 C6 
A    7
 C7 
A    8
 C8 
A    9
 N1 
A   10
 C9 
A   11
 C10
A   12
 C11
A   13
 C12
A   14
 C13
A   15
 C14
A   16
 C15
A   17
 C16
A   18
 N2 
A   19
 N3 
A   20
 C17
A   21
 C18
A   22
 H1 
A   23
 H2 
A   24
 H3 
A   25
 H4 
A   26
 H5 
A   27
 H6 
A   28
 H7 
A   29
 H8 
A   30
 H9 
A   31
 H10
A   32
 H11
A   33
 H12
A   34
 H13
A   35
 H14
A   36
 H15
A   37
 H16
A   38
 H17
A   39
 H18
A   40
 H19
A   41
 H20
A   42
 H21
A   43
 H22
A   44
 H23
A   45
 H24
A   46
 H25
M  END
>  <ref_pdb>  (104) 
x0051_0B

>  <ref_mols>  (104) 
x0605_0B,x0969_1B

>  <original SMILES>  (104) 
[H]c1nn2c(c1C([H])([H])C([H])([H])N([H])C([H])([H])c1c([H])c([H])c([H])c(C([H])([H])C([H])([H])[H])c1[H])C([H])([H])C([H])([H])C([H])([H])C2([H])[H]

>  <index>  (104) 
371

>  <∆∆G>  (104) 
-8.897142

>  <∆G_bound>  (104) 
-8.658478

>  <∆G_unbound>  (104) 
0.238665

>  <comRMSD>  (104) 
0.628253

>  <N_constrained_atoms>  (104) 
19.0

>  <N_unconstrained_atoms>  (104) 
2.0

>  <runtime>  (104) 
64.534415

>  <LE>  (104) 
0.423673

>  <percent_hybrid>  (104) 
48.0

>  <dist>  (104) 
4.0

>  <ecfp4>  (104) 
0.38806

>  <daylight>  (104) 
0.334615

>  <topodist>  (104) 
0.0

>  <mces>  (104) 
23.0

>  <tdn>  (104) 
0.0

>  <tup>  (104) 
0.0

>  <rdn>  (104) 
0.0

>  <rup>  (104) 
0.0

>  <ldn>  (104) 
0.0

>  <lup>  (104) 
0.0

>  <mut>  (104) 
2.0

>  <maj>  (104) 
2.0

>  <min>  (104) 
0.0

>  <hyb>  (104) 
2.0

>  <sub>  (104) 
0.0

>  <query_index>  (104) 
307.0

>  <max_hit_Tanimoto>  (104) 
0.365541

>  <largest_ring>  (104) 
0

>  <N_interactions_kept>  (104) 
1.5

>  <N_interactions_lost>  (104) 
1.5

>  <interaction_uniqueness_metric>  (104) 
0.192849

>  <ad_hoc_penalty>  (104) 
-23.954335

>  <N_rotatable_bonds>  (104) 
7

>  <N_HA>  (104) 
21

>  <cluster>  (104) 
5878

>  <N_interactions>  (104) 
6

>  <Enamine>  (104) 
1

>  <Mcule>  (104) 
0

>  <N_PAINS>  (104) 
0

>  <UFF_Gibbs>  (104) 
78.951944

>  <strain_per_HA>  (104) 
3.759616

>  <intxn_scored>  (104) 
10.5

>  <saltbridge:HIS:51>  (104) 
0

>  <pistack:HIS:51>  (104) 
1

>  <hydroph_interaction:HIS:51>  (104) 
0

>  <hbond:ALA:132>  (104) 
0

>  <hbond:SER:135>  (104) 
0

>  <hydroph_interaction:TYR:150>  (104) 
1

>  <pistack:TYR:161>  (104) 
1

>  <hydroph_interaction:TYR:161>  (104) 
1

>  <hydroph_interaction:ASP:83>  (104) 
1

>  <hbond:TYR:130>  (104) 
0

>  <hydroph_interaction:ALA:132>  (104) 
0

>  <hbond:HIS:51>  (104) 
0

>  <hbond:ASP:129>  (104) 
0

>  <hbond:TYR:150>  (104) 
0

>  <hbond:GLY:151>  (104) 
0

>  <hbond:TYR:161>  (104) 
1

>  <hydroph_interaction:TYR:130>  (104) 
0

>  <hydroph_interaction:PRO:131>  (104) 
0

>  <hydroph_interaction:ASP:129>  (104) 
0

>  <saltbridge:ASP:75>  (104) 
0

>  <saltbridge:ASP:83>  (104) 
0

>  <hbond:ASN:152>  (104) 
0

>  <hydroph_interaction:ASN:152>  (104) 
0

>  <halogenbond:TYR:150>  (104) 
0

>  <hbond:ASP:83>  (104) 
0

>  <hydroph_interaction:VAL:155>  (104) 
0

>  <pication:TYR:161>  (104) 
0

>  <hbond:PRO:131>  (104) 
0

>  <saltbridge:ASP:129>  (104) 
0

>  <hbond:THR:134>  (104) 
0

>  <pication:HIS:51>  (104) 
0

>  <hbond:SER:81>  (104) 
0

>  <hydroph_interaction:THR:134>  (104) 
0

>  <hydroph_interaction:MET:49>  (104) 
0

$$$$
CSSB00160505390
     RDKit          3D

 35 37  0  0  0  0  0  0  0  0999 V2000
   -5.2040    4.8100  -14.7420 N   0  0  0  0  0  0  0  0  0  0  0  0
   -6.2720    5.2510  -14.7580 C   0  0  0  0  0  0  0  0  0  0  0  0
   -7.6340    5.8770  -14.8570 C   0  0  0  0  0  0  0  0  0  0  0  0
   -7.4480    7.3910  -14.6250 C   0  0  0  0  0  0  0  0  0  0  0  0
   -8.4310    8.0200  -13.8460 C   0  0  0  0  0  0  0  0  0  0  0  0
   -9.4950    7.2420  -13.4160 C   0  0  0  0  0  0  0  0  0  0  0  0
   -8.9720    5.9840  -12.7700 C   0  0  0  0  0  0  0  0  0  0  0  0
   -8.5080    5.1480  -13.7740 C   0  0  0  0  0  0  0  0  0  0  0  0
   -8.1550    5.5050  -16.2910 C   0  0  0  0  0  0  0  0  0  0  0  0
   -9.4880    5.1490  -16.4600 C   0  0  0  0  0  0  0  0  0  0  0  0
   -9.9790    4.8040  -17.7110 C   0  0  0  0  0  0  0  0  0  0  0  0
   -9.1620    4.8050  -18.8150 C   0  0  0  0  0  0  0  0  0  0  0  0
   -7.8100    5.1490  -18.7380 C   0  0  0  0  0  0  0  0  0  0  0  0
   -7.1560    5.0530  -20.1240 C   0  0  0  0  0  0  0  0  0  0  0  0
   -5.7290    5.4740  -19.7650 C   0  0  0  0  0  0  0  0  0  0  0  0
   -5.1920    5.8260  -18.5500 C   0  0  0  0  0  0  0  0  0  0  0  0
   -5.9500    5.8420  -17.4280 C   0  0  0  0  0  0  0  0  0  0  0  0
   -7.2900    5.5090  -17.4530 C   0  0  0  0  0  0  0  0  0  0  0  0
   -6.5060    7.5870  -14.1120 H   0  0  0  0  0  0  0  0  0  0  0  0
   -7.3290    7.9080  -15.5760 H   0  0  0  0  0  0  0  0  0  0  0  0
   -8.8160    8.9040  -14.3570 H   0  0  0  0  0  0  0  0  0  0  0  0
   -7.9410    8.4190  -12.9500 H   0  0  0  0  0  0  0  0  0  0  0  0
  -10.2990    7.0850  -14.1330 H   0  0  0  0  0  0  0  0  0  0  0  0
   -9.9840    7.8130  -12.6190 H   0  0  0  0  0  0  0  0  0  0  0  0
   -8.2930    6.1140  -11.9320 H   0  0  0  0  0  0  0  0  0  0  0  0
   -9.8230    5.4780  -12.3140 H   0  0  0  0  0  0  0  0  0  0  0  0
   -9.2240    4.5400  -14.3050 H   0  0  0  0  0  0  0  0  0  0  0  0
   -7.9090    4.3990  -13.2550 H   0  0  0  0  0  0  0  0  0  0  0  0
  -10.1480    5.1410  -15.5980 H   0  0  0  0  0  0  0  0  0  0  0  0
  -11.0260    4.5300  -17.8150 H   0  0  0  0  0  0  0  0  0  0  0  0
   -9.5950    4.5260  -19.7740 H   0  0  0  0  0  0  0  0  0  0  0  0
   -7.5680    4.7710  -21.0840 H   0  0  0  0  0  0  0  0  0  0  0  0
   -5.0330    5.4940  -20.6000 H   0  0  0  0  0  0  0  0  0  0  0  0
   -4.1430    6.0970  -18.4860 H   0  0  0  0  0  0  0  0  0  0  0  0
   -5.3980    6.1390  -16.5330 H   0  0  0  0  0  0  0  0  0  0  0  0
  1  2  3  0
  2  3  1  0
  3  4  1  0
  4  5  1  0
  5  6  1  0
  6  7  1  0
  7  8  1  0
  3  9  1  0
  9 10  2  0
 10 11  1  0
 11 12  2  0
 12 13  1  0
 13 14  2  0
 14 15  1  0
 15 16  2  0
 16 17  1  0
 17 18  2  0
  8  3  1  0
 18  9  1  0
 18 13  1  0
  4 19  1  0
  4 20  1  0
  5 21  1  0
  5 22  1  0
  6 23  1  0
  6 24  1  0
  7 25  1  0
  7 26  1  0
  8 27  1  0
  8 28  1  0
 10 29  1  0
 11 30  1  0
 12 31  1  0
 14 32  1  0
 15 33  1  0
 16 34  1  0
 17 35  1  0
A    1
 N1 
A    2
 C1 
A    3
 C2 
A    4
 C3 
A    5
 C4 
A    6
 C5 
A    7
 C6 
A    8
 C7 
A    9
 C8 
A   10
 C9 
A   11
 C10
A   12
 C11
A   13
 C12
A   14
 C13
A   15
 C14
A   16
 C15
A   17
 C16
A   18
 C17
A   19
 H1 
A   20
 H2 
A   21
 H3 
A   22
 H4 
A   23
 H5 
A   24
 H6 
A   25
 H7 
A   26
 H8 
A   27
 H9 
A   28
 H10
A   29
 H11
A   30
 H12
A   31
 H13
A   32
 H14
A   33
 H15
A   34
 H16
A   35
 H17
M  END
>  <ref_pdb>  (105) 
x0051_0B

>  <ref_mols>  (105) 
x0429_0B,x0951_0B

>  <original SMILES>  (105) 
[H]c1c([H])c([H])c2c(C3(C#N)C([H])([H])C([H])([H])C([H])([H])C([H])([H])C3([H])[H])c([H])c([H])c([H])c2c1[H]

>  <index>  (105) 
675

>  <∆∆G>  (105) 
-7.114274

>  <∆G_bound>  (105) 
-6.926973

>  <∆G_unbound>  (105) 
0.187301

>  <comRMSD>  (105) 
0.705218

>  <N_constrained_atoms>  (105) 
17.0

>  <N_unconstrained_atoms>  (105) 
2.0

>  <runtime>  (105) 
35.863805

>  <LE>  (105) 
0.374435

>  <percent_hybrid>  (105) 
50.0

>  <dist>  (105) 
8.0

>  <ecfp4>  (105) 
0.15625

>  <daylight>  (105) 
0.195946

>  <topodist>  (105) 
4.0

>  <mces>  (105) 
20.0

>  <tdn>  (105) 
1.0

>  <tup>  (105) 
0.0

>  <rdn>  (105) 
1.0

>  <rup>  (105) 
0.0

>  <ldn>  (105) 
2.0

>  <lup>  (105) 
0.0

>  <mut>  (105) 
2.0

>  <maj>  (105) 
2.0

>  <min>  (105) 
0.0

>  <hyb>  (105) 
2.0

>  <sub>  (105) 
1.0

>  <query_index>  (105) 
76.0

>  <max_hit_Tanimoto>  (105) 
0.176718

>  <largest_ring>  (105) 
6

>  <N_interactions_kept>  (105) 
0.0

>  <N_interactions_lost>  (105) 
3.0

>  <interaction_uniqueness_metric>  (105) 
0.074486

>  <ad_hoc_penalty>  (105) 
-14.845694

>  <N_rotatable_bonds>  (105) 
1

>  <N_HA>  (105) 
18

>  <cluster>  (105) 
5599

>  <N_interactions>  (105) 
6

>  <Enamine>  (105) 
1

>  <Mcule>  (105) 
0

>  <N_PAINS>  (105) 
0

>  <UFF_Gibbs>  (105) 
136.144319

>  <strain_per_HA>  (105) 
7.563573

>  <intxn_scored>  (105) 
10.5

>  <saltbridge:HIS:51>  (105) 
0

>  <pistack:HIS:51>  (105) 
0

>  <hydroph_interaction:HIS:51>  (105) 
0

>  <hbond:ALA:132>  (105) 
0

>  <hbond:SER:135>  (105) 
0

>  <hydroph_interaction:TYR:150>  (105) 
1

>  <pistack:TYR:161>  (105) 
2

>  <hydroph_interaction:TYR:161>  (105) 
1

>  <hydroph_interaction:ASP:83>  (105) 
0

>  <hbond:TYR:130>  (105) 
0

>  <hydroph_interaction:ALA:132>  (105) 
2

>  <hbond:HIS:51>  (105) 
0

>  <hbond:ASP:129>  (105) 
0

>  <hbond:TYR:150>  (105) 
0

>  <hbond:GLY:151>  (105) 
0

>  <hbond:TYR:161>  (105) 
0

>  <hydroph_interaction:TYR:130>  (105) 
0

>  <hydroph_interaction:PRO:131>  (105) 
0

>  <hydroph_interaction:ASP:129>  (105) 
0

>  <saltbridge:ASP:75>  (105) 
0

>  <saltbridge:ASP:83>  (105) 
0

>  <hbond:ASN:152>  (105) 
0

>  <hydroph_interaction:ASN:152>  (105) 
0

>  <halogenbond:TYR:150>  (105) 
0

>  <hbond:ASP:83>  (105) 
0

>  <hydroph_interaction:VAL:155>  (105) 
0

>  <pication:TYR:161>  (105) 
0

>  <hbond:PRO:131>  (105) 
0

>  <saltbridge:ASP:129>  (105) 
0

>  <hbond:THR:134>  (105) 
0

>  <pication:HIS:51>  (105) 
0

>  <hbond:SER:81>  (105) 
0

>  <hydroph_interaction:THR:134>  (105) 
0

>  <hydroph_interaction:MET:49>  (105) 
0

$$$$
Z5231919341
     RDKit          3D

 22 23  0  0  0  0  0  0  0  0999 V2000
   -3.6210    5.3790  -16.6710 N   0  0  0  0  0  0  0  0  0  0  0  0
   -5.0450    5.4120  -16.2850 C   0  0  0  0  0  0  0  0  0  0  0  0
   -5.4400    5.5250  -14.9250 O   0  0  0  0  0  0  0  0  0  0  0  0
   -5.8610    5.3290  -17.3510 C   0  0  0  0  0  0  0  0  0  0  0  0
   -5.0940    5.4140  -18.5330 N   0  0  0  0  0  0  0  0  0  0  0  0
   -5.7670    5.3380  -19.7150 C   0  0  0  0  0  0  0  0  0  0  0  0
   -5.0440    5.4200  -20.8780 N   0  0  0  0  0  0  0  0  0  0  0  0
   -7.0750    5.1870  -19.7970 N   0  0  0  0  0  0  0  0  0  0  0  0
   -7.8130    5.1050  -18.6790 C   0  0  0  0  0  0  0  0  0  0  0  0
   -9.3070    4.9250  -18.9560 C   0  0  0  0  0  0  0  0  0  0  0  0
  -10.0610    4.8430  -17.7730 C   0  0  0  0  0  0  0  0  0  0  0  0
   -9.4940    4.9170  -16.4900 C   0  0  0  0  0  0  0  0  0  0  0  0
   -8.1230    5.0800  -16.2810 C   0  0  0  0  0  0  0  0  0  0  0  0
   -7.2720    5.1710  -17.3710 C   0  0  0  0  0  0  0  0  0  0  0  0
   -3.5470    5.1900  -17.6710 H   0  0  0  0  0  0  0  0  0  0  0  0
   -3.1620    4.5960  -16.2040 H   0  0  0  0  0  0  0  0  0  0  0  0
   -4.0530    5.3680  -20.6970 H   0  0  0  0  0  0  0  0  0  0  0  0
   -5.3770    6.1950  -21.4350 H   0  0  0  0  0  0  0  0  0  0  0  0
   -9.7310    4.8710  -19.9560 H   0  0  0  0  0  0  0  0  0  0  0  0
  -11.1340    4.7160  -17.8650 H   0  0  0  0  0  0  0  0  0  0  0  0
  -10.1460    4.8460  -15.6210 H   0  0  0  0  0  0  0  0  0  0  0  0
   -7.7170    5.1280  -15.2760 H   0  0  0  0  0  0  0  0  0  0  0  0
  1  2  1  0
  2  3  2  0
  2  4  1  0
  4  5  2  0
  5  6  1  0
  6  7  1  0
  6  8  2  0
  8  9  1  0
  9 10  2  0
 10 11  1  0
 11 12  2  0
 12 13  1  0
 13 14  2  0
 14  4  1  0
 14  9  1  0
  1 15  1  0
  1 16  1  0
  7 17  1  0
  7 18  1  0
 10 19  1  0
 11 20  1  0
 12 21  1  0
 13 22  1  0
A    1
 N1 
A    2
 C1 
A    3
 O1 
A    4
 C2 
A    5
 N2 
A    6
 C3 
A    7
 N3 
A    8
 N4 
A    9
 C4 
A   10
 C5 
A   11
 C6 
A   12
 C7 
A   13
 C8 
A   14
 C9 
A   15
 H1 
A   16
 H2 
A   17
 H3 
A   18
 H4 
A   19
 H5 
A   20
 H6 
A   21
 H7 
A   22
 H8 
M  END
>  <ref_pdb>  (106) 
x0051_0B

>  <ref_mols>  (106) 
x0443_0B,x0425_0B

>  <original SMILES>  (106) 
[H]c1c([H])c([H])c2c(C(=O)N([H])[H])nc(N([H])[H])nc2c1[H]

>  <index>  (106) 
1746

>  <∆∆G>  (106) 
-5.231165

>  <∆G_bound>  (106) 
-4.581946

>  <∆G_unbound>  (106) 
0.649219

>  <comRMSD>  (106) 
0.85315

>  <N_constrained_atoms>  (106) 
13.0

>  <N_unconstrained_atoms>  (106) 
1.0

>  <runtime>  (106) 
20.271461

>  <LE>  (106) 
0.373655

>  <percent_hybrid>  (106) 
50.0

>  <dist>  (106) 
4.0

>  <ecfp4>  (106) 
0.16

>  <daylight>  (106) 
0.305785

>  <topodist>  (106) 
2.0

>  <mces>  (106) 
13.0

>  <tdn>  (106) 
0.0

>  <tup>  (106) 
1.0

>  <rdn>  (106) 
0.0

>  <rup>  (106) 
0.0

>  <ldn>  (106) 
0.0

>  <lup>  (106) 
1.0

>  <mut>  (106) 
1.0

>  <maj>  (106) 
1.0

>  <min>  (106) 
0.0

>  <hyb>  (106) 
1.0

>  <sub>  (106) 
0.0

>  <query_index>  (106) 
285.0

>  <max_hit_Tanimoto>  (106) 
0.258503

>  <largest_ring>  (106) 
6

>  <N_interactions_kept>  (106) 
0.0

>  <N_interactions_lost>  (106) 
3.5

>  <interaction_uniqueness_metric>  (106) 
0.115408

>  <ad_hoc_penalty>  (106) 
-2.8177

>  <N_rotatable_bonds>  (106) 
2

>  <N_HA>  (106) 
14

>  <cluster>  (106) 
4618

>  <N_interactions>  (106) 
7

>  <Enamine>  (106) 
1

>  <Mcule>  (106) 
0

>  <N_PAINS>  (106) 
0

>  <UFF_Gibbs>  (106) 
161.594451

>  <strain_per_HA>  (106) 
11.542461

>  <intxn_scored>  (106) 
10.5

>  <saltbridge:HIS:51>  (106) 
0

>  <pistack:HIS:51>  (106) 
0

>  <hydroph_interaction:HIS:51>  (106) 
0

>  <hbond:ALA:132>  (106) 
0

>  <hbond:SER:135>  (106) 
0

>  <hydroph_interaction:TYR:150>  (106) 
1

>  <pistack:TYR:161>  (106) 
1

>  <hydroph_interaction:TYR:161>  (106) 
2

>  <hydroph_interaction:ASP:83>  (106) 
0

>  <hbond:TYR:130>  (106) 
2

>  <hydroph_interaction:ALA:132>  (106) 
0

>  <hbond:HIS:51>  (106) 
0

>  <hbond:ASP:129>  (106) 
1

>  <hbond:TYR:150>  (106) 
0

>  <hbond:GLY:151>  (106) 
0

>  <hbond:TYR:161>  (106) 
0

>  <hydroph_interaction:TYR:130>  (106) 
0

>  <hydroph_interaction:PRO:131>  (106) 
0

>  <hydroph_interaction:ASP:129>  (106) 
0

>  <saltbridge:ASP:75>  (106) 
0

>  <saltbridge:ASP:83>  (106) 
0

>  <hbond:ASN:152>  (106) 
0

>  <hydroph_interaction:ASN:152>  (106) 
0

>  <halogenbond:TYR:150>  (106) 
0

>  <hbond:ASP:83>  (106) 
0

>  <hydroph_interaction:VAL:155>  (106) 
0

>  <pication:TYR:161>  (106) 
0

>  <hbond:PRO:131>  (106) 
0

>  <saltbridge:ASP:129>  (106) 
0

>  <hbond:THR:134>  (106) 
0

>  <pication:HIS:51>  (106) 
0

>  <hbond:SER:81>  (106) 
0

>  <hydroph_interaction:THR:134>  (106) 
0

>  <hydroph_interaction:MET:49>  (106) 
0

$$$$
PV-006922484195
     RDKit          3D

 47 50  0  0  0  0  0  0  0  0999 V2000
   -7.9260    8.4150  -14.1530 O   0  0  0  0  0  0  0  0  0  0  0  0
   -9.1630    7.7170  -13.9140 S   0  0  0  0  0  6  0  0  0  0  0  0
  -10.4100    8.4010  -13.9480 O   0  0  0  0  0  0  0  0  0  0  0  0
   -9.3410    6.4650  -14.9680 N   0  0  0  0  0  0  0  0  0  0  0  0
   -8.1700    5.6750  -15.3940 C   0  0  0  0  0  0  0  0  0  0  0  0
   -8.4570    5.3220  -16.7800 C   0  0  0  0  0  0  0  0  0  0  0  0
   -9.7510    4.9590  -17.0280 C   0  0  0  0  0  0  0  0  0  0  0  0
  -10.2050    4.6270  -18.3140 C   0  0  0  0  0  0  0  0  0  0  0  0
   -9.3000    4.6760  -19.3000 C   0  0  0  0  0  0  0  0  0  0  0  0
   -7.9640    5.0260  -19.0950 C   0  0  0  0  0  0  0  0  0  0  0  0
   -7.5440    5.3460  -17.8340 C   0  0  0  0  0  0  0  0  0  0  0  0
   -5.8540    5.7570  -17.7370 S   0  0  0  0  0  0  0  0  0  0  0  0
   -5.6520    5.5140  -19.3900 C   0  0  0  0  0  0  0  0  0  0  0  0
   -6.9250    5.0980  -20.0710 C   0  0  0  0  0  0  0  0  0  0  0  0
   -9.0010    6.7550  -12.4760 C   0  0  0  0  0  0  0  0  0  0  0  0
   -8.7950    7.3820  -11.2670 C   0  0  0  0  0  0  0  0  0  0  0  0
   -8.6580    6.5160  -10.0580 C   0  0  0  0  0  0  0  0  0  0  0  0
   -8.7430    5.0220  -10.1680 C   0  0  0  0  0  0  0  0  0  0  0  0
   -8.6240    4.2150   -9.0900 N   0  0  0  0  0  0  0  0  0  0  0  0
   -8.9910    2.7870   -9.2140 C   0  0  0  0  0  0  0  0  0  0  0  0
   -9.6540    2.3170   -7.9230 C   0  0  0  0  0  0  0  0  0  0  0  0
   -8.8630    2.6520   -6.7450 N   0  0  0  0  0  0  0  0  0  0  0  0
   -8.7550    4.1000   -6.6350 C   0  0  0  0  0  0  0  0  0  0  0  0
   -8.0250    4.7160   -7.8380 C   0  0  0  0  0  0  0  0  0  0  0  0
   -8.9570    4.5200  -11.4620 C   0  0  0  0  0  0  0  0  0  0  0  0
   -9.0830    5.3540  -12.5860 C   0  0  0  0  0  0  0  0  0  0  0  0
  -10.0840    6.6170  -15.6520 H   0  0  0  0  0  0  0  0  0  0  0  0
   -7.2500    6.2590  -15.3080 H   0  0  0  0  0  0  0  0  0  0  0  0
   -8.0830    4.7810  -14.7660 H   0  0  0  0  0  0  0  0  0  0  0  0
  -10.4190    4.9470  -16.1640 H   0  0  0  0  0  0  0  0  0  0  0  0
  -11.2510    4.3620  -18.4130 H   0  0  0  0  0  0  0  0  0  0  0  0
   -9.6120    4.4310  -20.3080 H   0  0  0  0  0  0  0  0  0  0  0  0
   -4.7550    5.6160  -19.9870 H   0  0  0  0  0  0  0  0  0  0  0  0
   -7.0240    4.8860  -21.1300 H   0  0  0  0  0  0  0  0  0  0  0  0
   -8.7170    8.4620  -11.0890 H   0  0  0  0  0  0  0  0  0  0  0  0
   -8.4980    7.0770   -9.1310 H   0  0  0  0  0  0  0  0  0  0  0  0
   -9.6320    2.5750  -10.0770 H   0  0  0  0  0  0  0  0  0  0  0  0
   -8.0750    2.2050   -9.3860 H   0  0  0  0  0  0  0  0  0  0  0  0
  -10.6430    2.7720   -7.8210 H   0  0  0  0  0  0  0  0  0  0  0  0
   -9.8080    1.2390   -7.9620 H   0  0  0  0  0  0  0  0  0  0  0  0
   -9.3300    2.2730   -5.9270 H   0  0  0  0  0  0  0  0  0  0  0  0
   -8.2260    4.3450   -5.7060 H   0  0  0  0  0  0  0  0  0  0  0  0
   -9.7600    4.5280   -6.5470 H   0  0  0  0  0  0  0  0  0  0  0  0
   -8.1860    5.7990   -7.7880 H   0  0  0  0  0  0  0  0  0  0  0  0
   -6.9500    4.5600   -7.8820 H   0  0  0  0  0  0  0  0  0  0  0  0
   -9.0310    3.4440  -11.6200 H   0  0  0  0  0  0  0  0  0  0  0  0
   -9.2480    4.8870  -13.5540 H   0  0  0  0  0  0  0  0  0  0  0  0
  1  2  2  0
  2  3  2  0
  2  4  1  0
  4  5  1  0
  5  6  1  0
  6  7  2  0
  7  8  1  0
  8  9  2  0
  9 10  1  0
 10 11  2  0
 11 12  1  0
 12 13  1  0
 13 14  2  0
  2 15  1  0
 15 16  2  0
 16 17  1  0
 17 18  2  0
 18 19  1  0
 19 20  1  0
 20 21  1  0
 21 22  1  0
 22 23  1  0
 23 24  1  0
 18 25  1  0
 25 26  2  0
 11  6  1  0
 14 10  1  0
 26 15  1  0
 24 19  1  0
  4 27  1  0
  5 28  1  0
  5 29  1  0
  7 30  1  0
  8 31  1  0
  9 32  1  0
 13 33  1  0
 14 34  1  0
 16 35  1  0
 17 36  1  0
 20 37  1  0
 20 38  1  0
 21 39  1  0
 21 40  1  0
 22 41  1  0
 23 42  1  0
 23 43  1  0
 24 44  1  0
 24 45  1  0
 25 46  1  0
 26 47  1  0
A    1
 O1 
A    2
 S1 
A    3
 O2 
A    4
 N1 
A    5
 C1 
A    6
 C2 
A    7
 C3 
A    8
 C4 
A    9
 C5 
A   10
 C6 
A   11
 C7 
A   12
 S2 
A   13
 C8 
A   14
 C9 
A   15
 C10
A   16
 C11
A   17
 C12
A   18
 C13
A   19
 N2 
A   20
 C14
A   21
 C15
A   22
 N3 
A   23
 C16
A   24
 C17
A   25
 C18
A   26
 C19
A   27
 H1 
A   28
 H2 
A   29
 H3 
A   30
 H4 
A   31
 H5 
A   32
 H6 
A   33
 H7 
A   34
 H8 
A   35
 H9 
A   36
 H10
A   37
 H11
A   38
 H12
A   39
 H13
A   40
 H14
A   41
 H15
A   42
 H16
A   43
 H17
A   44
 H18
A   45
 H19
A   46
 H20
A   47
 H21
M  END
>  <ref_pdb>  (107) 
x0051_0B

>  <ref_mols>  (107) 
x0490_0B,x0404_0B

>  <original SMILES>  (107) 
[H]c1sc2c(C([H])([H])N([H])S(=O)(=O)c3c([H])c([H])c(N4C([H])([H])C([H])([H])N([H])C([H])([H])C4([H])[H])c([H])c3[H])c([H])c([H])c([H])c2c1[H]

>  <index>  (107) 
627

>  <∆∆G>  (107) 
-9.965283

>  <∆G_bound>  (107) 
-9.619494

>  <∆G_unbound>  (107) 
0.345788

>  <comRMSD>  (107) 
0.768738

>  <N_constrained_atoms>  (107) 
25.0

>  <N_unconstrained_atoms>  (107) 
1.0

>  <runtime>  (107) 
66.123185

>  <LE>  (107) 
0.38328

>  <percent_hybrid>  (107) 
36.0

>  <dist>  (107) 
7.0

>  <ecfp4>  (107) 
0.320513

>  <daylight>  (107) 
0.270916

>  <topodist>  (107) 
2.0

>  <mces>  (107) 
29.0

>  <tdn>  (107) 
2.0

>  <tup>  (107) 
0.0

>  <rdn>  (107) 
0.0

>  <rup>  (107) 
0.0

>  <ldn>  (107) 
0.0

>  <lup>  (107) 
0.0

>  <mut>  (107) 
4.0

>  <maj>  (107) 
4.0

>  <min>  (107) 
0.0

>  <hyb>  (107) 
1.0

>  <sub>  (107) 
0.0

>  <query_index>  (107) 
10.0

>  <max_hit_Tanimoto>  (107) 
0.369536

>  <largest_ring>  (107) 
6

>  <N_interactions_kept>  (107) 
0.0

>  <N_interactions_lost>  (107) 
4.5

>  <interaction_uniqueness_metric>  (107) 
0.257608

>  <ad_hoc_penalty>  (107) 
-18.337481

>  <N_rotatable_bonds>  (107) 
5

>  <N_HA>  (107) 
26

>  <cluster>  (107) 
5646

>  <N_interactions>  (107) 
9

>  <Enamine>  (107) 
1

>  <Mcule>  (107) 
0

>  <N_PAINS>  (107) 
0

>  <UFF_Gibbs>  (107) 
171.081856

>  <strain_per_HA>  (107) 
6.580071

>  <intxn_scored>  (107) 
10.5

>  <saltbridge:HIS:51>  (107) 
0

>  <pistack:HIS:51>  (107) 
1

>  <hydroph_interaction:HIS:51>  (107) 
1

>  <hbond:ALA:132>  (107) 
0

>  <hbond:SER:135>  (107) 
0

>  <hydroph_interaction:TYR:150>  (107) 
1

>  <pistack:TYR:161>  (107) 
1

>  <hydroph_interaction:TYR:161>  (107) 
3

>  <hydroph_interaction:ASP:83>  (107) 
0

>  <hbond:TYR:130>  (107) 
0

>  <hydroph_interaction:ALA:132>  (107) 
1

>  <hbond:HIS:51>  (107) 
0

>  <hbond:ASP:129>  (107) 
0

>  <hbond:TYR:150>  (107) 
0

>  <hbond:GLY:151>  (107) 
0

>  <hbond:TYR:161>  (107) 
0

>  <hydroph_interaction:TYR:130>  (107) 
0

>  <hydroph_interaction:PRO:131>  (107) 
0

>  <hydroph_interaction:ASP:129>  (107) 
0

>  <saltbridge:ASP:75>  (107) 
0

>  <saltbridge:ASP:83>  (107) 
0

>  <hbond:ASN:152>  (107) 
0

>  <hydroph_interaction:ASN:152>  (107) 
0

>  <halogenbond:TYR:150>  (107) 
0

>  <hbond:ASP:83>  (107) 
0

>  <hydroph_interaction:VAL:155>  (107) 
0

>  <pication:TYR:161>  (107) 
0

>  <hbond:PRO:131>  (107) 
0

>  <saltbridge:ASP:129>  (107) 
0

>  <hbond:THR:134>  (107) 
0

>  <pication:HIS:51>  (107) 
0

>  <hbond:SER:81>  (107) 
1

>  <hydroph_interaction:THR:134>  (107) 
0

>  <hydroph_interaction:MET:49>  (107) 
0

$$$$
PV-002737207295
     RDKit          3D

 21 22  0  0  0  0  0  0  0  0999 V2000
   -3.7860    5.1090  -15.6110 C   0  0  0  0  0  0  0  0  0  0  0  0
   -5.1350    5.7110  -15.8900 C   0  0  0  0  0  0  0  0  0  0  0  0
   -5.7220    5.5650  -17.1510 C   0  0  0  0  0  0  0  0  0  0  0  0
   -4.7500    5.6880  -18.2280 N   0  0  0  0  0  0  0  0  0  0  0  0
   -5.2140    5.5560  -19.5340 C   0  0  0  0  0  0  0  0  0  0  0  0
   -6.5570    5.3160  -19.7960 C   0  0  0  0  0  0  0  0  0  0  0  0
   -7.4930    5.1980  -18.7610 C   0  0  0  0  0  0  0  0  0  0  0  0
   -8.9450    4.9280  -19.1660 C   0  0  0  0  0  0  0  0  0  0  0  0
   -9.9910    4.7940  -18.0720 C   0  0  0  0  0  0  0  0  0  0  0  0
  -11.2640    4.5670  -18.3800 F   0  0  0  0  0  0  0  0  0  0  0  0
   -9.5310    4.9340  -16.6230 C   0  0  0  0  0  0  0  0  0  0  0  0
   -8.0520    5.2000  -16.3360 C   0  0  0  0  0  0  0  0  0  0  0  0
   -7.1000    5.3220  -17.3810 C   0  0  0  0  0  0  0  0  0  0  0  0
   -3.2340    4.5470  -16.3760 H   0  0  0  0  0  0  0  0  0  0  0  0
   -3.3170    5.2170  -14.6280 H   0  0  0  0  0  0  0  0  0  0  0  0
   -5.6560    6.2610  -15.1100 H   0  0  0  0  0  0  0  0  0  0  0  0
   -4.4710    5.6520  -20.3220 H   0  0  0  0  0  0  0  0  0  0  0  0
   -6.8700    5.2200  -20.8400 H   0  0  0  0  0  0  0  0  0  0  0  0
   -9.2170    4.8370  -20.2160 H   0  0  0  0  0  0  0  0  0  0  0  0
  -10.2230    4.8470  -15.7920 H   0  0  0  0  0  0  0  0  0  0  0  0
   -7.7370    5.2940  -15.2980 H   0  0  0  0  0  0  0  0  0  0  0  0
  1  2  2  3
  2  3  1  0
  3  4  2  0
  4  5  1  0
  5  6  2  0
  6  7  1  0
  7  8  2  0
  8  9  1  0
  9 10  1  0
  9 11  2  0
 11 12  1  0
 12 13  2  0
 13  3  1  0
 13  7  1  0
  1 14  1  0
  1 15  1  0
  2 16  1  0
  5 17  1  0
  6 18  1  0
  8 19  1  0
 11 20  1  0
 12 21  1  0
A    1
 C1 
A    2
 C2 
A    3
 C3 
A    4
 N1 
A    5
 C4 
A    6
 C5 
A    7
 C6 
A    8
 C7 
A    9
 C8 
A   10
 F1 
A   11
 C9 
A   12
 C10
A   13
 C11
A   14
 H1 
A   15
 H2 
A   16
 H3 
A   17
 H4 
A   18
 H5 
A   19
 H6 
A   20
 H7 
A   21
 H8 
M  END
>  <ref_pdb>  (108) 
x0051_0B

>  <ref_mols>  (108) 
x0727_0B,x0605_0B

>  <original SMILES>  (108) 
[H]C([H])=C([H])c1nc([H])c([H])c2c([H])c(F)c([H])c([H])c12

>  <index>  (108) 
2799

>  <∆∆G>  (108) 
-5.654652

>  <∆G_bound>  (108) 
-5.538281

>  <∆G_unbound>  (108) 
0.116371

>  <comRMSD>  (108) 
0.598717

>  <N_constrained_atoms>  (108) 
14.0

>  <N_unconstrained_atoms>  (108) 
0.0

>  <runtime>  (108) 
20.078169

>  <LE>  (108) 
0.403904

>  <percent_hybrid>  (108) 
29.0

>  <dist>  (108) 
3.0

>  <ecfp4>  (108) 
0.282609

>  <daylight>  (108) 
0.404494

>  <topodist>  (108) 
0.0

>  <mces>  (108) 
14.0

>  <tdn>  (108) 
0.0

>  <tup>  (108) 
0.0

>  <rdn>  (108) 
0.0

>  <rup>  (108) 
0.0

>  <ldn>  (108) 
0.0

>  <lup>  (108) 
0.0

>  <mut>  (108) 
2.0

>  <maj>  (108) 
2.0

>  <min>  (108) 
0.0

>  <hyb>  (108) 
1.0

>  <sub>  (108) 
0.0

>  <query_index>  (108) 
74.0

>  <max_hit_Tanimoto>  (108) 
0.273305

>  <largest_ring>  (108) 
6

>  <N_interactions_kept>  (108) 
0.0

>  <N_interactions_lost>  (108) 
3.5

>  <interaction_uniqueness_metric>  (108) 
0.0473

>  <ad_hoc_penalty>  (108) 
-2.824645

>  <N_rotatable_bonds>  (108) 
1

>  <N_HA>  (108) 
13

>  <cluster>  (108) 
3636

>  <N_interactions>  (108) 
5

>  <Enamine>  (108) 
1

>  <Mcule>  (108) 
0

>  <N_PAINS>  (108) 
0

>  <UFF_Gibbs>  (108) 
67.062066

>  <strain_per_HA>  (108) 
5.15862

>  <intxn_scored>  (108) 
10.5

>  <saltbridge:HIS:51>  (108) 
0

>  <pistack:HIS:51>  (108) 
0

>  <hydroph_interaction:HIS:51>  (108) 
0

>  <hbond:ALA:132>  (108) 
0

>  <hbond:SER:135>  (108) 
0

>  <hydroph_interaction:TYR:150>  (108) 
1

>  <pistack:TYR:161>  (108) 
2

>  <hydroph_interaction:TYR:161>  (108) 
2

>  <hydroph_interaction:ASP:83>  (108) 
0

>  <hbond:TYR:130>  (108) 
0

>  <hydroph_interaction:ALA:132>  (108) 
0

>  <hbond:HIS:51>  (108) 
0

>  <hbond:ASP:129>  (108) 
0

>  <hbond:TYR:150>  (108) 
0

>  <hbond:GLY:151>  (108) 
0

>  <hbond:TYR:161>  (108) 
0

>  <hydroph_interaction:TYR:130>  (108) 
0

>  <hydroph_interaction:PRO:131>  (108) 
0

>  <hydroph_interaction:ASP:129>  (108) 
0

>  <saltbridge:ASP:75>  (108) 
0

>  <saltbridge:ASP:83>  (108) 
0

>  <hbond:ASN:152>  (108) 
0

>  <hydroph_interaction:ASN:152>  (108) 
0

>  <halogenbond:TYR:150>  (108) 
0

>  <hbond:ASP:83>  (108) 
0

>  <hydroph_interaction:VAL:155>  (108) 
0

>  <pication:TYR:161>  (108) 
0

>  <hbond:PRO:131>  (108) 
0

>  <saltbridge:ASP:129>  (108) 
0

>  <hbond:THR:134>  (108) 
0

>  <pication:HIS:51>  (108) 
0

>  <hbond:SER:81>  (108) 
0

>  <hydroph_interaction:THR:134>  (108) 
0

>  <hydroph_interaction:MET:49>  (108) 
0

$$$$
PV-002965971059
     RDKit          3D

 25 26  0  0  0  0  0  0  0  0999 V2000
   -3.2620    4.4750  -16.5920 C   0  0  0  0  0  0  0  0  0  0  0  0
   -3.9870    5.4220  -15.6330 C   0  0  0  0  0  0  0  0  0  0  0  0
   -5.2880    5.6710  -15.8580 N   0  0  0  0  0  0  0  0  0  0  0  0
   -5.7470    5.5420  -17.1890 C   0  0  0  0  0  0  0  0  0  0  0  0
   -4.8350    5.6660  -18.2040 N   0  0  0  0  0  0  0  0  0  0  0  0
   -5.3100    5.5320  -19.5030 C   0  0  0  0  0  0  0  0  0  0  0  0
   -6.7830    5.2610  -19.8180 C   0  0  0  0  0  0  0  0  0  0  0  0
   -7.5770    5.1650  -18.6930 C   0  0  0  0  0  0  0  0  0  0  0  0
   -9.0160    4.8970  -19.0820 C   0  0  0  0  0  0  0  0  0  0  0  0
   -9.9770    4.7680  -18.0650 C   0  0  0  0  0  0  0  0  0  0  0  0
  -11.2530    4.5390  -18.3650 F   0  0  0  0  0  0  0  0  0  0  0  0
   -9.5350    4.8940  -16.7250 C   0  0  0  0  0  0  0  0  0  0  0  0
   -8.0710    5.1630  -16.3750 C   0  0  0  0  0  0  0  0  0  0  0  0
   -7.1210    5.2940  -17.3880 C   0  0  0  0  0  0  0  0  0  0  0  0
   -3.8640    4.2140  -17.4580 H   0  0  0  0  0  0  0  0  0  0  0  0
   -3.0230    3.5420  -16.0740 H   0  0  0  0  0  0  0  0  0  0  0  0
   -2.3160    4.8940  -16.9480 H   0  0  0  0  0  0  0  0  0  0  0  0
   -3.3080    6.2820  -15.5640 H   0  0  0  0  0  0  0  0  0  0  0  0
   -3.9210    4.9420  -14.6500 H   0  0  0  0  0  0  0  0  0  0  0  0
   -5.8940    5.1240  -15.2570 H   0  0  0  0  0  0  0  0  0  0  0  0
   -4.5420    5.6350  -20.2570 H   0  0  0  0  0  0  0  0  0  0  0  0
   -7.2500    5.1390  -20.8020 H   0  0  0  0  0  0  0  0  0  0  0  0
   -9.3230    4.8050  -20.1220 H   0  0  0  0  0  0  0  0  0  0  0  0
  -10.2570    4.7950  -15.9180 H   0  0  0  0  0  0  0  0  0  0  0  0
   -7.7790    5.2510  -15.3330 H   0  0  0  0  0  0  0  0  0  0  0  0
  1  2  1  0
  2  3  1  0
  3  4  1  0
  4  5  2  0
  5  6  1  0
  6  7  2  0
  7  8  1  0
  8  9  2  0
  9 10  1  0
 10 11  1  0
 10 12  2  0
 12 13  1  0
 13 14  2  0
 14  4  1  0
 14  8  1  0
  1 15  1  0
  1 16  1  0
  1 17  1  0
  2 18  1  0
  2 19  1  0
  3 20  1  0
  6 21  1  0
  7 22  1  0
  9 23  1  0
 12 24  1  0
 13 25  1  0
A    1
 C1 
A    2
 C2 
A    3
 N1 
A    4
 C3 
A    5
 N2 
A    6
 C4 
A    7
 C5 
A    8
 C6 
A    9
 C7 
A   10
 C8 
A   11
 F1 
A   12
 C9 
A   13
 C10
A   14
 C11
A   15
 H1 
A   16
 H2 
A   17
 H3 
A   18
 H4 
A   19
 H5 
A   20
 H6 
A   21
 H7 
A   22
 H8 
A   23
 H9 
A   24
 H10
A   25
 H11
M  END
>  <ref_pdb>  (109) 
x0051_0B

>  <ref_mols>  (109) 
x0727_0B,x0605_0B

>  <original SMILES>  (109) 
[H]c1nc(N([H])C([H])([H])C([H])([H])[H])c2c([H])c([H])c(F)c([H])c2c1[H]

>  <index>  (109) 
2318

>  <∆∆G>  (109) 
-6.742824

>  <∆G_bound>  (109) 
-6.630165

>  <∆G_unbound>  (109) 
0.112659

>  <comRMSD>  (109) 
0.435538

>  <N_constrained_atoms>  (109) 
14.0

>  <N_unconstrained_atoms>  (109) 
1.0

>  <runtime>  (109) 
21.812014

>  <LE>  (109) 
0.449522

>  <percent_hybrid>  (109) 
29.0

>  <dist>  (109) 
2.0

>  <ecfp4>  (109) 
0.409091

>  <daylight>  (109) 
0.666667

>  <topodist>  (109) 
1.0

>  <mces>  (109) 
14.0

>  <tdn>  (109) 
0.0

>  <tup>  (109) 
1.0

>  <rdn>  (109) 
0.0

>  <rup>  (109) 
0.0

>  <ldn>  (109) 
0.0

>  <lup>  (109) 
0.0

>  <mut>  (109) 
1.0

>  <maj>  (109) 
1.0

>  <min>  (109) 
0.0

>  <hyb>  (109) 
0.0

>  <sub>  (109) 
1.0

>  <query_index>  (109) 
74.0

>  <max_hit_Tanimoto>  (109) 
0.738544

>  <largest_ring>  (109) 
6

>  <N_interactions_kept>  (109) 
0.0

>  <N_interactions_lost>  (109) 
3.5

>  <interaction_uniqueness_metric>  (109) 
0.080468

>  <ad_hoc_penalty>  (109) 
-2.353383

>  <N_rotatable_bonds>  (109) 
3

>  <N_HA>  (109) 
14

>  <cluster>  (109) 
4088

>  <N_interactions>  (109) 
6

>  <Enamine>  (109) 
1

>  <Mcule>  (109) 
0

>  <N_PAINS>  (109) 
0

>  <UFF_Gibbs>  (109) 
119.321958

>  <strain_per_HA>  (109) 
8.522997

>  <intxn_scored>  (109) 
10.5

>  <saltbridge:HIS:51>  (109) 
0

>  <pistack:HIS:51>  (109) 
0

>  <hydroph_interaction:HIS:51>  (109) 
0

>  <hbond:ALA:132>  (109) 
0

>  <hbond:SER:135>  (109) 
0

>  <hydroph_interaction:TYR:150>  (109) 
1

>  <pistack:TYR:161>  (109) 
2

>  <hydroph_interaction:TYR:161>  (109) 
2

>  <hydroph_interaction:ASP:83>  (109) 
0

>  <hbond:TYR:130>  (109) 
0

>  <hydroph_interaction:ALA:132>  (109) 
0

>  <hbond:HIS:51>  (109) 
0

>  <hbond:ASP:129>  (109) 
0

>  <hbond:TYR:150>  (109) 
0

>  <hbond:GLY:151>  (109) 
0

>  <hbond:TYR:161>  (109) 
0

>  <hydroph_interaction:TYR:130>  (109) 
0

>  <hydroph_interaction:PRO:131>  (109) 
0

>  <hydroph_interaction:ASP:129>  (109) 
0

>  <saltbridge:ASP:75>  (109) 
0

>  <saltbridge:ASP:83>  (109) 
0

>  <hbond:ASN:152>  (109) 
0

>  <hydroph_interaction:ASN:152>  (109) 
0

>  <halogenbond:TYR:150>  (109) 
0

>  <hbond:ASP:83>  (109) 
0

>  <hydroph_interaction:VAL:155>  (109) 
1

>  <pication:TYR:161>  (109) 
0

>  <hbond:PRO:131>  (109) 
0

>  <saltbridge:ASP:129>  (109) 
0

>  <hbond:THR:134>  (109) 
0

>  <pication:HIS:51>  (109) 
0

>  <hbond:SER:81>  (109) 
0

>  <hydroph_interaction:THR:134>  (109) 
0

>  <hydroph_interaction:MET:49>  (109) 
0

$$$$
CSSB00010288077
     RDKit          3D

 20 21  0  0  0  0  0  0  0  0999 V2000
  -11.0600    4.9550  -18.5660 C   0  0  0  0  0  0  0  0  0  0  0  0
   -9.6780    4.9820  -18.0940 C   0  0  0  0  0  0  0  0  0  0  0  0
   -9.2990    4.9870  -16.6210 C   0  0  0  0  0  0  0  0  0  0  0  0
   -7.8030    5.0970  -16.3930 C   0  0  0  0  0  0  0  0  0  0  0  0
   -7.1200    5.1450  -14.6360 Br  0  0  0  0  0  0  0  0  0  0  0  0
   -6.9310    5.1770  -17.5060 C   0  0  0  0  0  0  0  0  0  0  0  0
   -5.6200    5.2930  -17.6870 N   0  0  0  0  0  0  0  0  0  0  0  0
   -5.2950    5.3310  -18.9880 C   0  0  0  0  0  0  0  0  0  0  0  0
   -4.0380    5.4530  -19.4170 N   0  0  0  0  0  0  0  0  0  0  0  0
   -6.3610    5.2360  -19.7130 N   0  0  0  0  0  0  0  0  0  0  0  0
   -7.3980    5.1460  -18.8190 C   0  0  0  0  0  0  0  0  0  0  0  0
   -8.7340    5.0460  -19.1060 C   0  0  0  0  0  0  0  0  0  0  0  0
  -11.0600    5.2750  -19.6040 H   0  0  0  0  0  0  0  0  0  0  0  0
  -11.5920    5.7150  -18.0620 H   0  0  0  0  0  0  0  0  0  0  0  0
  -11.5540    4.0110  -18.4470 H   0  0  0  0  0  0  0  0  0  0  0  0
  -10.0370    4.9320  -15.8250 H   0  0  0  0  0  0  0  0  0  0  0  0
   -4.9490    5.3490  -16.9370 H   0  0  0  0  0  0  0  0  0  0  0  0
   -3.3350    5.3150  -18.6970 H   0  0  0  0  0  0  0  0  0  0  0  0
   -3.7580    5.0660  -20.3110 H   0  0  0  0  0  0  0  0  0  0  0  0
   -9.0380    5.0340  -20.1470 H   0  0  0  0  0  0  0  0  0  0  0  0
  1  2  1  0
  2  3  2  0
  3  4  1  0
  4  5  1  0
  4  6  2  0
  6  7  1  0
  7  8  1  0
  8  9  1  0
  8 10  2  0
 10 11  1  0
 11 12  2  0
 12  2  1  0
 11  6  1  0
  1 13  1  0
  1 14  1  0
  1 15  1  0
  3 16  1  0
  7 17  1  0
  9 18  1  0
  9 19  1  0
 12 20  1  0
A    1
 C1 
A    2
 C2 
A    3
 C3 
A    4
 C4 
A    5
BR1 
A    6
 C5 
A    7
 N1 
A    8
 C6 
A    9
 N2 
A   10
 N3 
A   11
 C7 
A   12
 C8 
A   13
 H1 
A   14
 H2 
A   15
 H3 
A   16
 H4 
A   17
 H5 
A   18
 H6 
A   19
 H7 
A   20
 H8 
M  END
>  <ref_pdb>  (110) 
x0051_0B

>  <ref_mols>  (110) 
x0089_0B,x0605_0B

>  <original SMILES>  (110) 
[H]c1c(C([H])([H])[H])c([H])c2nc(N([H])[H])n([H])c2c1Br

>  <index>  (110) 
3434

>  <∆∆G>  (110) 
-5.459492

>  <∆G_bound>  (110) 
-5.358393

>  <∆G_unbound>  (110) 
0.101099

>  <comRMSD>  (110) 
0.757869

>  <N_constrained_atoms>  (110) 
13.0

>  <N_unconstrained_atoms>  (110) 
0.0

>  <runtime>  (110) 
23.288828

>  <LE>  (110) 
0.419961

>  <percent_hybrid>  (110) 
34.0

>  <dist>  (110) 
4.0

>  <ecfp4>  (110) 
0.361702

>  <daylight>  (110) 
0.54902

>  <topodist>  (110) 
3.0

>  <mces>  (110) 
13.0

>  <tdn>  (110) 
3.0

>  <tup>  (110) 
0.0

>  <rdn>  (110) 
0.0

>  <rup>  (110) 
0.0

>  <ldn>  (110) 
0.0

>  <lup>  (110) 
0.0

>  <mut>  (110) 
1.0

>  <maj>  (110) 
1.0

>  <min>  (110) 
0.0

>  <hyb>  (110) 
0.0

>  <sub>  (110) 
1.0

>  <query_index>  (110) 
118.0

>  <max_hit_Tanimoto>  (110) 
0.397338

>  <largest_ring>  (110) 
6

>  <N_interactions_kept>  (110) 
0.5

>  <N_interactions_lost>  (110) 
3.0

>  <interaction_uniqueness_metric>  (110) 
0.118838

>  <ad_hoc_penalty>  (110) 
-1.815445

>  <N_rotatable_bonds>  (110) 
2

>  <N_HA>  (110) 
12

>  <cluster>  (110) 
3032

>  <N_interactions>  (110) 
4

>  <Enamine>  (110) 
1

>  <Mcule>  (110) 
0

>  <N_PAINS>  (110) 
0

>  <UFF_Gibbs>  (110) 
47.245596

>  <strain_per_HA>  (110) 
3.937133

>  <intxn_scored>  (110) 
10.5

>  <saltbridge:HIS:51>  (110) 
0

>  <pistack:HIS:51>  (110) 
0

>  <hydroph_interaction:HIS:51>  (110) 
0

>  <hbond:ALA:132>  (110) 
0

>  <hbond:SER:135>  (110) 
0

>  <hydroph_interaction:TYR:150>  (110) 
1

>  <pistack:TYR:161>  (110) 
2

>  <hydroph_interaction:TYR:161>  (110) 
0

>  <hydroph_interaction:ASP:83>  (110) 
0

>  <hbond:TYR:130>  (110) 
0

>  <hydroph_interaction:ALA:132>  (110) 
0

>  <hbond:HIS:51>  (110) 
0

>  <hbond:ASP:129>  (110) 
0

>  <hbond:TYR:150>  (110) 
0

>  <hbond:GLY:151>  (110) 
0

>  <hbond:TYR:161>  (110) 
0

>  <hydroph_interaction:TYR:130>  (110) 
0

>  <hydroph_interaction:PRO:131>  (110) 
0

>  <hydroph_interaction:ASP:129>  (110) 
0

>  <saltbridge:ASP:75>  (110) 
0

>  <saltbridge:ASP:83>  (110) 
0

>  <hbond:ASN:152>  (110) 
0

>  <hydroph_interaction:ASN:152>  (110) 
0

>  <halogenbond:TYR:150>  (110) 
0

>  <hbond:ASP:83>  (110) 
0

>  <hydroph_interaction:VAL:155>  (110) 
0

>  <pication:TYR:161>  (110) 
1

>  <hbond:PRO:131>  (110) 
0

>  <saltbridge:ASP:129>  (110) 
0

>  <hbond:THR:134>  (110) 
0

>  <pication:HIS:51>  (110) 
0

>  <hbond:SER:81>  (110) 
0

>  <hydroph_interaction:THR:134>  (110) 
0

>  <hydroph_interaction:MET:49>  (110) 
0

$$$$
CSSB00009944813
     RDKit          3D

 28 30  0  0  0  0  0  0  0  0999 V2000
   -6.5510    4.8560  -14.5840 N   0  0  0  0  0  0  0  0  0  0  0  0
   -7.9590    5.2180  -14.6480 C   0  0  0  0  0  0  0  0  0  0  0  0
   -8.3300    5.5410  -16.0550 C   0  0  0  0  0  0  0  0  0  0  0  0
   -9.2270    4.6930  -16.7200 C   0  0  0  0  0  0  0  0  0  0  0  0
   -9.4330    4.6960  -18.1000 C   0  0  0  0  0  0  0  0  0  0  0  0
   -8.2890    4.8080  -18.8660 C   0  0  0  0  0  0  0  0  0  0  0  0
   -7.1600    5.2640  -18.2320 C   0  0  0  0  0  0  0  0  0  0  0  0
   -5.8500    5.4080  -18.9610 C   0  0  0  0  0  0  0  0  0  0  0  0
   -4.9720    5.8700  -18.0340 N   0  0  0  0  0  0  0  0  0  0  0  0
   -5.6020    6.0270  -16.8130 C   0  0  0  0  0  0  0  0  0  0  0  0
   -7.1000    5.6290  -16.8990 C   0  0  0  0  0  0  0  0  0  0  0  0
   -5.7550    5.0880  -20.2880 C   0  0  0  0  0  0  0  0  0  0  0  0
   -7.0100    4.5970  -20.9370 C   0  0  0  0  0  0  0  0  0  0  0  0
   -8.1980    4.4880  -20.2020 C   0  0  0  0  0  0  0  0  0  0  0  0
   -6.3860    4.0680  -15.2110 H   0  0  0  0  0  0  0  0  0  0  0  0
   -5.9900    5.6270  -14.9320 H   0  0  0  0  0  0  0  0  0  0  0  0
   -8.1530    6.0700  -13.9890 H   0  0  0  0  0  0  0  0  0  0  0  0
   -8.5650    4.3850  -14.2740 H   0  0  0  0  0  0  0  0  0  0  0  0
   -8.7850    6.5330  -16.0570 H   0  0  0  0  0  0  0  0  0  0  0  0
  -10.1970    4.7420  -16.2120 H   0  0  0  0  0  0  0  0  0  0  0  0
   -8.8180    3.7150  -16.5120 H   0  0  0  0  0  0  0  0  0  0  0  0
   -9.8680    3.7350  -18.3720 H   0  0  0  0  0  0  0  0  0  0  0  0
  -10.1790    5.4420  -18.3620 H   0  0  0  0  0  0  0  0  0  0  0  0
   -3.9780    6.0730  -18.2180 H   0  0  0  0  0  0  0  0  0  0  0  0
   -5.0240    6.3900  -15.9740 H   0  0  0  0  0  0  0  0  0  0  0  0
   -4.8300    5.1790  -20.8440 H   0  0  0  0  0  0  0  0  0  0  0  0
   -6.9880    4.3300  -21.9850 H   0  0  0  0  0  0  0  0  0  0  0  0
   -9.0810    4.1430  -20.6940 H   0  0  0  0  0  0  0  0  0  0  0  0
  1  2  1  0
  2  3  1  0
  3  4  1  0
  4  5  1  0
  5  6  1  0
  6  7  2  0
  7  8  1  0
  8  9  1  0
  9 10  1  0
 10 11  2  0
  8 12  2  0
 12 13  1  0
 13 14  2  0
 11  3  1  0
 14  6  1  0
 11  7  1  0
  1 15  1  0
  1 16  1  0
  2 17  1  0
  2 18  1  0
  3 19  1  0
  4 20  1  0
  4 21  1  0
  5 22  1  0
  5 23  1  0
  9 24  1  0
 10 25  1  0
 12 26  1  0
 13 27  1  0
 14 28  1  0
A    1
 N1 
A    2
 C1 
A    3
 C2 
A    4
 C3 
A    5
 C4 
A    6
 C5 
A    7
 C6 
A    8
 C7 
A    9
 N2 
A   10
 C8 
A   11
 C9 
A   12
 C10
A   13
 C11
A   14
 C12
A   15
 H1 
A   16
 H2 
A   17
 H3 
A   18
 H4 
A   19
 H5 
A   20
 H6 
A   21
 H7 
A   22
 H8 
A   23
 H9 
A   24
 H10
A   25
 H11
A   26
 H12
A   27
 H13
A   28
 H14
M  END
>  <ref_pdb>  (111) 
x0051_0B

>  <ref_mols>  (111) 
x0727_0B,x0455_0B

>  <original SMILES>  (111) 
[H]c1c([H])c([H])c2c3c1C([H])([H])C([H])([H])C([H])(C([H])([H])N([H])[H])c3c([H])n2[H]

>  <index>  (111) 
1173

>  <∆∆G>  (111) 
-5.35092

>  <∆G_bound>  (111) 
-5.201509

>  <∆G_unbound>  (111) 
0.149411

>  <comRMSD>  (111) 
0.787063

>  <N_constrained_atoms>  (111) 
13.0

>  <N_unconstrained_atoms>  (111) 
2.0

>  <runtime>  (111) 
27.554076

>  <LE>  (111) 
0.356728

>  <percent_hybrid>  (111) 
40.0

>  <dist>  (111) 
3.0

>  <ecfp4>  (111) 
0.222222

>  <daylight>  (111) 
0.532258

>  <topodist>  (111) 
2.0

>  <mces>  (111) 
15.0

>  <tdn>  (111) 
0.0

>  <tup>  (111) 
1.0

>  <rdn>  (111) 
0.0

>  <rup>  (111) 
0.0

>  <ldn>  (111) 
1.0

>  <lup>  (111) 
0.0

>  <mut>  (111) 
1.0

>  <maj>  (111) 
1.0

>  <min>  (111) 
0.0

>  <hyb>  (111) 
0.0

>  <sub>  (111) 
1.0

>  <query_index>  (111) 
57.0

>  <max_hit_Tanimoto>  (111) 
0.201641

>  <largest_ring>  (111) 
6

>  <N_interactions_kept>  (111) 
1.0

>  <N_interactions_lost>  (111) 
2.0

>  <interaction_uniqueness_metric>  (111) 
0.053751

>  <ad_hoc_penalty>  (111) 
-5.16909

>  <N_rotatable_bonds>  (111) 
2

>  <N_HA>  (111) 
14

>  <cluster>  (111) 
5140

>  <N_interactions>  (111) 
5

>  <Enamine>  (111) 
1

>  <Mcule>  (111) 
0

>  <N_PAINS>  (111) 
0

>  <UFF_Gibbs>  (111) 
178.6447

>  <strain_per_HA>  (111) 
12.760336

>  <intxn_scored>  (111) 
10.5

>  <saltbridge:HIS:51>  (111) 
0

>  <pistack:HIS:51>  (111) 
0

>  <hydroph_interaction:HIS:51>  (111) 
0

>  <hbond:ALA:132>  (111) 
0

>  <hbond:SER:135>  (111) 
0

>  <hydroph_interaction:TYR:150>  (111) 
0

>  <pistack:TYR:161>  (111) 
2

>  <hydroph_interaction:TYR:161>  (111) 
2

>  <hydroph_interaction:ASP:83>  (111) 
0

>  <hbond:TYR:130>  (111) 
0

>  <hydroph_interaction:ALA:132>  (111) 
1

>  <hbond:HIS:51>  (111) 
0

>  <hbond:ASP:129>  (111) 
0

>  <hbond:TYR:150>  (111) 
0

>  <hbond:GLY:151>  (111) 
0

>  <hbond:TYR:161>  (111) 
0

>  <hydroph_interaction:TYR:130>  (111) 
0

>  <hydroph_interaction:PRO:131>  (111) 
0

>  <hydroph_interaction:ASP:129>  (111) 
0

>  <saltbridge:ASP:75>  (111) 
0

>  <saltbridge:ASP:83>  (111) 
0

>  <hbond:ASN:152>  (111) 
0

>  <hydroph_interaction:ASN:152>  (111) 
0

>  <halogenbond:TYR:150>  (111) 
0

>  <hbond:ASP:83>  (111) 
0

>  <hydroph_interaction:VAL:155>  (111) 
0

>  <pication:TYR:161>  (111) 
0

>  <hbond:PRO:131>  (111) 
0

>  <saltbridge:ASP:129>  (111) 
0

>  <hbond:THR:134>  (111) 
0

>  <pication:HIS:51>  (111) 
0

>  <hbond:SER:81>  (111) 
0

>  <hydroph_interaction:THR:134>  (111) 
0

>  <hydroph_interaction:MET:49>  (111) 
0

$$$$
CSSB00011664644
     RDKit          3D

 27 29  0  0  0  0  0  0  0  0999 V2000
   -4.7030    5.5910  -20.2070 N   0  0  0  0  0  0  0  0  0  0  0  0
   -5.6420    5.4630  -19.5380 C   0  0  0  0  0  0  0  0  0  0  0  0
   -6.8210    5.1670  -19.9990 N   0  0  0  0  0  0  0  0  0  0  0  0
   -7.6460    5.1070  -18.9200 C   0  0  0  0  0  0  0  0  0  0  0  0
   -9.1450    4.7950  -18.9120 C   0  0  0  0  0  0  0  0  0  0  0  0
   -9.8950    4.7710  -17.5850 C   0  0  0  0  0  0  0  0  0  0  0  0
   -9.0470    5.0670  -16.3460 C   0  0  0  0  0  0  0  0  0  0  0  0
   -7.6640    5.3550  -16.3620 C   0  0  0  0  0  0  0  0  0  0  0  0
   -6.9580    5.3700  -17.7320 C   0  0  0  0  0  0  0  0  0  0  0  0
   -5.6490    5.6030  -18.1750 N   0  0  0  0  0  0  0  0  0  0  0  0
   -4.4680    5.9460  -17.3420 C   0  0  0  0  0  0  0  0  0  0  0  0
   -3.2500    5.3840  -17.7110 C   0  0  0  0  0  0  0  0  0  0  0  0
   -3.0530    4.7970  -16.5160 C   0  0  0  0  0  0  0  0  0  0  0  0
   -4.2440    5.1880  -15.9480 C   0  0  0  0  0  0  0  0  0  0  0  0
   -4.8970    5.5300  -21.2030 H   0  0  0  0  0  0  0  0  0  0  0  0
   -3.8280    5.1480  -19.9650 H   0  0  0  0  0  0  0  0  0  0  0  0
   -9.6550    4.5980  -19.8470 H   0  0  0  0  0  0  0  0  0  0  0  0
  -10.9540    4.5570  -17.5360 H   0  0  0  0  0  0  0  0  0  0  0  0
   -9.6200    5.0370  -15.4110 H   0  0  0  0  0  0  0  0  0  0  0  0
   -7.1180    5.5570  -15.4480 H   0  0  0  0  0  0  0  0  0  0  0  0
   -4.3600    7.0320  -17.2210 H   0  0  0  0  0  0  0  0  0  0  0  0
   -2.4450    6.0730  -17.9670 H   0  0  0  0  0  0  0  0  0  0  0  0
   -3.3220    4.6730  -18.5400 H   0  0  0  0  0  0  0  0  0  0  0  0
   -2.1460    5.1740  -16.0340 H   0  0  0  0  0  0  0  0  0  0  0  0
   -2.9420    3.7190  -16.6090 H   0  0  0  0  0  0  0  0  0  0  0  0
   -4.1300    5.8060  -15.0540 H   0  0  0  0  0  0  0  0  0  0  0  0
   -4.9530    4.3890  -15.7260 H   0  0  0  0  0  0  0  0  0  0  0  0
  1  2  1  0
  2  3  2  0
  3  4  1  0
  4  5  2  0
  5  6  1  0
  6  7  2  0
  7  8  1  0
  8  9  2  0
  9 10  1  0
 10 11  1  0
 11 12  1  0
 12 13  1  0
 13 14  1  0
 10  2  1  0
  9  4  1  0
 14 11  1  0
  1 15  1  0
  1 16  1  0
  5 17  1  0
  6 18  1  0
  7 19  1  0
  8 20  1  0
 11 21  1  0
 12 22  1  0
 12 23  1  0
 13 24  1  0
 13 25  1  0
 14 26  1  0
 14 27  1  0
A    1
 N1 
A    2
 C1 
A    3
 N2 
A    4
 C2 
A    5
 C3 
A    6
 C4 
A    7
 C5 
A    8
 C6 
A    9
 C7 
A   10
 N3 
A   11
 C8 
A   12
 C9 
A   13
 C10
A   14
 C11
A   15
 H1 
A   16
 H2 
A   17
 H3 
A   18
 H4 
A   19
 H5 
A   20
 H6 
A   21
 H7 
A   22
 H8 
A   23
 H9 
A   24
 H10
A   25
 H11
A   26
 H12
A   27
 H13
M  END
>  <ref_pdb>  (112) 
x0051_0B

>  <ref_mols>  (112) 
x0089_0B,x0472_0B

>  <original SMILES>  (112) 
[H]c1c([H])c([H])c2c(nc(N([H])[H])n2C2([H])C([H])([H])C([H])([H])C2([H])[H])c1[H]

>  <index>  (112) 
1463

>  <∆∆G>  (112) 
-5.469516

>  <∆G_bound>  (112) 
-4.928341

>  <∆G_unbound>  (112) 
0.541175

>  <comRMSD>  (112) 
0.972034

>  <N_constrained_atoms>  (112) 
18.0

>  <N_unconstrained_atoms>  (112) 
0.0

>  <runtime>  (112) 
20.911521

>  <LE>  (112) 
0.303862

>  <percent_hybrid>  (112) 
50.0

>  <dist>  (112) 
4.0

>  <ecfp4>  (112) 
0.38

>  <daylight>  (112) 
0.612403

>  <topodist>  (112) 
4.0

>  <mces>  (112) 
15.0

>  <tdn>  (112) 
2.0

>  <tup>  (112) 
0.0

>  <rdn>  (112) 
1.0

>  <rup>  (112) 
1.0

>  <ldn>  (112) 
0.0

>  <lup>  (112) 
0.0

>  <mut>  (112) 
0.0

>  <maj>  (112) 
0.0

>  <min>  (112) 
0.0

>  <hyb>  (112) 
0.0

>  <sub>  (112) 
3.0

>  <query_index>  (112) 
249.0

>  <max_hit_Tanimoto>  (112) 
0.325949

>  <largest_ring>  (112) 
6

>  <N_interactions_kept>  (112) 
1.0

>  <N_interactions_lost>  (112) 
3.0

>  <interaction_uniqueness_metric>  (112) 
0.080468

>  <ad_hoc_penalty>  (112) 
-2.163255

>  <N_rotatable_bonds>  (112) 
2

>  <N_HA>  (112) 
14

>  <cluster>  (112) 
4876

>  <N_interactions>  (112) 
6

>  <Enamine>  (112) 
1

>  <Mcule>  (112) 
0

>  <N_PAINS>  (112) 
0

>  <UFF_Gibbs>  (112) 
192.928484

>  <strain_per_HA>  (112) 
13.780606

>  <intxn_scored>  (112) 
10.5

>  <saltbridge:HIS:51>  (112) 
0

>  <pistack:HIS:51>  (112) 
0

>  <hydroph_interaction:HIS:51>  (112) 
0

>  <hbond:ALA:132>  (112) 
0

>  <hbond:SER:135>  (112) 
0

>  <hydroph_interaction:TYR:150>  (112) 
1

>  <pistack:TYR:161>  (112) 
2

>  <hydroph_interaction:TYR:161>  (112) 
2

>  <hydroph_interaction:ASP:83>  (112) 
0

>  <hbond:TYR:130>  (112) 
0

>  <hydroph_interaction:ALA:132>  (112) 
0

>  <hbond:HIS:51>  (112) 
0

>  <hbond:ASP:129>  (112) 
0

>  <hbond:TYR:150>  (112) 
0

>  <hbond:GLY:151>  (112) 
0

>  <hbond:TYR:161>  (112) 
0

>  <hydroph_interaction:TYR:130>  (112) 
0

>  <hydroph_interaction:PRO:131>  (112) 
0

>  <hydroph_interaction:ASP:129>  (112) 
0

>  <saltbridge:ASP:75>  (112) 
0

>  <saltbridge:ASP:83>  (112) 
0

>  <hbond:ASN:152>  (112) 
0

>  <hydroph_interaction:ASN:152>  (112) 
0

>  <halogenbond:TYR:150>  (112) 
0

>  <hbond:ASP:83>  (112) 
0

>  <hydroph_interaction:VAL:155>  (112) 
1

>  <pication:TYR:161>  (112) 
0

>  <hbond:PRO:131>  (112) 
0

>  <saltbridge:ASP:129>  (112) 
0

>  <hbond:THR:134>  (112) 
0

>  <pication:HIS:51>  (112) 
0

>  <hbond:SER:81>  (112) 
0

>  <hydroph_interaction:THR:134>  (112) 
0

>  <hydroph_interaction:MET:49>  (112) 
0

$$$$
CSSS00000014425
     RDKit          3D

 24 26  0  0  0  0  0  0  0  0999 V2000
   -2.0210    4.7170  -19.4480 C   0  0  0  0  0  0  0  0  0  0  0  0
   -3.3300    5.1430  -18.7710 C   0  0  0  0  0  0  0  0  0  0  0  0
   -3.4230    5.0580  -17.2500 C   0  0  0  0  0  0  0  0  0  0  0  0
   -4.7850    5.4940  -16.6830 C   0  0  0  0  0  0  0  0  0  0  0  0
   -4.9160    5.8880  -15.5340 O   0  0  0  0  0  0  0  0  0  0  0  0
   -5.8440    5.3810  -17.6240 N   0  0  0  0  0  0  0  0  0  0  0  0
   -5.6500    5.4170  -19.0030 C   0  0  0  0  0  0  0  0  0  0  0  0
   -4.4040    5.5790  -19.4930 N   0  0  0  0  0  0  0  0  0  0  0  0
   -6.7530    5.2770  -19.6820 N   0  0  0  0  0  0  0  0  0  0  0  0
   -7.7370    5.1400  -18.7460 C   0  0  0  0  0  0  0  0  0  0  0  0
   -9.1000    4.9490  -18.9770 C   0  0  0  0  0  0  0  0  0  0  0  0
  -10.0650    4.8190  -17.8050 C   0  0  0  0  0  0  0  0  0  0  0  0
   -9.3900    4.9200  -16.4570 C   0  0  0  0  0  0  0  0  0  0  0  0
   -8.0220    5.1040  -16.3120 C   0  0  0  0  0  0  0  0  0  0  0  0
   -7.2130    5.2090  -17.4410 C   0  0  0  0  0  0  0  0  0  0  0  0
   -1.9130    5.1880  -20.4300 H   0  0  0  0  0  0  0  0  0  0  0  0
   -1.1650    5.0330  -18.8390 H   0  0  0  0  0  0  0  0  0  0  0  0
   -1.9330    3.6380  -19.5820 H   0  0  0  0  0  0  0  0  0  0  0  0
   -2.5890    4.7120  -16.6400 H   0  0  0  0  0  0  0  0  0  0  0  0
   -4.2850    5.7270  -20.4930 H   0  0  0  0  0  0  0  0  0  0  0  0
   -9.4640    4.8990  -20.0030 H   0  0  0  0  0  0  0  0  0  0  0  0
  -11.1320    4.6710  -17.9350 H   0  0  0  0  0  0  0  0  0  0  0  0
  -10.0030    4.8420  -15.5530 H   0  0  0  0  0  0  0  0  0  0  0  0
   -7.5720    5.1660  -15.3270 H   0  0  0  0  0  0  0  0  0  0  0  0
  1  2  1  0
  2  3  2  0
  3  4  1  0
  4  5  2  0
  4  6  1  0
  6  7  1  0
  7  8  1  0
  7  9  2  0
  9 10  1  0
 10 11  2  0
 11 12  1  0
 12 13  2  0
 13 14  1  0
 14 15  2  0
  8  2  1  0
 15  6  1  0
 15 10  1  0
  1 16  1  0
  1 17  1  0
  1 18  1  0
  3 19  1  0
  8 20  1  0
 11 21  1  0
 12 22  1  0
 13 23  1  0
 14 24  1  0
A    1
 C1 
A    2
 C2 
A    3
 C3 
A    4
 C4 
A    5
 O1 
A    6
 N1 
A    7
 C5 
A    8
 N2 
A    9
 N3 
A   10
 C6 
A   11
 C7 
A   12
 C8 
A   13
 C9 
A   14
 C10
A   15
 C11
A   16
 H1 
A   17
 H2 
A   18
 H3 
A   19
 H4 
A   20
 H5 
A   21
 H6 
A   22
 H7 
A   23
 H8 
A   24
 H9 
M  END
>  <ref_pdb>  (113) 
x0051_0B

>  <ref_mols>  (113) 
x0089_0B,x0727_0B

>  <original SMILES>  (113) 
[H]c1c([H])c([H])c2c(nc3n([H])c(C([H])([H])[H])c([H])c(=O)n23)c1[H]

>  <index>  (113) 
1410

>  <∆∆G>  (113) 
-6.765106

>  <∆G_bound>  (113) 
-6.378071

>  <∆G_unbound>  (113) 
0.387035

>  <comRMSD>  (113) 
0.550177

>  <N_constrained_atoms>  (113) 
14.0

>  <N_unconstrained_atoms>  (113) 
1.0

>  <runtime>  (113) 
23.730551

>  <LE>  (113) 
0.451007

>  <percent_hybrid>  (113) 
50.0

>  <dist>  (113) 
5.0

>  <ecfp4>  (113) 
0.352941

>  <daylight>  (113) 
0.320225

>  <topodist>  (113) 
1.0

>  <mces>  (113) 
16.0

>  <tdn>  (113) 
0.0

>  <tup>  (113) 
0.0

>  <rdn>  (113) 
0.0

>  <rup>  (113) 
1.0

>  <ldn>  (113) 
0.0

>  <lup>  (113) 
0.0

>  <mut>  (113) 
2.0

>  <maj>  (113) 
2.0

>  <min>  (113) 
0.0

>  <hyb>  (113) 
2.0

>  <sub>  (113) 
0.0

>  <query_index>  (113) 
85.0

>  <max_hit_Tanimoto>  (113) 
0.25289

>  <largest_ring>  (113) 
6

>  <N_interactions_kept>  (113) 
0.0

>  <N_interactions_lost>  (113) 
4.0

>  <interaction_uniqueness_metric>  (113) 
0.071745

>  <ad_hoc_penalty>  (113) 
-11.834141

>  <N_rotatable_bonds>  (113) 
1

>  <N_HA>  (113) 
15

>  <cluster>  (113) 
4924

>  <N_interactions>  (113) 
7

>  <Enamine>  (113) 
1

>  <Mcule>  (113) 
0

>  <N_PAINS>  (113) 
0

>  <UFF_Gibbs>  (113) 
66.734567

>  <strain_per_HA>  (113) 
4.448971

>  <intxn_scored>  (113) 
10.5

>  <saltbridge:HIS:51>  (113) 
0

>  <pistack:HIS:51>  (113) 
0

>  <hydroph_interaction:HIS:51>  (113) 
0

>  <hbond:ALA:132>  (113) 
0

>  <hbond:SER:135>  (113) 
0

>  <hydroph_interaction:TYR:150>  (113) 
1

>  <pistack:TYR:161>  (113) 
1

>  <hydroph_interaction:TYR:161>  (113) 
4

>  <hydroph_interaction:ASP:83>  (113) 
0

>  <hbond:TYR:130>  (113) 
1

>  <hydroph_interaction:ALA:132>  (113) 
0

>  <hbond:HIS:51>  (113) 
0

>  <hbond:ASP:129>  (113) 
0

>  <hbond:TYR:150>  (113) 
0

>  <hbond:GLY:151>  (113) 
0

>  <hbond:TYR:161>  (113) 
0

>  <hydroph_interaction:TYR:130>  (113) 
0

>  <hydroph_interaction:PRO:131>  (113) 
0

>  <hydroph_interaction:ASP:129>  (113) 
0

>  <saltbridge:ASP:75>  (113) 
0

>  <saltbridge:ASP:83>  (113) 
0

>  <hbond:ASN:152>  (113) 
0

>  <hydroph_interaction:ASN:152>  (113) 
0

>  <halogenbond:TYR:150>  (113) 
0

>  <hbond:ASP:83>  (113) 
0

>  <hydroph_interaction:VAL:155>  (113) 
0

>  <pication:TYR:161>  (113) 
0

>  <hbond:PRO:131>  (113) 
0

>  <saltbridge:ASP:129>  (113) 
0

>  <hbond:THR:134>  (113) 
0

>  <pication:HIS:51>  (113) 
0

>  <hbond:SER:81>  (113) 
0

>  <hydroph_interaction:THR:134>  (113) 
0

>  <hydroph_interaction:MET:49>  (113) 
0

$$$$
Z4637359160
     RDKit          3D

 41 43  0  0  0  0  0  0  0  0999 V2000
  -11.2540    5.5180  -19.2940 C   0  0  0  0  0  0  0  0  0  0  0  0
  -10.8230    4.6350  -18.1630 C   0  0  0  0  0  0  0  0  0  0  0  0
   -9.4300    4.8530  -17.8560 C   0  0  0  0  0  0  0  0  0  0  0  0
   -8.4650    5.1000  -18.8140 C   0  0  0  0  0  0  0  0  0  0  0  0
   -7.0400    5.3130  -18.3410 C   0  0  0  0  0  0  0  0  0  0  0  0
   -6.7920    5.2230  -16.8360 C   0  0  0  0  0  0  0  0  0  0  0  0
   -5.4980    5.3960  -16.3460 C   0  0  0  0  0  0  0  0  0  0  0  0
   -7.8630    4.9590  -15.9620 C   0  0  0  0  0  0  0  0  0  0  0  0
   -7.6040    4.8530  -14.5620 N   0  0  0  0  0  0  0  0  0  0  0  0
   -7.9460    5.7210  -13.4940 C   0  0  0  0  0  0  0  0  0  0  0  0
   -7.6720    6.9190  -13.4590 O   0  0  0  0  0  0  0  0  0  0  0  0
   -8.7030    5.0660  -12.3420 C   0  0  0  0  0  0  0  0  0  0  0  0
   -8.7460    5.3970  -10.8590 C   0  0  0  0  0  0  0  0  0  0  0  0
   -8.9090    4.2910   -9.8440 C   0  0  0  0  0  0  0  0  0  0  0  0
   -9.0250    2.9400  -10.0860 C   0  0  0  0  0  0  0  0  0  0  0  0
   -8.7950    2.2620   -8.8900 C   0  0  0  0  0  0  0  0  0  0  0  0
   -9.4270    2.7230   -7.7250 C   0  0  0  0  0  0  0  0  0  0  0  0
   -9.0700    4.0600   -7.4180 C   0  0  0  0  0  0  0  0  0  0  0  0
   -8.9200    4.8490   -8.6310 N   0  0  0  0  0  0  0  0  0  0  0  0
   -8.7800    6.2020   -8.6780 N   0  0  0  0  0  0  0  0  0  0  0  0
   -8.6790    6.5370  -10.0070 C   0  0  0  0  0  0  0  0  0  0  0  0
   -9.1380    4.7900  -16.4950 C   0  0  0  0  0  0  0  0  0  0  0  0
  -10.4450    5.5900  -20.0310 H   0  0  0  0  0  0  0  0  0  0  0  0
   -8.7100    5.1460  -19.8700 H   0  0  0  0  0  0  0  0  0  0  0  0
   -6.2450    5.5140  -19.0530 H   0  0  0  0  0  0  0  0  0  0  0  0
   -4.7720    5.2110  -17.1460 H   0  0  0  0  0  0  0  0  0  0  0  0
   -5.1760    4.7740  -15.5130 H   0  0  0  0  0  0  0  0  0  0  0  0
   -5.3720    6.4460  -16.0550 H   0  0  0  0  0  0  0  0  0  0  0  0
   -7.4760    3.8740  -14.2870 H   0  0  0  0  0  0  0  0  0  0  0  0
   -8.4390    4.0030  -12.3670 H   0  0  0  0  0  0  0  0  0  0  0  0
   -9.7360    5.0880  -12.6980 H   0  0  0  0  0  0  0  0  0  0  0  0
   -8.3090    2.6080  -10.8460 H   0  0  0  0  0  0  0  0  0  0  0  0
  -10.0360    2.7180  -10.4540 H   0  0  0  0  0  0  0  0  0  0  0  0
   -9.0260    1.2160   -9.0210 H   0  0  0  0  0  0  0  0  0  0  0  0
   -7.7160    2.2950   -8.7030 H   0  0  0  0  0  0  0  0  0  0  0  0
  -10.5140    2.6490   -7.8550 H   0  0  0  0  0  0  0  0  0  0  0  0
   -9.1630    2.0750   -6.8860 H   0  0  0  0  0  0  0  0  0  0  0  0
   -8.1050    4.0910   -6.8970 H   0  0  0  0  0  0  0  0  0  0  0  0
   -9.8330    4.5290   -6.7900 H   0  0  0  0  0  0  0  0  0  0  0  0
   -8.5630    7.5800  -10.2790 H   0  0  0  0  0  0  0  0  0  0  0  0
   -9.9740    4.5920  -15.8340 H   0  0  0  0  0  0  0  0  0  0  0  0
  1  2  3  0
  2  3  1  0
  3  4  2  0
  4  5  1  0
  5  6  2  0
  6  7  1  0
  6  8  1  0
  8  9  1  0
  9 10  1  0
 10 11  2  0
 10 12  1  0
 12 13  1  0
 13 14  2  0
 14 15  1  0
 15 16  1  0
 16 17  1  0
 17 18  1  0
 18 19  1  0
 19 20  1  0
 20 21  2  0
  8 22  2  0
 22  3  1  0
 21 13  1  0
 19 14  1  0
  1 23  1  0
  4 24  1  0
  5 25  1  0
  7 26  1  0
  7 27  1  0
  7 28  1  0
  9 29  1  0
 12 30  1  0
 12 31  1  0
 15 32  1  0
 15 33  1  0
 16 34  1  0
 16 35  1  0
 17 36  1  0
 17 37  1  0
 18 38  1  0
 18 39  1  0
 21 40  1  0
 22 41  1  0
A    1
 C1 
A    2
 C2 
A    3
 C3 
A    4
 C4 
A    5
 C5 
A    6
 C6 
A    7
 C7 
A    8
 C8 
A    9
 N1 
A   10
 C9 
A   11
 O1 
A   12
 C10
A   13
 C11
A   14
 C12
A   15
 C13
A   16
 C14
A   17
 C15
A   18
 C16
A   19
 N2 
A   20
 N3 
A   21
 C17
A   22
 C18
A   23
 H1 
A   24
 H2 
A   25
 H3 
A   26
 H4 
A   27
 H5 
A   28
 H6 
A   29
 H7 
A   30
 H8 
A   31
 H9 
A   32
 H10
A   33
 H11
A   34
 H12
A   35
 H13
A   36
 H14
A   37
 H15
A   38
 H16
A   39
 H17
A   40
 H18
A   41
 H19
M  END
>  <ref_pdb>  (114) 
x0051_0B

>  <ref_mols>  (114) 
x0553_0B,x0969_1B

>  <original SMILES>  (114) 
[H]C#Cc1c([H])c([H])c(C([H])([H])[H])c(N([H])C(=O)C([H])([H])c2c([H])nn3c2C([H])([H])C([H])([H])C([H])([H])C3([H])[H])c1[H]

>  <index>  (114) 
68

>  <∆∆G>  (114) 
-7.833085

>  <∆G_bound>  (114) 
-7.604419

>  <∆G_unbound>  (114) 
0.228667

>  <comRMSD>  (114) 
0.457645

>  <N_constrained_atoms>  (114) 
19.0

>  <N_unconstrained_atoms>  (114) 
3.0

>  <runtime>  (114) 
59.899637

>  <LE>  (114) 
0.356049

>  <percent_hybrid>  (114) 
48.0

>  <dist>  (114) 
5.0

>  <ecfp4>  (114) 
0.358974

>  <daylight>  (114) 
0.278146

>  <topodist>  (114) 
1.0

>  <mces>  (114) 
23.0

>  <tdn>  (114) 
0.0

>  <tup>  (114) 
1.0

>  <rdn>  (114) 
0.0

>  <rup>  (114) 
0.0

>  <ldn>  (114) 
0.0

>  <lup>  (114) 
0.0

>  <mut>  (114) 
3.0

>  <maj>  (114) 
3.0

>  <min>  (114) 
0.0

>  <hyb>  (114) 
1.0

>  <sub>  (114) 
0.0

>  <query_index>  (114) 
375.0

>  <max_hit_Tanimoto>  (114) 
0.318671

>  <largest_ring>  (114) 
0

>  <N_interactions_kept>  (114) 
1.5

>  <N_interactions_lost>  (114) 
1.0

>  <interaction_uniqueness_metric>  (114) 
0.192849

>  <ad_hoc_penalty>  (114) 
-23.019726

>  <N_rotatable_bonds>  (114) 
4

>  <N_HA>  (114) 
22

>  <cluster>  (114) 
6156

>  <N_interactions>  (114) 
6

>  <Enamine>  (114) 
1

>  <Mcule>  (114) 
0

>  <N_PAINS>  (114) 
0

>  <UFF_Gibbs>  (114) 
329.014057

>  <strain_per_HA>  (114) 
14.955184

>  <intxn_scored>  (114) 
10.5

>  <saltbridge:HIS:51>  (114) 
0

>  <pistack:HIS:51>  (114) 
1

>  <hydroph_interaction:HIS:51>  (114) 
0

>  <hbond:ALA:132>  (114) 
0

>  <hbond:SER:135>  (114) 
0

>  <hydroph_interaction:TYR:150>  (114) 
1

>  <pistack:TYR:161>  (114) 
1

>  <hydroph_interaction:TYR:161>  (114) 
1

>  <hydroph_interaction:ASP:83>  (114) 
1

>  <hbond:TYR:130>  (114) 
0

>  <hydroph_interaction:ALA:132>  (114) 
0

>  <hbond:HIS:51>  (114) 
0

>  <hbond:ASP:129>  (114) 
0

>  <hbond:TYR:150>  (114) 
0

>  <hbond:GLY:151>  (114) 
0

>  <hbond:TYR:161>  (114) 
1

>  <hydroph_interaction:TYR:130>  (114) 
0

>  <hydroph_interaction:PRO:131>  (114) 
0

>  <hydroph_interaction:ASP:129>  (114) 
0

>  <saltbridge:ASP:75>  (114) 
0

>  <saltbridge:ASP:83>  (114) 
0

>  <hbond:ASN:152>  (114) 
0

>  <hydroph_interaction:ASN:152>  (114) 
0

>  <halogenbond:TYR:150>  (114) 
0

>  <hbond:ASP:83>  (114) 
0

>  <hydroph_interaction:VAL:155>  (114) 
0

>  <pication:TYR:161>  (114) 
0

>  <hbond:PRO:131>  (114) 
0

>  <saltbridge:ASP:129>  (114) 
0

>  <hbond:THR:134>  (114) 
0

>  <pication:HIS:51>  (114) 
0

>  <hbond:SER:81>  (114) 
0

>  <hydroph_interaction:THR:134>  (114) 
0

>  <hydroph_interaction:MET:49>  (114) 
0

$$$$
Z2368492972
     RDKit          3D

 36 38  0  0  0  0  0  0  0  0999 V2000
   -7.8290    5.2160  -15.1760 C   0  0  0  0  0  0  0  0  0  0  0  0
   -8.2230    5.1300  -16.6520 C   0  0  0  0  0  0  0  0  0  0  0  0
   -7.2850    5.3520  -17.6820 C   0  0  0  0  0  0  0  0  0  0  0  0
   -5.7950    5.6920  -17.5000 C   0  0  0  0  0  0  0  0  0  0  0  0
   -5.1150    5.8200  -16.2500 N   0  0  0  0  0  0  0  0  0  0  0  0
   -5.3800    7.1150  -15.5780 C   0  0  0  0  0  0  0  0  0  0  0  0
   -4.6270    7.2570  -14.4190 C   0  0  0  0  0  0  0  0  0  0  0  0
   -3.8870    6.0310  -14.0200 N   0  0  0  0  0  0  0  0  0  0  0  0
   -3.3900    5.1060  -15.0490 C   0  0  0  0  0  0  0  0  0  0  0  0
   -3.7560    5.5420  -16.3040 C   0  0  1  0  0  0  0  0  0  0  0  0
   -3.3700    4.7130  -17.3470 C   0  0  0  0  0  0  0  0  0  0  0  0
   -5.0490    5.8810  -18.7350 N   0  0  0  0  0  0  0  0  0  0  0  0
   -5.6810    5.7430  -19.8960 C   0  0  0  0  0  0  0  0  0  0  0  0
   -6.9580    5.4420  -20.0790 N   0  0  0  0  0  0  0  0  0  0  0  0
   -7.7160    5.2590  -19.0070 C   0  0  0  0  0  0  0  0  0  0  0  0
   -9.1810    4.9170  -19.2430 C   0  0  0  0  0  0  0  0  0  0  0  0
  -10.0590    4.7110  -18.2040 C   0  0  0  0  0  0  0  0  0  0  0  0
   -9.5750    4.8190  -16.9120 C   0  0  0  0  0  0  0  0  0  0  0  0
   -6.7840    4.9300  -15.0140 H   0  0  0  0  0  0  0  0  0  0  0  0
   -8.4560    4.5550  -14.5700 H   0  0  0  0  0  0  0  0  0  0  0  0
   -7.9520    6.2500  -14.8400 H   0  0  0  0  0  0  0  0  0  0  0  0
   -5.2070    7.9710  -16.2450 H   0  0  0  0  0  0  0  0  0  0  0  0
   -6.4440    7.1480  -15.3170 H   0  0  0  0  0  0  0  0  0  0  0  0
   -5.2570    7.5560  -13.5760 H   0  0  0  0  0  0  0  0  0  0  0  0
   -3.8890    8.0530  -14.5590 H   0  0  0  0  0  0  0  0  0  0  0  0
   -4.4730    5.5170  -13.3610 H   0  0  0  0  0  0  0  0  0  0  0  0
   -2.2970    5.0400  -14.9750 H   0  0  0  0  0  0  0  0  0  0  0  0
   -3.7870    4.1010  -14.8580 H   0  0  0  0  0  0  0  0  0  0  0  0
   -3.1940    6.4750  -16.4420 H   0  0  0  0  0  0  0  0  0  0  0  0
   -4.2270    4.3530  -17.9140 H   0  0  0  0  0  0  0  0  0  0  0  0
   -2.7060    5.2310  -18.0440 H   0  0  0  0  0  0  0  0  0  0  0  0
   -2.8330    3.8530  -16.9520 H   0  0  0  0  0  0  0  0  0  0  0  0
   -5.0880    5.8890  -20.7930 H   0  0  0  0  0  0  0  0  0  0  0  0
   -9.4640    4.8530  -20.2980 H   0  0  0  0  0  0  0  0  0  0  0  0
  -11.1020    4.4700  -18.3950 H   0  0  0  0  0  0  0  0  0  0  0  0
  -10.2600    4.6580  -16.0830 H   0  0  0  0  0  0  0  0  0  0  0  0
  1  2  1  0
  2  3  2  0
  3  4  1  0
  4  5  1  0
  5  6  1  0
  6  7  1  0
  7  8  1  0
  8  9  1  0
  9 10  1  0
 10 11  1  0
  4 12  2  0
 12 13  1  0
 13 14  2  0
 14 15  1  0
 15 16  2  0
 16 17  1  0
 17 18  2  0
 18  2  1  0
 15  3  1  0
 10  5  1  0
  1 19  1  0
  1 20  1  0
  1 21  1  0
  6 22  1  0
  6 23  1  0
  7 24  1  0
  7 25  1  0
  8 26  1  0
  9 27  1  0
  9 28  1  0
 10 29  1  6
 11 30  1  0
 11 31  1  0
 11 32  1  0
 13 33  1  0
 16 34  1  0
 17 35  1  0
 18 36  1  0
A    1
 C1 
A    2
 C2 
A    3
 C3 
A    4
 C4 
A    5
 N1 
A    6
 C5 
A    7
 C6 
A    8
 N2 
A    9
 C7 
A   10
 C8 
A   11
 C9 
A   12
 N3 
A   13
 C10
A   14
 N4 
A   15
 C11
A   16
 C12
A   17
 C13
A   18
 C14
A   19
 H1 
A   20
 H2 
A   21
 H3 
A   22
 H4 
A   23
 H5 
A   24
 H6 
A   25
 H7 
A   26
 H8 
A   27
 H9 
A   28
 H10
A   29
 H11
A   30
 H12
A   31
 H13
A   32
 H14
A   33
 H15
A   34
 H16
A   35
 H17
A   36
 H18
M  END
>  <ref_pdb>  (115) 
x0051_0B

>  <ref_mols>  (115) 
x0429_0B,x0693_0B

>  <original SMILES>  (115) 
[H]c1nc(N2C([H])([H])C([H])([H])N([H])C([H])([H])[C@@]2([H])C([H])([H])[H])c2c(C([H])([H])[H])c([H])c([H])c([H])c2n1

>  <index>  (115) 
364

>  <∆∆G>  (115) 
-6.870771

>  <∆G_bound>  (115) 
-6.815344

>  <∆G_unbound>  (115) 
0.055426

>  <comRMSD>  (115) 
0.564223

>  <N_constrained_atoms>  (115) 
18.0

>  <N_unconstrained_atoms>  (115) 
1.0

>  <runtime>  (115) 
23.231829

>  <LE>  (115) 
0.36162

>  <percent_hybrid>  (115) 
20.0

>  <dist>  (115) 
2.0

>  <ecfp4>  (115) 
0.470588

>  <daylight>  (115) 
0.601695

>  <topodist>  (115) 
1.0

>  <mces>  (115) 
19.0

>  <tdn>  (115) 
0.0

>  <tup>  (115) 
1.0

>  <rdn>  (115) 
0.0

>  <rup>  (115) 
0.0

>  <ldn>  (115) 
0.0

>  <lup>  (115) 
0.0

>  <mut>  (115) 
1.0

>  <maj>  (115) 
1.0

>  <min>  (115) 
0.0

>  <hyb>  (115) 
0.0

>  <sub>  (115) 
1.0

>  <query_index>  (115) 
179.0

>  <max_hit_Tanimoto>  (115) 
0.4

>  <largest_ring>  (115) 
0

>  <N_interactions_kept>  (115) 
2.5

>  <N_interactions_lost>  (115) 
2.0

>  <interaction_uniqueness_metric>  (115) 
0.080468

>  <ad_hoc_penalty>  (115) 
-17.627476

>  <N_rotatable_bonds>  (115) 
3

>  <N_HA>  (115) 
18

>  <cluster>  (115) 
5885

>  <N_interactions>  (115) 
6

>  <Enamine>  (115) 
1

>  <Mcule>  (115) 
0

>  <N_PAINS>  (115) 
0

>  <UFF_Gibbs>  (115) 
163.695594

>  <strain_per_HA>  (115) 
9.0942

>  <intxn_scored>  (115) 
10.5

>  <saltbridge:HIS:51>  (115) 
0

>  <pistack:HIS:51>  (115) 
0

>  <hydroph_interaction:HIS:51>  (115) 
0

>  <hbond:ALA:132>  (115) 
0

>  <hbond:SER:135>  (115) 
0

>  <hydroph_interaction:TYR:150>  (115) 
1

>  <pistack:TYR:161>  (115) 
2

>  <hydroph_interaction:TYR:161>  (115) 
2

>  <hydroph_interaction:ASP:83>  (115) 
0

>  <hbond:TYR:130>  (115) 
0

>  <hydroph_interaction:ALA:132>  (115) 
0

>  <hbond:HIS:51>  (115) 
0

>  <hbond:ASP:129>  (115) 
0

>  <hbond:TYR:150>  (115) 
0

>  <hbond:GLY:151>  (115) 
0

>  <hbond:TYR:161>  (115) 
0

>  <hydroph_interaction:TYR:130>  (115) 
0

>  <hydroph_interaction:PRO:131>  (115) 
0

>  <hydroph_interaction:ASP:129>  (115) 
0

>  <saltbridge:ASP:75>  (115) 
0

>  <saltbridge:ASP:83>  (115) 
0

>  <hbond:ASN:152>  (115) 
0

>  <hydroph_interaction:ASN:152>  (115) 
0

>  <halogenbond:TYR:150>  (115) 
0

>  <hbond:ASP:83>  (115) 
0

>  <hydroph_interaction:VAL:155>  (115) 
1

>  <pication:TYR:161>  (115) 
0

>  <hbond:PRO:131>  (115) 
0

>  <saltbridge:ASP:129>  (115) 
0

>  <hbond:THR:134>  (115) 
0

>  <pication:HIS:51>  (115) 
0

>  <hbond:SER:81>  (115) 
0

>  <hydroph_interaction:THR:134>  (115) 
0

>  <hydroph_interaction:MET:49>  (115) 
0

$$$$
PV-006856476391
     RDKit          3D

 54 57  0  0  0  0  0  0  0  0999 V2000
   -5.0290    5.6960  -15.7430 C   0  0  0  0  0  0  0  0  0  0  0  0
   -5.6700    5.5290  -17.1060 C   0  0  0  0  0  0  0  0  0  0  0  0
   -4.6920    5.5760  -18.2610 C   0  0  0  0  0  0  0  0  0  0  0  0
   -5.2590    5.4130  -19.6570 C   0  0  0  0  0  0  0  0  0  0  0  0
   -6.7610    5.2080  -19.7850 C   0  0  0  0  0  0  0  0  0  0  0  0
   -7.5660    5.1820  -18.6400 C   0  0  0  0  0  0  0  0  0  0  0  0
   -7.0470    5.3470  -17.2930 C   0  0  0  0  0  0  0  0  0  0  0  0
   -7.9670    5.3270  -16.0660 C   0  0  0  0  0  0  0  0  0  0  0  0
   -7.6430    6.4220  -15.1170 N   0  0  0  0  0  0  0  0  0  0  0  0
   -8.7760    7.2920  -14.2240 S   0  0  0  0  0  6  0  0  0  0  0  0
   -8.3010    8.6380  -13.9670 O   0  0  0  0  0  0  0  0  0  0  0  0
  -10.0340    7.0540  -14.8610 O   0  0  0  0  0  0  0  0  0  0  0  0
   -8.8060    6.4350  -12.7040 C   0  0  0  0  0  0  0  0  0  0  0  0
   -8.6890    7.2020  -11.4050 C   0  0  0  0  0  0  0  0  0  0  0  0
   -8.7150    6.4760  -10.2270 C   0  0  0  0  0  0  0  0  0  0  0  0
   -8.8440    5.0800  -10.2400 C   0  0  0  0  0  0  0  0  0  0  0  0
   -8.8770    4.3430   -9.0700 N   0  0  0  0  0  0  0  0  0  0  0  0
   -9.0370    2.8790   -9.2170 C   0  0  0  0  0  0  0  0  0  0  0  0
   -9.6280    2.3490   -7.9090 C   0  0  0  0  0  0  0  0  0  0  0  0
   -8.7770    2.6740   -6.7600 N   0  0  0  0  0  0  0  0  0  0  0  0
   -8.7190    4.1330   -6.6250 C   0  0  0  0  0  0  0  0  0  0  0  0
   -8.1190    4.7840   -7.8820 C   0  0  0  0  0  0  0  0  0  0  0  0
   -8.9520    4.3980  -11.4740 C   0  0  0  0  0  0  0  0  0  0  0  0
   -8.9350    5.0600  -12.6980 C   0  0  0  0  0  0  0  0  0  0  0  0
   -9.4500    5.4300  -16.4260 C   0  0  0  0  0  0  0  0  0  0  0  0
   -9.8490    4.7410  -17.7140 C   0  0  0  0  0  0  0  0  0  0  0  0
   -9.0160    4.9520  -18.9430 C   0  0  0  0  0  0  0  0  0  0  0  0
   -3.9730    5.4040  -15.7570 H   0  0  0  0  0  0  0  0  0  0  0  0
   -5.5420    5.0900  -14.9880 H   0  0  0  0  0  0  0  0  0  0  0  0
   -5.0790    6.7420  -15.4300 H   0  0  0  0  0  0  0  0  0  0  0  0
   -3.6240    5.7200  -18.1120 H   0  0  0  0  0  0  0  0  0  0  0  0
   -4.6160    5.4360  -20.5330 H   0  0  0  0  0  0  0  0  0  0  0  0
   -7.1970    5.0780  -20.7710 H   0  0  0  0  0  0  0  0  0  0  0  0
   -7.7810    4.3630  -15.5750 H   0  0  0  0  0  0  0  0  0  0  0  0
   -6.7660    6.9190  -15.2540 H   0  0  0  0  0  0  0  0  0  0  0  0
   -8.5880    8.2840  -11.3840 H   0  0  0  0  0  0  0  0  0  0  0  0
   -8.6340    7.0260   -9.2950 H   0  0  0  0  0  0  0  0  0  0  0  0
   -8.0690    2.4010   -9.4200 H   0  0  0  0  0  0  0  0  0  0  0  0
   -9.7300    2.6100  -10.0260 H   0  0  0  0  0  0  0  0  0  0  0  0
   -9.7490    1.2700   -7.9740 H   0  0  0  0  0  0  0  0  0  0  0  0
  -10.6290    2.7700   -7.7510 H   0  0  0  0  0  0  0  0  0  0  0  0
   -9.1850    2.2650   -5.9200 H   0  0  0  0  0  0  0  0  0  0  0  0
   -8.1260    4.3940   -5.7410 H   0  0  0  0  0  0  0  0  0  0  0  0
   -9.7370    4.5120   -6.4640 H   0  0  0  0  0  0  0  0  0  0  0  0
   -7.0620    4.4970   -7.9670 H   0  0  0  0  0  0  0  0  0  0  0  0
   -8.1830    5.8720   -7.7640 H   0  0  0  0  0  0  0  0  0  0  0  0
   -9.0560    3.3150  -11.4840 H   0  0  0  0  0  0  0  0  0  0  0  0
   -9.0210    4.4950  -13.6230 H   0  0  0  0  0  0  0  0  0  0  0  0
  -10.0650    5.0190  -15.6150 H   0  0  0  0  0  0  0  0  0  0  0  0
   -9.7390    6.4750  -16.4830 H   0  0  0  0  0  0  0  0  0  0  0  0
   -9.7490    3.7060  -17.4930 H   0  0  0  0  0  0  0  0  0  0  0  0
  -10.9040    4.9170  -17.9540 H   0  0  0  0  0  0  0  0  0  0  0  0
   -9.4470    5.7200  -19.5910 H   0  0  0  0  0  0  0  0  0  0  0  0
   -9.0570    4.0360  -19.5440 H   0  0  0  0  0  0  0  0  0  0  0  0
  1  2  1  0
  2  3  2  0
  3  4  1  0
  4  5  2  0
  5  6  1  0
  6  7  2  0
  7  8  1  0
  8  9  1  0
  9 10  1  0
 10 11  2  0
 10 12  2  0
 10 13  1  0
 13 14  2  0
 14 15  1  0
 15 16  2  0
 16 17  1  0
 17 18  1  0
 18 19  1  0
 19 20  1  0
 20 21  1  0
 21 22  1  0
 16 23  1  0
 23 24  2  0
  8 25  1  0
 25 26  1  0
 26 27  1  0
  7  2  1  0
 27  6  1  0
 24 13  1  0
 22 17  1  0
  1 28  1  0
  1 29  1  0
  1 30  1  0
  3 31  1  0
  4 32  1  0
  5 33  1  0
  8 34  1  0
  9 35  1  0
 14 36  1  0
 15 37  1  0
 18 38  1  0
 18 39  1  0
 19 40  1  0
 19 41  1  0
 20 42  1  0
 21 43  1  0
 21 44  1  0
 22 45  1  0
 22 46  1  0
 23 47  1  0
 24 48  1  0
 25 49  1  0
 25 50  1  0
 26 51  1  0
 26 52  1  0
 27 53  1  0
 27 54  1  0
A    1
 C1 
A    2
 C2 
A    3
 C3 
A    4
 C4 
A    5
 C5 
A    6
 C6 
A    7
 C7 
A    8
 C8 
A    9
 N1 
A   10
 S1 
A   11
 O1 
A   12
 O2 
A   13
 C9 
A   14
 C10
A   15
 C11
A   16
 C12
A   17
 N2 
A   18
 C13
A   19
 C14
A   20
 N3 
A   21
 C15
A   22
 C16
A   23
 C17
A   24
 C18
A   25
 C19
A   26
 C20
A   27
 C21
A   28
 H1 
A   29
 H2 
A   30
 H3 
A   31
 H4 
A   32
 H5 
A   33
 H6 
A   34
 H7 
A   35
 H8 
A   36
 H9 
A   37
 H10
A   38
 H11
A   39
 H12
A   40
 H13
A   41
 H14
A   42
 H15
A   43
 H16
A   44
 H17
A   45
 H18
A   46
 H19
A   47
 H20
A   48
 H21
A   49
 H22
A   50
 H23
A   51
 H24
A   52
 H25
A   53
 H26
A   54
 H27
M  END
>  <ref_pdb>  (116) 
x0051_0B

>  <ref_mols>  (116) 
x0727_0B,x0404_0B

>  <original SMILES>  (116) 
[H]c1c([H])c(C([H])([H])[H])c2c(c1[H])C([H])([H])C([H])([H])C([H])([H])C2([H])N([H])S(=O)(=O)c1c([H])c([H])c(N2C([H])([H])C([H])([H])N([H])C([H])([H])C2([H])[H])c([H])c1[H]

>  <index>  (116) 
1803

>  <∆∆G>  (116) 
-6.779773

>  <∆G_bound>  (116) 
-7.19178

>  <∆G_unbound>  (116) 
-0.412006

>  <comRMSD>  (116) 
0.39403

>  <N_constrained_atoms>  (116) 
27.0

>  <N_unconstrained_atoms>  (116) 
1.0

>  <runtime>  (116) 
58.469892

>  <LE>  (116) 
0.242135

>  <percent_hybrid>  (116) 
45.0

>  <dist>  (116) 
9.0

>  <ecfp4>  (116) 
0.308642

>  <daylight>  (116) 
0.271255

>  <topodist>  (116) 
2.0

>  <mces>  (116) 
30.0

>  <tdn>  (116) 
0.0

>  <tup>  (116) 
0.0

>  <rdn>  (116) 
0.0

>  <rup>  (116) 
0.0

>  <ldn>  (116) 
2.0

>  <lup>  (116) 
0.0

>  <mut>  (116) 
2.0

>  <maj>  (116) 
2.0

>  <min>  (116) 
0.0

>  <hyb>  (116) 
5.0

>  <sub>  (116) 
0.0

>  <query_index>  (116) 
0.0

>  <max_hit_Tanimoto>  (116) 
0.317101

>  <largest_ring>  (116) 
6

>  <N_interactions_kept>  (116) 
0.0

>  <N_interactions_lost>  (116) 
4.5

>  <interaction_uniqueness_metric>  (116) 
0.257608

>  <ad_hoc_penalty>  (116) 
-7.247919

>  <N_rotatable_bonds>  (116) 
5

>  <N_HA>  (116) 
27

>  <cluster>  (116) 
4565

>  <N_interactions>  (116) 
9

>  <Enamine>  (116) 
1

>  <Mcule>  (116) 
0

>  <N_PAINS>  (116) 
0

>  <UFF_Gibbs>  (116) 
228.438059

>  <strain_per_HA>  (116) 
8.460669

>  <intxn_scored>  (116) 
10.5

>  <saltbridge:HIS:51>  (116) 
0

>  <pistack:HIS:51>  (116) 
1

>  <hydroph_interaction:HIS:51>  (116) 
1

>  <hbond:ALA:132>  (116) 
0

>  <hbond:SER:135>  (116) 
0

>  <hydroph_interaction:TYR:150>  (116) 
1

>  <pistack:TYR:161>  (116) 
1

>  <hydroph_interaction:TYR:161>  (116) 
3

>  <hydroph_interaction:ASP:83>  (116) 
0

>  <hbond:TYR:130>  (116) 
0

>  <hydroph_interaction:ALA:132>  (116) 
1

>  <hbond:HIS:51>  (116) 
0

>  <hbond:ASP:129>  (116) 
0

>  <hbond:TYR:150>  (116) 
0

>  <hbond:GLY:151>  (116) 
0

>  <hbond:TYR:161>  (116) 
0

>  <hydroph_interaction:TYR:130>  (116) 
0

>  <hydroph_interaction:PRO:131>  (116) 
0

>  <hydroph_interaction:ASP:129>  (116) 
0

>  <saltbridge:ASP:75>  (116) 
0

>  <saltbridge:ASP:83>  (116) 
0

>  <hbond:ASN:152>  (116) 
0

>  <hydroph_interaction:ASN:152>  (116) 
0

>  <halogenbond:TYR:150>  (116) 
0

>  <hbond:ASP:83>  (116) 
0

>  <hydroph_interaction:VAL:155>  (116) 
0

>  <pication:TYR:161>  (116) 
0

>  <hbond:PRO:131>  (116) 
0

>  <saltbridge:ASP:129>  (116) 
0

>  <hbond:THR:134>  (116) 
0

>  <pication:HIS:51>  (116) 
0

>  <hbond:SER:81>  (116) 
1

>  <hydroph_interaction:THR:134>  (116) 
0

>  <hydroph_interaction:MET:49>  (116) 
0

$$$$
CSSB00008030654
     RDKit          3D

 34 36  0  0  0  0  0  0  0  0999 V2000
   -6.0290    5.0220  -15.0730 O   0  0  0  0  0  0  0  0  0  0  0  0
   -5.2970    5.7100  -16.1200 C   0  0  0  0  0  0  0  0  0  0  0  0
   -5.2430    7.1700  -15.6680 C   0  0  0  0  0  0  0  0  0  0  0  0
   -4.1830    7.3270  -14.5640 C   0  0  0  0  0  0  0  0  0  0  0  0
   -3.8210    6.0930  -13.8470 N   0  0  0  0  0  0  0  0  0  0  0  0
   -3.2760    5.0470  -14.7090 C   0  0  0  0  0  0  0  0  0  0  0  0
   -3.8720    5.1000  -16.1110 C   0  0  0  0  0  0  0  0  0  0  0  0
   -6.0210    5.5140  -17.4590 C   0  0  0  0  0  0  0  0  0  0  0  0
   -5.1760    5.5980  -18.7210 C   0  0  0  0  0  0  0  0  0  0  0  0
   -5.7380    5.4130  -19.9630 C   0  0  0  0  0  0  0  0  0  0  0  0
   -7.0860    5.1490  -20.0600 C   0  0  0  0  0  0  0  0  0  0  0  0
   -7.9120    5.0730  -18.9370 C   0  0  0  0  0  0  0  0  0  0  0  0
   -9.2740    4.8100  -19.1490 C   0  0  0  0  0  0  0  0  0  0  0  0
  -10.1500    4.7180  -18.0710 C   0  0  0  0  0  0  0  0  0  0  0  0
   -9.6690    4.8860  -16.7830 C   0  0  0  0  0  0  0  0  0  0  0  0
   -8.3240    5.1480  -16.5550 C   0  0  0  0  0  0  0  0  0  0  0  0
   -7.4240    5.2480  -17.6170 C   0  0  0  0  0  0  0  0  0  0  0  0
   -5.6440    5.3030  -14.2260 H   0  0  0  0  0  0  0  0  0  0  0  0
   -6.2130    7.5160  -15.2910 H   0  0  0  0  0  0  0  0  0  0  0  0
   -4.9780    7.8280  -16.5050 H   0  0  0  0  0  0  0  0  0  0  0  0
   -4.5430    8.0600  -13.8320 H   0  0  0  0  0  0  0  0  0  0  0  0
   -3.2690    7.7560  -14.9940 H   0  0  0  0  0  0  0  0  0  0  0  0
   -3.1220    6.3320  -13.1400 H   0  0  0  0  0  0  0  0  0  0  0  0
   -2.1840    5.1180  -14.7340 H   0  0  0  0  0  0  0  0  0  0  0  0
   -3.5010    4.0680  -14.2660 H   0  0  0  0  0  0  0  0  0  0  0  0
   -3.8320    4.1020  -16.5440 H   0  0  0  0  0  0  0  0  0  0  0  0
   -3.2000    5.7030  -16.7380 H   0  0  0  0  0  0  0  0  0  0  0  0
   -4.1070    5.7990  -18.6800 H   0  0  0  0  0  0  0  0  0  0  0  0
   -5.1260    5.4710  -20.8600 H   0  0  0  0  0  0  0  0  0  0  0  0
   -7.4910    4.9980  -21.0450 H   0  0  0  0  0  0  0  0  0  0  0  0
   -9.6560    4.6780  -20.1570 H   0  0  0  0  0  0  0  0  0  0  0  0
  -11.2040    4.5160  -18.2440 H   0  0  0  0  0  0  0  0  0  0  0  0
  -10.3410    4.8120  -15.9330 H   0  0  0  0  0  0  0  0  0  0  0  0
   -8.0190    5.2670  -15.5240 H   0  0  0  0  0  0  0  0  0  0  0  0
  1  2  1  0
  2  3  1  0
  3  4  1  0
  4  5  1  0
  5  6  1  0
  6  7  1  0
  2  8  1  0
  8  9  2  0
  9 10  1  0
 10 11  2  0
 11 12  1  0
 12 13  2  0
 13 14  1  0
 14 15  2  0
 15 16  1  0
 16 17  2  0
  7  2  1  0
 17  8  1  0
 17 12  1  0
  1 18  1  0
  3 19  1  0
  3 20  1  0
  4 21  1  0
  4 22  1  0
  5 23  1  0
  6 24  1  0
  6 25  1  0
  7 26  1  0
  7 27  1  0
  9 28  1  0
 10 29  1  0
 11 30  1  0
 13 31  1  0
 14 32  1  0
 15 33  1  0
 16 34  1  0
A    1
 O1 
A    2
 C1 
A    3
 C2 
A    4
 C3 
A    5
 N1 
A    6
 C4 
A    7
 C5 
A    8
 C6 
A    9
 C7 
A   10
 C8 
A   11
 C9 
A   12
 C10
A   13
 C11
A   14
 C12
A   15
 C13
A   16
 C14
A   17
 C15
A   18
 H1 
A   19
 H2 
A   20
 H3 
A   21
 H4 
A   22
 H5 
A   23
 H6 
A   24
 H7 
A   25
 H8 
A   26
 H9 
A   27
 H10
A   28
 H11
A   29
 H12
A   30
 H13
A   31
 H14
A   32
 H15
A   33
 H16
A   34
 H17
M  END
>  <ref_pdb>  (117) 
x0051_0B

>  <ref_mols>  (117) 
x0429_0B,x0455_0B

>  <original SMILES>  (117) 
[H]OC1(c2c([H])c([H])c([H])c3c([H])c([H])c([H])c([H])c23)C([H])([H])C([H])([H])N([H])C([H])([H])C1([H])[H]

>  <index>  (117) 
201

>  <∆∆G>  (117) 
-6.994044

>  <∆G_bound>  (117) 
-6.748231

>  <∆G_unbound>  (117) 
0.245812

>  <comRMSD>  (117) 
0.324347

>  <N_constrained_atoms>  (117) 
18.0

>  <N_unconstrained_atoms>  (117) 
0.0

>  <runtime>  (117) 
25.441622

>  <LE>  (117) 
0.388558

>  <percent_hybrid>  (117) 
20.0

>  <dist>  (117) 
4.0

>  <ecfp4>  (117) 
0.306122

>  <daylight>  (117) 
0.447619

>  <topodist>  (117) 
2.0

>  <mces>  (117) 
19.0

>  <tdn>  (117) 
1.0

>  <tup>  (117) 
0.0

>  <rdn>  (117) 
1.0

>  <rup>  (117) 
0.0

>  <ldn>  (117) 
0.0

>  <lup>  (117) 
0.0

>  <mut>  (117) 
2.0

>  <maj>  (117) 
2.0

>  <min>  (117) 
0.0

>  <hyb>  (117) 
0.0

>  <sub>  (117) 
1.0

>  <query_index>  (117) 
158.0

>  <max_hit_Tanimoto>  (117) 
0.174033

>  <largest_ring>  (117) 
0

>  <N_interactions_kept>  (117) 
0.0

>  <N_interactions_lost>  (117) 
2.5

>  <interaction_uniqueness_metric>  (117) 
0.089604

>  <ad_hoc_penalty>  (117) 
-28.262138

>  <N_rotatable_bonds>  (117) 
2

>  <N_HA>  (117) 
17

>  <cluster>  (117) 
6036

>  <N_interactions>  (117) 
7

>  <Enamine>  (117) 
1

>  <Mcule>  (117) 
0

>  <N_PAINS>  (117) 
0

>  <UFF_Gibbs>  (117) 
38.863803

>  <strain_per_HA>  (117) 
2.286106

>  <intxn_scored>  (117) 
10.5

>  <saltbridge:HIS:51>  (117) 
0

>  <pistack:HIS:51>  (117) 
0

>  <hydroph_interaction:HIS:51>  (117) 
0

>  <hbond:ALA:132>  (117) 
0

>  <hbond:SER:135>  (117) 
0

>  <hydroph_interaction:TYR:150>  (117) 
1

>  <pistack:TYR:161>  (117) 
1

>  <hydroph_interaction:TYR:161>  (117) 
4

>  <hydroph_interaction:ASP:83>  (117) 
0

>  <hbond:TYR:130>  (117) 
0

>  <hydroph_interaction:ALA:132>  (117) 
0

>  <hbond:HIS:51>  (117) 
0

>  <hbond:ASP:129>  (117) 
0

>  <hbond:TYR:150>  (117) 
0

>  <hbond:GLY:151>  (117) 
0

>  <hbond:TYR:161>  (117) 
1

>  <hydroph_interaction:TYR:130>  (117) 
0

>  <hydroph_interaction:PRO:131>  (117) 
0

>  <hydroph_interaction:ASP:129>  (117) 
0

>  <saltbridge:ASP:75>  (117) 
0

>  <saltbridge:ASP:83>  (117) 
0

>  <hbond:ASN:152>  (117) 
0

>  <hydroph_interaction:ASN:152>  (117) 
0

>  <halogenbond:TYR:150>  (117) 
0

>  <hbond:ASP:83>  (117) 
0

>  <hydroph_interaction:VAL:155>  (117) 
0

>  <pication:TYR:161>  (117) 
0

>  <hbond:PRO:131>  (117) 
0

>  <saltbridge:ASP:129>  (117) 
0

>  <hbond:THR:134>  (117) 
0

>  <pication:HIS:51>  (117) 
0

>  <hbond:SER:81>  (117) 
0

>  <hydroph_interaction:THR:134>  (117) 
0

>  <hydroph_interaction:MET:49>  (117) 
0

$$$$
CSSS00121713789
     RDKit          3D

 44 47  0  0  0  0  0  0  0  0999 V2000
   -8.6200    4.6060   -8.8300 C   0  0  0  0  0  0  0  0  0  0  0  0
   -8.6230    5.1050  -10.2580 C   0  0  0  0  0  0  0  0  0  0  0  0
   -8.6540    6.4920  -10.3720 C   0  0  0  0  0  0  0  0  0  0  0  0
   -8.6560    7.0540  -11.6430 C   0  0  0  0  0  0  0  0  0  0  0  0
   -8.6300    6.2120  -12.7520 C   0  0  0  0  0  0  0  0  0  0  0  0
   -8.6250    6.5330  -14.0940 O   0  0  0  0  0  0  0  0  0  0  0  0
   -8.6070    5.2960  -14.7130 C   0  0  0  0  0  0  0  0  0  0  0  0
   -8.5850    4.2800  -13.8800 N   0  0  0  0  0  0  0  0  0  0  0  0
   -8.6030    4.8390  -12.6460 C   0  0  0  0  0  0  0  0  0  0  0  0
   -8.5970    4.2510  -11.3760 C   0  0  0  0  0  0  0  0  0  0  0  0
   -8.6290    5.2310  -16.1700 C   0  0  0  0  0  0  0  0  0  0  0  0
   -9.9220    4.7340  -16.7720 C   0  0  0  0  0  0  0  0  0  0  0  0
  -10.0950    4.6150  -18.1460 C   0  0  0  0  0  0  0  0  0  0  0  0
   -8.9240    4.9950  -19.0250 C   0  0  0  0  0  0  0  0  0  0  0  0
   -7.7520    5.4480  -18.4400 C   0  0  0  0  0  0  0  0  0  0  0  0
   -6.6930    5.7970  -19.2530 N   0  0  0  0  0  0  0  0  0  0  0  0
   -6.3750    5.1470  -20.3920 C   0  0  0  0  0  0  0  0  0  0  0  0
   -7.0280    4.4050  -21.1170 O   0  0  0  0  0  0  0  0  0  0  0  0
   -4.9710    5.3280  -20.8990 C   0  0  0  0  0  0  0  0  0  0  0  0
   -4.8790    5.4560  -22.2780 C   0  0  0  0  0  0  0  0  0  0  0  0
   -3.5260    5.6230  -22.8770 C   0  0  0  0  0  0  0  0  0  0  0  0
   -2.4150    5.6450  -22.0480 C   0  0  0  0  0  0  0  0  0  0  0  0
   -2.5620    5.5210  -20.6690 C   0  0  0  0  0  0  0  0  0  0  0  0
   -3.8260    5.3680  -20.0880 C   0  0  0  0  0  0  0  0  0  0  0  0
   -3.8300    5.2080  -18.0010 I   0  0  0  0  0  0  0  0  0  0  0  0
   -7.5810    5.5730  -17.0350 C   0  0  0  0  0  0  0  0  0  0  0  0
   -6.2830    6.0690  -16.4510 C   0  0  0  0  0  0  0  0  0  0  0  0
   -9.2990    5.2050   -8.2150 H   0  0  0  0  0  0  0  0  0  0  0  0
   -8.9640    3.5670   -8.7820 H   0  0  0  0  0  0  0  0  0  0  0  0
   -7.6030    4.6410   -8.4250 H   0  0  0  0  0  0  0  0  0  0  0  0
   -8.6770    7.1480   -9.5080 H   0  0  0  0  0  0  0  0  0  0  0  0
   -8.6790    8.1340  -11.7670 H   0  0  0  0  0  0  0  0  0  0  0  0
   -8.5750    3.1720  -11.2710 H   0  0  0  0  0  0  0  0  0  0  0  0
  -10.7270    4.4580  -16.1150 H   0  0  0  0  0  0  0  0  0  0  0  0
  -11.0270    4.2610  -18.5680 H   0  0  0  0  0  0  0  0  0  0  0  0
   -9.0480    4.9010  -20.1000 H   0  0  0  0  0  0  0  0  0  0  0  0
   -5.9400    6.3080  -18.8210 H   0  0  0  0  0  0  0  0  0  0  0  0
   -5.7730    5.4340  -22.8940 H   0  0  0  0  0  0  0  0  0  0  0  0
   -3.4100    5.7240  -23.9530 H   0  0  0  0  0  0  0  0  0  0  0  0
   -1.4200    5.7630  -22.4740 H   0  0  0  0  0  0  0  0  0  0  0  0
   -1.6700    5.5470  -20.0460 H   0  0  0  0  0  0  0  0  0  0  0  0
   -5.6490    5.2210  -16.1820 H   0  0  0  0  0  0  0  0  0  0  0  0
   -6.4470    6.6960  -15.5640 H   0  0  0  0  0  0  0  0  0  0  0  0
   -5.7490    6.7320  -17.1380 H   0  0  0  0  0  0  0  0  0  0  0  0
  1  2  1  0
  2  3  2  0
  3  4  1  0
  4  5  2  0
  5  6  1  0
  6  7  1  0
  7  8  2  0
  8  9  1  0
  9 10  2  0
  7 11  1  0
 11 12  2  0
 12 13  1  0
 13 14  2  0
 14 15  1  0
 15 16  1  0
 16 17  1  0
 17 18  2  0
 17 19  1  0
 19 20  2  0
 20 21  1  0
 21 22  2  0
 22 23  1  0
 23 24  2  0
 24 25  1  0
 15 26  2  0
 26 27  1  0
 10  2  1  0
  9  5  1  0
 26 11  1  0
 24 19  1  0
  1 28  1  0
  1 29  1  0
  1 30  1  0
  3 31  1  0
  4 32  1  0
 10 33  1  0
 12 34  1  0
 13 35  1  0
 14 36  1  0
 16 37  1  0
 20 38  1  0
 21 39  1  0
 22 40  1  0
 23 41  1  0
 27 42  1  0
 27 43  1  0
 27 44  1  0
A    1
 C1 
A    2
 C2 
A    3
 C3 
A    4
 C4 
A    5
 C5 
A    6
 O1 
A    7
 C6 
A    8
 N1 
A    9
 C7 
A   10
 C8 
A   11
 C9 
A   12
 C10
A   13
 C11
A   14
 C12
A   15
 C13
A   16
 N2 
A   17
 C14
A   18
 O2 
A   19
 C15
A   20
 C16
A   21
 C17
A   22
 C18
A   23
 C19
A   24
 C20
A   25
 I1 
A   26
 C21
A   27
 C22
A   28
 H1 
A   29
 H2 
A   30
 H3 
A   31
 H4 
A   32
 H5 
A   33
 H6 
A   34
 H7 
A   35
 H8 
A   36
 H9 
A   37
 H10
A   38
 H11
A   39
 H12
A   40
 H13
A   41
 H14
A   42
 H15
A   43
 H16
A   44
 H17
M  END
>  <ref_pdb>  (118) 
x0051_0B

>  <ref_mols>  (118) 
x0852_0B,x1098_0B

>  <original SMILES>  (118) 
[H]c1c([H])c([H])c(C(=O)N([H])c2c([H])c([H])c([H])c(-c3nc4c([H])c(C([H])([H])[H])c([H])c([H])c4o3)c2C([H])([H])[H])c(I)c1[H]

>  <index>  (118) 
2136

>  <∆∆G>  (118) 
-9.197153

>  <∆G_bound>  (118) 
-9.451007

>  <∆G_unbound>  (118) 
-0.253854

>  <comRMSD>  (118) 
0.657879

>  <N_constrained_atoms>  (118) 
30.0

>  <N_unconstrained_atoms>  (118) 
1.0

>  <runtime>  (118) 
70.442094

>  <LE>  (118) 
0.296682

>  <percent_hybrid>  (118) 
48.0

>  <dist>  (118) 
10.0

>  <ecfp4>  (118) 
0.153061

>  <daylight>  (118) 
0.347368

>  <topodist>  (118) 
4.0

>  <mces>  (118) 
28.0

>  <tdn>  (118) 
2.0

>  <tup>  (118) 
0.0

>  <rdn>  (118) 
0.0

>  <rup>  (118) 
1.0

>  <ldn>  (118) 
0.0

>  <lup>  (118) 
1.0

>  <mut>  (118) 
6.0

>  <maj>  (118) 
5.0

>  <min>  (118) 
1.0

>  <hyb>  (118) 
0.0

>  <sub>  (118) 
3.0

>  <query_index>  (118) 
73.0

>  <max_hit_Tanimoto>  (118) 
0.366889

>  <largest_ring>  (118) 
6

>  <N_interactions_kept>  (118) 
2.0

>  <N_interactions_lost>  (118) 
6.5

>  <interaction_uniqueness_metric>  (118) 
0.26192

>  <ad_hoc_penalty>  (118) 
-9.88322

>  <N_rotatable_bonds>  (118) 
5

>  <N_HA>  (118) 
27

>  <cluster>  (118) 
4258

>  <N_interactions>  (118) 
11

>  <Enamine>  (118) 
1

>  <Mcule>  (118) 
0

>  <N_PAINS>  (118) 
0

>  <UFF_Gibbs>  (118) 
102.965224

>  <strain_per_HA>  (118) 
3.813527

>  <intxn_scored>  (118) 
10.5

>  <saltbridge:HIS:51>  (118) 
0

>  <pistack:HIS:51>  (118) 
1

>  <hydroph_interaction:HIS:51>  (118) 
1

>  <hbond:ALA:132>  (118) 
0

>  <hbond:SER:135>  (118) 
0

>  <hydroph_interaction:TYR:150>  (118) 
1

>  <pistack:TYR:161>  (118) 
0

>  <hydroph_interaction:TYR:161>  (118) 
3

>  <hydroph_interaction:ASP:83>  (118) 
0

>  <hbond:TYR:130>  (118) 
1

>  <hydroph_interaction:ALA:132>  (118) 
1

>  <hbond:HIS:51>  (118) 
0

>  <hbond:ASP:129>  (118) 
1

>  <hbond:TYR:150>  (118) 
0

>  <hbond:GLY:151>  (118) 
0

>  <hbond:TYR:161>  (118) 
1

>  <hydroph_interaction:TYR:130>  (118) 
0

>  <hydroph_interaction:PRO:131>  (118) 
0

>  <hydroph_interaction:ASP:129>  (118) 
1

>  <saltbridge:ASP:75>  (118) 
0

>  <saltbridge:ASP:83>  (118) 
0

>  <hbond:ASN:152>  (118) 
0

>  <hydroph_interaction:ASN:152>  (118) 
0

>  <halogenbond:TYR:150>  (118) 
0

>  <hbond:ASP:83>  (118) 
0

>  <hydroph_interaction:VAL:155>  (118) 
0

>  <pication:TYR:161>  (118) 
0

>  <hbond:PRO:131>  (118) 
0

>  <saltbridge:ASP:129>  (118) 
0

>  <hbond:THR:134>  (118) 
0

>  <pication:HIS:51>  (118) 
0

>  <hbond:SER:81>  (118) 
0

>  <hydroph_interaction:THR:134>  (118) 
0

>  <hydroph_interaction:MET:49>  (118) 
0

$$$$
Z1024234496
     RDKit          3D

 53 56  0  0  0  0  0  0  0  0999 V2000
   -9.5780    4.7420  -18.6250 N   0  0  0  0  0  0  0  0  0  0  0  0
   -8.3840    4.6230  -19.2700 C   0  0  0  0  0  0  0  0  0  0  0  0
   -8.3260    4.1500  -20.3920 O   0  0  0  0  0  0  0  0  0  0  0  0
   -7.1470    5.0860  -18.5150 C   0  0  0  0  0  0  0  0  0  0  0  0
   -7.4550    5.5660  -17.1000 C   0  0  0  0  0  0  0  0  0  0  0  0
   -6.2310    6.0420  -16.2690 C   0  0  0  0  0  0  0  0  0  0  0  0
   -4.9770    5.9760  -16.9020 C   0  0  0  0  0  0  0  0  0  0  0  0
   -4.7970    5.4740  -18.3260 C   0  0  0  0  0  0  0  0  0  0  0  0
   -3.3580    5.4820  -18.8010 C   0  0  0  0  0  0  0  0  0  0  0  0
   -3.2730    5.6680  -20.1750 C   0  0  0  0  0  0  0  0  0  0  0  0
   -4.0880    6.6720  -20.5240 N   0  0  0  0  0  0  0  0  0  0  0  0
   -4.9180    6.4970  -21.5740 C   0  0  0  0  0  0  0  0  0  0  0  0
   -5.3480    5.3970  -21.8920 O   0  0  0  0  0  0  0  0  0  0  0  0
   -5.2810    7.5800  -22.3240 C   0  0  0  0  0  0  0  0  0  0  0  0
   -6.0650    7.4030  -23.5830 C   0  0  0  0  0  0  0  0  0  0  0  0
   -6.3950    8.5170  -24.3160 C   0  0  0  0  0  0  0  0  0  0  0  0
   -5.9940    9.7630  -23.8720 C   0  0  0  0  0  0  0  0  0  0  0  0
   -6.3230   10.8590  -24.6480 C   0  0  0  0  0  0  0  0  0  0  0  0
   -5.9250   10.5200  -26.3910 S   0  0  0  0  0  0  0  0  0  0  0  0
   -7.2900    9.6340  -26.9570 C   0  0  0  0  0  0  0  0  0  0  0  0
   -7.3660    8.3670  -27.2850 N   0  0  0  0  0  0  0  0  0  0  0  0
   -8.6710    8.1810  -27.6590 C   0  0  0  0  0  0  0  0  0  0  0  0
   -9.3310    7.0230  -28.1010 C   0  0  0  0  0  0  0  0  0  0  0  0
  -10.6940    7.1070  -28.4160 C   0  0  0  0  0  0  0  0  0  0  0  0
  -11.3850    8.3130  -28.2970 C   0  0  0  0  0  0  0  0  0  0  0  0
  -10.7460    9.4770  -27.8630 C   0  0  0  0  0  0  0  0  0  0  0  0
   -9.3910    9.3690  -27.5550 C   0  0  0  0  0  0  0  0  0  0  0  0
   -8.4760   10.2790  -27.1070 N   0  0  0  0  0  0  0  0  0  0  0  0
   -5.2640    9.9410  -22.6810 C   0  0  0  0  0  0  0  0  0  0  0  0
   -4.9070    8.8510  -21.9030 C   0  0  0  0  0  0  0  0  0  0  0  0
   -5.8810    5.0530  -19.0810 C   0  0  0  0  0  0  0  0  0  0  0  0
  -10.3660    5.1800  -19.0800 H   0  0  0  0  0  0  0  0  0  0  0  0
   -9.5110    4.8560  -17.6210 H   0  0  0  0  0  0  0  0  0  0  0  0
   -8.4590    5.5810  -16.6830 H   0  0  0  0  0  0  0  0  0  0  0  0
   -6.3380    6.4060  -15.2480 H   0  0  0  0  0  0  0  0  0  0  0  0
   -4.1030    6.3010  -16.3400 H   0  0  0  0  0  0  0  0  0  0  0  0
   -2.8050    6.2660  -18.2680 H   0  0  0  0  0  0  0  0  0  0  0  0
   -2.8720    4.5380  -18.5220 H   0  0  0  0  0  0  0  0  0  0  0  0
   -2.2490    5.9730  -20.4280 H   0  0  0  0  0  0  0  0  0  0  0  0
   -3.5160    4.8530  -20.8450 H   0  0  0  0  0  0  0  0  0  0  0  0
   -4.3200    7.3650  -19.8160 H   0  0  0  0  0  0  0  0  0  0  0  0
   -6.3750    6.4240  -23.9330 H   0  0  0  0  0  0  0  0  0  0  0  0
   -6.9610    8.4070  -25.2370 H   0  0  0  0  0  0  0  0  0  0  0  0
   -7.3600   11.1640  -24.5160 H   0  0  0  0  0  0  0  0  0  0  0  0
   -5.7210   11.7170  -24.3260 H   0  0  0  0  0  0  0  0  0  0  0  0
   -8.7920    6.0870  -28.1900 H   0  0  0  0  0  0  0  0  0  0  0  0
  -11.2170    6.2170  -28.7570 H   0  0  0  0  0  0  0  0  0  0  0  0
  -12.4440    8.3510  -28.5470 H   0  0  0  0  0  0  0  0  0  0  0  0
  -11.2870   10.4140  -27.7720 H   0  0  0  0  0  0  0  0  0  0  0  0
   -8.6370   11.2530  -26.9130 H   0  0  0  0  0  0  0  0  0  0  0  0
   -4.9680   10.9380  -22.3610 H   0  0  0  0  0  0  0  0  0  0  0  0
   -4.3400    8.9910  -20.9840 H   0  0  0  0  0  0  0  0  0  0  0  0
   -5.7450    4.6960  -20.1010 H   0  0  0  0  0  0  0  0  0  0  0  0
  1  2  1  0
  2  3  2  0
  2  4  1  0
  4  5  2  0
  5  6  1  0
  6  7  2  0
  7  8  1  0
  8  9  1  0
  9 10  1  0
 10 11  1  0
 11 12  1  0
 12 13  2  0
 12 14  1  0
 14 15  2  0
 15 16  1  0
 16 17  2  0
 17 18  1  0
 18 19  1  0
 19 20  1  0
 20 21  2  0
 21 22  1  0
 22 23  2  0
 23 24  1  0
 24 25  2  0
 25 26  1  0
 26 27  2  0
 27 28  1  0
 17 29  1  0
 29 30  2  0
  8 31  2  0
 31  4  1  0
 30 14  1  0
 28 20  1  0
 27 22  1  0
  1 32  1  0
  1 33  1  0
  5 34  1  0
  6 35  1  0
  7 36  1  0
  9 37  1  0
  9 38  1  0
 10 39  1  0
 10 40  1  0
 11 41  1  0
 15 42  1  0
 16 43  1  0
 18 44  1  0
 18 45  1  0
 23 46  1  0
 24 47  1  0
 25 48  1  0
 26 49  1  0
 28 50  1  0
 29 51  1  0
 30 52  1  0
 31 53  1  0
A    1
 N1 
A    2
 C1 
A    3
 O1 
A    4
 C2 
A    5
 C3 
A    6
 C4 
A    7
 C5 
A    8
 C6 
A    9
 C7 
A   10
 C8 
A   11
 N2 
A   12
 C9 
A   13
 O2 
A   14
 C10
A   15
 C11
A   16
 C12
A   17
 C13
A   18
 C14
A   19
 S1 
A   20
 C15
A   21
 N3 
A   22
 C16
A   23
 C17
A   24
 C18
A   25
 C19
A   26
 C20
A   27
 C21
A   28
 N4 
A   29
 C22
A   30
 C23
A   31
 C24
A   32
 H1 
A   33
 H2 
A   34
 H3 
A   35
 H4 
A   36
 H5 
A   37
 H6 
A   38
 H7 
A   39
 H8 
A   40
 H9 
A   41
 H10
A   42
 H11
A   43
 H12
A   44
 H13
A   45
 H14
A   46
 H15
A   47
 H16
A   48
 H17
A   49
 H18
A   50
 H19
A   51
 H20
A   52
 H21
A   53
 H22
M  END
>  <ref_pdb>  (119) 
x0051_0B

>  <ref_mols>  (119) 
x0051_0B,x0846_1B

>  <original SMILES>  (119) 
[H]c1c([H])c(C(=O)N([H])[H])c([H])c(C([H])([H])C([H])([H])N([H])C(=O)c2c([H])c([H])c(C([H])([H])Sc3nc4c([H])c([H])c([H])c([H])c4n3[H])c([H])c2[H])c1[H]

>  <index>  (119) 
1139

>  <∆∆G>  (119) 
-7.960441

>  <∆G_bound>  (119) 
-7.114052

>  <∆G_unbound>  (119) 
0.84639

>  <comRMSD>  (119) 
0.639099

>  <N_constrained_atoms>  (119) 
30.0

>  <N_unconstrained_atoms>  (119) 
3.0

>  <runtime>  (119) 
60.998784

>  <LE>  (119) 
0.241225

>  <percent_hybrid>  (119) 
40.0

>  <dist>  (119) 
9.0

>  <ecfp4>  (119) 
0.244681

>  <daylight>  (119) 
0.237548

>  <topodist>  (119) 
4.0

>  <mces>  (119) 
33.0

>  <tdn>  (119) 
1.0

>  <tup>  (119) 
1.0

>  <rdn>  (119) 
1.0

>  <rup>  (119) 
0.0

>  <ldn>  (119) 
1.0

>  <lup>  (119) 
0.0

>  <mut>  (119) 
4.0

>  <maj>  (119) 
3.0

>  <min>  (119) 
1.0

>  <hyb>  (119) 
1.0

>  <sub>  (119) 
2.0

>  <query_index>  (119) 
185.0

>  <max_hit_Tanimoto>  (119) 
0.310576

>  <largest_ring>  (119) 
6

>  <N_interactions_kept>  (119) 
0.0

>  <N_interactions_lost>  (119) 
3.5

>  <interaction_uniqueness_metric>  (119) 
0.297488

>  <ad_hoc_penalty>  (119) 
-12.91538

>  <N_rotatable_bonds>  (119) 
8

>  <N_HA>  (119) 
31

>  <cluster>  (119) 
5173

>  <N_interactions>  (119) 
9

>  <Enamine>  (119) 
1

>  <Mcule>  (119) 
0

>  <N_PAINS>  (119) 
0

>  <UFF_Gibbs>  (119) 
239.514508

>  <strain_per_HA>  (119) 
7.726274

>  <intxn_scored>  (119) 
10.5

>  <saltbridge:HIS:51>  (119) 
0

>  <pistack:HIS:51>  (119) 
0

>  <hydroph_interaction:HIS:51>  (119) 
0

>  <hbond:ALA:132>  (119) 
0

>  <hbond:SER:135>  (119) 
0

>  <hydroph_interaction:TYR:150>  (119) 
0

>  <pistack:TYR:161>  (119) 
1

>  <hydroph_interaction:TYR:161>  (119) 
2

>  <hydroph_interaction:ASP:83>  (119) 
0

>  <hbond:TYR:130>  (119) 
1

>  <hydroph_interaction:ALA:132>  (119) 
1

>  <hbond:HIS:51>  (119) 
0

>  <hbond:ASP:129>  (119) 
1

>  <hbond:TYR:150>  (119) 
1

>  <hbond:GLY:151>  (119) 
0

>  <hbond:TYR:161>  (119) 
0

>  <hydroph_interaction:TYR:130>  (119) 
1

>  <hydroph_interaction:PRO:131>  (119) 
1

>  <hydroph_interaction:ASP:129>  (119) 
0

>  <saltbridge:ASP:75>  (119) 
0

>  <saltbridge:ASP:83>  (119) 
0

>  <hbond:ASN:152>  (119) 
0

>  <hydroph_interaction:ASN:152>  (119) 
0

>  <halogenbond:TYR:150>  (119) 
0

>  <hbond:ASP:83>  (119) 
0

>  <hydroph_interaction:VAL:155>  (119) 
0

>  <pication:TYR:161>  (119) 
0

>  <hbond:PRO:131>  (119) 
0

>  <saltbridge:ASP:129>  (119) 
0

>  <hbond:THR:134>  (119) 
0

>  <pication:HIS:51>  (119) 
0

>  <hbond:SER:81>  (119) 
0

>  <hydroph_interaction:THR:134>  (119) 
0

>  <hydroph_interaction:MET:49>  (119) 
0

$$$$
PV-003515718389
     RDKit          3D

 29 31  0  0  0  0  0  0  0  0999 V2000
   -8.5210    4.5470   -9.1670 C   0  0  0  0  0  0  0  0  0  0  0  0
   -8.6620    4.9600  -10.5370 N   0  0  0  0  0  0  0  0  0  0  0  0
   -8.5840    4.1860  -11.6460 C   0  0  0  0  0  0  0  0  0  0  0  0
   -8.7950    5.0620  -12.8340 C   0  0  0  0  0  0  0  0  0  0  0  0
   -8.8100    4.7900  -14.1890 N   0  0  0  0  0  0  0  0  0  0  0  0
   -8.1760    5.5840  -15.1210 C   0  0  0  0  0  0  0  0  0  0  0  0
   -7.3500    6.6410  -14.8500 O   0  0  0  0  0  0  0  0  0  0  0  0
   -8.4410    5.2690  -16.5410 C   0  0  0  0  0  0  0  0  0  0  0  0
   -7.4650    5.3830  -17.5510 C   0  0  0  0  0  0  0  0  0  0  0  0
   -6.1430    5.7330  -17.7210 C   0  0  0  0  0  0  0  0  0  0  0  0
   -5.0080    6.2890  -16.3470 Br  0  0  0  0  0  0  0  0  0  0  0  0
   -5.7440    5.6300  -19.0190 C   0  0  0  0  0  0  0  0  0  0  0  0
   -6.8150    5.2120  -19.7400 O   0  0  0  0  0  0  0  0  0  0  0  0
   -7.8490    5.0670  -18.8570 C   0  0  0  0  0  0  0  0  0  0  0  0
   -9.1970    4.6370  -19.2240 C   0  0  0  0  0  0  0  0  0  0  0  0
  -10.1040    4.5460  -18.1830 C   0  0  0  0  0  0  0  0  0  0  0  0
   -9.7320    4.8500  -16.8690 C   0  0  0  0  0  0  0  0  0  0  0  0
   -8.9830    6.3120  -12.1960 C   0  0  0  0  0  0  0  0  0  0  0  0
   -8.9050    6.2560  -10.8440 N   0  0  0  0  0  0  0  0  0  0  0  0
   -7.4870    4.6610   -8.8300 H   0  0  0  0  0  0  0  0  0  0  0  0
   -9.1720    5.1530   -8.5300 H   0  0  0  0  0  0  0  0  0  0  0  0
   -8.8100    3.4950   -9.0680 H   0  0  0  0  0  0  0  0  0  0  0  0
   -8.4030    3.1120  -11.7830 H   0  0  0  0  0  0  0  0  0  0  0  0
   -9.2720    3.9350  -14.4920 H   0  0  0  0  0  0  0  0  0  0  0  0
   -4.8240    5.8000  -19.5600 H   0  0  0  0  0  0  0  0  0  0  0  0
   -9.4560    4.4070  -20.2520 H   0  0  0  0  0  0  0  0  0  0  0  0
  -11.1220    4.2320  -18.3910 H   0  0  0  0  0  0  0  0  0  0  0  0
  -10.4580    4.7640  -16.0710 H   0  0  0  0  0  0  0  0  0  0  0  0
   -9.1740    7.2710  -12.6560 H   0  0  0  0  0  0  0  0  0  0  0  0
  1  2  1  0
  2  3  1  0
  3  4  2  0
  4  5  1  0
  5  6  1  0
  6  7  2  0
  6  8  1  0
  8  9  2  0
  9 10  1  0
 10 11  1  0
 10 12  2  0
 12 13  1  0
 13 14  1  0
 14 15  2  0
 15 16  1  0
 16 17  2  0
  4 18  1  0
 18 19  2  0
 19  2  1  0
 17  8  1  0
 14  9  1  0
  1 20  1  0
  1 21  1  0
  1 22  1  0
  3 23  1  0
  5 24  1  0
 12 25  1  0
 15 26  1  0
 16 27  1  0
 17 28  1  0
 18 29  1  0
A    1
 C1 
A    2
 N1 
A    3
 C2 
A    4
 C3 
A    5
 N2 
A    6
 C4 
A    7
 O1 
A    8
 C5 
A    9
 C6 
A   10
 C7 
A   11
BR1 
A   12
 C8 
A   13
 O2 
A   14
 C9 
A   15
 C10
A   16
 C11
A   17
 C12
A   18
 C13
A   19
 N3 
A   20
 H1 
A   21
 H2 
A   22
 H3 
A   23
 H4 
A   24
 H5 
A   25
 H6 
A   26
 H7 
A   27
 H8 
A   28
 H9 
A   29
 H10
M  END
>  <ref_pdb>  (120) 
x0051_0B

>  <ref_mols>  (120) 
x1098_0B,x0490_0B

>  <original SMILES>  (120) 
[H]c1nn(C([H])([H])[H])c([H])c1N([H])C(=O)c1c([H])c([H])c([H])c2oc([H])c(Br)c12

>  <index>  (120) 
3090

>  <∆∆G>  (120) 
-8.31144

>  <∆G_bound>  (120) 
-7.150173

>  <∆G_unbound>  (120) 
1.161267

>  <comRMSD>  (120) 
0.40925

>  <N_constrained_atoms>  (120) 
19.0

>  <N_unconstrained_atoms>  (120) 
0.0

>  <runtime>  (120) 
55.338531

>  <LE>  (120) 
0.437444

>  <percent_hybrid>  (120) 
10.0

>  <dist>  (120) 
5.0

>  <ecfp4>  (120) 
0.484848

>  <daylight>  (120) 
0.437186

>  <topodist>  (120) 
1.0

>  <mces>  (120) 
21.0

>  <tdn>  (120) 
0.0

>  <tup>  (120) 
0.0

>  <rdn>  (120) 
0.0

>  <rup>  (120) 
0.0

>  <ldn>  (120) 
1.0

>  <lup>  (120) 
0.0

>  <mut>  (120) 
3.0

>  <maj>  (120) 
2.0

>  <min>  (120) 
1.0

>  <hyb>  (120) 
1.0

>  <sub>  (120) 
0.0

>  <query_index>  (120) 
69.0

>  <max_hit_Tanimoto>  (120) 
0.434641

>  <largest_ring>  (120) 
6

>  <N_interactions_kept>  (120) 
2.0

>  <N_interactions_lost>  (120) 
4.0

>  <interaction_uniqueness_metric>  (120) 
0.099864

>  <ad_hoc_penalty>  (120) 
-4.444116

>  <N_rotatable_bonds>  (120) 
3

>  <N_HA>  (120) 
19

>  <cluster>  (120) 
3362

>  <N_interactions>  (120) 
5

>  <Enamine>  (120) 
1

>  <Mcule>  (120) 
0

>  <N_PAINS>  (120) 
0

>  <UFF_Gibbs>  (120) 
51.720528

>  <strain_per_HA>  (120) 
2.722133

>  <intxn_scored>  (120) 
10.5

>  <saltbridge:HIS:51>  (120) 
0

>  <pistack:HIS:51>  (120) 
1

>  <hydroph_interaction:HIS:51>  (120) 
0

>  <hbond:ALA:132>  (120) 
0

>  <hbond:SER:135>  (120) 
0

>  <hydroph_interaction:TYR:150>  (120) 
1

>  <pistack:TYR:161>  (120) 
2

>  <hydroph_interaction:TYR:161>  (120) 
0

>  <hydroph_interaction:ASP:83>  (120) 
0

>  <hbond:TYR:130>  (120) 
0

>  <hydroph_interaction:ALA:132>  (120) 
0

>  <hbond:HIS:51>  (120) 
0

>  <hbond:ASP:129>  (120) 
0

>  <hbond:TYR:150>  (120) 
0

>  <hbond:GLY:151>  (120) 
1

>  <hbond:TYR:161>  (120) 
0

>  <hydroph_interaction:TYR:130>  (120) 
0

>  <hydroph_interaction:PRO:131>  (120) 
0

>  <hydroph_interaction:ASP:129>  (120) 
0

>  <saltbridge:ASP:75>  (120) 
0

>  <saltbridge:ASP:83>  (120) 
0

>  <hbond:ASN:152>  (120) 
0

>  <hydroph_interaction:ASN:152>  (120) 
0

>  <halogenbond:TYR:150>  (120) 
0

>  <hbond:ASP:83>  (120) 
0

>  <hydroph_interaction:VAL:155>  (120) 
0

>  <pication:TYR:161>  (120) 
0

>  <hbond:PRO:131>  (120) 
0

>  <saltbridge:ASP:129>  (120) 
0

>  <hbond:THR:134>  (120) 
0

>  <pication:HIS:51>  (120) 
0

>  <hbond:SER:81>  (120) 
0

>  <hydroph_interaction:THR:134>  (120) 
0

>  <hydroph_interaction:MET:49>  (120) 
0

$$$$
CSSS00121651367
     RDKit          3D

 44 46  0  0  0  0  0  0  0  0999 V2000
   -5.5210    6.5620  -15.1740 O   0  0  0  0  0  0  0  0  0  0  0  0
   -6.3050    5.5450  -14.7770 C   0  0  0  0  0  0  0  0  0  0  0  0
   -5.6680    4.5730  -13.8050 C   0  0  0  0  0  0  0  0  0  0  0  0
   -4.5390    5.0680  -13.1090 C   0  0  0  0  0  0  0  0  0  0  0  0
   -3.3900    4.2580  -13.0930 C   0  0  0  0  0  0  0  0  0  0  0  0
   -3.3660    3.1390  -13.9270 C   0  0  0  0  0  0  0  0  0  0  0  0
   -2.2020    2.3880  -14.0800 C   0  0  0  0  0  0  0  0  0  0  0  0
   -0.9220    3.0730  -13.6880 C   0  0  0  0  0  0  0  0  0  0  0  0
   -0.9440    4.3390  -13.0990 C   0  0  0  0  0  0  0  0  0  0  0  0
   -2.1070    5.0980  -13.2610 C   0  0  0  0  0  0  0  0  0  0  0  0
   -7.6780    5.2650  -15.1510 N   0  0  0  0  0  0  0  0  0  0  0  0
   -8.1930    5.1320  -16.4650 C   0  0  0  0  0  0  0  0  0  0  0  0
   -9.5470    4.8840  -16.6830 C   0  0  0  0  0  0  0  0  0  0  0  0
  -10.0570    4.7410  -17.9830 C   0  0  0  0  0  0  0  0  0  0  0  0
   -9.2110    4.8430  -19.0790 C   0  0  0  0  0  0  0  0  0  0  0  0
   -7.8500    5.0950  -18.8930 C   0  0  0  0  0  0  0  0  0  0  0  0
   -7.0210    5.1900  -20.0160 C   0  0  0  0  0  0  0  0  0  0  0  0
   -5.6670    5.4450  -19.9030 C   0  0  0  0  0  0  0  0  0  0  0  0
   -5.1120    5.6030  -18.6510 C   0  0  0  0  0  0  0  0  0  0  0  0
   -5.9150    5.5030  -17.5180 C   0  0  0  0  0  0  0  0  0  0  0  0
   -7.3110    5.2480  -17.5890 C   0  0  0  0  0  0  0  0  0  0  0  0
   -5.5250    3.5750  -14.1990 H   0  0  0  0  0  0  0  0  0  0  0  0
   -6.4470    4.4450  -13.0450 H   0  0  0  0  0  0  0  0  0  0  0  0
   -4.2330    5.9550  -13.6780 H   0  0  0  0  0  0  0  0  0  0  0  0
   -4.7770    5.4910  -12.1430 H   0  0  0  0  0  0  0  0  0  0  0  0
   -3.3510    3.8590  -12.0680 H   0  0  0  0  0  0  0  0  0  0  0  0
   -3.6880    3.4200  -14.9350 H   0  0  0  0  0  0  0  0  0  0  0  0
   -4.1460    2.4620  -13.5570 H   0  0  0  0  0  0  0  0  0  0  0  0
   -2.3330    1.4550  -13.5220 H   0  0  0  0  0  0  0  0  0  0  0  0
   -2.1340    2.0820  -15.1290 H   0  0  0  0  0  0  0  0  0  0  0  0
   -0.4210    2.4040  -12.9760 H   0  0  0  0  0  0  0  0  0  0  0  0
   -0.2300    3.1180  -14.5360 H   0  0  0  0  0  0  0  0  0  0  0  0
   -0.7590    4.2100  -12.0260 H   0  0  0  0  0  0  0  0  0  0  0  0
   -0.0890    4.9190  -13.4680 H   0  0  0  0  0  0  0  0  0  0  0  0
   -2.0900    5.5420  -14.2650 H   0  0  0  0  0  0  0  0  0  0  0  0
   -2.1030    5.9330  -12.5540 H   0  0  0  0  0  0  0  0  0  0  0  0
   -8.2810    4.9650  -14.4010 H   0  0  0  0  0  0  0  0  0  0  0  0
  -10.2490    4.7920  -15.8620 H   0  0  0  0  0  0  0  0  0  0  0  0
  -11.1150    4.5490  -18.1320 H   0  0  0  0  0  0  0  0  0  0  0  0
   -9.6200    4.7270  -20.0800 H   0  0  0  0  0  0  0  0  0  0  0  0
   -7.4230    5.0620  -21.0100 H   0  0  0  0  0  0  0  0  0  0  0  0
   -5.0460    5.5170  -20.7940 H   0  0  0  0  0  0  0  0  0  0  0  0
   -4.0470    5.8010  -18.5490 H   0  0  0  0  0  0  0  0  0  0  0  0
   -5.4100    5.6310  -16.5750 H   0  0  0  0  0  0  0  0  0  0  0  0
  1  2  2  0
  2  3  1  0
  3  4  1  0
  4  5  1  0
  5  6  1  0
  6  7  1  0
  7  8  1  0
  8  9  1  0
  9 10  1  0
  2 11  1  0
 11 12  1  0
 12 13  2  0
 13 14  1  0
 14 15  2  0
 15 16  1  0
 16 17  2  0
 17 18  1  0
 18 19  2  0
 19 20  1  0
 20 21  2  0
 10  5  1  0
 21 12  1  0
 21 16  1  0
  3 22  1  0
  3 23  1  0
  4 24  1  0
  4 25  1  0
  5 26  1  0
  6 27  1  0
  6 28  1  0
  7 29  1  0
  7 30  1  0
  8 31  1  0
  8 32  1  0
  9 33  1  0
  9 34  1  0
 10 35  1  0
 10 36  1  0
 11 37  1  0
 13 38  1  0
 14 39  1  0
 15 40  1  0
 17 41  1  0
 18 42  1  0
 19 43  1  0
 20 44  1  0
A    1
 O1 
A    2
 C1 
A    3
 C2 
A    4
 C3 
A    5
 C4 
A    6
 C5 
A    7
 C6 
A    8
 C7 
A    9
 C8 
A   10
 C9 
A   11
 N1 
A   12
 C10
A   13
 C11
A   14
 C12
A   15
 C13
A   16
 C14
A   17
 C15
A   18
 C16
A   19
 C17
A   20
 C18
A   21
 C19
A   22
 H1 
A   23
 H2 
A   24
 H3 
A   25
 H4 
A   26
 H5 
A   27
 H6 
A   28
 H7 
A   29
 H8 
A   30
 H9 
A   31
 H10
A   32
 H11
A   33
 H12
A   34
 H13
A   35
 H14
A   36
 H15
A   37
 H16
A   38
 H17
A   39
 H18
A   40
 H19
A   41
 H20
A   42
 H21
A   43
 H22
A   44
 H23
M  END
>  <ref_pdb>  (121) 
x0051_0B

>  <ref_mols>  (121) 
x0429_0B,x0455_0B

>  <original SMILES>  (121) 
[H]c1c([H])c([H])c2c(N([H])C(=O)C([H])([H])C([H])([H])C3([H])C([H])([H])C([H])([H])C([H])([H])C([H])([H])C3([H])[H])c([H])c([H])c([H])c2c1[H]

>  <index>  (121) 
744

>  <∆∆G>  (121) 
-7.406192

>  <∆G_bound>  (121) 
-7.048147

>  <∆G_unbound>  (121) 
0.358045

>  <comRMSD>  (121) 
0.806005

>  <N_constrained_atoms>  (121) 
16.0

>  <N_unconstrained_atoms>  (121) 
8.0

>  <runtime>  (121) 
66.364735

>  <LE>  (121) 
0.308591

>  <percent_hybrid>  (121) 
25.0

>  <dist>  (121) 
6.0

>  <ecfp4>  (121) 
0.126984

>  <daylight>  (121) 
0.19697

>  <topodist>  (121) 
4.0

>  <mces>  (121) 
20.0

>  <tdn>  (121) 
0.0

>  <tup>  (121) 
1.0

>  <rdn>  (121) 
1.0

>  <rup>  (121) 
0.0

>  <ldn>  (121) 
0.0

>  <lup>  (121) 
2.0

>  <mut>  (121) 
2.0

>  <maj>  (121) 
2.0

>  <min>  (121) 
0.0

>  <hyb>  (121) 
0.0

>  <sub>  (121) 
2.0

>  <query_index>  (121) 
158.0

>  <max_hit_Tanimoto>  (121) 
0.324653

>  <largest_ring>  (121) 
6

>  <N_interactions_kept>  (121) 
0.0

>  <N_interactions_lost>  (121) 
2.5

>  <interaction_uniqueness_metric>  (121) 
0.117892

>  <ad_hoc_penalty>  (121) 
-9.714835

>  <N_rotatable_bonds>  (121) 
4

>  <N_HA>  (121) 
21

>  <cluster>  (121) 
5538

>  <N_interactions>  (121) 
7

>  <Enamine>  (121) 
1

>  <Mcule>  (121) 
0

>  <N_PAINS>  (121) 
0

>  <UFF_Gibbs>  (121) 
260.110988

>  <strain_per_HA>  (121) 
12.386238

>  <intxn_scored>  (121) 
10.5

>  <saltbridge:HIS:51>  (121) 
0

>  <pistack:HIS:51>  (121) 
0

>  <hydroph_interaction:HIS:51>  (121) 
0

>  <hbond:ALA:132>  (121) 
0

>  <hbond:SER:135>  (121) 
0

>  <hydroph_interaction:TYR:150>  (121) 
1

>  <pistack:TYR:161>  (121) 
2

>  <hydroph_interaction:TYR:161>  (121) 
2

>  <hydroph_interaction:ASP:83>  (121) 
0

>  <hbond:TYR:130>  (121) 
0

>  <hydroph_interaction:ALA:132>  (121) 
0

>  <hbond:HIS:51>  (121) 
0

>  <hbond:ASP:129>  (121) 
0

>  <hbond:TYR:150>  (121) 
0

>  <hbond:GLY:151>  (121) 
1

>  <hbond:TYR:161>  (121) 
0

>  <hydroph_interaction:TYR:130>  (121) 
0

>  <hydroph_interaction:PRO:131>  (121) 
0

>  <hydroph_interaction:ASP:129>  (121) 
0

>  <saltbridge:ASP:75>  (121) 
0

>  <saltbridge:ASP:83>  (121) 
0

>  <hbond:ASN:152>  (121) 
0

>  <hydroph_interaction:ASN:152>  (121) 
0

>  <halogenbond:TYR:150>  (121) 
0

>  <hbond:ASP:83>  (121) 
0

>  <hydroph_interaction:VAL:155>  (121) 
1

>  <pication:TYR:161>  (121) 
0

>  <hbond:PRO:131>  (121) 
0

>  <saltbridge:ASP:129>  (121) 
0

>  <hbond:THR:134>  (121) 
0

>  <pication:HIS:51>  (121) 
0

>  <hbond:SER:81>  (121) 
0

>  <hydroph_interaction:THR:134>  (121) 
0

>  <hydroph_interaction:MET:49>  (121) 
0

$$$$
CSSB00000684998
     RDKit          3D

 24 25  0  0  0  0  0  0  0  0999 V2000
   -2.7100    5.4670  -17.2250 N   0  0  0  0  0  0  0  0  0  0  0  0
   -3.9040    4.8470  -17.2140 C   0  0  0  0  0  0  0  0  0  0  0  0
   -5.0870    5.7770  -16.9650 C   0  0  0  0  0  0  0  0  0  0  0  0
   -6.1170    5.6960  -17.9710 N   0  0  0  0  0  0  0  0  0  0  0  0
   -5.8740    5.5640  -19.3630 C   0  0  0  0  0  0  0  0  0  0  0  0
   -4.8000    5.5820  -19.9360 O   0  0  0  0  0  0  0  0  0  0  0  0
   -7.1220    5.4040  -19.9840 N   0  0  0  0  0  0  0  0  0  0  0  0
   -8.0390    5.2200  -18.9810 C   0  0  0  0  0  0  0  0  0  0  0  0
   -9.3820    4.9080  -19.0490 C   0  0  0  0  0  0  0  0  0  0  0  0
  -10.1660    4.7650  -17.9340 C   0  0  0  0  0  0  0  0  0  0  0  0
   -9.5830    4.9410  -16.6640 C   0  0  0  0  0  0  0  0  0  0  0  0
   -8.2080    5.2590  -16.5540 C   0  0  0  0  0  0  0  0  0  0  0  0
   -7.4340    5.3990  -17.7470 C   0  0  0  0  0  0  0  0  0  0  0  0
   -1.9080    4.8950  -16.9840 H   0  0  0  0  0  0  0  0  0  0  0  0
   -2.6480    6.4330  -16.9460 H   0  0  0  0  0  0  0  0  0  0  0  0
   -4.0350    4.3650  -18.1880 H   0  0  0  0  0  0  0  0  0  0  0  0
   -3.8750    4.0600  -16.4530 H   0  0  0  0  0  0  0  0  0  0  0  0
   -4.7710    6.8210  -16.8710 H   0  0  0  0  0  0  0  0  0  0  0  0
   -5.5450    5.4920  -16.0100 H   0  0  0  0  0  0  0  0  0  0  0  0
   -7.3550    5.7930  -20.8900 H   0  0  0  0  0  0  0  0  0  0  0  0
   -9.8460    4.7720  -20.0290 H   0  0  0  0  0  0  0  0  0  0  0  0
  -11.2160    4.5200  -18.1340 H   0  0  0  0  0  0  0  0  0  0  0  0
  -10.1870    4.8310  -15.7650 H   0  0  0  0  0  0  0  0  0  0  0  0
   -7.7640    5.3920  -15.5790 H   0  0  0  0  0  0  0  0  0  0  0  0
  1  2  1  0
  2  3  1  0
  3  4  1  0
  4  5  1  0
  5  6  2  0
  5  7  1  0
  7  8  1  0
  8  9  2  0
  9 10  1  0
 10 11  2  0
 11 12  1  0
 12 13  2  0
 13  4  1  0
 13  8  1  0
  1 14  1  0
  1 15  1  0
  2 16  1  0
  2 17  1  0
  3 18  1  0
  3 19  1  0
  7 20  1  0
  9 21  1  0
 10 22  1  0
 11 23  1  0
 12 24  1  0
A    1
 N1 
A    2
 C1 
A    3
 C2 
A    4
 N2 
A    5
 C3 
A    6
 O1 
A    7
 N3 
A    8
 C4 
A    9
 C5 
A   10
 C6 
A   11
 C7 
A   12
 C8 
A   13
 C9 
A   14
 H1 
A   15
 H2 
A   16
 H3 
A   17
 H4 
A   18
 H5 
A   19
 H6 
A   20
 H7 
A   21
 H8 
A   22
 H9 
A   23
 H10
A   24
 H11
M  END
>  <ref_pdb>  (122) 
x0051_0B

>  <ref_mols>  (122) 
x0490_0B,x0425_0B

>  <original SMILES>  (122) 
[H]c1c([H])c([H])c2c(c1[H])n([H])c(=O)n2C([H])([H])C([H])([H])N([H])[H]

>  <index>  (122) 
2653

>  <∆∆G>  (122) 
-6.147439

>  <∆G_bound>  (122) 
-5.947158

>  <∆G_unbound>  (122) 
0.200281

>  <comRMSD>  (122) 
0.510246

>  <N_constrained_atoms>  (122) 
13.0

>  <N_unconstrained_atoms>  (122) 
0.0

>  <runtime>  (122) 
21.533266

>  <LE>  (122) 
0.47288

>  <percent_hybrid>  (122) 
50.0

>  <dist>  (122) 
2.0

>  <ecfp4>  (122) 
0.340909

>  <daylight>  (122) 
0.118644

>  <topodist>  (122) 
1.0

>  <mces>  (122) 
13.0

>  <tdn>  (122) 
0.0

>  <tup>  (122) 
1.0

>  <rdn>  (122) 
0.0

>  <rup>  (122) 
0.0

>  <ldn>  (122) 
0.0

>  <lup>  (122) 
0.0

>  <mut>  (122) 
0.0

>  <maj>  (122) 
0.0

>  <min>  (122) 
0.0

>  <hyb>  (122) 
1.0

>  <sub>  (122) 
1.0

>  <query_index>  (122) 
272.0

>  <max_hit_Tanimoto>  (122) 
0.667377

>  <largest_ring>  (122) 
6

>  <N_interactions_kept>  (122) 
1.0

>  <N_interactions_lost>  (122) 
2.5

>  <interaction_uniqueness_metric>  (122) 
0.058381

>  <ad_hoc_penalty>  (122) 
-4.603246

>  <N_rotatable_bonds>  (122) 
3

>  <N_HA>  (122) 
13

>  <cluster>  (122) 
3772

>  <N_interactions>  (122) 
4

>  <Enamine>  (122) 
1

>  <Mcule>  (122) 
0

>  <N_PAINS>  (122) 
0

>  <UFF_Gibbs>  (122) 
55.562791

>  <strain_per_HA>  (122) 
4.274061

>  <intxn_scored>  (122) 
10.5

>  <saltbridge:HIS:51>  (122) 
0

>  <pistack:HIS:51>  (122) 
0

>  <hydroph_interaction:HIS:51>  (122) 
0

>  <hbond:ALA:132>  (122) 
0

>  <hbond:SER:135>  (122) 
0

>  <hydroph_interaction:TYR:150>  (122) 
1

>  <pistack:TYR:161>  (122) 
2

>  <hydroph_interaction:TYR:161>  (122) 
0

>  <hydroph_interaction:ASP:83>  (122) 
0

>  <hbond:TYR:130>  (122) 
1

>  <hydroph_interaction:ALA:132>  (122) 
0

>  <hbond:HIS:51>  (122) 
0

>  <hbond:ASP:129>  (122) 
0

>  <hbond:TYR:150>  (122) 
0

>  <hbond:GLY:151>  (122) 
0

>  <hbond:TYR:161>  (122) 
0

>  <hydroph_interaction:TYR:130>  (122) 
0

>  <hydroph_interaction:PRO:131>  (122) 
0

>  <hydroph_interaction:ASP:129>  (122) 
0

>  <saltbridge:ASP:75>  (122) 
0

>  <saltbridge:ASP:83>  (122) 
0

>  <hbond:ASN:152>  (122) 
0

>  <hydroph_interaction:ASN:152>  (122) 
0

>  <halogenbond:TYR:150>  (122) 
0

>  <hbond:ASP:83>  (122) 
0

>  <hydroph_interaction:VAL:155>  (122) 
0

>  <pication:TYR:161>  (122) 
0

>  <hbond:PRO:131>  (122) 
0

>  <saltbridge:ASP:129>  (122) 
0

>  <hbond:THR:134>  (122) 
0

>  <pication:HIS:51>  (122) 
0

>  <hbond:SER:81>  (122) 
0

>  <hydroph_interaction:THR:134>  (122) 
0

>  <hydroph_interaction:MET:49>  (122) 
0

$$$$
PV-002887821925
     RDKit          3D

 55 57  0  0  0  0  0  0  0  0999 V2000
   -4.1270    5.2550  -16.5470 C   0  0  0  0  0  0  0  0  0  0  0  0
   -5.2440    5.3400  -17.5820 C   0  0  0  0  0  0  0  0  0  0  0  0
   -6.6080    5.0950  -17.0360 C   0  0  0  0  0  0  0  0  0  0  0  0
   -7.7030    5.1390  -17.9160 C   0  0  0  0  0  0  0  0  0  0  0  0
   -8.9900    4.9080  -17.5010 N   0  0  0  0  0  0  0  0  0  0  0  0
  -10.0300    4.6190  -18.4770 C   0  0  0  0  0  0  0  0  0  0  0  0
   -9.3930    4.9680  -16.0730 C   0  0  0  0  0  0  0  0  0  0  0  0
   -9.4960    6.4070  -15.6400 C   0  0  0  0  0  0  0  0  0  0  0  0
  -10.1600    6.8110  -14.4220 N   0  0  0  0  0  0  0  0  0  0  0  0
   -9.4090    7.4830  -13.5170 C   0  0  0  0  0  0  0  0  0  0  0  0
   -9.0110    8.6460  -13.6300 O   0  0  0  0  0  0  0  0  0  0  0  0
   -9.1100    6.7120  -12.4220 C   0  0  0  0  0  0  0  0  0  0  0  0
   -8.8560    7.3830  -11.0830 C   0  0  0  0  0  0  0  0  0  0  0  0
   -8.5440    6.3960   -9.9840 C   0  0  0  0  0  0  0  0  0  0  0  0
   -8.4950    5.0190  -10.1900 C   0  0  0  0  0  0  0  0  0  0  0  0
   -8.1940    4.1300   -9.1620 N   0  0  0  0  0  0  0  0  0  0  0  0
   -8.6770    2.7440   -9.2890 C   0  0  0  0  0  0  0  0  0  0  0  0
   -9.7240    2.4530   -8.2260 C   0  0  0  0  0  0  0  0  0  0  0  0
   -9.3770    3.0210   -6.8640 C   0  0  0  0  0  0  0  0  0  0  0  0
   -8.9320    4.4650   -6.8890 C   0  0  0  0  0  0  0  0  0  0  0  0
   -7.7750    4.6210   -7.8500 C   0  0  0  0  0  0  0  0  0  0  0  0
   -8.7490    4.5070  -11.4700 C   0  0  0  0  0  0  0  0  0  0  0  0
   -9.0490    5.3220  -12.5590 C   0  0  0  0  0  0  0  0  0  0  0  0
   -7.4310    5.4230  -19.2660 C   0  0  0  0  0  0  0  0  0  0  0  0
   -6.1430    5.6570  -19.7660 C   0  0  0  0  0  0  0  0  0  0  0  0
   -5.0450    5.6150  -18.9260 C   0  0  0  0  0  0  0  0  0  0  0  0
   -4.5080    4.8080  -15.6240 H   0  0  0  0  0  0  0  0  0  0  0  0
   -3.3180    4.6240  -16.9260 H   0  0  0  0  0  0  0  0  0  0  0  0
   -3.7320    6.2470  -16.3230 H   0  0  0  0  0  0  0  0  0  0  0  0
   -6.7260    4.8820  -15.9780 H   0  0  0  0  0  0  0  0  0  0  0  0
   -9.9790    5.3080  -19.3280 H   0  0  0  0  0  0  0  0  0  0  0  0
   -9.9310    3.6030  -18.8420 H   0  0  0  0  0  0  0  0  0  0  0  0
  -11.0350    4.7290  -18.0570 H   0  0  0  0  0  0  0  0  0  0  0  0
  -10.3500    4.4740  -15.9120 H   0  0  0  0  0  0  0  0  0  0  0  0
   -8.6650    4.4440  -15.4430 H   0  0  0  0  0  0  0  0  0  0  0  0
  -10.0720    6.8570  -16.4090 H   0  0  0  0  0  0  0  0  0  0  0  0
   -8.5060    6.8670  -15.6230 H   0  0  0  0  0  0  0  0  0  0  0  0
  -10.8580    6.1590  -14.0820 H   0  0  0  0  0  0  0  0  0  0  0  0
   -8.8940    8.4600  -10.9250 H   0  0  0  0  0  0  0  0  0  0  0  0
   -8.3590    6.8690   -9.0150 H   0  0  0  0  0  0  0  0  0  0  0  0
   -7.8700    2.0120   -9.1680 H   0  0  0  0  0  0  0  0  0  0  0  0
   -9.1130    2.5830  -10.2830 H   0  0  0  0  0  0  0  0  0  0  0  0
   -9.8620    1.3740   -8.1330 H   0  0  0  0  0  0  0  0  0  0  0  0
  -10.6810    2.8630   -8.5530 H   0  0  0  0  0  0  0  0  0  0  0  0
   -8.5830    2.4130   -6.4150 H   0  0  0  0  0  0  0  0  0  0  0  0
  -10.2630    2.9490   -6.2290 H   0  0  0  0  0  0  0  0  0  0  0  0
   -9.7630    5.1030   -7.2030 H   0  0  0  0  0  0  0  0  0  0  0  0
   -8.6320    4.7850   -5.8850 H   0  0  0  0  0  0  0  0  0  0  0  0
   -7.5030    5.6830   -7.8940 H   0  0  0  0  0  0  0  0  0  0  0  0
   -6.9110    4.0540   -7.4780 H   0  0  0  0  0  0  0  0  0  0  0  0
   -8.7130    3.4320  -11.6330 H   0  0  0  0  0  0  0  0  0  0  0  0
   -9.2320    4.8440  -13.5160 H   0  0  0  0  0  0  0  0  0  0  0  0
   -8.2410    5.4690  -19.9830 H   0  0  0  0  0  0  0  0  0  0  0  0
   -6.0120    5.8710  -20.8240 H   0  0  0  0  0  0  0  0  0  0  0  0
   -4.0490    5.7930  -19.3200 H   0  0  0  0  0  0  0  0  0  0  0  0
  1  2  1  0
  2  3  2  0
  3  4  1  0
  4  5  1  0
  5  6  1  0
  5  7  1  0
  7  8  1  0
  8  9  1  0
  9 10  1  0
 10 11  2  0
 10 12  1  0
 12 13  2  0
 13 14  1  0
 14 15  2  0
 15 16  1  0
 16 17  1  0
 17 18  1  0
 18 19  1  0
 19 20  1  0
 20 21  1  0
 15 22  1  0
 22 23  2  0
  4 24  2  0
 24 25  1  0
 25 26  2  0
 26  2  1  0
 23 12  1  0
 21 16  1  0
  1 27  1  0
  1 28  1  0
  1 29  1  0
  3 30  1  0
  6 31  1  0
  6 32  1  0
  6 33  1  0
  7 34  1  0
  7 35  1  0
  8 36  1  0
  8 37  1  0
  9 38  1  0
 13 39  1  0
 14 40  1  0
 17 41  1  0
 17 42  1  0
 18 43  1  0
 18 44  1  0
 19 45  1  0
 19 46  1  0
 20 47  1  0
 20 48  1  0
 21 49  1  0
 21 50  1  0
 22 51  1  0
 23 52  1  0
 24 53  1  0
 25 54  1  0
 26 55  1  0
A    1
 C1 
A    2
 C2 
A    3
 C3 
A    4
 C4 
A    5
 N1 
A    6
 C5 
A    7
 C6 
A    8
 C7 
A    9
 N2 
A   10
 C8 
A   11
 O1 
A   12
 C9 
A   13
 C10
A   14
 C11
A   15
 C12
A   16
 N3 
A   17
 C13
A   18
 C14
A   19
 C15
A   20
 C16
A   21
 C17
A   22
 C18
A   23
 C19
A   24
 C20
A   25
 C21
A   26
 C22
A   27
 H1 
A   28
 H2 
A   29
 H3 
A   30
 H4 
A   31
 H5 
A   32
 H6 
A   33
 H7 
A   34
 H8 
A   35
 H9 
A   36
 H10
A   37
 H11
A   38
 H12
A   39
 H13
A   40
 H14
A   41
 H15
A   42
 H16
A   43
 H17
A   44
 H18
A   45
 H19
A   46
 H20
A   47
 H21
A   48
 H22
A   49
 H23
A   50
 H24
A   51
 H25
A   52
 H26
A   53
 H27
A   54
 H28
A   55
 H29
M  END
>  <ref_pdb>  (123) 
x0051_0B

>  <ref_mols>  (123) 
x0425_0B,x0404_0B

>  <original SMILES>  (123) 
[H]c1c([H])c(N(C([H])([H])[H])C([H])([H])C([H])([H])N([H])C(=O)c2c([H])c([H])c(N3C([H])([H])C([H])([H])C([H])([H])C([H])([H])C3([H])[H])c([H])c2[H])c([H])c(C([H])([H])[H])c1[H]

>  <index>  (123) 
2104

>  <∆∆G>  (123) 
-7.853586

>  <∆G_bound>  (123) 
-8.174976

>  <∆G_unbound>  (123) 
-0.32139

>  <comRMSD>  (123) 
0.668137

>  <N_constrained_atoms>  (123) 
27.0

>  <N_unconstrained_atoms>  (123) 
1.0

>  <runtime>  (123) 
102.74129

>  <LE>  (123) 
0.280485

>  <percent_hybrid>  (123) 
41.0

>  <dist>  (123) 
7.0

>  <ecfp4>  (123) 
0.22619

>  <daylight>  (123) 
0.243902

>  <topodist>  (123) 
2.0

>  <mces>  (123) 
28.0

>  <tdn>  (123) 
2.0

>  <tup>  (123) 
0.0

>  <rdn>  (123) 
0.0

>  <rup>  (123) 
0.0

>  <ldn>  (123) 
0.0

>  <lup>  (123) 
0.0

>  <mut>  (123) 
4.0

>  <maj>  (123) 
4.0

>  <min>  (123) 
0.0

>  <hyb>  (123) 
1.0

>  <sub>  (123) 
1.0

>  <query_index>  (123) 
62.0

>  <max_hit_Tanimoto>  (123) 
0.29916

>  <largest_ring>  (123) 
6

>  <N_interactions_kept>  (123) 
1.0

>  <N_interactions_lost>  (123) 
3.0

>  <interaction_uniqueness_metric>  (123) 
0.159855

>  <ad_hoc_penalty>  (123) 
-7.653055

>  <N_rotatable_bonds>  (123) 
8

>  <N_HA>  (123) 
26

>  <cluster>  (123) 
4287

>  <N_interactions>  (123) 
7

>  <Enamine>  (123) 
1

>  <Mcule>  (123) 
0

>  <N_PAINS>  (123) 
0

>  <UFF_Gibbs>  (123) 
137.903079

>  <strain_per_HA>  (123) 
5.303965

>  <intxn_scored>  (123) 
10.5

>  <saltbridge:HIS:51>  (123) 
0

>  <pistack:HIS:51>  (123) 
1

>  <hydroph_interaction:HIS:51>  (123) 
1

>  <hbond:ALA:132>  (123) 
0

>  <hbond:SER:135>  (123) 
2

>  <hydroph_interaction:TYR:150>  (123) 
0

>  <pistack:TYR:161>  (123) 
1

>  <hydroph_interaction:TYR:161>  (123) 
2

>  <hydroph_interaction:ASP:83>  (123) 
0

>  <hbond:TYR:130>  (123) 
0

>  <hydroph_interaction:ALA:132>  (123) 
0

>  <hbond:HIS:51>  (123) 
0

>  <hbond:ASP:129>  (123) 
0

>  <hbond:TYR:150>  (123) 
0

>  <hbond:GLY:151>  (123) 
0

>  <hbond:TYR:161>  (123) 
0

>  <hydroph_interaction:TYR:130>  (123) 
0

>  <hydroph_interaction:PRO:131>  (123) 
0

>  <hydroph_interaction:ASP:129>  (123) 
0

>  <saltbridge:ASP:75>  (123) 
0

>  <saltbridge:ASP:83>  (123) 
0

>  <hbond:ASN:152>  (123) 
0

>  <hydroph_interaction:ASN:152>  (123) 
0

>  <halogenbond:TYR:150>  (123) 
0

>  <hbond:ASP:83>  (123) 
0

>  <hydroph_interaction:VAL:155>  (123) 
0

>  <pication:TYR:161>  (123) 
0

>  <hbond:PRO:131>  (123) 
0

>  <saltbridge:ASP:129>  (123) 
0

>  <hbond:THR:134>  (123) 
0

>  <pication:HIS:51>  (123) 
0

>  <hbond:SER:81>  (123) 
0

>  <hydroph_interaction:THR:134>  (123) 
0

>  <hydroph_interaction:MET:49>  (123) 
0

$$$$
CSSB00000102171
     RDKit          3D

 20 21  0  0  0  0  0  0  0  0999 V2000
   -4.9800    5.8260  -17.2750 C   0  0  0  0  0  0  0  0  0  0  0  0
   -6.2730    5.6170  -16.6710 N   0  0  0  0  0  0  0  0  0  0  0  0
   -6.4600    5.7070  -15.3280 N   0  0  0  0  0  0  0  0  0  0  0  0
   -7.7610    5.4390  -15.1770 C   0  0  0  0  0  0  0  0  0  0  0  0
   -8.3920    5.4190  -13.9860 N   0  0  0  0  0  0  0  0  0  0  0  0
   -8.3950    5.1790  -16.4180 C   0  0  0  0  0  0  0  0  0  0  0  0
   -9.6810    4.8510  -16.8500 C   0  0  0  0  0  0  0  0  0  0  0  0
   -9.9310    4.6720  -18.2170 C   0  0  0  0  0  0  0  0  0  0  0  0
   -8.9020    4.8170  -19.1460 C   0  0  0  0  0  0  0  0  0  0  0  0
   -7.6190    5.1410  -18.7190 C   0  0  0  0  0  0  0  0  0  0  0  0
   -6.6140    5.2860  -19.5860 F   0  0  0  0  0  0  0  0  0  0  0  0
   -7.3970    5.3120  -17.3640 C   0  0  0  0  0  0  0  0  0  0  0  0
   -4.8110    5.0730  -18.0480 H   0  0  0  0  0  0  0  0  0  0  0  0
   -4.9650    6.8250  -17.7180 H   0  0  0  0  0  0  0  0  0  0  0  0
   -4.2200    5.7350  -16.4960 H   0  0  0  0  0  0  0  0  0  0  0  0
   -9.1460    6.0910  -13.8920 H   0  0  0  0  0  0  0  0  0  0  0  0
   -7.8560    5.2950  -13.1410 H   0  0  0  0  0  0  0  0  0  0  0  0
  -10.4660    4.7350  -16.1230 H   0  0  0  0  0  0  0  0  0  0  0  0
  -10.9350    4.4210  -18.5490 H   0  0  0  0  0  0  0  0  0  0  0  0
   -9.0940    4.6770  -20.2060 H   0  0  0  0  0  0  0  0  0  0  0  0
  1  2  1  0
  2  3  1  0
  3  4  2  0
  4  5  1  0
  4  6  1  0
  6  7  2  0
  7  8  1  0
  8  9  2  0
  9 10  1  0
 10 11  1  0
 10 12  2  0
 12  2  1  0
 12  6  1  0
  1 13  1  0
  1 14  1  0
  1 15  1  0
  5 16  1  0
  5 17  1  0
  7 18  1  0
  8 19  1  0
  9 20  1  0
A    1
 C1 
A    2
 N1 
A    3
 N2 
A    4
 C2 
A    5
 N3 
A    6
 C3 
A    7
 C4 
A    8
 C5 
A    9
 C6 
A   10
 C7 
A   11
 F1 
A   12
 C8 
A   13
 H1 
A   14
 H2 
A   15
 H3 
A   16
 H4 
A   17
 H5 
A   18
 H6 
A   19
 H7 
A   20
 H8 
M  END
>  <ref_pdb>  (124) 
x0051_0B

>  <ref_mols>  (124) 
x0951_0B,x0969_0B

>  <original SMILES>  (124) 
[H]c1c([H])c(F)c2c(c(N([H])[H])nn2C([H])([H])[H])c1[H]

>  <index>  (124) 
2394

>  <∆∆G>  (124) 
-5.485406

>  <∆G_bound>  (124) 
-5.408346

>  <∆G_unbound>  (124) 
0.07706

>  <comRMSD>  (124) 
0.782579

>  <N_constrained_atoms>  (124) 
15.0

>  <N_unconstrained_atoms>  (124) 
0.0

>  <runtime>  (124) 
21.33485

>  <LE>  (124) 
0.365694

>  <percent_hybrid>  (124) 
45.0

>  <dist>  (124) 
4.0

>  <ecfp4>  (124) 
0.245283

>  <daylight>  (124) 
0.3

>  <topodist>  (124) 
3.0

>  <mces>  (124) 
13.0

>  <tdn>  (124) 
1.0

>  <tup>  (124) 
0.0

>  <rdn>  (124) 
1.0

>  <rup>  (124) 
0.0

>  <ldn>  (124) 
1.0

>  <lup>  (124) 
0.0

>  <mut>  (124) 
1.0

>  <maj>  (124) 
1.0

>  <min>  (124) 
0.0

>  <hyb>  (124) 
0.0

>  <sub>  (124) 
2.0

>  <query_index>  (124) 
121.0

>  <max_hit_Tanimoto>  (124) 
0.20068

>  <largest_ring>  (124) 
6

>  <N_interactions_kept>  (124) 
0.0

>  <N_interactions_lost>  (124) 
3.0

>  <interaction_uniqueness_metric>  (124) 
0.113663

>  <ad_hoc_penalty>  (124) 
-9.322411

>  <N_rotatable_bonds>  (124) 
2

>  <N_HA>  (124) 
12

>  <cluster>  (124) 
4016

>  <N_interactions>  (124) 
5

>  <Enamine>  (124) 
1

>  <Mcule>  (124) 
0

>  <N_PAINS>  (124) 
0

>  <UFF_Gibbs>  (124) 
19.293084

>  <strain_per_HA>  (124) 
1.607757

>  <intxn_scored>  (124) 
10.5

>  <saltbridge:HIS:51>  (124) 
0

>  <pistack:HIS:51>  (124) 
0

>  <hydroph_interaction:HIS:51>  (124) 
0

>  <hbond:ALA:132>  (124) 
0

>  <hbond:SER:135>  (124) 
0

>  <hydroph_interaction:TYR:150>  (124) 
1

>  <pistack:TYR:161>  (124) 
2

>  <hydroph_interaction:TYR:161>  (124) 
0

>  <hydroph_interaction:ASP:83>  (124) 
0

>  <hbond:TYR:130>  (124) 
0

>  <hydroph_interaction:ALA:132>  (124) 
0

>  <hbond:HIS:51>  (124) 
0

>  <hbond:ASP:129>  (124) 
0

>  <hbond:TYR:150>  (124) 
0

>  <hbond:GLY:151>  (124) 
1

>  <hbond:TYR:161>  (124) 
1

>  <hydroph_interaction:TYR:130>  (124) 
0

>  <hydroph_interaction:PRO:131>  (124) 
0

>  <hydroph_interaction:ASP:129>  (124) 
0

>  <saltbridge:ASP:75>  (124) 
0

>  <saltbridge:ASP:83>  (124) 
0

>  <hbond:ASN:152>  (124) 
0

>  <hydroph_interaction:ASN:152>  (124) 
0

>  <halogenbond:TYR:150>  (124) 
0

>  <hbond:ASP:83>  (124) 
0

>  <hydroph_interaction:VAL:155>  (124) 
0

>  <pication:TYR:161>  (124) 
0

>  <hbond:PRO:131>  (124) 
0

>  <saltbridge:ASP:129>  (124) 
0

>  <hbond:THR:134>  (124) 
0

>  <pication:HIS:51>  (124) 
0

>  <hbond:SER:81>  (124) 
0

>  <hydroph_interaction:THR:134>  (124) 
0

>  <hydroph_interaction:MET:49>  (124) 
0

$$$$
PV-002929616299
     RDKit          3D

 26 27  0  0  0  0  0  0  0  0999 V2000
  -10.2060    6.9390  -14.0940 C   0  0  0  0  0  0  0  0  0  0  0  0
   -8.8490    6.7090  -13.4560 C   0  0  0  0  0  0  0  0  0  0  0  0
   -8.2600    5.4880  -13.9910 N   0  0  0  0  0  0  0  0  0  0  0  0
   -7.6500    5.5000  -15.2080 C   0  0  0  0  0  0  0  0  0  0  0  0
   -6.3590    5.7620  -15.4380 N   0  0  0  0  0  0  0  0  0  0  0  0
   -6.2370    5.6530  -16.7800 N   0  0  0  0  0  0  0  0  0  0  0  0
   -4.9680    5.8570  -17.4300 C   0  0  0  0  0  0  0  0  0  0  0  0
   -7.3900    5.3390  -17.4250 C   0  0  0  0  0  0  0  0  0  0  0  0
   -7.6800    5.1450  -18.7820 C   0  0  0  0  0  0  0  0  0  0  0  0
   -8.9930    4.8180  -19.1140 C   0  0  0  0  0  0  0  0  0  0  0  0
   -9.9660    4.6920  -18.1350 C   0  0  0  0  0  0  0  0  0  0  0  0
   -9.6480    4.8920  -16.7840 C   0  0  0  0  0  0  0  0  0  0  0  0
   -8.3380    5.2240  -16.4250 C   0  0  0  0  0  0  0  0  0  0  0  0
  -10.1180    7.4160  -15.0680 H   0  0  0  0  0  0  0  0  0  0  0  0
  -10.8390    7.5750  -13.4650 H   0  0  0  0  0  0  0  0  0  0  0  0
  -10.7140    5.9820  -14.2420 H   0  0  0  0  0  0  0  0  0  0  0  0
   -8.1960    7.5640  -13.6660 H   0  0  0  0  0  0  0  0  0  0  0  0
   -8.9810    6.6310  -12.3700 H   0  0  0  0  0  0  0  0  0  0  0  0
   -8.7130    4.6290  -13.6940 H   0  0  0  0  0  0  0  0  0  0  0  0
   -4.9310    5.2820  -18.3590 H   0  0  0  0  0  0  0  0  0  0  0  0
   -4.1830    5.5140  -16.7490 H   0  0  0  0  0  0  0  0  0  0  0  0
   -4.8530    6.9220  -17.6480 H   0  0  0  0  0  0  0  0  0  0  0  0
   -6.9200    5.2430  -19.5500 H   0  0  0  0  0  0  0  0  0  0  0  0
   -9.2540    4.6600  -20.1610 H   0  0  0  0  0  0  0  0  0  0  0  0
  -10.9830    4.4370  -18.4140 H   0  0  0  0  0  0  0  0  0  0  0  0
  -10.4040    4.7900  -16.0210 H   0  0  0  0  0  0  0  0  0  0  0  0
  1  2  1  0
  2  3  1  0
  3  4  1  0
  4  5  2  0
  5  6  1  0
  6  7  1  0
  6  8  1  0
  8  9  2  0
  9 10  1  0
 10 11  2  0
 11 12  1  0
 12 13  2  0
 13  4  1  0
 13  8  1  0
  1 14  1  0
  1 15  1  0
  1 16  1  0
  2 17  1  0
  2 18  1  0
  3 19  1  0
  7 20  1  0
  7 21  1  0
  7 22  1  0
  9 23  1  0
 10 24  1  0
 11 25  1  0
 12 26  1  0
A    1
 C1 
A    2
 C2 
A    3
 N1 
A    4
 C3 
A    5
 N2 
A    6
 N3 
A    7
 C4 
A    8
 C5 
A    9
 C6 
A   10
 C7 
A   11
 C8 
A   12
 C9 
A   13
 C10
A   14
 H1 
A   15
 H2 
A   16
 H3 
A   17
 H4 
A   18
 H5 
A   19
 H6 
A   20
 H7 
A   21
 H8 
A   22
 H9 
A   23
 H10
A   24
 H11
A   25
 H12
A   26
 H13
M  END
>  <ref_pdb>  (125) 
x0051_0B

>  <ref_mols>  (125) 
x0951_0B,x0969_0B

>  <original SMILES>  (125) 
[H]c1c([H])c([H])c2c(c(N([H])C([H])([H])C([H])([H])[H])nn2C([H])([H])[H])c1[H]

>  <index>  (125) 
3473

>  <∆∆G>  (125) 
-7.365699

>  <∆G_bound>  (125) 
-7.38801

>  <∆G_unbound>  (125) 
-0.022311

>  <comRMSD>  (125) 
0.767158

>  <N_constrained_atoms>  (125) 
16.0

>  <N_unconstrained_atoms>  (125) 
0.0

>  <runtime>  (125) 
33.361604

>  <LE>  (125) 
0.460356

>  <percent_hybrid>  (125) 
40.0

>  <dist>  (125) 
4.0

>  <ecfp4>  (125) 
0.245283

>  <daylight>  (125) 
0.331522

>  <topodist>  (125) 
2.0

>  <mces>  (125) 
14.0

>  <tdn>  (125) 
1.0

>  <tup>  (125) 
0.0

>  <rdn>  (125) 
1.0

>  <rup>  (125) 
0.0

>  <ldn>  (125) 
0.0

>  <lup>  (125) 
0.0

>  <mut>  (125) 
2.0

>  <maj>  (125) 
2.0

>  <min>  (125) 
0.0

>  <hyb>  (125) 
0.0

>  <sub>  (125) 
2.0

>  <query_index>  (125) 
121.0

>  <max_hit_Tanimoto>  (125) 
0.199525

>  <largest_ring>  (125) 
6

>  <N_interactions_kept>  (125) 
0.0

>  <N_interactions_lost>  (125) 
3.0

>  <interaction_uniqueness_metric>  (125) 
0.076239

>  <ad_hoc_penalty>  (125) 
-3.259141

>  <N_rotatable_bonds>  (125) 
4

>  <N_HA>  (125) 
13

>  <cluster>  (125) 
2998

>  <N_interactions>  (125) 
4

>  <Enamine>  (125) 
1

>  <Mcule>  (125) 
0

>  <N_PAINS>  (125) 
0

>  <UFF_Gibbs>  (125) 
22.909481

>  <strain_per_HA>  (125) 
1.762268

>  <intxn_scored>  (125) 
10.5

>  <saltbridge:HIS:51>  (125) 
0

>  <pistack:HIS:51>  (125) 
0

>  <hydroph_interaction:HIS:51>  (125) 
0

>  <hbond:ALA:132>  (125) 
0

>  <hbond:SER:135>  (125) 
0

>  <hydroph_interaction:TYR:150>  (125) 
1

>  <pistack:TYR:161>  (125) 
2

>  <hydroph_interaction:TYR:161>  (125) 
0

>  <hydroph_interaction:ASP:83>  (125) 
0

>  <hbond:TYR:130>  (125) 
0

>  <hydroph_interaction:ALA:132>  (125) 
0

>  <hbond:HIS:51>  (125) 
0

>  <hbond:ASP:129>  (125) 
0

>  <hbond:TYR:150>  (125) 
0

>  <hbond:GLY:151>  (125) 
0

>  <hbond:TYR:161>  (125) 
1

>  <hydroph_interaction:TYR:130>  (125) 
0

>  <hydroph_interaction:PRO:131>  (125) 
0

>  <hydroph_interaction:ASP:129>  (125) 
0

>  <saltbridge:ASP:75>  (125) 
0

>  <saltbridge:ASP:83>  (125) 
0

>  <hbond:ASN:152>  (125) 
0

>  <hydroph_interaction:ASN:152>  (125) 
0

>  <halogenbond:TYR:150>  (125) 
0

>  <hbond:ASP:83>  (125) 
0

>  <hydroph_interaction:VAL:155>  (125) 
0

>  <pication:TYR:161>  (125) 
0

>  <hbond:PRO:131>  (125) 
0

>  <saltbridge:ASP:129>  (125) 
0

>  <hbond:THR:134>  (125) 
0

>  <pication:HIS:51>  (125) 
0

>  <hbond:SER:81>  (125) 
0

>  <hydroph_interaction:THR:134>  (125) 
0

>  <hydroph_interaction:MET:49>  (125) 
0

$$$$
CSSS01991557444
     RDKit          3D

 25 26  0  0  0  0  0  0  0  0999 V2000
  -10.4110    4.7170  -18.1610 C   0  0  0  0  0  0  0  0  0  0  0  0
   -8.9720    5.0050  -18.0710 C   0  0  0  0  0  0  0  0  0  0  0  0
   -8.1350    5.1380  -19.0560 N   0  0  0  0  0  0  0  0  0  0  0  0
   -6.9540    5.3970  -18.4260 C   0  0  0  0  0  0  0  0  0  0  0  0
   -5.7090    5.6230  -19.0220 C   0  0  0  0  0  0  0  0  0  0  0  0
   -5.6700    5.5870  -20.4080 N   0  0  0  0  0  0  0  0  0  0  0  0
   -4.5710    5.5920  -21.1620 C   0  0  0  0  0  0  0  0  0  0  0  0
   -3.4270    5.5220  -20.7310 O   0  0  0  0  0  0  0  0  0  0  0  0
   -4.7750    5.6830  -22.5270 C   0  0  0  0  0  0  0  0  0  0  0  0
   -5.7350    6.5510  -23.0420 C   0  0  0  0  0  0  0  0  0  0  0  0
   -4.5540    5.8810  -18.0600 C   0  0  0  0  0  0  0  0  0  0  0  0
   -4.8650    5.8730  -16.5980 C   0  0  0  0  0  0  0  0  0  0  0  0
   -6.1260    5.6440  -16.1390 C   0  0  0  0  0  0  0  0  0  0  0  0
   -7.1440    5.4090  -17.0500 C   0  0  0  0  0  0  0  0  0  0  0  0
   -8.4570    5.1560  -16.8120 O   0  0  0  0  0  0  0  0  0  0  0  0
  -10.8090    4.5440  -17.1690 H   0  0  0  0  0  0  0  0  0  0  0  0
  -10.9770    5.5360  -18.6210 H   0  0  0  0  0  0  0  0  0  0  0  0
  -10.5330    3.8250  -18.7460 H   0  0  0  0  0  0  0  0  0  0  0  0
   -6.5560    5.8490  -20.8320 H   0  0  0  0  0  0  0  0  0  0  0  0
   -4.1730    5.0680  -23.1800 H   0  0  0  0  0  0  0  0  0  0  0  0
   -6.3300    7.1660  -22.3680 H   0  0  0  0  0  0  0  0  0  0  0  0
   -5.9150    6.6410  -24.1070 H   0  0  0  0  0  0  0  0  0  0  0  0
   -3.5390    6.0680  -18.3970 H   0  0  0  0  0  0  0  0  0  0  0  0
   -4.0520    6.0560  -15.8920 H   0  0  0  0  0  0  0  0  0  0  0  0
   -6.3250    5.6430  -15.0620 H   0  0  0  0  0  0  0  0  0  0  0  0
  1  2  1  0
  2  3  2  0
  3  4  1  0
  4  5  2  0
  5  6  1  0
  6  7  1  0
  7  8  2  0
  7  9  1  0
  9 10  2  3
  5 11  1  0
 11 12  2  0
 12 13  1  0
 13 14  2  0
 14 15  1  0
 15  2  1  0
 14  4  1  0
  1 16  1  0
  1 17  1  0
  1 18  1  0
  6 19  1  0
  9 20  1  0
 10 21  1  0
 10 22  1  0
 11 23  1  0
 12 24  1  0
 13 25  1  0
A    1
 C1 
A    2
 C2 
A    3
 N1 
A    4
 C3 
A    5
 C4 
A    6
 N2 
A    7
 C5 
A    8
 O1 
A    9
 C6 
A   10
 C7 
A   11
 C8 
A   12
 C9 
A   13
 C10
A   14
 C11
A   15
 O2 
A   16
 H1 
A   17
 H2 
A   18
 H3 
A   19
 H4 
A   20
 H5 
A   21
 H6 
A   22
 H7 
A   23
 H8 
A   24
 H9 
A   25
 H10
M  END
>  <ref_pdb>  (126) 
x0051_0B

>  <ref_mols>  (126) 
x0051_0B,x0101_0B

>  <original SMILES>  (126) 
[H]C([H])=C([H])C(=O)N([H])c1c([H])c([H])c([H])c2oc(C([H])([H])[H])nc12

>  <index>  (126) 
3060

>  <∆∆G>  (126) 
-5.301295

>  <∆G_bound>  (126) 
-5.013624

>  <∆G_unbound>  (126) 
0.287672

>  <comRMSD>  (126) 
0.569403

>  <N_constrained_atoms>  (126) 
16.0

>  <N_unconstrained_atoms>  (126) 
0.0

>  <runtime>  (126) 
29.165495

>  <LE>  (126) 
0.331331

>  <percent_hybrid>  (126) 
43.0

>  <dist>  (126) 
9.0

>  <ecfp4>  (126) 
0.150685

>  <daylight>  (126) 
0.203065

>  <topodist>  (126) 
3.0

>  <mces>  (126) 
16.0

>  <tdn>  (126) 
1.0

>  <tup>  (126) 
0.0

>  <rdn>  (126) 
1.0

>  <rup>  (126) 
0.0

>  <ldn>  (126) 
1.0

>  <lup>  (126) 
0.0

>  <mut>  (126) 
3.0

>  <maj>  (126) 
2.0

>  <min>  (126) 
1.0

>  <hyb>  (126) 
3.0

>  <sub>  (126) 
1.0

>  <query_index>  (126) 
294.0

>  <max_hit_Tanimoto>  (126) 
0.2

>  <largest_ring>  (126) 
6

>  <N_interactions_kept>  (126) 
2.0

>  <N_interactions_lost>  (126) 
3.0

>  <interaction_uniqueness_metric>  (126) 
0.095117

>  <ad_hoc_penalty>  (126) 
-3.887157

>  <N_rotatable_bonds>  (126) 
3

>  <N_HA>  (126) 
15

>  <cluster>  (126) 
3388

>  <N_interactions>  (126) 
5

>  <Enamine>  (126) 
1

>  <Mcule>  (126) 
0

>  <N_PAINS>  (126) 
0

>  <UFF_Gibbs>  (126) 
49.785894

>  <strain_per_HA>  (126) 
3.31906

>  <intxn_scored>  (126) 
10.5

>  <saltbridge:HIS:51>  (126) 
0

>  <pistack:HIS:51>  (126) 
0

>  <hydroph_interaction:HIS:51>  (126) 
0

>  <hbond:ALA:132>  (126) 
0

>  <hbond:SER:135>  (126) 
0

>  <hydroph_interaction:TYR:150>  (126) 
1

>  <pistack:TYR:161>  (126) 
2

>  <hydroph_interaction:TYR:161>  (126) 
0

>  <hydroph_interaction:ASP:83>  (126) 
0

>  <hbond:TYR:130>  (126) 
1

>  <hydroph_interaction:ALA:132>  (126) 
0

>  <hbond:HIS:51>  (126) 
0

>  <hbond:ASP:129>  (126) 
0

>  <hbond:TYR:150>  (126) 
0

>  <hbond:GLY:151>  (126) 
0

>  <hbond:TYR:161>  (126) 
0

>  <hydroph_interaction:TYR:130>  (126) 
0

>  <hydroph_interaction:PRO:131>  (126) 
0

>  <hydroph_interaction:ASP:129>  (126) 
1

>  <saltbridge:ASP:75>  (126) 
0

>  <saltbridge:ASP:83>  (126) 
0

>  <hbond:ASN:152>  (126) 
0

>  <hydroph_interaction:ASN:152>  (126) 
0

>  <halogenbond:TYR:150>  (126) 
0

>  <hbond:ASP:83>  (126) 
0

>  <hydroph_interaction:VAL:155>  (126) 
0

>  <pication:TYR:161>  (126) 
0

>  <hbond:PRO:131>  (126) 
0

>  <saltbridge:ASP:129>  (126) 
0

>  <hbond:THR:134>  (126) 
0

>  <pication:HIS:51>  (126) 
0

>  <hbond:SER:81>  (126) 
0

>  <hydroph_interaction:THR:134>  (126) 
0

>  <hydroph_interaction:MET:49>  (126) 
0

$$$$
CSSB00121573821
     RDKit          3D

 27 28  0  0  0  0  0  0  0  0999 V2000
   -4.3840    7.4890  -14.5400 C   0  0  0  0  0  0  0  0  0  0  0  0
   -5.3500    6.9920  -15.4600 O   0  0  0  0  0  0  0  0  0  0  0  0
   -5.0100    5.7860  -15.9650 C   0  0  0  0  0  0  0  0  0  0  0  0
   -4.2060    5.0000  -15.4940 O   0  0  0  0  0  0  0  0  0  0  0  0
   -5.7060    5.5530  -17.1690 C   0  0  0  0  0  0  0  0  0  0  0  0
   -4.7270    5.5610  -18.3250 C   0  0  0  0  0  0  0  0  0  0  0  0
   -5.4180    5.2960  -19.6630 C   0  0  0  0  0  0  0  0  0  0  0  0
   -6.7550    5.0850  -19.8380 N   0  0  0  0  0  0  0  0  0  0  0  0
   -7.5810    5.0860  -18.7630 C   0  0  0  0  0  0  0  0  0  0  0  0
   -8.9540    4.8480  -18.9470 C   0  0  0  0  0  0  0  0  0  0  0  0
   -9.8470    4.8260  -17.8730 C   0  0  0  0  0  0  0  0  0  0  0  0
   -9.2970    5.0720  -16.4690 C   0  0  0  0  0  0  0  0  0  0  0  0
  -10.0770    5.0700  -15.3890 F   0  0  0  0  0  0  0  0  0  0  0  0
   -7.9450    5.3050  -16.3140 C   0  0  0  0  0  0  0  0  0  0  0  0
   -7.1360    5.3060  -17.4400 C   0  0  0  0  0  0  0  0  0  0  0  0
   -4.4690    5.2640  -20.8090 C   0  0  0  0  0  0  0  0  0  0  0  0
   -4.9150    5.1070  -22.0840 N   0  0  0  0  0  0  0  0  0  0  0  0
   -3.2710    5.3340  -20.5840 O   0  0  0  0  0  0  0  0  0  0  0  0
   -4.2880    6.8240  -13.6770 H   0  0  0  0  0  0  0  0  0  0  0  0
   -3.4190    7.5630  -15.0520 H   0  0  0  0  0  0  0  0  0  0  0  0
   -4.6520    8.4900  -14.1920 H   0  0  0  0  0  0  0  0  0  0  0  0
   -3.6590    5.7270  -18.2150 H   0  0  0  0  0  0  0  0  0  0  0  0
   -9.2470    4.6840  -19.9930 H   0  0  0  0  0  0  0  0  0  0  0  0
  -10.9070    4.6380  -18.0410 H   0  0  0  0  0  0  0  0  0  0  0  0
   -7.5120    5.4830  -15.3320 H   0  0  0  0  0  0  0  0  0  0  0  0
   -4.8620    4.1940  -22.5500 H   0  0  0  0  0  0  0  0  0  0  0  0
   -4.7840    5.9190  -22.6750 H   0  0  0  0  0  0  0  0  0  0  0  0
  1  2  1  0
  2  3  1  0
  3  4  2  0
  3  5  1  0
  5  6  2  0
  6  7  1  0
  7  8  2  0
  8  9  1  0
  9 10  2  0
 10 11  1  0
 11 12  2  0
 12 13  1  0
 12 14  1  0
 14 15  2  0
  7 16  1  0
 16 17  1  0
 16 18  2  0
 15  5  1  0
 15  9  1  0
  1 19  1  0
  1 20  1  0
  1 21  1  0
  6 22  1  0
 10 23  1  0
 11 24  1  0
 14 25  1  0
 17 26  1  0
 17 27  1  0
A    1
 C1 
A    2
 O1 
A    3
 C2 
A    4
 O2 
A    5
 C3 
A    6
 C4 
A    7
 C5 
A    8
 N1 
A    9
 C6 
A   10
 C7 
A   11
 C8 
A   12
 C9 
A   13
 F1 
A   14
 C10
A   15
 C11
A   16
 C12
A   17
 N2 
A   18
 O3 
A   19
 H1 
A   20
 H2 
A   21
 H3 
A   22
 H4 
A   23
 H5 
A   24
 H6 
A   25
 H7 
A   26
 H8 
A   27
 H9 
M  END
>  <ref_pdb>  (127) 
x0051_0B

>  <ref_mols>  (127) 
x0429_0B,x0904_0B

>  <original SMILES>  (127) 
[H]c1c(F)c([H])c2c(C(=O)OC([H])([H])[H])c([H])c(C(=O)N([H])[H])nc2c1[H]

>  <index>  (127) 
2892

>  <∆∆G>  (127) 
-5.200952

>  <∆G_bound>  (127) 
-4.66511

>  <∆G_unbound>  (127) 
0.535842

>  <comRMSD>  (127) 
0.986825

>  <N_constrained_atoms>  (127) 
21.0

>  <N_unconstrained_atoms>  (127) 
0.0

>  <runtime>  (127) 
19.249786

>  <LE>  (127) 
0.247664

>  <percent_hybrid>  (127) 
47.0

>  <dist>  (127) 
8.0

>  <ecfp4>  (127) 
0.353846

>  <daylight>  (127) 
0.436464

>  <topodist>  (127) 
5.0

>  <mces>  (127) 
19.0

>  <tdn>  (127) 
4.0

>  <tup>  (127) 
0.0

>  <rdn>  (127) 
1.0

>  <rup>  (127) 
0.0

>  <ldn>  (127) 
0.0

>  <lup>  (127) 
0.0

>  <mut>  (127) 
3.0

>  <maj>  (127) 
3.0

>  <min>  (127) 
0.0

>  <hyb>  (127) 
0.0

>  <sub>  (127) 
2.0

>  <query_index>  (127) 
153.0

>  <max_hit_Tanimoto>  (127) 
0.251293

>  <largest_ring>  (127) 
6

>  <N_interactions_kept>  (127) 
0.5

>  <N_interactions_lost>  (127) 
3.0

>  <interaction_uniqueness_metric>  (127) 
0.097454

>  <ad_hoc_penalty>  (127) 
-3.675886

>  <N_rotatable_bonds>  (127) 
3

>  <N_HA>  (127) 
18

>  <cluster>  (127) 
3547

>  <N_interactions>  (127) 
5

>  <Enamine>  (127) 
1

>  <Mcule>  (127) 
0

>  <N_PAINS>  (127) 
0

>  <UFF_Gibbs>  (127) 
77.892138

>  <strain_per_HA>  (127) 
4.327341

>  <intxn_scored>  (127) 
10.5

>  <saltbridge:HIS:51>  (127) 
0

>  <pistack:HIS:51>  (127) 
0

>  <hydroph_interaction:HIS:51>  (127) 
0

>  <hbond:ALA:132>  (127) 
0

>  <hbond:SER:135>  (127) 
0

>  <hydroph_interaction:TYR:150>  (127) 
1

>  <pistack:TYR:161>  (127) 
2

>  <hydroph_interaction:TYR:161>  (127) 
0

>  <hydroph_interaction:ASP:83>  (127) 
0

>  <hbond:TYR:130>  (127) 
1

>  <hydroph_interaction:ALA:132>  (127) 
0

>  <hbond:HIS:51>  (127) 
0

>  <hbond:ASP:129>  (127) 
1

>  <hbond:TYR:150>  (127) 
0

>  <hbond:GLY:151>  (127) 
0

>  <hbond:TYR:161>  (127) 
0

>  <hydroph_interaction:TYR:130>  (127) 
0

>  <hydroph_interaction:PRO:131>  (127) 
0

>  <hydroph_interaction:ASP:129>  (127) 
0

>  <saltbridge:ASP:75>  (127) 
0

>  <saltbridge:ASP:83>  (127) 
0

>  <hbond:ASN:152>  (127) 
0

>  <hydroph_interaction:ASN:152>  (127) 
0

>  <halogenbond:TYR:150>  (127) 
0

>  <hbond:ASP:83>  (127) 
0

>  <hydroph_interaction:VAL:155>  (127) 
0

>  <pication:TYR:161>  (127) 
0

>  <hbond:PRO:131>  (127) 
0

>  <saltbridge:ASP:129>  (127) 
0

>  <hbond:THR:134>  (127) 
0

>  <pication:HIS:51>  (127) 
0

>  <hbond:SER:81>  (127) 
0

>  <hydroph_interaction:THR:134>  (127) 
0

>  <hydroph_interaction:MET:49>  (127) 
0

$$$$
CSSS00000032618
     RDKit          3D

 21 22  0  0  0  0  0  0  0  0999 V2000
   -8.6910    4.4630  -14.0930 O   0  0  0  0  0  0  0  0  0  0  0  0
   -7.8250    5.4910  -14.9720 S   0  0  0  0  0  6  0  0  0  0  0  0
   -6.4490    5.0790  -14.7860 O   0  0  0  0  0  0  0  0  0  0  0  0
   -8.2740    6.8190  -14.6320 O   0  0  0  0  0  0  0  0  0  0  0  0
   -8.2860    5.2050  -16.6470 C   0  0  0  0  0  0  0  0  0  0  0  0
   -9.7020    4.8790  -16.9100 C   0  0  0  0  0  0  0  0  0  0  0  0
  -10.1080    4.6540  -18.2200 C   0  0  0  0  0  0  0  0  0  0  0  0
   -9.1700    4.7310  -19.2540 C   0  0  0  0  0  0  0  0  0  0  0  0
   -7.8150    5.0330  -19.0020 C   0  0  0  0  0  0  0  0  0  0  0  0
   -6.9590    5.0740  -20.0960 C   0  0  0  0  0  0  0  0  0  0  0  0
   -5.6180    5.3660  -19.9140 N   0  0  0  0  0  0  0  0  0  0  0  0
   -5.1940    5.6000  -18.6640 C   0  0  0  0  0  0  0  0  0  0  0  0
   -5.9920    5.5710  -17.5470 C   0  0  0  0  0  0  0  0  0  0  0  0
   -7.3480    5.2790  -17.6970 C   0  0  0  0  0  0  0  0  0  0  0  0
   -9.1370    3.8130  -14.6790 H   0  0  0  0  0  0  0  0  0  0  0  0
  -10.4160    4.8160  -16.0960 H   0  0  0  0  0  0  0  0  0  0  0  0
  -11.1470    4.4190  -18.4410 H   0  0  0  0  0  0  0  0  0  0  0  0
   -9.4970    4.5520  -20.2740 H   0  0  0  0  0  0  0  0  0  0  0  0
   -7.2740    4.8880  -21.1160 H   0  0  0  0  0  0  0  0  0  0  0  0
   -4.1360    5.8220  -18.5750 H   0  0  0  0  0  0  0  0  0  0  0  0
   -5.5340    5.7750  -16.5870 H   0  0  0  0  0  0  0  0  0  0  0  0
  1  2  1  0
  2  3  2  0
  2  4  2  0
  2  5  1  0
  5  6  2  0
  6  7  1  0
  7  8  2  0
  8  9  1  0
  9 10  2  0
 10 11  1  0
 11 12  2  0
 12 13  1  0
 13 14  2  0
 14  5  1  0
 14  9  1  0
  1 15  1  0
  6 16  1  0
  7 17  1  0
  8 18  1  0
 10 19  1  0
 12 20  1  0
 13 21  1  0
A    1
 O1 
A    2
 S1 
A    3
 O2 
A    4
 O3 
A    5
 C1 
A    6
 C2 
A    7
 C3 
A    8
 C4 
A    9
 C5 
A   10
 C6 
A   11
 N1 
A   12
 C7 
A   13
 C8 
A   14
 C9 
A   15
 H1 
A   16
 H2 
A   17
 H3 
A   18
 H4 
A   19
 H5 
A   20
 H6 
A   21
 H7 
M  END
>  <ref_pdb>  (128) 
x0051_0B

>  <ref_mols>  (128) 
x0687_0B,x0455_0B

>  <original SMILES>  (128) 
[H]OS(=O)(=O)c1c([H])c([H])c([H])c2c([H])nc([H])c([H])c12

>  <index>  (128) 
2599

>  <∆∆G>  (128) 
-6.821524

>  <∆G_bound>  (128) 
-6.370426

>  <∆G_unbound>  (128) 
0.451099

>  <comRMSD>  (128) 
0.611214

>  <N_constrained_atoms>  (128) 
15.0

>  <N_unconstrained_atoms>  (128) 
0.0

>  <runtime>  (128) 
18.657618

>  <LE>  (128) 
0.454768

>  <percent_hybrid>  (128) 
45.0

>  <dist>  (128) 
6.0

>  <ecfp4>  (128) 
0.181818

>  <daylight>  (128) 
0.152439

>  <topodist>  (128) 
2.0

>  <mces>  (128) 
15.0

>  <tdn>  (128) 
1.0

>  <tup>  (128) 
0.0

>  <rdn>  (128) 
1.0

>  <rup>  (128) 
0.0

>  <ldn>  (128) 
0.0

>  <lup>  (128) 
0.0

>  <mut>  (128) 
4.0

>  <maj>  (128) 
4.0

>  <min>  (128) 
0.0

>  <hyb>  (128) 
0.0

>  <sub>  (128) 
1.0

>  <query_index>  (128) 
143.0

>  <max_hit_Tanimoto>  (128) 
0.158706

>  <largest_ring>  (128) 
6

>  <N_interactions_kept>  (128) 
0.0

>  <N_interactions_lost>  (128) 
4.0

>  <interaction_uniqueness_metric>  (128) 
0.101591

>  <ad_hoc_penalty>  (128) 
-7.388488

>  <N_rotatable_bonds>  (128) 
2

>  <N_HA>  (128) 
14

>  <cluster>  (128) 
3825

>  <N_interactions>  (128) 
6

>  <Enamine>  (128) 
1

>  <Mcule>  (128) 
0

>  <N_PAINS>  (128) 
0

>  <UFF_Gibbs>  (128) 
31.732534

>  <strain_per_HA>  (128) 
2.26661

>  <intxn_scored>  (128) 
10.5

>  <saltbridge:HIS:51>  (128) 
0

>  <pistack:HIS:51>  (128) 
0

>  <hydroph_interaction:HIS:51>  (128) 
0

>  <hbond:ALA:132>  (128) 
0

>  <hbond:SER:135>  (128) 
0

>  <hydroph_interaction:TYR:150>  (128) 
1

>  <pistack:TYR:161>  (128) 
1

>  <hydroph_interaction:TYR:161>  (128) 
2

>  <hydroph_interaction:ASP:83>  (128) 
0

>  <hbond:TYR:130>  (128) 
0

>  <hydroph_interaction:ALA:132>  (128) 
0

>  <hbond:HIS:51>  (128) 
0

>  <hbond:ASP:129>  (128) 
0

>  <hbond:TYR:150>  (128) 
0

>  <hbond:GLY:151>  (128) 
0

>  <hbond:TYR:161>  (128) 
2

>  <hydroph_interaction:TYR:130>  (128) 
0

>  <hydroph_interaction:PRO:131>  (128) 
0

>  <hydroph_interaction:ASP:129>  (128) 
0

>  <saltbridge:ASP:75>  (128) 
0

>  <saltbridge:ASP:83>  (128) 
0

>  <hbond:ASN:152>  (128) 
0

>  <hydroph_interaction:ASN:152>  (128) 
0

>  <halogenbond:TYR:150>  (128) 
0

>  <hbond:ASP:83>  (128) 
0

>  <hydroph_interaction:VAL:155>  (128) 
0

>  <pication:TYR:161>  (128) 
0

>  <hbond:PRO:131>  (128) 
0

>  <saltbridge:ASP:129>  (128) 
0

>  <hbond:THR:134>  (128) 
0

>  <pication:HIS:51>  (128) 
0

>  <hbond:SER:81>  (128) 
0

>  <hydroph_interaction:THR:134>  (128) 
0

>  <hydroph_interaction:MET:49>  (128) 
0

$$$$
CSSB00102463101
     RDKit          3D

 38 40  0  0  0  0  0  0  0  0999 V2000
   -2.6970    4.9790  -19.3730 C   0  0  0  0  0  0  0  0  0  0  0  0
   -3.5720    5.8990  -18.7120 O   0  0  0  0  0  0  0  0  0  0  0  0
   -4.9410    5.6250  -18.7670 C   0  0  0  0  0  0  0  0  0  0  0  0
   -5.7530    5.5820  -17.4820 C   0  0  0  0  0  0  0  0  0  0  0  0
   -5.0780    5.8190  -16.2310 N   0  0  0  0  0  0  0  0  0  0  0  0
   -3.7680    5.1460  -16.2690 C   0  0  0  0  0  0  0  0  0  0  0  0
   -3.5190    4.2410  -15.0280 C   0  0  0  0  0  0  0  0  0  0  0  0
   -2.8510    5.4150  -14.3060 C   0  0  0  0  0  0  0  0  0  0  0  0
   -3.8810    6.3080  -13.7970 N   0  0  0  0  0  0  0  0  0  0  0  0
   -4.1690    7.4000  -14.7330 C   0  0  0  0  0  0  0  0  0  0  0  0
   -5.1410    7.1720  -15.7220 C   0  0  0  0  0  0  0  0  0  0  0  0
   -7.1480    5.3060  -17.5920 C   0  0  0  0  0  0  0  0  0  0  0  0
   -8.0030    5.2360  -16.5060 N   0  0  0  0  0  0  0  0  0  0  0  0
   -9.3760    4.9610  -16.6070 C   0  0  0  0  0  0  0  0  0  0  0  0
   -9.9040    4.7490  -17.8770 C   0  0  0  0  0  0  0  0  0  0  0  0
   -9.0670    4.8120  -19.0070 C   0  0  0  0  0  0  0  0  0  0  0  0
   -7.6930    5.0880  -18.8850 C   0  0  0  0  0  0  0  0  0  0  0  0
   -6.9030    5.1350  -20.0440 C   0  0  0  0  0  0  0  0  0  0  0  0
   -5.5390    5.4020  -19.9930 C   0  0  0  0  0  0  0  0  0  0  0  0
   -3.0490    4.7460  -20.3770 H   0  0  0  0  0  0  0  0  0  0  0  0
   -1.7050    5.4390  -19.4160 H   0  0  0  0  0  0  0  0  0  0  0  0
   -2.6050    4.0450  -18.8150 H   0  0  0  0  0  0  0  0  0  0  0  0
   -3.6870    4.6070  -17.2130 H   0  0  0  0  0  0  0  0  0  0  0  0
   -3.0040    5.9330  -16.3390 H   0  0  0  0  0  0  0  0  0  0  0  0
   -2.8980    3.3590  -15.1720 H   0  0  0  0  0  0  0  0  0  0  0  0
   -4.4510    3.9200  -14.5470 H   0  0  0  0  0  0  0  0  0  0  0  0
   -2.2790    5.1220  -13.4230 H   0  0  0  0  0  0  0  0  0  0  0  0
   -2.1670    5.9670  -14.9610 H   0  0  0  0  0  0  0  0  0  0  0  0
   -4.7340    5.7830  -13.6300 H   0  0  0  0  0  0  0  0  0  0  0  0
   -4.5050    8.2490  -14.1280 H   0  0  0  0  0  0  0  0  0  0  0  0
   -3.2310    7.7210  -15.2020 H   0  0  0  0  0  0  0  0  0  0  0  0
   -6.1370    7.4090  -15.3280 H   0  0  0  0  0  0  0  0  0  0  0  0
   -4.9250    7.8890  -16.5230 H   0  0  0  0  0  0  0  0  0  0  0  0
   -9.9610    4.9280  -15.6900 H   0  0  0  0  0  0  0  0  0  0  0  0
  -10.9580    4.5380  -17.9970 H   0  0  0  0  0  0  0  0  0  0  0  0
   -9.5000    4.6420  -19.9900 H   0  0  0  0  0  0  0  0  0  0  0  0
   -7.3480    4.9590  -21.0150 H   0  0  0  0  0  0  0  0  0  0  0  0
   -4.9480    5.4380  -20.9040 H   0  0  0  0  0  0  0  0  0  0  0  0
  1  2  1  0
  2  3  1  0
  3  4  2  0
  4  5  1  0
  5  6  1  0
  6  7  1  0
  7  8  1  0
  8  9  1  0
  9 10  1  0
 10 11  1  0
  4 12  1  0
 12 13  2  0
 13 14  1  0
 14 15  2  0
 15 16  1  0
 16 17  2  0
 17 18  1  0
 18 19  2  0
 19  3  1  0
 11  5  1  0
 17 12  1  0
  1 20  1  0
  1 21  1  0
  1 22  1  0
  6 23  1  0
  6 24  1  0
  7 25  1  0
  7 26  1  0
  8 27  1  0
  8 28  1  0
  9 29  1  0
 10 30  1  0
 10 31  1  0
 11 32  1  0
 11 33  1  0
 14 34  1  0
 15 35  1  0
 16 36  1  0
 18 37  1  0
 19 38  1  0
A    1
 C1 
A    2
 O1 
A    3
 C2 
A    4
 C3 
A    5
 N1 
A    6
 C4 
A    7
 C5 
A    8
 C6 
A    9
 N2 
A   10
 C7 
A   11
 C8 
A   12
 C9 
A   13
 N3 
A   14
 C10
A   15
 C11
A   16
 C12
A   17
 C13
A   18
 C14
A   19
 C15
A   20
 H1 
A   21
 H2 
A   22
 H3 
A   23
 H4 
A   24
 H5 
A   25
 H6 
A   26
 H7 
A   27
 H8 
A   28
 H9 
A   29
 H10
A   30
 H11
A   31
 H12
A   32
 H13
A   33
 H14
A   34
 H15
A   35
 H16
A   36
 H17
A   37
 H18
A   38
 H19
M  END
>  <ref_pdb>  (129) 
x0051_0B

>  <ref_mols>  (129) 
x0429_0B,x0089_0B

>  <original SMILES>  (129) 
[H]c1nc2c(N3C([H])([H])C([H])([H])N([H])C([H])([H])C([H])([H])C3([H])[H])c(OC([H])([H])[H])c([H])c([H])c2c([H])c1[H]

>  <index>  (129) 
1845

>  <∆∆G>  (129) 
-7.438667

>  <∆G_bound>  (129) 
-6.774766

>  <∆G_unbound>  (129) 
0.663901

>  <comRMSD>  (129) 
0.454458

>  <N_constrained_atoms>  (129) 
18.0

>  <N_unconstrained_atoms>  (129) 
1.0

>  <runtime>  (129) 
23.102347

>  <LE>  (129) 
0.391509

>  <percent_hybrid>  (129) 
25.0

>  <dist>  (129) 
6.0

>  <ecfp4>  (129) 
0.327869

>  <daylight>  (129) 
0.506849

>  <topodist>  (129) 
3.0

>  <mces>  (129) 
20.0

>  <tdn>  (129) 
2.0

>  <tup>  (129) 
0.0

>  <rdn>  (129) 
0.0

>  <rup>  (129) 
0.0

>  <ldn>  (129) 
0.0

>  <lup>  (129) 
1.0

>  <mut>  (129) 
3.0

>  <maj>  (129) 
3.0

>  <min>  (129) 
0.0

>  <hyb>  (129) 
0.0

>  <sub>  (129) 
1.0

>  <query_index>  (129) 
103.0

>  <max_hit_Tanimoto>  (129) 
0.428743

>  <largest_ring>  (129) 
7

>  <N_interactions_kept>  (129) 
0.0

>  <N_interactions_lost>  (129) 
3.5

>  <interaction_uniqueness_metric>  (129) 
0.080468

>  <ad_hoc_penalty>  (129) 
-4.488226

>  <N_rotatable_bonds>  (129) 
3

>  <N_HA>  (129) 
19

>  <cluster>  (129) 
4526

>  <N_interactions>  (129) 
6

>  <Enamine>  (129) 
1

>  <Mcule>  (129) 
0

>  <N_PAINS>  (129) 
0

>  <UFF_Gibbs>  (129) 
170.351743

>  <strain_per_HA>  (129) 
8.965881

>  <intxn_scored>  (129) 
10.5

>  <saltbridge:HIS:51>  (129) 
0

>  <pistack:HIS:51>  (129) 
0

>  <hydroph_interaction:HIS:51>  (129) 
0

>  <hbond:ALA:132>  (129) 
0

>  <hbond:SER:135>  (129) 
0

>  <hydroph_interaction:TYR:150>  (129) 
1

>  <pistack:TYR:161>  (129) 
2

>  <hydroph_interaction:TYR:161>  (129) 
2

>  <hydroph_interaction:ASP:83>  (129) 
0

>  <hbond:TYR:130>  (129) 
0

>  <hydroph_interaction:ALA:132>  (129) 
0

>  <hbond:HIS:51>  (129) 
0

>  <hbond:ASP:129>  (129) 
0

>  <hbond:TYR:150>  (129) 
0

>  <hbond:GLY:151>  (129) 
0

>  <hbond:TYR:161>  (129) 
0

>  <hydroph_interaction:TYR:130>  (129) 
0

>  <hydroph_interaction:PRO:131>  (129) 
0

>  <hydroph_interaction:ASP:129>  (129) 
0

>  <saltbridge:ASP:75>  (129) 
0

>  <saltbridge:ASP:83>  (129) 
0

>  <hbond:ASN:152>  (129) 
0

>  <hydroph_interaction:ASN:152>  (129) 
0

>  <halogenbond:TYR:150>  (129) 
0

>  <hbond:ASP:83>  (129) 
0

>  <hydroph_interaction:VAL:155>  (129) 
1

>  <pication:TYR:161>  (129) 
0

>  <hbond:PRO:131>  (129) 
0

>  <saltbridge:ASP:129>  (129) 
0

>  <hbond:THR:134>  (129) 
0

>  <pication:HIS:51>  (129) 
0

>  <hbond:SER:81>  (129) 
0

>  <hydroph_interaction:THR:134>  (129) 
0

>  <hydroph_interaction:MET:49>  (129) 
0

$$$$
Z1851408668
     RDKit          3D

 31 33  0  0  0  0  0  0  0  0999 V2000
   -8.5530    4.4380   -9.2160 C   0  0  0  0  0  0  0  0  0  0  0  0
   -8.6870    5.0280  -10.5330 N   0  0  0  0  0  0  0  0  0  0  0  0
   -8.5930    4.2260  -11.7310 C   0  0  0  0  0  0  0  0  0  0  0  0
   -8.7550    5.0570  -12.8160 C   0  0  0  0  0  0  0  0  0  0  0  0
   -8.7330    4.7290  -14.1610 N   0  0  0  0  0  0  0  0  0  0  0  0
   -8.2050    5.5550  -15.1280 C   0  0  0  0  0  0  0  0  0  0  0  0
   -7.5340    6.5550  -14.8850 O   0  0  0  0  0  0  0  0  0  0  0  0
   -8.4700    5.2510  -16.5750 C   0  0  0  0  0  0  0  0  0  0  0  0
   -9.7510    4.8460  -16.9190 C   0  0  0  0  0  0  0  0  0  0  0  0
  -10.1090    4.5580  -18.2420 C   0  0  0  0  0  0  0  0  0  0  0  0
   -9.1740    4.6630  -19.2580 C   0  0  0  0  0  0  0  0  0  0  0  0
   -7.8850    5.0560  -18.9510 C   0  0  0  0  0  0  0  0  0  0  0  0
   -7.5390    5.3470  -17.6240 C   0  0  0  0  0  0  0  0  0  0  0  0
   -6.2260    5.6890  -17.7370 N   0  0  0  0  0  0  0  0  0  0  0  0
   -5.3020    6.0930  -16.7230 C   0  0  0  0  0  0  0  0  0  0  0  0
   -5.8120    5.6100  -19.0170 N   0  0  0  0  0  0  0  0  0  0  0  0
   -6.8480    5.2200  -19.7500 N   0  0  0  0  0  0  0  0  0  0  0  0
   -8.9460    6.3390  -12.2270 C   0  0  0  0  0  0  0  0  0  0  0  0
   -8.9020    6.3220  -10.7580 N   0  0  0  0  0  0  0  0  0  0  0  0
   -9.2510    4.9340   -8.5350 H   0  0  0  0  0  0  0  0  0  0  0  0
   -7.5290    4.5790   -8.8590 H   0  0  0  0  0  0  0  0  0  0  0  0
   -8.7750    3.3680   -9.2300 H   0  0  0  0  0  0  0  0  0  0  0  0
   -8.4180    3.1620  -11.5450 H   0  0  0  0  0  0  0  0  0  0  0  0
   -9.2370    3.8910  -14.4460 H   0  0  0  0  0  0  0  0  0  0  0  0
  -10.4900    4.7530  -16.1370 H   0  0  0  0  0  0  0  0  0  0  0  0
  -11.1270    4.2510  -18.4710 H   0  0  0  0  0  0  0  0  0  0  0  0
   -9.4460    4.4410  -20.2850 H   0  0  0  0  0  0  0  0  0  0  0  0
   -5.3620    5.3840  -15.9020 H   0  0  0  0  0  0  0  0  0  0  0  0
   -4.2880    6.0870  -17.1340 H   0  0  0  0  0  0  0  0  0  0  0  0
   -5.5430    7.1020  -16.4010 H   0  0  0  0  0  0  0  0  0  0  0  0
   -9.1130    7.2920  -12.7250 H   0  0  0  0  0  0  0  0  0  0  0  0
  1  2  1  0
  2  3  1  0
  3  4  2  0
  4  5  1  0
  5  6  1  0
  6  7  2  0
  6  8  1  0
  8  9  2  0
  9 10  1  0
 10 11  2  0
 11 12  1  0
 12 13  2  0
 13 14  1  0
 14 15  1  0
 14 16  1  0
 16 17  2  0
  4 18  1  0
 18 19  2  0
 19  2  1  0
 13  8  1  0
 17 12  1  0
  1 20  1  0
  1 21  1  0
  1 22  1  0
  3 23  1  0
  5 24  1  0
  9 25  1  0
 10 26  1  0
 11 27  1  0
 15 28  1  0
 15 29  1  0
 15 30  1  0
 18 31  1  0
A    1
 C1 
A    2
 N1 
A    3
 C2 
A    4
 C3 
A    5
 N2 
A    6
 C4 
A    7
 O1 
A    8
 C5 
A    9
 C6 
A   10
 C7 
A   11
 C8 
A   12
 C9 
A   13
 C10
A   14
 N3 
A   15
 C11
A   16
 N4 
A   17
 N5 
A   18
 C12
A   19
 N6 
A   20
 H1 
A   21
 H2 
A   22
 H3 
A   23
 H4 
A   24
 H5 
A   25
 H6 
A   26
 H7 
A   27
 H8 
A   28
 H9 
A   29
 H10
A   30
 H11
A   31
 H12
M  END
>  <ref_pdb>  (130) 
x0051_0B

>  <ref_mols>  (130) 
x1098_0B,x0490_0B

>  <original SMILES>  (130) 
[H]c1nn(C([H])([H])[H])c([H])c1N([H])C(=O)c1c([H])c([H])c([H])c2nnn(C([H])([H])[H])c12

>  <index>  (130) 
3884

>  <∆∆G>  (130) 
-8.013398

>  <∆G_bound>  (130) 
-7.469206

>  <∆G_unbound>  (130) 
0.544192

>  <comRMSD>  (130) 
0.355612

>  <N_constrained_atoms>  (130) 
19.0

>  <N_unconstrained_atoms>  (130) 
0.0

>  <runtime>  (130) 
61.197273

>  <LE>  (130) 
0.421758

>  <percent_hybrid>  (130) 
10.0

>  <dist>  (130) 
3.0

>  <ecfp4>  (130) 
0.557377

>  <daylight>  (130) 
0.403941

>  <topodist>  (130) 
1.0

>  <mces>  (130) 
21.0

>  <tdn>  (130) 
1.0

>  <tup>  (130) 
0.0

>  <rdn>  (130) 
0.0

>  <rup>  (130) 
0.0

>  <ldn>  (130) 
0.0

>  <lup>  (130) 
0.0

>  <mut>  (130) 
1.0

>  <maj>  (130) 
1.0

>  <min>  (130) 
0.0

>  <hyb>  (130) 
1.0

>  <sub>  (130) 
1.0

>  <query_index>  (130) 
69.0

>  <max_hit_Tanimoto>  (130) 
0.402503

>  <largest_ring>  (130) 
6

>  <N_interactions_kept>  (130) 
2.0

>  <N_interactions_lost>  (130) 
4.0

>  <interaction_uniqueness_metric>  (130) 
0.099864

>  <ad_hoc_penalty>  (130) 
-0.890434

>  <N_rotatable_bonds>  (130) 
4

>  <N_HA>  (130) 
19

>  <cluster>  (130) 
2606

>  <N_interactions>  (130) 
5

>  <Enamine>  (130) 
1

>  <Mcule>  (130) 
0

>  <N_PAINS>  (130) 
0

>  <UFF_Gibbs>  (130) 
44.641476

>  <strain_per_HA>  (130) 
2.349551

>  <intxn_scored>  (130) 
10.5

>  <saltbridge:HIS:51>  (130) 
0

>  <pistack:HIS:51>  (130) 
1

>  <hydroph_interaction:HIS:51>  (130) 
0

>  <hbond:ALA:132>  (130) 
0

>  <hbond:SER:135>  (130) 
0

>  <hydroph_interaction:TYR:150>  (130) 
1

>  <pistack:TYR:161>  (130) 
2

>  <hydroph_interaction:TYR:161>  (130) 
0

>  <hydroph_interaction:ASP:83>  (130) 
0

>  <hbond:TYR:130>  (130) 
0

>  <hydroph_interaction:ALA:132>  (130) 
0

>  <hbond:HIS:51>  (130) 
0

>  <hbond:ASP:129>  (130) 
0

>  <hbond:TYR:150>  (130) 
0

>  <hbond:GLY:151>  (130) 
1

>  <hbond:TYR:161>  (130) 
0

>  <hydroph_interaction:TYR:130>  (130) 
0

>  <hydroph_interaction:PRO:131>  (130) 
0

>  <hydroph_interaction:ASP:129>  (130) 
0

>  <saltbridge:ASP:75>  (130) 
0

>  <saltbridge:ASP:83>  (130) 
0

>  <hbond:ASN:152>  (130) 
0

>  <hydroph_interaction:ASN:152>  (130) 
0

>  <halogenbond:TYR:150>  (130) 
0

>  <hbond:ASP:83>  (130) 
0

>  <hydroph_interaction:VAL:155>  (130) 
0

>  <pication:TYR:161>  (130) 
0

>  <hbond:PRO:131>  (130) 
0

>  <saltbridge:ASP:129>  (130) 
0

>  <hbond:THR:134>  (130) 
0

>  <pication:HIS:51>  (130) 
0

>  <hbond:SER:81>  (130) 
0

>  <hydroph_interaction:THR:134>  (130) 
0

>  <hydroph_interaction:MET:49>  (130) 
0

$$$$
Z2783649254
     RDKit          3D

 49 52  0  0  0  0  0  0  0  0999 V2000
   -9.1720    4.5640  -18.6120 C   0  0  0  0  0  0  0  0  0  0  0  0
   -8.5310    5.1870  -17.3920 C   0  0  0  0  0  0  0  0  0  0  0  0
   -9.0680    5.1830  -16.1050 C   0  0  0  0  0  0  0  0  0  0  0  0
   -8.2520    5.8460  -15.1980 C   0  0  0  0  0  0  0  0  0  0  0  0
   -8.4390    6.0950  -13.7820 C   0  0  0  0  0  0  0  0  0  0  0  0
   -8.3340    7.2770  -13.4660 O   0  0  0  0  0  0  0  0  0  0  0  0
   -8.7170    5.1050  -12.7830 N   0  0  0  0  0  0  0  0  0  0  0  0
   -8.7760    5.3840  -11.2690 C   0  0  0  0  0  0  0  0  0  0  0  0
   -8.9700    4.2090  -10.3160 C   0  0  0  0  0  0  0  0  0  0  0  0
   -9.1220    2.8440  -10.4660 C   0  0  0  0  0  0  0  0  0  0  0  0
   -9.4140    2.1180   -9.2960 C   0  0  0  0  0  0  0  0  0  0  0  0
   -9.5910    2.7860   -8.0480 C   0  0  0  0  0  0  0  0  0  0  0  0
   -9.1340    4.1100   -7.7750 C   0  0  0  0  0  0  0  0  0  0  0  0
   -8.9730    4.8600   -9.0070 N   0  0  0  0  0  0  0  0  0  0  0  0
   -8.8120    6.2180   -9.0820 N   0  0  0  0  0  0  0  0  0  0  0  0
   -8.6980    6.5150  -10.4260 C   0  0  0  0  0  0  0  0  0  0  0  0
   -7.1640    6.2770  -15.9280 N   0  0  0  0  0  0  0  0  0  0  0  0
   -7.3410    5.8860  -17.2280 N   0  0  0  0  0  0  0  0  0  0  0  0
   -6.2940    6.2510  -18.2320 C   0  0  0  0  0  0  0  0  0  0  0  0
   -5.4160    5.2050  -18.5130 C   0  0  0  0  0  0  0  0  0  0  0  0
   -4.4200    5.5230  -19.4470 C   0  0  0  0  0  0  0  0  0  0  0  0
   -4.4330    6.7830  -19.9910 C   0  0  0  0  0  0  0  0  0  0  0  0
   -5.6810    7.0210  -20.5610 C   0  0  0  0  0  0  0  0  0  0  0  0
   -6.8090    6.8280  -19.5510 C   0  0  0  0  0  0  0  0  0  0  0  0
   -9.3510    3.4990  -18.4530 H   0  0  0  0  0  0  0  0  0  0  0  0
   -8.5360    4.6580  -19.5010 H   0  0  0  0  0  0  0  0  0  0  0  0
  -10.1220    5.0610  -18.8390 H   0  0  0  0  0  0  0  0  0  0  0  0
  -10.0140    4.7250  -15.8260 H   0  0  0  0  0  0  0  0  0  0  0  0
   -9.1480    4.2640  -13.1380 H   0  0  0  0  0  0  0  0  0  0  0  0
   -8.2100    2.4240  -10.9070 H   0  0  0  0  0  0  0  0  0  0  0  0
   -9.9220    2.6690  -11.1950 H   0  0  0  0  0  0  0  0  0  0  0  0
   -8.5830    1.4310   -9.1630 H   0  0  0  0  0  0  0  0  0  0  0  0
  -10.2620    1.4510   -9.3500 H   0  0  0  0  0  0  0  0  0  0  0  0
   -9.1390    2.1510   -7.2780 H   0  0  0  0  0  0  0  0  0  0  0  0
  -10.6610    2.7500   -7.8290 H   0  0  0  0  0  0  0  0  0  0  0  0
   -8.1430    4.0520   -7.3170 H   0  0  0  0  0  0  0  0  0  0  0  0
   -9.7410    4.7490   -7.1290 H   0  0  0  0  0  0  0  0  0  0  0  0
   -8.5600    7.5310  -10.7900 H   0  0  0  0  0  0  0  0  0  0  0  0
   -5.7080    7.0510  -17.7590 H   0  0  0  0  0  0  0  0  0  0  0  0
   -5.0350    4.6840  -17.6440 H   0  0  0  0  0  0  0  0  0  0  0  0
   -6.0320    4.4790  -19.0450 H   0  0  0  0  0  0  0  0  0  0  0  0
   -4.5020    4.8240  -20.2780 H   0  0  0  0  0  0  0  0  0  0  0  0
   -3.4380    5.3420  -18.9930 H   0  0  0  0  0  0  0  0  0  0  0  0
   -3.6550    6.8560  -20.7630 H   0  0  0  0  0  0  0  0  0  0  0  0
   -4.2060    7.5420  -19.2320 H   0  0  0  0  0  0  0  0  0  0  0  0
   -5.8460    6.3400  -21.4050 H   0  0  0  0  0  0  0  0  0  0  0  0
   -5.7100    8.0390  -20.9670 H   0  0  0  0  0  0  0  0  0  0  0  0
   -7.2710    7.7900  -19.4060 H   0  0  0  0  0  0  0  0  0  0  0  0
   -7.5750    6.1710  -19.9730 H   0  0  0  0  0  0  0  0  0  0  0  0
  1  2  1  0
  2  3  2  0
  3  4  1  0
  4  5  1  0
  5  6  2  0
  5  7  1  0
  7  8  1  0
  8  9  2  0
  9 10  1  0
 10 11  1  0
 11 12  1  0
 12 13  1  0
 13 14  1  0
 14 15  1  0
 15 16  2  0
  4 17  2  0
 17 18  1  0
 18 19  1  0
 19 20  1  0
 20 21  1  0
 21 22  1  0
 22 23  1  0
 23 24  1  0
 18  2  1  0
 16  8  1  0
 14  9  1  0
 24 19  1  0
  1 25  1  0
  1 26  1  0
  1 27  1  0
  3 28  1  0
  7 29  1  0
 10 30  1  0
 10 31  1  0
 11 32  1  0
 11 33  1  0
 12 34  1  0
 12 35  1  0
 13 36  1  0
 13 37  1  0
 16 38  1  0
 19 39  1  0
 20 40  1  0
 20 41  1  0
 21 42  1  0
 21 43  1  0
 22 44  1  0
 22 45  1  0
 23 46  1  0
 23 47  1  0
 24 48  1  0
 24 49  1  0
A    1
 C1 
A    2
 C2 
A    3
 C3 
A    4
 C4 
A    5
 C5 
A    6
 O1 
A    7
 N1 
A    8
 C6 
A    9
 C7 
A   10
 C8 
A   11
 C9 
A   12
 C10
A   13
 C11
A   14
 N2 
A   15
 N3 
A   16
 C12
A   17
 N4 
A   18
 N5 
A   19
 C13
A   20
 C14
A   21
 C15
A   22
 C16
A   23
 C17
A   24
 C18
A   25
 H1 
A   26
 H2 
A   27
 H3 
A   28
 H4 
A   29
 H5 
A   30
 H6 
A   31
 H7 
A   32
 H8 
A   33
 H9 
A   34
 H10
A   35
 H11
A   36
 H12
A   37
 H13
A   38
 H14
A   39
 H15
A   40
 H16
A   41
 H17
A   42
 H18
A   43
 H19
A   44
 H20
A   45
 H21
A   46
 H22
A   47
 H23
A   48
 H24
A   49
 H25
M  END
>  <ref_pdb>  (131) 
x0051_0B

>  <ref_mols>  (131) 
x0969_1B,x0917_0B

>  <original SMILES>  (131) 
[H]c1nn2c(c1N([H])C(=O)c1nn(C3([H])C([H])([H])C([H])([H])C([H])([H])C([H])([H])C3([H])[H])c(C([H])([H])[H])c1[H])C([H])([H])C([H])([H])C([H])([H])C2([H])[H]

>  <index>  (131) 
19

>  <∆∆G>  (131) 
-7.476797

>  <∆G_bound>  (131) 
-6.822353

>  <∆G_unbound>  (131) 
0.654444

>  <comRMSD>  (131) 
0.591366

>  <N_constrained_atoms>  (131) 
25.0

>  <N_unconstrained_atoms>  (131) 
0.0

>  <runtime>  (131) 
62.421511

>  <LE>  (131) 
0.299072

>  <percent_hybrid>  (131) 
38.0

>  <dist>  (131) 
8.0

>  <ecfp4>  (131) 
0.204545

>  <daylight>  (131) 
0.287324

>  <topodist>  (131) 
1.0

>  <mces>  (131) 
27.0

>  <tdn>  (131) 
1.0

>  <tup>  (131) 
0.0

>  <rdn>  (131) 
0.0

>  <rup>  (131) 
0.0

>  <ldn>  (131) 
0.0

>  <lup>  (131) 
0.0

>  <mut>  (131) 
6.0

>  <maj>  (131) 
6.0

>  <min>  (131) 
0.0

>  <hyb>  (131) 
1.0

>  <sub>  (131) 
0.0

>  <query_index>  (131) 
70.0

>  <max_hit_Tanimoto>  (131) 
0.273841

>  <largest_ring>  (131) 
0

>  <N_interactions_kept>  (131) 
2.0

>  <N_interactions_lost>  (131) 
2.0

>  <interaction_uniqueness_metric>  (131) 
0.170032

>  <ad_hoc_penalty>  (131) 
-37.233121

>  <N_rotatable_bonds>  (131) 
4

>  <N_HA>  (131) 
24

>  <cluster>  (131) 
6199

>  <N_interactions>  (131) 
9

>  <Enamine>  (131) 
1

>  <Mcule>  (131) 
0

>  <N_PAINS>  (131) 
0

>  <UFF_Gibbs>  (131) 
164.922244

>  <strain_per_HA>  (131) 
6.87176

>  <intxn_scored>  (131) 
10.5

>  <saltbridge:HIS:51>  (131) 
0

>  <pistack:HIS:51>  (131) 
1

>  <hydroph_interaction:HIS:51>  (131) 
1

>  <hbond:ALA:132>  (131) 
0

>  <hbond:SER:135>  (131) 
0

>  <hydroph_interaction:TYR:150>  (131) 
1

>  <pistack:TYR:161>  (131) 
1

>  <hydroph_interaction:TYR:161>  (131) 
3

>  <hydroph_interaction:ASP:83>  (131) 
0

>  <hbond:TYR:130>  (131) 
0

>  <hydroph_interaction:ALA:132>  (131) 
1

>  <hbond:HIS:51>  (131) 
0

>  <hbond:ASP:129>  (131) 
0

>  <hbond:TYR:150>  (131) 
0

>  <hbond:GLY:151>  (131) 
1

>  <hbond:TYR:161>  (131) 
0

>  <hydroph_interaction:TYR:130>  (131) 
0

>  <hydroph_interaction:PRO:131>  (131) 
0

>  <hydroph_interaction:ASP:129>  (131) 
0

>  <saltbridge:ASP:75>  (131) 
0

>  <saltbridge:ASP:83>  (131) 
0

>  <hbond:ASN:152>  (131) 
0

>  <hydroph_interaction:ASN:152>  (131) 
0

>  <halogenbond:TYR:150>  (131) 
0

>  <hbond:ASP:83>  (131) 
0

>  <hydroph_interaction:VAL:155>  (131) 
0

>  <pication:TYR:161>  (131) 
0

>  <hbond:PRO:131>  (131) 
0

>  <saltbridge:ASP:129>  (131) 
0

>  <hbond:THR:134>  (131) 
0

>  <pication:HIS:51>  (131) 
0

>  <hbond:SER:81>  (131) 
0

>  <hydroph_interaction:THR:134>  (131) 
0

>  <hydroph_interaction:MET:49>  (131) 
0

$$$$
Z2465901252
     RDKit          3D

 35 37  0  0  0  0  0  0  0  0999 V2000
   -2.7110    4.8330  -19.2190 O   0  0  0  0  0  0  0  0  0  0  0  0
   -3.5520    5.7290  -19.1080 C   0  0  0  0  0  0  0  0  0  0  0  0
   -3.1980    7.0310  -19.1200 O   0  0  0  0  0  0  0  0  0  0  0  0
   -5.0250    5.5100  -18.9810 C   0  0  0  0  0  0  0  0  0  0  0  0
   -5.8110    5.3040  -20.1120 C   0  0  0  0  0  0  0  0  0  0  0  0
   -7.1390    5.0930  -20.0990 N   0  0  0  0  0  0  0  0  0  0  0  0
   -7.7630    5.0730  -18.8890 C   0  0  0  0  0  0  0  0  0  0  0  0
   -9.1300    4.8440  -18.8560 C   0  0  0  0  0  0  0  0  0  0  0  0
   -9.8840    4.7970  -17.7110 C   0  0  0  0  0  0  0  0  0  0  0  0
   -9.3160    4.9800  -16.4530 C   0  0  0  0  0  0  0  0  0  0  0  0
   -7.9300    5.2200  -16.3840 C   0  0  0  0  0  0  0  0  0  0  0  0
   -7.0790    5.2710  -17.6710 C   0  0  0  0  0  0  0  0  0  0  0  0
   -5.6910    5.4960  -17.7100 C   0  0  0  0  0  0  0  0  0  0  0  0
   -5.0460    5.6910  -16.4580 N   0  0  0  0  0  0  0  0  0  0  0  0
   -5.2530    6.9640  -15.7930 C   0  0  0  0  0  0  0  0  0  0  0  0
   -4.3920    7.0710  -14.6840 C   0  0  0  0  0  0  0  0  0  0  0  0
   -3.9160    5.8200  -13.9400 C   0  0  0  0  0  0  0  0  0  0  0  0
   -3.3560    4.7410  -14.9010 C   0  0  0  0  0  0  0  0  0  0  0  0
   -3.7100    5.0720  -16.3500 C   0  0  0  0  0  0  0  0  0  0  0  0
   -2.5410    7.0950  -19.8460 H   0  0  0  0  0  0  0  0  0  0  0  0
   -5.4330    5.2950  -21.1240 H   0  0  0  0  0  0  0  0  0  0  0  0
   -9.6320    4.6930  -19.8230 H   0  0  0  0  0  0  0  0  0  0  0  0
  -10.9620    4.6110  -17.7810 H   0  0  0  0  0  0  0  0  0  0  0  0
   -9.9220    4.9410  -15.5510 H   0  0  0  0  0  0  0  0  0  0  0  0
   -7.4660    5.3620  -15.4100 H   0  0  0  0  0  0  0  0  0  0  0  0
   -6.2890    7.0540  -15.4460 H   0  0  0  0  0  0  0  0  0  0  0  0
   -5.0710    7.8040  -16.4690 H   0  0  0  0  0  0  0  0  0  0  0  0
   -4.8850    7.7190  -13.9520 H   0  0  0  0  0  0  0  0  0  0  0  0
   -3.5070    7.6340  -15.0060 H   0  0  0  0  0  0  0  0  0  0  0  0
   -3.1410    6.0990  -13.2150 H   0  0  0  0  0  0  0  0  0  0  0  0
   -4.7400    5.3900  -13.3600 H   0  0  0  0  0  0  0  0  0  0  0  0
   -2.2690    4.6900  -14.7850 H   0  0  0  0  0  0  0  0  0  0  0  0
   -3.7730    3.7630  -14.6290 H   0  0  0  0  0  0  0  0  0  0  0  0
   -3.6080    4.1720  -16.9600 H   0  0  0  0  0  0  0  0  0  0  0  0
   -2.9740    5.7880  -16.7360 H   0  0  0  0  0  0  0  0  0  0  0  0
  1  2  2  0
  2  3  1  0
  2  4  1  0
  4  5  2  0
  5  6  1  0
  6  7  2  0
  7  8  1  0
  8  9  2  0
  9 10  1  0
 10 11  2  0
 11 12  1  0
 12 13  2  0
 13 14  1  0
 14 15  1  0
 15 16  1  0
 16 17  1  0
 17 18  1  0
 18 19  1  0
 13  4  1  0
 12  7  1  0
 19 14  1  0
  3 20  1  0
  5 21  1  0
  8 22  1  0
  9 23  1  0
 10 24  1  0
 11 25  1  0
 15 26  1  0
 15 27  1  0
 16 28  1  0
 16 29  1  0
 17 30  1  0
 17 31  1  0
 18 32  1  0
 18 33  1  0
 19 34  1  0
 19 35  1  0
A    1
 O1 
A    2
 C1 
A    3
 O2 
A    4
 C2 
A    5
 C3 
A    6
 N1 
A    7
 C4 
A    8
 C5 
A    9
 C6 
A   10
 C7 
A   11
 C8 
A   12
 C9 
A   13
 C10
A   14
 N2 
A   15
 C11
A   16
 C12
A   17
 C13
A   18
 C14
A   19
 C15
A   20
 H1 
A   21
 H2 
A   22
 H3 
A   23
 H4 
A   24
 H5 
A   25
 H6 
A   26
 H7 
A   27
 H8 
A   28
 H9 
A   29
 H10
A   30
 H11
A   31
 H12
A   32
 H13
A   33
 H14
A   34
 H15
A   35
 H16
M  END
>  <ref_pdb>  (132) 
x0051_0B

>  <ref_mols>  (132) 
x0429_0B,x0089_0B

>  <original SMILES>  (132) 
[H]OC(=O)c1c([H])nc2c([H])c([H])c([H])c([H])c2c1N1C([H])([H])C([H])([H])C([H])([H])C([H])([H])C1([H])[H]

>  <index>  (132) 
3031

>  <∆∆G>  (132) 
-5.885224

>  <∆G_bound>  (132) 
-3.579203

>  <∆G_unbound>  (132) 
2.306021

>  <comRMSD>  (132) 
0.359664

>  <N_constrained_atoms>  (132) 
19.0

>  <N_unconstrained_atoms>  (132) 
0.0

>  <runtime>  (132) 
23.668992

>  <LE>  (132) 
0.309749

>  <percent_hybrid>  (132) 
34.0

>  <dist>  (132) 
5.0

>  <ecfp4>  (132) 
0.375

>  <daylight>  (132) 
0.401274

>  <topodist>  (132) 
1.0

>  <mces>  (132) 
21.0

>  <tdn>  (132) 
0.0

>  <tup>  (132) 
0.0

>  <rdn>  (132) 
0.0

>  <rup>  (132) 
0.0

>  <ldn>  (132) 
1.0

>  <lup>  (132) 
0.0

>  <mut>  (132) 
3.0

>  <maj>  (132) 
3.0

>  <min>  (132) 
0.0

>  <hyb>  (132) 
1.0

>  <sub>  (132) 
0.0

>  <query_index>  (132) 
103.0

>  <max_hit_Tanimoto>  (132) 
0.492178

>  <largest_ring>  (132) 
6

>  <N_interactions_kept>  (132) 
0.0

>  <N_interactions_lost>  (132) 
3.5

>  <interaction_uniqueness_metric>  (132) 
0.0473

>  <ad_hoc_penalty>  (132) 
-3.517023

>  <N_rotatable_bonds>  (132) 
2

>  <N_HA>  (132) 
19

>  <cluster>  (132) 
3416

>  <N_interactions>  (132) 
5

>  <Enamine>  (132) 
1

>  <Mcule>  (132) 
0

>  <N_PAINS>  (132) 
0

>  <UFF_Gibbs>  (132) 
64.159799

>  <strain_per_HA>  (132) 
3.376832

>  <intxn_scored>  (132) 
10.5

>  <saltbridge:HIS:51>  (132) 
0

>  <pistack:HIS:51>  (132) 
0

>  <hydroph_interaction:HIS:51>  (132) 
0

>  <hbond:ALA:132>  (132) 
0

>  <hbond:SER:135>  (132) 
0

>  <hydroph_interaction:TYR:150>  (132) 
1

>  <pistack:TYR:161>  (132) 
2

>  <hydroph_interaction:TYR:161>  (132) 
2

>  <hydroph_interaction:ASP:83>  (132) 
0

>  <hbond:TYR:130>  (132) 
0

>  <hydroph_interaction:ALA:132>  (132) 
0

>  <hbond:HIS:51>  (132) 
0

>  <hbond:ASP:129>  (132) 
0

>  <hbond:TYR:150>  (132) 
0

>  <hbond:GLY:151>  (132) 
0

>  <hbond:TYR:161>  (132) 
0

>  <hydroph_interaction:TYR:130>  (132) 
0

>  <hydroph_interaction:PRO:131>  (132) 
0

>  <hydroph_interaction:ASP:129>  (132) 
0

>  <saltbridge:ASP:75>  (132) 
0

>  <saltbridge:ASP:83>  (132) 
0

>  <hbond:ASN:152>  (132) 
0

>  <hydroph_interaction:ASN:152>  (132) 
0

>  <halogenbond:TYR:150>  (132) 
0

>  <hbond:ASP:83>  (132) 
0

>  <hydroph_interaction:VAL:155>  (132) 
0

>  <pication:TYR:161>  (132) 
0

>  <hbond:PRO:131>  (132) 
0

>  <saltbridge:ASP:129>  (132) 
0

>  <hbond:THR:134>  (132) 
0

>  <pication:HIS:51>  (132) 
0

>  <hbond:SER:81>  (132) 
0

>  <hydroph_interaction:THR:134>  (132) 
0

>  <hydroph_interaction:MET:49>  (132) 
0

$$$$
Z5015143318
     RDKit          3D

 26 27  0  0  0  0  0  0  0  0999 V2000
   -3.2440    4.4990  -16.3620 C   0  0  0  0  0  0  0  0  0  0  0  0
   -4.0740    5.4840  -15.5540 C   0  0  0  0  0  0  0  0  0  0  0  0
   -5.3360    5.6630  -15.8360 N   0  0  0  0  0  0  0  0  0  0  0  0
   -5.7470    5.5420  -17.1140 C   0  0  0  0  0  0  0  0  0  0  0  0
   -4.8980    5.6490  -18.2120 C   0  0  0  0  0  0  0  0  0  0  0  0
   -5.3510    5.5140  -19.6080 C   0  0  0  0  0  0  0  0  0  0  0  0
   -6.7080    5.2660  -19.8170 C   0  0  0  0  0  0  0  0  0  0  0  0
   -7.5880    5.1550  -18.7380 C   0  0  0  0  0  0  0  0  0  0  0  0
   -8.9340    4.9070  -19.0120 C   0  0  0  0  0  0  0  0  0  0  0  0
   -9.8410    4.7950  -17.9640 C   0  0  0  0  0  0  0  0  0  0  0  0
  -11.1220    4.5600  -18.3760 F   0  0  0  0  0  0  0  0  0  0  0  0
   -9.4110    4.9220  -16.6530 C   0  0  0  0  0  0  0  0  0  0  0  0
   -8.0770    5.1670  -16.3500 C   0  0  0  0  0  0  0  0  0  0  0  0
   -7.1340    5.2900  -17.3810 C   0  0  0  0  0  0  0  0  0  0  0  0
   -3.7510    4.2700  -17.2990 H   0  0  0  0  0  0  0  0  0  0  0  0
   -2.2670    4.9310  -16.5870 H   0  0  0  0  0  0  0  0  0  0  0  0
   -3.0990    3.5790  -15.7890 H   0  0  0  0  0  0  0  0  0  0  0  0
   -3.7920    5.2870  -14.5310 H   0  0  0  0  0  0  0  0  0  0  0  0
   -3.6530    6.4730  -15.7610 H   0  0  0  0  0  0  0  0  0  0  0  0
   -5.9450    5.1350  -15.2140 H   0  0  0  0  0  0  0  0  0  0  0  0
   -3.8420    5.8430  -17.9920 H   0  0  0  0  0  0  0  0  0  0  0  0
   -4.6550    5.6030  -20.4480 H   0  0  0  0  0  0  0  0  0  0  0  0
   -7.0930    5.1550  -20.8250 H   0  0  0  0  0  0  0  0  0  0  0  0
   -9.3650    4.7910  -20.0130 H   0  0  0  0  0  0  0  0  0  0  0  0
  -10.1320    4.8290  -15.8340 H   0  0  0  0  0  0  0  0  0  0  0  0
   -7.7910    5.2580  -15.2970 H   0  0  0  0  0  0  0  0  0  0  0  0
  1  2  1  0
  2  3  1  0
  3  4  1  0
  4  5  2  0
  5  6  1  0
  6  7  2  0
  7  8  1  0
  8  9  2  0
  9 10  1  0
 10 11  1  0
 10 12  2  0
 12 13  1  0
 13 14  2  0
 14  4  1  0
 14  8  1  0
  1 15  1  0
  1 16  1  0
  1 17  1  0
  2 18  1  0
  2 19  1  0
  3 20  1  0
  5 21  1  0
  6 22  1  0
  7 23  1  0
  9 24  1  0
 12 25  1  0
 13 26  1  0
A    1
 C1 
A    2
 C2 
A    3
 N1 
A    4
 C3 
A    5
 C4 
A    6
 C5 
A    7
 C6 
A    8
 C7 
A    9
 C8 
A   10
 C9 
A   11
 F1 
A   12
 C10
A   13
 C11
A   14
 C12
A   15
 H1 
A   16
 H2 
A   17
 H3 
A   18
 H4 
A   19
 H5 
A   20
 H6 
A   21
 H7 
A   22
 H8 
A   23
 H9 
A   24
 H10
A   25
 H11
A   26
 H12
M  END
>  <ref_pdb>  (133) 
x0051_0B

>  <ref_mols>  (133) 
x0727_0B,x0605_0B

>  <original SMILES>  (133) 
[H]c1c([H])c(N([H])C([H])([H])C([H])([H])[H])c2c([H])c([H])c(F)c([H])c2c1[H]

>  <index>  (133) 
2184

>  <∆∆G>  (133) 
-7.120373

>  <∆G_bound>  (133) 
-7.309201

>  <∆G_unbound>  (133) 
-0.188828

>  <comRMSD>  (133) 
0.433683

>  <N_constrained_atoms>  (133) 
14.0

>  <N_unconstrained_atoms>  (133) 
1.0

>  <runtime>  (133) 
23.297866

>  <LE>  (133) 
0.474692

>  <percent_hybrid>  (133) 
29.0

>  <dist>  (133) 
3.0

>  <ecfp4>  (133) 
0.208333

>  <daylight>  (133) 
0.298701

>  <topodist>  (133) 
1.0

>  <mces>  (133) 
14.0

>  <tdn>  (133) 
0.0

>  <tup>  (133) 
1.0

>  <rdn>  (133) 
0.0

>  <rup>  (133) 
0.0

>  <ldn>  (133) 
0.0

>  <lup>  (133) 
0.0

>  <mut>  (133) 
2.0

>  <maj>  (133) 
2.0

>  <min>  (133) 
0.0

>  <hyb>  (133) 
0.0

>  <sub>  (133) 
1.0

>  <query_index>  (133) 
74.0

>  <max_hit_Tanimoto>  (133) 
0.284635

>  <largest_ring>  (133) 
6

>  <N_interactions_kept>  (133) 
0.0

>  <N_interactions_lost>  (133) 
3.5

>  <interaction_uniqueness_metric>  (133) 
0.080468

>  <ad_hoc_penalty>  (133) 
-3.002349

>  <N_rotatable_bonds>  (133) 
3

>  <N_HA>  (133) 
14

>  <cluster>  (133) 
4213

>  <N_interactions>  (133) 
6

>  <Enamine>  (133) 
1

>  <Mcule>  (133) 
0

>  <N_PAINS>  (133) 
0

>  <UFF_Gibbs>  (133) 
119.738764

>  <strain_per_HA>  (133) 
8.552769

>  <intxn_scored>  (133) 
10.5

>  <saltbridge:HIS:51>  (133) 
0

>  <pistack:HIS:51>  (133) 
0

>  <hydroph_interaction:HIS:51>  (133) 
0

>  <hbond:ALA:132>  (133) 
0

>  <hbond:SER:135>  (133) 
0

>  <hydroph_interaction:TYR:150>  (133) 
1

>  <pistack:TYR:161>  (133) 
2

>  <hydroph_interaction:TYR:161>  (133) 
2

>  <hydroph_interaction:ASP:83>  (133) 
0

>  <hbond:TYR:130>  (133) 
0

>  <hydroph_interaction:ALA:132>  (133) 
0

>  <hbond:HIS:51>  (133) 
0

>  <hbond:ASP:129>  (133) 
0

>  <hbond:TYR:150>  (133) 
0

>  <hbond:GLY:151>  (133) 
0

>  <hbond:TYR:161>  (133) 
0

>  <hydroph_interaction:TYR:130>  (133) 
0

>  <hydroph_interaction:PRO:131>  (133) 
0

>  <hydroph_interaction:ASP:129>  (133) 
0

>  <saltbridge:ASP:75>  (133) 
0

>  <saltbridge:ASP:83>  (133) 
0

>  <hbond:ASN:152>  (133) 
0

>  <hydroph_interaction:ASN:152>  (133) 
0

>  <halogenbond:TYR:150>  (133) 
0

>  <hbond:ASP:83>  (133) 
0

>  <hydroph_interaction:VAL:155>  (133) 
1

>  <pication:TYR:161>  (133) 
0

>  <hbond:PRO:131>  (133) 
0

>  <saltbridge:ASP:129>  (133) 
0

>  <hbond:THR:134>  (133) 
0

>  <pication:HIS:51>  (133) 
0

>  <hbond:SER:81>  (133) 
0

>  <hydroph_interaction:THR:134>  (133) 
0

>  <hydroph_interaction:MET:49>  (133) 
0

$$$$
Z4346871840
     RDKit          3D

 45 48  0  0  0  0  0  0  0  0999 V2000
   -6.4000    5.1010  -20.7380 C   0  0  0  0  0  0  0  0  0  0  0  0
   -6.4830    5.2190  -19.3060 N   0  0  0  0  0  0  0  0  0  0  0  0
   -5.3720    5.4660  -18.5900 N   0  0  0  0  0  0  0  0  0  0  0  0
   -5.7400    5.5240  -17.3040 N   0  0  0  0  0  0  0  0  0  0  0  0
   -7.0900    5.3070  -17.2390 C   0  0  0  0  0  0  0  0  0  0  0  0
   -7.9500    5.2700  -16.1000 C   0  0  0  0  0  0  0  0  0  0  0  0
   -7.4140    5.4790  -14.8320 C   0  0  0  0  0  0  0  0  0  0  0  0
   -7.9860    4.5080  -13.9040 N   0  0  0  0  0  0  0  0  0  0  0  0
   -7.6530    4.8240  -12.5130 C   0  0  0  0  0  0  0  0  0  0  0  0
   -8.6590    5.6100  -11.9480 C   0  0  0  0  0  0  0  0  0  0  0  0
   -8.7540    5.6820  -10.5470 C   0  0  0  0  0  0  0  0  0  0  0  0
   -8.9410    4.5200   -9.6490 C   0  0  0  0  0  0  0  0  0  0  0  0
   -9.0540    3.1910  -10.0140 C   0  0  0  0  0  0  0  0  0  0  0  0
   -9.4600    2.2100   -8.9170 C   0  0  0  0  0  0  0  0  0  0  0  0
   -9.5280    2.7840   -7.5510 C   0  0  0  0  0  0  0  0  0  0  0  0
   -9.1550    4.2310   -7.1890 C   0  0  0  0  0  0  0  0  0  0  0  0
   -8.9810    5.0230   -8.3880 N   0  0  0  0  0  0  0  0  0  0  0  0
   -8.8410    6.3680   -8.3470 N   0  0  0  0  0  0  0  0  0  0  0  0
   -8.7080    6.7620   -9.6370 C   0  0  0  0  0  0  0  0  0  0  0  0
   -9.3270    5.0200  -16.3090 C   0  0  0  0  0  0  0  0  0  0  0  0
   -9.8510    4.8140  -17.5870 C   0  0  0  0  0  0  0  0  0  0  0  0
   -8.9350    4.8550  -18.7960 C   0  0  0  0  0  0  0  0  0  0  0  0
   -7.5940    5.1060  -18.5220 C   0  0  0  0  0  0  0  0  0  0  0  0
   -5.5030    4.6030  -21.0270 H   0  0  0  0  0  0  0  0  0  0  0  0
   -6.4160    6.1040  -21.1720 H   0  0  0  0  0  0  0  0  0  0  0  0
   -7.2480    4.5160  -21.1140 H   0  0  0  0  0  0  0  0  0  0  0  0
   -6.3360    5.2890  -14.8980 H   0  0  0  0  0  0  0  0  0  0  0  0
   -7.5050    6.4710  -14.3970 H   0  0  0  0  0  0  0  0  0  0  0  0
   -7.6750    3.5650  -14.1560 H   0  0  0  0  0  0  0  0  0  0  0  0
   -6.6920    5.3510  -12.4630 H   0  0  0  0  0  0  0  0  0  0  0  0
   -7.5520    3.8960  -11.9370 H   0  0  0  0  0  0  0  0  0  0  0  0
   -8.5550    6.6320  -12.3320 H   0  0  0  0  0  0  0  0  0  0  0  0
   -9.6250    5.2580  -12.3310 H   0  0  0  0  0  0  0  0  0  0  0  0
   -8.1130    2.8490  -10.4560 H   0  0  0  0  0  0  0  0  0  0  0  0
   -9.7970    3.1290  -10.8170 H   0  0  0  0  0  0  0  0  0  0  0  0
   -8.7840    1.3520   -8.9150 H   0  0  0  0  0  0  0  0  0  0  0  0
  -10.4410    1.8410   -9.1580 H   0  0  0  0  0  0  0  0  0  0  0  0
  -10.5600    2.6290   -7.2080 H   0  0  0  0  0  0  0  0  0  0  0  0
   -8.9240    2.1360   -6.9060 H   0  0  0  0  0  0  0  0  0  0  0  0
   -8.2000    4.2590   -6.6480 H   0  0  0  0  0  0  0  0  0  0  0  0
   -9.9330    4.6950   -6.5730 H   0  0  0  0  0  0  0  0  0  0  0  0
   -8.5840    7.8150   -9.8490 H   0  0  0  0  0  0  0  0  0  0  0  0
  -10.0040    4.9850  -15.4560 H   0  0  0  0  0  0  0  0  0  0  0  0
  -10.9120    4.6240  -17.7230 H   0  0  0  0  0  0  0  0  0  0  0  0
   -9.3110    4.6990  -19.8030 H   0  0  0  0  0  0  0  0  0  0  0  0
  1  2  1  0
  2  3  1  0
  3  4  2  0
  4  5  1  0
  5  6  2  0
  6  7  1  0
  7  8  1  0
  8  9  1  0
  9 10  1  0
 10 11  1  0
 11 12  2  0
 12 13  1  0
 13 14  1  0
 14 15  1  0
 15 16  1  0
 16 17  1  0
 17 18  1  0
 18 19  2  0
  6 20  1  0
 20 21  2  0
 21 22  1  0
 22 23  2  0
 23  2  1  0
 23  5  1  0
 19 11  1  0
 17 12  1  0
  1 24  1  0
  1 25  1  0
  1 26  1  0
  7 27  1  0
  7 28  1  0
  8 29  1  0
  9 30  1  0
  9 31  1  0
 10 32  1  0
 10 33  1  0
 13 34  1  0
 13 35  1  0
 14 36  1  0
 14 37  1  0
 15 38  1  0
 15 39  1  0
 16 40  1  0
 16 41  1  0
 19 42  1  0
 20 43  1  0
 21 44  1  0
 22 45  1  0
A    1
 C1 
A    2
 N1 
A    3
 N2 
A    4
 N3 
A    5
 C2 
A    6
 C3 
A    7
 C4 
A    8
 N4 
A    9
 C5 
A   10
 C6 
A   11
 C7 
A   12
 C8 
A   13
 C9 
A   14
 C10
A   15
 C11
A   16
 C12
A   17
 N5 
A   18
 N6 
A   19
 C13
A   20
 C14
A   21
 C15
A   22
 C16
A   23
 C17
A   24
 H1 
A   25
 H2 
A   26
 H3 
A   27
 H4 
A   28
 H5 
A   29
 H6 
A   30
 H7 
A   31
 H8 
A   32
 H9 
A   33
 H10
A   34
 H11
A   35
 H12
A   36
 H13
A   37
 H14
A   38
 H15
A   39
 H16
A   40
 H17
A   41
 H18
A   42
 H19
A   43
 H20
A   44
 H21
A   45
 H22
M  END
>  <ref_pdb>  (134) 
x0051_0B

>  <ref_mols>  (134) 
x0435_0B,x0969_1B

>  <original SMILES>  (134) 
[H]c1nn2c(c1C([H])([H])C([H])([H])N([H])C([H])([H])c1c([H])c([H])c([H])c3c1nnn3C([H])([H])[H])C([H])([H])C([H])([H])C([H])([H])C2([H])[H]

>  <index>  (134) 
1780

>  <∆∆G>  (134) 
-7.442276

>  <∆G_bound>  (134) 
-6.998239

>  <∆G_unbound>  (134) 
0.444038

>  <comRMSD>  (134) 
0.338821

>  <N_constrained_atoms>  (134) 
20.0

>  <N_unconstrained_atoms>  (134) 
3.0

>  <runtime>  (134) 
75.314756

>  <LE>  (134) 
0.323577

>  <percent_hybrid>  (134) 
50.0

>  <dist>  (134) 
6.0

>  <ecfp4>  (134) 
0.22619

>  <daylight>  (134) 
0.288288

>  <topodist>  (134) 
1.0

>  <mces>  (134) 
25.0

>  <tdn>  (134) 
0.0

>  <tup>  (134) 
0.0

>  <rdn>  (134) 
0.0

>  <rup>  (134) 
0.0

>  <ldn>  (134) 
0.0

>  <lup>  (134) 
1.0

>  <mut>  (134) 
5.0

>  <maj>  (134) 
5.0

>  <min>  (134) 
0.0

>  <hyb>  (134) 
0.0

>  <sub>  (134) 
0.0

>  <query_index>  (134) 
311.0

>  <max_hit_Tanimoto>  (134) 
0.327409

>  <largest_ring>  (134) 
6

>  <N_interactions_kept>  (134) 
2.0

>  <N_interactions_lost>  (134) 
1.5

>  <interaction_uniqueness_metric>  (134) 
0.098062

>  <ad_hoc_penalty>  (134) 
-10.585707

>  <N_rotatable_bonds>  (134) 
6

>  <N_HA>  (134) 
23

>  <cluster>  (134) 
4584

>  <N_interactions>  (134) 
4

>  <Enamine>  (134) 
1

>  <Mcule>  (134) 
0

>  <N_PAINS>  (134) 
0

>  <UFF_Gibbs>  (134) 
81.184735

>  <strain_per_HA>  (134) 
3.529771

>  <intxn_scored>  (134) 
10.5

>  <saltbridge:HIS:51>  (134) 
0

>  <pistack:HIS:51>  (134) 
0

>  <hydroph_interaction:HIS:51>  (134) 
1

>  <hbond:ALA:132>  (134) 
0

>  <hbond:SER:135>  (134) 
0

>  <hydroph_interaction:TYR:150>  (134) 
0

>  <pistack:TYR:161>  (134) 
2

>  <hydroph_interaction:TYR:161>  (134) 
0

>  <hydroph_interaction:ASP:83>  (134) 
0

>  <hbond:TYR:130>  (134) 
0

>  <hydroph_interaction:ALA:132>  (134) 
0

>  <hbond:HIS:51>  (134) 
0

>  <hbond:ASP:129>  (134) 
0

>  <hbond:TYR:150>  (134) 
0

>  <hbond:GLY:151>  (134) 
0

>  <hbond:TYR:161>  (134) 
1

>  <hydroph_interaction:TYR:130>  (134) 
0

>  <hydroph_interaction:PRO:131>  (134) 
0

>  <hydroph_interaction:ASP:129>  (134) 
0

>  <saltbridge:ASP:75>  (134) 
0

>  <saltbridge:ASP:83>  (134) 
0

>  <hbond:ASN:152>  (134) 
0

>  <hydroph_interaction:ASN:152>  (134) 
0

>  <halogenbond:TYR:150>  (134) 
0

>  <hbond:ASP:83>  (134) 
0

>  <hydroph_interaction:VAL:155>  (134) 
0

>  <pication:TYR:161>  (134) 
0

>  <hbond:PRO:131>  (134) 
0

>  <saltbridge:ASP:129>  (134) 
0

>  <hbond:THR:134>  (134) 
0

>  <pication:HIS:51>  (134) 
0

>  <hbond:SER:81>  (134) 
0

>  <hydroph_interaction:THR:134>  (134) 
0

>  <hydroph_interaction:MET:49>  (134) 
0

$$$$
CSSS00035201555
     RDKit          3D

 24 25  0  0  0  0  0  0  0  0999 V2000
   -3.7250    4.8730  -17.3060 C   0  0  0  0  0  0  0  0  0  0  0  0
   -5.1160    5.3200  -16.8770 C   0  0  0  0  0  0  0  0  0  0  0  0
   -6.0750    5.6490  -17.7740 N   0  0  0  0  0  0  0  0  0  0  0  0
   -5.7740    5.5290  -19.0970 C   0  0  0  0  0  0  0  0  0  0  0  0
   -4.2960    5.6760  -19.8360 S   0  0  0  0  0  0  0  0  0  0  0  0
   -6.9920    5.2430  -19.7840 N   0  0  0  0  0  0  0  0  0  0  0  0
   -7.0620    4.6870  -21.0510 N   0  0  0  0  0  0  0  0  0  0  0  0
   -7.9960    5.1310  -18.8900 C   0  0  0  0  0  0  0  0  0  0  0  0
   -9.3490    4.8330  -19.0650 C   0  0  0  0  0  0  0  0  0  0  0  0
  -10.1960    4.7640  -17.9840 C   0  0  0  0  0  0  0  0  0  0  0  0
   -9.6550    5.0110  -16.5750 C   0  0  0  0  0  0  0  0  0  0  0  0
   -8.2890    5.3090  -16.4570 C   0  0  0  0  0  0  0  0  0  0  0  0
   -7.4780    5.3670  -17.6140 C   0  0  0  0  0  0  0  0  0  0  0  0
   -3.2730    4.2340  -16.5400 H   0  0  0  0  0  0  0  0  0  0  0  0
   -3.0870    5.7370  -17.5160 H   0  0  0  0  0  0  0  0  0  0  0  0
   -3.7820    4.2840  -18.2200 H   0  0  0  0  0  0  0  0  0  0  0  0
   -5.5260    4.5320  -16.2370 H   0  0  0  0  0  0  0  0  0  0  0  0
   -4.9730    6.1860  -16.2210 H   0  0  0  0  0  0  0  0  0  0  0  0
   -6.1500    4.8330  -21.4900 H   0  0  0  0  0  0  0  0  0  0  0  0
   -7.6990    5.2920  -21.5710 H   0  0  0  0  0  0  0  0  0  0  0  0
   -9.7270    4.6570  -20.0740 H   0  0  0  0  0  0  0  0  0  0  0  0
  -11.2550    4.5310  -18.1380 H   0  0  0  0  0  0  0  0  0  0  0  0
  -10.2960    4.9580  -15.6980 H   0  0  0  0  0  0  0  0  0  0  0  0
   -7.9660    5.4770  -15.4250 H   0  0  0  0  0  0  0  0  0  0  0  0
  1  2  1  0
  2  3  1  0
  3  4  1  0
  4  5  2  0
  4  6  1  0
  6  7  1  0
  6  8  1  0
  8  9  2  0
  9 10  1  0
 10 11  2  0
 11 12  1  0
 12 13  2  0
 13  3  1  0
 13  8  1  0
  1 14  1  0
  1 15  1  0
  1 16  1  0
  2 17  1  0
  2 18  1  0
  7 19  1  0
  7 20  1  0
  9 21  1  0
 10 22  1  0
 11 23  1  0
 12 24  1  0
A    1
 C1 
A    2
 C2 
A    3
 N1 
A    4
 C3 
A    5
 S1 
A    6
 N2 
A    7
 N3 
A    8
 C4 
A    9
 C5 
A   10
 C6 
A   11
 C7 
A   12
 C8 
A   13
 C9 
A   14
 H1 
A   15
 H2 
A   16
 H3 
A   17
 H4 
A   18
 H5 
A   19
 H6 
A   20
 H7 
A   21
 H8 
A   22
 H9 
A   23
 H10
A   24
 H11
M  END
>  <ref_pdb>  (135) 
x0051_0B

>  <ref_mols>  (135) 
x0443_0B,x0490_0B

>  <original SMILES>  (135) 
[H]c1c([H])c([H])c2c(c1[H])n(N([H])[H])c(=S)n2C([H])([H])C([H])([H])[H]

>  <index>  (135) 
2115

>  <∆∆G>  (135) 
-7.08235

>  <∆G_bound>  (135) 
-7.151296

>  <∆G_unbound>  (135) 
-0.068946

>  <comRMSD>  (135) 
0.370874

>  <N_constrained_atoms>  (135) 
12.0

>  <N_unconstrained_atoms>  (135) 
1.0

>  <runtime>  (135) 
19.375833

>  <LE>  (135) 
0.544796

>  <percent_hybrid>  (135) 
50.0

>  <dist>  (135) 
3.0

>  <ecfp4>  (135) 
0.414634

>  <daylight>  (135) 
0.109375

>  <topodist>  (135) 
1.0

>  <mces>  (135) 
13.0

>  <tdn>  (135) 
0.0

>  <tup>  (135) 
1.0

>  <rdn>  (135) 
0.0

>  <rup>  (135) 
0.0

>  <ldn>  (135) 
0.0

>  <lup>  (135) 
0.0

>  <mut>  (135) 
1.0

>  <maj>  (135) 
1.0

>  <min>  (135) 
0.0

>  <hyb>  (135) 
1.0

>  <sub>  (135) 
0.0

>  <query_index>  (135) 
234.0

>  <max_hit_Tanimoto>  (135) 
0.496825

>  <largest_ring>  (135) 
6

>  <N_interactions_kept>  (135) 
0.0

>  <N_interactions_lost>  (135) 
4.0

>  <interaction_uniqueness_metric>  (135) 
0.149811

>  <ad_hoc_penalty>  (135) 
-4.447926

>  <N_rotatable_bonds>  (135) 
3

>  <N_HA>  (135) 
13

>  <cluster>  (135) 
4276

>  <N_interactions>  (135) 
7

>  <Enamine>  (135) 
1

>  <Mcule>  (135) 
0

>  <N_PAINS>  (135) 
0

>  <UFF_Gibbs>  (135) 
106.498246

>  <strain_per_HA>  (135) 
8.192173

>  <intxn_scored>  (135) 
10.5

>  <saltbridge:HIS:51>  (135) 
0

>  <pistack:HIS:51>  (135) 
0

>  <hydroph_interaction:HIS:51>  (135) 
0

>  <hbond:ALA:132>  (135) 
0

>  <hbond:SER:135>  (135) 
0

>  <hydroph_interaction:TYR:150>  (135) 
1

>  <pistack:TYR:161>  (135) 
1

>  <hydroph_interaction:TYR:161>  (135) 
3

>  <hydroph_interaction:ASP:83>  (135) 
0

>  <hbond:TYR:130>  (135) 
1

>  <hydroph_interaction:ALA:132>  (135) 
0

>  <hbond:HIS:51>  (135) 
0

>  <hbond:ASP:129>  (135) 
0

>  <hbond:TYR:150>  (135) 
1

>  <hbond:GLY:151>  (135) 
0

>  <hbond:TYR:161>  (135) 
0

>  <hydroph_interaction:TYR:130>  (135) 
0

>  <hydroph_interaction:PRO:131>  (135) 
0

>  <hydroph_interaction:ASP:129>  (135) 
0

>  <saltbridge:ASP:75>  (135) 
0

>  <saltbridge:ASP:83>  (135) 
0

>  <hbond:ASN:152>  (135) 
0

>  <hydroph_interaction:ASN:152>  (135) 
0

>  <halogenbond:TYR:150>  (135) 
0

>  <hbond:ASP:83>  (135) 
0

>  <hydroph_interaction:VAL:155>  (135) 
0

>  <pication:TYR:161>  (135) 
0

>  <hbond:PRO:131>  (135) 
0

>  <saltbridge:ASP:129>  (135) 
0

>  <hbond:THR:134>  (135) 
0

>  <pication:HIS:51>  (135) 
0

>  <hbond:SER:81>  (135) 
0

>  <hydroph_interaction:THR:134>  (135) 
0

>  <hydroph_interaction:MET:49>  (135) 
0

$$$$
PV-004832382280
     RDKit          3D

 50 53  0  0  0  0  0  0  0  0999 V2000
   -9.7030    6.4870  -13.2720 O   0  0  0  0  0  0  0  0  0  0  0  0
   -8.8350    5.6180  -13.3390 C   0  0  0  0  0  0  0  0  0  0  0  0
   -7.8810    5.3480  -12.2010 C   0  0  0  0  0  0  0  0  0  0  0  0
   -8.3360    5.4900  -10.7490 C   0  0  0  0  0  0  0  0  0  0  0  0
   -8.6920    4.3660   -9.8190 C   0  0  0  0  0  0  0  0  0  0  0  0
   -8.6850    2.9120  -10.2110 C   0  0  0  0  0  0  0  0  0  0  0  0
   -8.6770    2.2690   -8.8860 C   0  0  0  0  0  0  0  0  0  0  0  0
   -9.6270    2.7760   -7.8540 C   0  0  0  0  0  0  0  0  0  0  0  0
   -9.3530    4.0630   -7.4290 C   0  0  0  0  0  0  0  0  0  0  0  0
   -8.9920    4.8710   -8.5990 N   0  0  0  0  0  0  0  0  0  0  0  0
   -8.9110    6.2210   -8.5690 N   0  0  0  0  0  0  0  0  0  0  0  0
   -8.5170    6.6040   -9.8790 C   0  0  0  0  0  0  0  0  0  0  0  0
   -8.5500    4.7810  -14.4410 N   0  0  0  0  0  0  0  0  0  0  0  0
   -8.7230    4.9060  -15.8540 C   0  0  0  0  0  0  0  0  0  0  0  0
   -7.5100    5.2510  -16.6670 C   0  0  0  0  0  0  0  0  0  0  0  0
   -7.7470    5.3260  -18.1560 C   0  0  0  0  0  0  0  0  0  0  0  0
   -6.7440    5.6420  -19.0650 N   0  0  0  0  0  0  0  0  0  0  0  0
   -6.4580    5.0080  -20.2390 C   0  0  0  0  0  0  0  0  0  0  0  0
   -7.2040    4.2520  -20.8530 O   0  0  0  0  0  0  0  0  0  0  0  0
   -5.1910    5.2550  -20.7540 C   0  0  0  0  0  0  0  0  0  0  0  0
   -5.0300    5.4890  -22.2100 C   0  0  0  0  0  0  0  0  0  0  0  0
   -3.7650    5.7210  -22.7370 C   0  0  0  0  0  0  0  0  0  0  0  0
   -2.6370    5.7340  -21.9010 C   0  0  0  0  0  0  0  0  0  0  0  0
   -2.7800    5.5220  -20.5250 C   0  0  0  0  0  0  0  0  0  0  0  0
   -4.0400    5.2900  -19.9670 C   0  0  0  0  0  0  0  0  0  0  0  0
   -4.0970    5.0930  -18.6370 F   0  0  0  0  0  0  0  0  0  0  0  0
   -9.0120    5.0750  -18.6810 C   0  0  0  0  0  0  0  0  0  0  0  0
  -10.0940    4.7760  -17.8820 C   0  0  0  0  0  0  0  0  0  0  0  0
   -9.9310    4.7010  -16.5000 C   0  0  0  0  0  0  0  0  0  0  0  0
   -7.5160    4.3280  -12.3590 H   0  0  0  0  0  0  0  0  0  0  0  0
   -7.0220    6.0100  -12.3460 H   0  0  0  0  0  0  0  0  0  0  0  0
   -9.6510    2.6790  -10.6740 H   0  0  0  0  0  0  0  0  0  0  0  0
   -7.9470    2.5930  -10.9410 H   0  0  0  0  0  0  0  0  0  0  0  0
   -7.6660    2.1540   -8.5330 H   0  0  0  0  0  0  0  0  0  0  0  0
   -8.9890    1.2450   -9.0390 H   0  0  0  0  0  0  0  0  0  0  0  0
   -9.4460    2.1400   -6.9810 H   0  0  0  0  0  0  0  0  0  0  0  0
  -10.6750    2.5930   -8.0730 H   0  0  0  0  0  0  0  0  0  0  0  0
  -10.0880    4.5880   -6.8320 H   0  0  0  0  0  0  0  0  0  0  0  0
   -8.4610    4.0100   -6.7970 H   0  0  0  0  0  0  0  0  0  0  0  0
   -8.3810    7.6680  -10.0940 H   0  0  0  0  0  0  0  0  0  0  0  0
   -8.1180    3.8580  -14.2170 H   0  0  0  0  0  0  0  0  0  0  0  0
   -6.5330    5.4290  -16.2120 H   0  0  0  0  0  0  0  0  0  0  0  0
   -6.0740    6.3320  -18.7430 H   0  0  0  0  0  0  0  0  0  0  0  0
   -5.8970    5.4790  -22.8640 H   0  0  0  0  0  0  0  0  0  0  0  0
   -3.6530    5.8890  -23.8070 H   0  0  0  0  0  0  0  0  0  0  0  0
   -1.6520    5.9120  -22.3190 H   0  0  0  0  0  0  0  0  0  0  0  0
   -1.9080    5.5360  -19.8770 H   0  0  0  0  0  0  0  0  0  0  0  0
   -9.2630    5.1030  -19.7470 H   0  0  0  0  0  0  0  0  0  0  0  0
  -11.0730    4.5960  -18.3240 H   0  0  0  0  0  0  0  0  0  0  0  0
  -10.7970    4.4560  -15.9150 H   0  0  0  0  0  0  0  0  0  0  0  0
  1  2  2  0
  2  3  1  0
  3  4  1  0
  4  5  2  0
  5  6  1  0
  6  7  1  0
  7  8  1  0
  8  9  1  0
  9 10  1  0
 10 11  1  0
 11 12  2  0
  2 13  1  0
 13 14  1  0
 14 15  2  0
 15 16  1  0
 16 17  1  0
 17 18  1  0
 18 19  2  0
 18 20  1  0
 20 21  2  0
 21 22  1  0
 22 23  2  0
 23 24  1  0
 24 25  2  0
 25 26  1  0
 16 27  2  0
 27 28  1  0
 28 29  2  0
 12  4  1  0
 10  5  1  0
 29 14  1  0
 25 20  1  0
  3 30  1  0
  3 31  1  0
  6 32  1  0
  6 33  1  0
  7 34  1  0
  7 35  1  0
  8 36  1  0
  8 37  1  0
  9 38  1  0
  9 39  1  0
 12 40  1  0
 13 41  1  0
 15 42  1  0
 17 43  1  0
 21 44  1  0
 22 45  1  0
 23 46  1  0
 24 47  1  0
 27 48  1  0
 28 49  1  0
 29 50  1  0
A    1
 O1 
A    2
 C1 
A    3
 C2 
A    4
 C3 
A    5
 C4 
A    6
 C5 
A    7
 C6 
A    8
 C7 
A    9
 C8 
A   10
 N1 
A   11
 N2 
A   12
 C9 
A   13
 N3 
A   14
 C10
A   15
 C11
A   16
 C12
A   17
 N4 
A   18
 C13
A   19
 O2 
A   20
 C14
A   21
 C15
A   22
 C16
A   23
 C17
A   24
 C18
A   25
 C19
A   26
 F1 
A   27
 C20
A   28
 C21
A   29
 C22
A   30
 H1 
A   31
 H2 
A   32
 H3 
A   33
 H4 
A   34
 H5 
A   35
 H6 
A   36
 H7 
A   37
 H8 
A   38
 H9 
A   39
 H10
A   40
 H11
A   41
 H12
A   42
 H13
A   43
 H14
A   44
 H15
A   45
 H16
A   46
 H17
A   47
 H18
A   48
 H19
A   49
 H20
A   50
 H21
M  END
>  <ref_pdb>  (136) 
x0051_0B

>  <ref_mols>  (136) 
x0852_0B,x0969_1B

>  <original SMILES>  (136) 
[H]c1nn2c(c1C([H])([H])C(=O)N([H])c1c([H])c([H])c([H])c(N([H])C(=O)c3c([H])c([H])c([H])c([H])c3F)c1[H])C([H])([H])C([H])([H])C([H])([H])C2([H])[H]

>  <index>  (136) 
200

>  <∆∆G>  (136) 
-7.429649

>  <∆G_bound>  (136) 
-6.080176

>  <∆G_unbound>  (136) 
1.349474

>  <comRMSD>  (136) 
0.35688

>  <N_constrained_atoms>  (136) 
28.0

>  <N_unconstrained_atoms>  (136) 
3.0

>  <runtime>  (136) 
100.217578

>  <LE>  (136) 
0.239666

>  <percent_hybrid>  (136) 
36.0

>  <dist>  (136) 
7.0

>  <ecfp4>  (136) 
0.358696

>  <daylight>  (136) 
0.371345

>  <topodist>  (136) 
3.0

>  <mces>  (136) 
31.0

>  <tdn>  (136) 
2.0

>  <tup>  (136) 
1.0

>  <rdn>  (136) 
0.0

>  <rup>  (136) 
0.0

>  <ldn>  (136) 
0.0

>  <lup>  (136) 
0.0

>  <mut>  (136) 
3.0

>  <maj>  (136) 
3.0

>  <min>  (136) 
0.0

>  <hyb>  (136) 
1.0

>  <sub>  (136) 
2.0

>  <query_index>  (136) 
46.0

>  <max_hit_Tanimoto>  (136) 
0.362143

>  <largest_ring>  (136) 
0

>  <N_interactions_kept>  (136) 
3.0

>  <N_interactions_lost>  (136) 
3.0

>  <interaction_uniqueness_metric>  (136) 
0.282103

>  <ad_hoc_penalty>  (136) 
-28.517096

>  <N_rotatable_bonds>  (136) 
5

>  <N_HA>  (136) 
29

>  <cluster>  (136) 
6037

>  <N_interactions>  (136) 
9

>  <Enamine>  (136) 
1

>  <Mcule>  (136) 
0

>  <N_PAINS>  (136) 
0

>  <UFF_Gibbs>  (136) 
112.405617

>  <strain_per_HA>  (136) 
3.876056

>  <intxn_scored>  (136) 
10.0

>  <saltbridge:HIS:51>  (136) 
0

>  <pistack:HIS:51>  (136) 
1

>  <hydroph_interaction:HIS:51>  (136) 
1

>  <hbond:ALA:132>  (136) 
0

>  <hbond:SER:135>  (136) 
0

>  <hydroph_interaction:TYR:150>  (136) 
1

>  <pistack:TYR:161>  (136) 
0

>  <hydroph_interaction:TYR:161>  (136) 
2

>  <hydroph_interaction:ASP:83>  (136) 
1

>  <hbond:TYR:130>  (136) 
1

>  <hydroph_interaction:ALA:132>  (136) 
0

>  <hbond:HIS:51>  (136) 
0

>  <hbond:ASP:129>  (136) 
0

>  <hbond:TYR:150>  (136) 
0

>  <hbond:GLY:151>  (136) 
0

>  <hbond:TYR:161>  (136) 
1

>  <hydroph_interaction:TYR:130>  (136) 
0

>  <hydroph_interaction:PRO:131>  (136) 
0

>  <hydroph_interaction:ASP:129>  (136) 
1

>  <saltbridge:ASP:75>  (136) 
0

>  <saltbridge:ASP:83>  (136) 
0

>  <hbond:ASN:152>  (136) 
0

>  <hydroph_interaction:ASN:152>  (136) 
0

>  <halogenbond:TYR:150>  (136) 
0

>  <hbond:ASP:83>  (136) 
0

>  <hydroph_interaction:VAL:155>  (136) 
0

>  <pication:TYR:161>  (136) 
0

>  <hbond:PRO:131>  (136) 
0

>  <saltbridge:ASP:129>  (136) 
0

>  <hbond:THR:134>  (136) 
0

>  <pication:HIS:51>  (136) 
0

>  <hbond:SER:81>  (136) 
0

>  <hydroph_interaction:THR:134>  (136) 
0

>  <hydroph_interaction:MET:49>  (136) 
0

$$$$
PV-002735784781
     RDKit          3D

 25 25  0  0  0  0  0  0  0  0999 V2000
  -10.0830    4.5780  -18.1700 C   0  0  0  0  0  0  0  0  0  0  0  0
   -9.0040    5.2160  -17.3460 C   0  0  0  0  0  0  0  0  0  0  0  0
   -9.3770    5.8710  -16.0300 C   0  0  0  0  0  0  0  0  0  0  0  0
   -9.6960    5.0670  -14.9620 N   0  0  0  0  0  0  0  0  0  0  0  0
   -7.6160    5.2520  -17.8140 C   0  0  0  0  0  0  0  0  0  0  0  0
   -6.5570    5.1450  -16.9420 C   0  0  0  0  0  0  0  0  0  0  0  0
   -6.9270    4.9920  -15.5790 O   0  0  0  0  0  0  0  0  0  0  0  0
   -5.2270    5.1760  -17.3070 C   0  0  0  0  0  0  0  0  0  0  0  0
   -4.0610    5.0590  -16.3840 C   0  0  0  0  0  0  0  0  0  0  0  0
   -4.9490    5.3290  -18.6690 C   0  0  0  0  0  0  0  0  0  0  0  0
   -6.0150    5.4610  -19.7640 C   0  0  0  0  0  0  0  0  0  0  0  0
   -7.3930    5.4050  -19.1890 C   0  0  0  0  0  0  0  0  0  0  0  0
  -11.1250    4.5600  -17.8490 H   0  0  0  0  0  0  0  0  0  0  0  0
   -9.8410    4.1110  -19.1280 H   0  0  0  0  0  0  0  0  0  0  0  0
  -10.2280    6.5350  -16.1900 H   0  0  0  0  0  0  0  0  0  0  0  0
   -8.5390    6.5070  -15.7260 H   0  0  0  0  0  0  0  0  0  0  0  0
  -10.6190    5.3230  -14.6120 H   0  0  0  0  0  0  0  0  0  0  0  0
   -9.7620    4.0940  -15.2520 H   0  0  0  0  0  0  0  0  0  0  0  0
   -7.4820    4.1980  -15.5020 H   0  0  0  0  0  0  0  0  0  0  0  0
   -3.2660    4.4610  -16.8380 H   0  0  0  0  0  0  0  0  0  0  0  0
   -4.3680    4.5440  -15.4670 H   0  0  0  0  0  0  0  0  0  0  0  0
   -3.6360    6.0340  -16.1360 H   0  0  0  0  0  0  0  0  0  0  0  0
   -3.9310    5.3680  -19.0770 H   0  0  0  0  0  0  0  0  0  0  0  0
   -5.7270    5.5790  -20.8150 H   0  0  0  0  0  0  0  0  0  0  0  0
   -8.2400    5.4880  -19.8620 H   0  0  0  0  0  0  0  0  0  0  0  0
  1  2  2  3
  2  3  1  0
  3  4  1  0
  2  5  1  0
  5  6  2  0
  6  7  1  0
  6  8  1  0
  8  9  1  0
  8 10  2  0
 10 11  1  0
 11 12  2  0
 12  5  1  0
  1 13  1  0
  1 14  1  0
  3 15  1  0
  3 16  1  0
  4 17  1  0
  4 18  1  0
  7 19  1  0
  9 20  1  0
  9 21  1  0
  9 22  1  0
 10 23  1  0
 11 24  1  0
 12 25  1  0
A    1
 C1 
A    2
 C2 
A    3
 C3 
A    4
 N1 
A    5
 C4 
A    6
 C5 
A    7
 O1 
A    8
 C6 
A    9
 C7 
A   10
 C8 
A   11
 C9 
A   12
 C10
A   13
 H1 
A   14
 H2 
A   15
 H3 
A   16
 H4 
A   17
 H5 
A   18
 H6 
A   19
 H7 
A   20
 H8 
A   21
 H9 
A   22
 H10
A   23
 H11
A   24
 H12
A   25
 H13
M  END
>  <ref_pdb>  (137) 
x0051_0B

>  <ref_mols>  (137) 
x0425_0B,x0435_0B

>  <original SMILES>  (137) 
[H]Oc1c(C(=C([H])[H])C([H])([H])N([H])[H])c([H])c([H])c([H])c1C([H])([H])[H]

>  <index>  (137) 
214

>  <∆∆G>  (137) 
-6.657566

>  <∆G_bound>  (137) 
-6.550789

>  <∆G_unbound>  (137) 
0.106777

>  <comRMSD>  (137) 
0.70035

>  <N_constrained_atoms>  (137) 
13.0

>  <N_unconstrained_atoms>  (137) 
1.0

>  <runtime>  (137) 
27.646799

>  <LE>  (137) 
0.47554

>  <percent_hybrid>  (137) 
40.0

>  <dist>  (137) 
3.0

>  <ecfp4>  (137) 
0.270833

>  <daylight>  (137) 
0.157895

>  <topodist>  (137) 
2.0

>  <mces>  (137) 
12.0

>  <tdn>  (137) 
1.0

>  <tup>  (137) 
0.0

>  <rdn>  (137) 
1.0

>  <rup>  (137) 
0.0

>  <ldn>  (137) 
0.0

>  <lup>  (137) 
0.0

>  <mut>  (137) 
1.0

>  <maj>  (137) 
1.0

>  <min>  (137) 
0.0

>  <hyb>  (137) 
0.0

>  <sub>  (137) 
1.0

>  <query_index>  (137) 
107.0

>  <max_hit_Tanimoto>  (137) 
0.103314

>  <largest_ring>  (137) 
0

>  <N_interactions_kept>  (137) 
1.0

>  <N_interactions_lost>  (137) 
2.5

>  <interaction_uniqueness_metric>  (137) 
0.225878

>  <ad_hoc_penalty>  (137) 
-25.787032

>  <N_rotatable_bonds>  (137) 
5

>  <N_HA>  (137) 
12

>  <cluster>  (137) 
6023

>  <N_interactions>  (137) 
9

>  <Enamine>  (137) 
1

>  <Mcule>  (137) 
0

>  <N_PAINS>  (137) 
0

>  <UFF_Gibbs>  (137) 
70.878478

>  <strain_per_HA>  (137) 
5.90654

>  <intxn_scored>  (137) 
10.0

>  <saltbridge:HIS:51>  (137) 
0

>  <pistack:HIS:51>  (137) 
0

>  <hydroph_interaction:HIS:51>  (137) 
0

>  <hbond:ALA:132>  (137) 
0

>  <hbond:SER:135>  (137) 
1

>  <hydroph_interaction:TYR:150>  (137) 
1

>  <pistack:TYR:161>  (137) 
1

>  <hydroph_interaction:TYR:161>  (137) 
3

>  <hydroph_interaction:ASP:83>  (137) 
0

>  <hbond:TYR:130>  (137) 
0

>  <hydroph_interaction:ALA:132>  (137) 
1

>  <hbond:HIS:51>  (137) 
1

>  <hbond:ASP:129>  (137) 
0

>  <hbond:TYR:150>  (137) 
0

>  <hbond:GLY:151>  (137) 
1

>  <hbond:TYR:161>  (137) 
0

>  <hydroph_interaction:TYR:130>  (137) 
0

>  <hydroph_interaction:PRO:131>  (137) 
0

>  <hydroph_interaction:ASP:129>  (137) 
0

>  <saltbridge:ASP:75>  (137) 
0

>  <saltbridge:ASP:83>  (137) 
0

>  <hbond:ASN:152>  (137) 
0

>  <hydroph_interaction:ASN:152>  (137) 
0

>  <halogenbond:TYR:150>  (137) 
0

>  <hbond:ASP:83>  (137) 
0

>  <hydroph_interaction:VAL:155>  (137) 
0

>  <pication:TYR:161>  (137) 
0

>  <hbond:PRO:131>  (137) 
0

>  <saltbridge:ASP:129>  (137) 
0

>  <hbond:THR:134>  (137) 
0

>  <pication:HIS:51>  (137) 
0

>  <hbond:SER:81>  (137) 
0

>  <hydroph_interaction:THR:134>  (137) 
0

>  <hydroph_interaction:MET:49>  (137) 
0

$$$$
Z2762781424
     RDKit          3D

 45 47  0  0  0  0  0  0  0  0999 V2000
  -10.4340    4.5670  -18.4240 C   0  0  0  0  0  0  0  0  0  0  0  0
   -9.2640    4.9860  -17.7550 C   0  0  0  0  0  0  0  0  0  0  0  0
   -8.1070    5.0430  -18.5150 C   0  0  0  0  0  0  0  0  0  0  0  0
   -6.9210    5.4570  -17.9390 C   0  0  0  0  0  0  0  0  0  0  0  0
   -5.7770    5.5060  -18.7230 C   0  0  0  0  0  0  0  0  0  0  0  0
   -6.8980    5.8250  -16.5860 C   0  0  0  0  0  0  0  0  0  0  0  0
   -8.0550    5.7870  -15.7820 C   0  0  0  0  0  0  0  0  0  0  0  0
   -7.9720    6.2540  -14.3010 C   0  0  0  0  0  0  0  0  0  0  0  0
   -6.9470    7.3220  -14.2050 C   0  0  0  0  0  0  0  0  0  0  0  0
   -7.7790    5.2250  -13.2550 N   0  0  0  0  0  0  0  0  0  0  0  0
   -8.9930    5.0020  -12.4540 C   0  0  0  0  0  0  0  0  0  0  0  0
   -8.9100    5.4180  -11.0120 C   0  0  0  0  0  0  0  0  0  0  0  0
   -9.0470    4.2980   -9.9980 C   0  0  0  0  0  0  0  0  0  0  0  0
   -9.2340    2.8330  -10.3760 C   0  0  0  0  0  0  0  0  0  0  0  0
   -8.9740    2.0570   -9.1640 N   0  0  0  0  0  0  0  0  0  0  0  0
   -9.6080    2.6540   -7.9570 C   0  0  0  0  0  0  0  0  0  0  0  0
   -9.0880    4.0590   -7.5820 C   0  0  0  0  0  0  0  0  0  0  0  0
   -8.9730    4.8550   -8.7840 N   0  0  0  0  0  0  0  0  0  0  0  0
   -8.7890    6.1970   -8.8280 N   0  0  0  0  0  0  0  0  0  0  0  0
   -8.7500    6.5460  -10.1630 C   0  0  0  0  0  0  0  0  0  0  0  0
   -9.2500    5.3470  -16.3940 C   0  0  0  0  0  0  0  0  0  0  0  0
  -10.2320    3.5900  -18.8400 H   0  0  0  0  0  0  0  0  0  0  0  0
  -11.2800    4.5090  -17.7550 H   0  0  0  0  0  0  0  0  0  0  0  0
  -10.6590    5.2640  -19.2410 H   0  0  0  0  0  0  0  0  0  0  0  0
   -8.1310    4.7640  -19.5660 H   0  0  0  0  0  0  0  0  0  0  0  0
   -5.5020    6.5480  -18.9200 H   0  0  0  0  0  0  0  0  0  0  0  0
   -4.9420    5.0060  -18.2220 H   0  0  0  0  0  0  0  0  0  0  0  0
   -5.9320    4.9950  -19.6800 H   0  0  0  0  0  0  0  0  0  0  0  0
   -5.9550    6.1570  -16.1520 H   0  0  0  0  0  0  0  0  0  0  0  0
   -8.9300    6.7470  -14.0950 H   0  0  0  0  0  0  0  0  0  0  0  0
   -5.9410    6.9030  -14.3040 H   0  0  0  0  0  0  0  0  0  0  0  0
   -7.0690    8.0650  -14.9980 H   0  0  0  0  0  0  0  0  0  0  0  0
   -6.9930    7.8520  -13.2470 H   0  0  0  0  0  0  0  0  0  0  0  0
   -7.0060    5.4850  -12.6470 H   0  0  0  0  0  0  0  0  0  0  0  0
   -9.8370    5.5370  -12.9000 H   0  0  0  0  0  0  0  0  0  0  0  0
   -9.2520    3.9370  -12.4880 H   0  0  0  0  0  0  0  0  0  0  0  0
   -8.5180    2.5300  -11.1480 H   0  0  0  0  0  0  0  0  0  0  0  0
  -10.2340    2.6230  -10.7570 H   0  0  0  0  0  0  0  0  0  0  0  0
   -7.9660    2.0840   -9.0350 H   0  0  0  0  0  0  0  0  0  0  0  0
  -10.6910    2.6930   -8.1090 H   0  0  0  0  0  0  0  0  0  0  0  0
   -9.4530    1.9690   -7.1150 H   0  0  0  0  0  0  0  0  0  0  0  0
   -9.7760    4.5600   -6.8940 H   0  0  0  0  0  0  0  0  0  0  0  0
   -8.0950    4.0130   -7.1330 H   0  0  0  0  0  0  0  0  0  0  0  0
   -8.6150    7.5860  -10.4410 H   0  0  0  0  0  0  0  0  0  0  0  0
  -10.1650    5.2990  -15.8170 H   0  0  0  0  0  0  0  0  0  0  0  0
  1  2  1  0
  2  3  2  0
  3  4  1  0
  4  5  1  0
  4  6  2  0
  6  7  1  0
  7  8  1  0
  8  9  1  0
  8 10  1  0
 10 11  1  0
 11 12  1  0
 12 13  2  0
 13 14  1  0
 14 15  1  0
 15 16  1  0
 16 17  1  0
 17 18  1  0
 18 19  1  0
 19 20  2  0
  7 21  2  0
 21  2  1  0
 20 12  1  0
 18 13  1  0
  1 22  1  0
  1 23  1  0
  1 24  1  0
  3 25  1  0
  5 26  1  0
  5 27  1  0
  5 28  1  0
  6 29  1  0
  8 30  1  0
  9 31  1  0
  9 32  1  0
  9 33  1  0
 10 34  1  0
 11 35  1  0
 11 36  1  0
 14 37  1  0
 14 38  1  0
 15 39  1  0
 16 40  1  0
 16 41  1  0
 17 42  1  0
 17 43  1  0
 20 44  1  0
 21 45  1  0
A    1
 C1 
A    2
 C2 
A    3
 C3 
A    4
 C4 
A    5
 C5 
A    6
 C6 
A    7
 C7 
A    8
 C8 
A    9
 C9 
A   10
 N1 
A   11
 C10
A   12
 C11
A   13
 C12
A   14
 C13
A   15
 N2 
A   16
 C14
A   17
 C15
A   18
 N3 
A   19
 N4 
A   20
 C16
A   21
 C17
A   22
 H1 
A   23
 H2 
A   24
 H3 
A   25
 H4 
A   26
 H5 
A   27
 H6 
A   28
 H7 
A   29
 H8 
A   30
 H9 
A   31
 H10
A   32
 H11
A   33
 H12
A   34
 H13
A   35
 H14
A   36
 H15
A   37
 H16
A   38
 H17
A   39
 H18
A   40
 H19
A   41
 H20
A   42
 H21
A   43
 H22
A   44
 H23
A   45
 H24
M  END
>  <ref_pdb>  (138) 
x0051_0B

>  <ref_mols>  (138) 
x0589_0B,x0969_1B

>  <original SMILES>  (138) 
[H]c1nn2c(c1C([H])([H])N([H])C([H])(c1c([H])c(C([H])([H])[H])c([H])c(C([H])([H])[H])c1[H])C([H])([H])[H])C([H])([H])N([H])C([H])([H])C2([H])[H]

>  <index>  (138) 
1289

>  <∆∆G>  (138) 
-7.607964

>  <∆G_bound>  (138) 
-7.559141

>  <∆G_unbound>  (138) 
0.048823

>  <comRMSD>  (138) 
0.536902

>  <N_constrained_atoms>  (138) 
18.0

>  <N_unconstrained_atoms>  (138) 
3.0

>  <runtime>  (138) 
48.840276

>  <LE>  (138) 
0.362284

>  <percent_hybrid>  (138) 
45.0

>  <dist>  (138) 
4.0

>  <ecfp4>  (138) 
0.5

>  <daylight>  (138) 
0.553488

>  <topodist>  (138) 
1.0

>  <mces>  (138) 
22.0

>  <tdn>  (138) 
0.0

>  <tup>  (138) 
1.0

>  <rdn>  (138) 
0.0

>  <rup>  (138) 
0.0

>  <ldn>  (138) 
0.0

>  <lup>  (138) 
0.0

>  <mut>  (138) 
3.0

>  <maj>  (138) 
3.0

>  <min>  (138) 
0.0

>  <hyb>  (138) 
0.0

>  <sub>  (138) 
0.0

>  <query_index>  (138) 
379.0

>  <max_hit_Tanimoto>  (138) 
0.647868

>  <largest_ring>  (138) 
6

>  <N_interactions_kept>  (138) 
0.5

>  <N_interactions_lost>  (138) 
2.0

>  <interaction_uniqueness_metric>  (138) 
0.214376

>  <ad_hoc_penalty>  (138) 
-15.363427

>  <N_rotatable_bonds>  (138) 
7

>  <N_HA>  (138) 
21

>  <cluster>  (138) 
5034

>  <N_interactions>  (138) 
6

>  <Enamine>  (138) 
1

>  <Mcule>  (138) 
0

>  <N_PAINS>  (138) 
0

>  <UFF_Gibbs>  (138) 
73.412956

>  <strain_per_HA>  (138) 
3.495855

>  <intxn_scored>  (138) 
10.0

>  <saltbridge:HIS:51>  (138) 
0

>  <pistack:HIS:51>  (138) 
1

>  <hydroph_interaction:HIS:51>  (138) 
0

>  <hbond:ALA:132>  (138) 
0

>  <hbond:SER:135>  (138) 
0

>  <hydroph_interaction:TYR:150>  (138) 
1

>  <pistack:TYR:161>  (138) 
1

>  <hydroph_interaction:TYR:161>  (138) 
1

>  <hydroph_interaction:ASP:83>  (138) 
0

>  <hbond:TYR:130>  (138) 
0

>  <hydroph_interaction:ALA:132>  (138) 
1

>  <hbond:HIS:51>  (138) 
0

>  <hbond:ASP:129>  (138) 
0

>  <hbond:TYR:150>  (138) 
0

>  <hbond:GLY:151>  (138) 
0

>  <hbond:TYR:161>  (138) 
0

>  <hydroph_interaction:TYR:130>  (138) 
0

>  <hydroph_interaction:PRO:131>  (138) 
0

>  <hydroph_interaction:ASP:129>  (138) 
0

>  <saltbridge:ASP:75>  (138) 
0

>  <saltbridge:ASP:83>  (138) 
0

>  <hbond:ASN:152>  (138) 
0

>  <hydroph_interaction:ASN:152>  (138) 
0

>  <halogenbond:TYR:150>  (138) 
0

>  <hbond:ASP:83>  (138) 
1

>  <hydroph_interaction:VAL:155>  (138) 
0

>  <pication:TYR:161>  (138) 
0

>  <hbond:PRO:131>  (138) 
0

>  <saltbridge:ASP:129>  (138) 
0

>  <hbond:THR:134>  (138) 
0

>  <pication:HIS:51>  (138) 
0

>  <hbond:SER:81>  (138) 
0

>  <hydroph_interaction:THR:134>  (138) 
0

>  <hydroph_interaction:MET:49>  (138) 
0

$$$$
PV-002786801688
     RDKit          3D

 24 25  0  0  0  0  0  0  0  0999 V2000
   -3.1140    5.2140  -16.6260 C   0  0  0  0  0  0  0  0  0  0  0  0
   -4.5730    5.5720  -16.4490 C   0  0  0  0  0  0  0  0  0  0  0  0
   -5.4050    5.4680  -17.6920 C   0  0  0  0  0  0  0  0  0  0  0  0
   -6.8800    5.3060  -17.4500 C   0  0  0  0  0  0  0  0  0  0  0  0
   -7.6170    5.2460  -16.1870 C   0  0  0  0  0  0  0  0  0  0  0  0
   -7.0860    5.3310  -14.7470 C   0  0  0  0  0  0  0  0  0  0  0  0
   -8.9450    5.0760  -16.5220 N   0  0  0  0  0  0  0  0  0  0  0  0
   -8.9420    5.0440  -17.8980 N   0  0  0  0  0  0  0  0  0  0  0  0
  -10.1930    4.8600  -18.6130 C   0  0  0  0  0  0  0  0  0  0  0  0
   -7.7100    5.1890  -18.5000 C   0  0  0  0  0  0  0  0  0  0  0  0
   -7.3880    5.2050  -19.7910 N   0  0  0  0  0  0  0  0  0  0  0  0
   -6.0540    5.3570  -20.0270 C   0  0  0  0  0  0  0  0  0  0  0  0
   -5.0040    5.4930  -19.0220 C   0  0  0  0  0  0  0  0  0  0  0  0
   -2.4020    5.2470  -15.7990 H   0  0  0  0  0  0  0  0  0  0  0  0
   -2.7380    4.9060  -17.6090 H   0  0  0  0  0  0  0  0  0  0  0  0
   -5.0060    5.8840  -15.5070 H   0  0  0  0  0  0  0  0  0  0  0  0
   -6.2910    4.6310  -14.5200 H   0  0  0  0  0  0  0  0  0  0  0  0
   -7.8140    5.1240  -13.9720 H   0  0  0  0  0  0  0  0  0  0  0  0
   -6.6780    6.2900  -14.4460 H   0  0  0  0  0  0  0  0  0  0  0  0
  -10.3860    3.8050  -18.7020 H   0  0  0  0  0  0  0  0  0  0  0  0
  -10.9990    5.3410  -18.0600 H   0  0  0  0  0  0  0  0  0  0  0  0
  -10.0840    5.3060  -19.6120 H   0  0  0  0  0  0  0  0  0  0  0  0
   -5.7740    5.3760  -21.0730 H   0  0  0  0  0  0  0  0  0  0  0  0
   -3.9680    5.6060  -19.3170 H   0  0  0  0  0  0  0  0  0  0  0  0
  1  2  2  3
  2  3  1  0
  3  4  2  0
  4  5  1  0
  5  6  1  0
  5  7  2  0
  7  8  1  0
  8  9  1  0
  8 10  1  0
 10 11  2  0
 11 12  1  0
 12 13  2  0
 13  3  1  0
 10  4  1  0
  1 14  1  0
  1 15  1  0
  2 16  1  0
  6 17  1  0
  6 18  1  0
  6 19  1  0
  9 20  1  0
  9 21  1  0
  9 22  1  0
 12 23  1  0
 13 24  1  0
A    1
 C1 
A    2
 C2 
A    3
 C3 
A    4
 C4 
A    5
 C5 
A    6
 C6 
A    7
 N1 
A    8
 N2 
A    9
 C7 
A   10
 C8 
A   11
 N3 
A   12
 C9 
A   13
 C10
A   14
 H1 
A   15
 H2 
A   16
 H3 
A   17
 H4 
A   18
 H5 
A   19
 H6 
A   20
 H7 
A   21
 H8 
A   22
 H9 
A   23
 H10
A   24
 H11
M  END
>  <ref_pdb>  (139) 
x0051_0B

>  <ref_mols>  (139) 
x0425_0B,x0687_0B

>  <original SMILES>  (139) 
[H]C([H])=C([H])c1c([H])c([H])nc2c1c(C([H])([H])[H])nn2C([H])([H])[H]

>  <index>  (139) 
2881

>  <∆∆G>  (139) 
-5.823247

>  <∆G_bound>  (139) 
-5.924586

>  <∆G_unbound>  (139) 
-0.101339

>  <comRMSD>  (139) 
0.668441

>  <N_constrained_atoms>  (139) 
14.0

>  <N_unconstrained_atoms>  (139) 
0.0

>  <runtime>  (139) 
20.305911

>  <LE>  (139) 
0.415946

>  <percent_hybrid>  (139) 
50.0

>  <dist>  (139) 
4.0

>  <ecfp4>  (139) 
0.258621

>  <daylight>  (139) 
0.154206

>  <topodist>  (139) 
1.0

>  <mces>  (139) 
14.0

>  <tdn>  (139) 
0.0

>  <tup>  (139) 
0.0

>  <rdn>  (139) 
0.0

>  <rup>  (139) 
0.0

>  <ldn>  (139) 
1.0

>  <lup>  (139) 
0.0

>  <mut>  (139) 
2.0

>  <maj>  (139) 
2.0

>  <min>  (139) 
0.0

>  <hyb>  (139) 
1.0

>  <sub>  (139) 
0.0

>  <query_index>  (139) 
169.0

>  <max_hit_Tanimoto>  (139) 
0.144208

>  <largest_ring>  (139) 
6

>  <N_interactions_kept>  (139) 
1.5

>  <N_interactions_lost>  (139) 
3.0

>  <interaction_uniqueness_metric>  (139) 
0.064945

>  <ad_hoc_penalty>  (139) 
-2.726913

>  <N_rotatable_bonds>  (139) 
3

>  <N_HA>  (139) 
13

>  <cluster>  (139) 
3558

>  <N_interactions>  (139) 
5

>  <Enamine>  (139) 
1

>  <Mcule>  (139) 
0

>  <N_PAINS>  (139) 
0

>  <UFF_Gibbs>  (139) 
64.81719

>  <strain_per_HA>  (139) 
4.985938

>  <intxn_scored>  (139) 
10.0

>  <saltbridge:HIS:51>  (139) 
0

>  <pistack:HIS:51>  (139) 
0

>  <hydroph_interaction:HIS:51>  (139) 
0

>  <hbond:ALA:132>  (139) 
0

>  <hbond:SER:135>  (139) 
0

>  <hydroph_interaction:TYR:150>  (139) 
0

>  <pistack:TYR:161>  (139) 
2

>  <hydroph_interaction:TYR:161>  (139) 
2

>  <hydroph_interaction:ASP:83>  (139) 
0

>  <hbond:TYR:130>  (139) 
0

>  <hydroph_interaction:ALA:132>  (139) 
0

>  <hbond:HIS:51>  (139) 
0

>  <hbond:ASP:129>  (139) 
0

>  <hbond:TYR:150>  (139) 
0

>  <hbond:GLY:151>  (139) 
0

>  <hbond:TYR:161>  (139) 
0

>  <hydroph_interaction:TYR:130>  (139) 
0

>  <hydroph_interaction:PRO:131>  (139) 
0

>  <hydroph_interaction:ASP:129>  (139) 
0

>  <saltbridge:ASP:75>  (139) 
0

>  <saltbridge:ASP:83>  (139) 
0

>  <hbond:ASN:152>  (139) 
0

>  <hydroph_interaction:ASN:152>  (139) 
0

>  <halogenbond:TYR:150>  (139) 
0

>  <hbond:ASP:83>  (139) 
0

>  <hydroph_interaction:VAL:155>  (139) 
1

>  <pication:TYR:161>  (139) 
0

>  <hbond:PRO:131>  (139) 
0

>  <saltbridge:ASP:129>  (139) 
0

>  <hbond:THR:134>  (139) 
0

>  <pication:HIS:51>  (139) 
0

>  <hbond:SER:81>  (139) 
0

>  <hydroph_interaction:THR:134>  (139) 
0

>  <hydroph_interaction:MET:49>  (139) 
0

$$$$
CSSB00009861561
     RDKit          3D

 23 24  0  0  0  0  0  0  0  0999 V2000
   -2.5290    4.7840  -19.1180 C   0  0  0  0  0  0  0  0  0  0  0  0
   -3.4170    5.8860  -19.0520 O   0  0  0  0  0  0  0  0  0  0  0  0
   -4.6540    5.6820  -18.4950 C   0  0  0  0  0  0  0  0  0  0  0  0
   -4.9630    5.6300  -17.0170 C   0  0  0  0  0  0  0  0  0  0  0  0
   -6.2830    5.4210  -16.6110 C   0  0  0  0  0  0  0  0  0  0  0  0
   -7.2590    5.2630  -17.5870 C   0  0  0  0  0  0  0  0  0  0  0  0
   -8.6160    5.0450  -17.3990 C   0  0  0  0  0  0  0  0  0  0  0  0
   -9.1950    4.9600  -16.1510 C   0  0  0  0  0  0  0  0  0  0  0  0
   -9.1910    4.9430  -18.6480 C   0  0  0  0  0  0  0  0  0  0  0  0
   -8.1890    5.1120  -19.5750 N   0  0  0  0  0  0  0  0  0  0  0  0
   -6.9800    5.3080  -18.9390 C   0  0  0  0  0  0  0  0  0  0  0  0
   -5.6940    5.5150  -19.4270 C   0  0  0  0  0  0  0  0  0  0  0  0
   -2.8510    3.9790  -18.4540 H   0  0  0  0  0  0  0  0  0  0  0  0
   -1.5410    5.1160  -18.7840 H   0  0  0  0  0  0  0  0  0  0  0  0
   -2.4540    4.3890  -20.1360 H   0  0  0  0  0  0  0  0  0  0  0  0
   -4.1760    5.7560  -16.2750 H   0  0  0  0  0  0  0  0  0  0  0  0
   -6.5380    5.3810  -15.5580 H   0  0  0  0  0  0  0  0  0  0  0  0
   -8.5790    4.3660  -15.4690 H   0  0  0  0  0  0  0  0  0  0  0  0
   -9.3170    5.9570  -15.7160 H   0  0  0  0  0  0  0  0  0  0  0  0
  -10.1820    4.4970  -16.2190 H   0  0  0  0  0  0  0  0  0  0  0  0
  -10.2140    4.7750  -18.9550 H   0  0  0  0  0  0  0  0  0  0  0  0
   -8.3150    5.1040  -20.5870 H   0  0  0  0  0  0  0  0  0  0  0  0
   -5.4950    5.5480  -20.4930 H   0  0  0  0  0  0  0  0  0  0  0  0
  1  2  1  0
  2  3  1  0
  3  4  2  0
  4  5  1  0
  5  6  2  0
  6  7  1  0
  7  8  1  0
  7  9  2  0
  9 10  1  0
 10 11  1  0
 11 12  2  0
 12  3  1  0
 11  6  1  0
  1 13  1  0
  1 14  1  0
  1 15  1  0
  4 16  1  0
  5 17  1  0
  8 18  1  0
  8 19  1  0
  8 20  1  0
  9 21  1  0
 10 22  1  0
 12 23  1  0
A    1
 C1 
A    2
 O1 
A    3
 C2 
A    4
 C3 
A    5
 C4 
A    6
 C5 
A    7
 C6 
A    8
 C7 
A    9
 C8 
A   10
 N1 
A   11
 C9 
A   12
 C10
A   13
 H1 
A   14
 H2 
A   15
 H3 
A   16
 H4 
A   17
 H5 
A   18
 H6 
A   19
 H7 
A   20
 H8 
A   21
 H9 
A   22
 H10
A   23
 H11
M  END
>  <ref_pdb>  (140) 
x0051_0B

>  <ref_mols>  (140) 
x0051_0B,x0680_0B

>  <original SMILES>  (140) 
[H]c1c(OC([H])([H])[H])c([H])c2c(c1[H])c(C([H])([H])[H])c([H])n2[H]

>  <index>  (140) 
3200

>  <∆∆G>  (140) 
-7.054156

>  <∆G_bound>  (140) 
-7.184149

>  <∆G_unbound>  (140) 
-0.129993

>  <comRMSD>  (140) 
0.584858

>  <N_constrained_atoms>  (140) 
14.0

>  <N_unconstrained_atoms>  (140) 
0.0

>  <runtime>  (140) 
30.526426

>  <LE>  (140) 
0.503868

>  <percent_hybrid>  (140) 
40.0

>  <dist>  (140) 
3.0

>  <ecfp4>  (140) 
0.361702

>  <daylight>  (140) 
0.166667

>  <topodist>  (140) 
1.0

>  <mces>  (140) 
13.0

>  <tdn>  (140) 
1.0

>  <tup>  (140) 
0.0

>  <rdn>  (140) 
0.0

>  <rup>  (140) 
0.0

>  <ldn>  (140) 
0.0

>  <lup>  (140) 
0.0

>  <mut>  (140) 
2.0

>  <maj>  (140) 
2.0

>  <min>  (140) 
0.0

>  <hyb>  (140) 
0.0

>  <sub>  (140) 
1.0

>  <query_index>  (140) 
313.0

>  <max_hit_Tanimoto>  (140) 
0.310873

>  <largest_ring>  (140) 
6

>  <N_interactions_kept>  (140) 
2.5

>  <N_interactions_lost>  (140) 
3.0

>  <interaction_uniqueness_metric>  (140) 
0.031777

>  <ad_hoc_penalty>  (140) 
-3.282028

>  <N_rotatable_bonds>  (140) 
3

>  <N_HA>  (140) 
12

>  <cluster>  (140) 
3255

>  <N_interactions>  (140) 
4

>  <Enamine>  (140) 
1

>  <Mcule>  (140) 
0

>  <N_PAINS>  (140) 
0

>  <UFF_Gibbs>  (140) 
31.522302

>  <strain_per_HA>  (140) 
2.626858

>  <intxn_scored>  (140) 
10.0

>  <saltbridge:HIS:51>  (140) 
0

>  <pistack:HIS:51>  (140) 
0

>  <hydroph_interaction:HIS:51>  (140) 
0

>  <hbond:ALA:132>  (140) 
0

>  <hbond:SER:135>  (140) 
0

>  <hydroph_interaction:TYR:150>  (140) 
0

>  <pistack:TYR:161>  (140) 
2

>  <hydroph_interaction:TYR:161>  (140) 
2

>  <hydroph_interaction:ASP:83>  (140) 
0

>  <hbond:TYR:130>  (140) 
0

>  <hydroph_interaction:ALA:132>  (140) 
0

>  <hbond:HIS:51>  (140) 
0

>  <hbond:ASP:129>  (140) 
0

>  <hbond:TYR:150>  (140) 
0

>  <hbond:GLY:151>  (140) 
0

>  <hbond:TYR:161>  (140) 
0

>  <hydroph_interaction:TYR:130>  (140) 
0

>  <hydroph_interaction:PRO:131>  (140) 
0

>  <hydroph_interaction:ASP:129>  (140) 
0

>  <saltbridge:ASP:75>  (140) 
0

>  <saltbridge:ASP:83>  (140) 
0

>  <hbond:ASN:152>  (140) 
0

>  <hydroph_interaction:ASN:152>  (140) 
0

>  <halogenbond:TYR:150>  (140) 
0

>  <hbond:ASP:83>  (140) 
0

>  <hydroph_interaction:VAL:155>  (140) 
0

>  <pication:TYR:161>  (140) 
0

>  <hbond:PRO:131>  (140) 
0

>  <saltbridge:ASP:129>  (140) 
0

>  <hbond:THR:134>  (140) 
0

>  <pication:HIS:51>  (140) 
0

>  <hbond:SER:81>  (140) 
0

>  <hydroph_interaction:THR:134>  (140) 
0

>  <hydroph_interaction:MET:49>  (140) 
0

$$$$
PV-003670616049
     RDKit          3D

 25 26  0  0  0  0  0  0  0  0999 V2000
   -3.3430    5.5740  -18.9300 C   0  0  0  0  0  0  0  0  0  0  0  0
   -4.3100    5.2160  -17.8410 C   0  0  0  0  0  0  0  0  0  0  0  0
   -4.9280    6.2240  -17.1020 C   0  0  0  0  0  0  0  0  0  0  0  0
   -6.2830    5.9180  -16.5950 N   0  0  0  0  0  0  0  0  0  0  0  0
   -6.5370    6.0740  -15.2770 N   0  0  0  0  0  0  0  0  0  0  0  0
   -7.8630    5.7140  -15.1760 C   0  0  0  0  0  0  0  0  0  0  0  0
   -8.4710    5.7780  -13.9350 C   0  0  0  0  0  0  0  0  0  0  0  0
   -8.9790    5.9320  -12.9010 N   0  0  0  0  0  0  0  0  0  0  0  0
   -8.4100    5.3330  -16.4160 C   0  0  0  0  0  0  0  0  0  0  0  0
   -9.6500    4.8910  -16.8800 C   0  0  0  0  0  0  0  0  0  0  0  0
   -9.8410    4.6120  -18.2200 C   0  0  0  0  0  0  0  0  0  0  0  0
   -8.8050    4.7620  -19.1230 C   0  0  0  0  0  0  0  0  0  0  0  0
   -7.5570    5.1960  -18.6900 C   0  0  0  0  0  0  0  0  0  0  0  0
   -7.3560    5.4830  -17.3290 C   0  0  0  0  0  0  0  0  0  0  0  0
   -3.8340    5.6180  -19.9060 H   0  0  0  0  0  0  0  0  0  0  0  0
   -2.8790    6.5450  -18.7330 H   0  0  0  0  0  0  0  0  0  0  0  0
   -2.5550    4.8130  -18.9690 H   0  0  0  0  0  0  0  0  0  0  0  0
   -5.1010    4.6290  -18.3160 H   0  0  0  0  0  0  0  0  0  0  0  0
   -3.8040    4.5410  -17.1410 H   0  0  0  0  0  0  0  0  0  0  0  0
   -4.3170    6.4940  -16.2360 H   0  0  0  0  0  0  0  0  0  0  0  0
   -5.0340    7.1250  -17.7160 H   0  0  0  0  0  0  0  0  0  0  0  0
  -10.4130    4.7940  -16.1060 H   0  0  0  0  0  0  0  0  0  0  0  0
  -10.8190    4.2710  -18.5710 H   0  0  0  0  0  0  0  0  0  0  0  0
   -8.9550    4.5410  -20.1870 H   0  0  0  0  0  0  0  0  0  0  0  0
   -6.7570    5.3040  -19.4190 H   0  0  0  0  0  0  0  0  0  0  0  0
  1  2  1  0
  2  3  1  0
  3  4  1  0
  4  5  1  0
  5  6  2  0
  6  7  1  0
  7  8  3  0
  6  9  1  0
  9 10  2  0
 10 11  1  0
 11 12  2  0
 12 13  1  0
 13 14  2  0
 14  4  1  0
 14  9  1  0
  1 15  1  0
  1 16  1  0
  1 17  1  0
  2 18  1  0
  2 19  1  0
  3 20  1  0
  3 21  1  0
 10 22  1  0
 11 23  1  0
 12 24  1  0
 13 25  1  0
A    1
 C1 
A    2
 C2 
A    3
 C3 
A    4
 N1 
A    5
 N2 
A    6
 C4 
A    7
 C5 
A    8
 N3 
A    9
 C6 
A   10
 C7 
A   11
 C8 
A   12
 C9 
A   13
 C10
A   14
 C11
A   15
 H1 
A   16
 H2 
A   17
 H3 
A   18
 H4 
A   19
 H5 
A   20
 H6 
A   21
 H7 
A   22
 H8 
A   23
 H9 
A   24
 H10
A   25
 H11
M  END
>  <ref_pdb>  (141) 
x0051_0B

>  <ref_mols>  (141) 
x0951_0B,x0472_0B

>  <original SMILES>  (141) 
[H]c1c([H])c([H])c2c(c(C#N)nn2C([H])([H])C([H])([H])C([H])([H])[H])c1[H]

>  <index>  (141) 
1431

>  <∆∆G>  (141) 
-6.803138

>  <∆G_bound>  (141) 
-6.792171

>  <∆G_unbound>  (141) 
0.010967

>  <comRMSD>  (141) 
0.621474

>  <N_constrained_atoms>  (141) 
16.0

>  <N_unconstrained_atoms>  (141) 
0.0

>  <runtime>  (141) 
20.769149

>  <LE>  (141) 
0.425196

>  <percent_hybrid>  (141) 
45.0

>  <dist>  (141) 
5.0

>  <ecfp4>  (141) 
0.258621

>  <daylight>  (141) 
0.549296

>  <topodist>  (141) 
2.0

>  <mces>  (141) 
15.0

>  <tdn>  (141) 
2.0

>  <tup>  (141) 
0.0

>  <rdn>  (141) 
0.0

>  <rup>  (141) 
0.0

>  <ldn>  (141) 
0.0

>  <lup>  (141) 
0.0

>  <mut>  (141) 
1.0

>  <maj>  (141) 
1.0

>  <min>  (141) 
0.0

>  <hyb>  (141) 
2.0

>  <sub>  (141) 
1.0

>  <query_index>  (141) 
55.0

>  <max_hit_Tanimoto>  (141) 
0.160932

>  <largest_ring>  (141) 
6

>  <N_interactions_kept>  (141) 
1.0

>  <N_interactions_lost>  (141) 
2.5

>  <interaction_uniqueness_metric>  (141) 
0.065384

>  <ad_hoc_penalty>  (141) 
-13.548826

>  <N_rotatable_bonds>  (141) 
3

>  <N_HA>  (141) 
14

>  <cluster>  (141) 
4904

>  <N_interactions>  (141) 
5

>  <Enamine>  (141) 
1

>  <Mcule>  (141) 
0

>  <N_PAINS>  (141) 
0

>  <UFF_Gibbs>  (141) 
35.408919

>  <strain_per_HA>  (141) 
2.529208

>  <intxn_scored>  (141) 
10.0

>  <saltbridge:HIS:51>  (141) 
0

>  <pistack:HIS:51>  (141) 
0

>  <hydroph_interaction:HIS:51>  (141) 
0

>  <hbond:ALA:132>  (141) 
0

>  <hbond:SER:135>  (141) 
0

>  <hydroph_interaction:TYR:150>  (141) 
1

>  <pistack:TYR:161>  (141) 
2

>  <hydroph_interaction:TYR:161>  (141) 
1

>  <hydroph_interaction:ASP:83>  (141) 
0

>  <hbond:TYR:130>  (141) 
0

>  <hydroph_interaction:ALA:132>  (141) 
1

>  <hbond:HIS:51>  (141) 
0

>  <hbond:ASP:129>  (141) 
0

>  <hbond:TYR:150>  (141) 
0

>  <hbond:GLY:151>  (141) 
0

>  <hbond:TYR:161>  (141) 
0

>  <hydroph_interaction:TYR:130>  (141) 
0

>  <hydroph_interaction:PRO:131>  (141) 
0

>  <hydroph_interaction:ASP:129>  (141) 
0

>  <saltbridge:ASP:75>  (141) 
0

>  <saltbridge:ASP:83>  (141) 
0

>  <hbond:ASN:152>  (141) 
0

>  <hydroph_interaction:ASN:152>  (141) 
0

>  <halogenbond:TYR:150>  (141) 
0

>  <hbond:ASP:83>  (141) 
0

>  <hydroph_interaction:VAL:155>  (141) 
0

>  <pication:TYR:161>  (141) 
0

>  <hbond:PRO:131>  (141) 
0

>  <saltbridge:ASP:129>  (141) 
0

>  <hbond:THR:134>  (141) 
0

>  <pication:HIS:51>  (141) 
0

>  <hbond:SER:81>  (141) 
0

>  <hydroph_interaction:THR:134>  (141) 
0

>  <hydroph_interaction:MET:49>  (141) 
0

$$$$
CSSS00016995108
     RDKit          3D

 18 18  0  0  0  0  0  0  0  0999 V2000
   -7.9630    4.1750  -13.7750 N   0  0  0  0  0  0  0  0  0  0  0  0
   -7.6720    5.3920  -14.5350 C   0  0  0  0  0  0  0  0  0  0  0  0
   -8.0120    5.2140  -16.0040 C   0  0  0  0  0  0  0  0  0  0  0  0
   -9.4780    4.9480  -16.2890 C   0  0  0  0  0  0  0  0  0  0  0  0
   -9.8680    4.7540  -17.7480 C   0  0  0  0  0  0  0  0  0  0  0  0
   -8.7560    4.8440  -18.7920 C   0  0  0  0  0  0  0  0  0  0  0  0
   -9.1130    4.6620  -20.0830 O   0  0  0  0  0  0  0  0  0  0  0  0
   -7.4380    5.1030  -18.3790 C   0  0  0  0  0  0  0  0  0  0  0  0
   -7.0730    5.2820  -17.0330 C   0  0  0  0  0  0  0  0  0  0  0  0
   -8.6800    3.6230  -14.2640 H   0  0  0  0  0  0  0  0  0  0  0  0
   -7.1340    3.5810  -13.7770 H   0  0  0  0  0  0  0  0  0  0  0  0
   -8.2210    6.2320  -14.0990 H   0  0  0  0  0  0  0  0  0  0  0  0
   -6.6090    5.6360  -14.4310 H   0  0  0  0  0  0  0  0  0  0  0  0
  -10.2210    4.8910  -15.4950 H   0  0  0  0  0  0  0  0  0  0  0  0
  -10.8960    4.5570  -18.0410 H   0  0  0  0  0  0  0  0  0  0  0  0
   -8.8630    5.4320  -20.6390 H   0  0  0  0  0  0  0  0  0  0  0  0
   -6.6530    5.1670  -19.1240 H   0  0  0  0  0  0  0  0  0  0  0  0
   -6.0220    5.4780  -16.7950 H   0  0  0  0  0  0  0  0  0  0  0  0
  1  2  1  0
  2  3  1  0
  3  4  2  0
  4  5  1  0
  5  6  2  0
  6  7  1  0
  6  8  1  0
  8  9  2  0
  9  3  1  0
  1 10  1  0
  1 11  1  0
  2 12  1  0
  2 13  1  0
  4 14  1  0
  5 15  1  0
  7 16  1  0
  8 17  1  0
  9 18  1  0
A    1
 N1 
A    2
 C1 
A    3
 C2 
A    4
 C3 
A    5
 C4 
A    6
 C5 
A    7
 O1 
A    8
 C6 
A    9
 C7 
A   10
 H1 
A   11
 H2 
A   12
 H3 
A   13
 H4 
A   14
 H5 
A   15
 H6 
A   16
 H7 
A   17
 H8 
A   18
 H9 
M  END
>  <ref_pdb>  (142) 
x0051_0B

>  <ref_mols>  (142) 
x0589_0B,x0386_0B

>  <original SMILES>  (142) 
[H]Oc1c([H])c([H])c(C([H])([H])N([H])[H])c([H])c1[H]

>  <index>  (142) 
2470

>  <∆∆G>  (142) 
-5.520309

>  <∆G_bound>  (142) 
-5.471955

>  <∆G_unbound>  (142) 
0.048355

>  <comRMSD>  (142) 
0.683856

>  <N_constrained_atoms>  (142) 
9.0

>  <N_unconstrained_atoms>  (142) 
2.0

>  <runtime>  (142) 
19.572983

>  <LE>  (142) 
0.501846

>  <percent_hybrid>  (142) 
34.0

>  <dist>  (142) 
2.0

>  <ecfp4>  (142) 
0.344828

>  <daylight>  (142) 
0.512821

>  <topodist>  (142) 
2.0

>  <mces>  (142) 
8.0

>  <tdn>  (142) 
1.0

>  <tup>  (142) 
1.0

>  <rdn>  (142) 
0.0

>  <rup>  (142) 
0.0

>  <ldn>  (142) 
0.0

>  <lup>  (142) 
0.0

>  <mut>  (142) 
0.0

>  <maj>  (142) 
0.0

>  <min>  (142) 
0.0

>  <hyb>  (142) 
0.0

>  <sub>  (142) 
2.0

>  <query_index>  (142) 
373.0

>  <max_hit_Tanimoto>  (142) 
0.096257

>  <largest_ring>  (142) 
6

>  <N_interactions_kept>  (142) 
0.0

>  <N_interactions_lost>  (142) 
2.0

>  <interaction_uniqueness_metric>  (142) 
0.089751

>  <ad_hoc_penalty>  (142) 
-5.761641

>  <N_rotatable_bonds>  (142) 
3

>  <N_HA>  (142) 
9

>  <cluster>  (142) 
3947

>  <N_interactions>  (142) 
4

>  <Enamine>  (142) 
1

>  <Mcule>  (142) 
0

>  <N_PAINS>  (142) 
0

>  <UFF_Gibbs>  (142) 
40.41506

>  <strain_per_HA>  (142) 
4.490562

>  <intxn_scored>  (142) 
10.0

>  <saltbridge:HIS:51>  (142) 
0

>  <pistack:HIS:51>  (142) 
0

>  <hydroph_interaction:HIS:51>  (142) 
0

>  <hbond:ALA:132>  (142) 
0

>  <hbond:SER:135>  (142) 
0

>  <hydroph_interaction:TYR:150>  (142) 
0

>  <pistack:TYR:161>  (142) 
1

>  <hydroph_interaction:TYR:161>  (142) 
0

>  <hydroph_interaction:ASP:83>  (142) 
0

>  <hbond:TYR:130>  (142) 
2

>  <hydroph_interaction:ALA:132>  (142) 
0

>  <hbond:HIS:51>  (142) 
0

>  <hbond:ASP:129>  (142) 
0

>  <hbond:TYR:150>  (142) 
0

>  <hbond:GLY:151>  (142) 
0

>  <hbond:TYR:161>  (142) 
1

>  <hydroph_interaction:TYR:130>  (142) 
0

>  <hydroph_interaction:PRO:131>  (142) 
0

>  <hydroph_interaction:ASP:129>  (142) 
0

>  <saltbridge:ASP:75>  (142) 
0

>  <saltbridge:ASP:83>  (142) 
0

>  <hbond:ASN:152>  (142) 
0

>  <hydroph_interaction:ASN:152>  (142) 
0

>  <halogenbond:TYR:150>  (142) 
0

>  <hbond:ASP:83>  (142) 
0

>  <hydroph_interaction:VAL:155>  (142) 
0

>  <pication:TYR:161>  (142) 
0

>  <hbond:PRO:131>  (142) 
0

>  <saltbridge:ASP:129>  (142) 
0

>  <hbond:THR:134>  (142) 
0

>  <pication:HIS:51>  (142) 
0

>  <hbond:SER:81>  (142) 
0

>  <hydroph_interaction:THR:134>  (142) 
0

>  <hydroph_interaction:MET:49>  (142) 
0

$$$$
PV-003983625965
     RDKit          3D

 49 52  0  0  0  0  0  0  0  0999 V2000
   -8.3710    8.2430  -14.1910 O   0  0  0  0  0  0  0  0  0  0  0  0
   -9.4750    7.3100  -14.0800 S   0  0  0  0  0  6  0  0  0  0  0  0
  -10.8450    7.7500  -14.1420 O   0  0  0  0  0  0  0  0  0  0  0  0
   -9.3220    6.0300  -15.1560 N   0  0  0  0  0  0  0  0  0  0  0  0
   -8.0820    6.0170  -15.8380 C   0  0  0  0  0  0  0  0  0  0  0  0
   -7.8230    5.5040  -17.1720 C   0  0  0  0  0  0  0  0  0  0  0  0
   -8.6890    4.8900  -18.0860 C   0  0  0  0  0  0  0  0  0  0  0  0
   -8.2650    4.8550  -19.4340 C   0  0  0  0  0  0  0  0  0  0  0  0
   -6.9370    5.4440  -19.6470 N   0  0  0  0  0  0  0  0  0  0  0  0
   -5.8630    5.4300  -18.6300 C   0  0  0  0  0  0  0  0  0  0  0  0
   -6.4930    5.7340  -17.4530 C   0  0  0  0  0  0  0  0  0  0  0  0
   -5.9020    6.3130  -16.4120 N   0  0  0  0  0  0  0  0  0  0  0  0
   -6.8680    6.4710  -15.4620 N   0  0  0  0  0  0  0  0  0  0  0  0
   -9.2450    6.4490  -12.5870 C   0  0  0  0  0  0  0  0  0  0  0  0
   -9.0870    7.1410  -11.3890 C   0  0  0  0  0  0  0  0  0  0  0  0
   -8.9410    6.4240  -10.2140 C   0  0  0  0  0  0  0  0  0  0  0  0
   -8.9560    5.0310  -10.2540 C   0  0  0  0  0  0  0  0  0  0  0  0
   -8.8550    4.3380   -9.0790 C   0  0  0  0  0  0  0  0  0  0  0  0
   -8.8750    2.9610   -9.2100 C   0  0  0  0  0  0  0  0  0  0  0  0
   -9.4490    2.3710   -7.9720 C   0  0  0  0  0  0  0  0  0  0  0  0
   -8.8720    2.9320   -6.8260 C   0  0  0  0  0  0  0  0  0  0  0  0
   -7.9680    4.1790   -6.9250 C   0  0  0  0  0  0  0  0  0  0  0  0
   -7.6700    4.6680   -8.1960 C   0  0  0  0  0  0  0  0  0  0  0  0
   -9.0940    4.3550  -11.4710 C   0  0  0  0  0  0  0  0  0  0  0  0
   -9.2400    5.0670  -12.6430 C   0  0  0  0  0  0  0  0  0  0  0  0
  -10.1580    5.7430  -15.6390 H   0  0  0  0  0  0  0  0  0  0  0  0
   -9.6650    5.3730  -18.0350 H   0  0  0  0  0  0  0  0  0  0  0  0
   -8.8710    3.8660  -17.7660 H   0  0  0  0  0  0  0  0  0  0  0  0
   -8.2550    3.8340  -19.8180 H   0  0  0  0  0  0  0  0  0  0  0  0
   -8.9870    5.4180  -20.0250 H   0  0  0  0  0  0  0  0  0  0  0  0
   -6.8830    6.0420  -20.4670 H   0  0  0  0  0  0  0  0  0  0  0  0
   -5.4410    4.4400  -18.5620 H   0  0  0  0  0  0  0  0  0  0  0  0
   -5.0670    6.0710  -18.9970 H   0  0  0  0  0  0  0  0  0  0  0  0
   -6.6320    6.9070  -14.5740 H   0  0  0  0  0  0  0  0  0  0  0  0
   -9.0880    8.2280  -11.3770 H   0  0  0  0  0  0  0  0  0  0  0  0
   -8.8260    6.9440   -9.2660 H   0  0  0  0  0  0  0  0  0  0  0  0
   -9.6260    4.6880   -8.4080 H   0  0  0  0  0  0  0  0  0  0  0  0
   -9.2740    2.5870  -10.1500 H   0  0  0  0  0  0  0  0  0  0  0  0
   -7.8300    2.6350   -9.2660 H   0  0  0  0  0  0  0  0  0  0  0  0
   -9.5340    1.2970   -7.9580 H   0  0  0  0  0  0  0  0  0  0  0  0
  -10.5010    2.6830   -7.9750 H   0  0  0  0  0  0  0  0  0  0  0  0
   -8.2830    2.1620   -6.3220 H   0  0  0  0  0  0  0  0  0  0  0  0
   -9.6850    3.1890   -6.1400 H   0  0  0  0  0  0  0  0  0  0  0  0
   -7.0060    4.0240   -6.4180 H   0  0  0  0  0  0  0  0  0  0  0  0
   -8.4590    4.9770   -6.3560 H   0  0  0  0  0  0  0  0  0  0  0  0
   -6.7460    4.1920   -8.5420 H   0  0  0  0  0  0  0  0  0  0  0  0
   -7.4950    5.7500   -8.1420 H   0  0  0  0  0  0  0  0  0  0  0  0
   -9.1010    3.2580  -11.5240 H   0  0  0  0  0  0  0  0  0  0  0  0
   -9.3570    4.5310  -13.5850 H   0  0  0  0  0  0  0  0  0  0  0  0
  1  2  2  0
  2  3  2  0
  2  4  1  0
  4  5  1  0
  5  6  2  0
  6  7  1  0
  7  8  1  0
  8  9  1  0
  9 10  1  0
 10 11  1  0
 11 12  2  0
 12 13  1  0
  2 14  1  0
 14 15  2  0
 15 16  1  0
 16 17  2  0
 17 18  1  0
 18 19  1  0
 19 20  1  0
 20 21  1  0
 21 22  1  0
 22 23  1  0
 17 24  1  0
 24 25  2  0
 13  5  1  0
 11  6  1  0
 25 14  1  0
 23 18  1  0
  4 26  1  0
  7 27  1  0
  7 28  1  0
  8 29  1  0
  8 30  1  0
  9 31  1  0
 10 32  1  0
 10 33  1  0
 13 34  1  0
 15 35  1  0
 16 36  1  0
 18 37  1  0
 19 38  1  0
 19 39  1  0
 20 40  1  0
 20 41  1  0
 21 42  1  0
 21 43  1  0
 22 44  1  0
 22 45  1  0
 23 46  1  0
 23 47  1  0
 24 48  1  0
 25 49  1  0
A    1
 O1 
A    2
 S1 
A    3
 O2 
A    4
 N1 
A    5
 C1 
A    6
 C2 
A    7
 C3 
A    8
 C4 
A    9
 N2 
A   10
 C5 
A   11
 C6 
A   12
 N3 
A   13
 N4 
A   14
 C7 
A   15
 C8 
A   16
 C9 
A   17
 C10
A   18
 C11
A   19
 C12
A   20
 C13
A   21
 C14
A   22
 C15
A   23
 C16
A   24
 C17
A   25
 C18
A   26
 H1 
A   27
 H2 
A   28
 H3 
A   29
 H4 
A   30
 H5 
A   31
 H6 
A   32
 H7 
A   33
 H8 
A   34
 H9 
A   35
 H10
A   36
 H11
A   37
 H12
A   38
 H13
A   39
 H14
A   40
 H15
A   41
 H16
A   42
 H17
A   43
 H18
A   44
 H19
A   45
 H20
A   46
 H21
A   47
 H22
A   48
 H23
A   49
 H24
M  END
>  <ref_pdb>  (143) 
x0051_0B

>  <ref_mols>  (143) 
x0969_0B,x0404_0B

>  <original SMILES>  (143) 
[H]c1c([H])c(S(=O)(=O)N([H])c2c3c(nn2[H])C([H])([H])N([H])C([H])([H])C3([H])[H])c([H])c([H])c1C1([H])C([H])([H])C([H])([H])C([H])([H])C([H])([H])C1([H])[H]

>  <index>  (143) 
624

>  <∆∆G>  (143) 
-5.694993

>  <∆G_bound>  (143) 
-4.985018

>  <∆G_unbound>  (143) 
0.709976

>  <comRMSD>  (143) 
0.993334

>  <N_constrained_atoms>  (143) 
26.0

>  <N_unconstrained_atoms>  (143) 
0.0

>  <runtime>  (143) 
71.269623

>  <LE>  (143) 
0.219038

>  <percent_hybrid>  (143) 
39.0

>  <dist>  (143) 
8.0

>  <ecfp4>  (143) 
0.2375

>  <daylight>  (143) 
0.225806

>  <topodist>  (143) 
1.0

>  <mces>  (143) 
28.0

>  <tdn>  (143) 
1.0

>  <tup>  (143) 
0.0

>  <rdn>  (143) 
0.0

>  <rup>  (143) 
0.0

>  <ldn>  (143) 
0.0

>  <lup>  (143) 
0.0

>  <mut>  (143) 
6.0

>  <maj>  (143) 
6.0

>  <min>  (143) 
0.0

>  <hyb>  (143) 
1.0

>  <sub>  (143) 
0.0

>  <query_index>  (143) 
33.0

>  <max_hit_Tanimoto>  (143) 
0.276113

>  <largest_ring>  (143) 
6

>  <N_interactions_kept>  (143) 
1.5

>  <N_interactions_lost>  (143) 
2.5

>  <interaction_uniqueness_metric>  (143) 
0.171996

>  <ad_hoc_penalty>  (143) 
-13.502425

>  <N_rotatable_bonds>  (143) 
4

>  <N_HA>  (143) 
25

>  <cluster>  (143) 
5649

>  <N_interactions>  (143) 
7

>  <Enamine>  (143) 
1

>  <Mcule>  (143) 
0

>  <N_PAINS>  (143) 
0

>  <UFF_Gibbs>  (143) 
262.464686

>  <strain_per_HA>  (143) 
10.498587

>  <intxn_scored>  (143) 
10.0

>  <saltbridge:HIS:51>  (143) 
0

>  <pistack:HIS:51>  (143) 
1

>  <hydroph_interaction:HIS:51>  (143) 
1

>  <hbond:ALA:132>  (143) 
0

>  <hbond:SER:135>  (143) 
0

>  <hydroph_interaction:TYR:150>  (143) 
0

>  <pistack:TYR:161>  (143) 
1

>  <hydroph_interaction:TYR:161>  (143) 
1

>  <hydroph_interaction:ASP:83>  (143) 
0

>  <hbond:TYR:130>  (143) 
1

>  <hydroph_interaction:ALA:132>  (143) 
1

>  <hbond:HIS:51>  (143) 
0

>  <hbond:ASP:129>  (143) 
0

>  <hbond:TYR:150>  (143) 
0

>  <hbond:GLY:151>  (143) 
1

>  <hbond:TYR:161>  (143) 
0

>  <hydroph_interaction:TYR:130>  (143) 
0

>  <hydroph_interaction:PRO:131>  (143) 
0

>  <hydroph_interaction:ASP:129>  (143) 
0

>  <saltbridge:ASP:75>  (143) 
0

>  <saltbridge:ASP:83>  (143) 
0

>  <hbond:ASN:152>  (143) 
0

>  <hydroph_interaction:ASN:152>  (143) 
0

>  <halogenbond:TYR:150>  (143) 
0

>  <hbond:ASP:83>  (143) 
0

>  <hydroph_interaction:VAL:155>  (143) 
0

>  <pication:TYR:161>  (143) 
0

>  <hbond:PRO:131>  (143) 
0

>  <saltbridge:ASP:129>  (143) 
0

>  <hbond:THR:134>  (143) 
0

>  <pication:HIS:51>  (143) 
0

>  <hbond:SER:81>  (143) 
0

>  <hydroph_interaction:THR:134>  (143) 
0

>  <hydroph_interaction:MET:49>  (143) 
0

$$$$
Z1494818160
     RDKit          3D

 45 48  0  0  0  0  0  0  0  0999 V2000
   -8.6470    7.2350  -12.2810 O   0  0  0  0  0  0  0  0  0  0  0  0
   -8.6220    6.0690  -11.8990 C   0  0  0  0  0  0  0  0  0  0  0  0
   -8.4830    5.0200  -12.7520 O   0  0  0  0  0  0  0  0  0  0  0  0
   -8.9560    5.3060  -14.0860 C   0  0  0  0  0  0  0  0  0  0  0  0
   -7.8030    5.4910  -15.0530 C   0  0  0  0  0  0  0  0  0  0  0  0
   -6.4920    5.0910  -14.9640 C   0  0  0  0  0  0  0  0  0  0  0  0
   -5.5380    5.7750  -15.9270 C   0  0  0  0  0  0  0  0  0  0  0  0
   -6.0570    5.6620  -17.3680 C   0  0  0  0  0  0  0  0  0  0  0  0
   -7.3980    5.3420  -17.5620 C   0  0  0  0  0  0  0  0  0  0  0  0
   -7.9490    5.0960  -18.9480 C   0  0  0  0  0  0  0  0  0  0  0  0
   -9.3390    4.7560  -19.2440 C   0  0  0  0  0  0  0  0  0  0  0  0
  -10.1800    4.6560  -18.1540 C   0  0  0  0  0  0  0  0  0  0  0  0
   -9.7380    4.8740  -16.7760 C   0  0  0  0  0  0  0  0  0  0  0  0
   -8.2860    5.2390  -16.4770 C   0  0  0  0  0  0  0  0  0  0  0  0
   -8.7480    5.7450  -10.4850 C   0  0  0  0  0  0  0  0  0  0  0  0
   -8.8880    4.5590   -9.7680 C   0  0  0  0  0  0  0  0  0  0  0  0
   -8.9500    3.1220  -10.2760 C   0  0  0  0  0  0  0  0  0  0  0  0
   -8.6650    2.2400   -9.0690 C   0  0  0  0  0  0  0  0  0  0  0  0
   -9.4980    2.5400   -7.8890 C   0  0  0  0  0  0  0  0  0  0  0  0
   -9.1290    3.9220   -7.3520 C   0  0  0  0  0  0  0  0  0  0  0  0
   -8.9650    4.8760   -8.4420 N   0  0  0  0  0  0  0  0  0  0  0  0
   -8.8770    6.1900   -8.2140 N   0  0  0  0  0  0  0  0  0  0  0  0
   -8.7500    6.7110   -9.4450 C   0  0  0  0  0  0  0  0  0  0  0  0
   -9.5670    6.2160  -14.0350 H   0  0  0  0  0  0  0  0  0  0  0  0
   -9.6730    4.5320  -14.3050 H   0  0  0  0  0  0  0  0  0  0  0  0
   -7.6730    6.5810  -15.0570 H   0  0  0  0  0  0  0  0  0  0  0  0
   -6.1550    5.4310  -13.9780 H   0  0  0  0  0  0  0  0  0  0  0  0
   -6.3560    4.0240  -14.8860 H   0  0  0  0  0  0  0  0  0  0  0  0
   -4.4900    5.5240  -15.7920 H   0  0  0  0  0  0  0  0  0  0  0  0
   -5.5730    6.8420  -15.6810 H   0  0  0  0  0  0  0  0  0  0  0  0
   -5.4420    4.9070  -17.8770 H   0  0  0  0  0  0  0  0  0  0  0  0
   -5.8750    6.6110  -17.8850 H   0  0  0  0  0  0  0  0  0  0  0  0
   -7.2710    5.1790  -19.7960 H   0  0  0  0  0  0  0  0  0  0  0  0
   -9.8090    4.5710  -20.2110 H   0  0  0  0  0  0  0  0  0  0  0  0
  -11.2330    4.4010  -18.3200 H   0  0  0  0  0  0  0  0  0  0  0  0
  -10.4550    4.7750  -15.9690 H   0  0  0  0  0  0  0  0  0  0  0  0
   -8.2090    2.9320  -11.0580 H   0  0  0  0  0  0  0  0  0  0  0  0
   -9.9470    2.9030  -10.6780 H   0  0  0  0  0  0  0  0  0  0  0  0
   -8.7570    1.2010   -9.3460 H   0  0  0  0  0  0  0  0  0  0  0  0
   -7.6160    2.3810   -8.7850 H   0  0  0  0  0  0  0  0  0  0  0  0
  -10.5580    2.5190   -8.1740 H   0  0  0  0  0  0  0  0  0  0  0  0
   -9.3540    1.7870   -7.1120 H   0  0  0  0  0  0  0  0  0  0  0  0
   -9.9090    4.2960   -6.6790 H   0  0  0  0  0  0  0  0  0  0  0  0
   -8.1750    3.8870   -6.8130 H   0  0  0  0  0  0  0  0  0  0  0  0
   -8.6630    7.7850   -9.5460 H   0  0  0  0  0  0  0  0  0  0  0  0
  1  2  2  0
  2  3  1  0
  3  4  1  0
  4  5  1  0
  5  6  1  0
  6  7  1  0
  7  8  1  0
  8  9  1  0
  9 10  2  0
 10 11  1  0
 11 12  2  0
 12 13  1  0
 13 14  2  0
  2 15  1  0
 15 16  2  0
 16 17  1  0
 17 18  1  0
 18 19  1  0
 19 20  1  0
 20 21  1  0
 21 22  1  0
 22 23  2  0
 14  5  1  0
 14  9  1  0
 23 15  1  0
 21 16  1  0
  4 24  1  0
  4 25  1  0
  5 26  1  0
  6 27  1  0
  6 28  1  0
  7 29  1  0
  7 30  1  0
  8 31  1  0
  8 32  1  0
 10 33  1  0
 11 34  1  0
 12 35  1  0
 13 36  1  0
 17 37  1  0
 17 38  1  0
 18 39  1  0
 18 40  1  0
 19 41  1  0
 19 42  1  0
 20 43  1  0
 20 44  1  0
 23 45  1  0
A    1
 O1 
A    2
 C1 
A    3
 O2 
A    4
 C2 
A    5
 C3 
A    6
 C4 
A    7
 C5 
A    8
 C6 
A    9
 C7 
A   10
 C8 
A   11
 C9 
A   12
 C10
A   13
 C11
A   14
 C12
A   15
 C13
A   16
 C14
A   17
 C15
A   18
 C16
A   19
 C17
A   20
 C18
A   21
 N1 
A   22
 N2 
A   23
 C19
A   24
 H1 
A   25
 H2 
A   26
 H3 
A   27
 H4 
A   28
 H5 
A   29
 H6 
A   30
 H7 
A   31
 H8 
A   32
 H9 
A   33
 H10
A   34
 H11
A   35
 H12
A   36
 H13
A   37
 H14
A   38
 H15
A   39
 H16
A   40
 H17
A   41
 H18
A   42
 H19
A   43
 H20
A   44
 H21
A   45
 H22
M  END
>  <ref_pdb>  (144) 
x0051_0B

>  <ref_mols>  (144) 
x0969_1B,x0455_0B

>  <original SMILES>  (144) 
[H]c1nn2c(c1C(=O)OC([H])([H])C1([H])c3c([H])c([H])c([H])c([H])c3C([H])([H])C([H])([H])C1([H])[H])C([H])([H])C([H])([H])C([H])([H])C2([H])[H]

>  <index>  (144) 
27

>  <∆∆G>  (144) 
-7.964527

>  <∆G_bound>  (144) 
-6.96366

>  <∆G_unbound>  (144) 
1.000867

>  <comRMSD>  (144) 
0.329246

>  <N_constrained_atoms>  (144) 
20.0

>  <N_unconstrained_atoms>  (144) 
3.0

>  <runtime>  (144) 
65.709287

>  <LE>  (144) 
0.346284

>  <percent_hybrid>  (144) 
50.0

>  <dist>  (144) 
5.0

>  <ecfp4>  (144) 
0.26506

>  <daylight>  (144) 
0.348214

>  <topodist>  (144) 
1.0

>  <mces>  (144) 
25.0

>  <tdn>  (144) 
0.0

>  <tup>  (144) 
1.0

>  <rdn>  (144) 
0.0

>  <rup>  (144) 
0.0

>  <ldn>  (144) 
0.0

>  <lup>  (144) 
0.0

>  <mut>  (144) 
3.0

>  <maj>  (144) 
3.0

>  <min>  (144) 
0.0

>  <hyb>  (144) 
1.0

>  <sub>  (144) 
0.0

>  <query_index>  (144) 
204.0

>  <max_hit_Tanimoto>  (144) 
0.30423

>  <largest_ring>  (144) 
0

>  <N_interactions_kept>  (144) 
1.0

>  <N_interactions_lost>  (144) 
1.5

>  <interaction_uniqueness_metric>  (144) 
0.276363

>  <ad_hoc_penalty>  (144) 
-38.654557

>  <N_rotatable_bonds>  (144) 
3

>  <N_HA>  (144) 
23

>  <cluster>  (144) 
6191

>  <N_interactions>  (144) 
7

>  <Enamine>  (144) 
1

>  <Mcule>  (144) 
0

>  <N_PAINS>  (144) 
0

>  <UFF_Gibbs>  (144) 
105.121892

>  <strain_per_HA>  (144) 
4.570517

>  <intxn_scored>  (144) 
10.0

>  <saltbridge:HIS:51>  (144) 
1

>  <pistack:HIS:51>  (144) 
1

>  <hydroph_interaction:HIS:51>  (144) 
1

>  <hbond:ALA:132>  (144) 
0

>  <hbond:SER:135>  (144) 
0

>  <hydroph_interaction:TYR:150>  (144) 
1

>  <pistack:TYR:161>  (144) 
1

>  <hydroph_interaction:TYR:161>  (144) 
1

>  <hydroph_interaction:ASP:83>  (144) 
1

>  <hbond:TYR:130>  (144) 
0

>  <hydroph_interaction:ALA:132>  (144) 
0

>  <hbond:HIS:51>  (144) 
0

>  <hbond:ASP:129>  (144) 
0

>  <hbond:TYR:150>  (144) 
0

>  <hbond:GLY:151>  (144) 
0

>  <hbond:TYR:161>  (144) 
0

>  <hydroph_interaction:TYR:130>  (144) 
0

>  <hydroph_interaction:PRO:131>  (144) 
0

>  <hydroph_interaction:ASP:129>  (144) 
0

>  <saltbridge:ASP:75>  (144) 
0

>  <saltbridge:ASP:83>  (144) 
0

>  <hbond:ASN:152>  (144) 
0

>  <hydroph_interaction:ASN:152>  (144) 
0

>  <halogenbond:TYR:150>  (144) 
0

>  <hbond:ASP:83>  (144) 
0

>  <hydroph_interaction:VAL:155>  (144) 
0

>  <pication:TYR:161>  (144) 
0

>  <hbond:PRO:131>  (144) 
0

>  <saltbridge:ASP:129>  (144) 
0

>  <hbond:THR:134>  (144) 
0

>  <pication:HIS:51>  (144) 
0

>  <hbond:SER:81>  (144) 
0

>  <hydroph_interaction:THR:134>  (144) 
0

>  <hydroph_interaction:MET:49>  (144) 
0

$$$$
Z5070940078
     RDKit          3D

 49 51  0  0  0  0  0  0  0  0999 V2000
   -2.3610    4.9800  -21.6300 C   0  0  0  0  0  0  0  0  0  0  0  0
   -3.7230    5.4310  -21.3950 N   0  0  0  0  0  0  0  0  0  0  0  0
   -4.6040    5.3140  -22.5280 C   0  0  0  0  0  0  0  0  0  0  0  0
   -4.1990    5.3700  -20.0960 C   0  0  0  0  0  0  0  0  0  0  0  0
   -3.4610    5.1020  -19.1480 O   0  0  0  0  0  0  0  0  0  0  0  0
   -5.6840    5.6200  -19.8410 C   0  0  0  0  0  0  0  0  0  0  0  0
   -5.9030    5.6950  -18.4360 O   0  0  0  0  0  0  0  0  0  0  0  0
   -7.1540    5.4160  -17.9550 C   0  0  0  0  0  0  0  0  0  0  0  0
   -8.0520    4.9520  -18.9210 C   0  0  0  0  0  0  0  0  0  0  0  0
   -9.3460    4.6340  -18.5600 C   0  0  0  0  0  0  0  0  0  0  0  0
   -9.7550    4.7790  -17.2360 C   0  0  0  0  0  0  0  0  0  0  0  0
   -8.8910    5.2490  -16.2210 C   0  0  0  0  0  0  0  0  0  0  0  0
   -9.4570    5.3960  -14.7770 C   0  0  0  0  0  0  0  0  0  0  0  0
   -8.6520    5.0630  -13.5670 N   0  0  0  0  0  0  0  0  0  0  0  0
   -8.6330    5.9780  -12.4780 C   0  0  0  0  0  0  0  0  0  0  0  0
   -8.5290    7.1690  -12.7600 O   0  0  0  0  0  0  0  0  0  0  0  0
   -8.7360    5.6050  -11.0110 C   0  0  0  0  0  0  0  0  0  0  0  0
   -8.8860    4.4210  -10.2540 C   0  0  0  0  0  0  0  0  0  0  0  0
   -9.0150    2.9680  -10.5260 C   0  0  0  0  0  0  0  0  0  0  0  0
   -8.5770    2.2010   -9.2780 C   0  0  0  0  0  0  0  0  0  0  0  0
   -9.4060    2.6130   -8.0690 C   0  0  0  0  0  0  0  0  0  0  0  0
   -9.0430    4.0490   -7.7250 C   0  0  0  0  0  0  0  0  0  0  0  0
   -8.9050    4.8570   -8.9310 N   0  0  0  0  0  0  0  0  0  0  0  0
   -8.7760    6.1750   -8.8410 N   0  0  0  0  0  0  0  0  0  0  0  0
   -8.6750    6.6380  -10.0790 N   0  0  0  0  0  0  0  0  0  0  0  0
   -7.5700    5.5640  -16.6110 C   0  0  0  0  0  0  0  0  0  0  0  0
   -1.7170    5.3140  -20.8110 H   0  0  0  0  0  0  0  0  0  0  0  0
   -2.3620    3.8880  -21.6740 H   0  0  0  0  0  0  0  0  0  0  0  0
   -1.9620    5.3710  -22.5730 H   0  0  0  0  0  0  0  0  0  0  0  0
   -5.2730    4.4640  -22.3690 H   0  0  0  0  0  0  0  0  0  0  0  0
   -5.2210    6.2040  -22.6670 H   0  0  0  0  0  0  0  0  0  0  0  0
   -3.9840    5.1530  -23.4130 H   0  0  0  0  0  0  0  0  0  0  0  0
   -5.9470    6.5720  -20.3170 H   0  0  0  0  0  0  0  0  0  0  0  0
   -6.2550    4.8060  -20.3090 H   0  0  0  0  0  0  0  0  0  0  0  0
   -7.7400    4.8380  -19.9580 H   0  0  0  0  0  0  0  0  0  0  0  0
  -10.0380    4.2730  -19.3070 H   0  0  0  0  0  0  0  0  0  0  0  0
  -10.7690    4.5240  -16.9910 H   0  0  0  0  0  0  0  0  0  0  0  0
   -9.8080    6.4290  -14.6570 H   0  0  0  0  0  0  0  0  0  0  0  0
  -10.3650    4.7900  -14.6980 H   0  0  0  0  0  0  0  0  0  0  0  0
   -8.4330    4.0920  -13.3900 H   0  0  0  0  0  0  0  0  0  0  0  0
   -8.3790    2.6930  -11.3770 H   0  0  0  0  0  0  0  0  0  0  0  0
  -10.0450    2.6990  -10.7780 H   0  0  0  0  0  0  0  0  0  0  0  0
   -8.6540    1.1410   -9.4520 H   0  0  0  0  0  0  0  0  0  0  0  0
   -7.5200    2.4100   -9.0750 H   0  0  0  0  0  0  0  0  0  0  0  0
   -9.1840    1.9540   -7.2210 H   0  0  0  0  0  0  0  0  0  0  0  0
  -10.4750    2.5330   -8.2810 H   0  0  0  0  0  0  0  0  0  0  0  0
   -8.0950    4.0830   -7.1790 H   0  0  0  0  0  0  0  0  0  0  0  0
   -9.8220    4.5120   -7.1140 H   0  0  0  0  0  0  0  0  0  0  0  0
   -6.8850    5.9260  -15.8490 H   0  0  0  0  0  0  0  0  0  0  0  0
  1  2  1  0
  2  3  1  0
  2  4  1  0
  4  5  2  0
  4  6  1  0
  6  7  1  0
  7  8  1  0
  8  9  2  0
  9 10  1  0
 10 11  2  0
 11 12  1  0
 12 13  1  0
 13 14  1  0
 14 15  1  0
 15 16  2  0
 15 17  1  0
 17 18  2  0
 18 19  1  0
 19 20  1  0
 20 21  1  0
 21 22  1  0
 22 23  1  0
 23 24  1  0
 24 25  2  0
 12 26  2  0
 26  8  1  0
 25 17  1  0
 23 18  1  0
  1 27  1  0
  1 28  1  0
  1 29  1  0
  3 30  1  0
  3 31  1  0
  3 32  1  0
  6 33  1  0
  6 34  1  0
  9 35  1  0
 10 36  1  0
 11 37  1  0
 13 38  1  0
 13 39  1  0
 14 40  1  0
 19 41  1  0
 19 42  1  0
 20 43  1  0
 20 44  1  0
 21 45  1  0
 21 46  1  0
 22 47  1  0
 22 48  1  0
 26 49  1  0
A    1
 C1 
A    2
 N1 
A    3
 C2 
A    4
 C3 
A    5
 O1 
A    6
 C4 
A    7
 O2 
A    8
 C5 
A    9
 C6 
A   10
 C7 
A   11
 C8 
A   12
 C9 
A   13
 C10
A   14
 N2 
A   15
 C11
A   16
 O3 
A   17
 C12
A   18
 C13
A   19
 C14
A   20
 C15
A   21
 C16
A   22
 C17
A   23
 N3 
A   24
 N4 
A   25
 N5 
A   26
 C18
A   27
 H1 
A   28
 H2 
A   29
 H3 
A   30
 H4 
A   31
 H5 
A   32
 H6 
A   33
 H7 
A   34
 H8 
A   35
 H9 
A   36
 H10
A   37
 H11
A   38
 H12
A   39
 H13
A   40
 H14
A   41
 H15
A   42
 H16
A   43
 H17
A   44
 H18
A   45
 H19
A   46
 H20
A   47
 H21
A   48
 H22
A   49
 H23
M  END
>  <ref_pdb>  (145) 
x0051_0B

>  <ref_mols>  (145) 
x0969_1B,x0904_0B

>  <original SMILES>  (145) 
[H]c1c([H])c(OC([H])([H])C(=O)N(C([H])([H])[H])C([H])([H])[H])c([H])c(C([H])([H])N([H])C(=O)c2nnn3c2C([H])([H])C([H])([H])C([H])([H])C3([H])[H])c1[H]

>  <index>  (145) 
885

>  <∆∆G>  (145) 
-9.170321

>  <∆G_bound>  (145) 
-8.85905

>  <∆G_unbound>  (145) 
0.311272

>  <comRMSD>  (145) 
0.537135

>  <N_constrained_atoms>  (145) 
24.0

>  <N_unconstrained_atoms>  (145) 
2.0

>  <runtime>  (145) 
61.434887

>  <LE>  (145) 
0.352705

>  <percent_hybrid>  (145) 
42.0

>  <dist>  (145) 
6.0

>  <ecfp4>  (145) 
0.415584

>  <daylight>  (145) 
0.312693

>  <topodist>  (145) 
2.0

>  <mces>  (145) 
27.0

>  <tdn>  (145) 
0.0

>  <tup>  (145) 
1.0

>  <rdn>  (145) 
0.0

>  <rup>  (145) 
0.0

>  <ldn>  (145) 
1.0

>  <lup>  (145) 
0.0

>  <mut>  (145) 
3.0

>  <maj>  (145) 
3.0

>  <min>  (145) 
0.0

>  <hyb>  (145) 
1.0

>  <sub>  (145) 
0.0

>  <query_index>  (145) 
111.0

>  <max_hit_Tanimoto>  (145) 
0.245415

>  <largest_ring>  (145) 
6

>  <N_interactions_kept>  (145) 
1.5

>  <N_interactions_lost>  (145) 
2.0

>  <interaction_uniqueness_metric>  (145) 
0.205432

>  <ad_hoc_penalty>  (145) 
-15.525487

>  <N_rotatable_bonds>  (145) 
8

>  <N_HA>  (145) 
26

>  <cluster>  (145) 
5409

>  <N_interactions>  (145) 
6

>  <Enamine>  (145) 
1

>  <Mcule>  (145) 
0

>  <N_PAINS>  (145) 
0

>  <UFF_Gibbs>  (145) 
159.62793

>  <strain_per_HA>  (145) 
6.139536

>  <intxn_scored>  (145) 
10.0

>  <saltbridge:HIS:51>  (145) 
0

>  <pistack:HIS:51>  (145) 
1

>  <hydroph_interaction:HIS:51>  (145) 
0

>  <hbond:ALA:132>  (145) 
0

>  <hbond:SER:135>  (145) 
0

>  <hydroph_interaction:TYR:150>  (145) 
1

>  <pistack:TYR:161>  (145) 
1

>  <hydroph_interaction:TYR:161>  (145) 
0

>  <hydroph_interaction:ASP:83>  (145) 
1

>  <hbond:TYR:130>  (145) 
0

>  <hydroph_interaction:ALA:132>  (145) 
1

>  <hbond:HIS:51>  (145) 
0

>  <hbond:ASP:129>  (145) 
0

>  <hbond:TYR:150>  (145) 
0

>  <hbond:GLY:151>  (145) 
0

>  <hbond:TYR:161>  (145) 
1

>  <hydroph_interaction:TYR:130>  (145) 
0

>  <hydroph_interaction:PRO:131>  (145) 
0

>  <hydroph_interaction:ASP:129>  (145) 
0

>  <saltbridge:ASP:75>  (145) 
0

>  <saltbridge:ASP:83>  (145) 
0

>  <hbond:ASN:152>  (145) 
0

>  <hydroph_interaction:ASN:152>  (145) 
0

>  <halogenbond:TYR:150>  (145) 
0

>  <hbond:ASP:83>  (145) 
0

>  <hydroph_interaction:VAL:155>  (145) 
0

>  <pication:TYR:161>  (145) 
0

>  <hbond:PRO:131>  (145) 
0

>  <saltbridge:ASP:129>  (145) 
0

>  <hbond:THR:134>  (145) 
0

>  <pication:HIS:51>  (145) 
0

>  <hbond:SER:81>  (145) 
0

>  <hydroph_interaction:THR:134>  (145) 
0

>  <hydroph_interaction:MET:49>  (145) 
0

$$$$
Z1559041409
     RDKit          3D

 51 54  0  0  0  0  0  0  0  0999 V2000
   -2.9270    4.9250  -17.6020 C   0  0  0  0  0  0  0  0  0  0  0  0
   -4.2320    5.1490  -18.0140 C   0  0  0  0  0  0  0  0  0  0  0  0
   -4.5500    5.2050  -19.3180 N   0  0  0  0  0  0  0  0  0  0  0  0
   -5.9240    5.4360  -19.2940 N   0  0  0  0  0  0  0  0  0  0  0  0
   -6.3110    5.5110  -18.0130 C   0  0  0  0  0  0  0  0  0  0  0  0
   -7.6120    5.7700  -17.5930 C   0  0  0  0  0  0  0  0  0  0  0  0
   -8.3880    5.1160  -18.5900 C   0  0  0  0  0  0  0  0  0  0  0  0
   -9.6740    4.7280  -18.0410 C   0  0  0  0  0  0  0  0  0  0  0  0
   -9.7160    5.1650  -16.6180 C   0  0  0  0  0  0  0  0  0  0  0  0
   -8.3020    5.4850  -16.2850 N   0  0  0  0  0  0  0  0  0  0  0  0
   -8.2800    6.6320  -14.9450 S   0  0  0  0  0  6  0  0  0  0  0  0
   -9.5210    7.3590  -14.8510 O   0  0  0  0  0  0  0  0  0  0  0  0
   -7.0620    7.3690  -15.0070 O   0  0  0  0  0  0  0  0  0  0  0  0
   -8.4330    5.9700  -13.2910 C   0  0  0  0  0  0  0  0  0  0  0  0
   -8.3940    6.9620  -12.1120 C   0  0  0  0  0  0  0  0  0  0  0  0
   -8.5560    6.2400  -10.8110 C   0  0  0  0  0  0  0  0  0  0  0  0
   -8.7280    4.8040  -10.6510 C   0  0  0  0  0  0  0  0  0  0  0  0
   -8.8890    4.2620   -9.2560 C   0  0  0  0  0  0  0  0  0  0  0  0
   -9.0050    2.7660   -9.2490 C   0  0  0  0  0  0  0  0  0  0  0  0
   -9.6330    2.4230   -7.9250 C   0  0  0  0  0  0  0  0  0  0  0  0
   -9.0160    3.0600   -6.8200 C   0  0  0  0  0  0  0  0  0  0  0  0
   -8.4040    4.3280   -6.8840 C   0  0  0  0  0  0  0  0  0  0  0  0
   -7.8530    4.7020   -8.2470 C   0  0  0  0  0  0  0  0  0  0  0  0
   -8.7450    4.0160  -11.8060 C   0  0  0  0  0  0  0  0  0  0  0  0
   -8.6000    4.5910  -13.0860 C   0  0  0  0  0  0  0  0  0  0  0  0
   -5.2720    5.3260  -17.1350 O   0  0  0  0  0  0  0  0  0  0  0  0
   -2.3880    5.8020  -17.2330 H   0  0  0  0  0  0  0  0  0  0  0  0
   -2.2300    4.4650  -18.3070 H   0  0  0  0  0  0  0  0  0  0  0  0
   -2.9780    4.2230  -16.7650 H   0  0  0  0  0  0  0  0  0  0  0  0
   -7.7160    6.8190  -17.6250 H   0  0  0  0  0  0  0  0  0  0  0  0
   -8.5720    5.8070  -19.4190 H   0  0  0  0  0  0  0  0  0  0  0  0
   -7.8320    4.3380  -19.0850 H   0  0  0  0  0  0  0  0  0  0  0  0
  -10.4840    5.2130  -18.6010 H   0  0  0  0  0  0  0  0  0  0  0  0
   -9.8090    3.6630  -18.1540 H   0  0  0  0  0  0  0  0  0  0  0  0
  -10.3050    6.0760  -16.5480 H   0  0  0  0  0  0  0  0  0  0  0  0
  -10.1450    4.4230  -15.9630 H   0  0  0  0  0  0  0  0  0  0  0  0
   -8.2680    8.0450  -12.2110 H   0  0  0  0  0  0  0  0  0  0  0  0
   -8.5480    6.8390   -9.8950 H   0  0  0  0  0  0  0  0  0  0  0  0
   -9.8070    4.6610   -8.8580 H   0  0  0  0  0  0  0  0  0  0  0  0
   -9.6670    2.4350  -10.0640 H   0  0  0  0  0  0  0  0  0  0  0  0
   -8.0370    2.2680   -9.3790 H   0  0  0  0  0  0  0  0  0  0  0  0
   -9.6080    1.3470   -7.7790 H   0  0  0  0  0  0  0  0  0  0  0  0
  -10.6950    2.6890   -7.9340 H   0  0  0  0  0  0  0  0  0  0  0  0
   -8.2930    2.3510   -6.4000 H   0  0  0  0  0  0  0  0  0  0  0  0
   -9.7830    3.1700   -6.0710 H   0  0  0  0  0  0  0  0  0  0  0  0
   -7.5900    4.3530   -6.1630 H   0  0  0  0  0  0  0  0  0  0  0  0
   -9.1230    5.0890   -6.5530 H   0  0  0  0  0  0  0  0  0  0  0  0
   -7.6820    5.7840   -8.3160 H   0  0  0  0  0  0  0  0  0  0  0  0
   -6.8830    4.2090   -8.4020 H   0  0  0  0  0  0  0  0  0  0  0  0
   -8.8730    2.9370  -11.7330 H   0  0  0  0  0  0  0  0  0  0  0  0
   -8.6210    3.9320  -13.9440 H   0  0  0  0  0  0  0  0  0  0  0  0
  1  2  1  0
  2  3  2  0
  3  4  1  0
  4  5  2  0
  5  6  1  0
  6  7  1  0
  7  8  1  0
  8  9  1  0
  9 10  1  0
 10 11  1  0
 11 12  2  0
 11 13  2  0
 11 14  1  0
 14 15  2  0
 15 16  1  0
 16 17  2  0
 17 18  1  0
 18 19  1  0
 19 20  1  0
 20 21  1  0
 21 22  1  0
 22 23  1  0
 17 24  1  0
 24 25  2  0
  5 26  1  0
 26  2  1  0
 10  6  1  0
 25 14  1  0
 23 18  1  0
  1 27  1  0
  1 28  1  0
  1 29  1  0
  6 30  1  0
  7 31  1  0
  7 32  1  0
  8 33  1  0
  8 34  1  0
  9 35  1  0
  9 36  1  0
 15 37  1  0
 16 38  1  0
 18 39  1  0
 19 40  1  0
 19 41  1  0
 20 42  1  0
 20 43  1  0
 21 44  1  0
 21 45  1  0
 22 46  1  0
 22 47  1  0
 23 48  1  0
 23 49  1  0
 24 50  1  0
 25 51  1  0
A    1
 C1 
A    2
 C2 
A    3
 N1 
A    4
 N2 
A    5
 C3 
A    6
 C4 
A    7
 C5 
A    8
 C6 
A    9
 C7 
A   10
 N3 
A   11
 S1 
A   12
 O1 
A   13
 O2 
A   14
 C8 
A   15
 C9 
A   16
 C10
A   17
 C11
A   18
 C12
A   19
 C13
A   20
 C14
A   21
 C15
A   22
 C16
A   23
 C17
A   24
 C18
A   25
 C19
A   26
 O3 
A   27
 H1 
A   28
 H2 
A   29
 H3 
A   30
 H4 
A   31
 H5 
A   32
 H6 
A   33
 H7 
A   34
 H8 
A   35
 H9 
A   36
 H10
A   37
 H11
A   38
 H12
A   39
 H13
A   40
 H14
A   41
 H15
A   42
 H16
A   43
 H17
A   44
 H18
A   45
 H19
A   46
 H20
A   47
 H21
A   48
 H22
A   49
 H23
A   50
 H24
A   51
 H25
M  END
>  <ref_pdb>  (146) 
x0051_0B

>  <ref_mols>  (146) 
x0404_0B,x0422_0B

>  <original SMILES>  (146) 
[H]c1c([H])c(S(=O)(=O)N2C([H])([H])C([H])([H])C([H])([H])C2([H])c2nnc(C([H])([H])[H])o2)c([H])c([H])c1C1([H])C([H])([H])C([H])([H])C([H])([H])C([H])([H])C1([H])[H]

>  <index>  (146) 
1607

>  <∆∆G>  (146) 
-5.959308

>  <∆G_bound>  (146) 
-4.869027

>  <∆G_unbound>  (146) 
1.09028

>  <comRMSD>  (146) 
0.983123

>  <N_constrained_atoms>  (146) 
26.0

>  <N_unconstrained_atoms>  (146) 
1.0

>  <runtime>  (146) 
69.383977

>  <LE>  (146) 
0.220715

>  <percent_hybrid>  (146) 
43.0

>  <dist>  (146) 
8.0

>  <ecfp4>  (146) 
0.223529

>  <daylight>  (146) 
0.230496

>  <topodist>  (146) 
2.0

>  <mces>  (146) 
29.0

>  <tdn>  (146) 
0.0

>  <tup>  (146) 
0.0

>  <rdn>  (146) 
0.0

>  <rup>  (146) 
0.0

>  <ldn>  (146) 
2.0

>  <lup>  (146) 
0.0

>  <mut>  (146) 
6.0

>  <maj>  (146) 
6.0

>  <min>  (146) 
0.0

>  <hyb>  (146) 
0.0

>  <sub>  (146) 
0.0

>  <query_index>  (146) 
324.0

>  <max_hit_Tanimoto>  (146) 
0.17138

>  <largest_ring>  (146) 
6

>  <N_interactions_kept>  (146) 
2.0

>  <N_interactions_lost>  (146) 
3.5

>  <interaction_uniqueness_metric>  (146) 
0.143802

>  <ad_hoc_penalty>  (146) 
-8.789358

>  <N_rotatable_bonds>  (146) 
5

>  <N_HA>  (146) 
26

>  <cluster>  (146) 
4742

>  <N_interactions>  (146) 
8

>  <Enamine>  (146) 
1

>  <Mcule>  (146) 
0

>  <N_PAINS>  (146) 
0

>  <UFF_Gibbs>  (146) 
177.735722

>  <strain_per_HA>  (146) 
6.835989

>  <intxn_scored>  (146) 
10.0

>  <saltbridge:HIS:51>  (146) 
0

>  <pistack:HIS:51>  (146) 
1

>  <hydroph_interaction:HIS:51>  (146) 
1

>  <hbond:ALA:132>  (146) 
0

>  <hbond:SER:135>  (146) 
0

>  <hydroph_interaction:TYR:150>  (146) 
1

>  <pistack:TYR:161>  (146) 
1

>  <hydroph_interaction:TYR:161>  (146) 
3

>  <hydroph_interaction:ASP:83>  (146) 
0

>  <hbond:TYR:130>  (146) 
0

>  <hydroph_interaction:ALA:132>  (146) 
0

>  <hbond:HIS:51>  (146) 
0

>  <hbond:ASP:129>  (146) 
0

>  <hbond:TYR:150>  (146) 
0

>  <hbond:GLY:151>  (146) 
0

>  <hbond:TYR:161>  (146) 
0

>  <hydroph_interaction:TYR:130>  (146) 
0

>  <hydroph_interaction:PRO:131>  (146) 
0

>  <hydroph_interaction:ASP:129>  (146) 
0

>  <saltbridge:ASP:75>  (146) 
0

>  <saltbridge:ASP:83>  (146) 
0

>  <hbond:ASN:152>  (146) 
0

>  <hydroph_interaction:ASN:152>  (146) 
0

>  <halogenbond:TYR:150>  (146) 
0

>  <hbond:ASP:83>  (146) 
0

>  <hydroph_interaction:VAL:155>  (146) 
1

>  <pication:TYR:161>  (146) 
0

>  <hbond:PRO:131>  (146) 
0

>  <saltbridge:ASP:129>  (146) 
0

>  <hbond:THR:134>  (146) 
0

>  <pication:HIS:51>  (146) 
0

>  <hbond:SER:81>  (146) 
0

>  <hydroph_interaction:THR:134>  (146) 
0

>  <hydroph_interaction:MET:49>  (146) 
0

$$$$
Z2090267504
     RDKit          3D

 52 55  0  0  0  0  0  0  0  0999 V2000
  -10.7230    5.0210  -18.7080 C   0  0  0  0  0  0  0  0  0  0  0  0
   -9.4180    4.7000  -18.4290 N   0  0  0  0  0  0  0  0  0  0  0  0
   -8.8620    5.0350  -17.1330 C   0  0  0  0  0  0  0  0  0  0  0  0
   -9.3620    4.6660  -16.1070 O   0  0  0  0  0  0  0  0  0  0  0  0
   -7.7480    5.8120  -17.1940 N   0  0  0  0  0  0  0  0  0  0  0  0
   -6.6440    5.6560  -18.0200 C   0  0  0  0  0  0  0  0  0  0  0  0
   -6.7760    5.6280  -19.5160 C   0  0  0  0  0  0  0  0  0  0  0  0
   -5.5030    5.4720  -20.2280 C   0  0  0  0  0  0  0  0  0  0  0  0
   -5.6630    5.4740  -21.5930 N   0  0  0  0  0  0  0  0  0  0  0  0
   -4.7550    6.1160  -22.3560 C   0  0  0  0  0  0  0  0  0  0  0  0
   -3.6490    5.7190  -22.6990 O   0  0  0  0  0  0  0  0  0  0  0  0
   -5.1190    7.3410  -22.7700 C   0  0  0  0  0  0  0  0  0  0  0  0
   -6.0040    7.2970  -23.8670 C   0  0  0  0  0  0  0  0  0  0  0  0
   -6.4350    8.5970  -24.4270 C   0  0  0  0  0  0  0  0  0  0  0  0
   -5.9710    9.8760  -23.8770 C   0  0  0  0  0  0  0  0  0  0  0  0
   -6.5250   11.3360  -24.6740 S   0  0  0  0  0  0  0  0  0  0  0  0
   -6.2720   10.6990  -26.3250 C   0  0  0  0  0  0  0  0  0  0  0  0
   -7.3900    9.8620  -26.8860 C   0  0  0  0  0  0  0  0  0  0  0  0
   -7.3660    8.5620  -27.2200 N   0  0  0  0  0  0  0  0  0  0  0  0
   -8.6320    8.2440  -27.6490 C   0  0  0  0  0  0  0  0  0  0  0  0
   -9.1920    7.0290  -28.1050 C   0  0  0  0  0  0  0  0  0  0  0  0
  -10.6540    6.8840  -28.5280 C   0  0  0  0  0  0  0  0  0  0  0  0
  -11.5200    8.1530  -28.4360 C   0  0  0  0  0  0  0  0  0  0  0  0
  -10.9230    9.4500  -27.9570 C   0  0  0  0  0  0  0  0  0  0  0  0
   -9.4660    9.5140  -27.5550 C   0  0  0  0  0  0  0  0  0  0  0  0
   -8.6170   10.4500  -27.0900 N   0  0  0  0  0  0  0  0  0  0  0  0
   -5.1110    9.8830  -22.7720 C   0  0  0  0  0  0  0  0  0  0  0  0
   -4.6570    8.5390  -22.1810 C   0  0  0  0  0  0  0  0  0  0  0  0
   -4.2790    5.3520  -19.5540 C   0  0  0  0  0  0  0  0  0  0  0  0
   -4.2230    5.3780  -18.1640 C   0  0  0  0  0  0  0  0  0  0  0  0
   -5.3950    5.5310  -17.4170 C   0  0  0  0  0  0  0  0  0  0  0  0
   -5.3130    5.5630  -16.0760 F   0  0  0  0  0  0  0  0  0  0  0  0
  -11.0770    5.7570  -18.0030 H   0  0  0  0  0  0  0  0  0  0  0  0
  -11.3470    4.1410  -18.6300 H   0  0  0  0  0  0  0  0  0  0  0  0
  -10.8100    5.4390  -19.7170 H   0  0  0  0  0  0  0  0  0  0  0  0
   -9.2730    3.7070  -18.6110 H   0  0  0  0  0  0  0  0  0  0  0  0
   -7.5780    6.3870  -16.3800 H   0  0  0  0  0  0  0  0  0  0  0  0
   -7.7320    5.7230  -20.0240 H   0  0  0  0  0  0  0  0  0  0  0  0
   -6.6440    5.6630  -21.8560 H   0  0  0  0  0  0  0  0  0  0  0  0
   -6.3350    6.3400  -24.2720 H   0  0  0  0  0  0  0  0  0  0  0  0
   -7.1130    8.6290  -25.2790 H   0  0  0  0  0  0  0  0  0  0  0  0
   -5.3290   10.1430  -26.3630 H   0  0  0  0  0  0  0  0  0  0  0  0
   -6.1400   11.5710  -26.9760 H   0  0  0  0  0  0  0  0  0  0  0  0
   -8.5180    6.1720  -28.1420 H   0  0  0  0  0  0  0  0  0  0  0  0
  -11.0550    5.9340  -28.8730 H   0  0  0  0  0  0  0  0  0  0  0  0
  -12.5720    8.1180  -28.7200 H   0  0  0  0  0  0  0  0  0  0  0  0
  -11.5570   10.3410  -27.9010 H   0  0  0  0  0  0  0  0  0  0  0  0
   -8.8500   11.4150  -26.9090 H   0  0  0  0  0  0  0  0  0  0  0  0
   -4.7560   10.8170  -22.3360 H   0  0  0  0  0  0  0  0  0  0  0  0
   -3.9820    8.5140  -21.3280 H   0  0  0  0  0  0  0  0  0  0  0  0
   -3.3440    5.2370  -20.0940 H   0  0  0  0  0  0  0  0  0  0  0  0
   -3.2690    5.2820  -17.6530 H   0  0  0  0  0  0  0  0  0  0  0  0
  1  2  1  0
  2  3  1  0
  3  4  2  0
  3  5  1  0
  5  6  1  0
  6  7  2  0
  7  8  1  0
  8  9  1  0
  9 10  1  0
 10 11  2  0
 10 12  1  0
 12 13  2  0
 13 14  1  0
 14 15  2  0
 15 16  1  0
 16 17  1  0
 17 18  1  0
 18 19  2  0
 19 20  1  0
 20 21  2  0
 21 22  1  0
 22 23  2  0
 23 24  1  0
 24 25  2  0
 25 26  1  0
 15 27  1  0
 27 28  2  0
  8 29  2  0
 29 30  1  0
 30 31  2  0
 31 32  1  0
 31  6  1  0
 28 12  1  0
 26 18  1  0
 25 20  1  0
  1 33  1  0
  1 34  1  0
  1 35  1  0
  2 36  1  0
  5 37  1  0
  7 38  1  0
  9 39  1  0
 13 40  1  0
 14 41  1  0
 17 42  1  0
 17 43  1  0
 21 44  1  0
 22 45  1  0
 23 46  1  0
 24 47  1  0
 26 48  1  0
 27 49  1  0
 28 50  1  0
 29 51  1  0
 30 52  1  0
A    1
 C1 
A    2
 N1 
A    3
 C2 
A    4
 O1 
A    5
 N2 
A    6
 C3 
A    7
 C4 
A    8
 C5 
A    9
 N3 
A   10
 C6 
A   11
 O2 
A   12
 C7 
A   13
 C8 
A   14
 C9 
A   15
 C10
A   16
 S1 
A   17
 C11
A   18
 C12
A   19
 N4 
A   20
 C13
A   21
 C14
A   22
 C15
A   23
 C16
A   24
 C17
A   25
 C18
A   26
 N5 
A   27
 C19
A   28
 C20
A   29
 C21
A   30
 C22
A   31
 C23
A   32
 F1 
A   33
 H1 
A   34
 H2 
A   35
 H3 
A   36
 H4 
A   37
 H5 
A   38
 H6 
A   39
 H7 
A   40
 H8 
A   41
 H9 
A   42
 H10
A   43
 H11
A   44
 H12
A   45
 H13
A   46
 H14
A   47
 H15
A   48
 H16
A   49
 H17
A   50
 H18
A   51
 H19
A   52
 H20
M  END
>  <ref_pdb>  (147) 
x0051_0B

>  <ref_mols>  (147) 
x0846_1B,x0680_0B

>  <original SMILES>  (147) 
[H]c1c([H])c(N([H])C(=O)c2c([H])c([H])c(SC([H])([H])c3nc4c([H])c([H])c([H])c([H])c4n3[H])c([H])c2[H])c([H])c(N([H])C(=O)N([H])C([H])([H])[H])c1F

>  <index>  (147) 
512

>  <∆∆G>  (147) 
-9.41033

>  <∆G_bound>  (147) 
-8.266135

>  <∆G_unbound>  (147) 
1.144195

>  <comRMSD>  (147) 
0.711323

>  <N_constrained_atoms>  (147) 
29.0

>  <N_unconstrained_atoms>  (147) 
3.0

>  <runtime>  (147) 
52.861366

>  <LE>  (147) 
0.294073

>  <percent_hybrid>  (147) 
38.0

>  <dist>  (147) 
8.0

>  <ecfp4>  (147) 
0.212766

>  <daylight>  (147) 
0.4

>  <topodist>  (147) 
4.0

>  <mces>  (147) 
32.0

>  <tdn>  (147) 
1.0

>  <tup>  (147) 
1.0

>  <rdn>  (147) 
0.0

>  <rup>  (147) 
0.0

>  <ldn>  (147) 
0.0

>  <lup>  (147) 
2.0

>  <mut>  (147) 
4.0

>  <maj>  (147) 
4.0

>  <min>  (147) 
0.0

>  <hyb>  (147) 
0.0

>  <sub>  (147) 
1.0

>  <query_index>  (147) 
100.0

>  <max_hit_Tanimoto>  (147) 
0.28844

>  <largest_ring>  (147) 
6

>  <N_interactions_kept>  (147) 
1.5

>  <N_interactions_lost>  (147) 
2.5

>  <interaction_uniqueness_metric>  (147) 
0.201132

>  <ad_hoc_penalty>  (147) 
-19.059642

>  <N_rotatable_bonds>  (147) 
7

>  <N_HA>  (147) 
32

>  <cluster>  (147) 
522

>  <N_interactions>  (147) 
7

>  <Enamine>  (147) 
1

>  <Mcule>  (147) 
0

>  <N_PAINS>  (147) 
0

>  <UFF_Gibbs>  (147) 
217.037854

>  <strain_per_HA>  (147) 
6.782433

>  <intxn_scored>  (147) 
10.0

>  <saltbridge:HIS:51>  (147) 
0

>  <pistack:HIS:51>  (147) 
0

>  <hydroph_interaction:HIS:51>  (147) 
0

>  <hbond:ALA:132>  (147) 
0

>  <hbond:SER:135>  (147) 
0

>  <hydroph_interaction:TYR:150>  (147) 
0

>  <pistack:TYR:161>  (147) 
1

>  <hydroph_interaction:TYR:161>  (147) 
1

>  <hydroph_interaction:ASP:83>  (147) 
0

>  <hbond:TYR:130>  (147) 
2

>  <hydroph_interaction:ALA:132>  (147) 
0

>  <hbond:HIS:51>  (147) 
0

>  <hbond:ASP:129>  (147) 
1

>  <hbond:TYR:150>  (147) 
0

>  <hbond:GLY:151>  (147) 
0

>  <hbond:TYR:161>  (147) 
0

>  <hydroph_interaction:TYR:130>  (147) 
1

>  <hydroph_interaction:PRO:131>  (147) 
1

>  <hydroph_interaction:ASP:129>  (147) 
0

>  <saltbridge:ASP:75>  (147) 
0

>  <saltbridge:ASP:83>  (147) 
0

>  <hbond:ASN:152>  (147) 
0

>  <hydroph_interaction:ASN:152>  (147) 
0

>  <halogenbond:TYR:150>  (147) 
0

>  <hbond:ASP:83>  (147) 
0

>  <hydroph_interaction:VAL:155>  (147) 
0

>  <pication:TYR:161>  (147) 
0

>  <hbond:PRO:131>  (147) 
0

>  <saltbridge:ASP:129>  (147) 
0

>  <hbond:THR:134>  (147) 
0

>  <pication:HIS:51>  (147) 
0

>  <hbond:SER:81>  (147) 
0

>  <hydroph_interaction:THR:134>  (147) 
0

>  <hydroph_interaction:MET:49>  (147) 
0

$$$$
PV-004462883528
     RDKit          3D

 24 25  0  0  0  0  0  0  0  0999 V2000
   -2.7140    5.1700  -19.8880 C   0  0  0  0  0  0  0  0  0  0  0  0
   -3.0430    5.7010  -18.6630 N   0  0  0  0  0  0  0  0  0  0  0  0
   -4.3970    5.6090  -18.1780 C   0  0  0  0  0  0  0  0  0  0  0  0
   -4.5430    5.9380  -16.8320 C   0  0  0  0  0  0  0  0  0  0  0  0
   -5.7920    5.8950  -16.2190 C   0  0  0  0  0  0  0  0  0  0  0  0
   -6.9020    5.5170  -16.9650 C   0  0  0  0  0  0  0  0  0  0  0  0
   -8.5250    5.3880  -16.4280 S   0  0  0  0  0  0  0  0  0  0  0  0
   -9.0540    4.8980  -17.9650 C   0  0  0  0  0  0  0  0  0  0  0  0
  -10.5030    4.5900  -18.2480 C   0  0  0  0  0  0  0  0  0  0  0  0
  -11.3240    5.4410  -18.9930 N   0  0  0  0  0  0  0  0  0  0  0  0
   -8.0400    4.8240  -18.8800 C   0  0  0  0  0  0  0  0  0  0  0  0
   -8.1580    4.4160  -20.3360 C   0  0  0  0  0  0  0  0  0  0  0  0
   -6.7870    5.1840  -18.3070 C   0  0  0  0  0  0  0  0  0  0  0  0
   -5.5150    5.2350  -18.9130 C   0  0  0  0  0  0  0  0  0  0  0  0
   -3.5980    5.0360  -20.5190 H   0  0  0  0  0  0  0  0  0  0  0  0
   -2.1980    4.2090  -19.7840 H   0  0  0  0  0  0  0  0  0  0  0  0
   -2.0510    5.8670  -20.4100 H   0  0  0  0  0  0  0  0  0  0  0  0
   -2.6580    6.6320  -18.5260 H   0  0  0  0  0  0  0  0  0  0  0  0
   -3.6800    6.2350  -16.2380 H   0  0  0  0  0  0  0  0  0  0  0  0
   -5.8920    6.1540  -15.1670 H   0  0  0  0  0  0  0  0  0  0  0  0
   -9.1740    4.6540  -20.6590 H   0  0  0  0  0  0  0  0  0  0  0  0
   -7.4690    4.8260  -21.0660 H   0  0  0  0  0  0  0  0  0  0  0  0
   -8.0600    3.3500  -20.4090 H   0  0  0  0  0  0  0  0  0  0  0  0
   -5.4350    4.9740  -19.9600 H   0  0  0  0  0  0  0  0  0  0  0  0
  1  2  1  0
  2  3  1  0
  3  4  2  0
  4  5  1  0
  5  6  2  0
  6  7  1  0
  7  8  1  0
  8  9  1  0
  9 10  3  0
  8 11  2  0
 11 12  1  0
 11 13  1  0
 13 14  2  0
 14  3  1  0
 13  6  1  0
  1 15  1  0
  1 16  1  0
  1 17  1  0
  2 18  1  0
  4 19  1  0
  5 20  1  0
 12 21  1  0
 12 22  1  0
 12 23  1  0
 14 24  1  0
A    1
 C1 
A    2
 N1 
A    3
 C2 
A    4
 C3 
A    5
 C4 
A    6
 C5 
A    7
 S1 
A    8
 C6 
A    9
 C7 
A   10
 N2 
A   11
 C8 
A   12
 C9 
A   13
 C10
A   14
 C11
A   15
 H1 
A   16
 H2 
A   17
 H3 
A   18
 H4 
A   19
 H5 
A   20
 H6 
A   21
 H7 
A   22
 H8 
A   23
 H9 
A   24
 H10
M  END
>  <ref_pdb>  (148) 
x0051_0B

>  <ref_mols>  (148) 
x0051_0B,x0553_0B

>  <original SMILES>  (148) 
[H]c1c(N([H])C([H])([H])[H])c([H])c2c(C([H])([H])[H])c(C#N)sc2c1[H]

>  <index>  (148) 
748

>  <∆∆G>  (148) 
-6.635288

>  <∆G_bound>  (148) 
-6.822975

>  <∆G_unbound>  (148) 
-0.187686

>  <comRMSD>  (148) 
0.542306

>  <N_constrained_atoms>  (148) 
13.0

>  <N_unconstrained_atoms>  (148) 
1.0

>  <runtime>  (148) 
28.175148

>  <LE>  (148) 
0.473949

>  <percent_hybrid>  (148) 
17.0

>  <dist>  (148) 
3.0

>  <ecfp4>  (148) 
0.277778

>  <daylight>  (148) 
0.243902

>  <topodist>  (148) 
1.0

>  <mces>  (148) 
14.0

>  <tdn>  (148) 
0.0

>  <tup>  (148) 
1.0

>  <rdn>  (148) 
0.0

>  <rup>  (148) 
0.0

>  <ldn>  (148) 
0.0

>  <lup>  (148) 
0.0

>  <mut>  (148) 
2.0

>  <maj>  (148) 
2.0

>  <min>  (148) 
0.0

>  <hyb>  (148) 
0.0

>  <sub>  (148) 
0.0

>  <query_index>  (148) 
349.0

>  <max_hit_Tanimoto>  (148) 
0.166478

>  <largest_ring>  (148) 
6

>  <N_interactions_kept>  (148) 
1.0

>  <N_interactions_lost>  (148) 
2.5

>  <interaction_uniqueness_metric>  (148) 
0.327252

>  <ad_hoc_penalty>  (148) 
-12.142343

>  <N_rotatable_bonds>  (148) 
3

>  <N_HA>  (148) 
14

>  <cluster>  (148) 
5534

>  <N_interactions>  (148) 
6

>  <Enamine>  (148) 
1

>  <Mcule>  (148) 
0

>  <N_PAINS>  (148) 
0

>  <UFF_Gibbs>  (148) 
176.050481

>  <strain_per_HA>  (148) 
12.575034

>  <intxn_scored>  (148) 
10.0

>  <saltbridge:HIS:51>  (148) 
0

>  <pistack:HIS:51>  (148) 
0

>  <hydroph_interaction:HIS:51>  (148) 
0

>  <hbond:ALA:132>  (148) 
0

>  <hbond:SER:135>  (148) 
0

>  <hydroph_interaction:TYR:150>  (148) 
0

>  <pistack:TYR:161>  (148) 
2

>  <hydroph_interaction:TYR:161>  (148) 
2

>  <hydroph_interaction:ASP:83>  (148) 
0

>  <hbond:TYR:130>  (148) 
0

>  <hydroph_interaction:ALA:132>  (148) 
0

>  <hbond:HIS:51>  (148) 
0

>  <hbond:ASP:129>  (148) 
0

>  <hbond:TYR:150>  (148) 
0

>  <hbond:GLY:151>  (148) 
0

>  <hbond:TYR:161>  (148) 
0

>  <hydroph_interaction:TYR:130>  (148) 
0

>  <hydroph_interaction:PRO:131>  (148) 
0

>  <hydroph_interaction:ASP:129>  (148) 
0

>  <saltbridge:ASP:75>  (148) 
0

>  <saltbridge:ASP:83>  (148) 
0

>  <hbond:ASN:152>  (148) 
0

>  <hydroph_interaction:ASN:152>  (148) 
0

>  <halogenbond:TYR:150>  (148) 
0

>  <hbond:ASP:83>  (148) 
0

>  <hydroph_interaction:VAL:155>  (148) 
0

>  <pication:TYR:161>  (148) 
0

>  <hbond:PRO:131>  (148) 
1

>  <saltbridge:ASP:129>  (148) 
0

>  <hbond:THR:134>  (148) 
1

>  <pication:HIS:51>  (148) 
0

>  <hbond:SER:81>  (148) 
0

>  <hydroph_interaction:THR:134>  (148) 
0

>  <hydroph_interaction:MET:49>  (148) 
0

$$$$
Z2852286466
     RDKit          3D

 39 41  0  0  0  0  0  0  0  0999 V2000
   -8.9560    4.6190  -19.5670 C   0  0  0  0  0  0  0  0  0  0  0  0
   -8.4970    4.9320  -18.3020 C   0  0  0  0  0  0  0  0  0  0  0  0
   -9.3890    4.8990  -17.2420 C   0  0  0  0  0  0  0  0  0  0  0  0
   -8.9030    5.2140  -15.9780 C   0  0  0  0  0  0  0  0  0  0  0  0
   -9.7310    5.2080  -14.8210 N   0  0  0  0  0  0  0  0  0  0  0  0
   -9.2770    5.9500  -13.6070 C   0  0  0  0  0  0  0  0  0  0  0  0
   -8.8920    5.0760  -12.4300 C   0  0  0  0  0  0  0  0  0  0  0  0
   -8.8910    5.3220  -11.0340 C   0  0  0  0  0  0  0  0  0  0  0  0
   -8.9640    4.3900   -9.9130 C   0  0  0  0  0  0  0  0  0  0  0  0
   -9.0530    3.0350  -10.1340 C   0  0  0  0  0  0  0  0  0  0  0  0
   -9.4800    2.2460   -8.9340 C   0  0  0  0  0  0  0  0  0  0  0  0
   -9.5460    2.9240   -7.5550 C   0  0  0  0  0  0  0  0  0  0  0  0
   -8.9860    4.3450   -7.4510 C   0  0  0  0  0  0  0  0  0  0  0  0
   -8.9330    4.9970   -8.7350 N   0  0  0  0  0  0  0  0  0  0  0  0
   -8.8390    6.3480   -8.8960 N   0  0  0  0  0  0  0  0  0  0  0  0
   -8.8180    6.5150  -10.2510 C   0  0  0  0  0  0  0  0  0  0  0  0
   -7.5650    5.5400  -15.8400 C   0  0  0  0  0  0  0  0  0  0  0  0
   -6.7530    5.5470  -16.9620 C   0  0  0  0  0  0  0  0  0  0  0  0
   -7.1920    5.2510  -18.1900 N   0  0  0  0  0  0  0  0  0  0  0  0
   -9.7860    5.2710  -19.8550 H   0  0  0  0  0  0  0  0  0  0  0  0
   -9.3230    3.5940  -19.5610 H   0  0  0  0  0  0  0  0  0  0  0  0
   -8.1670    4.7370  -20.3190 H   0  0  0  0  0  0  0  0  0  0  0  0
  -10.4210    4.6350  -17.4060 H   0  0  0  0  0  0  0  0  0  0  0  0
   -9.9360    4.2280  -14.6180 H   0  0  0  0  0  0  0  0  0  0  0  0
  -10.0790    6.6240  -13.2790 H   0  0  0  0  0  0  0  0  0  0  0  0
   -8.4130    6.5850  -13.8500 H   0  0  0  0  0  0  0  0  0  0  0  0
   -7.8670    4.7480  -12.6500 H   0  0  0  0  0  0  0  0  0  0  0  0
   -9.4920    4.1610  -12.5530 H   0  0  0  0  0  0  0  0  0  0  0  0
   -9.7810    2.8640  -10.9380 H   0  0  0  0  0  0  0  0  0  0  0  0
   -8.0910    2.6640  -10.5020 H   0  0  0  0  0  0  0  0  0  0  0  0
   -8.7670    1.4230   -8.8540 H   0  0  0  0  0  0  0  0  0  0  0  0
  -10.4290    1.7690   -9.0250 H   0  0  0  0  0  0  0  0  0  0  0  0
  -10.5930    2.9390   -7.2270 H   0  0  0  0  0  0  0  0  0  0  0  0
   -8.9730    2.3190   -6.8470 H   0  0  0  0  0  0  0  0  0  0  0  0
   -9.6720    4.9280   -6.8250 H   0  0  0  0  0  0  0  0  0  0  0  0
   -7.9840    4.4600   -7.0380 H   0  0  0  0  0  0  0  0  0  0  0  0
   -8.7430    7.5770  -10.5120 H   0  0  0  0  0  0  0  0  0  0  0  0
   -7.1450    5.7900  -14.8760 H   0  0  0  0  0  0  0  0  0  0  0  0
   -5.7000    5.8000  -16.8890 H   0  0  0  0  0  0  0  0  0  0  0  0
  1  2  1  0
  2  3  2  0
  3  4  1  0
  4  5  1  0
  5  6  1  0
  6  7  1  0
  7  8  1  0
  8  9  2  0
  9 10  1  0
 10 11  1  0
 11 12  1  0
 12 13  1  0
 13 14  1  0
 14 15  1  0
 15 16  2  0
  4 17  2  0
 17 18  1  0
 18 19  2  0
 19  2  1  0
 16  8  1  0
 14  9  1  0
  1 20  1  0
  1 21  1  0
  1 22  1  0
  3 23  1  0
  5 24  1  0
  6 25  1  0
  6 26  1  0
  7 27  1  0
  7 28  1  0
 10 29  1  0
 10 30  1  0
 11 31  1  0
 11 32  1  0
 12 33  1  0
 12 34  1  0
 13 35  1  0
 13 36  1  0
 16 37  1  0
 17 38  1  0
 18 39  1  0
A    1
 C1 
A    2
 C2 
A    3
 C3 
A    4
 C4 
A    5
 N1 
A    6
 C5 
A    7
 C6 
A    8
 C7 
A    9
 C8 
A   10
 C9 
A   11
 C10
A   12
 C11
A   13
 C12
A   14
 N2 
A   15
 N3 
A   16
 C13
A   17
 C14
A   18
 C15
A   19
 N4 
A   20
 H1 
A   21
 H2 
A   22
 H3 
A   23
 H4 
A   24
 H5 
A   25
 H6 
A   26
 H7 
A   27
 H8 
A   28
 H9 
A   29
 H10
A   30
 H11
A   31
 H12
A   32
 H13
A   33
 H14
A   34
 H15
A   35
 H16
A   36
 H17
A   37
 H18
A   38
 H19
A   39
 H20
M  END
>  <ref_pdb>  (149) 
x0051_0B

>  <ref_mols>  (149) 
x0589_0B,x0969_1B

>  <original SMILES>  (149) 
[H]c1nc(C([H])([H])[H])c([H])c(N([H])C([H])([H])C([H])([H])c2c([H])nn3c2C([H])([H])C([H])([H])C([H])([H])C3([H])[H])c1[H]

>  <index>  (149) 
184

>  <∆∆G>  (149) 
-7.096028

>  <∆G_bound>  (149) 
-6.532931

>  <∆G_unbound>  (149) 
0.563097

>  <comRMSD>  (149) 
0.693508

>  <N_constrained_atoms>  (149) 
17.0

>  <N_unconstrained_atoms>  (149) 
3.0

>  <runtime>  (149) 
65.79724

>  <LE>  (149) 
0.354801

>  <percent_hybrid>  (149) 
42.0

>  <dist>  (149) 
4.0

>  <ecfp4>  (149) 
0.319444

>  <daylight>  (149) 
0.276364

>  <topodist>  (149) 
1.0

>  <mces>  (149) 
21.0

>  <tdn>  (149) 
1.0

>  <tup>  (149) 
0.0

>  <rdn>  (149) 
0.0

>  <rup>  (149) 
0.0

>  <ldn>  (149) 
0.0

>  <lup>  (149) 
0.0

>  <mut>  (149) 
3.0

>  <maj>  (149) 
3.0

>  <min>  (149) 
0.0

>  <hyb>  (149) 
0.0

>  <sub>  (149) 
1.0

>  <query_index>  (149) 
379.0

>  <max_hit_Tanimoto>  (149) 
0.346636

>  <largest_ring>  (149) 
0

>  <N_interactions_kept>  (149) 
1.0

>  <N_interactions_lost>  (149) 
1.5

>  <interaction_uniqueness_metric>  (149) 
0.171488

>  <ad_hoc_penalty>  (149) 
-26.494572

>  <N_rotatable_bonds>  (149) 
5

>  <N_HA>  (149) 
19

>  <cluster>  (149) 
6052

>  <N_interactions>  (149) 
7

>  <Enamine>  (149) 
1

>  <Mcule>  (149) 
0

>  <N_PAINS>  (149) 
0

>  <UFF_Gibbs>  (149) 
103.928307

>  <strain_per_HA>  (149) 
5.469911

>  <intxn_scored>  (149) 
10.0

>  <saltbridge:HIS:51>  (149) 
0

>  <pistack:HIS:51>  (149) 
1

>  <hydroph_interaction:HIS:51>  (149) 
1

>  <hbond:ALA:132>  (149) 
0

>  <hbond:SER:135>  (149) 
2

>  <hydroph_interaction:TYR:150>  (149) 
1

>  <pistack:TYR:161>  (149) 
1

>  <hydroph_interaction:TYR:161>  (149) 
1

>  <hydroph_interaction:ASP:83>  (149) 
0

>  <hbond:TYR:130>  (149) 
0

>  <hydroph_interaction:ALA:132>  (149) 
0

>  <hbond:HIS:51>  (149) 
0

>  <hbond:ASP:129>  (149) 
0

>  <hbond:TYR:150>  (149) 
0

>  <hbond:GLY:151>  (149) 
0

>  <hbond:TYR:161>  (149) 
0

>  <hydroph_interaction:TYR:130>  (149) 
0

>  <hydroph_interaction:PRO:131>  (149) 
0

>  <hydroph_interaction:ASP:129>  (149) 
0

>  <saltbridge:ASP:75>  (149) 
0

>  <saltbridge:ASP:83>  (149) 
0

>  <hbond:ASN:152>  (149) 
0

>  <hydroph_interaction:ASN:152>  (149) 
0

>  <halogenbond:TYR:150>  (149) 
0

>  <hbond:ASP:83>  (149) 
0

>  <hydroph_interaction:VAL:155>  (149) 
0

>  <pication:TYR:161>  (149) 
0

>  <hbond:PRO:131>  (149) 
0

>  <saltbridge:ASP:129>  (149) 
0

>  <hbond:THR:134>  (149) 
0

>  <pication:HIS:51>  (149) 
0

>  <hbond:SER:81>  (149) 
0

>  <hydroph_interaction:THR:134>  (149) 
0

>  <hydroph_interaction:MET:49>  (149) 
0

$$$$
CSSB00007077983
     RDKit          3D

 31 33  0  0  0  0  0  0  0  0999 V2000
  -10.8380    4.9480  -18.6160 C   0  0  0  0  0  0  0  0  0  0  0  0
   -9.4790    5.0180  -17.9940 C   0  0  0  0  0  0  0  0  0  0  0  0
   -9.3890    4.7630  -16.5070 C   0  0  0  0  0  0  0  0  0  0  0  0
   -8.0040    4.8950  -15.9020 C   0  0  0  0  0  0  0  0  0  0  0  0
   -6.9450    5.2690  -16.8080 C   0  0  0  0  0  0  0  0  0  0  0  0
   -5.6260    5.4890  -16.5560 N   0  0  0  0  0  0  0  0  0  0  0  0
   -4.9180    5.9370  -17.7350 C   0  0  0  0  0  0  0  0  0  0  0  0
   -3.7410    6.2470  -17.7990 O   0  0  0  0  0  0  0  0  0  0  0  0
   -5.9930    5.9230  -18.8780 C   0  0  0  0  0  0  0  0  0  0  0  0
   -6.3520    7.0450  -19.5320 C   0  0  0  0  0  0  0  0  0  0  0  0
   -5.2930    8.0590  -19.8080 C   0  0  0  0  0  0  0  0  0  0  0  0
   -4.3560    7.3830  -20.6170 O   0  0  0  0  0  0  0  0  0  0  0  0
   -4.8500    6.1090  -21.0650 C   0  0  0  0  0  0  0  0  0  0  0  0
   -5.3480    5.1650  -20.0100 C   0  0  0  0  0  0  0  0  0  0  0  0
   -7.1500    5.4870  -18.1730 C   0  0  0  0  0  0  0  0  0  0  0  0
   -8.3750    5.3500  -18.7750 C   0  0  0  0  0  0  0  0  0  0  0  0
  -10.7640    5.2370  -19.6680 H   0  0  0  0  0  0  0  0  0  0  0  0
  -11.3000    3.9860  -18.5220 H   0  0  0  0  0  0  0  0  0  0  0  0
  -11.4890    5.6670  -18.1580 H   0  0  0  0  0  0  0  0  0  0  0  0
  -10.2370    4.5080  -15.8860 H   0  0  0  0  0  0  0  0  0  0  0  0
   -7.8540    4.7230  -14.8410 H   0  0  0  0  0  0  0  0  0  0  0  0
   -5.4640    6.1010  -15.7580 H   0  0  0  0  0  0  0  0  0  0  0  0
   -7.1680    7.5350  -19.0380 H   0  0  0  0  0  0  0  0  0  0  0  0
   -6.7730    6.7630  -20.5030 H   0  0  0  0  0  0  0  0  0  0  0  0
   -4.8060    8.3750  -18.8790 H   0  0  0  0  0  0  0  0  0  0  0  0
   -5.6790    8.9520  -20.3140 H   0  0  0  0  0  0  0  0  0  0  0  0
   -4.0330    5.6350  -21.6190 H   0  0  0  0  0  0  0  0  0  0  0  0
   -5.6440    6.2920  -21.8000 H   0  0  0  0  0  0  0  0  0  0  0  0
   -4.4470    4.7310  -19.5790 H   0  0  0  0  0  0  0  0  0  0  0  0
   -5.9670    4.3270  -20.3100 H   0  0  0  0  0  0  0  0  0  0  0  0
   -8.4900    5.5300  -19.8400 H   0  0  0  0  0  0  0  0  0  0  0  0
  1  2  1  0
  2  3  2  0
  3  4  1  0
  4  5  2  0
  5  6  1  0
  6  7  1  0
  7  8  2  0
  7  9  1  0
  9 10  1  0
 10 11  1  0
 11 12  1  0
 12 13  1  0
 13 14  1  0
  9 15  1  0
 15 16  2  0
 16  2  1  0
 15  5  1  0
 14  9  1  0
  1 17  1  0
  1 18  1  0
  1 19  1  0
  3 20  1  0
  4 21  1  0
  6 22  1  0
 10 23  1  0
 10 24  1  0
 11 25  1  0
 11 26  1  0
 13 27  1  0
 13 28  1  0
 14 29  1  0
 14 30  1  0
 16 31  1  0
A    1
 C1 
A    2
 C2 
A    3
 C3 
A    4
 C4 
A    5
 C5 
A    6
 N1 
A    7
 C6 
A    8
 O1 
A    9
 C7 
A   10
 C8 
A   11
 C9 
A   12
 O2 
A   13
 C10
A   14
 C11
A   15
 C12
A   16
 C13
A   17
 H1 
A   18
 H2 
A   19
 H3 
A   20
 H4 
A   21
 H5 
A   22
 H6 
A   23
 H7 
A   24
 H8 
A   25
 H9 
A   26
 H10
A   27
 H11
A   28
 H12
A   29
 H13
A   30
 H14
A   31
 H15
M  END
>  <ref_pdb>  (150) 
x0051_0B

>  <ref_mols>  (150) 
x0229_0B,x0945_0B

>  <original SMILES>  (150) 
[H]c1c([H])c(C([H])([H])[H])c([H])c2c1N([H])C(=O)C21C([H])([H])C([H])([H])OC([H])([H])C1([H])[H]

>  <index>  (150) 
465

>  <∆∆G>  (150) 
-5.876461

>  <∆G_bound>  (150) 
-5.436347

>  <∆G_unbound>  (150) 
0.440115

>  <comRMSD>  (150) 
0.973103

>  <N_constrained_atoms>  (150) 
19.0

>  <N_unconstrained_atoms>  (150) 
0.0

>  <runtime>  (150) 
26.407639

>  <LE>  (150) 
0.309287

>  <percent_hybrid>  (150) 
45.0

>  <dist>  (150) 
3.0

>  <ecfp4>  (150) 
0.45098

>  <daylight>  (150) 
0.505495

>  <topodist>  (150) 
2.0

>  <mces>  (150) 
17.0

>  <tdn>  (150) 
0.0

>  <tup>  (150) 
0.0

>  <rdn>  (150) 
0.0

>  <rup>  (150) 
0.0

>  <ldn>  (150) 
1.0

>  <lup>  (150) 
1.0

>  <mut>  (150) 
1.0

>  <maj>  (150) 
1.0

>  <min>  (150) 
0.0

>  <hyb>  (150) 
0.0

>  <sub>  (150) 
0.0

>  <query_index>  (150) 
101.0

>  <max_hit_Tanimoto>  (150) 
0.414336

>  <largest_ring>  (150) 
0

>  <N_interactions_kept>  (150) 
0.0

>  <N_interactions_lost>  (150) 
2.0

>  <interaction_uniqueness_metric>  (150) 
0.065384

>  <ad_hoc_penalty>  (150) 
-14.862725

>  <N_rotatable_bonds>  (150) 
1

>  <N_HA>  (150) 
16

>  <cluster>  (150) 
5795

>  <N_interactions>  (150) 
5

>  <Enamine>  (150) 
1

>  <Mcule>  (150) 
0

>  <N_PAINS>  (150) 
0

>  <UFF_Gibbs>  (150) 
164.618922

>  <strain_per_HA>  (150) 
10.288683

>  <intxn_scored>  (150) 
10.0

>  <saltbridge:HIS:51>  (150) 
0

>  <pistack:HIS:51>  (150) 
0

>  <hydroph_interaction:HIS:51>  (150) 
0

>  <hbond:ALA:132>  (150) 
0

>  <hbond:SER:135>  (150) 
0

>  <hydroph_interaction:TYR:150>  (150) 
1

>  <pistack:TYR:161>  (150) 
2

>  <hydroph_interaction:TYR:161>  (150) 
1

>  <hydroph_interaction:ASP:83>  (150) 
0

>  <hbond:TYR:130>  (150) 
0

>  <hydroph_interaction:ALA:132>  (150) 
1

>  <hbond:HIS:51>  (150) 
0

>  <hbond:ASP:129>  (150) 
0

>  <hbond:TYR:150>  (150) 
0

>  <hbond:GLY:151>  (150) 
0

>  <hbond:TYR:161>  (150) 
0

>  <hydroph_interaction:TYR:130>  (150) 
0

>  <hydroph_interaction:PRO:131>  (150) 
0

>  <hydroph_interaction:ASP:129>  (150) 
0

>  <saltbridge:ASP:75>  (150) 
0

>  <saltbridge:ASP:83>  (150) 
0

>  <hbond:ASN:152>  (150) 
0

>  <hydroph_interaction:ASN:152>  (150) 
0

>  <halogenbond:TYR:150>  (150) 
0

>  <hbond:ASP:83>  (150) 
0

>  <hydroph_interaction:VAL:155>  (150) 
0

>  <pication:TYR:161>  (150) 
0

>  <hbond:PRO:131>  (150) 
0

>  <saltbridge:ASP:129>  (150) 
0

>  <hbond:THR:134>  (150) 
0

>  <pication:HIS:51>  (150) 
0

>  <hbond:SER:81>  (150) 
0

>  <hydroph_interaction:THR:134>  (150) 
0

>  <hydroph_interaction:MET:49>  (150) 
0

$$$$
PV-007069843256
     RDKit          3D

 48 51  0  0  0  0  0  0  0  0999 V2000
   -5.0640    5.3140  -17.0200 C   0  0  0  0  0  0  0  0  0  0  0  0
   -6.1940    5.7780  -17.8310 N   0  0  0  0  0  0  0  0  0  0  0  0
   -5.9560    5.4440  -19.2310 C   0  0  0  0  0  0  0  0  0  0  0  0
   -4.6810    5.3690  -19.8640 O   0  0  0  0  0  0  0  0  0  0  0  0
   -7.0970    5.2120  -19.8500 N   0  0  0  0  0  0  0  0  0  0  0  0
   -8.0470    5.1410  -18.8610 C   0  0  0  0  0  0  0  0  0  0  0  0
   -9.4500    4.7600  -19.0300 C   0  0  0  0  0  0  0  0  0  0  0  0
  -10.2960    4.7400  -17.9640 C   0  0  0  0  0  0  0  0  0  0  0  0
   -9.7090    5.1410  -16.6080 C   0  0  0  0  0  0  0  0  0  0  0  0
   -8.3700    5.5110  -16.4710 C   0  0  0  0  0  0  0  0  0  0  0  0
   -7.8840    5.9050  -15.2070 N   0  0  0  0  0  0  0  0  0  0  0  0
   -8.5630    6.7100  -14.2880 C   0  0  0  0  0  0  0  0  0  0  0  0
   -9.0770    7.7860  -14.4340 O   0  0  0  0  0  0  0  0  0  0  0  0
   -8.6410    6.0950  -12.9220 C   0  0  0  0  0  0  0  0  0  0  0  0
   -8.5480    6.9310  -11.6500 C   0  0  0  0  0  0  0  0  0  0  0  0
   -8.6140    6.2710  -10.4190 C   0  0  0  0  0  0  0  0  0  0  0  0
   -8.7610    4.8750  -10.3210 C   0  0  0  0  0  0  0  0  0  0  0  0
   -8.8080    4.2630   -9.1100 N   0  0  0  0  0  0  0  0  0  0  0  0
   -8.8710    2.8050   -9.0570 C   0  0  0  0  0  0  0  0  0  0  0  0
   -9.7570    2.4800   -7.8790 C   0  0  0  0  0  0  0  0  0  0  0  0
   -9.3760    3.2540   -6.6150 C   0  0  0  0  0  0  0  0  0  0  0  0
   -8.9080    4.6890   -6.7600 C   0  0  0  0  0  0  0  0  0  0  0  0
   -8.0520    4.8480   -8.0080 C   0  0  0  0  0  0  0  0  0  0  0  0
   -8.8550    4.1220  -11.4880 C   0  0  0  0  0  0  0  0  0  0  0  0
   -8.7930    4.7490  -12.8320 C   0  0  0  0  0  0  0  0  0  0  0  0
   -7.5440    5.4950  -17.6040 C   0  0  0  0  0  0  0  0  0  0  0  0
   -4.4980    6.1670  -16.6290 H   0  0  0  0  0  0  0  0  0  0  0  0
   -5.3900    4.7040  -16.1700 H   0  0  0  0  0  0  0  0  0  0  0  0
   -4.3560    4.7290  -17.6130 H   0  0  0  0  0  0  0  0  0  0  0  0
   -7.3070    5.5730  -20.7790 H   0  0  0  0  0  0  0  0  0  0  0  0
   -9.7940    4.4980  -20.0180 H   0  0  0  0  0  0  0  0  0  0  0  0
  -11.3360    4.4580  -18.0810 H   0  0  0  0  0  0  0  0  0  0  0  0
  -10.3230    5.1520  -15.7160 H   0  0  0  0  0  0  0  0  0  0  0  0
   -7.1500    5.3330  -14.8270 H   0  0  0  0  0  0  0  0  0  0  0  0
   -8.4310    8.0110  -11.6780 H   0  0  0  0  0  0  0  0  0  0  0  0
   -8.5470    6.8510   -9.5050 H   0  0  0  0  0  0  0  0  0  0  0  0
   -7.8760    2.3730   -8.9020 H   0  0  0  0  0  0  0  0  0  0  0  0
   -9.1460    2.4650  -10.0490 H   0  0  0  0  0  0  0  0  0  0  0  0
   -9.7370    1.4140   -7.6750 H   0  0  0  0  0  0  0  0  0  0  0  0
  -10.7980    2.7020   -8.1390 H   0  0  0  0  0  0  0  0  0  0  0  0
   -8.5340    2.7230   -6.1480 H   0  0  0  0  0  0  0  0  0  0  0  0
  -10.2240    3.2490   -5.9200 H   0  0  0  0  0  0  0  0  0  0  0  0
   -9.7530    5.3870   -6.7860 H   0  0  0  0  0  0  0  0  0  0  0  0
   -8.3170    4.9560   -5.8750 H   0  0  0  0  0  0  0  0  0  0  0  0
   -7.7990    5.9030   -8.1590 H   0  0  0  0  0  0  0  0  0  0  0  0
   -7.1110    4.3020   -7.9110 H   0  0  0  0  0  0  0  0  0  0  0  0
   -8.9750    3.0300  -11.5280 H   0  0  0  0  0  0  0  0  0  0  0  0
   -8.8730    4.0530  -13.6750 H   0  0  0  0  0  0  0  0  0  0  0  0
  1  2  1  0
  2  3  1  0
  3  4  2  0
  3  5  1  0
  5  6  1  0
  6  7  2  0
  7  8  1  0
  8  9  2  0
  9 10  1  0
 10 11  1  0
 11 12  1  0
 12 13  2  0
 12 14  1  0
 14 15  2  0
 15 16  1  0
 16 17  2  0
 17 18  1  0
 18 19  1  0
 19 20  1  0
 20 21  1  0
 21 22  1  0
 22 23  1  0
 17 24  1  0
 24 25  2  0
 10 26  2  0
 26  2  1  0
 26  6  1  0
 25 14  1  0
 23 18  1  0
  1 27  1  0
  1 28  1  0
  1 29  1  0
  5 30  1  0
  7 31  1  0
  8 32  1  0
  9 33  1  0
 11 34  1  0
 15 35  1  0
 16 36  1  0
 19 37  1  0
 19 38  1  0
 20 39  1  0
 20 40  1  0
 21 41  1  0
 21 42  1  0
 22 43  1  0
 22 44  1  0
 23 45  1  0
 23 46  1  0
 24 47  1  0
 25 48  1  0
A    1
 C1 
A    2
 N1 
A    3
 C2 
A    4
 O1 
A    5
 N2 
A    6
 C3 
A    7
 C4 
A    8
 C5 
A    9
 C6 
A   10
 C7 
A   11
 N3 
A   12
 C8 
A   13
 O2 
A   14
 C9 
A   15
 C10
A   16
 C11
A   17
 C12
A   18
 N4 
A   19
 C13
A   20
 C14
A   21
 C15
A   22
 C16
A   23
 C17
A   24
 C18
A   25
 C19
A   26
 C20
A   27
 H1 
A   28
 H2 
A   29
 H3 
A   30
 H4 
A   31
 H5 
A   32
 H6 
A   33
 H7 
A   34
 H8 
A   35
 H9 
A   36
 H10
A   37
 H11
A   38
 H12
A   39
 H13
A   40
 H14
A   41
 H15
A   42
 H16
A   43
 H17
A   44
 H18
A   45
 H19
A   46
 H20
A   47
 H21
A   48
 H22
M  END
>  <ref_pdb>  (151) 
x0051_0B

>  <ref_mols>  (151) 
x0443_0B,x0404_0B

>  <original SMILES>  (151) 
[H]c1c([H])c(N2C([H])([H])C([H])([H])C([H])([H])C([H])([H])C2([H])[H])c([H])c([H])c1C(=O)N([H])c1c([H])c([H])c([H])c2c1n(C([H])([H])[H])c(=O)n2[H]

>  <index>  (151) 
1421

>  <∆∆G>  (151) 
-8.81876

>  <∆G_bound>  (151) 
-8.821917

>  <∆G_unbound>  (151) 
-0.003157

>  <comRMSD>  (151) 
0.526665

>  <N_constrained_atoms>  (151) 
25.0

>  <N_unconstrained_atoms>  (151) 
1.0

>  <runtime>  (151) 
63.016109

>  <LE>  (151) 
0.339183

>  <percent_hybrid>  (151) 
44.0

>  <dist>  (151) 
7.0

>  <ecfp4>  (151) 
0.25641

>  <daylight>  (151) 
0.143396

>  <topodist>  (151) 
2.0

>  <mces>  (151) 
29.0

>  <tdn>  (151) 
1.0

>  <tup>  (151) 
0.0

>  <rdn>  (151) 
0.0

>  <rup>  (151) 
0.0

>  <ldn>  (151) 
1.0

>  <lup>  (151) 
0.0

>  <mut>  (151) 
3.0

>  <maj>  (151) 
3.0

>  <min>  (151) 
0.0

>  <hyb>  (151) 
2.0

>  <sub>  (151) 
0.0

>  <query_index>  (151) 
13.0

>  <max_hit_Tanimoto>  (151) 
0.312371

>  <largest_ring>  (151) 
6

>  <N_interactions_kept>  (151) 
1.0

>  <N_interactions_lost>  (151) 
3.5

>  <interaction_uniqueness_metric>  (151) 
0.128121

>  <ad_hoc_penalty>  (151) 
-8.878468

>  <N_rotatable_bonds>  (151) 
4

>  <N_HA>  (151) 
26

>  <cluster>  (151) 
4914

>  <N_interactions>  (151) 
6

>  <Enamine>  (151) 
1

>  <Mcule>  (151) 
0

>  <N_PAINS>  (151) 
0

>  <UFF_Gibbs>  (151) 
206.767587

>  <strain_per_HA>  (151) 
7.9526

>  <intxn_scored>  (151) 
10.0

>  <saltbridge:HIS:51>  (151) 
0

>  <pistack:HIS:51>  (151) 
1

>  <hydroph_interaction:HIS:51>  (151) 
1

>  <hbond:ALA:132>  (151) 
0

>  <hbond:SER:135>  (151) 
0

>  <hydroph_interaction:TYR:150>  (151) 
1

>  <pistack:TYR:161>  (151) 
1

>  <hydroph_interaction:TYR:161>  (151) 
1

>  <hydroph_interaction:ASP:83>  (151) 
0

>  <hbond:TYR:130>  (151) 
1

>  <hydroph_interaction:ALA:132>  (151) 
0

>  <hbond:HIS:51>  (151) 
0

>  <hbond:ASP:129>  (151) 
0

>  <hbond:TYR:150>  (151) 
0

>  <hbond:GLY:151>  (151) 
0

>  <hbond:TYR:161>  (151) 
0

>  <hydroph_interaction:TYR:130>  (151) 
0

>  <hydroph_interaction:PRO:131>  (151) 
0

>  <hydroph_interaction:ASP:129>  (151) 
0

>  <saltbridge:ASP:75>  (151) 
0

>  <saltbridge:ASP:83>  (151) 
0

>  <hbond:ASN:152>  (151) 
0

>  <hydroph_interaction:ASN:152>  (151) 
0

>  <halogenbond:TYR:150>  (151) 
0

>  <hbond:ASP:83>  (151) 
0

>  <hydroph_interaction:VAL:155>  (151) 
0

>  <pication:TYR:161>  (151) 
0

>  <hbond:PRO:131>  (151) 
0

>  <saltbridge:ASP:129>  (151) 
0

>  <hbond:THR:134>  (151) 
0

>  <pication:HIS:51>  (151) 
0

>  <hbond:SER:81>  (151) 
0

>  <hydroph_interaction:THR:134>  (151) 
0

>  <hydroph_interaction:MET:49>  (151) 
0

$$$$
CSSB00000185985
     RDKit          3D

 26 27  0  0  0  0  0  0  0  0999 V2000
   -2.1570    4.5510  -21.3660 C   0  0  0  0  0  0  0  0  0  0  0  0
   -3.4610    4.3660  -21.9290 O   0  0  0  0  0  0  0  0  0  0  0  0
   -4.4320    5.2690  -21.5780 C   0  0  0  0  0  0  0  0  0  0  0  0
   -5.2340    5.7390  -22.3720 O   0  0  0  0  0  0  0  0  0  0  0  0
   -4.3500    5.5770  -20.2300 C   0  0  0  0  0  0  0  0  0  0  0  0
   -5.6660    5.3430  -19.7550 C   0  0  0  0  0  0  0  0  0  0  0  0
   -5.7690    5.5160  -18.4410 N   0  0  0  0  0  0  0  0  0  0  0  0
   -6.9720    5.3190  -17.8620 C   0  0  0  0  0  0  0  0  0  0  0  0
   -7.0840    5.5070  -16.3750 C   0  0  0  0  0  0  0  0  0  0  0  0
   -8.2950    5.3090  -15.7360 C   0  0  0  0  0  0  0  0  0  0  0  0
   -9.4930    4.9090  -16.5480 C   0  0  0  0  0  0  0  0  0  0  0  0
   -9.3830    4.7400  -17.9250 C   0  0  0  0  0  0  0  0  0  0  0  0
   -8.1420    4.9390  -18.5720 C   0  0  0  0  0  0  0  0  0  0  0  0
   -8.0010    4.7690  -19.9370 C   0  0  0  0  0  0  0  0  0  0  0  0
   -6.7550    4.9690  -20.5440 C   0  0  0  0  0  0  0  0  0  0  0  0
   -1.9110    3.6840  -20.7420 H   0  0  0  0  0  0  0  0  0  0  0  0
   -1.4010    4.6250  -22.1560 H   0  0  0  0  0  0  0  0  0  0  0  0
   -2.1080    5.4600  -20.7600 H   0  0  0  0  0  0  0  0  0  0  0  0
   -3.4950    5.2580  -19.6480 H   0  0  0  0  0  0  0  0  0  0  0  0
   -4.2440    6.6670  -20.2170 H   0  0  0  0  0  0  0  0  0  0  0  0
   -6.2080    5.7950  -15.8050 H   0  0  0  0  0  0  0  0  0  0  0  0
   -8.3770    5.4410  -14.6610 H   0  0  0  0  0  0  0  0  0  0  0  0
  -10.4390    4.7500  -16.0550 H   0  0  0  0  0  0  0  0  0  0  0  0
  -10.2600    4.4490  -18.4950 H   0  0  0  0  0  0  0  0  0  0  0  0
   -8.8510    4.4780  -20.5500 H   0  0  0  0  0  0  0  0  0  0  0  0
   -6.6530    4.8310  -21.6160 H   0  0  0  0  0  0  0  0  0  0  0  0
  1  2  1  0
  2  3  1  0
  3  4  2  0
  3  5  1  0
  5  6  1  0
  6  7  2  0
  7  8  1  0
  8  9  2  0
  9 10  1  0
 10 11  2  0
 11 12  1  0
 12 13  2  0
 13 14  1  0
 14 15  2  0
 15  6  1  0
 13  8  1  0
  1 16  1  0
  1 17  1  0
  1 18  1  0
  5 19  1  0
  5 20  1  0
  9 21  1  0
 10 22  1  0
 11 23  1  0
 12 24  1  0
 14 25  1  0
 15 26  1  0
A    1
 C1 
A    2
 O1 
A    3
 C2 
A    4
 O2 
A    5
 C3 
A    6
 C4 
A    7
 N1 
A    8
 C5 
A    9
 C6 
A   10
 C7 
A   11
 C8 
A   12
 C9 
A   13
 C10
A   14
 C11
A   15
 C12
A   16
 H1 
A   17
 H2 
A   18
 H3 
A   19
 H4 
A   20
 H5 
A   21
 H6 
A   22
 H7 
A   23
 H8 
A   24
 H9 
A   25
 H10
A   26
 H11
M  END
>  <ref_pdb>  (152) 
x0051_0B

>  <ref_mols>  (152) 
x0727_0B,x0904_0B

>  <original SMILES>  (152) 
[H]c1c([H])c([H])c2c([H])c([H])c(C([H])([H])C(=O)OC([H])([H])[H])nc2c1[H]

>  <index>  (152) 
1948

>  <∆∆G>  (152) 
-5.941979

>  <∆G_bound>  (152) 
-5.769866

>  <∆G_unbound>  (152) 
0.172113

>  <comRMSD>  (152) 
0.923313

>  <N_constrained_atoms>  (152) 
16.0

>  <N_unconstrained_atoms>  (152) 
2.0

>  <runtime>  (152) 
29.156069

>  <LE>  (152) 
0.33011

>  <percent_hybrid>  (152) 
34.0

>  <dist>  (152) 
7.0

>  <ecfp4>  (152) 
0.241935

>  <daylight>  (152) 
0.44

>  <topodist>  (152) 
4.0

>  <mces>  (152) 
16.0

>  <tdn>  (152) 
4.0

>  <tup>  (152) 
0.0

>  <rdn>  (152) 
0.0

>  <rup>  (152) 
0.0

>  <ldn>  (152) 
0.0

>  <lup>  (152) 
0.0

>  <mut>  (152) 
3.0

>  <maj>  (152) 
3.0

>  <min>  (152) 
0.0

>  <hyb>  (152) 
0.0

>  <sub>  (152) 
2.0

>  <query_index>  (152) 
92.0

>  <max_hit_Tanimoto>  (152) 
0.229478

>  <largest_ring>  (152) 
6

>  <N_interactions_kept>  (152) 
2.0

>  <N_interactions_lost>  (152) 
2.0

>  <interaction_uniqueness_metric>  (152) 
0.081931

>  <ad_hoc_penalty>  (152) 
-4.386778

>  <N_rotatable_bonds>  (152) 
3

>  <N_HA>  (152) 
15

>  <cluster>  (152) 
4433

>  <N_interactions>  (152) 
4

>  <Enamine>  (152) 
1

>  <Mcule>  (152) 
0

>  <N_PAINS>  (152) 
0

>  <UFF_Gibbs>  (152) 
127.608801

>  <strain_per_HA>  (152) 
8.507253

>  <intxn_scored>  (152) 
10.0

>  <saltbridge:HIS:51>  (152) 
0

>  <pistack:HIS:51>  (152) 
0

>  <hydroph_interaction:HIS:51>  (152) 
0

>  <hbond:ALA:132>  (152) 
0

>  <hbond:SER:135>  (152) 
0

>  <hydroph_interaction:TYR:150>  (152) 
0

>  <pistack:TYR:161>  (152) 
2

>  <hydroph_interaction:TYR:161>  (152) 
0

>  <hydroph_interaction:ASP:83>  (152) 
0

>  <hbond:TYR:130>  (152) 
1

>  <hydroph_interaction:ALA:132>  (152) 
0

>  <hbond:HIS:51>  (152) 
0

>  <hbond:ASP:129>  (152) 
1

>  <hbond:TYR:150>  (152) 
0

>  <hbond:GLY:151>  (152) 
0

>  <hbond:TYR:161>  (152) 
0

>  <hydroph_interaction:TYR:130>  (152) 
0

>  <hydroph_interaction:PRO:131>  (152) 
0

>  <hydroph_interaction:ASP:129>  (152) 
0

>  <saltbridge:ASP:75>  (152) 
0

>  <saltbridge:ASP:83>  (152) 
0

>  <hbond:ASN:152>  (152) 
0

>  <hydroph_interaction:ASN:152>  (152) 
0

>  <halogenbond:TYR:150>  (152) 
0

>  <hbond:ASP:83>  (152) 
0

>  <hydroph_interaction:VAL:155>  (152) 
0

>  <pication:TYR:161>  (152) 
0

>  <hbond:PRO:131>  (152) 
0

>  <saltbridge:ASP:129>  (152) 
0

>  <hbond:THR:134>  (152) 
0

>  <pication:HIS:51>  (152) 
0

>  <hbond:SER:81>  (152) 
0

>  <hydroph_interaction:THR:134>  (152) 
0

>  <hydroph_interaction:MET:49>  (152) 
0

$$$$
CSSB00009889880
     RDKit          3D

 23 24  0  0  0  0  0  0  0  0999 V2000
  -10.1610    4.8580  -18.6490 C   0  0  0  0  0  0  0  0  0  0  0  0
   -8.9980    5.0220  -17.8370 N   0  0  0  0  0  0  0  0  0  0  0  0
   -8.9790    5.0320  -16.5020 C   0  0  0  0  0  0  0  0  0  0  0  0
   -7.7500    5.1880  -15.9340 C   0  0  0  0  0  0  0  0  0  0  0  0
   -7.5630    5.2090  -14.5530 C   0  0  0  0  0  0  0  0  0  0  0  0
   -7.7000    6.2030  -13.8440 O   0  0  0  0  0  0  0  0  0  0  0  0
   -6.8780    5.2890  -17.1010 C   0  0  0  0  0  0  0  0  0  0  0  0
   -5.4100    5.4540  -17.4150 C   0  0  0  0  0  0  0  0  0  0  0  0
   -4.5980    5.5310  -16.2660 C   0  0  0  0  0  0  0  0  0  0  0  0
   -4.9880    5.5090  -18.7450 C   0  0  0  0  0  0  0  0  0  0  0  0
   -5.9700    5.3990  -19.7520 C   0  0  0  0  0  0  0  0  0  0  0  0
   -7.2970    5.2410  -19.5500 N   0  0  0  0  0  0  0  0  0  0  0  0
   -7.6910    5.1910  -18.2570 C   0  0  0  0  0  0  0  0  0  0  0  0
  -11.0300    5.3080  -18.1620 H   0  0  0  0  0  0  0  0  0  0  0  0
  -10.3280    3.7900  -18.7620 H   0  0  0  0  0  0  0  0  0  0  0  0
  -10.0170    5.2870  -19.6490 H   0  0  0  0  0  0  0  0  0  0  0  0
   -9.8580    4.9200  -15.8530 H   0  0  0  0  0  0  0  0  0  0  0  0
   -7.2790    4.2740  -14.0700 H   0  0  0  0  0  0  0  0  0  0  0  0
   -3.6750    4.9780  -16.4610 H   0  0  0  0  0  0  0  0  0  0  0  0
   -5.0880    5.0050  -15.4390 H   0  0  0  0  0  0  0  0  0  0  0  0
   -4.3400    6.5070  -15.8770 H   0  0  0  0  0  0  0  0  0  0  0  0
   -3.9390    5.6310  -19.0080 H   0  0  0  0  0  0  0  0  0  0  0  0
   -5.6790    5.4380  -20.8000 H   0  0  0  0  0  0  0  0  0  0  0  0
  1  2  1  0
  2  3  1  0
  3  4  2  0
  4  5  1  0
  5  6  2  0
  4  7  1  0
  7  8  2  0
  8  9  1  0
  8 10  1  0
 10 11  2  0
 11 12  1  0
 12 13  2  0
 13  2  1  0
 13  7  1  0
  1 14  1  0
  1 15  1  0
  1 16  1  0
  3 17  1  0
  5 18  1  0
  9 19  1  0
  9 20  1  0
  9 21  1  0
 10 22  1  0
 11 23  1  0
A    1
 C1 
A    2
 N1 
A    3
 C2 
A    4
 C3 
A    5
 C4 
A    6
 O1 
A    7
 C5 
A    8
 C6 
A    9
 C7 
A   10
 C8 
A   11
 C9 
A   12
 N2 
A   13
 C10
A   14
 H1 
A   15
 H2 
A   16
 H3 
A   17
 H4 
A   18
 H5 
A   19
 H6 
A   20
 H7 
A   21
 H8 
A   22
 H9 
A   23
 H10
M  END
>  <ref_pdb>  (153) 
x0051_0B

>  <ref_mols>  (153) 
x0425_0B,x0687_0B

>  <original SMILES>  (153) 
[H]C(=O)c1c([H])n(C([H])([H])[H])c2nc([H])c([H])c(C([H])([H])[H])c12

>  <index>  (153) 
3469

>  <∆∆G>  (153) 
-6.589629

>  <∆G_bound>  (153) 
-6.131616

>  <∆G_unbound>  (153) 
0.458013

>  <comRMSD>  (153) 
0.904686

>  <N_constrained_atoms>  (153) 
15.0

>  <N_unconstrained_atoms>  (153) 
0.0

>  <runtime>  (153) 
20.364029

>  <LE>  (153) 
0.439309

>  <percent_hybrid>  (153) 
50.0

>  <dist>  (153) 
4.0

>  <ecfp4>  (153) 
0.333333

>  <daylight>  (153) 
0.143564

>  <topodist>  (153) 
3.0

>  <mces>  (153) 
13.0

>  <tdn>  (153) 
1.0

>  <tup>  (153) 
1.0

>  <rdn>  (153) 
0.0

>  <rup>  (153) 
0.0

>  <ldn>  (153) 
1.0

>  <lup>  (153) 
0.0

>  <mut>  (153) 
0.0

>  <maj>  (153) 
0.0

>  <min>  (153) 
0.0

>  <hyb>  (153) 
1.0

>  <sub>  (153) 
1.0

>  <query_index>  (153) 
169.0

>  <max_hit_Tanimoto>  (153) 
0.167776

>  <largest_ring>  (153) 
6

>  <N_interactions_kept>  (153) 
1.5

>  <N_interactions_lost>  (153) 
3.0

>  <interaction_uniqueness_metric>  (153) 
0.031777

>  <ad_hoc_penalty>  (153) 
-0.961518

>  <N_rotatable_bonds>  (153) 
3

>  <N_HA>  (153) 
13

>  <cluster>  (153) 
3002

>  <N_interactions>  (153) 
4

>  <Enamine>  (153) 
1

>  <Mcule>  (153) 
0

>  <N_PAINS>  (153) 
0

>  <UFF_Gibbs>  (153) 
46.93899

>  <strain_per_HA>  (153) 
3.610692

>  <intxn_scored>  (153) 
10.0

>  <saltbridge:HIS:51>  (153) 
0

>  <pistack:HIS:51>  (153) 
0

>  <hydroph_interaction:HIS:51>  (153) 
0

>  <hbond:ALA:132>  (153) 
0

>  <hbond:SER:135>  (153) 
0

>  <hydroph_interaction:TYR:150>  (153) 
0

>  <pistack:TYR:161>  (153) 
2

>  <hydroph_interaction:TYR:161>  (153) 
2

>  <hydroph_interaction:ASP:83>  (153) 
0

>  <hbond:TYR:130>  (153) 
0

>  <hydroph_interaction:ALA:132>  (153) 
0

>  <hbond:HIS:51>  (153) 
0

>  <hbond:ASP:129>  (153) 
0

>  <hbond:TYR:150>  (153) 
0

>  <hbond:GLY:151>  (153) 
0

>  <hbond:TYR:161>  (153) 
0

>  <hydroph_interaction:TYR:130>  (153) 
0

>  <hydroph_interaction:PRO:131>  (153) 
0

>  <hydroph_interaction:ASP:129>  (153) 
0

>  <saltbridge:ASP:75>  (153) 
0

>  <saltbridge:ASP:83>  (153) 
0

>  <hbond:ASN:152>  (153) 
0

>  <hydroph_interaction:ASN:152>  (153) 
0

>  <halogenbond:TYR:150>  (153) 
0

>  <hbond:ASP:83>  (153) 
0

>  <hydroph_interaction:VAL:155>  (153) 
0

>  <pication:TYR:161>  (153) 
0

>  <hbond:PRO:131>  (153) 
0

>  <saltbridge:ASP:129>  (153) 
0

>  <hbond:THR:134>  (153) 
0

>  <pication:HIS:51>  (153) 
0

>  <hbond:SER:81>  (153) 
0

>  <hydroph_interaction:THR:134>  (153) 
0

>  <hydroph_interaction:MET:49>  (153) 
0

$$$$
PV-002361345507
     RDKit          3D

 31 32  0  0  0  0  0  0  0  0999 V2000
  -10.9740    4.7150  -18.0560 C   0  0  0  0  0  0  0  0  0  0  0  0
   -9.6230    4.8440  -18.0590 C   0  0  0  0  0  0  0  0  0  0  0  0
   -8.9560    4.9350  -16.8410 C   0  0  0  0  0  0  0  0  0  0  0  0
   -7.5760    5.0940  -16.7630 C   0  0  0  0  0  0  0  0  0  0  0  0
   -6.8900    5.1930  -15.4290 C   0  0  0  0  0  0  0  0  0  0  0  0
   -6.8740    5.1610  -17.9910 C   0  0  0  0  0  0  0  0  0  0  0  0
   -5.5220    5.3280  -18.1450 N   0  0  0  0  0  0  0  0  0  0  0  0
   -5.2360    5.3400  -19.4220 C   0  0  0  0  0  0  0  0  0  0  0  0
   -3.9400    5.4960  -19.9820 N   0  0  0  0  0  0  0  0  0  0  0  0
   -2.7900    5.4090  -19.1130 C   0  0  1  0  0  0  0  0  0  0  0  0
   -1.8310    4.6030  -19.7480 C   0  0  0  0  0  0  0  0  0  0  0  0
   -2.2330    6.8100  -18.8400 C   0  0  0  0  0  0  0  0  0  0  0  0
   -1.7200    7.3240  -19.9970 F   0  0  0  0  0  0  0  0  0  0  0  0
   -6.5150    5.1520  -20.5170 S   0  0  0  0  0  0  0  0  0  0  0  0
   -7.5680    5.0550  -19.1960 C   0  0  0  0  0  0  0  0  0  0  0  0
   -8.9940    4.8900  -19.2580 C   0  0  0  0  0  0  0  0  0  0  0  0
  -11.4570    5.6550  -18.3090 H   0  0  0  0  0  0  0  0  0  0  0  0
  -11.3360    3.9830  -18.7020 H   0  0  0  0  0  0  0  0  0  0  0  0
  -11.2370    4.4090  -17.0700 H   0  0  0  0  0  0  0  0  0  0  0  0
   -9.5790    4.8790  -15.9450 H   0  0  0  0  0  0  0  0  0  0  0  0
   -5.8230    4.9800  -15.5440 H   0  0  0  0  0  0  0  0  0  0  0  0
   -6.9680    6.2250  -15.0740 H   0  0  0  0  0  0  0  0  0  0  0  0
   -7.2420    4.5470  -14.6300 H   0  0  0  0  0  0  0  0  0  0  0  0
   -3.8700    6.1650  -20.7420 H   0  0  0  0  0  0  0  0  0  0  0  0
   -3.0530    4.9210  -18.1640 H   0  0  0  0  0  0  0  0  0  0  0  0
   -1.9560    3.5530  -19.4850 H   0  0  0  0  0  0  0  0  0  0  0  0
   -0.8150    4.8940  -19.4590 H   0  0  0  0  0  0  0  0  0  0  0  0
   -1.9070    4.6720  -20.8400 H   0  0  0  0  0  0  0  0  0  0  0  0
   -1.4250    6.7940  -18.1050 H   0  0  0  0  0  0  0  0  0  0  0  0
   -3.0160    7.4890  -18.4940 H   0  0  0  0  0  0  0  0  0  0  0  0
   -9.5200    4.8160  -20.2020 H   0  0  0  0  0  0  0  0  0  0  0  0
  1  2  1  0
  2  3  2  0
  3  4  1  0
  4  5  1  0
  4  6  2  0
  6  7  1  0
  7  8  2  0
  8  9  1  0
  9 10  1  0
 10 11  1  0
 10 12  1  0
 12 13  1  0
  8 14  1  0
 14 15  1  0
 15 16  2  0
 16  2  1  0
 15  6  1  0
  1 17  1  0
  1 18  1  0
  1 19  1  0
  3 20  1  0
  5 21  1  0
  5 22  1  0
  5 23  1  0
  9 24  1  0
 10 25  1  1
 11 26  1  0
 11 27  1  0
 11 28  1  0
 12 29  1  0
 12 30  1  0
 16 31  1  0
A    1
 C1 
A    2
 C2 
A    3
 C3 
A    4
 C4 
A    5
 C5 
A    6
 C6 
A    7
 N1 
A    8
 C7 
A    9
 N2 
A   10
 C8 
A   11
 C9 
A   12
 C10
A   13
 F1 
A   14
 S1 
A   15
 C11
A   16
 C12
A   17
 H1 
A   18
 H2 
A   19
 H3 
A   20
 H4 
A   21
 H5 
A   22
 H6 
A   23
 H7 
A   24
 H8 
A   25
 H9 
A   26
 H10
A   27
 H11
A   28
 H12
A   29
 H13
A   30
 H14
A   31
 H15
M  END
>  <ref_pdb>  (154) 
x0051_0B

>  <ref_mols>  (154) 
x0089_0B,x0605_0B

>  <original SMILES>  (154) 
[H]c1c(C([H])([H])[H])c([H])c2sc(N([H])[C@@]([H])(C([H])([H])[H])C([H])([H])F)nc2c1C([H])([H])[H]

>  <index>  (154) 
2582

>  <∆∆G>  (154) 
-7.920918

>  <∆G_bound>  (154) 
-7.716164

>  <∆G_unbound>  (154) 
0.204753

>  <comRMSD>  (154) 
0.836768

>  <N_constrained_atoms>  (154) 
15.0

>  <N_unconstrained_atoms>  (154) 
2.0

>  <runtime>  (154) 
30.689141

>  <LE>  (154) 
0.465936

>  <percent_hybrid>  (154) 
25.0

>  <dist>  (154) 
3.0

>  <ecfp4>  (154) 
0.327273

>  <daylight>  (154) 
0.37013

>  <topodist>  (154) 
1.0

>  <mces>  (154) 
16.0

>  <tdn>  (154) 
0.0

>  <tup>  (154) 
1.0

>  <rdn>  (154) 
0.0

>  <rup>  (154) 
0.0

>  <ldn>  (154) 
0.0

>  <lup>  (154) 
0.0

>  <mut>  (154) 
1.0

>  <maj>  (154) 
1.0

>  <min>  (154) 
0.0

>  <hyb>  (154) 
1.0

>  <sub>  (154) 
1.0

>  <query_index>  (154) 
118.0

>  <max_hit_Tanimoto>  (154) 
0.212821

>  <largest_ring>  (154) 
6

>  <N_interactions_kept>  (154) 
1.0

>  <N_interactions_lost>  (154) 
2.5

>  <interaction_uniqueness_metric>  (154) 
0.064945

>  <ad_hoc_penalty>  (154) 
-6.445739

>  <N_rotatable_bonds>  (154) 
6

>  <N_HA>  (154) 
16

>  <cluster>  (154) 
392

>  <N_interactions>  (154) 
5

>  <Enamine>  (154) 
1

>  <Mcule>  (154) 
0

>  <N_PAINS>  (154) 
0

>  <UFF_Gibbs>  (154) 
45.259786

>  <strain_per_HA>  (154) 
2.828737

>  <intxn_scored>  (154) 
10.0

>  <saltbridge:HIS:51>  (154) 
0

>  <pistack:HIS:51>  (154) 
0

>  <hydroph_interaction:HIS:51>  (154) 
0

>  <hbond:ALA:132>  (154) 
0

>  <hbond:SER:135>  (154) 
0

>  <hydroph_interaction:TYR:150>  (154) 
0

>  <pistack:TYR:161>  (154) 
2

>  <hydroph_interaction:TYR:161>  (154) 
2

>  <hydroph_interaction:ASP:83>  (154) 
0

>  <hbond:TYR:130>  (154) 
0

>  <hydroph_interaction:ALA:132>  (154) 
0

>  <hbond:HIS:51>  (154) 
0

>  <hbond:ASP:129>  (154) 
0

>  <hbond:TYR:150>  (154) 
0

>  <hbond:GLY:151>  (154) 
0

>  <hbond:TYR:161>  (154) 
0

>  <hydroph_interaction:TYR:130>  (154) 
0

>  <hydroph_interaction:PRO:131>  (154) 
0

>  <hydroph_interaction:ASP:129>  (154) 
0

>  <saltbridge:ASP:75>  (154) 
0

>  <saltbridge:ASP:83>  (154) 
0

>  <hbond:ASN:152>  (154) 
0

>  <hydroph_interaction:ASN:152>  (154) 
0

>  <halogenbond:TYR:150>  (154) 
0

>  <hbond:ASP:83>  (154) 
0

>  <hydroph_interaction:VAL:155>  (154) 
1

>  <pication:TYR:161>  (154) 
0

>  <hbond:PRO:131>  (154) 
0

>  <saltbridge:ASP:129>  (154) 
0

>  <hbond:THR:134>  (154) 
0

>  <pication:HIS:51>  (154) 
0

>  <hbond:SER:81>  (154) 
0

>  <hydroph_interaction:THR:134>  (154) 
0

>  <hydroph_interaction:MET:49>  (154) 
0

$$$$
CSCS03437708496
     RDKit          3D

 36 38  0  0  0  0  0  0  0  0999 V2000
   -9.4370    6.6730  -13.2930 C   0  0  0  0  0  0  0  0  0  0  0  0
   -9.1520    5.8190  -14.4210 N   0  0  0  0  0  0  0  0  0  0  0  0
   -8.0680    6.0070  -15.2350 C   0  0  0  0  0  0  0  0  0  0  0  0
   -6.9900    6.4570  -14.8940 O   0  0  0  0  0  0  0  0  0  0  0  0
   -8.3260    5.5460  -16.6640 C   0  0  0  0  0  0  0  0  0  0  0  0
   -9.5290    4.8740  -16.8890 C   0  0  0  0  0  0  0  0  0  0  0  0
   -9.8260    4.4040  -18.1620 C   0  0  0  0  0  0  0  0  0  0  0  0
   -8.9430    4.5520  -19.1890 C   0  0  0  0  0  0  0  0  0  0  0  0
   -7.7530    5.2080  -19.0040 C   0  0  0  0  0  0  0  0  0  0  0  0
   -6.9290    5.3000  -20.1120 C   0  0  0  0  0  0  0  0  0  0  0  0
   -5.7200    5.9460  -20.1270 C   0  0  0  0  0  0  0  0  0  0  0  0
   -5.3820    6.5440  -18.9100 C   0  0  0  0  0  0  0  0  0  0  0  0
   -6.1850    6.4750  -17.7660 C   0  0  0  0  0  0  0  0  0  0  0  0
   -5.5450    7.4100  -16.3850 S   0  0  0  0  0  0  0  0  0  0  0  0
   -4.4750    6.3020  -15.6320 C   0  0  0  0  0  0  0  0  0  0  0  0
   -4.1520    6.4480  -14.1740 C   0  0  0  0  0  0  0  0  0  0  0  0
   -3.2820    5.4970  -13.6790 C   0  0  0  0  0  0  0  0  0  0  0  0
   -2.7440    4.4820  -14.4800 C   0  0  0  0  0  0  0  0  0  0  0  0
   -3.0930    4.4170  -15.8320 C   0  0  0  0  0  0  0  0  0  0  0  0
   -3.9430    5.3080  -16.4020 C   0  0  0  0  0  0  0  0  0  0  0  0
   -7.4050    5.7640  -17.7490 C   0  0  0  0  0  0  0  0  0  0  0  0
   -9.5140    6.0670  -12.3840 H   0  0  0  0  0  0  0  0  0  0  0  0
  -10.3890    7.1870  -13.4590 H   0  0  0  0  0  0  0  0  0  0  0  0
   -8.6480    7.4220  -13.1620 H   0  0  0  0  0  0  0  0  0  0  0  0
   -9.6770    4.9570  -14.5150 H   0  0  0  0  0  0  0  0  0  0  0  0
  -10.2310    4.7240  -16.0750 H   0  0  0  0  0  0  0  0  0  0  0  0
  -10.7550    3.9150  -18.3430 H   0  0  0  0  0  0  0  0  0  0  0  0
   -9.1990    4.1510  -20.1640 H   0  0  0  0  0  0  0  0  0  0  0  0
   -7.2460    4.8380  -21.0440 H   0  0  0  0  0  0  0  0  0  0  0  0
   -5.0910    6.0010  -21.0050 H   0  0  0  0  0  0  0  0  0  0  0  0
   -4.4440    7.0930  -18.8730 H   0  0  0  0  0  0  0  0  0  0  0  0
   -4.5640    7.2340  -13.5430 H   0  0  0  0  0  0  0  0  0  0  0  0
   -3.0060    5.5420  -12.6280 H   0  0  0  0  0  0  0  0  0  0  0  0
   -2.0610    3.7490  -14.0520 H   0  0  0  0  0  0  0  0  0  0  0  0
   -2.6810    3.6410  -16.4450 H   0  0  0  0  0  0  0  0  0  0  0  0
   -4.1890    5.2190  -17.4560 H   0  0  0  0  0  0  0  0  0  0  0  0
  1  2  1  0
  2  3  1  0
  3  4  2  0
  3  5  1  0
  5  6  2  0
  6  7  1  0
  7  8  2  0
  8  9  1  0
  9 10  2  0
 10 11  1  0
 11 12  2  0
 12 13  1  0
 13 14  1  0
 14 15  1  0
 15 16  2  0
 16 17  1  0
 17 18  2  0
 18 19  1  0
 19 20  2  0
 13 21  2  0
 21  5  1  0
 21  9  1  0
 20 15  1  0
  1 22  1  0
  1 23  1  0
  1 24  1  0
  2 25  1  0
  6 26  1  0
  7 27  1  0
  8 28  1  0
 10 29  1  0
 11 30  1  0
 12 31  1  0
 16 32  1  0
 17 33  1  0
 18 34  1  0
 19 35  1  0
 20 36  1  0
A    1
 C1 
A    2
 N1 
A    3
 C2 
A    4
 O1 
A    5
 C3 
A    6
 C4 
A    7
 C5 
A    8
 C6 
A    9
 C7 
A   10
 C8 
A   11
 C9 
A   12
 C10
A   13
 C11
A   14
 S1 
A   15
 C12
A   16
 C13
A   17
 C14
A   18
 C15
A   19
 C16
A   20
 C17
A   21
 C18
A   22
 H1 
A   23
 H2 
A   24
 H3 
A   25
 H4 
A   26
 H5 
A   27
 H6 
A   28
 H7 
A   29
 H8 
A   30
 H9 
A   31
 H10
A   32
 H11
A   33
 H12
A   34
 H13
A   35
 H14
A   36
 H15
M  END
>  <ref_pdb>  (155) 
x0051_0B

>  <ref_mols>  (155) 
x0429_0B,x0951_0B

>  <original SMILES>  (155) 
[H]c1c([H])c([H])c(Sc2c([H])c([H])c([H])c3c([H])c([H])c([H])c(C(=O)N([H])C([H])([H])[H])c23)c([H])c1[H]

>  <index>  (155) 
694

>  <∆∆G>  (155) 
-7.719077

>  <∆G_bound>  (155) 
-7.488991

>  <∆G_unbound>  (155) 
0.230086

>  <comRMSD>  (155) 
0.858048

>  <N_constrained_atoms>  (155) 
21.0

>  <N_unconstrained_atoms>  (155) 
1.0

>  <runtime>  (155) 
36.357926

>  <LE>  (155) 
0.350867

>  <percent_hybrid>  (155) 
36.0

>  <dist>  (155) 
12.0

>  <ecfp4>  (155) 
0.130435

>  <daylight>  (155) 
0.192771

>  <topodist>  (155) 
3.0

>  <mces>  (155) 
22.0

>  <tdn>  (155) 
0.0

>  <tup>  (155) 
0.0

>  <rdn>  (155) 
1.0

>  <rup>  (155) 
0.0

>  <ldn>  (155) 
1.0

>  <lup>  (155) 
1.0

>  <mut>  (155) 
3.0

>  <maj>  (155) 
3.0

>  <min>  (155) 
0.0

>  <hyb>  (155) 
6.0

>  <sub>  (155) 
0.0

>  <query_index>  (155) 
76.0

>  <max_hit_Tanimoto>  (155) 
0.176471

>  <largest_ring>  (155) 
6

>  <N_interactions_kept>  (155) 
0.0

>  <N_interactions_lost>  (155) 
3.0

>  <interaction_uniqueness_metric>  (155) 
0.135976

>  <ad_hoc_penalty>  (155) 
-16.345777

>  <N_rotatable_bonds>  (155) 
4

>  <N_HA>  (155) 
21

>  <cluster>  (155) 
5582

>  <N_interactions>  (155) 
7

>  <Enamine>  (155) 
1

>  <Mcule>  (155) 
0

>  <N_PAINS>  (155) 
0

>  <UFF_Gibbs>  (155) 
134.556491

>  <strain_per_HA>  (155) 
6.407452

>  <intxn_scored>  (155) 
10.0

>  <saltbridge:HIS:51>  (155) 
0

>  <pistack:HIS:51>  (155) 
0

>  <hydroph_interaction:HIS:51>  (155) 
0

>  <hbond:ALA:132>  (155) 
0

>  <hbond:SER:135>  (155) 
0

>  <hydroph_interaction:TYR:150>  (155) 
1

>  <pistack:TYR:161>  (155) 
2

>  <hydroph_interaction:TYR:161>  (155) 
1

>  <hydroph_interaction:ASP:83>  (155) 
0

>  <hbond:TYR:130>  (155) 
0

>  <hydroph_interaction:ALA:132>  (155) 
1

>  <hbond:HIS:51>  (155) 
0

>  <hbond:ASP:129>  (155) 
0

>  <hbond:TYR:150>  (155) 
0

>  <hbond:GLY:151>  (155) 
1

>  <hbond:TYR:161>  (155) 
0

>  <hydroph_interaction:TYR:130>  (155) 
0

>  <hydroph_interaction:PRO:131>  (155) 
0

>  <hydroph_interaction:ASP:129>  (155) 
0

>  <saltbridge:ASP:75>  (155) 
0

>  <saltbridge:ASP:83>  (155) 
0

>  <hbond:ASN:152>  (155) 
0

>  <hydroph_interaction:ASN:152>  (155) 
0

>  <halogenbond:TYR:150>  (155) 
0

>  <hbond:ASP:83>  (155) 
0

>  <hydroph_interaction:VAL:155>  (155) 
1

>  <pication:TYR:161>  (155) 
0

>  <hbond:PRO:131>  (155) 
0

>  <saltbridge:ASP:129>  (155) 
0

>  <hbond:THR:134>  (155) 
0

>  <pication:HIS:51>  (155) 
0

>  <hbond:SER:81>  (155) 
0

>  <hydroph_interaction:THR:134>  (155) 
0

>  <hydroph_interaction:MET:49>  (155) 
0

$$$$
CSCS00000078752
     RDKit          3D

 19 20  0  0  0  0  0  0  0  0999 V2000
   -8.0870    4.4420  -20.3700 C   0  0  0  0  0  0  0  0  0  0  0  0
   -7.8620    4.8580  -18.9490 C   0  0  0  0  0  0  0  0  0  0  0  0
   -9.0010    4.9740  -17.9920 C   0  0  0  0  0  0  0  0  0  0  0  0
   -8.4490    5.4390  -16.4620 S   0  0  0  0  0  0  0  0  0  0  0  0
   -6.8110    5.5160  -16.9930 C   0  0  0  0  0  0  0  0  0  0  0  0
   -5.6270    5.9000  -16.1310 C   0  0  0  0  0  0  0  0  0  0  0  0
   -4.2640    5.9050  -16.8210 C   0  0  0  0  0  0  0  0  0  0  0  0
   -4.2230    5.5550  -18.1770 C   0  0  0  0  0  0  0  0  0  0  0  0
   -5.3540    5.2100  -18.9080 C   0  0  0  0  0  0  0  0  0  0  0  0
   -6.6350    5.1860  -18.3390 C   0  0  0  0  0  0  0  0  0  0  0  0
  -10.3540    4.7590  -18.2670 C   0  0  0  0  0  0  0  0  0  0  0  0
  -11.4600    4.6790  -18.4840 N   0  0  0  0  0  0  0  0  0  0  0  0
   -7.9020    3.3910  -20.5140 H   0  0  0  0  0  0  0  0  0  0  0  0
   -9.1070    4.6580  -20.6920 H   0  0  0  0  0  0  0  0  0  0  0  0
   -7.3830    4.9660  -21.0140 H   0  0  0  0  0  0  0  0  0  0  0  0
   -5.7360    6.1590  -15.0810 H   0  0  0  0  0  0  0  0  0  0  0  0
   -3.3590    6.1690  -16.2790 H   0  0  0  0  0  0  0  0  0  0  0  0
   -3.2620    5.5510  -18.6860 H   0  0  0  0  0  0  0  0  0  0  0  0
   -5.2320    4.9510  -19.9580 H   0  0  0  0  0  0  0  0  0  0  0  0
  1  2  1  0
  2  3  2  0
  3  4  1  0
  4  5  1  0
  5  6  2  0
  6  7  1  0
  7  8  2  0
  8  9  1  0
  9 10  2  0
  3 11  1  0
 11 12  3  0
 10  2  1  0
 10  5  1  0
  1 13  1  0
  1 14  1  0
  1 15  1  0
  6 16  1  0
  7 17  1  0
  8 18  1  0
  9 19  1  0
A    1
 C1 
A    2
 C2 
A    3
 C3 
A    4
 S1 
A    5
 C4 
A    6
 C5 
A    7
 C6 
A    8
 C7 
A    9
 C8 
A   10
 C9 
A   11
 C10
A   12
 N1 
A   13
 H1 
A   14
 H2 
A   15
 H3 
A   16
 H4 
A   17
 H5 
A   18
 H6 
A   19
 H7 
M  END
>  <ref_pdb>  (156) 
x0051_0B

>  <ref_mols>  (156) 
x0051_0B,x0553_0B

>  <original SMILES>  (156) 
[H]c1c([H])c([H])c2c(C([H])([H])[H])c(C#N)sc2c1[H]

>  <index>  (156) 
2307

>  <∆∆G>  (156) 
-5.261864

>  <∆G_bound>  (156) 
-5.313717

>  <∆G_unbound>  (156) 
-0.051853

>  <comRMSD>  (156) 
0.573491

>  <N_constrained_atoms>  (156) 
12.0

>  <N_unconstrained_atoms>  (156) 
1.0

>  <runtime>  (156) 
24.494991

>  <LE>  (156) 
0.404759

>  <percent_hybrid>  (156) 
20.0

>  <dist>  (156) 
4.0

>  <ecfp4>  (156) 
0.291667

>  <daylight>  (156) 
0.266187

>  <topodist>  (156) 
3.0

>  <mces>  (156) 
12.0

>  <tdn>  (156) 
2.0

>  <tup>  (156) 
1.0

>  <rdn>  (156) 
0.0

>  <rup>  (156) 
0.0

>  <ldn>  (156) 
0.0

>  <lup>  (156) 
0.0

>  <mut>  (156) 
1.0

>  <maj>  (156) 
1.0

>  <min>  (156) 
0.0

>  <hyb>  (156) 
0.0

>  <sub>  (156) 
1.0

>  <query_index>  (156) 
349.0

>  <max_hit_Tanimoto>  (156) 
0.161082

>  <largest_ring>  (156) 
6

>  <N_interactions_kept>  (156) 
1.0

>  <N_interactions_lost>  (156) 
2.5

>  <interaction_uniqueness_metric>  (156) 
0.031777

>  <ad_hoc_penalty>  (156) 
-8.29589

>  <N_rotatable_bonds>  (156) 
1

>  <N_HA>  (156) 
12

>  <cluster>  (156) 
4099

>  <N_interactions>  (156) 
4

>  <Enamine>  (156) 
1

>  <Mcule>  (156) 
0

>  <N_PAINS>  (156) 
0

>  <UFF_Gibbs>  (156) 
26.23594

>  <strain_per_HA>  (156) 
2.186328

>  <intxn_scored>  (156) 
10.0

>  <saltbridge:HIS:51>  (156) 
0

>  <pistack:HIS:51>  (156) 
0

>  <hydroph_interaction:HIS:51>  (156) 
0

>  <hbond:ALA:132>  (156) 
0

>  <hbond:SER:135>  (156) 
0

>  <hydroph_interaction:TYR:150>  (156) 
0

>  <pistack:TYR:161>  (156) 
2

>  <hydroph_interaction:TYR:161>  (156) 
2

>  <hydroph_interaction:ASP:83>  (156) 
0

>  <hbond:TYR:130>  (156) 
0

>  <hydroph_interaction:ALA:132>  (156) 
0

>  <hbond:HIS:51>  (156) 
0

>  <hbond:ASP:129>  (156) 
0

>  <hbond:TYR:150>  (156) 
0

>  <hbond:GLY:151>  (156) 
0

>  <hbond:TYR:161>  (156) 
0

>  <hydroph_interaction:TYR:130>  (156) 
0

>  <hydroph_interaction:PRO:131>  (156) 
0

>  <hydroph_interaction:ASP:129>  (156) 
0

>  <saltbridge:ASP:75>  (156) 
0

>  <saltbridge:ASP:83>  (156) 
0

>  <hbond:ASN:152>  (156) 
0

>  <hydroph_interaction:ASN:152>  (156) 
0

>  <halogenbond:TYR:150>  (156) 
0

>  <hbond:ASP:83>  (156) 
0

>  <hydroph_interaction:VAL:155>  (156) 
0

>  <pication:TYR:161>  (156) 
0

>  <hbond:PRO:131>  (156) 
0

>  <saltbridge:ASP:129>  (156) 
0

>  <hbond:THR:134>  (156) 
0

>  <pication:HIS:51>  (156) 
0

>  <hbond:SER:81>  (156) 
0

>  <hydroph_interaction:THR:134>  (156) 
0

>  <hydroph_interaction:MET:49>  (156) 
0

$$$$
CSSB00011620716
     RDKit          3D

 25 26  0  0  0  0  0  0  0  0999 V2000
   -3.5660    5.3500  -17.3350 C   0  0  0  0  0  0  0  0  0  0  0  0
   -5.0240    5.2740  -17.6660 C   0  0  0  0  0  0  0  0  0  0  0  0
   -5.9720    5.1960  -16.6490 C   0  0  0  0  0  0  0  0  0  0  0  0
   -5.5340    5.1930  -15.2050 C   0  0  0  0  0  0  0  0  0  0  0  0
   -7.3170    5.1120  -16.9240 C   0  0  0  0  0  0  0  0  0  0  0  0
   -8.1350    5.0390  -15.8740 N   0  0  0  0  0  0  0  0  0  0  0  0
   -9.4310    4.9390  -16.1060 C   0  0  0  0  0  0  0  0  0  0  0  0
   -9.9690    4.9000  -17.3640 C   0  0  0  0  0  0  0  0  0  0  0  0
   -9.1340    4.9820  -18.4560 C   0  0  0  0  0  0  0  0  0  0  0  0
   -9.7150    4.9550  -19.7340 N   0  0  0  0  0  0  0  0  0  0  0  0
   -7.7610    5.0940  -18.2560 C   0  0  0  0  0  0  0  0  0  0  0  0
   -6.8090    5.1870  -19.2880 C   0  0  0  0  0  0  0  0  0  0  0  0
   -5.4490    5.2750  -18.9960 C   0  0  0  0  0  0  0  0  0  0  0  0
   -3.3040    6.3480  -16.9720 H   0  0  0  0  0  0  0  0  0  0  0  0
   -3.3130    4.6020  -16.5760 H   0  0  0  0  0  0  0  0  0  0  0  0
   -2.9440    5.1520  -18.2160 H   0  0  0  0  0  0  0  0  0  0  0  0
   -6.2510    4.6740  -14.5600 H   0  0  0  0  0  0  0  0  0  0  0  0
   -4.5870    4.6590  -15.0760 H   0  0  0  0  0  0  0  0  0  0  0  0
   -5.4190    6.2210  -14.8510 H   0  0  0  0  0  0  0  0  0  0  0  0
  -10.0600    4.8790  -15.2200 H   0  0  0  0  0  0  0  0  0  0  0  0
  -11.0320    4.8100  -17.5140 H   0  0  0  0  0  0  0  0  0  0  0  0
   -9.1990    5.4850  -20.4410 H   0  0  0  0  0  0  0  0  0  0  0  0
  -10.6800    5.2850  -19.6890 H   0  0  0  0  0  0  0  0  0  0  0  0
   -7.1070    5.1830  -20.3330 H   0  0  0  0  0  0  0  0  0  0  0  0
   -4.7330    5.3380  -19.8130 H   0  0  0  0  0  0  0  0  0  0  0  0
  1  2  1  0
  2  3  2  0
  3  4  1  0
  3  5  1  0
  5  6  2  0
  6  7  1  0
  7  8  2  0
  8  9  1  0
  9 10  1  0
  9 11  2  0
 11 12  1  0
 12 13  2  0
 13  2  1  0
 11  5  1  0
  1 14  1  0
  1 15  1  0
  1 16  1  0
  4 17  1  0
  4 18  1  0
  4 19  1  0
  7 20  1  0
  8 21  1  0
 10 22  1  0
 10 23  1  0
 12 24  1  0
 13 25  1  0
A    1
 C1 
A    2
 C2 
A    3
 C3 
A    4
 C4 
A    5
 C5 
A    6
 N1 
A    7
 C6 
A    8
 C7 
A    9
 C8 
A   10
 N2 
A   11
 C9 
A   12
 C10
A   13
 C11
A   14
 H1 
A   15
 H2 
A   16
 H3 
A   17
 H4 
A   18
 H5 
A   19
 H6 
A   20
 H7 
A   21
 H8 
A   22
 H9 
A   23
 H10
A   24
 H11
A   25
 H12
M  END
>  <ref_pdb>  (157) 
x0051_0B

>  <ref_mols>  (157) 
x0425_0B,x0435_0B

>  <original SMILES>  (157) 
[H]c1nc2c(C([H])([H])[H])c(C([H])([H])[H])c([H])c([H])c2c(N([H])[H])c1[H]

>  <index>  (157) 
3016

>  <∆∆G>  (157) 
-6.27527

>  <∆G_bound>  (157) 
-6.365062

>  <∆G_unbound>  (157) 
-0.089792

>  <comRMSD>  (157) 
0.994547

>  <N_constrained_atoms>  (157) 
12.0

>  <N_unconstrained_atoms>  (157) 
3.0

>  <runtime>  (157) 
23.984012

>  <LE>  (157) 
0.418351

>  <percent_hybrid>  (157) 
34.0

>  <dist>  (157) 
2.0

>  <ecfp4>  (157) 
0.348837

>  <daylight>  (157) 
0.671233

>  <topodist>  (157) 
2.0

>  <mces>  (157) 
13.0

>  <tdn>  (157) 
0.0

>  <tup>  (157) 
1.0

>  <rdn>  (157) 
0.0

>  <rup>  (157) 
0.0

>  <ldn>  (157) 
1.0

>  <lup>  (157) 
0.0

>  <mut>  (157) 
0.0

>  <maj>  (157) 
0.0

>  <min>  (157) 
0.0

>  <hyb>  (157) 
0.0

>  <sub>  (157) 
1.0

>  <query_index>  (157) 
107.0

>  <max_hit_Tanimoto>  (157) 
0.178752

>  <largest_ring>  (157) 
6

>  <N_interactions_kept>  (157) 
0.0

>  <N_interactions_lost>  (157) 
3.5

>  <interaction_uniqueness_metric>  (157) 
0.056222

>  <ad_hoc_penalty>  (157) 
-5.218215

>  <N_rotatable_bonds>  (157) 
3

>  <N_HA>  (157) 
13

>  <cluster>  (157) 
3430

>  <N_interactions>  (157) 
6

>  <Enamine>  (157) 
1

>  <Mcule>  (157) 
0

>  <N_PAINS>  (157) 
0

>  <UFF_Gibbs>  (157) 
23.54028

>  <strain_per_HA>  (157) 
1.810791

>  <intxn_scored>  (157) 
10.0

>  <saltbridge:HIS:51>  (157) 
0

>  <pistack:HIS:51>  (157) 
0

>  <hydroph_interaction:HIS:51>  (157) 
0

>  <hbond:ALA:132>  (157) 
0

>  <hbond:SER:135>  (157) 
0

>  <hydroph_interaction:TYR:150>  (157) 
0

>  <pistack:TYR:161>  (157) 
1

>  <hydroph_interaction:TYR:161>  (157) 
4

>  <hydroph_interaction:ASP:83>  (157) 
0

>  <hbond:TYR:130>  (157) 
1

>  <hydroph_interaction:ALA:132>  (157) 
0

>  <hbond:HIS:51>  (157) 
0

>  <hbond:ASP:129>  (157) 
0

>  <hbond:TYR:150>  (157) 
0

>  <hbond:GLY:151>  (157) 
0

>  <hbond:TYR:161>  (157) 
0

>  <hydroph_interaction:TYR:130>  (157) 
0

>  <hydroph_interaction:PRO:131>  (157) 
0

>  <hydroph_interaction:ASP:129>  (157) 
0

>  <saltbridge:ASP:75>  (157) 
0

>  <saltbridge:ASP:83>  (157) 
0

>  <hbond:ASN:152>  (157) 
0

>  <hydroph_interaction:ASN:152>  (157) 
0

>  <halogenbond:TYR:150>  (157) 
0

>  <hbond:ASP:83>  (157) 
0

>  <hydroph_interaction:VAL:155>  (157) 
0

>  <pication:TYR:161>  (157) 
0

>  <hbond:PRO:131>  (157) 
0

>  <saltbridge:ASP:129>  (157) 
0

>  <hbond:THR:134>  (157) 
0

>  <pication:HIS:51>  (157) 
0

>  <hbond:SER:81>  (157) 
0

>  <hydroph_interaction:THR:134>  (157) 
0

>  <hydroph_interaction:MET:49>  (157) 
0

$$$$
Z4593446032
     RDKit          3D

 44 47  0  0  0  0  0  0  0  0999 V2000
  -10.1520    6.6760  -14.6750 C   0  0  0  0  0  0  0  0  0  0  0  0
   -9.1030    5.6800  -14.2200 C   0  0  0  0  0  0  0  0  0  0  0  0
   -8.5310    6.1140  -12.9220 N   0  0  0  0  0  0  0  0  0  0  0  0
   -8.3950    4.9640  -12.0530 C   0  0  0  0  0  0  0  0  0  0  0  0
   -8.5810    5.2340  -10.7470 C   0  0  0  0  0  0  0  0  0  0  0  0
   -8.8320    4.1940   -9.7600 C   0  0  0  0  0  0  0  0  0  0  0  0
   -8.9190    2.8290  -10.0100 C   0  0  0  0  0  0  0  0  0  0  0  0
   -8.8340    2.1540   -8.8310 N   0  0  0  0  0  0  0  0  0  0  0  0
   -9.6170    2.6140   -7.7010 C   0  0  0  0  0  0  0  0  0  0  0  0
   -9.2130    4.0450   -7.3450 C   0  0  0  0  0  0  0  0  0  0  0  0
   -8.9590    4.7920   -8.5610 N   0  0  0  0  0  0  0  0  0  0  0  0
   -8.8240    6.1390   -8.6210 N   0  0  0  0  0  0  0  0  0  0  0  0
   -8.6000    6.4100   -9.9420 C   0  0  0  0  0  0  0  0  0  0  0  0
   -8.1290    5.5810  -15.2490 C   0  0  0  0  0  0  0  0  0  0  0  0
   -6.7630    5.7790  -14.9720 C   0  0  0  0  0  0  0  0  0  0  0  0
   -5.6960    5.7130  -16.0470 C   0  0  0  0  0  0  0  0  0  0  0  0
   -6.0860    5.4500  -17.3560 C   0  0  0  0  0  0  0  0  0  0  0  0
   -7.5680    5.2360  -17.6020 C   0  0  0  0  0  0  0  0  0  0  0  0
   -7.9520    4.9550  -19.0340 C   0  0  0  0  0  0  0  0  0  0  0  0
   -9.2870    4.7440  -19.3080 C   0  0  0  0  0  0  0  0  0  0  0  0
  -10.2460    4.8140  -18.1320 C   0  0  0  0  0  0  0  0  0  0  0  0
   -9.8480    5.0770  -16.8610 N   0  0  0  0  0  0  0  0  0  0  0  0
   -8.5420    5.2930  -16.5730 C   0  0  0  0  0  0  0  0  0  0  0  0
   -9.8930    7.6820  -14.3320 H   0  0  0  0  0  0  0  0  0  0  0  0
  -11.1340    6.4310  -14.2680 H   0  0  0  0  0  0  0  0  0  0  0  0
  -10.2320    6.7050  -15.7630 H   0  0  0  0  0  0  0  0  0  0  0  0
   -9.5670    4.7020  -14.0670 H   0  0  0  0  0  0  0  0  0  0  0  0
   -7.5960    6.4810  -13.1120 H   0  0  0  0  0  0  0  0  0  0  0  0
   -9.0680    4.2200  -12.4820 H   0  0  0  0  0  0  0  0  0  0  0  0
   -7.3960    4.5250  -12.1670 H   0  0  0  0  0  0  0  0  0  0  0  0
   -8.1160    2.5160  -10.6900 H   0  0  0  0  0  0  0  0  0  0  0  0
   -9.8790    2.6010  -10.4880 H   0  0  0  0  0  0  0  0  0  0  0  0
   -9.0410    1.1740   -9.0120 H   0  0  0  0  0  0  0  0  0  0  0  0
  -10.6860    2.5920   -7.9430 H   0  0  0  0  0  0  0  0  0  0  0  0
   -9.4640    1.9390   -6.8610 H   0  0  0  0  0  0  0  0  0  0  0  0
   -9.9990    4.5300   -6.7520 H   0  0  0  0  0  0  0  0  0  0  0  0
   -8.2940    4.0290   -6.7460 H   0  0  0  0  0  0  0  0  0  0  0  0
   -8.4560    7.4470  -10.2600 H   0  0  0  0  0  0  0  0  0  0  0  0
   -6.4350    5.9960  -13.9520 H   0  0  0  0  0  0  0  0  0  0  0  0
   -4.6150    5.8540  -15.9290 H   0  0  0  0  0  0  0  0  0  0  0  0
   -5.3730    5.3940  -18.1770 H   0  0  0  0  0  0  0  0  0  0  0  0
   -7.1990    4.9170  -19.8290 H   0  0  0  0  0  0  0  0  0  0  0  0
   -9.6250    4.5400  -20.3140 H   0  0  0  0  0  0  0  0  0  0  0  0
  -11.3110    4.6580  -18.2670 H   0  0  0  0  0  0  0  0  0  0  0  0
  1  2  1  0
  2  3  1  0
  3  4  1  0
  4  5  1  0
  5  6  2  0
  6  7  1  0
  7  8  1  0
  8  9  1  0
  9 10  1  0
 10 11  1  0
 11 12  1  0
 12 13  2  0
  2 14  1  0
 14 15  2  0
 15 16  1  0
 16 17  2  0
 17 18  1  0
 18 19  2  0
 19 20  1  0
 20 21  2  0
 21 22  1  0
 22 23  2  0
 13  5  1  0
 11  6  1  0
 23 14  1  0
 23 18  1  0
  1 24  1  0
  1 25  1  0
  1 26  1  0
  2 27  1  0
  3 28  1  0
  4 29  1  0
  4 30  1  0
  7 31  1  0
  7 32  1  0
  8 33  1  0
  9 34  1  0
  9 35  1  0
 10 36  1  0
 10 37  1  0
 13 38  1  0
 15 39  1  0
 16 40  1  0
 17 41  1  0
 19 42  1  0
 20 43  1  0
 21 44  1  0
A    1
 C1 
A    2
 C2 
A    3
 N1 
A    4
 C3 
A    5
 C4 
A    6
 C5 
A    7
 C6 
A    8
 N2 
A    9
 C7 
A   10
 C8 
A   11
 N3 
A   12
 N4 
A   13
 C9 
A   14
 C10
A   15
 C11
A   16
 C12
A   17
 C13
A   18
 C14
A   19
 C15
A   20
 C16
A   21
 C17
A   22
 N5 
A   23
 C18
A   24
 H1 
A   25
 H2 
A   26
 H3 
A   27
 H4 
A   28
 H5 
A   29
 H6 
A   30
 H7 
A   31
 H8 
A   32
 H9 
A   33
 H10
A   34
 H11
A   35
 H12
A   36
 H13
A   37
 H14
A   38
 H15
A   39
 H16
A   40
 H17
A   41
 H18
A   42
 H19
A   43
 H20
A   44
 H21
M  END
>  <ref_pdb>  (158) 
x0051_0B

>  <ref_mols>  (158) 
x0969_1B,x0455_0B

>  <original SMILES>  (158) 
[H]c1nc2c(C([H])(N([H])C([H])([H])c3c([H])nn4c3C([H])([H])N([H])C([H])([H])C4([H])[H])C([H])([H])[H])c([H])c([H])c([H])c2c([H])c1[H]

>  <index>  (158) 
572

>  <∆∆G>  (158) 
-7.673899

>  <∆G_bound>  (158) 
-7.45313

>  <∆G_unbound>  (158) 
0.22077

>  <comRMSD>  (158) 
0.426445

>  <N_constrained_atoms>  (158) 
20.0

>  <N_unconstrained_atoms>  (158) 
3.0

>  <runtime>  (158) 
51.343189

>  <LE>  (158) 
0.333648

>  <percent_hybrid>  (158) 
50.0

>  <dist>  (158) 
6.0

>  <ecfp4>  (158) 
0.452055

>  <daylight>  (158) 
0.43771

>  <topodist>  (158) 
1.0

>  <mces>  (158) 
25.0

>  <tdn>  (158) 
0.0

>  <tup>  (158) 
1.0

>  <rdn>  (158) 
0.0

>  <rup>  (158) 
0.0

>  <ldn>  (158) 
0.0

>  <lup>  (158) 
0.0

>  <mut>  (158) 
2.0

>  <maj>  (158) 
2.0

>  <min>  (158) 
0.0

>  <hyb>  (158) 
3.0

>  <sub>  (158) 
1.0

>  <query_index>  (158) 
204.0

>  <max_hit_Tanimoto>  (158) 
0.517014

>  <largest_ring>  (158) 
6

>  <N_interactions_kept>  (158) 
0.5

>  <N_interactions_lost>  (158) 
2.0

>  <interaction_uniqueness_metric>  (158) 
0.214376

>  <ad_hoc_penalty>  (158) 
-14.876083

>  <N_rotatable_bonds>  (158) 
5

>  <N_HA>  (158) 
23

>  <cluster>  (158) 
5694

>  <N_interactions>  (158) 
6

>  <Enamine>  (158) 
1

>  <Mcule>  (158) 
0

>  <N_PAINS>  (158) 
0

>  <UFF_Gibbs>  (158) 
240.353507

>  <strain_per_HA>  (158) 
10.450152

>  <intxn_scored>  (158) 
10.0

>  <saltbridge:HIS:51>  (158) 
0

>  <pistack:HIS:51>  (158) 
1

>  <hydroph_interaction:HIS:51>  (158) 
0

>  <hbond:ALA:132>  (158) 
0

>  <hbond:SER:135>  (158) 
0

>  <hydroph_interaction:TYR:150>  (158) 
1

>  <pistack:TYR:161>  (158) 
1

>  <hydroph_interaction:TYR:161>  (158) 
1

>  <hydroph_interaction:ASP:83>  (158) 
0

>  <hbond:TYR:130>  (158) 
0

>  <hydroph_interaction:ALA:132>  (158) 
1

>  <hbond:HIS:51>  (158) 
0

>  <hbond:ASP:129>  (158) 
0

>  <hbond:TYR:150>  (158) 
0

>  <hbond:GLY:151>  (158) 
0

>  <hbond:TYR:161>  (158) 
0

>  <hydroph_interaction:TYR:130>  (158) 
0

>  <hydroph_interaction:PRO:131>  (158) 
0

>  <hydroph_interaction:ASP:129>  (158) 
0

>  <saltbridge:ASP:75>  (158) 
0

>  <saltbridge:ASP:83>  (158) 
0

>  <hbond:ASN:152>  (158) 
0

>  <hydroph_interaction:ASN:152>  (158) 
0

>  <halogenbond:TYR:150>  (158) 
0

>  <hbond:ASP:83>  (158) 
1

>  <hydroph_interaction:VAL:155>  (158) 
0

>  <pication:TYR:161>  (158) 
0

>  <hbond:PRO:131>  (158) 
0

>  <saltbridge:ASP:129>  (158) 
0

>  <hbond:THR:134>  (158) 
0

>  <pication:HIS:51>  (158) 
0

>  <hbond:SER:81>  (158) 
0

>  <hydroph_interaction:THR:134>  (158) 
0

>  <hydroph_interaction:MET:49>  (158) 
0

$$$$
PV-005060897018
     RDKit          3D

 27 28  0  0  0  0  0  0  0  0999 V2000
   -9.3680    6.1140  -13.4130 C   0  0  0  0  0  0  0  0  0  0  0  0
   -8.5820    5.1670  -14.1730 N   0  0  0  0  0  0  0  0  0  0  0  0
   -7.8770    5.6560  -15.2200 C   0  0  0  0  0  0  0  0  0  0  0  0
   -6.4170    5.2520  -15.1440 C   0  0  0  0  0  0  0  0  0  0  0  0
   -5.4290    5.3560  -16.3220 C   0  0  0  0  0  0  0  0  0  0  0  0
   -6.2410    5.9080  -17.4480 C   0  0  0  0  0  0  0  0  0  0  0  0
   -7.5420    5.4630  -17.6790 C   0  0  0  0  0  0  0  0  0  0  0  0
   -7.9490    5.1840  -18.9730 C   0  0  0  0  0  0  0  0  0  0  0  0
   -9.2540    4.7460  -19.2040 C   0  0  0  0  0  0  0  0  0  0  0  0
  -10.1310    4.5940  -18.1460 C   0  0  0  0  0  0  0  0  0  0  0  0
   -9.7130    4.8710  -16.8470 C   0  0  0  0  0  0  0  0  0  0  0  0
   -8.4260    5.3110  -16.5980 C   0  0  0  0  0  0  0  0  0  0  0  0
   -8.8190    7.0530  -13.2960 H   0  0  0  0  0  0  0  0  0  0  0  0
  -10.3220    6.3290  -13.9060 H   0  0  0  0  0  0  0  0  0  0  0  0
   -9.5710    5.6990  -12.4190 H   0  0  0  0  0  0  0  0  0  0  0  0
   -9.0710    4.3070  -14.4920 H   0  0  0  0  0  0  0  0  0  0  0  0
   -7.9300    6.7500  -15.1520 H   0  0  0  0  0  0  0  0  0  0  0  0
   -5.9560    5.8230  -14.3310 H   0  0  0  0  0  0  0  0  0  0  0  0
   -6.3780    4.2100  -14.8090 H   0  0  0  0  0  0  0  0  0  0  0  0
   -4.6550    6.0790  -16.0440 H   0  0  0  0  0  0  0  0  0  0  0  0
   -4.9650    4.4070  -16.5820 H   0  0  0  0  0  0  0  0  0  0  0  0
   -5.6710    5.7590  -18.3710 H   0  0  0  0  0  0  0  0  0  0  0  0
   -6.2680    6.9940  -17.3100 H   0  0  0  0  0  0  0  0  0  0  0  0
   -7.2570    5.3050  -19.8020 H   0  0  0  0  0  0  0  0  0  0  0  0
   -9.5710    4.5300  -20.2180 H   0  0  0  0  0  0  0  0  0  0  0  0
  -11.1480    4.2580  -18.3310 H   0  0  0  0  0  0  0  0  0  0  0  0
  -10.4030    4.7450  -16.0220 H   0  0  0  0  0  0  0  0  0  0  0  0
  1  2  1  0
  2  3  1  0
  3  4  1  0
  4  5  1  0
  5  6  1  0
  6  7  1  0
  7  8  2  0
  8  9  1  0
  9 10  2  0
 10 11  1  0
 11 12  2  0
 12  3  1  0
 12  7  1  0
  1 13  1  0
  1 14  1  0
  1 15  1  0
  2 16  1  0
  3 17  1  0
  4 18  1  0
  4 19  1  0
  5 20  1  0
  5 21  1  0
  6 22  1  0
  6 23  1  0
  8 24  1  0
  9 25  1  0
 10 26  1  0
 11 27  1  0
A    1
 C1 
A    2
 N1 
A    3
 C2 
A    4
 C3 
A    5
 C4 
A    6
 C5 
A    7
 C6 
A    8
 C7 
A    9
 C8 
A   10
 C9 
A   11
 C10
A   12
 C11
A   13
 H1 
A   14
 H2 
A   15
 H3 
A   16
 H4 
A   17
 H5 
A   18
 H6 
A   19
 H7 
A   20
 H8 
A   21
 H9 
A   22
 H10
A   23
 H11
A   24
 H12
A   25
 H13
A   26
 H14
A   27
 H15
M  END
>  <ref_pdb>  (159) 
x0051_0B

>  <ref_mols>  (159) 
x0455_0B,x0951_0B

>  <original SMILES>  (159) 
[H]c1c([H])c([H])c2c(c1[H])C([H])([H])C([H])([H])C([H])([H])C2([H])N([H])C([H])([H])[H]

>  <index>  (159) 
611

>  <∆∆G>  (159) 
-6.403504

>  <∆G_bound>  (159) 
-6.347967

>  <∆G_unbound>  (159) 
0.055537

>  <comRMSD>  (159) 
0.655434

>  <N_constrained_atoms>  (159) 
14.0

>  <N_unconstrained_atoms>  (159) 
0.0

>  <runtime>  (159) 
28.121368

>  <LE>  (159) 
0.457393

>  <percent_hybrid>  (159) 
34.0

>  <dist>  (159) 
3.0

>  <ecfp4>  (159) 
0.2

>  <daylight>  (159) 
0.212903

>  <topodist>  (159) 
1.0

>  <mces>  (159) 
13.0

>  <tdn>  (159) 
0.0

>  <tup>  (159) 
0.0

>  <rdn>  (159) 
0.0

>  <rup>  (159) 
0.0

>  <ldn>  (159) 
1.0

>  <lup>  (159) 
0.0

>  <mut>  (159) 
2.0

>  <maj>  (159) 
2.0

>  <min>  (159) 
0.0

>  <hyb>  (159) 
0.0

>  <sub>  (159) 
0.0

>  <query_index>  (159) 
288.0

>  <max_hit_Tanimoto>  (159) 
0.158228

>  <largest_ring>  (159) 
6

>  <N_interactions_kept>  (159) 
0.0

>  <N_interactions_lost>  (159) 
2.5

>  <interaction_uniqueness_metric>  (159) 
0.119675

>  <ad_hoc_penalty>  (159) 
-20.400103

>  <N_rotatable_bonds>  (159) 
2

>  <N_HA>  (159) 
12

>  <cluster>  (159) 
5660

>  <N_interactions>  (159) 
6

>  <Enamine>  (159) 
1

>  <Mcule>  (159) 
0

>  <N_PAINS>  (159) 
0

>  <UFF_Gibbs>  (159) 
37.945667

>  <strain_per_HA>  (159) 
3.162139

>  <intxn_scored>  (159) 
10.0

>  <saltbridge:HIS:51>  (159) 
0

>  <pistack:HIS:51>  (159) 
0

>  <hydroph_interaction:HIS:51>  (159) 
0

>  <hbond:ALA:132>  (159) 
0

>  <hbond:SER:135>  (159) 
0

>  <hydroph_interaction:TYR:150>  (159) 
1

>  <pistack:TYR:161>  (159) 
1

>  <hydroph_interaction:TYR:161>  (159) 
1

>  <hydroph_interaction:ASP:83>  (159) 
0

>  <hbond:TYR:130>  (159) 
0

>  <hydroph_interaction:ALA:132>  (159) 
1

>  <hbond:HIS:51>  (159) 
0

>  <hbond:ASP:129>  (159) 
0

>  <hbond:TYR:150>  (159) 
0

>  <hbond:GLY:151>  (159) 
0

>  <hbond:TYR:161>  (159) 
2

>  <hydroph_interaction:TYR:130>  (159) 
0

>  <hydroph_interaction:PRO:131>  (159) 
0

>  <hydroph_interaction:ASP:129>  (159) 
0

>  <saltbridge:ASP:75>  (159) 
0

>  <saltbridge:ASP:83>  (159) 
0

>  <hbond:ASN:152>  (159) 
0

>  <hydroph_interaction:ASN:152>  (159) 
0

>  <halogenbond:TYR:150>  (159) 
0

>  <hbond:ASP:83>  (159) 
0

>  <hydroph_interaction:VAL:155>  (159) 
0

>  <pication:TYR:161>  (159) 
0

>  <hbond:PRO:131>  (159) 
0

>  <saltbridge:ASP:129>  (159) 
0

>  <hbond:THR:134>  (159) 
0

>  <pication:HIS:51>  (159) 
0

>  <hbond:SER:81>  (159) 
0

>  <hydroph_interaction:THR:134>  (159) 
0

>  <hydroph_interaction:MET:49>  (159) 
0

$$$$
Z2835582124
     RDKit          3D

 39 41  0  0  0  0  0  0  0  0999 V2000
   -5.2230    5.4280  -15.9390 C   0  0  0  0  0  0  0  0  0  0  0  0
   -6.6330    5.2780  -16.4500 C   0  0  0  0  0  0  0  0  0  0  0  0
   -6.6820    5.2960  -17.9590 C   0  0  0  0  0  0  0  0  0  0  0  0
   -8.0440    5.1450  -18.6050 C   0  0  0  0  0  0  0  0  0  0  0  0
   -9.1410    5.0020  -17.7860 C   0  0  0  0  0  0  0  0  0  0  0  0
  -10.5440    4.8560  -18.2580 C   0  0  0  0  0  0  0  0  0  0  0  0
  -11.5880    4.8210  -18.6230 N   0  0  0  0  0  0  0  0  0  0  0  0
   -9.0540    4.9930  -16.3820 C   0  0  0  0  0  0  0  0  0  0  0  0
   -7.7850    5.1340  -15.6500 C   0  0  0  0  0  0  0  0  0  0  0  0
   -7.6650    5.1280  -14.2880 N   0  0  0  0  0  0  0  0  0  0  0  0
   -8.3620    5.8790  -13.3040 C   0  0  0  0  0  0  0  0  0  0  0  0
   -8.6720    7.0600  -13.4270 O   0  0  0  0  0  0  0  0  0  0  0  0
   -8.6530    5.1200  -12.1680 N   0  0  0  0  0  0  0  0  0  0  0  0
   -8.7210    5.4920  -10.8310 C   0  0  0  0  0  0  0  0  0  0  0  0
   -8.8960    4.4220   -9.9890 C   0  0  0  0  0  0  0  0  0  0  0  0
   -9.0250    2.9590  -10.2390 C   0  0  0  0  0  0  0  0  0  0  0  0
   -8.6610    2.2270   -8.9520 C   0  0  0  0  0  0  0  0  0  0  0  0
   -9.4960    2.7180   -7.7890 C   0  0  0  0  0  0  0  0  0  0  0  0
   -9.1160    4.1610   -7.4800 C   0  0  0  0  0  0  0  0  0  0  0  0
   -8.9410    4.9310   -8.7080 N   0  0  0  0  0  0  0  0  0  0  0  0
   -8.8040    6.2740   -8.6770 N   0  0  0  0  0  0  0  0  0  0  0  0
   -8.6720    6.6250   -9.9810 C   0  0  0  0  0  0  0  0  0  0  0  0
   -5.0010    6.4830  -15.7560 H   0  0  0  0  0  0  0  0  0  0  0  0
   -4.5050    5.0490  -16.6710 H   0  0  0  0  0  0  0  0  0  0  0  0
   -5.0980    4.8560  -15.0130 H   0  0  0  0  0  0  0  0  0  0  0  0
   -5.7900    5.4090  -18.5730 H   0  0  0  0  0  0  0  0  0  0  0  0
   -8.1440    5.1520  -19.6890 H   0  0  0  0  0  0  0  0  0  0  0  0
   -9.9850    4.8750  -15.8330 H   0  0  0  0  0  0  0  0  0  0  0  0
   -6.9220    4.5590  -13.9210 H   0  0  0  0  0  0  0  0  0  0  0  0
   -8.7600    4.1270  -12.3080 H   0  0  0  0  0  0  0  0  0  0  0  0
  -10.0580    2.7260  -10.5240 H   0  0  0  0  0  0  0  0  0  0  0  0
   -8.3690    2.6350  -11.0560 H   0  0  0  0  0  0  0  0  0  0  0  0
   -7.6030    2.3950   -8.7380 H   0  0  0  0  0  0  0  0  0  0  0  0
   -8.7920    1.1620   -9.0650 H   0  0  0  0  0  0  0  0  0  0  0  0
   -9.3060    2.0830   -6.9180 H   0  0  0  0  0  0  0  0  0  0  0  0
  -10.5660    2.6450   -8.0190 H   0  0  0  0  0  0  0  0  0  0  0  0
   -9.8990    4.6560   -6.8950 H   0  0  0  0  0  0  0  0  0  0  0  0
   -8.1780    4.1950   -6.9170 H   0  0  0  0  0  0  0  0  0  0  0  0
   -8.5460    7.6680  -10.2380 H   0  0  0  0  0  0  0  0  0  0  0  0
  1  2  1  0
  2  3  2  0
  3  4  1  0
  4  5  2  0
  5  6  1  0
  6  7  3  0
  5  8  1  0
  8  9  2  0
  9 10  1  0
 10 11  1  0
 11 12  2  0
 11 13  1  0
 13 14  1  0
 14 15  2  0
 15 16  1  0
 16 17  1  0
 17 18  1  0
 18 19  1  0
 19 20  1  0
 20 21  1  0
 21 22  2  0
  9  2  1  0
 22 14  1  0
 20 15  1  0
  1 23  1  0
  1 24  1  0
  1 25  1  0
  3 26  1  0
  4 27  1  0
  8 28  1  0
 10 29  1  0
 13 30  1  0
 16 31  1  0
 16 32  1  0
 17 33  1  0
 17 34  1  0
 18 35  1  0
 18 36  1  0
 19 37  1  0
 19 38  1  0
 22 39  1  0
A    1
 C1 
A    2
 C2 
A    3
 C3 
A    4
 C4 
A    5
 C5 
A    6
 C6 
A    7
 N1 
A    8
 C7 
A    9
 C8 
A   10
 N2 
A   11
 C9 
A   12
 O1 
A   13
 N3 
A   14
 C10
A   15
 C11
A   16
 C12
A   17
 C13
A   18
 C14
A   19
 C15
A   20
 N4 
A   21
 N5 
A   22
 C16
A   23
 H1 
A   24
 H2 
A   25
 H3 
A   26
 H4 
A   27
 H5 
A   28
 H6 
A   29
 H7 
A   30
 H8 
A   31
 H9 
A   32
 H10
A   33
 H11
A   34
 H12
A   35
 H13
A   36
 H14
A   37
 H15
A   38
 H16
A   39
 H17
M  END
>  <ref_pdb>  (160) 
x0051_0B

>  <ref_mols>  (160) 
x0553_0B,x0969_1B

>  <original SMILES>  (160) 
[H]c1nn2c(c1N([H])C(=O)N([H])c1c([H])c(C#N)c([H])c([H])c1C([H])([H])[H])C([H])([H])C([H])([H])C([H])([H])C2([H])[H]

>  <index>  (160) 
280

>  <∆∆G>  (160) 
-5.754283

>  <∆G_bound>  (160) 
-5.052154

>  <∆G_unbound>  (160) 
0.702129

>  <comRMSD>  (160) 
0.504252

>  <N_constrained_atoms>  (160) 
19.0

>  <N_unconstrained_atoms>  (160) 
3.0

>  <runtime>  (160) 
60.016714

>  <LE>  (160) 
0.261558

>  <percent_hybrid>  (160) 
48.0

>  <dist>  (160) 
5.0

>  <ecfp4>  (160) 
0.445946

>  <daylight>  (160) 
0.259136

>  <topodist>  (160) 
1.0

>  <mces>  (160) 
23.0

>  <tdn>  (160) 
0.0

>  <tup>  (160) 
1.0

>  <rdn>  (160) 
0.0

>  <rup>  (160) 
0.0

>  <ldn>  (160) 
0.0

>  <lup>  (160) 
0.0

>  <mut>  (160) 
3.0

>  <maj>  (160) 
3.0

>  <min>  (160) 
0.0

>  <hyb>  (160) 
1.0

>  <sub>  (160) 
0.0

>  <query_index>  (160) 
375.0

>  <max_hit_Tanimoto>  (160) 
0.267992

>  <largest_ring>  (160) 
0

>  <N_interactions_kept>  (160) 
1.5

>  <N_interactions_lost>  (160) 
1.0

>  <interaction_uniqueness_metric>  (160) 
0.177326

>  <ad_hoc_penalty>  (160) 
-25.47197

>  <N_rotatable_bonds>  (160) 
3

>  <N_HA>  (160) 
22

>  <cluster>  (160) 
5960

>  <N_interactions>  (160) 
5

>  <Enamine>  (160) 
1

>  <Mcule>  (160) 
0

>  <N_PAINS>  (160) 
0

>  <UFF_Gibbs>  (160) 
85.91869

>  <strain_per_HA>  (160) 
3.905395

>  <intxn_scored>  (160) 
10.0

>  <saltbridge:HIS:51>  (160) 
0

>  <pistack:HIS:51>  (160) 
1

>  <hydroph_interaction:HIS:51>  (160) 
0

>  <hbond:ALA:132>  (160) 
0

>  <hbond:SER:135>  (160) 
0

>  <hydroph_interaction:TYR:150>  (160) 
0

>  <pistack:TYR:161>  (160) 
1

>  <hydroph_interaction:TYR:161>  (160) 
1

>  <hydroph_interaction:ASP:83>  (160) 
1

>  <hbond:TYR:130>  (160) 
0

>  <hydroph_interaction:ALA:132>  (160) 
0

>  <hbond:HIS:51>  (160) 
0

>  <hbond:ASP:129>  (160) 
0

>  <hbond:TYR:150>  (160) 
0

>  <hbond:GLY:151>  (160) 
0

>  <hbond:TYR:161>  (160) 
1

>  <hydroph_interaction:TYR:130>  (160) 
0

>  <hydroph_interaction:PRO:131>  (160) 
0

>  <hydroph_interaction:ASP:129>  (160) 
0

>  <saltbridge:ASP:75>  (160) 
0

>  <saltbridge:ASP:83>  (160) 
0

>  <hbond:ASN:152>  (160) 
0

>  <hydroph_interaction:ASN:152>  (160) 
0

>  <halogenbond:TYR:150>  (160) 
0

>  <hbond:ASP:83>  (160) 
0

>  <hydroph_interaction:VAL:155>  (160) 
0

>  <pication:TYR:161>  (160) 
0

>  <hbond:PRO:131>  (160) 
0

>  <saltbridge:ASP:129>  (160) 
0

>  <hbond:THR:134>  (160) 
0

>  <pication:HIS:51>  (160) 
0

>  <hbond:SER:81>  (160) 
0

>  <hydroph_interaction:THR:134>  (160) 
0

>  <hydroph_interaction:MET:49>  (160) 
0

$$$$
Z3512365069
     RDKit          3D

 52 54  0  0  0  0  0  0  0  0999 V2000
   -2.4010    5.0840  -21.9810 C   0  0  0  0  0  0  0  0  0  0  0  0
   -3.8000    4.9910  -21.6000 N   0  0  0  0  0  0  0  0  0  0  0  0
   -4.7760    5.6120  -22.4700 C   0  0  0  0  0  0  0  0  0  0  0  0
   -4.1680    5.3150  -20.3310 C   0  0  0  0  0  0  0  0  0  0  0  0
   -3.3780    5.2340  -19.3880 O   0  0  0  0  0  0  0  0  0  0  0  0
   -5.6000    5.7580  -20.0450 C   0  0  0  0  0  0  0  0  0  0  0  0
   -5.9580    5.7420  -18.6740 O   0  0  0  0  0  0  0  0  0  0  0  0
   -7.2370    5.4240  -18.3560 C   0  0  0  0  0  0  0  0  0  0  0  0
   -8.1590    4.8900  -19.2510 C   0  0  0  0  0  0  0  0  0  0  0  0
   -9.4340    4.6070  -18.8110 C   0  0  0  0  0  0  0  0  0  0  0  0
   -9.8010    4.8520  -17.4960 C   0  0  0  0  0  0  0  0  0  0  0  0
   -8.9030    5.3940  -16.5670 C   0  0  0  0  0  0  0  0  0  0  0  0
   -9.3030    5.6440  -15.2230 N   0  0  0  0  0  0  0  0  0  0  0  0
   -8.7930    6.5860  -14.3230 C   0  0  0  0  0  0  0  0  0  0  0  0
   -8.3050    7.6620  -14.5770 O   0  0  0  0  0  0  0  0  0  0  0  0
   -8.8520    6.1830  -12.9850 C   0  0  0  0  0  0  0  0  0  0  0  0
   -8.7580    7.1680  -11.8100 C   0  0  0  0  0  0  0  0  0  0  0  0
   -8.8550    6.4560  -10.4760 C   0  0  0  0  0  0  0  0  0  0  0  0
   -9.0140    5.0640  -10.3910 C   0  0  0  0  0  0  0  0  0  0  0  0
   -9.1230    4.4250   -9.1600 N   0  0  0  0  0  0  0  0  0  0  0  0
   -9.4170    2.9640   -9.2450 C   0  0  0  0  0  0  0  0  0  0  0  0
   -9.8850    2.3980   -7.9010 C   0  0  0  0  0  0  0  0  0  0  0  0
   -9.0470    2.8170   -6.7750 N   0  0  0  0  0  0  0  0  0  0  0  0
   -9.0400    4.2800   -6.6960 C   0  0  0  0  0  0  0  0  0  0  0  0
   -8.4160    4.9100   -7.9490 C   0  0  0  0  0  0  0  0  0  0  0  0
   -9.0740    4.3320  -11.5260 N   0  0  0  0  0  0  0  0  0  0  0  0
   -8.9970    4.8680  -12.7930 N   0  0  0  0  0  0  0  0  0  0  0  0
   -7.6100    5.6730  -17.0260 C   0  0  0  0  0  0  0  0  0  0  0  0
   -2.0200    6.0750  -21.7130 H   0  0  0  0  0  0  0  0  0  0  0  0
   -2.2510    4.9200  -23.0530 H   0  0  0  0  0  0  0  0  0  0  0  0
   -1.8230    4.3300  -21.4350 H   0  0  0  0  0  0  0  0  0  0  0  0
   -5.0460    6.6040  -22.0850 H   0  0  0  0  0  0  0  0  0  0  0  0
   -5.7120    5.0420  -22.5130 H   0  0  0  0  0  0  0  0  0  0  0  0
   -4.3560    5.7330  -23.4720 H   0  0  0  0  0  0  0  0  0  0  0  0
   -5.7990    6.7400  -20.4900 H   0  0  0  0  0  0  0  0  0  0  0  0
   -6.2630    5.0630  -20.5750 H   0  0  0  0  0  0  0  0  0  0  0  0
   -7.9260    4.6800  -20.2900 H   0  0  0  0  0  0  0  0  0  0  0  0
  -10.1470    4.1950  -19.4880 H   0  0  0  0  0  0  0  0  0  0  0  0
  -10.8130    4.6060  -17.2250 H   0  0  0  0  0  0  0  0  0  0  0  0
   -9.7640    4.8510  -14.7910 H   0  0  0  0  0  0  0  0  0  0  0  0
   -8.6380    8.2430  -11.9010 H   0  0  0  0  0  0  0  0  0  0  0  0
   -8.7990    7.1080   -9.5940 H   0  0  0  0  0  0  0  0  0  0  0  0
   -8.5310    2.4270   -9.5840 H   0  0  0  0  0  0  0  0  0  0  0  0
  -10.2060    2.7560   -9.9720 H   0  0  0  0  0  0  0  0  0  0  0  0
   -9.8920    1.3080   -7.9290 H   0  0  0  0  0  0  0  0  0  0  0  0
  -10.9090    2.7190   -7.7030 H   0  0  0  0  0  0  0  0  0  0  0  0
   -9.4230    2.4150   -5.9180 H   0  0  0  0  0  0  0  0  0  0  0  0
   -8.4760    4.5750   -5.8080 H   0  0  0  0  0  0  0  0  0  0  0  0
  -10.0660    4.6410   -6.5620 H   0  0  0  0  0  0  0  0  0  0  0  0
   -7.3560    4.6330   -7.9980 H   0  0  0  0  0  0  0  0  0  0  0  0
   -8.4820    6.0030   -7.8820 H   0  0  0  0  0  0  0  0  0  0  0  0
   -6.8570    6.0900  -16.3690 H   0  0  0  0  0  0  0  0  0  0  0  0
  1  2  1  0
  2  3  1  0
  2  4  1  0
  4  5  2  0
  4  6  1  0
  6  7  1  0
  7  8  1  0
  8  9  2  0
  9 10  1  0
 10 11  2  0
 11 12  1  0
 12 13  1  0
 13 14  1  0
 14 15  2  0
 14 16  1  0
 16 17  2  0
 17 18  1  0
 18 19  2  0
 19 20  1  0
 20 21  1  0
 21 22  1  0
 22 23  1  0
 23 24  1  0
 24 25  1  0
 19 26  1  0
 26 27  2  0
 12 28  2  0
 28  8  1  0
 27 16  1  0
 25 20  1  0
  1 29  1  0
  1 30  1  0
  1 31  1  0
  3 32  1  0
  3 33  1  0
  3 34  1  0
  6 35  1  0
  6 36  1  0
  9 37  1  0
 10 38  1  0
 11 39  1  0
 13 40  1  0
 17 41  1  0
 18 42  1  0
 21 43  1  0
 21 44  1  0
 22 45  1  0
 22 46  1  0
 23 47  1  0
 24 48  1  0
 24 49  1  0
 25 50  1  0
 25 51  1  0
 28 52  1  0
A    1
 C1 
A    2
 N1 
A    3
 C2 
A    4
 C3 
A    5
 O1 
A    6
 C4 
A    7
 O2 
A    8
 C5 
A    9
 C6 
A   10
 C7 
A   11
 C8 
A   12
 C9 
A   13
 N2 
A   14
 C10
A   15
 O3 
A   16
 C11
A   17
 C12
A   18
 C13
A   19
 C14
A   20
 N3 
A   21
 C15
A   22
 C16
A   23
 N4 
A   24
 C17
A   25
 C18
A   26
 N5 
A   27
 N6 
A   28
 C19
A   29
 H1 
A   30
 H2 
A   31
 H3 
A   32
 H4 
A   33
 H5 
A   34
 H6 
A   35
 H7 
A   36
 H8 
A   37
 H9 
A   38
 H10
A   39
 H11
A   40
 H12
A   41
 H13
A   42
 H14
A   43
 H15
A   44
 H16
A   45
 H17
A   46
 H18
A   47
 H19
A   48
 H20
A   49
 H21
A   50
 H22
A   51
 H23
A   52
 H24
M  END
>  <ref_pdb>  (161) 
x0051_0B

>  <ref_mols>  (161) 
x0904_0B,x0404_0B

>  <original SMILES>  (161) 
[H]c1c(C(=O)N([H])c2c([H])c([H])c([H])c(OC([H])([H])C(=O)N(C([H])([H])[H])C([H])([H])[H])c2[H])nnc(N2C([H])([H])C([H])([H])N([H])C([H])([H])C2([H])[H])c1[H]

>  <index>  (161) 
3699

>  <∆∆G>  (161) 
-6.28576

>  <∆G_bound>  (161) 
-5.58097

>  <∆G_unbound>  (161) 
0.70479

>  <comRMSD>  (161) 
0.491686

>  <N_constrained_atoms>  (161) 
28.0

>  <N_unconstrained_atoms>  (161) 
0.0

>  <runtime>  (161) 
109.028522

>  <LE>  (161) 
0.224491

>  <percent_hybrid>  (161) 
50.0

>  <dist>  (161) 
5.0

>  <ecfp4>  (161) 
0.465753

>  <daylight>  (161) 
0.333333

>  <topodist>  (161) 
1.0

>  <mces>  (161) 
30.0

>  <tdn>  (161) 
1.0

>  <tup>  (161) 
0.0

>  <rdn>  (161) 
0.0

>  <rup>  (161) 
0.0

>  <ldn>  (161) 
0.0

>  <lup>  (161) 
0.0

>  <mut>  (161) 
3.0

>  <maj>  (161) 
3.0

>  <min>  (161) 
0.0

>  <hyb>  (161) 
1.0

>  <sub>  (161) 
0.0

>  <query_index>  (161) 
19.0

>  <max_hit_Tanimoto>  (161) 
0.242647

>  <largest_ring>  (161) 
6

>  <N_interactions_kept>  (161) 
1.0

>  <N_interactions_lost>  (161) 
3.5

>  <interaction_uniqueness_metric>  (161) 
0.279755

>  <ad_hoc_penalty>  (161) 
-1.289747

>  <N_rotatable_bonds>  (161) 
8

>  <N_HA>  (161) 
28

>  <cluster>  (161) 
2783

>  <N_interactions>  (161) 
7

>  <Enamine>  (161) 
1

>  <Mcule>  (161) 
0

>  <N_PAINS>  (161) 
0

>  <UFF_Gibbs>  (161) 
140.147769

>  <strain_per_HA>  (161) 
5.005277

>  <intxn_scored>  (161) 
9.5

>  <saltbridge:HIS:51>  (161) 
0

>  <pistack:HIS:51>  (161) 
1

>  <hydroph_interaction:HIS:51>  (161) 
1

>  <hbond:ALA:132>  (161) 
0

>  <hbond:SER:135>  (161) 
0

>  <hydroph_interaction:TYR:150>  (161) 
1

>  <pistack:TYR:161>  (161) 
1

>  <hydroph_interaction:TYR:161>  (161) 
0

>  <hydroph_interaction:ASP:83>  (161) 
0

>  <hbond:TYR:130>  (161) 
0

>  <hydroph_interaction:ALA:132>  (161) 
1

>  <hbond:HIS:51>  (161) 
0

>  <hbond:ASP:129>  (161) 
0

>  <hbond:TYR:150>  (161) 
0

>  <hbond:GLY:151>  (161) 
1

>  <hbond:TYR:161>  (161) 
0

>  <hydroph_interaction:TYR:130>  (161) 
0

>  <hydroph_interaction:PRO:131>  (161) 
0

>  <hydroph_interaction:ASP:129>  (161) 
0

>  <saltbridge:ASP:75>  (161) 
0

>  <saltbridge:ASP:83>  (161) 
0

>  <hbond:ASN:152>  (161) 
0

>  <hydroph_interaction:ASN:152>  (161) 
0

>  <halogenbond:TYR:150>  (161) 
0

>  <hbond:ASP:83>  (161) 
1

>  <hydroph_interaction:VAL:155>  (161) 
0

>  <pication:TYR:161>  (161) 
0

>  <hbond:PRO:131>  (161) 
0

>  <saltbridge:ASP:129>  (161) 
0

>  <hbond:THR:134>  (161) 
0

>  <pication:HIS:51>  (161) 
0

>  <hbond:SER:81>  (161) 
0

>  <hydroph_interaction:THR:134>  (161) 
0

>  <hydroph_interaction:MET:49>  (161) 
0

$$$$
CSSB00000645610
     RDKit          3D

 32 34  0  0  0  0  0  0  0  0999 V2000
   -8.9140    6.8960  -13.0480 N   0  0  0  0  0  0  0  0  0  0  0  0
   -8.8150    5.6020  -13.7240 C   0  0  0  0  0  0  0  0  0  0  0  0
   -8.4190    4.5240  -12.7350 C   0  0  0  0  0  0  0  0  0  0  0  0
   -9.7120    3.8740  -12.1030 C   0  0  0  0  0  0  0  0  0  0  0  0
   -9.1310    3.4800  -10.7500 C   0  0  0  0  0  0  0  0  0  0  0  0
  -10.3310    2.8280  -10.1010 C   0  0  0  0  0  0  0  0  0  0  0  0
  -11.6930    2.6500  -10.6630 C   0  0  0  0  0  0  0  0  0  0  0  0
  -12.0470    3.0880  -11.9270 C   0  0  0  0  0  0  0  0  0  0  0  0
  -10.9960    3.7110  -12.6370 C   0  0  0  0  0  0  0  0  0  0  0  0
   -7.9930    5.5410  -15.0100 C   0  0  0  0  0  0  0  0  0  0  0  0
   -6.5990    5.8870  -14.9650 N   0  0  0  0  0  0  0  0  0  0  0  0
   -6.1570    5.7530  -16.2350 N   0  0  0  0  0  0  0  0  0  0  0  0
   -7.1650    5.3620  -17.0140 C   0  0  0  0  0  0  0  0  0  0  0  0
   -7.2720    5.0650  -18.5070 C   0  0  0  0  0  0  0  0  0  0  0  0
   -8.4930    4.6670  -19.0690 C   0  0  0  0  0  0  0  0  0  0  0  0
   -9.6100    4.5410  -18.2390 C   0  0  0  0  0  0  0  0  0  0  0  0
   -9.5310    4.8090  -16.8400 C   0  0  0  0  0  0  0  0  0  0  0  0
   -8.3350    5.2110  -16.2810 N   0  0  0  0  0  0  0  0  0  0  0  0
   -7.9750    7.2690  -12.8980 H   0  0  0  0  0  0  0  0  0  0  0  0
   -9.3880    7.5660  -13.6500 H   0  0  0  0  0  0  0  0  0  0  0  0
   -9.8330    5.3950  -14.0700 H   0  0  0  0  0  0  0  0  0  0  0  0
   -7.7930    4.9580  -11.9550 H   0  0  0  0  0  0  0  0  0  0  0  0
   -7.8540    3.7330  -13.2440 H   0  0  0  0  0  0  0  0  0  0  0  0
   -8.1290    3.6140  -10.3420 H   0  0  0  0  0  0  0  0  0  0  0  0
  -10.1690    2.4470   -9.0980 H   0  0  0  0  0  0  0  0  0  0  0  0
  -12.4430    2.1590  -10.0530 H   0  0  0  0  0  0  0  0  0  0  0  0
  -13.0420    2.9640  -12.3440 H   0  0  0  0  0  0  0  0  0  0  0  0
  -11.2000    4.0730  -13.6370 H   0  0  0  0  0  0  0  0  0  0  0  0
   -6.3820    5.1740  -19.1180 H   0  0  0  0  0  0  0  0  0  0  0  0
   -8.5960    4.4530  -20.1270 H   0  0  0  0  0  0  0  0  0  0  0  0
  -10.5410    4.2340  -18.6860 H   0  0  0  0  0  0  0  0  0  0  0  0
  -10.3760    4.7110  -16.1890 H   0  0  0  0  0  0  0  0  0  0  0  0
  1  2  1  0
  2  3  1  0
  3  4  1  0
  4  5  2  0
  5  6  1  0
  6  7  2  0
  7  8  1  0
  8  9  2  0
  2 10  1  0
 10 11  2  0
 11 12  1  0
 12 13  2  0
 13 14  1  0
 14 15  2  0
 15 16  1  0
 16 17  2  0
 17 18  1  0
  9  4  1  0
 18 10  1  0
 18 13  1  0
  1 19  1  0
  1 20  1  0
  2 21  1  0
  3 22  1  0
  3 23  1  0
  5 24  1  0
  6 25  1  0
  7 26  1  0
  8 27  1  0
  9 28  1  0
 14 29  1  0
 15 30  1  0
 16 31  1  0
 17 32  1  0
A    1
 N1 
A    2
 C1 
A    3
 C2 
A    4
 C3 
A    5
 C4 
A    6
 C5 
A    7
 C6 
A    8
 C7 
A    9
 C8 
A   10
 C9 
A   11
 N2 
A   12
 N3 
A   13
 C10
A   14
 C11
A   15
 C12
A   16
 C13
A   17
 C14
A   18
 N4 
A   19
 H1 
A   20
 H2 
A   21
 H3 
A   22
 H4 
A   23
 H5 
A   24
 H6 
A   25
 H7 
A   26
 H8 
A   27
 H9 
A   28
 H10
A   29
 H11
A   30
 H12
A   31
 H13
A   32
 H14
M  END
>  <ref_pdb>  (162) 
x0051_0B

>  <ref_mols>  (162) 
x0951_0B,x0969_1B

>  <original SMILES>  (162) 
[H]c1c([H])c([H])c(C([H])([H])C([H])(c2nnc3c([H])c([H])c([H])c([H])n23)N([H])[H])c([H])c1[H]

>  <index>  (162) 
230

>  <∆∆G>  (162) 
-6.595268

>  <∆G_bound>  (162) 
-6.212562

>  <∆G_unbound>  (162) 
0.382706

>  <comRMSD>  (162) 
0.926381

>  <N_constrained_atoms>  (162) 
16.0

>  <N_unconstrained_atoms>  (162) 
5.0

>  <runtime>  (162) 
43.062882

>  <LE>  (162) 
0.31406

>  <percent_hybrid>  (162) 
25.0

>  <dist>  (162) 
12.0

>  <ecfp4>  (162) 
0.25

>  <daylight>  (162) 
0.350806

>  <topodist>  (162) 
4.0

>  <mces>  (162) 
20.0

>  <tdn>  (162) 
2.0

>  <tup>  (162) 
0.0

>  <rdn>  (162) 
1.0

>  <rup>  (162) 
0.0

>  <ldn>  (162) 
1.0

>  <lup>  (162) 
0.0

>  <mut>  (162) 
4.0

>  <maj>  (162) 
4.0

>  <min>  (162) 
0.0

>  <hyb>  (162) 
4.0

>  <sub>  (162) 
0.0

>  <query_index>  (162) 
201.0

>  <max_hit_Tanimoto>  (162) 
0.58606

>  <largest_ring>  (162) 
0

>  <N_interactions_kept>  (162) 
1.0

>  <N_interactions_lost>  (162) 
2.0

>  <interaction_uniqueness_metric>  (162) 
0.964943

>  <ad_hoc_penalty>  (162) 
-32.460009

>  <N_rotatable_bonds>  (162) 
4

>  <N_HA>  (162) 
18

>  <cluster>  (162) 
6010

>  <N_interactions>  (162) 
6

>  <Enamine>  (162) 
1

>  <Mcule>  (162) 
0

>  <N_PAINS>  (162) 
0

>  <UFF_Gibbs>  (162) 
106.392914

>  <strain_per_HA>  (162) 
5.910717

>  <intxn_scored>  (162) 
9.5

>  <saltbridge:HIS:51>  (162) 
0

>  <pistack:HIS:51>  (162) 
0

>  <hydroph_interaction:HIS:51>  (162) 
1

>  <hbond:ALA:132>  (162) 
0

>  <hbond:SER:135>  (162) 
0

>  <hydroph_interaction:TYR:150>  (162) 
1

>  <pistack:TYR:161>  (162) 
2

>  <hydroph_interaction:TYR:161>  (162) 
0

>  <hydroph_interaction:ASP:83>  (162) 
0

>  <hbond:TYR:130>  (162) 
0

>  <hydroph_interaction:ALA:132>  (162) 
0

>  <hbond:HIS:51>  (162) 
0

>  <hbond:ASP:129>  (162) 
0

>  <hbond:TYR:150>  (162) 
0

>  <hbond:GLY:151>  (162) 
0

>  <hbond:TYR:161>  (162) 
0

>  <hydroph_interaction:TYR:130>  (162) 
0

>  <hydroph_interaction:PRO:131>  (162) 
0

>  <hydroph_interaction:ASP:129>  (162) 
0

>  <saltbridge:ASP:75>  (162) 
0

>  <saltbridge:ASP:83>  (162) 
0

>  <hbond:ASN:152>  (162) 
0

>  <hydroph_interaction:ASN:152>  (162) 
1

>  <halogenbond:TYR:150>  (162) 
0

>  <hbond:ASP:83>  (162) 
0

>  <hydroph_interaction:VAL:155>  (162) 
0

>  <pication:TYR:161>  (162) 
0

>  <hbond:PRO:131>  (162) 
0

>  <saltbridge:ASP:129>  (162) 
0

>  <hbond:THR:134>  (162) 
0

>  <pication:HIS:51>  (162) 
0

>  <hbond:SER:81>  (162) 
0

>  <hydroph_interaction:THR:134>  (162) 
0

>  <hydroph_interaction:MET:49>  (162) 
1

$$$$
PV-003902558874
     RDKit          3D

 34 35  0  0  0  0  0  0  0  0999 V2000
   -4.0030    5.3470  -21.3820 C   0  0  0  0  0  0  0  0  0  0  0  0
   -2.9690    5.2840  -20.2600 C   0  0  0  0  0  0  0  0  0  0  0  0
   -1.5180    5.1680  -20.7180 C   0  0  0  0  0  0  0  0  0  0  0  0
   -3.2770    5.3130  -18.8140 C   0  0  0  0  0  0  0  0  0  0  0  0
   -2.1610    5.2360  -17.7810 C   0  0  0  0  0  0  0  0  0  0  0  0
   -4.6300    5.3790  -18.2420 C   0  0  0  0  0  0  0  0  0  0  0  0
   -4.8100    5.6560  -16.8760 C   0  0  0  0  0  0  0  0  0  0  0  0
   -6.1000    5.6820  -16.3190 C   0  0  0  0  0  0  0  0  0  0  0  0
   -7.1840    5.4260  -17.1410 C   0  0  0  0  0  0  0  0  0  0  0  0
   -6.9560    5.1790  -18.4610 C   0  0  0  0  0  0  0  0  0  0  0  0
   -5.7310    5.1450  -19.0650 C   0  0  0  0  0  0  0  0  0  0  0  0
   -8.1250    4.9310  -19.2300 N   0  0  0  0  0  0  0  0  0  0  0  0
   -9.0620    5.0350  -18.3160 C   0  0  0  0  0  0  0  0  0  0  0  0
  -10.3950    4.8880  -18.5820 C   0  0  0  0  0  0  0  0  0  0  0  0
   -8.5530    5.3290  -17.0420 N   0  0  0  0  0  0  0  0  0  0  0  0
   -9.3420    5.4950  -15.8420 C   0  0  0  0  0  0  0  0  0  0  0  0
   -4.8060    6.0500  -21.1440 H   0  0  0  0  0  0  0  0  0  0  0  0
   -3.5380    5.6700  -22.3180 H   0  0  0  0  0  0  0  0  0  0  0  0
   -4.4530    4.3700  -21.5640 H   0  0  0  0  0  0  0  0  0  0  0  0
   -0.9460    6.0670  -20.4630 H   0  0  0  0  0  0  0  0  0  0  0  0
   -1.4360    5.0060  -21.7970 H   0  0  0  0  0  0  0  0  0  0  0  0
   -1.0440    4.3140  -20.2180 H   0  0  0  0  0  0  0  0  0  0  0  0
   -2.4080    4.5790  -16.9430 H   0  0  0  0  0  0  0  0  0  0  0  0
   -1.9260    6.2330  -17.3930 H   0  0  0  0  0  0  0  0  0  0  0  0
   -1.2540    4.8230  -18.2380 H   0  0  0  0  0  0  0  0  0  0  0  0
   -3.9480    5.8430  -16.2460 H   0  0  0  0  0  0  0  0  0  0  0  0
   -6.2410    5.8910  -15.2630 H   0  0  0  0  0  0  0  0  0  0  0  0
   -5.6450    4.9340  -20.1230 H   0  0  0  0  0  0  0  0  0  0  0  0
  -10.9880    5.3480  -17.8030 H   0  0  0  0  0  0  0  0  0  0  0  0
  -10.6540    5.3770  -19.5280 H   0  0  0  0  0  0  0  0  0  0  0  0
  -10.6510    3.8480  -18.6350 H   0  0  0  0  0  0  0  0  0  0  0  0
   -9.7930    6.4900  -15.8470 H   0  0  0  0  0  0  0  0  0  0  0  0
   -8.6870    5.3730  -14.9760 H   0  0  0  0  0  0  0  0  0  0  0  0
  -10.1340    4.7470  -15.8060 H   0  0  0  0  0  0  0  0  0  0  0  0
  1  2  1  0
  2  3  1  0
  2  4  2  3
  4  5  1  0
  4  6  1  0
  6  7  2  0
  7  8  1  0
  8  9  2  0
  9 10  1  0
 10 11  2  0
 10 12  1  0
 12 13  2  0
 13 14  1  0
 13 15  1  0
 15 16  1  0
 11  6  1  0
 15  9  1  0
  1 17  1  0
  1 18  1  0
  1 19  1  0
  3 20  1  0
  3 21  1  0
  3 22  1  0
  5 23  1  0
  5 24  1  0
  5 25  1  0
  7 26  1  0
  8 27  1  0
 11 28  1  0
 14 29  1  0
 14 30  1  0
 14 31  1  0
 16 32  1  0
 16 33  1  0
 16 34  1  0
A    1
 C1 
A    2
 C2 
A    3
 C3 
A    4
 C4 
A    5
 C5 
A    6
 C6 
A    7
 C7 
A    8
 C8 
A    9
 C9 
A   10
 C10
A   11
 C11
A   12
 N1 
A   13
 C12
A   14
 C13
A   15
 N2 
A   16
 C14
A   17
 H1 
A   18
 H2 
A   19
 H3 
A   20
 H4 
A   21
 H5 
A   22
 H6 
A   23
 H7 
A   24
 H8 
A   25
 H9 
A   26
 H10
A   27
 H11
A   28
 H12
A   29
 H13
A   30
 H14
A   31
 H15
A   32
 H16
A   33
 H17
A   34
 H18
M  END
>  <ref_pdb>  (163) 
x0051_0B

>  <ref_mols>  (163) 
x0051_0B,x0904_0B

>  <original SMILES>  (163) 
[H]c1c(C(=C(C([H])([H])[H])C([H])([H])[H])C([H])([H])[H])c([H])c2nc(C([H])([H])[H])n(C([H])([H])[H])c2c1[H]

>  <index>  (163) 
3120

>  <∆∆G>  (163) 
-8.435841

>  <∆G_bound>  (163) 
-8.997929

>  <∆G_unbound>  (163) 
-0.562089

>  <comRMSD>  (163) 
0.785271

>  <N_constrained_atoms>  (163) 
18.0

>  <N_unconstrained_atoms>  (163) 
2.0

>  <runtime>  (163) 
27.688227

>  <LE>  (163) 
0.421792

>  <percent_hybrid>  (163) 
40.0

>  <dist>  (163) 
7.0

>  <ecfp4>  (163) 
0.125

>  <daylight>  (163) 
0.167539

>  <topodist>  (163) 
1.0

>  <mces>  (163) 
17.0

>  <tdn>  (163) 
1.0

>  <tup>  (163) 
0.0

>  <rdn>  (163) 
0.0

>  <rup>  (163) 
0.0

>  <ldn>  (163) 
0.0

>  <lup>  (163) 
0.0

>  <mut>  (163) 
4.0

>  <maj>  (163) 
4.0

>  <min>  (163) 
0.0

>  <hyb>  (163) 
2.0

>  <sub>  (163) 
0.0

>  <query_index>  (163) 
275.0

>  <max_hit_Tanimoto>  (163) 
0.20565

>  <largest_ring>  (163) 
6

>  <N_interactions_kept>  (163) 
1.5

>  <N_interactions_lost>  (163) 
3.0

>  <interaction_uniqueness_metric>  (163) 
0.076578

>  <ad_hoc_penalty>  (163) 
-1.300686

>  <N_rotatable_bonds>  (163) 
6

>  <N_HA>  (163) 
16

>  <cluster>  (163) 
3332

>  <N_interactions>  (163) 
5

>  <Enamine>  (163) 
1

>  <Mcule>  (163) 
0

>  <N_PAINS>  (163) 
0

>  <UFF_Gibbs>  (163) 
85.504805

>  <strain_per_HA>  (163) 
5.34405

>  <intxn_scored>  (163) 
9.5

>  <saltbridge:HIS:51>  (163) 
0

>  <pistack:HIS:51>  (163) 
0

>  <hydroph_interaction:HIS:51>  (163) 
0

>  <hbond:ALA:132>  (163) 
0

>  <hbond:SER:135>  (163) 
0

>  <hydroph_interaction:TYR:150>  (163) 
1

>  <pistack:TYR:161>  (163) 
2

>  <hydroph_interaction:TYR:161>  (163) 
1

>  <hydroph_interaction:ASP:83>  (163) 
0

>  <hbond:TYR:130>  (163) 
0

>  <hydroph_interaction:ALA:132>  (163) 
0

>  <hbond:HIS:51>  (163) 
0

>  <hbond:ASP:129>  (163) 
0

>  <hbond:TYR:150>  (163) 
0

>  <hbond:GLY:151>  (163) 
0

>  <hbond:TYR:161>  (163) 
0

>  <hydroph_interaction:TYR:130>  (163) 
0

>  <hydroph_interaction:PRO:131>  (163) 
0

>  <hydroph_interaction:ASP:129>  (163) 
0

>  <saltbridge:ASP:75>  (163) 
0

>  <saltbridge:ASP:83>  (163) 
0

>  <hbond:ASN:152>  (163) 
0

>  <hydroph_interaction:ASN:152>  (163) 
0

>  <halogenbond:TYR:150>  (163) 
0

>  <hbond:ASP:83>  (163) 
0

>  <hydroph_interaction:VAL:155>  (163) 
1

>  <pication:TYR:161>  (163) 
0

>  <hbond:PRO:131>  (163) 
0

>  <saltbridge:ASP:129>  (163) 
0

>  <hbond:THR:134>  (163) 
0

>  <pication:HIS:51>  (163) 
0

>  <hbond:SER:81>  (163) 
0

>  <hydroph_interaction:THR:134>  (163) 
0

>  <hydroph_interaction:MET:49>  (163) 
0

$$$$
CSSB00011808445
     RDKit          3D

 27 28  0  0  0  0  0  0  0  0999 V2000
   -3.3290    5.3730  -18.9400 C   0  0  0  0  0  0  0  0  0  0  0  0
   -4.4640    5.0270  -18.0260 C   0  0  0  0  0  0  0  0  0  0  0  0
   -5.0920    6.0890  -17.2070 C   0  0  0  0  0  0  0  0  0  0  0  0
   -6.3280    5.8120  -16.6480 N   0  0  0  0  0  0  0  0  0  0  0  0
   -6.5090    5.8870  -15.2890 N   0  0  0  0  0  0  0  0  0  0  0  0
   -7.9150    5.5250  -15.0710 C   0  0  0  0  0  0  0  0  0  0  0  0
   -8.3760    5.5260  -13.7390 C   0  0  0  0  0  0  0  0  0  0  0  0
   -8.8260    6.6020  -13.3390 O   0  0  0  0  0  0  0  0  0  0  0  0
   -8.3580    4.5880  -12.9530 O   0  0  0  0  0  0  0  0  0  0  0  0
   -8.4940    5.2530  -16.3050 C   0  0  0  0  0  0  0  0  0  0  0  0
   -9.7510    4.8700  -16.7450 C   0  0  0  0  0  0  0  0  0  0  0  0
  -10.0480    4.6690  -18.1020 C   0  0  0  0  0  0  0  0  0  0  0  0
   -9.0610    4.8500  -19.0850 C   0  0  0  0  0  0  0  0  0  0  0  0
   -7.7610    5.2410  -18.7080 C   0  0  0  0  0  0  0  0  0  0  0  0
   -7.4380    5.4490  -17.3600 C   0  0  0  0  0  0  0  0  0  0  0  0
   -3.6680    5.3680  -19.9800 H   0  0  0  0  0  0  0  0  0  0  0  0
   -2.9090    6.3470  -18.6730 H   0  0  0  0  0  0  0  0  0  0  0  0
   -2.5430    4.6180  -18.8330 H   0  0  0  0  0  0  0  0  0  0  0  0
   -4.1090    4.2610  -17.3300 H   0  0  0  0  0  0  0  0  0  0  0  0
   -5.2530    4.5540  -18.6140 H   0  0  0  0  0  0  0  0  0  0  0  0
   -4.3950    6.3140  -16.3870 H   0  0  0  0  0  0  0  0  0  0  0  0
   -5.1850    7.0180  -17.7850 H   0  0  0  0  0  0  0  0  0  0  0  0
   -8.1300    7.2250  -13.6270 H   0  0  0  0  0  0  0  0  0  0  0  0
  -10.4760    4.7370  -15.9400 H   0  0  0  0  0  0  0  0  0  0  0  0
  -11.0520    4.3710  -18.3930 H   0  0  0  0  0  0  0  0  0  0  0  0
   -9.2980    4.6940  -20.1350 H   0  0  0  0  0  0  0  0  0  0  0  0
   -7.0810    5.3490  -19.5620 H   0  0  0  0  0  0  0  0  0  0  0  0
  1  2  1  0
  2  3  1  0
  3  4  1  0
  4  5  1  0
  5  6  2  0
  6  7  1  0
  7  8  1  0
  7  9  2  0
  6 10  1  0
 10 11  2  0
 11 12  1  0
 12 13  2  0
 13 14  1  0
 14 15  2  0
 15  4  1  0
 15 10  1  0
  1 16  1  0
  1 17  1  0
  1 18  1  0
  2 19  1  0
  2 20  1  0
  3 21  1  0
  3 22  1  0
  8 23  1  0
 11 24  1  0
 12 25  1  0
 13 26  1  0
 14 27  1  0
A    1
 C1 
A    2
 C2 
A    3
 C3 
A    4
 N1 
A    5
 N2 
A    6
 C4 
A    7
 C5 
A    8
 O1 
A    9
 O2 
A   10
 C6 
A   11
 C7 
A   12
 C8 
A   13
 C9 
A   14
 C10
A   15
 C11
A   16
 H1 
A   17
 H2 
A   18
 H3 
A   19
 H4 
A   20
 H5 
A   21
 H6 
A   22
 H7 
A   23
 H8 
A   24
 H9 
A   25
 H10
A   26
 H11
A   27
 H12
M  END
>  <ref_pdb>  (164) 
x0051_0B

>  <ref_mols>  (164) 
x0951_0B,x0800_0B

>  <original SMILES>  (164) 
[H]OC(=O)c1nn(C([H])([H])C([H])([H])C([H])([H])[H])c2c([H])c([H])c([H])c([H])c12

>  <index>  (164) 
65

>  <∆∆G>  (164) 
-6.158311

>  <∆G_bound>  (164) 
-5.918086

>  <∆G_unbound>  (164) 
0.240225

>  <comRMSD>  (164) 
0.602813

>  <N_constrained_atoms>  (164) 
17.0

>  <N_unconstrained_atoms>  (164) 
1.0

>  <runtime>  (164) 
19.346815

>  <LE>  (164) 
0.342128

>  <percent_hybrid>  (164) 
50.0

>  <dist>  (164) 
4.0

>  <ecfp4>  (164) 
0.104478

>  <daylight>  (164) 
0.165877

>  <topodist>  (164) 
0.0

>  <mces>  (164) 
16.0

>  <tdn>  (164) 
0.0

>  <tup>  (164) 
0.0

>  <rdn>  (164) 
0.0

>  <rup>  (164) 
0.0

>  <ldn>  (164) 
0.0

>  <lup>  (164) 
0.0

>  <mut>  (164) 
4.0

>  <maj>  (164) 
4.0

>  <min>  (164) 
0.0

>  <hyb>  (164) 
0.0

>  <sub>  (164) 
0.0

>  <query_index>  (164) 
116.0

>  <max_hit_Tanimoto>  (164) 
0.162955

>  <largest_ring>  (164) 
0

>  <N_interactions_kept>  (164) 
2.0

>  <N_interactions_lost>  (164) 
1.5

>  <interaction_uniqueness_metric>  (164) 
0.182402

>  <ad_hoc_penalty>  (164) 
-31.61971

>  <N_rotatable_bonds>  (164) 
4

>  <N_HA>  (164) 
15

>  <cluster>  (164) 
6159

>  <N_interactions>  (164) 
8

>  <Enamine>  (164) 
1

>  <Mcule>  (164) 
0

>  <N_PAINS>  (164) 
0

>  <UFF_Gibbs>  (164) 
98.493149

>  <strain_per_HA>  (164) 
6.56621

>  <intxn_scored>  (164) 
9.5

>  <saltbridge:HIS:51>  (164) 
1

>  <pistack:HIS:51>  (164) 
0

>  <hydroph_interaction:HIS:51>  (164) 
0

>  <hbond:ALA:132>  (164) 
0

>  <hbond:SER:135>  (164) 
0

>  <hydroph_interaction:TYR:150>  (164) 
1

>  <pistack:TYR:161>  (164) 
0

>  <hydroph_interaction:TYR:161>  (164) 
4

>  <hydroph_interaction:ASP:83>  (164) 
0

>  <hbond:TYR:130>  (164) 
0

>  <hydroph_interaction:ALA:132>  (164) 
0

>  <hbond:HIS:51>  (164) 
0

>  <hbond:ASP:129>  (164) 
0

>  <hbond:TYR:150>  (164) 
0

>  <hbond:GLY:151>  (164) 
0

>  <hbond:TYR:161>  (164) 
2

>  <hydroph_interaction:TYR:130>  (164) 
0

>  <hydroph_interaction:PRO:131>  (164) 
0

>  <hydroph_interaction:ASP:129>  (164) 
0

>  <saltbridge:ASP:75>  (164) 
0

>  <saltbridge:ASP:83>  (164) 
0

>  <hbond:ASN:152>  (164) 
0

>  <hydroph_interaction:ASN:152>  (164) 
0

>  <halogenbond:TYR:150>  (164) 
0

>  <hbond:ASP:83>  (164) 
0

>  <hydroph_interaction:VAL:155>  (164) 
0

>  <pication:TYR:161>  (164) 
0

>  <hbond:PRO:131>  (164) 
0

>  <saltbridge:ASP:129>  (164) 
0

>  <hbond:THR:134>  (164) 
0

>  <pication:HIS:51>  (164) 
0

>  <hbond:SER:81>  (164) 
0

>  <hydroph_interaction:THR:134>  (164) 
0

>  <hydroph_interaction:MET:49>  (164) 
0

$$$$
PV-003494821652
     RDKit          3D

 54 56  0  0  0  0  0  0  0  0999 V2000
   -3.7670    5.1760  -16.8920 C   0  0  0  0  0  0  0  0  0  0  0  0
   -5.0570    5.2610  -17.5750 C   0  0  0  0  0  0  0  0  0  0  0  0
   -6.3040    5.1470  -17.0090 C   0  0  0  0  0  0  0  0  0  0  0  0
   -7.4950    5.2640  -17.9490 C   0  0  0  0  0  0  0  0  0  0  0  0
   -8.7700    5.1300  -17.2970 N   0  0  0  0  0  0  0  0  0  0  0  0
   -9.8910    4.6750  -18.1710 C   0  0  0  0  0  0  0  0  0  0  0  0
   -8.6830    5.4950  -15.8500 C   0  0  0  0  0  0  0  0  0  0  0  0
   -9.9310    5.9220  -15.4470 C   0  0  0  0  0  0  0  0  0  0  0  0
   -9.9200    7.1860  -14.6510 N   0  0  0  0  0  0  0  0  0  0  0  0
   -8.9770    7.5450  -13.7350 C   0  0  0  0  0  0  0  0  0  0  0  0
   -8.1080    8.6760  -13.8810 O   0  0  0  0  0  0  0  0  0  0  0  0
   -8.9380    6.7650  -12.6070 C   0  0  0  0  0  0  0  0  0  0  0  0
   -9.0260    5.2910  -12.7180 C   0  0  0  0  0  0  0  0  0  0  0  0
   -9.0060    4.5410  -11.5600 C   0  0  0  0  0  0  0  0  0  0  0  0
   -8.9090    5.1100  -10.3180 C   0  0  0  0  0  0  0  0  0  0  0  0
   -8.9250    4.3430   -9.1690 C   0  0  0  0  0  0  0  0  0  0  0  0
   -8.9290    2.8730   -9.2980 C   0  0  0  0  0  0  0  0  0  0  0  0
   -9.4630    2.3300   -8.1500 C   0  0  0  0  0  0  0  0  0  0  0  0
   -8.9090    2.9430   -6.8730 C   0  0  0  0  0  0  0  0  0  0  0  0
   -8.2110    4.2050   -6.9450 O   0  0  0  0  0  0  0  0  0  0  0  0
   -7.7730    4.6090   -8.2410 C   0  0  0  0  0  0  0  0  0  0  0  0
   -8.8120    6.5080  -10.2170 C   0  0  0  0  0  0  0  0  0  0  0  0
   -8.8260    7.3190  -11.3290 C   0  0  0  0  0  0  0  0  0  0  0  0
   -7.3540    5.4770  -19.3000 C   0  0  0  0  0  0  0  0  0  0  0  0
   -6.0700    5.5890  -19.8170 C   0  0  0  0  0  0  0  0  0  0  0  0
   -4.9630    5.4810  -18.9680 C   0  0  0  0  0  0  0  0  0  0  0  0
   -3.8790    4.6900  -15.9170 H   0  0  0  0  0  0  0  0  0  0  0  0
   -3.0620    4.6000  -17.5000 H   0  0  0  0  0  0  0  0  0  0  0  0
   -3.3540    6.1770  -16.7300 H   0  0  0  0  0  0  0  0  0  0  0  0
   -6.6040    4.9810  -15.9860 H   0  0  0  0  0  0  0  0  0  0  0  0
   -9.9370    5.2850  -19.0830 H   0  0  0  0  0  0  0  0  0  0  0  0
  -10.8560    4.7290  -17.6860 H   0  0  0  0  0  0  0  0  0  0  0  0
   -9.6990    3.6460  -18.4940 H   0  0  0  0  0  0  0  0  0  0  0  0
   -7.9690    6.3210  -15.7490 H   0  0  0  0  0  0  0  0  0  0  0  0
   -8.2500    4.6490  -15.3230 H   0  0  0  0  0  0  0  0  0  0  0  0
  -10.4900    6.2440  -16.3020 H   0  0  0  0  0  0  0  0  0  0  0  0
  -10.5480    5.1550  -14.9800 H   0  0  0  0  0  0  0  0  0  0  0  0
  -10.6670    7.8280  -14.9000 H   0  0  0  0  0  0  0  0  0  0  0  0
   -9.1100    4.8690  -13.7220 H   0  0  0  0  0  0  0  0  0  0  0  0
   -9.0780    3.4520  -11.6380 H   0  0  0  0  0  0  0  0  0  0  0  0
   -9.7340    4.6550   -8.5230 H   0  0  0  0  0  0  0  0  0  0  0  0
   -8.0000    2.4340   -9.6420 H   0  0  0  0  0  0  0  0  0  0  0  0
   -9.6280    2.6310  -10.1040 H   0  0  0  0  0  0  0  0  0  0  0  0
   -9.3020    1.2580   -8.1520 H   0  0  0  0  0  0  0  0  0  0  0  0
  -10.5460    2.4870   -8.1720 H   0  0  0  0  0  0  0  0  0  0  0  0
   -8.2540    2.2260   -6.3720 H   0  0  0  0  0  0  0  0  0  0  0  0
   -9.7540    3.1240   -6.2050 H   0  0  0  0  0  0  0  0  0  0  0  0
   -6.9040    4.0010   -8.5150 H   0  0  0  0  0  0  0  0  0  0  0  0
   -7.4650    5.6610   -8.2190 H   0  0  0  0  0  0  0  0  0  0  0  0
   -8.7300    6.9820   -9.2400 H   0  0  0  0  0  0  0  0  0  0  0  0
   -8.7540    8.3930  -11.1870 H   0  0  0  0  0  0  0  0  0  0  0  0
   -8.2230    5.5540  -19.9460 H   0  0  0  0  0  0  0  0  0  0  0  0
   -5.9340    5.7590  -20.8810 H   0  0  0  0  0  0  0  0  0  0  0  0
   -3.9740    5.5720  -19.4140 H   0  0  0  0  0  0  0  0  0  0  0  0
  1  2  1  0
  2  3  2  0
  3  4  1  0
  4  5  1  0
  5  6  1  0
  5  7  1  0
  7  8  1  0
  8  9  1  0
  9 10  1  0
 10 11  2  0
 10 12  1  0
 12 13  2  0
 13 14  1  0
 14 15  2  0
 15 16  1  0
 16 17  1  0
 17 18  1  0
 18 19  1  0
 19 20  1  0
 20 21  1  0
 15 22  1  0
 22 23  2  0
  4 24  2  0
 24 25  1  0
 25 26  2  0
 26  2  1  0
 23 12  1  0
 21 16  1  0
  1 27  1  0
  1 28  1  0
  1 29  1  0
  3 30  1  0
  6 31  1  0
  6 32  1  0
  6 33  1  0
  7 34  1  0
  7 35  1  0
  8 36  1  0
  8 37  1  0
  9 38  1  0
 13 39  1  0
 14 40  1  0
 16 41  1  0
 17 42  1  0
 17 43  1  0
 18 44  1  0
 18 45  1  0
 19 46  1  0
 19 47  1  0
 21 48  1  0
 21 49  1  0
 22 50  1  0
 23 51  1  0
 24 52  1  0
 25 53  1  0
 26 54  1  0
A    1
 C1 
A    2
 C2 
A    3
 C3 
A    4
 C4 
A    5
 N1 
A    6
 C5 
A    7
 C6 
A    8
 C7 
A    9
 N2 
A   10
 C8 
A   11
 O1 
A   12
 C9 
A   13
 C10
A   14
 C11
A   15
 C12
A   16
 C13
A   17
 C14
A   18
 C15
A   19
 C16
A   20
 O2 
A   21
 C17
A   22
 C18
A   23
 C19
A   24
 C20
A   25
 C21
A   26
 C22
A   27
 H1 
A   28
 H2 
A   29
 H3 
A   30
 H4 
A   31
 H5 
A   32
 H6 
A   33
 H7 
A   34
 H8 
A   35
 H9 
A   36
 H10
A   37
 H11
A   38
 H12
A   39
 H13
A   40
 H14
A   41
 H15
A   42
 H16
A   43
 H17
A   44
 H18
A   45
 H19
A   46
 H20
A   47
 H21
A   48
 H22
A   49
 H23
A   50
 H24
A   51
 H25
A   52
 H26
A   53
 H27
A   54
 H28
M  END
>  <ref_pdb>  (165) 
x0051_0B

>  <ref_mols>  (165) 
x0425_0B,x0404_0B

>  <original SMILES>  (165) 
[H]c1c([H])c(N(C([H])([H])[H])C([H])([H])C([H])([H])N([H])C(=O)c2c([H])c([H])c(C3([H])C([H])([H])OC([H])([H])C([H])([H])C3([H])[H])c([H])c2[H])c([H])c(C([H])([H])[H])c1[H]

>  <index>  (165) 
2189

>  <∆∆G>  (165) 
-9.2356

>  <∆G_bound>  (165) 
-8.8115

>  <∆G_unbound>  (165) 
0.4241

>  <comRMSD>  (165) 
0.59217

>  <N_constrained_atoms>  (165) 
27.0

>  <N_unconstrained_atoms>  (165) 
0.0

>  <runtime>  (165) 
94.032798

>  <LE>  (165) 
0.342059

>  <percent_hybrid>  (165) 
41.0

>  <dist>  (165) 
9.0

>  <ecfp4>  (165) 
0.168421

>  <daylight>  (165) 
0.236607

>  <topodist>  (165) 
2.0

>  <mces>  (165) 
28.0

>  <tdn>  (165) 
2.0

>  <tup>  (165) 
0.0

>  <rdn>  (165) 
0.0

>  <rup>  (165) 
0.0

>  <ldn>  (165) 
0.0

>  <lup>  (165) 
0.0

>  <mut>  (165) 
6.0

>  <maj>  (165) 
6.0

>  <min>  (165) 
0.0

>  <hyb>  (165) 
1.0

>  <sub>  (165) 
1.0

>  <query_index>  (165) 
62.0

>  <max_hit_Tanimoto>  (165) 
0.251758

>  <largest_ring>  (165) 
6

>  <N_interactions_kept>  (165) 
1.0

>  <N_interactions_lost>  (165) 
3.0

>  <interaction_uniqueness_metric>  (165) 
0.151361

>  <ad_hoc_penalty>  (165) 
-3.587706

>  <N_rotatable_bonds>  (165) 
8

>  <N_HA>  (165) 
26

>  <cluster>  (165) 
4208

>  <N_interactions>  (165) 
6

>  <Enamine>  (165) 
1

>  <Mcule>  (165) 
0

>  <N_PAINS>  (165) 
0

>  <UFF_Gibbs>  (165) 
228.750062

>  <strain_per_HA>  (165) 
8.798079

>  <intxn_scored>  (165) 
9.5

>  <saltbridge:HIS:51>  (165) 
0

>  <pistack:HIS:51>  (165) 
1

>  <hydroph_interaction:HIS:51>  (165) 
1

>  <hbond:ALA:132>  (165) 
1

>  <hbond:SER:135>  (165) 
0

>  <hydroph_interaction:TYR:150>  (165) 
0

>  <pistack:TYR:161>  (165) 
1

>  <hydroph_interaction:TYR:161>  (165) 
2

>  <hydroph_interaction:ASP:83>  (165) 
0

>  <hbond:TYR:130>  (165) 
0

>  <hydroph_interaction:ALA:132>  (165) 
0

>  <hbond:HIS:51>  (165) 
0

>  <hbond:ASP:129>  (165) 
0

>  <hbond:TYR:150>  (165) 
0

>  <hbond:GLY:151>  (165) 
0

>  <hbond:TYR:161>  (165) 
0

>  <hydroph_interaction:TYR:130>  (165) 
0

>  <hydroph_interaction:PRO:131>  (165) 
0

>  <hydroph_interaction:ASP:129>  (165) 
0

>  <saltbridge:ASP:75>  (165) 
0

>  <saltbridge:ASP:83>  (165) 
0

>  <hbond:ASN:152>  (165) 
0

>  <hydroph_interaction:ASN:152>  (165) 
0

>  <halogenbond:TYR:150>  (165) 
0

>  <hbond:ASP:83>  (165) 
0

>  <hydroph_interaction:VAL:155>  (165) 
0

>  <pication:TYR:161>  (165) 
0

>  <hbond:PRO:131>  (165) 
0

>  <saltbridge:ASP:129>  (165) 
0

>  <hbond:THR:134>  (165) 
0

>  <pication:HIS:51>  (165) 
0

>  <hbond:SER:81>  (165) 
0

>  <hydroph_interaction:THR:134>  (165) 
0

>  <hydroph_interaction:MET:49>  (165) 
0

$$$$
PV-005442343975
     RDKit          3D

 26 27  0  0  0  0  0  0  0  0999 V2000
   -3.0930    5.0940  -19.3780 C   0  0  0  0  0  0  0  0  0  0  0  0
   -3.9180    5.2550  -20.5550 N   0  0  0  0  0  0  0  0  0  0  0  0
   -3.4960    4.9610  -21.8290 C   0  0  0  0  0  0  0  0  0  0  0  0
   -5.2570    5.6330  -20.4710 C   0  0  0  0  0  0  0  0  0  0  0  0
   -5.8600    6.0260  -21.4740 O   0  0  0  0  0  0  0  0  0  0  0  0
   -5.9540    5.5600  -19.1340 C   0  0  0  0  0  0  0  0  0  0  0  0
   -5.1550    5.8470  -17.8870 C   0  0  0  0  0  0  0  0  0  0  0  0
   -5.9850    5.7260  -16.8250 N   0  0  0  0  0  0  0  0  0  0  0  0
   -7.2560    5.3850  -17.2590 C   0  0  0  0  0  0  0  0  0  0  0  0
   -7.2750    5.2710  -18.6840 C   0  0  0  0  0  0  0  0  0  0  0  0
   -8.5860    4.8940  -19.3730 C   0  0  0  0  0  0  0  0  0  0  0  0
   -9.7740    4.6750  -18.4650 C   0  0  0  0  0  0  0  0  0  0  0  0
   -9.5870    4.8270  -17.1050 C   0  0  0  0  0  0  0  0  0  0  0  0
   -8.3960    5.1680  -16.4820 C   0  0  0  0  0  0  0  0  0  0  0  0
   -8.3460    5.2850  -15.1400 F   0  0  0  0  0  0  0  0  0  0  0  0
   -3.6590    4.5660  -18.6090 H   0  0  0  0  0  0  0  0  0  0  0  0
   -2.2090    4.4950  -19.6140 H   0  0  0  0  0  0  0  0  0  0  0  0
   -2.7630    6.0740  -19.0190 H   0  0  0  0  0  0  0  0  0  0  0  0
   -4.3500    4.7210  -22.4730 H   0  0  0  0  0  0  0  0  0  0  0  0
   -2.8590    4.0670  -21.8070 H   0  0  0  0  0  0  0  0  0  0  0  0
   -2.9500    5.8090  -22.2510 H   0  0  0  0  0  0  0  0  0  0  0  0
   -4.1000    6.1060  -17.8540 H   0  0  0  0  0  0  0  0  0  0  0  0
   -5.7290    5.8610  -15.8560 H   0  0  0  0  0  0  0  0  0  0  0  0
   -8.7870    4.7600  -20.4400 H   0  0  0  0  0  0  0  0  0  0  0  0
  -10.7450    4.4090  -18.8550 H   0  0  0  0  0  0  0  0  0  0  0  0
  -10.4410    4.6660  -16.4480 H   0  0  0  0  0  0  0  0  0  0  0  0
  1  2  1  0
  2  3  1  0
  2  4  1  0
  4  5  2  0
  4  6  1  0
  6  7  2  0
  7  8  1  0
  8  9  1  0
  9 10  2  0
 10 11  1  0
 11 12  2  0
 12 13  1  0
 13 14  2  0
 14 15  1  0
 10  6  1  0
 14  9  1  0
  1 16  1  0
  1 17  1  0
  1 18  1  0
  3 19  1  0
  3 20  1  0
  3 21  1  0
  7 22  1  0
  8 23  1  0
 11 24  1  0
 12 25  1  0
 13 26  1  0
A    1
 C1 
A    2
 N1 
A    3
 C2 
A    4
 C3 
A    5
 O1 
A    6
 C4 
A    7
 C5 
A    8
 N2 
A    9
 C6 
A   10
 C7 
A   11
 C8 
A   12
 C9 
A   13
 C10
A   14
 C11
A   15
 F1 
A   16
 H1 
A   17
 H2 
A   18
 H3 
A   19
 H4 
A   20
 H5 
A   21
 H6 
A   22
 H7 
A   23
 H8 
A   24
 H9 
A   25
 H10
A   26
 H11
M  END
>  <ref_pdb>  (166) 
x0051_0B

>  <ref_mols>  (166) 
x0904_0B,x0435_0B

>  <original SMILES>  (166) 
[H]c1c([H])c(F)c2c(c1[H])c(C(=O)N(C([H])([H])[H])C([H])([H])[H])c([H])n2[H]

>  <index>  (166) 
2688

>  <∆∆G>  (166) 
-6.281877

>  <∆G_bound>  (166) 
-6.799623

>  <∆G_unbound>  (166) 
-0.517746

>  <comRMSD>  (166) 
0.842624

>  <N_constrained_atoms>  (166) 
16.0

>  <N_unconstrained_atoms>  (166) 
1.0

>  <runtime>  (166) 
28.147343

>  <LE>  (166) 
0.369522

>  <percent_hybrid>  (166) 
25.0

>  <dist>  (166) 
2.0

>  <ecfp4>  (166) 
0.442308

>  <daylight>  (166) 
0.271084

>  <topodist>  (166) 
1.0

>  <mces>  (166) 
16.0

>  <tdn>  (166) 
0.0

>  <tup>  (166) 
0.0

>  <rdn>  (166) 
0.0

>  <rup>  (166) 
0.0

>  <ldn>  (166) 
1.0

>  <lup>  (166) 
0.0

>  <mut>  (166) 
1.0

>  <maj>  (166) 
1.0

>  <min>  (166) 
0.0

>  <hyb>  (166) 
0.0

>  <sub>  (166) 
0.0

>  <query_index>  (166) 
154.0

>  <max_hit_Tanimoto>  (166) 
0.149425

>  <largest_ring>  (166) 
6

>  <N_interactions_kept>  (166) 
1.5

>  <N_interactions_lost>  (166) 
2.5

>  <interaction_uniqueness_metric>  (166) 
0.04341

>  <ad_hoc_penalty>  (166) 
-0.77853

>  <N_rotatable_bonds>  (166) 
3

>  <N_HA>  (166) 
15

>  <cluster>  (166) 
3739

>  <N_interactions>  (166) 
4

>  <Enamine>  (166) 
1

>  <Mcule>  (166) 
0

>  <N_PAINS>  (166) 
0

>  <UFF_Gibbs>  (166) 
116.771004

>  <strain_per_HA>  (166) 
7.784734

>  <intxn_scored>  (166) 
9.5

>  <saltbridge:HIS:51>  (166) 
0

>  <pistack:HIS:51>  (166) 
0

>  <hydroph_interaction:HIS:51>  (166) 
0

>  <hbond:ALA:132>  (166) 
0

>  <hbond:SER:135>  (166) 
0

>  <hydroph_interaction:TYR:150>  (166) 
1

>  <pistack:TYR:161>  (166) 
2

>  <hydroph_interaction:TYR:161>  (166) 
1

>  <hydroph_interaction:ASP:83>  (166) 
0

>  <hbond:TYR:130>  (166) 
0

>  <hydroph_interaction:ALA:132>  (166) 
0

>  <hbond:HIS:51>  (166) 
0

>  <hbond:ASP:129>  (166) 
0

>  <hbond:TYR:150>  (166) 
0

>  <hbond:GLY:151>  (166) 
0

>  <hbond:TYR:161>  (166) 
0

>  <hydroph_interaction:TYR:130>  (166) 
0

>  <hydroph_interaction:PRO:131>  (166) 
0

>  <hydroph_interaction:ASP:129>  (166) 
0

>  <saltbridge:ASP:75>  (166) 
0

>  <saltbridge:ASP:83>  (166) 
0

>  <hbond:ASN:152>  (166) 
0

>  <hydroph_interaction:ASN:152>  (166) 
0

>  <halogenbond:TYR:150>  (166) 
0

>  <hbond:ASP:83>  (166) 
0

>  <hydroph_interaction:VAL:155>  (166) 
0

>  <pication:TYR:161>  (166) 
0

>  <hbond:PRO:131>  (166) 
0

>  <saltbridge:ASP:129>  (166) 
0

>  <hbond:THR:134>  (166) 
0

>  <pication:HIS:51>  (166) 
0

>  <hbond:SER:81>  (166) 
0

>  <hydroph_interaction:THR:134>  (166) 
0

>  <hydroph_interaction:MET:49>  (166) 
0

$$$$
Z3242205644
     RDKit          3D

 34 36  0  0  0  0  0  0  0  0999 V2000
   -7.8080    5.2450  -15.1410 C   0  0  0  0  0  0  0  0  0  0  0  0
   -8.2190    5.1260  -16.6090 C   0  0  0  0  0  0  0  0  0  0  0  0
   -9.5670    4.8770  -16.8400 C   0  0  0  0  0  0  0  0  0  0  0  0
  -10.0740    4.7420  -18.1130 C   0  0  0  0  0  0  0  0  0  0  0  0
   -9.1080    4.8700  -19.2800 C   0  0  0  0  0  0  0  0  0  0  0  0
   -7.7810    5.1180  -19.0290 C   0  0  0  0  0  0  0  0  0  0  0  0
   -6.8420    5.2370  -20.1990 C   0  0  0  0  0  0  0  0  0  0  0  0
   -5.5000    5.4920  -19.9480 C   0  0  0  0  0  0  0  0  0  0  0  0
   -5.0500    5.6200  -18.7000 N   0  0  0  0  0  0  0  0  0  0  0  0
   -5.8830    5.5040  -17.6270 C   0  0  0  0  0  0  0  0  0  0  0  0
   -5.1750    5.6500  -16.3870 N   0  0  0  0  0  0  0  0  0  0  0  0
   -5.2890    7.0030  -15.8200 C   0  0  0  0  0  0  0  0  0  0  0  0
   -4.2540    7.2170  -14.6990 C   0  0  0  0  0  0  0  0  0  0  0  0
   -3.9330    6.0240  -13.8740 N   0  0  0  0  0  0  0  0  0  0  0  0
   -3.6950    4.8520  -14.7410 C   0  0  0  0  0  0  0  0  0  0  0  0
   -3.8120    5.1590  -16.2220 C   0  0  0  0  0  0  0  0  0  0  0  0
   -7.2670    5.2580  -17.7010 C   0  0  0  0  0  0  0  0  0  0  0  0
   -7.8590    6.2870  -14.8120 H   0  0  0  0  0  0  0  0  0  0  0  0
   -8.4380    4.6200  -14.5020 H   0  0  0  0  0  0  0  0  0  0  0  0
   -6.7740    4.9130  -15.0060 H   0  0  0  0  0  0  0  0  0  0  0  0
  -10.2490    4.7850  -15.9980 H   0  0  0  0  0  0  0  0  0  0  0  0
  -11.1300    4.5500  -18.2810 H   0  0  0  0  0  0  0  0  0  0  0  0
   -9.4610    4.7680  -20.3020 H   0  0  0  0  0  0  0  0  0  0  0  0
   -7.1910    5.1240  -21.2150 H   0  0  0  0  0  0  0  0  0  0  0  0
   -4.7760    5.5920  -20.7630 H   0  0  0  0  0  0  0  0  0  0  0  0
   -5.1950    7.7840  -16.5850 H   0  0  0  0  0  0  0  0  0  0  0  0
   -6.2970    7.1030  -15.3960 H   0  0  0  0  0  0  0  0  0  0  0  0
   -4.6290    8.0030  -14.0360 H   0  0  0  0  0  0  0  0  0  0  0  0
   -3.3140    7.5540  -15.1530 H   0  0  0  0  0  0  0  0  0  0  0  0
   -4.8180    5.8100  -13.3880 H   0  0  0  0  0  0  0  0  0  0  0  0
   -4.4250    4.0770  -14.4860 H   0  0  0  0  0  0  0  0  0  0  0  0
   -2.7080    4.4390  -14.5030 H   0  0  0  0  0  0  0  0  0  0  0  0
   -3.0930    5.9540  -16.4590 H   0  0  0  0  0  0  0  0  0  0  0  0
   -3.6190    4.3600  -16.9320 H   0  0  0  0  0  0  0  0  0  0  0  0
  1  2  1  0
  2  3  2  0
  3  4  1  0
  4  5  2  0
  5  6  1  0
  6  7  2  0
  7  8  1  0
  8  9  2  0
  9 10  1  0
 10 11  1  0
 11 12  1  0
 12 13  1  0
 13 14  1  0
 14 15  1  0
 15 16  1  0
 10 17  2  0
 17  2  1  0
 17  6  1  0
 16 11  1  0
  1 18  1  0
  1 19  1  0
  1 20  1  0
  3 21  1  0
  4 22  1  0
  5 23  1  0
  7 24  1  0
  8 25  1  0
 12 26  1  0
 12 27  1  0
 13 28  1  0
 13 29  1  0
 14 30  1  0
 15 31  1  0
 15 32  1  0
 16 33  1  0
 16 34  1  0
A    1
 C1 
A    2
 C2 
A    3
 C3 
A    4
 C4 
A    5
 C5 
A    6
 C6 
A    7
 C7 
A    8
 C8 
A    9
 N1 
A   10
 C9 
A   11
 N2 
A   12
 C10
A   13
 C11
A   14
 N3 
A   15
 C12
A   16
 C13
A   17
 C14
A   18
 H1 
A   19
 H2 
A   20
 H3 
A   21
 H4 
A   22
 H5 
A   23
 H6 
A   24
 H7 
A   25
 H8 
A   26
 H9 
A   27
 H10
A   28
 H11
A   29
 H12
A   30
 H13
A   31
 H14
A   32
 H15
A   33
 H16
A   34
 H17
M  END
>  <ref_pdb>  (167) 
x0051_0B

>  <ref_mols>  (167) 
x0429_0B,x0693_0B

>  <original SMILES>  (167) 
[H]c1nc(N2C([H])([H])C([H])([H])N([H])C([H])([H])C2([H])[H])c2c(C([H])([H])[H])c([H])c([H])c([H])c2c1[H]

>  <index>  (167) 
509

>  <∆∆G>  (167) 
-8.475934

>  <∆G_bound>  (167) 
-7.426042

>  <∆G_unbound>  (167) 
1.049892

>  <comRMSD>  (167) 
0.574276

>  <N_constrained_atoms>  (167) 
18.0

>  <N_unconstrained_atoms>  (167) 
0.0

>  <runtime>  (167) 
24.694709

>  <LE>  (167) 
0.470885

>  <percent_hybrid>  (167) 
20.0

>  <dist>  (167) 
2.0

>  <ecfp4>  (167) 
0.604651

>  <daylight>  (167) 
0.72

>  <topodist>  (167) 
0.0

>  <mces>  (167) 
19.0

>  <tdn>  (167) 
0.0

>  <tup>  (167) 
0.0

>  <rdn>  (167) 
0.0

>  <rup>  (167) 
0.0

>  <ldn>  (167) 
0.0

>  <lup>  (167) 
0.0

>  <mut>  (167) 
2.0

>  <maj>  (167) 
2.0

>  <min>  (167) 
0.0

>  <hyb>  (167) 
0.0

>  <sub>  (167) 
0.0

>  <query_index>  (167) 
179.0

>  <max_hit_Tanimoto>  (167) 
0.387755

>  <largest_ring>  (167) 
6

>  <N_interactions_kept>  (167) 
2.5

>  <N_interactions_lost>  (167) 
2.0

>  <interaction_uniqueness_metric>  (167) 
0.04341

>  <ad_hoc_penalty>  (167) 
-20.993821

>  <N_rotatable_bonds>  (167) 
2

>  <N_HA>  (167) 
17

>  <cluster>  (167) 
5754

>  <N_interactions>  (167) 
4

>  <Enamine>  (167) 
1

>  <Mcule>  (167) 
0

>  <N_PAINS>  (167) 
0

>  <UFF_Gibbs>  (167) 
55.929025

>  <strain_per_HA>  (167) 
3.289943

>  <intxn_scored>  (167) 
9.5

>  <saltbridge:HIS:51>  (167) 
0

>  <pistack:HIS:51>  (167) 
0

>  <hydroph_interaction:HIS:51>  (167) 
0

>  <hbond:ALA:132>  (167) 
0

>  <hbond:SER:135>  (167) 
0

>  <hydroph_interaction:TYR:150>  (167) 
1

>  <pistack:TYR:161>  (167) 
2

>  <hydroph_interaction:TYR:161>  (167) 
1

>  <hydroph_interaction:ASP:83>  (167) 
0

>  <hbond:TYR:130>  (167) 
0

>  <hydroph_interaction:ALA:132>  (167) 
0

>  <hbond:HIS:51>  (167) 
0

>  <hbond:ASP:129>  (167) 
0

>  <hbond:TYR:150>  (167) 
0

>  <hbond:GLY:151>  (167) 
0

>  <hbond:TYR:161>  (167) 
0

>  <hydroph_interaction:TYR:130>  (167) 
0

>  <hydroph_interaction:PRO:131>  (167) 
0

>  <hydroph_interaction:ASP:129>  (167) 
0

>  <saltbridge:ASP:75>  (167) 
0

>  <saltbridge:ASP:83>  (167) 
0

>  <hbond:ASN:152>  (167) 
0

>  <hydroph_interaction:ASN:152>  (167) 
0

>  <halogenbond:TYR:150>  (167) 
0

>  <hbond:ASP:83>  (167) 
0

>  <hydroph_interaction:VAL:155>  (167) 
0

>  <pication:TYR:161>  (167) 
0

>  <hbond:PRO:131>  (167) 
0

>  <saltbridge:ASP:129>  (167) 
0

>  <hbond:THR:134>  (167) 
0

>  <pication:HIS:51>  (167) 
0

>  <hbond:SER:81>  (167) 
0

>  <hydroph_interaction:THR:134>  (167) 
0

>  <hydroph_interaction:MET:49>  (167) 
0

$$$$
Z1340722931
     RDKit          3D

 36 37  0  0  0  0  0  0  0  0999 V2000
   -4.3390    6.2970  -13.7720 C   0  0  0  0  0  0  0  0  0  0  0  0
   -4.3190    7.2580  -14.7800 C   0  0  0  0  0  0  0  0  0  0  0  0
   -5.1780    7.0890  -15.8550 C   0  0  0  0  0  0  0  0  0  0  0  0
   -5.2630    5.6740  -16.3110 N   0  0  0  0  0  0  0  0  0  0  0  0
   -3.8980    5.0910  -16.4370 C   0  0  0  0  0  0  0  0  0  0  0  0
   -3.4470    4.2910  -15.2270 C   0  0  0  0  0  0  0  0  0  0  0  0
   -5.8770    5.5880  -17.5080 C   0  0  0  0  0  0  0  0  0  0  0  0
   -5.0900    5.7740  -18.5900 N   0  0  0  0  0  0  0  0  0  0  0  0
   -5.6730    5.6810  -19.7770 C   0  0  0  0  0  0  0  0  0  0  0  0
   -6.9530    5.4250  -19.9970 N   0  0  0  0  0  0  0  0  0  0  0  0
   -7.7370    5.2420  -18.9380 C   0  0  0  0  0  0  0  0  0  0  0  0
   -9.0720    4.9770  -19.2360 C   0  0  0  0  0  0  0  0  0  0  0  0
  -10.1270    4.7400  -18.1370 C   0  0  0  0  0  0  0  0  0  0  0  0
   -9.7020    4.8000  -16.8330 C   0  0  0  0  0  0  0  0  0  0  0  0
   -8.2230    5.0950  -16.5290 C   0  0  0  0  0  0  0  0  0  0  0  0
   -7.8690    5.1330  -15.0780 C   0  0  0  0  0  0  0  0  0  0  0  0
   -7.2760    5.3100  -17.5990 C   0  0  0  0  0  0  0  0  0  0  0  0
   -5.0490    5.4970  -14.0040 H   0  0  0  0  0  0  0  0  0  0  0  0
   -4.6470    6.7550  -12.8280 H   0  0  0  0  0  0  0  0  0  0  0  0
   -3.3490    5.8560  -13.6220 H   0  0  0  0  0  0  0  0  0  0  0  0
   -4.5120    8.2260  -14.3050 H   0  0  0  0  0  0  0  0  0  0  0  0
   -3.2940    7.3110  -15.1590 H   0  0  0  0  0  0  0  0  0  0  0  0
   -4.8990    7.7610  -16.6800 H   0  0  0  0  0  0  0  0  0  0  0  0
   -6.1790    7.4030  -15.5320 H   0  0  0  0  0  0  0  0  0  0  0  0
   -3.1500    5.8580  -16.6730 H   0  0  0  0  0  0  0  0  0  0  0  0
   -3.8990    4.4010  -17.2890 H   0  0  0  0  0  0  0  0  0  0  0  0
   -2.6100    4.7710  -14.7160 H   0  0  0  0  0  0  0  0  0  0  0  0
   -3.1040    3.3060  -15.5510 H   0  0  0  0  0  0  0  0  0  0  0  0
   -4.2530    4.1280  -14.5060 H   0  0  0  0  0  0  0  0  0  0  0  0
   -5.0450    5.8280  -20.6480 H   0  0  0  0  0  0  0  0  0  0  0  0
   -9.3820    4.9330  -20.2790 H   0  0  0  0  0  0  0  0  0  0  0  0
  -11.1650    4.5360  -18.3870 H   0  0  0  0  0  0  0  0  0  0  0  0
  -10.4110    4.6380  -16.0260 H   0  0  0  0  0  0  0  0  0  0  0  0
   -6.9210    4.6180  -14.8840 H   0  0  0  0  0  0  0  0  0  0  0  0
   -7.7420    6.1590  -14.7320 H   0  0  0  0  0  0  0  0  0  0  0  0
   -8.6230    4.6170  -14.4830 H   0  0  0  0  0  0  0  0  0  0  0  0
  1  2  1  0
  2  3  1  0
  3  4  1  0
  4  5  1  0
  5  6  1  0
  4  7  1  0
  7  8  2  0
  8  9  1  0
  9 10  2  0
 10 11  1  0
 11 12  2  0
 12 13  1  0
 13 14  2  0
 14 15  1  0
 15 16  1  0
 15 17  2  0
 17  7  1  0
 17 11  1  0
  1 18  1  0
  1 19  1  0
  1 20  1  0
  2 21  1  0
  2 22  1  0
  3 23  1  0
  3 24  1  0
  5 25  1  0
  5 26  1  0
  6 27  1  0
  6 28  1  0
  6 29  1  0
  9 30  1  0
 12 31  1  0
 13 32  1  0
 14 33  1  0
 16 34  1  0
 16 35  1  0
 16 36  1  0
A    1
 C1 
A    2
 C2 
A    3
 C3 
A    4
 N1 
A    5
 C4 
A    6
 C5 
A    7
 C6 
A    8
 N2 
A    9
 C7 
A   10
 N3 
A   11
 C8 
A   12
 C9 
A   13
 C10
A   14
 C11
A   15
 C12
A   16
 C13
A   17
 C14
A   18
 H1 
A   19
 H2 
A   20
 H3 
A   21
 H4 
A   22
 H5 
A   23
 H6 
A   24
 H7 
A   25
 H8 
A   26
 H9 
A   27
 H10
A   28
 H11
A   29
 H12
A   30
 H13
A   31
 H14
A   32
 H15
A   33
 H16
A   34
 H17
A   35
 H18
A   36
 H19
M  END
>  <ref_pdb>  (168) 
x0051_0B

>  <ref_mols>  (168) 
x0429_0B,x0693_0B

>  <original SMILES>  (168) 
[H]c1nc(N(C([H])([H])C([H])([H])[H])C([H])([H])C([H])([H])C([H])([H])[H])c2c(C([H])([H])[H])c([H])c([H])c([H])c2n1

>  <index>  (168) 
2231

>  <∆∆G>  (168) 
-7.262166

>  <∆G_bound>  (168) 
-7.83647

>  <∆G_unbound>  (168) 
-0.574305

>  <comRMSD>  (168) 
0.607183

>  <N_constrained_atoms>  (168) 
18.0

>  <N_unconstrained_atoms>  (168) 
0.0

>  <runtime>  (168) 
22.401031

>  <LE>  (168) 
0.403454

>  <percent_hybrid>  (168) 
20.0

>  <dist>  (168) 
3.0

>  <ecfp4>  (168) 
0.428571

>  <daylight>  (168) 
0.512821

>  <topodist>  (168) 
1.0

>  <mces>  (168) 
18.0

>  <tdn>  (168) 
0.0

>  <tup>  (168) 
0.0

>  <rdn>  (168) 
1.0

>  <rup>  (168) 
0.0

>  <ldn>  (168) 
0.0

>  <lup>  (168) 
0.0

>  <mut>  (168) 
2.0

>  <maj>  (168) 
2.0

>  <min>  (168) 
0.0

>  <hyb>  (168) 
0.0

>  <sub>  (168) 
1.0

>  <query_index>  (168) 
179.0

>  <max_hit_Tanimoto>  (168) 
0.376068

>  <largest_ring>  (168) 
6

>  <N_interactions_kept>  (168) 
2.5

>  <N_interactions_lost>  (168) 
2.0

>  <interaction_uniqueness_metric>  (168) 
0.076578

>  <ad_hoc_penalty>  (168) 
-1.391138

>  <N_rotatable_bonds>  (168) 
7

>  <N_HA>  (168) 
17

>  <cluster>  (168) 
4167

>  <N_interactions>  (168) 
5

>  <Enamine>  (168) 
1

>  <Mcule>  (168) 
0

>  <N_PAINS>  (168) 
0

>  <UFF_Gibbs>  (168) 
168.350872

>  <strain_per_HA>  (168) 
9.902992

>  <intxn_scored>  (168) 
9.5

>  <saltbridge:HIS:51>  (168) 
0

>  <pistack:HIS:51>  (168) 
0

>  <hydroph_interaction:HIS:51>  (168) 
0

>  <hbond:ALA:132>  (168) 
0

>  <hbond:SER:135>  (168) 
0

>  <hydroph_interaction:TYR:150>  (168) 
1

>  <pistack:TYR:161>  (168) 
2

>  <hydroph_interaction:TYR:161>  (168) 
1

>  <hydroph_interaction:ASP:83>  (168) 
0

>  <hbond:TYR:130>  (168) 
0

>  <hydroph_interaction:ALA:132>  (168) 
0

>  <hbond:HIS:51>  (168) 
0

>  <hbond:ASP:129>  (168) 
0

>  <hbond:TYR:150>  (168) 
0

>  <hbond:GLY:151>  (168) 
0

>  <hbond:TYR:161>  (168) 
0

>  <hydroph_interaction:TYR:130>  (168) 
0

>  <hydroph_interaction:PRO:131>  (168) 
0

>  <hydroph_interaction:ASP:129>  (168) 
0

>  <saltbridge:ASP:75>  (168) 
0

>  <saltbridge:ASP:83>  (168) 
0

>  <hbond:ASN:152>  (168) 
0

>  <hydroph_interaction:ASN:152>  (168) 
0

>  <halogenbond:TYR:150>  (168) 
0

>  <hbond:ASP:83>  (168) 
0

>  <hydroph_interaction:VAL:155>  (168) 
1

>  <pication:TYR:161>  (168) 
0

>  <hbond:PRO:131>  (168) 
0

>  <saltbridge:ASP:129>  (168) 
0

>  <hbond:THR:134>  (168) 
0

>  <pication:HIS:51>  (168) 
0

>  <hbond:SER:81>  (168) 
0

>  <hydroph_interaction:THR:134>  (168) 
0

>  <hydroph_interaction:MET:49>  (168) 
0

$$$$
Z1692830787
     RDKit          3D

 36 38  0  0  0  0  0  0  0  0999 V2000
   -3.4590    5.7730  -18.7940 C   0  0  0  0  0  0  0  0  0  0  0  0
   -4.9390    5.5760  -18.6250 C   0  0  0  0  0  0  0  0  0  0  0  0
   -5.6630    5.4100  -19.8390 C   0  0  0  0  0  0  0  0  0  0  0  0
   -6.9950    5.2270  -19.6370 N   0  0  0  0  0  0  0  0  0  0  0  0
   -7.6500    5.1890  -18.3560 C   0  0  0  0  0  0  0  0  0  0  0  0
   -8.9940    4.9870  -18.3010 C   0  0  0  0  0  0  0  0  0  0  0  0
   -9.7160    4.8450  -19.4120 C   0  0  0  0  0  0  0  0  0  0  0  0
   -9.6760    4.9300  -17.0990 C   0  0  0  0  0  0  0  0  0  0  0  0
   -8.9900    5.0910  -15.9260 C   0  0  0  0  0  0  0  0  0  0  0  0
   -7.6270    5.3000  -16.0020 C   0  0  0  0  0  0  0  0  0  0  0  0
   -6.9360    5.3510  -17.1890 C   0  0  0  0  0  0  0  0  0  0  0  0
   -5.5520    5.5550  -17.3380 C   0  0  0  0  0  0  0  0  0  0  0  0
   -4.7250    5.7460  -16.2350 N   0  0  0  0  0  0  0  0  0  0  0  0
   -4.7960    7.0610  -15.5890 C   0  0  0  0  0  0  0  0  0  0  0  0
   -3.8630    7.0480  -14.4260 C   0  0  0  0  0  0  0  0  0  0  0  0
   -3.7680    5.7280  -13.8540 O   0  0  0  0  0  0  0  0  0  0  0  0
   -3.0720    4.8220  -14.7400 C   0  0  0  0  0  0  0  0  0  0  0  0
   -3.4230    5.0870  -16.2080 C   0  0  0  0  0  0  0  0  0  0  0  0
   -3.1970    6.0220  -19.8270 H   0  0  0  0  0  0  0  0  0  0  0  0
   -2.9170    4.8770  -18.4730 H   0  0  0  0  0  0  0  0  0  0  0  0
   -3.1110    6.6180  -18.1880 H   0  0  0  0  0  0  0  0  0  0  0  0
   -5.1780    5.4300  -20.8170 H   0  0  0  0  0  0  0  0  0  0  0  0
   -9.6270    5.7230  -20.0450 H   0  0  0  0  0  0  0  0  0  0  0  0
  -10.7570    4.7260  -19.1130 H   0  0  0  0  0  0  0  0  0  0  0  0
   -9.3860    3.9800  -19.9820 H   0  0  0  0  0  0  0  0  0  0  0  0
  -10.7370    4.7630  -17.0920 H   0  0  0  0  0  0  0  0  0  0  0  0
   -9.5040    5.0530  -14.9680 H   0  0  0  0  0  0  0  0  0  0  0  0
   -7.1470    5.4180  -15.0260 H   0  0  0  0  0  0  0  0  0  0  0  0
   -5.8110    7.2690  -15.2340 H   0  0  0  0  0  0  0  0  0  0  0  0
   -4.4940    7.8580  -16.2730 H   0  0  0  0  0  0  0  0  0  0  0  0
   -4.1870    7.7520  -13.6500 H   0  0  0  0  0  0  0  0  0  0  0  0
   -2.8600    7.3430  -14.7510 H   0  0  0  0  0  0  0  0  0  0  0  0
   -3.3660    3.8010  -14.4710 H   0  0  0  0  0  0  0  0  0  0  0  0
   -1.9940    4.9180  -14.5700 H   0  0  0  0  0  0  0  0  0  0  0  0
   -2.6490    5.7220  -16.6550 H   0  0  0  0  0  0  0  0  0  0  0  0
   -3.4420    4.1370  -16.7450 H   0  0  0  0  0  0  0  0  0  0  0  0
  1  2  1  0
  2  3  2  0
  3  4  1  0
  4  5  2  0
  5  6  1  0
  6  7  1  0
  6  8  2  0
  8  9  1  0
  9 10  2  0
 10 11  1  0
 11 12  2  0
 12 13  1  0
 13 14  1  0
 14 15  1  0
 15 16  1  0
 16 17  1  0
 17 18  1  0
 12  2  1  0
 11  5  1  0
 18 13  1  0
  1 19  1  0
  1 20  1  0
  1 21  1  0
  3 22  1  0
  7 23  1  0
  7 24  1  0
  7 25  1  0
  8 26  1  0
  9 27  1  0
 10 28  1  0
 14 29  1  0
 14 30  1  0
 15 31  1  0
 15 32  1  0
 17 33  1  0
 17 34  1  0
 18 35  1  0
 18 36  1  0
A    1
 C1 
A    2
 C2 
A    3
 C3 
A    4
 N1 
A    5
 C4 
A    6
 C5 
A    7
 C6 
A    8
 C7 
A    9
 C8 
A   10
 C9 
A   11
 C10
A   12
 C11
A   13
 N2 
A   14
 C12
A   15
 C13
A   16
 O1 
A   17
 C14
A   18
 C15
A   19
 H1 
A   20
 H2 
A   21
 H3 
A   22
 H4 
A   23
 H5 
A   24
 H6 
A   25
 H7 
A   26
 H8 
A   27
 H9 
A   28
 H10
A   29
 H11
A   30
 H12
A   31
 H13
A   32
 H14
A   33
 H15
A   34
 H16
A   35
 H17
A   36
 H18
M  END
>  <ref_pdb>  (169) 
x0051_0B

>  <ref_mols>  (169) 
x0429_0B,x0051_0B

>  <original SMILES>  (169) 
[H]c1nc2c(C([H])([H])[H])c([H])c([H])c([H])c2c(N2C([H])([H])C([H])([H])OC([H])([H])C2([H])[H])c1C([H])([H])[H]

>  <index>  (169) 
2847

>  <∆∆G>  (169) 
-7.391178

>  <∆G_bound>  (169) 
-7.412514

>  <∆G_unbound>  (169) 
-0.021336

>  <comRMSD>  (169) 
0.611188

>  <N_constrained_atoms>  (169) 
18.0

>  <N_unconstrained_atoms>  (169) 
1.0

>  <runtime>  (169) 
26.087056

>  <LE>  (169) 
0.389009

>  <percent_hybrid>  (169) 
25.0

>  <dist>  (169) 
3.0

>  <ecfp4>  (169) 
0.381818

>  <daylight>  (169) 
0.402597

>  <topodist>  (169) 
1.0

>  <mces>  (169) 
20.0

>  <tdn>  (169) 
0.0

>  <tup>  (169) 
0.0

>  <rdn>  (169) 
0.0

>  <rup>  (169) 
0.0

>  <ldn>  (169) 
1.0

>  <lup>  (169) 
0.0

>  <mut>  (169) 
2.0

>  <maj>  (169) 
2.0

>  <min>  (169) 
0.0

>  <hyb>  (169) 
0.0

>  <sub>  (169) 
0.0

>  <query_index>  (169) 
194.0

>  <max_hit_Tanimoto>  (169) 
0.5625

>  <largest_ring>  (169) 
6

>  <N_interactions_kept>  (169) 
1.0

>  <N_interactions_lost>  (169) 
3.0

>  <interaction_uniqueness_metric>  (169) 
0.04341

>  <ad_hoc_penalty>  (169) 
-3.140179

>  <N_rotatable_bonds>  (169) 
3

>  <N_HA>  (169) 
18

>  <cluster>  (169) 
3590

>  <N_interactions>  (169) 
4

>  <Enamine>  (169) 
1

>  <Mcule>  (169) 
0

>  <N_PAINS>  (169) 
0

>  <UFF_Gibbs>  (169) 
82.153094

>  <strain_per_HA>  (169) 
4.564061

>  <intxn_scored>  (169) 
9.5

>  <saltbridge:HIS:51>  (169) 
0

>  <pistack:HIS:51>  (169) 
0

>  <hydroph_interaction:HIS:51>  (169) 
0

>  <hbond:ALA:132>  (169) 
0

>  <hbond:SER:135>  (169) 
0

>  <hydroph_interaction:TYR:150>  (169) 
1

>  <pistack:TYR:161>  (169) 
2

>  <hydroph_interaction:TYR:161>  (169) 
1

>  <hydroph_interaction:ASP:83>  (169) 
0

>  <hbond:TYR:130>  (169) 
0

>  <hydroph_interaction:ALA:132>  (169) 
0

>  <hbond:HIS:51>  (169) 
0

>  <hbond:ASP:129>  (169) 
0

>  <hbond:TYR:150>  (169) 
0

>  <hbond:GLY:151>  (169) 
0

>  <hbond:TYR:161>  (169) 
0

>  <hydroph_interaction:TYR:130>  (169) 
0

>  <hydroph_interaction:PRO:131>  (169) 
0

>  <hydroph_interaction:ASP:129>  (169) 
0

>  <saltbridge:ASP:75>  (169) 
0

>  <saltbridge:ASP:83>  (169) 
0

>  <hbond:ASN:152>  (169) 
0

>  <hydroph_interaction:ASN:152>  (169) 
0

>  <halogenbond:TYR:150>  (169) 
0

>  <hbond:ASP:83>  (169) 
0

>  <hydroph_interaction:VAL:155>  (169) 
0

>  <pication:TYR:161>  (169) 
0

>  <hbond:PRO:131>  (169) 
0

>  <saltbridge:ASP:129>  (169) 
0

>  <hbond:THR:134>  (169) 
0

>  <pication:HIS:51>  (169) 
0

>  <hbond:SER:81>  (169) 
0

>  <hydroph_interaction:THR:134>  (169) 
0

>  <hydroph_interaction:MET:49>  (169) 
0

$$$$
Z2312665400
     RDKit          3D

 37 39  0  0  0  0  0  0  0  0999 V2000
   -9.1830    4.7420  -19.3990 C   0  0  0  0  0  0  0  0  0  0  0  0
   -8.7240    4.9580  -18.1680 C   0  0  0  0  0  0  0  0  0  0  0  0
   -9.5240    4.9340  -16.9880 C   0  0  0  0  0  0  0  0  0  0  0  0
   -9.0370    5.1650  -15.6940 C   0  0  0  0  0  0  0  0  0  0  0  0
   -9.7120    5.2010  -14.3820 C   0  0  0  0  0  0  0  0  0  0  0  0
   -8.9090    4.8320  -13.2040 O   0  0  0  0  0  0  0  0  0  0  0  0
   -8.6040    5.8700  -12.3370 C   0  0  0  0  0  0  0  0  0  0  0  0
   -8.2020    6.9460  -12.7710 O   0  0  0  0  0  0  0  0  0  0  0  0
   -8.7580    5.7050  -10.8610 C   0  0  0  0  0  0  0  0  0  0  0  0
   -8.9080    4.4670   -9.9840 C   0  0  0  0  0  0  0  0  0  0  0  0
   -8.9470    3.0250  -10.4450 C   0  0  0  0  0  0  0  0  0  0  0  0
   -8.5830    2.1740   -9.2230 C   0  0  0  0  0  0  0  0  0  0  0  0
   -9.2610    2.5850   -8.0970 C   0  0  0  0  0  0  0  0  0  0  0  0
   -9.1650    3.9990   -7.5600 C   0  0  0  0  0  0  0  0  0  0  0  0
   -9.0030    4.8880   -8.6940 N   0  0  0  0  0  0  0  0  0  0  0  0
   -8.9290    6.2410   -8.5760 N   0  0  0  0  0  0  0  0  0  0  0  0
   -8.7920    6.7090   -9.8460 C   0  0  0  0  0  0  0  0  0  0  0  0
   -7.6600    5.4140  -15.6730 C   0  0  0  0  0  0  0  0  0  0  0  0
   -6.9140    5.4260  -16.8540 C   0  0  0  0  0  0  0  0  0  0  0  0
   -5.0520    5.7690  -16.7510 Br  0  0  0  0  0  0  0  0  0  0  0  0
   -7.4090    5.2090  -18.0850 N   0  0  0  0  0  0  0  0  0  0  0  0
   -9.3200    3.6990  -19.6340 H   0  0  0  0  0  0  0  0  0  0  0  0
  -10.0330    5.3390  -19.7190 H   0  0  0  0  0  0  0  0  0  0  0  0
   -8.3890    5.0630  -20.0750 H   0  0  0  0  0  0  0  0  0  0  0  0
  -10.5640    4.7220  -17.1730 H   0  0  0  0  0  0  0  0  0  0  0  0
  -10.1960    6.1710  -14.2320 H   0  0  0  0  0  0  0  0  0  0  0  0
  -10.5510    4.5060  -14.4030 H   0  0  0  0  0  0  0  0  0  0  0  0
   -8.2360    2.8380  -11.2580 H   0  0  0  0  0  0  0  0  0  0  0  0
   -9.9370    2.7680  -10.7960 H   0  0  0  0  0  0  0  0  0  0  0  0
   -8.7600    1.1390   -9.3980 H   0  0  0  0  0  0  0  0  0  0  0  0
   -7.5140    2.2570   -9.0490 H   0  0  0  0  0  0  0  0  0  0  0  0
   -8.9520    1.9170   -7.2860 H   0  0  0  0  0  0  0  0  0  0  0  0
  -10.3260    2.3710   -8.2520 H   0  0  0  0  0  0  0  0  0  0  0  0
  -10.0700    4.2780   -7.0130 H   0  0  0  0  0  0  0  0  0  0  0  0
   -8.3100    4.1090   -6.8820 H   0  0  0  0  0  0  0  0  0  0  0  0
   -8.7220    7.7950   -9.9830 H   0  0  0  0  0  0  0  0  0  0  0  0
   -7.1680    5.6010  -14.7300 H   0  0  0  0  0  0  0  0  0  0  0  0
  1  2  1  0
  2  3  2  0
  3  4  1  0
  4  5  1  0
  5  6  1  0
  6  7  1  0
  7  8  2  0
  7  9  1  0
  9 10  2  0
 10 11  1  0
 11 12  1  0
 12 13  1  0
 13 14  1  0
 14 15  1  0
 15 16  1  0
 16 17  2  0
  4 18  2  0
 18 19  1  0
 19 20  1  0
 19 21  2  0
 21  2  1  0
 17  9  1  0
 15 10  1  0
  1 22  1  0
  1 23  1  0
  1 24  1  0
  3 25  1  0
  5 26  1  0
  5 27  1  0
 11 28  1  0
 11 29  1  0
 12 30  1  0
 12 31  1  0
 13 32  1  0
 13 33  1  0
 14 34  1  0
 14 35  1  0
 17 36  1  0
 18 37  1  0
A    1
 C1 
A    2
 C2 
A    3
 C3 
A    4
 C4 
A    5
 C5 
A    6
 O1 
A    7
 C6 
A    8
 O2 
A    9
 C7 
A   10
 C8 
A   11
 C9 
A   12
 C10
A   13
 C11
A   14
 C12
A   15
 N1 
A   16
 N2 
A   17
 C13
A   18
 C14
A   19
 C15
A   20
BR1 
A   21
 N3 
A   22
 H1 
A   23
 H2 
A   24
 H3 
A   25
 H4 
A   26
 H5 
A   27
 H6 
A   28
 H7 
A   29
 H8 
A   30
 H9 
A   31
 H10
A   32
 H11
A   33
 H12
A   34
 H13
A   35
 H14
A   36
 H15
A   37
 H16
M  END
>  <ref_pdb>  (170) 
x0051_0B

>  <ref_mols>  (170) 
x0969_1B,x0589_0B

>  <original SMILES>  (170) 
[H]c1nn2c(c1C(=O)OC([H])([H])c1c([H])c(Br)nc(C([H])([H])[H])c1[H])C([H])([H])C([H])([H])C([H])([H])C2([H])[H]

>  <index>  (170) 
104

>  <∆∆G>  (170) 
-7.314185

>  <∆G_bound>  (170) 
-6.665988

>  <∆G_unbound>  (170) 
0.648197

>  <comRMSD>  (170) 
0.684716

>  <N_constrained_atoms>  (170) 
17.0

>  <N_unconstrained_atoms>  (170) 
5.0

>  <runtime>  (170) 
41.547318

>  <LE>  (170) 
0.332463

>  <percent_hybrid>  (170) 
42.0

>  <dist>  (170) 
4.0

>  <ecfp4>  (170) 
0.311688

>  <daylight>  (170) 
0.404412

>  <topodist>  (170) 
1.0

>  <mces>  (170) 
22.0

>  <tdn>  (170) 
0.0

>  <tup>  (170) 
1.0

>  <rdn>  (170) 
0.0

>  <rup>  (170) 
0.0

>  <ldn>  (170) 
0.0

>  <lup>  (170) 
0.0

>  <mut>  (170) 
2.0

>  <maj>  (170) 
2.0

>  <min>  (170) 
0.0

>  <hyb>  (170) 
1.0

>  <sub>  (170) 
0.0

>  <query_index>  (170) 
380.0

>  <max_hit_Tanimoto>  (170) 
0.31094

>  <largest_ring>  (170) 
0

>  <N_interactions_kept>  (170) 
1.5

>  <N_interactions_lost>  (170) 
1.0

>  <interaction_uniqueness_metric>  (170) 
0.239017

>  <ad_hoc_penalty>  (170) 
-31.976064

>  <N_rotatable_bonds>  (170) 
4

>  <N_HA>  (170) 
21

>  <cluster>  (170) 
530

>  <N_interactions>  (170) 
6

>  <Enamine>  (170) 
1

>  <Mcule>  (170) 
0

>  <N_PAINS>  (170) 
0

>  <UFF_Gibbs>  (170) 
83.113398

>  <strain_per_HA>  (170) 
3.957781

>  <intxn_scored>  (170) 
9.5

>  <saltbridge:HIS:51>  (170) 
1

>  <pistack:HIS:51>  (170) 
1

>  <hydroph_interaction:HIS:51>  (170) 
0

>  <hbond:ALA:132>  (170) 
0

>  <hbond:SER:135>  (170) 
0

>  <hydroph_interaction:TYR:150>  (170) 
1

>  <pistack:TYR:161>  (170) 
1

>  <hydroph_interaction:TYR:161>  (170) 
1

>  <hydroph_interaction:ASP:83>  (170) 
1

>  <hbond:TYR:130>  (170) 
0

>  <hydroph_interaction:ALA:132>  (170) 
0

>  <hbond:HIS:51>  (170) 
0

>  <hbond:ASP:129>  (170) 
0

>  <hbond:TYR:150>  (170) 
0

>  <hbond:GLY:151>  (170) 
0

>  <hbond:TYR:161>  (170) 
0

>  <hydroph_interaction:TYR:130>  (170) 
0

>  <hydroph_interaction:PRO:131>  (170) 
0

>  <hydroph_interaction:ASP:129>  (170) 
0

>  <saltbridge:ASP:75>  (170) 
0

>  <saltbridge:ASP:83>  (170) 
0

>  <hbond:ASN:152>  (170) 
0

>  <hydroph_interaction:ASN:152>  (170) 
0

>  <halogenbond:TYR:150>  (170) 
0

>  <hbond:ASP:83>  (170) 
0

>  <hydroph_interaction:VAL:155>  (170) 
0

>  <pication:TYR:161>  (170) 
0

>  <hbond:PRO:131>  (170) 
0

>  <saltbridge:ASP:129>  (170) 
0

>  <hbond:THR:134>  (170) 
0

>  <pication:HIS:51>  (170) 
0

>  <hbond:SER:81>  (170) 
0

>  <hydroph_interaction:THR:134>  (170) 
0

>  <hydroph_interaction:MET:49>  (170) 
0

$$$$
CSSB00000056470
     RDKit          3D

 17 18  0  0  0  0  0  0  0  0999 V2000
  -11.1440    4.5740  -18.3450 F   0  0  0  0  0  0  0  0  0  0  0  0
   -9.8670    4.8070  -18.0450 C   0  0  0  0  0  0  0  0  0  0  0  0
   -8.9490    4.9260  -19.0800 C   0  0  0  0  0  0  0  0  0  0  0  0
   -7.6030    5.1790  -18.7870 C   0  0  0  0  0  0  0  0  0  0  0  0
   -6.6490    5.3050  -19.7970 C   0  0  0  0  0  0  0  0  0  0  0  0
   -5.3370    5.5510  -19.4360 C   0  0  0  0  0  0  0  0  0  0  0  0
   -4.9130    5.6800  -18.1630 N   0  0  0  0  0  0  0  0  0  0  0  0
   -5.8520    5.5570  -17.1980 C   0  0  0  0  0  0  0  0  0  0  0  0
   -7.2000    5.3090  -17.4410 C   0  0  0  0  0  0  0  0  0  0  0  0
   -8.1450    5.1830  -16.4100 C   0  0  0  0  0  0  0  0  0  0  0  0
   -9.4790    4.9320  -16.7140 C   0  0  0  0  0  0  0  0  0  0  0  0
   -9.2980    4.8200  -20.1020 H   0  0  0  0  0  0  0  0  0  0  0  0
   -6.9120    5.2140  -20.8450 H   0  0  0  0  0  0  0  0  0  0  0  0
   -4.5650    5.6550  -20.1940 H   0  0  0  0  0  0  0  0  0  0  0  0
   -5.4700    5.6660  -16.1870 H   0  0  0  0  0  0  0  0  0  0  0  0
   -7.8470    5.2790  -15.3680 H   0  0  0  0  0  0  0  0  0  0  0  0
  -10.2150    4.8330  -15.9250 H   0  0  0  0  0  0  0  0  0  0  0  0
  1  2  1  0
  2  3  2  0
  3  4  1  0
  4  5  2  0
  5  6  1  0
  6  7  2  0
  7  8  1  0
  8  9  2  0
  9 10  1  0
 10 11  2  0
 11  2  1  0
  9  4  1  0
  3 12  1  0
  5 13  1  0
  6 14  1  0
  8 15  1  0
 10 16  1  0
 11 17  1  0
A    1
 F1 
A    2
 C1 
A    3
 C2 
A    4
 C3 
A    5
 C4 
A    6
 C5 
A    7
 N1 
A    8
 C6 
A    9
 C7 
A   10
 C8 
A   11
 C9 
A   12
 H1 
A   13
 H2 
A   14
 H3 
A   15
 H4 
A   16
 H5 
A   17
 H6 
M  END
>  <ref_pdb>  (171) 
x0051_0B

>  <ref_mols>  (171) 
x0727_0B,x0605_0B

>  <original SMILES>  (171) 
[H]c1nc([H])c2c([H])c([H])c(F)c([H])c2c1[H]

>  <index>  (171) 
3470

>  <∆∆G>  (171) 
-5.35073

>  <∆G_bound>  (171) 
-5.268857

>  <∆G_unbound>  (171) 
0.081873

>  <comRMSD>  (171) 
0.520988

>  <N_constrained_atoms>  (171) 
12.0

>  <N_unconstrained_atoms>  (171) 
0.0

>  <runtime>  (171) 
22.868463

>  <LE>  (171) 
0.445894

>  <percent_hybrid>  (171) 
25.0

>  <dist>  (171) 
3.0

>  <ecfp4>  (171) 
0.181818

>  <daylight>  (171) 
0.414286

>  <topodist>  (171) 
2.0

>  <mces>  (171) 
12.0

>  <tdn>  (171) 
2.0

>  <tup>  (171) 
0.0

>  <rdn>  (171) 
0.0

>  <rup>  (171) 
0.0

>  <ldn>  (171) 
0.0

>  <lup>  (171) 
0.0

>  <mut>  (171) 
1.0

>  <maj>  (171) 
1.0

>  <min>  (171) 
0.0

>  <hyb>  (171) 
0.0

>  <sub>  (171) 
1.0

>  <query_index>  (171) 
74.0

>  <max_hit_Tanimoto>  (171) 
0.366972

>  <largest_ring>  (171) 
6

>  <N_interactions_kept>  (171) 
0.0

>  <N_interactions_lost>  (171) 
3.5

>  <interaction_uniqueness_metric>  (171) 
0.04341

>  <ad_hoc_penalty>  (171) 
-4.217583

>  <N_rotatable_bonds>  (171) 
0

>  <N_HA>  (171) 
11

>  <cluster>  (171) 
3001

>  <N_interactions>  (171) 
4

>  <Enamine>  (171) 
1

>  <Mcule>  (171) 
0

>  <N_PAINS>  (171) 
0

>  <UFF_Gibbs>  (171) 
5.167642

>  <strain_per_HA>  (171) 
0.469786

>  <intxn_scored>  (171) 
9.5

>  <saltbridge:HIS:51>  (171) 
0

>  <pistack:HIS:51>  (171) 
0

>  <hydroph_interaction:HIS:51>  (171) 
0

>  <hbond:ALA:132>  (171) 
0

>  <hbond:SER:135>  (171) 
0

>  <hydroph_interaction:TYR:150>  (171) 
1

>  <pistack:TYR:161>  (171) 
2

>  <hydroph_interaction:TYR:161>  (171) 
1

>  <hydroph_interaction:ASP:83>  (171) 
0

>  <hbond:TYR:130>  (171) 
0

>  <hydroph_interaction:ALA:132>  (171) 
0

>  <hbond:HIS:51>  (171) 
0

>  <hbond:ASP:129>  (171) 
0

>  <hbond:TYR:150>  (171) 
0

>  <hbond:GLY:151>  (171) 
0

>  <hbond:TYR:161>  (171) 
0

>  <hydroph_interaction:TYR:130>  (171) 
0

>  <hydroph_interaction:PRO:131>  (171) 
0

>  <hydroph_interaction:ASP:129>  (171) 
0

>  <saltbridge:ASP:75>  (171) 
0

>  <saltbridge:ASP:83>  (171) 
0

>  <hbond:ASN:152>  (171) 
0

>  <hydroph_interaction:ASN:152>  (171) 
0

>  <halogenbond:TYR:150>  (171) 
0

>  <hbond:ASP:83>  (171) 
0

>  <hydroph_interaction:VAL:155>  (171) 
0

>  <pication:TYR:161>  (171) 
0

>  <hbond:PRO:131>  (171) 
0

>  <saltbridge:ASP:129>  (171) 
0

>  <hbond:THR:134>  (171) 
0

>  <pication:HIS:51>  (171) 
0

>  <hbond:SER:81>  (171) 
0

>  <hydroph_interaction:THR:134>  (171) 
0

>  <hydroph_interaction:MET:49>  (171) 
0

$$$$
CSSB00012349993
     RDKit          3D

 22 23  0  0  0  0  0  0  0  0999 V2000
   -9.9210    4.9130  -18.1410 C   0  0  0  0  0  0  0  0  0  0  0  0
   -8.7100    5.1570  -17.2370 C   0  0  0  0  0  0  0  0  0  0  0  0
   -8.6500    5.3320  -15.8990 C   0  0  0  0  0  0  0  0  0  0  0  0
  -10.0380    5.3900  -14.6430 Br  0  0  0  0  0  0  0  0  0  0  0  0
   -7.3560    5.5260  -15.1980 C   0  0  0  0  0  0  0  0  0  0  0  0
   -6.1930    5.5430  -15.9180 C   0  0  0  0  0  0  0  0  0  0  0  0
   -6.1990    5.3940  -17.3040 C   0  0  0  0  0  0  0  0  0  0  0  0
   -5.0040    5.4370  -17.9720 C   0  0  0  0  0  0  0  0  0  0  0  0
   -3.7880    5.6140  -17.2760 N   0  0  0  0  0  0  0  0  0  0  0  0
   -4.9990    5.2940  -19.4690 C   0  0  0  0  0  0  0  0  0  0  0  0
   -6.2710    5.1170  -20.0350 C   0  0  0  0  0  0  0  0  0  0  0  0
   -7.4240    5.0690  -19.3390 N   0  0  0  0  0  0  0  0  0  0  0  0
   -7.4030    5.2050  -18.0080 C   0  0  0  0  0  0  0  0  0  0  0  0
   -9.7910    5.3630  -19.1270 H   0  0  0  0  0  0  0  0  0  0  0  0
  -10.0400    3.8460  -18.3120 H   0  0  0  0  0  0  0  0  0  0  0  0
  -10.8420    5.3040  -17.7210 H   0  0  0  0  0  0  0  0  0  0  0  0
   -7.3210    5.6560  -14.1190 H   0  0  0  0  0  0  0  0  0  0  0  0
   -5.2630    5.6840  -15.3740 H   0  0  0  0  0  0  0  0  0  0  0  0
   -3.7550    5.1260  -16.3870 H   0  0  0  0  0  0  0  0  0  0  0  0
   -2.9610    5.4230  -17.8310 H   0  0  0  0  0  0  0  0  0  0  0  0
   -4.1020    5.3220  -20.0730 H   0  0  0  0  0  0  0  0  0  0  0  0
   -6.3890    5.0020  -21.1110 H   0  0  0  0  0  0  0  0  0  0  0  0
  1  2  1  0
  2  3  2  0
  3  4  1  0
  3  5  1  0
  5  6  2  0
  6  7  1  0
  7  8  2  0
  8  9  1  0
  8 10  1  0
 10 11  2  0
 11 12  1  0
 12 13  2  0
 13  2  1  0
 13  7  1  0
  1 14  1  0
  1 15  1  0
  1 16  1  0
  5 17  1  0
  6 18  1  0
  9 19  1  0
  9 20  1  0
 10 21  1  0
 11 22  1  0
A    1
 C1 
A    2
 C2 
A    3
 C3 
A    4
BR1 
A    5
 C4 
A    6
 C5 
A    7
 C6 
A    8
 C7 
A    9
 N1 
A   10
 C8 
A   11
 C9 
A   12
 N2 
A   13
 C10
A   14
 H1 
A   15
 H2 
A   16
 H3 
A   17
 H4 
A   18
 H5 
A   19
 H6 
A   20
 H7 
A   21
 H8 
A   22
 H9 
M  END
>  <ref_pdb>  (172) 
x0051_0B

>  <ref_mols>  (172) 
x0425_0B,x0435_0B

>  <original SMILES>  (172) 
[H]c1nc2c(C([H])([H])[H])c(Br)c([H])c([H])c2c(N([H])[H])c1[H]

>  <index>  (172) 
2918

>  <∆∆G>  (172) 
-5.251521

>  <∆G_bound>  (172) 
-5.298883

>  <∆G_unbound>  (172) 
-0.047362

>  <comRMSD>  (172) 
0.855354

>  <N_constrained_atoms>  (172) 
13.0

>  <N_unconstrained_atoms>  (172) 
2.0

>  <runtime>  (172) 
28.443554

>  <LE>  (172) 
0.350101

>  <percent_hybrid>  (172) 
40.0

>  <dist>  (172) 
2.0

>  <ecfp4>  (172) 
0.276596

>  <daylight>  (172) 
0.488636

>  <topodist>  (172) 
2.0

>  <mces>  (172) 
13.0

>  <tdn>  (172) 
0.0

>  <tup>  (172) 
1.0

>  <rdn>  (172) 
0.0

>  <rup>  (172) 
0.0

>  <ldn>  (172) 
1.0

>  <lup>  (172) 
0.0

>  <mut>  (172) 
0.0

>  <maj>  (172) 
0.0

>  <min>  (172) 
0.0

>  <hyb>  (172) 
0.0

>  <sub>  (172) 
1.0

>  <query_index>  (172) 
107.0

>  <max_hit_Tanimoto>  (172) 
0.154545

>  <largest_ring>  (172) 
6

>  <N_interactions_kept>  (172) 
1.0

>  <N_interactions_lost>  (172) 
2.5

>  <interaction_uniqueness_metric>  (172) 
0.04341

>  <ad_hoc_penalty>  (172) 
-3.822395

>  <N_rotatable_bonds>  (172) 
2

>  <N_HA>  (172) 
13

>  <cluster>  (172) 
3523

>  <N_interactions>  (172) 
4

>  <Enamine>  (172) 
1

>  <Mcule>  (172) 
0

>  <N_PAINS>  (172) 
0

>  <UFF_Gibbs>  (172) 
46.213977

>  <strain_per_HA>  (172) 
3.554921

>  <intxn_scored>  (172) 
9.5

>  <saltbridge:HIS:51>  (172) 
0

>  <pistack:HIS:51>  (172) 
0

>  <hydroph_interaction:HIS:51>  (172) 
0

>  <hbond:ALA:132>  (172) 
0

>  <hbond:SER:135>  (172) 
0

>  <hydroph_interaction:TYR:150>  (172) 
1

>  <pistack:TYR:161>  (172) 
2

>  <hydroph_interaction:TYR:161>  (172) 
1

>  <hydroph_interaction:ASP:83>  (172) 
0

>  <hbond:TYR:130>  (172) 
0

>  <hydroph_interaction:ALA:132>  (172) 
0

>  <hbond:HIS:51>  (172) 
0

>  <hbond:ASP:129>  (172) 
0

>  <hbond:TYR:150>  (172) 
0

>  <hbond:GLY:151>  (172) 
0

>  <hbond:TYR:161>  (172) 
0

>  <hydroph_interaction:TYR:130>  (172) 
0

>  <hydroph_interaction:PRO:131>  (172) 
0

>  <hydroph_interaction:ASP:129>  (172) 
0

>  <saltbridge:ASP:75>  (172) 
0

>  <saltbridge:ASP:83>  (172) 
0

>  <hbond:ASN:152>  (172) 
0

>  <hydroph_interaction:ASN:152>  (172) 
0

>  <halogenbond:TYR:150>  (172) 
0

>  <hbond:ASP:83>  (172) 
0

>  <hydroph_interaction:VAL:155>  (172) 
0

>  <pication:TYR:161>  (172) 
0

>  <hbond:PRO:131>  (172) 
0

>  <saltbridge:ASP:129>  (172) 
0

>  <hbond:THR:134>  (172) 
0

>  <pication:HIS:51>  (172) 
0

>  <hbond:SER:81>  (172) 
0

>  <hydroph_interaction:THR:134>  (172) 
0

>  <hydroph_interaction:MET:49>  (172) 
0

$$$$
CSSS00016990600
     RDKit          3D

 27 29  0  0  0  0  0  0  0  0999 V2000
   -5.0810    6.0040  -17.9260 O   0  0  0  0  0  0  0  0  0  0  0  0
   -6.2770    5.4980  -18.5080 C   0  0  0  0  0  0  0  0  0  0  0  0
   -6.2680    5.1300  -19.9170 C   0  0  0  0  0  0  0  0  0  0  0  0
   -7.4270    4.6300  -20.4750 C   0  0  0  0  0  0  0  0  0  0  0  0
   -8.6260    4.4770  -19.7940 O   0  0  0  0  0  0  0  0  0  0  0  0
   -8.6270    4.8010  -18.4510 C   0  0  0  0  0  0  0  0  0  0  0  0
   -9.8040    4.6080  -17.7600 C   0  0  0  0  0  0  0  0  0  0  0  0
   -9.8510    4.9300  -16.2650 C   0  0  0  0  0  0  0  0  0  0  0  0
   -8.6970    5.4160  -15.6860 C   0  0  0  0  0  0  0  0  0  0  0  0
   -7.5360    5.6040  -16.4210 C   0  0  0  0  0  0  0  0  0  0  0  0
   -7.5060    5.2980  -17.7840 C   0  0  0  0  0  0  0  0  0  0  0  0
   -5.0270    5.2900  -20.6760 C   0  0  0  0  0  0  0  0  0  0  0  0
   -3.8110    5.2920  -19.9760 C   0  0  0  0  0  0  0  0  0  0  0  0
   -2.5690    5.4400  -20.7730 C   0  0  0  0  0  0  0  0  0  0  0  0
   -2.5710    5.5770  -22.0940 C   0  0  0  0  0  0  0  0  0  0  0  0
   -3.7870    5.5820  -22.7690 C   0  0  0  0  0  0  0  0  0  0  0  0
   -5.0030    5.4390  -22.0710 C   0  0  0  0  0  0  0  0  0  0  0  0
   -7.5310    4.3140  -21.4970 H   0  0  0  0  0  0  0  0  0  0  0  0
  -10.6780    4.2250  -18.2750 H   0  0  0  0  0  0  0  0  0  0  0  0
  -10.7310    4.7860  -15.6660 H   0  0  0  0  0  0  0  0  0  0  0  0
   -8.6980    5.6550  -14.6260 H   0  0  0  0  0  0  0  0  0  0  0  0
   -6.6430    5.9880  -15.9320 H   0  0  0  0  0  0  0  0  0  0  0  0
   -3.7660    5.1850  -18.8950 H   0  0  0  0  0  0  0  0  0  0  0  0
   -1.6160    5.4370  -20.2470 H   0  0  0  0  0  0  0  0  0  0  0  0
   -1.6350    5.6840  -22.6390 H   0  0  0  0  0  0  0  0  0  0  0  0
   -3.8000    5.6960  -23.8470 H   0  0  0  0  0  0  0  0  0  0  0  0
   -5.9330    5.4430  -22.6370 H   0  0  0  0  0  0  0  0  0  0  0  0
  1  2  2  0
  2  3  1  0
  3  4  2  0
  4  5  1  0
  5  6  1  0
  6  7  2  0
  7  8  1  0
  8  9  2  0
  9 10  1  0
 10 11  2  0
  3 12  1  0
 12 13  2  0
 13 14  1  0
 14 15  2  0
 15 16  1  0
 16 17  2  0
 11  2  1  0
 11  6  1  0
 17 12  1  0
  4 18  1  0
  7 19  1  0
  8 20  1  0
  9 21  1  0
 10 22  1  0
 13 23  1  0
 14 24  1  0
 15 25  1  0
 16 26  1  0
 17 27  1  0
A    1
 O1 
A    2
 C1 
A    3
 C2 
A    4
 C3 
A    5
 O2 
A    6
 C4 
A    7
 C5 
A    8
 C6 
A    9
 C7 
A   10
 C8 
A   11
 C9 
A   12
 C10
A   13
 C11
A   14
 C12
A   15
 C13
A   16
 C14
A   17
 C15
A   18
 H1 
A   19
 H2 
A   20
 H3 
A   21
 H4 
A   22
 H5 
A   23
 H6 
A   24
 H7 
A   25
 H8 
A   26
 H9 
A   27
 H10
M  END
>  <ref_pdb>  (173) 
x0051_0B

>  <ref_mols>  (173) 
x0852_0B,x0680_0B

>  <original SMILES>  (173) 
[H]c1oc2c([H])c([H])c([H])c([H])c2c(=O)c1-c1c([H])c([H])c([H])c([H])c1[H]

>  <index>  (173) 
2820

>  <∆∆G>  (173) 
-5.188328

>  <∆G_bound>  (173) 
-4.852066

>  <∆G_unbound>  (173) 
0.336262

>  <comRMSD>  (173) 
0.627225

>  <N_constrained_atoms>  (173) 
19.0

>  <N_unconstrained_atoms>  (173) 
0.0

>  <runtime>  (173) 
46.450116

>  <LE>  (173) 
0.27307

>  <percent_hybrid>  (173) 
12.0

>  <dist>  (173) 
6.0

>  <ecfp4>  (173) 
0.081967

>  <daylight>  (173) 
0.191257

>  <topodist>  (173) 
3.0

>  <mces>  (173) 
19.0

>  <tdn>  (173) 
2.0

>  <tup>  (173) 
0.0

>  <rdn>  (173) 
1.0

>  <rup>  (173) 
0.0

>  <ldn>  (173) 
0.0

>  <lup>  (173) 
0.0

>  <mut>  (173) 
2.0

>  <maj>  (173) 
2.0

>  <min>  (173) 
0.0

>  <hyb>  (173) 
1.0

>  <sub>  (173) 
3.0

>  <query_index>  (173) 
135.0

>  <max_hit_Tanimoto>  (173) 
0.172632

>  <largest_ring>  (173) 
6

>  <N_interactions_kept>  (173) 
4.0

>  <N_interactions_lost>  (173) 
3.5

>  <interaction_uniqueness_metric>  (173) 
0.086597

>  <ad_hoc_penalty>  (173) 
-2.947061

>  <N_rotatable_bonds>  (173) 
1

>  <N_HA>  (173) 
17

>  <cluster>  (173) 
3615

>  <N_interactions>  (173) 
5

>  <Enamine>  (173) 
1

>  <Mcule>  (173) 
0

>  <N_PAINS>  (173) 
0

>  <UFF_Gibbs>  (173) 
90.4825

>  <strain_per_HA>  (173) 
5.3225

>  <intxn_scored>  (173) 
9.5

>  <saltbridge:HIS:51>  (173) 
0

>  <pistack:HIS:51>  (173) 
0

>  <hydroph_interaction:HIS:51>  (173) 
0

>  <hbond:ALA:132>  (173) 
0

>  <hbond:SER:135>  (173) 
0

>  <hydroph_interaction:TYR:150>  (173) 
0

>  <pistack:TYR:161>  (173) 
2

>  <hydroph_interaction:TYR:161>  (173) 
1

>  <hydroph_interaction:ASP:83>  (173) 
0

>  <hbond:TYR:130>  (173) 
0

>  <hydroph_interaction:ALA:132>  (173) 
1

>  <hbond:HIS:51>  (173) 
0

>  <hbond:ASP:129>  (173) 
0

>  <hbond:TYR:150>  (173) 
0

>  <hbond:GLY:151>  (173) 
0

>  <hbond:TYR:161>  (173) 
0

>  <hydroph_interaction:TYR:130>  (173) 
0

>  <hydroph_interaction:PRO:131>  (173) 
0

>  <hydroph_interaction:ASP:129>  (173) 
1

>  <saltbridge:ASP:75>  (173) 
0

>  <saltbridge:ASP:83>  (173) 
0

>  <hbond:ASN:152>  (173) 
0

>  <hydroph_interaction:ASN:152>  (173) 
0

>  <halogenbond:TYR:150>  (173) 
0

>  <hbond:ASP:83>  (173) 
0

>  <hydroph_interaction:VAL:155>  (173) 
0

>  <pication:TYR:161>  (173) 
0

>  <hbond:PRO:131>  (173) 
0

>  <saltbridge:ASP:129>  (173) 
0

>  <hbond:THR:134>  (173) 
0

>  <pication:HIS:51>  (173) 
0

>  <hbond:SER:81>  (173) 
0

>  <hydroph_interaction:THR:134>  (173) 
0

>  <hydroph_interaction:MET:49>  (173) 
0

$$$$
PV-006997446606
     RDKit          3D

 48 51  0  0  0  0  0  0  0  0999 V2000
   -7.3490    4.2470  -20.6860 O   0  0  0  0  0  0  0  0  0  0  0  0
   -6.5590    4.9910  -20.1260 C   0  0  0  0  0  0  0  0  0  0  0  0
   -6.7350    5.6550  -18.9360 N   0  0  0  0  0  0  0  0  0  0  0  0
   -7.7250    5.3940  -18.0060 C   0  0  0  0  0  0  0  0  0  0  0  0
   -7.4920    5.4910  -16.6270 C   0  0  0  0  0  0  0  0  0  0  0  0
   -8.4720    5.2570  -15.6500 C   0  0  0  0  0  0  0  0  0  0  0  0
   -8.0940    5.3710  -14.2410 C   0  0  0  0  0  0  0  0  0  0  0  0
   -8.9880    6.1360  -13.3580 N   0  0  0  0  0  0  0  0  0  0  0  0
   -8.7960    6.1790  -11.9490 C   0  0  0  0  0  0  0  0  0  0  0  0
   -8.5240    7.1910  -11.3080 O   0  0  0  0  0  0  0  0  0  0  0  0
   -8.9310    4.8820  -11.1280 C   0  0  0  0  0  0  0  0  0  0  0  0
   -8.8440    4.5220   -9.6810 C   0  0  0  0  0  0  0  0  0  0  0  0
   -8.5780    5.3220   -8.4040 C   0  0  0  0  0  0  0  0  0  0  0  0
   -9.0910    4.6750   -7.2430 C   0  0  0  0  0  0  0  0  0  0  0  0
   -9.3880    3.3070   -7.2080 C   0  0  0  0  0  0  0  0  0  0  0  0
   -9.0310    2.5290   -8.2720 C   0  0  0  0  0  0  0  0  0  0  0  0
   -9.0410    3.1970   -9.4680 C   0  0  0  0  0  0  0  0  0  0  0  0
   -9.2530    2.6430  -10.6560 N   0  0  0  0  0  0  0  0  0  0  0  0
   -9.1880    3.6760  -11.6560 O   0  0  0  0  0  0  0  0  0  0  0  0
   -9.7470    4.9180  -16.0780 C   0  0  0  0  0  0  0  0  0  0  0  0
  -10.0280    4.7930  -17.5740 C   0  0  0  0  0  0  0  0  0  0  0  0
   -8.9960    5.0330  -18.4680 C   0  0  0  0  0  0  0  0  0  0  0  0
   -5.2280    5.2490  -20.7500 C   0  0  0  0  0  0  0  0  0  0  0  0
   -5.1560    5.4300  -22.0760 C   0  0  0  0  0  0  0  0  0  0  0  0
   -3.8530    5.6760  -22.6840 C   0  0  0  0  0  0  0  0  0  0  0  0
   -2.6950    5.7300  -21.9720 N   0  0  0  0  0  0  0  0  0  0  0  0
   -2.8120    5.5430  -20.6280 C   0  0  0  0  0  0  0  0  0  0  0  0
   -4.0600    5.3050  -19.9880 C   0  0  0  0  0  0  0  0  0  0  0  0
   -4.0790    5.1330  -18.6580 F   0  0  0  0  0  0  0  0  0  0  0  0
   -6.0900    6.3940  -18.7130 H   0  0  0  0  0  0  0  0  0  0  0  0
   -6.5280    5.7590  -16.2140 H   0  0  0  0  0  0  0  0  0  0  0  0
   -7.1180    5.8010  -14.0600 H   0  0  0  0  0  0  0  0  0  0  0  0
   -8.0170    4.3460  -13.8580 H   0  0  0  0  0  0  0  0  0  0  0  0
   -9.9130    6.3210  -13.7140 H   0  0  0  0  0  0  0  0  0  0  0  0
   -7.5300    5.5900   -8.4480 H   0  0  0  0  0  0  0  0  0  0  0  0
   -9.1050    6.2790   -8.4810 H   0  0  0  0  0  0  0  0  0  0  0  0
  -10.0020    5.2070   -6.9560 H   0  0  0  0  0  0  0  0  0  0  0  0
   -8.4010    4.8700   -6.4160 H   0  0  0  0  0  0  0  0  0  0  0  0
   -8.8610    2.9050   -6.3370 H   0  0  0  0  0  0  0  0  0  0  0  0
  -10.4520    3.1590   -6.9910 H   0  0  0  0  0  0  0  0  0  0  0  0
   -8.0400    2.1160   -8.0900 H   0  0  0  0  0  0  0  0  0  0  0  0
   -9.7100    1.6770   -8.3700 H   0  0  0  0  0  0  0  0  0  0  0  0
  -10.5380    4.7310  -15.3530 H   0  0  0  0  0  0  0  0  0  0  0  0
  -11.0140    4.5220  -17.9410 H   0  0  0  0  0  0  0  0  0  0  0  0
   -9.2170    4.9400  -19.5280 H   0  0  0  0  0  0  0  0  0  0  0  0
   -6.0480    5.3950  -22.6970 H   0  0  0  0  0  0  0  0  0  0  0  0
   -3.7520    5.8270  -23.7550 H   0  0  0  0  0  0  0  0  0  0  0  0
   -1.8900    5.5880  -20.0570 H   0  0  0  0  0  0  0  0  0  0  0  0
  1  2  2  0
  2  3  1  0
  3  4  1  0
  4  5  2  0
  5  6  1  0
  6  7  1  0
  7  8  1  0
  8  9  1  0
  9 10  2  0
  9 11  1  0
 11 12  2  0
 12 13  1  0
 13 14  1  0
 14 15  1  0
 15 16  1  0
 16 17  1  0
 17 18  2  0
 18 19  1  0
  6 20  2  0
 20 21  1  0
 21 22  2  0
  2 23  1  0
 23 24  2  0
 24 25  1  0
 25 26  2  0
 26 27  1  0
 27 28  2  0
 28 29  1  0
 22  4  1  0
 19 11  1  0
 17 12  1  0
 28 23  1  0
  3 30  1  0
  5 31  1  0
  7 32  1  0
  7 33  1  0
  8 34  1  0
 13 35  1  0
 13 36  1  0
 14 37  1  0
 14 38  1  0
 15 39  1  0
 15 40  1  0
 16 41  1  0
 16 42  1  0
 20 43  1  0
 21 44  1  0
 22 45  1  0
 24 46  1  0
 25 47  1  0
 27 48  1  0
A    1
 O1 
A    2
 C1 
A    3
 N1 
A    4
 C2 
A    5
 C3 
A    6
 C4 
A    7
 C5 
A    8
 N2 
A    9
 C6 
A   10
 O2 
A   11
 C7 
A   12
 C8 
A   13
 C9 
A   14
 C10
A   15
 C11
A   16
 C12
A   17
 C13
A   18
 N3 
A   19
 O3 
A   20
 C14
A   21
 C15
A   22
 C16
A   23
 C17
A   24
 C18
A   25
 C19
A   26
 N4 
A   27
 C20
A   28
 C21
A   29
 F1 
A   30
 H1 
A   31
 H2 
A   32
 H3 
A   33
 H4 
A   34
 H5 
A   35
 H6 
A   36
 H7 
A   37
 H8 
A   38
 H9 
A   39
 H10
A   40
 H11
A   41
 H12
A   42
 H13
A   43
 H14
A   44
 H15
A   45
 H16
A   46
 H17
A   47
 H18
A   48
 H19
M  END
>  <ref_pdb>  (174) 
x0051_0B

>  <ref_mols>  (174) 
x0852_0B,x0969_1B

>  <original SMILES>  (174) 
[H]c1nc([H])c(F)c(C(=O)N([H])c2c([H])c([H])c([H])c(C([H])([H])N([H])C(=O)c3onc4c3C([H])([H])C([H])([H])C([H])([H])C4([H])[H])c2[H])c1[H]

>  <index>  (174) 
3107

>  <∆∆G>  (174) 
-6.829831

>  <∆G_bound>  (174) 
-5.567489

>  <∆G_unbound>  (174) 
1.262342

>  <comRMSD>  (174) 
0.907748

>  <N_constrained_atoms>  (174) 
28.0

>  <N_unconstrained_atoms>  (174) 
4.0

>  <runtime>  (174) 
104.230274

>  <LE>  (174) 
0.213432

>  <percent_hybrid>  (174) 
36.0

>  <dist>  (174) 
9.0

>  <ecfp4>  (174) 
0.316832

>  <daylight>  (174) 
0.332432

>  <topodist>  (174) 
3.0

>  <mces>  (174) 
31.0

>  <tdn>  (174) 
2.0

>  <tup>  (174) 
1.0

>  <rdn>  (174) 
0.0

>  <rup>  (174) 
0.0

>  <ldn>  (174) 
0.0

>  <lup>  (174) 
0.0

>  <mut>  (174) 
5.0

>  <maj>  (174) 
5.0

>  <min>  (174) 
0.0

>  <hyb>  (174) 
1.0

>  <sub>  (174) 
2.0

>  <query_index>  (174) 
46.0

>  <max_hit_Tanimoto>  (174) 
0.429674

>  <largest_ring>  (174) 
6

>  <N_interactions_kept>  (174) 
2.5

>  <N_interactions_lost>  (174) 
3.5

>  <interaction_uniqueness_metric>  (174) 
0.149334

>  <ad_hoc_penalty>  (174) 
-2.725389

>  <N_rotatable_bonds>  (174) 
5

>  <N_HA>  (174) 
29

>  <cluster>  (174) 
3345

>  <N_interactions>  (174) 
6

>  <Enamine>  (174) 
1

>  <Mcule>  (174) 
0

>  <N_PAINS>  (174) 
0

>  <UFF_Gibbs>  (174) 
138.633161

>  <strain_per_HA>  (174) 
4.780454

>  <intxn_scored>  (174) 
9.5

>  <saltbridge:HIS:51>  (174) 
0

>  <pistack:HIS:51>  (174) 
1

>  <hydroph_interaction:HIS:51>  (174) 
1

>  <hbond:ALA:132>  (174) 
0

>  <hbond:SER:135>  (174) 
0

>  <hydroph_interaction:TYR:150>  (174) 
0

>  <pistack:TYR:161>  (174) 
1

>  <hydroph_interaction:TYR:161>  (174) 
1

>  <hydroph_interaction:ASP:83>  (174) 
0

>  <hbond:TYR:130>  (174) 
1

>  <hydroph_interaction:ALA:132>  (174) 
0

>  <hbond:HIS:51>  (174) 
0

>  <hbond:ASP:129>  (174) 
0

>  <hbond:TYR:150>  (174) 
0

>  <hbond:GLY:151>  (174) 
0

>  <hbond:TYR:161>  (174) 
0

>  <hydroph_interaction:TYR:130>  (174) 
0

>  <hydroph_interaction:PRO:131>  (174) 
0

>  <hydroph_interaction:ASP:129>  (174) 
1

>  <saltbridge:ASP:75>  (174) 
0

>  <saltbridge:ASP:83>  (174) 
0

>  <hbond:ASN:152>  (174) 
0

>  <hydroph_interaction:ASN:152>  (174) 
0

>  <halogenbond:TYR:150>  (174) 
0

>  <hbond:ASP:83>  (174) 
0

>  <hydroph_interaction:VAL:155>  (174) 
0

>  <pication:TYR:161>  (174) 
0

>  <hbond:PRO:131>  (174) 
0

>  <saltbridge:ASP:129>  (174) 
0

>  <hbond:THR:134>  (174) 
0

>  <pication:HIS:51>  (174) 
0

>  <hbond:SER:81>  (174) 
0

>  <hydroph_interaction:THR:134>  (174) 
0

>  <hydroph_interaction:MET:49>  (174) 
0

$$$$
CSSB00009851822
     RDKit          3D

 23 24  0  0  0  0  0  0  0  0999 V2000
   -8.5010    5.6690  -13.8570 C   0  0  0  0  0  0  0  0  0  0  0  0
   -8.3020    5.4810  -15.3440 C   0  0  0  0  0  0  0  0  0  0  0  0
   -6.9130    5.7110  -15.8950 C   0  0  0  0  0  0  0  0  0  0  0  0
   -6.7420    5.5350  -17.2510 C   0  0  0  0  0  0  0  0  0  0  0  0
   -5.4590    5.7450  -17.7340 C   0  0  0  0  0  0  0  0  0  0  0  0
   -5.2400    5.5820  -19.0870 C   0  0  0  0  0  0  0  0  0  0  0  0
   -6.2960    5.2120  -19.9300 C   0  0  0  0  0  0  0  0  0  0  0  0
   -7.5430    5.0080  -19.4350 N   0  0  0  0  0  0  0  0  0  0  0  0
   -7.7730    5.1650  -18.1180 C   0  0  0  0  0  0  0  0  0  0  0  0
   -9.0480    4.9570  -17.6020 C   0  0  0  0  0  0  0  0  0  0  0  0
  -10.0620    4.5920  -18.4630 C   0  0  0  0  0  0  0  0  0  0  0  0
   -9.3190    5.1100  -16.2240 C   0  0  0  0  0  0  0  0  0  0  0  0
   -9.4600    5.2230  -13.5550 H   0  0  0  0  0  0  0  0  0  0  0  0
   -8.5340    6.7280  -13.5830 H   0  0  0  0  0  0  0  0  0  0  0  0
   -7.7050    5.1660  -13.2980 H   0  0  0  0  0  0  0  0  0  0  0  0
   -6.0920    5.9990  -15.2520 H   0  0  0  0  0  0  0  0  0  0  0  0
   -4.6360    6.0330  -17.0720 H   0  0  0  0  0  0  0  0  0  0  0  0
   -4.2540    5.7350  -19.5160 H   0  0  0  0  0  0  0  0  0  0  0  0
   -6.1600    5.0750  -20.9990 H   0  0  0  0  0  0  0  0  0  0  0  0
  -10.0870    5.2620  -19.3310 H   0  0  0  0  0  0  0  0  0  0  0  0
  -11.0300    4.7020  -17.9650 H   0  0  0  0  0  0  0  0  0  0  0  0
   -9.9960    3.5880  -18.8650 H   0  0  0  0  0  0  0  0  0  0  0  0
  -10.3190    4.9380  -15.8420 H   0  0  0  0  0  0  0  0  0  0  0  0
  1  2  1  0
  2  3  2  0
  3  4  1  0
  4  5  2  0
  5  6  1  0
  6  7  2  0
  7  8  1  0
  8  9  2  0
  9 10  1  0
 10 11  1  0
 10 12  2  0
 12  2  1  0
  9  4  1  0
  1 13  1  0
  1 14  1  0
  1 15  1  0
  3 16  1  0
  5 17  1  0
  6 18  1  0
  7 19  1  0
 11 20  1  0
 11 21  1  0
 11 22  1  0
 12 23  1  0
A    1
 C1 
A    2
 C2 
A    3
 C3 
A    4
 C4 
A    5
 C5 
A    6
 C6 
A    7
 C7 
A    8
 N1 
A    9
 C8 
A   10
 C9 
A   11
 C10
A   12
 C11
A   13
 H1 
A   14
 H2 
A   15
 H3 
A   16
 H4 
A   17
 H5 
A   18
 H6 
A   19
 H7 
A   20
 H8 
A   21
 H9 
A   22
 H10
A   23
 H11
M  END
>  <ref_pdb>  (175) 
x0051_0B

>  <ref_mols>  (175) 
x0425_0B,x0687_0B

>  <original SMILES>  (175) 
[H]c1nc2c(C([H])([H])[H])c([H])c(C([H])([H])[H])c([H])c2c([H])c1[H]

>  <index>  (175) 
3534

>  <∆∆G>  (175) 
-7.23566

>  <∆G_bound>  (175) 
-7.478541

>  <∆G_unbound>  (175) 
-0.242881

>  <comRMSD>  (175) 
0.525853

>  <N_constrained_atoms>  (175) 
13.0

>  <N_unconstrained_atoms>  (175) 
0.0

>  <runtime>  (175) 
28.653915

>  <LE>  (175) 
0.556589

>  <percent_hybrid>  (175) 
40.0

>  <dist>  (175) 
4.0

>  <ecfp4>  (175) 
0.125

>  <daylight>  (175) 
0.132911

>  <topodist>  (175) 
2.0

>  <mces>  (175) 
13.0

>  <tdn>  (175) 
2.0

>  <tup>  (175) 
0.0

>  <rdn>  (175) 
0.0

>  <rup>  (175) 
0.0

>  <ldn>  (175) 
0.0

>  <lup>  (175) 
0.0

>  <mut>  (175) 
2.0

>  <maj>  (175) 
2.0

>  <min>  (175) 
0.0

>  <hyb>  (175) 
0.0

>  <sub>  (175) 
1.0

>  <query_index>  (175) 
169.0

>  <max_hit_Tanimoto>  (175) 
0.200441

>  <largest_ring>  (175) 
6

>  <N_interactions_kept>  (175) 
1.0

>  <N_interactions_lost>  (175) 
3.5

>  <interaction_uniqueness_metric>  (175) 
0.04341

>  <ad_hoc_penalty>  (175) 
-2.725226

>  <N_rotatable_bonds>  (175) 
2

>  <N_HA>  (175) 
12

>  <cluster>  (175) 
2939

>  <N_interactions>  (175) 
4

>  <Enamine>  (175) 
1

>  <Mcule>  (175) 
0

>  <N_PAINS>  (175) 
0

>  <UFF_Gibbs>  (175) 
19.804827

>  <strain_per_HA>  (175) 
1.650402

>  <intxn_scored>  (175) 
9.5

>  <saltbridge:HIS:51>  (175) 
0

>  <pistack:HIS:51>  (175) 
0

>  <hydroph_interaction:HIS:51>  (175) 
0

>  <hbond:ALA:132>  (175) 
0

>  <hbond:SER:135>  (175) 
0

>  <hydroph_interaction:TYR:150>  (175) 
1

>  <pistack:TYR:161>  (175) 
2

>  <hydroph_interaction:TYR:161>  (175) 
1

>  <hydroph_interaction:ASP:83>  (175) 
0

>  <hbond:TYR:130>  (175) 
0

>  <hydroph_interaction:ALA:132>  (175) 
0

>  <hbond:HIS:51>  (175) 
0

>  <hbond:ASP:129>  (175) 
0

>  <hbond:TYR:150>  (175) 
0

>  <hbond:GLY:151>  (175) 
0

>  <hbond:TYR:161>  (175) 
0

>  <hydroph_interaction:TYR:130>  (175) 
0

>  <hydroph_interaction:PRO:131>  (175) 
0

>  <hydroph_interaction:ASP:129>  (175) 
0

>  <saltbridge:ASP:75>  (175) 
0

>  <saltbridge:ASP:83>  (175) 
0

>  <hbond:ASN:152>  (175) 
0

>  <hydroph_interaction:ASN:152>  (175) 
0

>  <halogenbond:TYR:150>  (175) 
0

>  <hbond:ASP:83>  (175) 
0

>  <hydroph_interaction:VAL:155>  (175) 
0

>  <pication:TYR:161>  (175) 
0

>  <hbond:PRO:131>  (175) 
0

>  <saltbridge:ASP:129>  (175) 
0

>  <hbond:THR:134>  (175) 
0

>  <pication:HIS:51>  (175) 
0

>  <hbond:SER:81>  (175) 
0

>  <hydroph_interaction:THR:134>  (175) 
0

>  <hydroph_interaction:MET:49>  (175) 
0

$$$$
CSSS00121650438
     RDKit          3D

 38 39  0  0  0  0  0  0  0  0999 V2000
  -10.2090    7.3980  -14.0040 C   0  0  0  0  0  0  0  0  0  0  0  0
   -9.2520    6.7720  -13.0250 C   0  0  0  0  0  0  0  0  0  0  0  0
   -8.7500    5.5300  -13.5280 O   0  0  0  0  0  0  0  0  0  0  0  0
   -7.7550    5.6460  -14.4280 C   0  0  0  0  0  0  0  0  0  0  0  0
   -6.5920    5.9180  -14.1950 O   0  0  0  0  0  0  0  0  0  0  0  0
   -8.2080    5.4180  -15.7020 C   0  0  0  0  0  0  0  0  0  0  0  0
   -9.5060    5.0110  -15.9620 C   0  0  0  0  0  0  0  0  0  0  0  0
   -9.8880    4.7890  -17.2620 C   0  0  0  0  0  0  0  0  0  0  0  0
   -8.8690    5.0050  -18.3470 C   0  0  0  0  0  0  0  0  0  0  0  0
   -9.3300    4.7250  -19.9440 Cl  0  0  0  0  0  0  0  0  0  0  0  0
   -7.5970    5.4290  -18.0430 C   0  0  0  0  0  0  0  0  0  0  0  0
   -6.6620    5.6610  -19.0520 N   0  0  0  0  0  0  0  0  0  0  0  0
   -6.4470    4.9770  -20.2180 C   0  0  0  0  0  0  0  0  0  0  0  0
   -7.1860    4.2400  -20.8560 O   0  0  0  0  0  0  0  0  0  0  0  0
   -5.0490    5.2400  -20.6800 C   0  0  0  0  0  0  0  0  0  0  0  0
   -5.0810    5.3990  -22.1500 C   0  0  0  0  0  0  0  0  0  0  0  0
   -3.7440    5.6590  -22.8340 C   0  0  0  0  0  0  0  0  0  0  0  0
   -2.4950    5.7330  -21.9480 C   0  0  0  0  0  0  0  0  0  0  0  0
   -2.5640    5.5740  -20.5380 C   0  0  0  0  0  0  0  0  0  0  0  0
   -3.9150    5.3200  -19.8970 C   0  0  0  0  0  0  0  0  0  0  0  0
   -3.9720    5.1520  -18.4050 C   0  0  0  0  0  0  0  0  0  0  0  0
   -7.2770    5.6260  -16.7150 C   0  0  0  0  0  0  0  0  0  0  0  0
  -11.2530    7.2490  -13.7100 H   0  0  0  0  0  0  0  0  0  0  0  0
  -10.0440    8.4770  -14.0590 H   0  0  0  0  0  0  0  0  0  0  0  0
  -10.0940    6.9520  -14.9960 H   0  0  0  0  0  0  0  0  0  0  0  0
   -9.7460    6.6510  -12.0520 H   0  0  0  0  0  0  0  0  0  0  0  0
   -8.3920    7.4260  -12.8370 H   0  0  0  0  0  0  0  0  0  0  0  0
  -10.1820    4.8760  -15.1250 H   0  0  0  0  0  0  0  0  0  0  0  0
  -10.8940    4.4680  -17.5050 H   0  0  0  0  0  0  0  0  0  0  0  0
   -6.0130    6.4170  -18.8550 H   0  0  0  0  0  0  0  0  0  0  0  0
   -6.0120    5.3290  -22.7080 H   0  0  0  0  0  0  0  0  0  0  0  0
   -3.6770    5.7860  -23.9130 H   0  0  0  0  0  0  0  0  0  0  0  0
   -1.5280    5.9150  -22.4090 H   0  0  0  0  0  0  0  0  0  0  0  0
   -1.6560    5.6360  -19.9430 H   0  0  0  0  0  0  0  0  0  0  0  0
   -3.8230    6.1080  -17.8970 H   0  0  0  0  0  0  0  0  0  0  0  0
   -3.1740    4.4910  -18.0560 H   0  0  0  0  0  0  0  0  0  0  0  0
   -4.9430    4.7580  -18.1000 H   0  0  0  0  0  0  0  0  0  0  0  0
   -6.2820    5.9540  -16.4300 H   0  0  0  0  0  0  0  0  0  0  0  0
  1  2  1  0
  2  3  1  0
  3  4  1  0
  4  5  2  0
  4  6  1  0
  6  7  2  0
  7  8  1  0
  8  9  2  0
  9 10  1  0
  9 11  1  0
 11 12  1  0
 12 13  1  0
 13 14  2  0
 13 15  1  0
 15 16  2  0
 16 17  1  0
 17 18  2  0
 18 19  1  0
 19 20  2  0
 20 21  1  0
 11 22  2  0
 22  6  1  0
 20 15  1  0
  1 23  1  0
  1 24  1  0
  1 25  1  0
  2 26  1  0
  2 27  1  0
  7 28  1  0
  8 29  1  0
 12 30  1  0
 16 31  1  0
 17 32  1  0
 18 33  1  0
 19 34  1  0
 21 35  1  0
 21 36  1  0
 21 37  1  0
 22 38  1  0
A    1
 C1 
A    2
 C2 
A    3
 O1 
A    4
 C3 
A    5
 O2 
A    6
 C4 
A    7
 C5 
A    8
 C6 
A    9
 C7 
A   10
CL1 
A   11
 C8 
A   12
 N1 
A   13
 C9 
A   14
 O3 
A   15
 C10
A   16
 C11
A   17
 C12
A   18
 C13
A   19
 C14
A   20
 C15
A   21
 C16
A   22
 C17
A   23
 H1 
A   24
 H2 
A   25
 H3 
A   26
 H4 
A   27
 H5 
A   28
 H6 
A   29
 H7 
A   30
 H8 
A   31
 H9 
A   32
 H10
A   33
 H11
A   34
 H12
A   35
 H13
A   36
 H14
A   37
 H15
A   38
 H16
M  END
>  <ref_pdb>  (176) 
x0051_0B

>  <ref_mols>  (176) 
x0852_0B,x0951_0B

>  <original SMILES>  (176) 
[H]c1c([H])c([H])c(C([H])([H])[H])c(C(=O)N([H])c2c([H])c(C(=O)OC([H])([H])C([H])([H])[H])c([H])c([H])c2Cl)c1[H]

>  <index>  (176) 
3545

>  <∆∆G>  (176) 
-6.546899

>  <∆G_bound>  (176) 
-6.403259

>  <∆G_unbound>  (176) 
0.14364

>  <comRMSD>  (176) 
0.461488

>  <N_constrained_atoms>  (176) 
23.0

>  <N_unconstrained_atoms>  (176) 
0.0

>  <runtime>  (176) 
53.245998

>  <LE>  (176) 
0.284648

>  <percent_hybrid>  (176) 
32.0

>  <dist>  (176) 
8.0

>  <ecfp4>  (176) 
0.166667

>  <daylight>  (176) 
0.281385

>  <topodist>  (176) 
2.0

>  <mces>  (176) 
23.0

>  <tdn>  (176) 
1.0

>  <tup>  (176) 
0.0

>  <rdn>  (176) 
1.0

>  <rup>  (176) 
0.0

>  <ldn>  (176) 
0.0

>  <lup>  (176) 
0.0

>  <mut>  (176) 
6.0

>  <maj>  (176) 
6.0

>  <min>  (176) 
0.0

>  <hyb>  (176) 
0.0

>  <sub>  (176) 
1.0

>  <query_index>  (176) 
95.0

>  <max_hit_Tanimoto>  (176) 
0.330444

>  <largest_ring>  (176) 
6

>  <N_interactions_kept>  (176) 
2.0

>  <N_interactions_lost>  (176) 
4.0

>  <interaction_uniqueness_metric>  (176) 
0.263734

>  <ad_hoc_penalty>  (176) 
-0.271757

>  <N_rotatable_bonds>  (176) 
6

>  <N_HA>  (176) 
22

>  <cluster>  (176) 
2928

>  <N_interactions>  (176) 
7

>  <Enamine>  (176) 
1

>  <Mcule>  (176) 
0

>  <N_PAINS>  (176) 
0

>  <UFF_Gibbs>  (176) 
144.629566

>  <strain_per_HA>  (176) 
6.574071

>  <intxn_scored>  (176) 
9.5

>  <saltbridge:HIS:51>  (176) 
0

>  <pistack:HIS:51>  (176) 
0

>  <hydroph_interaction:HIS:51>  (176) 
0

>  <hbond:ALA:132>  (176) 
0

>  <hbond:SER:135>  (176) 
0

>  <hydroph_interaction:TYR:150>  (176) 
0

>  <pistack:TYR:161>  (176) 
1

>  <hydroph_interaction:TYR:161>  (176) 
2

>  <hydroph_interaction:ASP:83>  (176) 
0

>  <hbond:TYR:130>  (176) 
1

>  <hydroph_interaction:ALA:132>  (176) 
1

>  <hbond:HIS:51>  (176) 
0

>  <hbond:ASP:129>  (176) 
0

>  <hbond:TYR:150>  (176) 
0

>  <hbond:GLY:151>  (176) 
0

>  <hbond:TYR:161>  (176) 
0

>  <hydroph_interaction:TYR:130>  (176) 
0

>  <hydroph_interaction:PRO:131>  (176) 
0

>  <hydroph_interaction:ASP:129>  (176) 
1

>  <saltbridge:ASP:75>  (176) 
0

>  <saltbridge:ASP:83>  (176) 
0

>  <hbond:ASN:152>  (176) 
0

>  <hydroph_interaction:ASN:152>  (176) 
0

>  <halogenbond:TYR:150>  (176) 
1

>  <hbond:ASP:83>  (176) 
0

>  <hydroph_interaction:VAL:155>  (176) 
0

>  <pication:TYR:161>  (176) 
0

>  <hbond:PRO:131>  (176) 
0

>  <saltbridge:ASP:129>  (176) 
0

>  <hbond:THR:134>  (176) 
0

>  <pication:HIS:51>  (176) 
0

>  <hbond:SER:81>  (176) 
0

>  <hydroph_interaction:THR:134>  (176) 
0

>  <hydroph_interaction:MET:49>  (176) 
0

$$$$
Z2368184066
     RDKit          3D

 38 40  0  0  0  0  0  0  0  0999 V2000
   -2.6110    4.8620  -21.7880 C   0  0  0  0  0  0  0  0  0  0  0  0
   -3.5050    5.7300  -21.0970 O   0  0  0  0  0  0  0  0  0  0  0  0
   -4.8780    5.3490  -21.2460 C   0  0  0  0  0  0  0  0  0  0  0  0
   -5.6350    5.3350  -19.9340 C   0  0  0  0  0  0  0  0  0  0  0  0
   -4.9820    5.5510  -18.7300 C   0  0  0  0  0  0  0  0  0  0  0  0
   -5.7100    5.5290  -17.5410 C   0  0  0  0  0  0  0  0  0  0  0  0
   -5.0750    5.7380  -16.2960 N   0  0  0  0  0  0  0  0  0  0  0  0
   -5.1800    7.0750  -15.6830 C   0  0  0  0  0  0  0  0  0  0  0  0
   -4.1810    7.2130  -14.5140 C   0  0  0  0  0  0  0  0  0  0  0  0
   -3.7820    5.9380  -13.8760 N   0  0  0  0  0  0  0  0  0  0  0  0
   -3.2400    4.9620  -14.8540 C   0  0  0  0  0  0  0  0  0  0  0  0
   -3.6980    5.1980  -16.3050 C   0  0  0  0  0  0  0  0  0  0  0  0
   -7.1000    5.2870  -17.5980 C   0  0  0  0  0  0  0  0  0  0  0  0
   -7.9130    5.2490  -16.4520 C   0  0  0  0  0  0  0  0  0  0  0  0
   -9.2650    5.0090  -16.5590 C   0  0  0  0  0  0  0  0  0  0  0  0
  -10.0020    4.9920  -15.4440 F   0  0  0  0  0  0  0  0  0  0  0  0
   -9.8530    4.7950  -17.7980 C   0  0  0  0  0  0  0  0  0  0  0  0
   -9.0500    4.8300  -18.9390 C   0  0  0  0  0  0  0  0  0  0  0  0
   -7.6850    5.0750  -18.8630 C   0  0  0  0  0  0  0  0  0  0  0  0
   -6.9670    5.1000  -19.9990 N   0  0  0  0  0  0  0  0  0  0  0  0
   -2.0680    4.2630  -21.0500 H   0  0  0  0  0  0  0  0  0  0  0  0
   -3.1650    4.1800  -22.4400 H   0  0  0  0  0  0  0  0  0  0  0  0
   -1.8850    5.4340  -22.3700 H   0  0  0  0  0  0  0  0  0  0  0  0
   -4.9290    4.3550  -21.7070 H   0  0  0  0  0  0  0  0  0  0  0  0
   -5.3750    6.0650  -21.9140 H   0  0  0  0  0  0  0  0  0  0  0  0
   -3.9150    5.7330  -18.7260 H   0  0  0  0  0  0  0  0  0  0  0  0
   -6.1980    7.3070  -15.3430 H   0  0  0  0  0  0  0  0  0  0  0  0
   -4.9370    7.8160  -16.4540 H   0  0  0  0  0  0  0  0  0  0  0  0
   -3.2800    7.7290  -14.8660 H   0  0  0  0  0  0  0  0  0  0  0  0
   -4.6200    7.8550  -13.7380 H   0  0  0  0  0  0  0  0  0  0  0  0
   -3.0620    6.1150  -13.1750 H   0  0  0  0  0  0  0  0  0  0  0  0
   -2.1430    5.0040  -14.8220 H   0  0  0  0  0  0  0  0  0  0  0  0
   -3.5300    3.9530  -14.5360 H   0  0  0  0  0  0  0  0  0  0  0  0
   -3.6270    4.2660  -16.8730 H   0  0  0  0  0  0  0  0  0  0  0  0
   -3.0260    5.9250  -16.7730 H   0  0  0  0  0  0  0  0  0  0  0  0
   -7.4850    5.4110  -15.4660 H   0  0  0  0  0  0  0  0  0  0  0  0
  -10.9170    4.6080  -17.8740 H   0  0  0  0  0  0  0  0  0  0  0  0
   -9.5000    4.6640  -19.9160 H   0  0  0  0  0  0  0  0  0  0  0  0
  1  2  1  0
  2  3  1  0
  3  4  1  0
  4  5  2  0
  5  6  1  0
  6  7  1  0
  7  8  1  0
  8  9  1  0
  9 10  1  0
 10 11  1  0
 11 12  1  0
  6 13  2  0
 13 14  1  0
 14 15  2  0
 15 16  1  0
 15 17  1  0
 17 18  2  0
 18 19  1  0
 19 20  2  0
 20  4  1  0
 12  7  1  0
 19 13  1  0
  1 21  1  0
  1 22  1  0
  1 23  1  0
  3 24  1  0
  3 25  1  0
  5 26  1  0
  8 27  1  0
  8 28  1  0
  9 29  1  0
  9 30  1  0
 10 31  1  0
 11 32  1  0
 11 33  1  0
 12 34  1  0
 12 35  1  0
 14 36  1  0
 17 37  1  0
 18 38  1  0
A    1
 C1 
A    2
 O1 
A    3
 C2 
A    4
 C3 
A    5
 C4 
A    6
 C5 
A    7
 N1 
A    8
 C6 
A    9
 C7 
A   10
 N2 
A   11
 C8 
A   12
 C9 
A   13
 C10
A   14
 C11
A   15
 C12
A   16
 F1 
A   17
 C13
A   18
 C14
A   19
 C15
A   20
 N3 
A   21
 H1 
A   22
 H2 
A   23
 H3 
A   24
 H4 
A   25
 H5 
A   26
 H6 
A   27
 H7 
A   28
 H8 
A   29
 H9 
A   30
 H10
A   31
 H11
A   32
 H12
A   33
 H13
A   34
 H14
A   35
 H15
A   36
 H16
A   37
 H17
A   38
 H18
M  END
>  <ref_pdb>  (177) 
x0051_0B

>  <ref_mols>  (177) 
x0429_0B,x0904_0B

>  <original SMILES>  (177) 
[H]c1c(F)c([H])c2c(N3C([H])([H])C([H])([H])N([H])C([H])([H])C3([H])[H])c([H])c(C([H])([H])OC([H])([H])[H])nc2c1[H]

>  <index>  (177) 
3921

>  <∆∆G>  (177) 
-6.277754

>  <∆G_bound>  (177) 
-5.603267

>  <∆G_unbound>  (177) 
0.674487

>  <comRMSD>  (177) 
0.745342

>  <N_constrained_atoms>  (177) 
21.0

>  <N_unconstrained_atoms>  (177) 
0.0

>  <runtime>  (177) 
32.736354

>  <LE>  (177) 
0.298941

>  <percent_hybrid>  (177) 
39.0

>  <dist>  (177) 
4.0

>  <ecfp4>  (177) 
0.561404

>  <daylight>  (177) 
0.626506

>  <topodist>  (177) 
2.0

>  <mces>  (177) 
22.0

>  <tdn>  (177) 
2.0

>  <tup>  (177) 
0.0

>  <rdn>  (177) 
0.0

>  <rup>  (177) 
0.0

>  <ldn>  (177) 
0.0

>  <lup>  (177) 
0.0

>  <mut>  (177) 
1.0

>  <maj>  (177) 
1.0

>  <min>  (177) 
0.0

>  <hyb>  (177) 
1.0

>  <sub>  (177) 
0.0

>  <query_index>  (177) 
153.0

>  <max_hit_Tanimoto>  (177) 
0.615491

>  <largest_ring>  (177) 
6

>  <N_interactions_kept>  (177) 
0.5

>  <N_interactions_lost>  (177) 
3.0

>  <interaction_uniqueness_metric>  (177) 
0.04341

>  <ad_hoc_penalty>  (177) 
-0.920369

>  <N_rotatable_bonds>  (177) 
4

>  <N_HA>  (177) 
20

>  <cluster>  (177) 
2572

>  <N_interactions>  (177) 
4

>  <Enamine>  (177) 
1

>  <Mcule>  (177) 
0

>  <N_PAINS>  (177) 
0

>  <UFF_Gibbs>  (177) 
31.931803

>  <strain_per_HA>  (177) 
1.59659

>  <intxn_scored>  (177) 
9.5

>  <saltbridge:HIS:51>  (177) 
0

>  <pistack:HIS:51>  (177) 
0

>  <hydroph_interaction:HIS:51>  (177) 
0

>  <hbond:ALA:132>  (177) 
0

>  <hbond:SER:135>  (177) 
0

>  <hydroph_interaction:TYR:150>  (177) 
1

>  <pistack:TYR:161>  (177) 
2

>  <hydroph_interaction:TYR:161>  (177) 
1

>  <hydroph_interaction:ASP:83>  (177) 
0

>  <hbond:TYR:130>  (177) 
0

>  <hydroph_interaction:ALA:132>  (177) 
0

>  <hbond:HIS:51>  (177) 
0

>  <hbond:ASP:129>  (177) 
0

>  <hbond:TYR:150>  (177) 
0

>  <hbond:GLY:151>  (177) 
0

>  <hbond:TYR:161>  (177) 
0

>  <hydroph_interaction:TYR:130>  (177) 
0

>  <hydroph_interaction:PRO:131>  (177) 
0

>  <hydroph_interaction:ASP:129>  (177) 
0

>  <saltbridge:ASP:75>  (177) 
0

>  <saltbridge:ASP:83>  (177) 
0

>  <hbond:ASN:152>  (177) 
0

>  <hydroph_interaction:ASN:152>  (177) 
0

>  <halogenbond:TYR:150>  (177) 
0

>  <hbond:ASP:83>  (177) 
0

>  <hydroph_interaction:VAL:155>  (177) 
0

>  <pication:TYR:161>  (177) 
0

>  <hbond:PRO:131>  (177) 
0

>  <saltbridge:ASP:129>  (177) 
0

>  <hbond:THR:134>  (177) 
0

>  <pication:HIS:51>  (177) 
0

>  <hbond:SER:81>  (177) 
0

>  <hydroph_interaction:THR:134>  (177) 
0

>  <hydroph_interaction:MET:49>  (177) 
0

$$$$
Z2850290656
     RDKit          3D

 52 54  0  0  0  0  0  0  0  0999 V2000
   -6.5390    6.2110  -16.0360 C   0  0  0  0  0  0  0  0  0  0  0  0
   -7.5290    5.7800  -17.0820 C   0  0  0  0  0  0  0  0  0  0  0  0
   -8.7550    5.3580  -16.6980 C   0  0  0  0  0  0  0  0  0  0  0  0
   -9.1670    5.3450  -15.2080 C   0  0  0  0  0  0  0  0  0  0  0  0
  -10.1200    5.9930  -14.8060 O   0  0  0  0  0  0  0  0  0  0  0  0
   -8.3230    4.5020  -14.3050 N   0  0  0  0  0  0  0  0  0  0  0  0
   -8.7960    4.4360  -12.8940 C   0  0  0  0  0  0  0  0  0  0  0  0
   -8.6070    5.6520  -12.2150 C   0  0  0  0  0  0  0  0  0  0  0  0
   -8.7320    5.6640  -10.6840 C   0  0  0  0  0  0  0  0  0  0  0  0
   -8.8820    4.4510   -9.8110 C   0  0  0  0  0  0  0  0  0  0  0  0
   -8.9450    2.9780  -10.1510 C   0  0  0  0  0  0  0  0  0  0  0  0
   -8.7560    2.2170   -9.0140 C   0  0  0  0  0  0  0  0  0  0  0  0
   -9.4090    2.6960   -7.8520 C   0  0  0  0  0  0  0  0  0  0  0  0
   -9.1200    3.9880   -7.3430 C   0  0  0  0  0  0  0  0  0  0  0  0
   -8.9620    4.9100   -8.4580 N   0  0  0  0  0  0  0  0  0  0  0  0
   -8.8740    6.2540   -8.3910 N   0  0  0  0  0  0  0  0  0  0  0  0
   -8.7430    6.7010   -9.6930 C   0  0  0  0  0  0  0  0  0  0  0  0
   -6.9690    5.8830  -18.5370 C   0  0  0  0  0  0  0  0  0  0  0  0
   -6.5380    7.2530  -19.1030 C   0  0  0  0  0  0  0  0  0  0  0  0
   -5.7020    7.1930  -20.3480 C   0  0  0  0  0  0  0  0  0  0  0  0
   -4.6750    6.2770  -20.3690 C   0  0  0  0  0  0  0  0  0  0  0  0
   -4.4660    5.6280  -19.1620 C   0  0  0  0  0  0  0  0  0  0  0  0
   -5.7650    4.9700  -18.7060 C   0  0  0  0  0  0  0  0  0  0  0  0
   -6.1710    5.3450  -15.4750 H   0  0  0  0  0  0  0  0  0  0  0  0
   -6.9970    6.8940  -15.3130 H   0  0  0  0  0  0  0  0  0  0  0  0
   -5.6900    6.7220  -16.4990 H   0  0  0  0  0  0  0  0  0  0  0  0
   -9.4820    5.0310  -17.4390 H   0  0  0  0  0  0  0  0  0  0  0  0
   -7.9470    3.6290  -14.6680 H   0  0  0  0  0  0  0  0  0  0  0  0
   -8.3500    3.5460  -12.4580 H   0  0  0  0  0  0  0  0  0  0  0  0
   -9.8680    4.2260  -12.9630 H   0  0  0  0  0  0  0  0  0  0  0  0
   -9.1640    6.4420  -12.7090 H   0  0  0  0  0  0  0  0  0  0  0  0
   -7.5660    5.9300  -12.4040 H   0  0  0  0  0  0  0  0  0  0  0  0
   -8.1290    2.7400  -10.8440 H   0  0  0  0  0  0  0  0  0  0  0  0
   -9.8490    2.6170  -10.6350 H   0  0  0  0  0  0  0  0  0  0  0  0
   -8.9480    1.1700   -9.0620 H   0  0  0  0  0  0  0  0  0  0  0  0
   -7.6850    2.2710   -8.8080 H   0  0  0  0  0  0  0  0  0  0  0  0
   -9.1980    1.9750   -7.0550 H   0  0  0  0  0  0  0  0  0  0  0  0
  -10.4910    2.6340   -8.0170 H   0  0  0  0  0  0  0  0  0  0  0  0
   -9.8320    4.4350   -6.6550 H   0  0  0  0  0  0  0  0  0  0  0  0
   -8.1430    3.9660   -6.8430 H   0  0  0  0  0  0  0  0  0  0  0  0
   -8.6600    7.7680   -9.8580 H   0  0  0  0  0  0  0  0  0  0  0  0
   -7.7670    5.5220  -19.2020 H   0  0  0  0  0  0  0  0  0  0  0  0
   -7.3960    7.7900  -19.4280 H   0  0  0  0  0  0  0  0  0  0  0  0
   -5.9980    7.8200  -18.3370 H   0  0  0  0  0  0  0  0  0  0  0  0
   -5.2780    8.1850  -20.5380 H   0  0  0  0  0  0  0  0  0  0  0  0
   -6.3740    6.9970  -21.1920 H   0  0  0  0  0  0  0  0  0  0  0  0
   -3.7530    6.7780  -20.6870 H   0  0  0  0  0  0  0  0  0  0  0  0
   -4.8890    5.5210  -21.1340 H   0  0  0  0  0  0  0  0  0  0  0  0
   -3.6680    4.8840  -19.2480 H   0  0  0  0  0  0  0  0  0  0  0  0
   -4.1410    6.3560  -18.4090 H   0  0  0  0  0  0  0  0  0  0  0  0
   -6.0440    4.2630  -19.4850 H   0  0  0  0  0  0  0  0  0  0  0  0
   -5.5710    4.4150  -17.7870 H   0  0  0  0  0  0  0  0  0  0  0  0
  1  2  1  0
  2  3  2  3
  3  4  1  0
  4  5  2  0
  4  6  1  0
  6  7  1  0
  7  8  1  0
  8  9  1  0
  9 10  2  0
 10 11  1  0
 11 12  1  0
 12 13  1  0
 13 14  1  0
 14 15  1  0
 15 16  1  0
 16 17  2  0
  2 18  1  0
 18 19  1  0
 19 20  1  0
 20 21  1  0
 21 22  1  0
 22 23  1  0
 17  9  1  0
 15 10  1  0
 23 18  1  0
  1 24  1  0
  1 25  1  0
  1 26  1  0
  3 27  1  0
  6 28  1  0
  7 29  1  0
  7 30  1  0
  8 31  1  0
  8 32  1  0
 11 33  1  0
 11 34  1  0
 12 35  1  0
 12 36  1  0
 13 37  1  0
 13 38  1  0
 14 39  1  0
 14 40  1  0
 17 41  1  0
 18 42  1  0
 19 43  1  0
 19 44  1  0
 20 45  1  0
 20 46  1  0
 21 47  1  0
 21 48  1  0
 22 49  1  0
 22 50  1  0
 23 51  1  0
 23 52  1  0
A    1
 C1 
A    2
 C2 
A    3
 C3 
A    4
 C4 
A    5
 O1 
A    6
 N1 
A    7
 C5 
A    8
 C6 
A    9
 C7 
A   10
 C8 
A   11
 C9 
A   12
 C10
A   13
 C11
A   14
 C12
A   15
 N2 
A   16
 N3 
A   17
 C13
A   18
 C14
A   19
 C15
A   20
 C16
A   21
 C17
A   22
 C18
A   23
 C19
A   24
 H1 
A   25
 H2 
A   26
 H3 
A   27
 H4 
A   28
 H5 
A   29
 H6 
A   30
 H7 
A   31
 H8 
A   32
 H9 
A   33
 H10
A   34
 H11
A   35
 H12
A   36
 H13
A   37
 H14
A   38
 H15
A   39
 H16
A   40
 H17
A   41
 H18
A   42
 H19
A   43
 H20
A   44
 H21
A   45
 H22
A   46
 H23
A   47
 H24
A   48
 H25
A   49
 H26
A   50
 H27
A   51
 H28
A   52
 H29
M  END
>  <ref_pdb>  (178) 
x0051_0B

>  <ref_mols>  (178) 
x0969_1B,x0803_0B

>  <original SMILES>  (178) 
[H]C(C(=O)N([H])C([H])([H])C([H])([H])c1c([H])nn2c1C([H])([H])C([H])([H])C([H])([H])C2([H])[H])=C(C([H])([H])[H])C1([H])C([H])([H])C([H])([H])C([H])([H])C([H])([H])C1([H])[H]

>  <index>  (178) 
599

>  <∆∆G>  (178) 
-5.17475

>  <∆G_bound>  (178) 
-4.583649

>  <∆G_unbound>  (178) 
0.591101

>  <comRMSD>  (178) 
0.656431

>  <N_constrained_atoms>  (178) 
21.0

>  <N_unconstrained_atoms>  (178) 
4.0

>  <runtime>  (178) 
77.988126

>  <LE>  (178) 
0.20699

>  <percent_hybrid>  (178) 
48.0

>  <dist>  (178) 
8.0

>  <ecfp4>  (178) 
0.272727

>  <daylight>  (178) 
0.271523

>  <topodist>  (178) 
2.0

>  <mces>  (178) 
25.0

>  <tdn>  (178) 
0.0

>  <tup>  (178) 
0.0

>  <rdn>  (178) 
1.0

>  <rup>  (178) 
0.0

>  <ldn>  (178) 
1.0

>  <lup>  (178) 
0.0

>  <mut>  (178) 
6.0

>  <maj>  (178) 
6.0

>  <min>  (178) 
0.0

>  <hyb>  (178) 
0.0

>  <sub>  (178) 
0.0

>  <query_index>  (178) 
360.0

>  <max_hit_Tanimoto>  (178) 
0.332971

>  <largest_ring>  (178) 
6

>  <N_interactions_kept>  (178) 
4.0

>  <N_interactions_lost>  (178) 
2.0

>  <interaction_uniqueness_metric>  (178) 
0.240987

>  <ad_hoc_penalty>  (178) 
-18.852399

>  <N_rotatable_bonds>  (178) 
6

>  <N_HA>  (178) 
23

>  <cluster>  (178) 
5670

>  <N_interactions>  (178) 
8

>  <Enamine>  (178) 
1

>  <Mcule>  (178) 
0

>  <N_PAINS>  (178) 
0

>  <UFF_Gibbs>  (178) 
138.565077

>  <strain_per_HA>  (178) 
6.024569

>  <intxn_scored>  (178) 
9.5

>  <saltbridge:HIS:51>  (178) 
0

>  <pistack:HIS:51>  (178) 
1

>  <hydroph_interaction:HIS:51>  (178) 
0

>  <hbond:ALA:132>  (178) 
0

>  <hbond:SER:135>  (178) 
1

>  <hydroph_interaction:TYR:150>  (178) 
0

>  <pistack:TYR:161>  (178) 
0

>  <hydroph_interaction:TYR:161>  (178) 
3

>  <hydroph_interaction:ASP:83>  (178) 
1

>  <hbond:TYR:130>  (178) 
0

>  <hydroph_interaction:ALA:132>  (178) 
1

>  <hbond:HIS:51>  (178) 
0

>  <hbond:ASP:129>  (178) 
0

>  <hbond:TYR:150>  (178) 
0

>  <hbond:GLY:151>  (178) 
0

>  <hbond:TYR:161>  (178) 
1

>  <hydroph_interaction:TYR:130>  (178) 
0

>  <hydroph_interaction:PRO:131>  (178) 
0

>  <hydroph_interaction:ASP:129>  (178) 
0

>  <saltbridge:ASP:75>  (178) 
0

>  <saltbridge:ASP:83>  (178) 
0

>  <hbond:ASN:152>  (178) 
0

>  <hydroph_interaction:ASN:152>  (178) 
0

>  <halogenbond:TYR:150>  (178) 
0

>  <hbond:ASP:83>  (178) 
0

>  <hydroph_interaction:VAL:155>  (178) 
0

>  <pication:TYR:161>  (178) 
0

>  <hbond:PRO:131>  (178) 
0

>  <saltbridge:ASP:129>  (178) 
0

>  <hbond:THR:134>  (178) 
0

>  <pication:HIS:51>  (178) 
0

>  <hbond:SER:81>  (178) 
0

>  <hydroph_interaction:THR:134>  (178) 
0

>  <hydroph_interaction:MET:49>  (178) 
0

$$$$
Z3132343346
     RDKit          3D

 41 43  0  0  0  0  0  0  0  0999 V2000
  -10.5270    4.6760  -18.3690 C   0  0  0  0  0  0  0  0  0  0  0  0
   -9.2450    4.9430  -17.6780 C   0  0  0  0  0  0  0  0  0  0  0  0
   -8.1700    5.1660  -18.5380 C   0  0  0  0  0  0  0  0  0  0  0  0
   -6.9210    5.4240  -18.0290 C   0  0  0  0  0  0  0  0  0  0  0  0
   -5.8700    5.6430  -18.9100 C   0  0  0  0  0  0  0  0  0  0  0  0
   -6.7280    5.4570  -16.6550 C   0  0  0  0  0  0  0  0  0  0  0  0
   -7.7820    5.2360  -15.7460 C   0  0  0  0  0  0  0  0  0  0  0  0
   -7.4240    5.2980  -14.2630 C   0  0  0  0  0  0  0  0  0  0  0  0
   -8.4310    4.9030  -13.2750 N   0  0  0  0  0  0  0  0  0  0  0  0
   -8.8890    5.8570  -12.3740 C   0  0  0  0  0  0  0  0  0  0  0  0
   -9.3420    6.9080  -12.8160 O   0  0  0  0  0  0  0  0  0  0  0  0
   -8.8390    5.6780  -10.8040 C   0  0  0  0  0  0  0  0  0  0  0  0
   -8.9590    4.3730  -10.0390 C   0  0  0  0  0  0  0  0  0  0  0  0
   -9.1190    3.0820  -10.4910 C   0  0  0  0  0  0  0  0  0  0  0  0
   -8.8280    2.1580   -9.3690 N   0  0  0  0  0  0  0  0  0  0  0  0
   -9.5100    2.5440   -8.1150 C   0  0  0  0  0  0  0  0  0  0  0  0
   -8.9710    3.7310   -7.5680 C   0  0  0  0  0  0  0  0  0  0  0  0
   -8.8810    4.7080   -8.6310 N   0  0  0  0  0  0  0  0  0  0  0  0
   -8.7240    6.0220   -8.4520 N   0  0  0  0  0  0  0  0  0  0  0  0
   -8.6990    6.5880   -9.7030 C   0  0  0  0  0  0  0  0  0  0  0  0
   -9.0700    4.9760  -16.2790 C   0  0  0  0  0  0  0  0  0  0  0  0
  -11.3500    4.5280  -17.6970 H   0  0  0  0  0  0  0  0  0  0  0  0
  -10.7590    5.4570  -19.1030 H   0  0  0  0  0  0  0  0  0  0  0  0
  -10.3980    3.7430  -18.8900 H   0  0  0  0  0  0  0  0  0  0  0  0
   -8.3250    5.1370  -19.6150 H   0  0  0  0  0  0  0  0  0  0  0  0
   -5.7920    6.7180  -19.1200 H   0  0  0  0  0  0  0  0  0  0  0  0
   -4.8720    5.3310  -18.5990 H   0  0  0  0  0  0  0  0  0  0  0  0
   -6.1220    5.1550  -19.8540 H   0  0  0  0  0  0  0  0  0  0  0  0
   -5.7290    5.6590  -16.2690 H   0  0  0  0  0  0  0  0  0  0  0  0
   -6.5490    4.6620  -14.0820 H   0  0  0  0  0  0  0  0  0  0  0  0
   -7.0970    6.3190  -14.0260 H   0  0  0  0  0  0  0  0  0  0  0  0
   -9.0270    4.1210  -13.5180 H   0  0  0  0  0  0  0  0  0  0  0  0
  -10.1360    2.9400  -10.8740 H   0  0  0  0  0  0  0  0  0  0  0  0
   -8.4330    2.8630  -11.3210 H   0  0  0  0  0  0  0  0  0  0  0  0
   -7.8180    2.1190   -9.2310 H   0  0  0  0  0  0  0  0  0  0  0  0
   -9.4130    1.7480   -7.3890 H   0  0  0  0  0  0  0  0  0  0  0  0
  -10.5690    2.6640   -8.3050 H   0  0  0  0  0  0  0  0  0  0  0  0
   -9.6090    4.1250   -6.7860 H   0  0  0  0  0  0  0  0  0  0  0  0
   -7.9560    3.5740   -7.1800 H   0  0  0  0  0  0  0  0  0  0  0  0
   -8.5820    7.6640   -9.7500 H   0  0  0  0  0  0  0  0  0  0  0  0
   -9.9110    4.8020  -15.6120 H   0  0  0  0  0  0  0  0  0  0  0  0
  1  2  1  0
  2  3  2  0
  3  4  1  0
  4  5  1  0
  4  6  2  0
  6  7  1  0
  7  8  1  0
  8  9  1  0
  9 10  1  0
 10 11  2  0
 10 12  1  0
 12 13  2  0
 13 14  1  0
 14 15  1  0
 15 16  1  0
 16 17  1  0
 17 18  1  0
 18 19  1  0
 19 20  2  0
  7 21  2  0
 21  2  1  0
 20 12  1  0
 18 13  1  0
  1 22  1  0
  1 23  1  0
  1 24  1  0
  3 25  1  0
  5 26  1  0
  5 27  1  0
  5 28  1  0
  6 29  1  0
  8 30  1  0
  8 31  1  0
  9 32  1  0
 14 33  1  0
 14 34  1  0
 15 35  1  0
 16 36  1  0
 16 37  1  0
 17 38  1  0
 17 39  1  0
 20 40  1  0
 21 41  1  0
A    1
 C1 
A    2
 C2 
A    3
 C3 
A    4
 C4 
A    5
 C5 
A    6
 C6 
A    7
 C7 
A    8
 C8 
A    9
 N1 
A   10
 C9 
A   11
 O1 
A   12
 C10
A   13
 C11
A   14
 C12
A   15
 N2 
A   16
 C13
A   17
 C14
A   18
 N3 
A   19
 N4 
A   20
 C15
A   21
 C16
A   22
 H1 
A   23
 H2 
A   24
 H3 
A   25
 H4 
A   26
 H5 
A   27
 H6 
A   28
 H7 
A   29
 H8 
A   30
 H9 
A   31
 H10
A   32
 H11
A   33
 H12
A   34
 H13
A   35
 H14
A   36
 H15
A   37
 H16
A   38
 H17
A   39
 H18
A   40
 H19
A   41
 H20
M  END
>  <ref_pdb>  (179) 
x0051_0B

>  <ref_mols>  (179) 
x0969_1B,x0589_0B

>  <original SMILES>  (179) 
[H]c1nn2c(c1C(=O)N([H])C([H])([H])c1c([H])c(C([H])([H])[H])c([H])c(C([H])([H])[H])c1[H])C([H])([H])N([H])C([H])([H])C2([H])[H]

>  <index>  (179) 
443

>  <∆∆G>  (179) 
-8.294386

>  <∆G_bound>  (179) 
-7.855681

>  <∆G_unbound>  (179) 
0.438705

>  <comRMSD>  (179) 
0.436553

>  <N_constrained_atoms>  (179) 
18.0

>  <N_unconstrained_atoms>  (179) 
3.0

>  <runtime>  (179) 
56.684184

>  <LE>  (179) 
0.394971

>  <percent_hybrid>  (179) 
45.0

>  <dist>  (179) 
4.0

>  <ecfp4>  (179) 
0.46875

>  <daylight>  (179) 
0.533333

>  <topodist>  (179) 
1.0

>  <mces>  (179) 
22.0

>  <tdn>  (179) 
0.0

>  <tup>  (179) 
1.0

>  <rdn>  (179) 
0.0

>  <rup>  (179) 
0.0

>  <ldn>  (179) 
0.0

>  <lup>  (179) 
0.0

>  <mut>  (179) 
2.0

>  <maj>  (179) 
2.0

>  <min>  (179) 
0.0

>  <hyb>  (179) 
1.0

>  <sub>  (179) 
0.0

>  <query_index>  (179) 
380.0

>  <max_hit_Tanimoto>  (179) 
0.603073

>  <largest_ring>  (179) 
0

>  <N_interactions_kept>  (179) 
0.5

>  <N_interactions_lost>  (179) 
2.0

>  <interaction_uniqueness_metric>  (179) 
0.243625

>  <ad_hoc_penalty>  (179) 
-23.847677

>  <N_rotatable_bonds>  (179) 
5

>  <N_HA>  (179) 
21

>  <cluster>  (179) 
5816

>  <N_interactions>  (179) 
6

>  <Enamine>  (179) 
1

>  <Mcule>  (179) 
0

>  <N_PAINS>  (179) 
0

>  <UFF_Gibbs>  (179) 
75.832225

>  <strain_per_HA>  (179) 
3.611058

>  <intxn_scored>  (179) 
9.5

>  <saltbridge:HIS:51>  (179) 
0

>  <pistack:HIS:51>  (179) 
0

>  <hydroph_interaction:HIS:51>  (179) 
0

>  <hbond:ALA:132>  (179) 
0

>  <hbond:SER:135>  (179) 
0

>  <hydroph_interaction:TYR:150>  (179) 
1

>  <pistack:TYR:161>  (179) 
1

>  <hydroph_interaction:TYR:161>  (179) 
1

>  <hydroph_interaction:ASP:83>  (179) 
0

>  <hbond:TYR:130>  (179) 
0

>  <hydroph_interaction:ALA:132>  (179) 
0

>  <hbond:HIS:51>  (179) 
0

>  <hbond:ASP:129>  (179) 
0

>  <hbond:TYR:150>  (179) 
0

>  <hbond:GLY:151>  (179) 
1

>  <hbond:TYR:161>  (179) 
1

>  <hydroph_interaction:TYR:130>  (179) 
0

>  <hydroph_interaction:PRO:131>  (179) 
0

>  <hydroph_interaction:ASP:129>  (179) 
0

>  <saltbridge:ASP:75>  (179) 
0

>  <saltbridge:ASP:83>  (179) 
0

>  <hbond:ASN:152>  (179) 
0

>  <hydroph_interaction:ASN:152>  (179) 
0

>  <halogenbond:TYR:150>  (179) 
0

>  <hbond:ASP:83>  (179) 
1

>  <hydroph_interaction:VAL:155>  (179) 
0

>  <pication:TYR:161>  (179) 
0

>  <hbond:PRO:131>  (179) 
0

>  <saltbridge:ASP:129>  (179) 
0

>  <hbond:THR:134>  (179) 
0

>  <pication:HIS:51>  (179) 
0

>  <hbond:SER:81>  (179) 
0

>  <hydroph_interaction:THR:134>  (179) 
0

>  <hydroph_interaction:MET:49>  (179) 
0

$$$$
Z4592915617
     RDKit          3D

 41 43  0  0  0  0  0  0  0  0999 V2000
   -4.9900    5.4220  -17.8180 C   0  0  0  0  0  0  0  0  0  0  0  0
   -6.3220    5.2550  -17.7680 C   0  0  0  0  0  0  0  0  0  0  0  0
   -7.1430    4.9990  -19.0000 C   0  0  0  0  0  0  0  0  0  0  0  0
   -8.6300    4.8240  -18.7990 C   0  0  0  0  0  0  0  0  0  0  0  0
   -9.1010    4.9190  -17.4860 C   0  0  0  0  0  0  0  0  0  0  0  0
   -8.2440    5.1660  -16.4080 C   0  0  0  0  0  0  0  0  0  0  0  0
   -8.7670    5.2570  -15.1220 C   0  0  0  0  0  0  0  0  0  0  0  0
   -8.2380    6.3190  -14.3620 C   0  0  0  0  0  0  0  0  0  0  0  0
   -8.3830    6.3170  -12.9510 N   0  0  0  0  0  0  0  0  0  0  0  0
   -8.8180    5.2510  -12.1860 C   0  0  0  0  0  0  0  0  0  0  0  0
   -8.8540    5.5720  -10.6900 C   0  0  0  0  0  0  0  0  0  0  0  0
   -9.0440    4.4070   -9.8010 C   0  0  0  0  0  0  0  0  0  0  0  0
   -9.1940    2.9770  -10.2750 C   0  0  0  0  0  0  0  0  0  0  0  0
   -8.9730    2.1110   -9.1220 N   0  0  0  0  0  0  0  0  0  0  0  0
   -9.6720    2.5970   -7.9050 C   0  0  0  0  0  0  0  0  0  0  0  0
   -9.2230    3.9860   -7.4330 C   0  0  0  0  0  0  0  0  0  0  0  0
   -9.0520    4.8650   -8.5690 N   0  0  0  0  0  0  0  0  0  0  0  0
   -8.8850    6.2220   -8.4900 N   0  0  0  0  0  0  0  0  0  0  0  0
   -8.7670    6.6530   -9.7840 C   0  0  0  0  0  0  0  0  0  0  0  0
   -6.8940    5.3280  -16.5400 N   0  0  0  0  0  0  0  0  0  0  0  0
   -4.4880    4.8980  -18.6260 H   0  0  0  0  0  0  0  0  0  0  0  0
   -4.6580    6.4510  -17.7510 H   0  0  0  0  0  0  0  0  0  0  0  0
   -4.5920    4.9460  -16.9180 H   0  0  0  0  0  0  0  0  0  0  0  0
   -6.6040    4.9550  -19.9550 H   0  0  0  0  0  0  0  0  0  0  0  0
   -9.2980    4.6340  -19.6350 H   0  0  0  0  0  0  0  0  0  0  0  0
  -10.1850    4.7860  -17.3910 H   0  0  0  0  0  0  0  0  0  0  0  0
   -8.4200    4.3520  -14.6070 H   0  0  0  0  0  0  0  0  0  0  0  0
   -9.8430    5.1240  -15.0740 H   0  0  0  0  0  0  0  0  0  0  0  0
   -7.1600    6.2570  -14.5340 H   0  0  0  0  0  0  0  0  0  0  0  0
   -8.5210    7.3010  -14.7250 H   0  0  0  0  0  0  0  0  0  0  0  0
   -7.8690    7.0270  -12.4540 H   0  0  0  0  0  0  0  0  0  0  0  0
   -9.7160    4.8390  -12.6400 H   0  0  0  0  0  0  0  0  0  0  0  0
   -8.0700    4.4590  -12.3130 H   0  0  0  0  0  0  0  0  0  0  0  0
  -10.1800    2.7720  -10.6920 H   0  0  0  0  0  0  0  0  0  0  0  0
   -8.4410    2.7690  -11.0450 H   0  0  0  0  0  0  0  0  0  0  0  0
   -7.9700    2.1400   -8.9580 H   0  0  0  0  0  0  0  0  0  0  0  0
   -9.5020    1.8740   -7.1020 H   0  0  0  0  0  0  0  0  0  0  0  0
  -10.7440    2.6130   -8.1050 H   0  0  0  0  0  0  0  0  0  0  0  0
   -9.9330    4.4220   -6.7330 H   0  0  0  0  0  0  0  0  0  0  0  0
   -8.2600    3.9070   -6.9150 H   0  0  0  0  0  0  0  0  0  0  0  0
   -8.6290    7.7030   -9.9940 H   0  0  0  0  0  0  0  0  0  0  0  0
  1  2  1  0
  2  3  2  0
  3  4  1  0
  4  5  2  0
  5  6  1  0
  6  7  1  0
  7  8  1  0
  8  9  1  0
  9 10  1  0
 10 11  1  0
 11 12  2  0
 12 13  1  0
 13 14  1  0
 14 15  1  0
 15 16  1  0
 16 17  1  0
 17 18  1  0
 18 19  2  0
  6 20  2  0
 20  2  1  0
 19 11  1  0
 17 12  1  0
  1 21  1  0
  1 22  1  0
  1 23  1  0
  3 24  1  0
  4 25  1  0
  5 26  1  0
  7 27  1  0
  7 28  1  0
  8 29  1  0
  8 30  1  0
  9 31  1  0
 10 32  1  0
 10 33  1  0
 13 34  1  0
 13 35  1  0
 14 36  1  0
 15 37  1  0
 15 38  1  0
 16 39  1  0
 16 40  1  0
 19 41  1  0
A    1
 C1 
A    2
 C2 
A    3
 C3 
A    4
 C4 
A    5
 C5 
A    6
 C6 
A    7
 C7 
A    8
 C8 
A    9
 N1 
A   10
 C9 
A   11
 C10
A   12
 C11
A   13
 C12
A   14
 N2 
A   15
 C13
A   16
 C14
A   17
 N3 
A   18
 N4 
A   19
 C15
A   20
 N5 
A   21
 H1 
A   22
 H2 
A   23
 H3 
A   24
 H4 
A   25
 H5 
A   26
 H6 
A   27
 H7 
A   28
 H8 
A   29
 H9 
A   30
 H10
A   31
 H11
A   32
 H12
A   33
 H13
A   34
 H14
A   35
 H15
A   36
 H16
A   37
 H17
A   38
 H18
A   39
 H19
A   40
 H20
A   41
 H21
M  END
>  <ref_pdb>  (180) 
x0051_0B

>  <ref_mols>  (180) 
x0605_0B,x0969_1B

>  <original SMILES>  (180) 
[H]c1nn2c(c1C([H])([H])N([H])C([H])([H])C([H])([H])c1nc(C([H])([H])[H])c([H])c([H])c1[H])C([H])([H])N([H])C([H])([H])C2([H])[H]

>  <index>  (180) 
3493

>  <∆∆G>  (180) 
-5.984113

>  <∆G_bound>  (180) 
-5.17724

>  <∆G_unbound>  (180) 
0.806872

>  <comRMSD>  (180) 
0.825602

>  <N_constrained_atoms>  (180) 
18.0

>  <N_unconstrained_atoms>  (180) 
4.0

>  <runtime>  (180) 
41.222965

>  <LE>  (180) 
0.272005

>  <percent_hybrid>  (180) 
45.0

>  <dist>  (180) 
5.0

>  <ecfp4>  (180) 
0.424242

>  <daylight>  (180) 
0.50211

>  <topodist>  (180) 
1.0

>  <mces>  (180) 
22.0

>  <tdn>  (180) 
1.0

>  <tup>  (180) 
0.0

>  <rdn>  (180) 
0.0

>  <rup>  (180) 
0.0

>  <ldn>  (180) 
0.0

>  <lup>  (180) 
0.0

>  <mut>  (180) 
3.0

>  <maj>  (180) 
3.0

>  <min>  (180) 
0.0

>  <hyb>  (180) 
1.0

>  <sub>  (180) 
0.0

>  <query_index>  (180) 
307.0

>  <max_hit_Tanimoto>  (180) 
0.674785

>  <largest_ring>  (180) 
6

>  <N_interactions_kept>  (180) 
0.5

>  <N_interactions_lost>  (180) 
2.5

>  <interaction_uniqueness_metric>  (180) 
0.214225

>  <ad_hoc_penalty>  (180) 
-1.164399

>  <N_rotatable_bonds>  (180) 
6

>  <N_HA>  (180) 
20

>  <cluster>  (180) 
2979

>  <N_interactions>  (180) 
5

>  <Enamine>  (180) 
1

>  <Mcule>  (180) 
0

>  <N_PAINS>  (180) 
0

>  <UFF_Gibbs>  (180) 
106.944388

>  <strain_per_HA>  (180) 
5.347219

>  <intxn_scored>  (180) 
9.5

>  <saltbridge:HIS:51>  (180) 
0

>  <pistack:HIS:51>  (180) 
1

>  <hydroph_interaction:HIS:51>  (180) 
1

>  <hbond:ALA:132>  (180) 
0

>  <hbond:SER:135>  (180) 
0

>  <hydroph_interaction:TYR:150>  (180) 
0

>  <pistack:TYR:161>  (180) 
1

>  <hydroph_interaction:TYR:161>  (180) 
1

>  <hydroph_interaction:ASP:83>  (180) 
0

>  <hbond:TYR:130>  (180) 
0

>  <hydroph_interaction:ALA:132>  (180) 
0

>  <hbond:HIS:51>  (180) 
0

>  <hbond:ASP:129>  (180) 
0

>  <hbond:TYR:150>  (180) 
0

>  <hbond:GLY:151>  (180) 
0

>  <hbond:TYR:161>  (180) 
0

>  <hydroph_interaction:TYR:130>  (180) 
0

>  <hydroph_interaction:PRO:131>  (180) 
0

>  <hydroph_interaction:ASP:129>  (180) 
0

>  <saltbridge:ASP:75>  (180) 
0

>  <saltbridge:ASP:83>  (180) 
0

>  <hbond:ASN:152>  (180) 
0

>  <hydroph_interaction:ASN:152>  (180) 
0

>  <halogenbond:TYR:150>  (180) 
0

>  <hbond:ASP:83>  (180) 
1

>  <hydroph_interaction:VAL:155>  (180) 
0

>  <pication:TYR:161>  (180) 
0

>  <hbond:PRO:131>  (180) 
0

>  <saltbridge:ASP:129>  (180) 
0

>  <hbond:THR:134>  (180) 
0

>  <pication:HIS:51>  (180) 
0

>  <hbond:SER:81>  (180) 
0

>  <hydroph_interaction:THR:134>  (180) 
0

>  <hydroph_interaction:MET:49>  (180) 
0

$$$$
CSSS00011215156
     RDKit          3D

 21 22  0  0  0  0  0  0  0  0999 V2000
   -9.7510    4.9440  -19.4810 C   0  0  0  0  0  0  0  0  0  0  0  0
   -9.0170    5.0000  -18.2410 C   0  0  0  0  0  0  0  0  0  0  0  0
   -9.7600    4.8750  -17.1050 C   0  0  0  0  0  0  0  0  0  0  0  0
   -9.1620    4.9480  -15.8650 C   0  0  0  0  0  0  0  0  0  0  0  0
   -7.7890    5.1390  -15.7660 C   0  0  0  0  0  0  0  0  0  0  0  0
   -7.0490    5.2250  -14.0080 Br  0  0  0  0  0  0  0  0  0  0  0  0
   -7.0220    5.2570  -16.9200 C   0  0  0  0  0  0  0  0  0  0  0  0
   -5.5660    5.4580  -16.8470 C   0  0  0  0  0  0  0  0  0  0  0  0
   -4.8360    5.5720  -18.0250 C   0  0  0  0  0  0  0  0  0  0  0  0
   -5.4870    5.4970  -19.2630 C   0  0  0  0  0  0  0  0  0  0  0  0
   -6.8630    5.3100  -19.3400 C   0  0  0  0  0  0  0  0  0  0  0  0
   -7.6330    5.1890  -18.1890 C   0  0  0  0  0  0  0  0  0  0  0  0
  -10.8190    4.9220  -19.2540 H   0  0  0  0  0  0  0  0  0  0  0  0
   -9.4390    4.0780  -20.0570 H   0  0  0  0  0  0  0  0  0  0  0  0
   -9.5850    5.8410  -20.0590 H   0  0  0  0  0  0  0  0  0  0  0  0
  -10.8230    4.7220  -17.1900 H   0  0  0  0  0  0  0  0  0  0  0  0
   -9.7860    4.8520  -14.9750 H   0  0  0  0  0  0  0  0  0  0  0  0
   -5.0360    5.5190  -15.8970 H   0  0  0  0  0  0  0  0  0  0  0  0
   -3.7600    5.7210  -17.9900 H   0  0  0  0  0  0  0  0  0  0  0  0
   -4.9080    5.5870  -20.1810 H   0  0  0  0  0  0  0  0  0  0  0  0
   -7.3090    5.2620  -20.3300 H   0  0  0  0  0  0  0  0  0  0  0  0
  1  2  1  0
  2  3  2  0
  3  4  1  0
  4  5  2  0
  5  6  1  0
  5  7  1  0
  7  8  2  0
  8  9  1  0
  9 10  2  0
 10 11  1  0
 11 12  2  0
 12  2  1  0
 12  7  1  0
  1 13  1  0
  1 14  1  0
  1 15  1  0
  3 16  1  0
  4 17  1  0
  8 18  1  0
  9 19  1  0
 10 20  1  0
 11 21  1  0
A    1
 C1 
A    2
 C2 
A    3
 C3 
A    4
 C4 
A    5
 C5 
A    6
BR1 
A    7
 C6 
A    8
 C7 
A    9
 C8 
A   10
 C9 
A   11
 C10
A   12
 C11
A   13
 H1 
A   14
 H2 
A   15
 H3 
A   16
 H4 
A   17
 H5 
A   18
 H6 
A   19
 H7 
A   20
 H8 
A   21
 H9 
M  END
>  <ref_pdb>  (181) 
x0051_0B

>  <ref_mols>  (181) 
x0727_0B,x0800_0B

>  <original SMILES>  (181) 
[H]c1c([H])c([H])c2c(C([H])([H])[H])c([H])c([H])c(Br)c2c1[H]

>  <index>  (181) 
4002

>  <∆∆G>  (181) 
-7.252199

>  <∆G_bound>  (181) 
-7.430106

>  <∆G_unbound>  (181) 
-0.177907

>  <comRMSD>  (181) 
0.763933

>  <N_constrained_atoms>  (181) 
14.0

>  <N_unconstrained_atoms>  (181) 
1.0

>  <runtime>  (181) 
26.097519

>  <LE>  (181) 
0.48348

>  <percent_hybrid>  (181) 
43.0

>  <dist>  (181) 
3.0

>  <ecfp4>  (181) 
0.210526

>  <daylight>  (181) 
0.166667

>  <topodist>  (181) 
3.0

>  <mces>  (181) 
12.0

>  <tdn>  (181) 
1.0

>  <tup>  (181) 
1.0

>  <rdn>  (181) 
0.0

>  <rup>  (181) 
0.0

>  <ldn>  (181) 
1.0

>  <lup>  (181) 
0.0

>  <mut>  (181) 
0.0

>  <maj>  (181) 
0.0

>  <min>  (181) 
0.0

>  <hyb>  (181) 
0.0

>  <sub>  (181) 
2.0

>  <query_index>  (181) 
67.0

>  <max_hit_Tanimoto>  (181) 
0.160401

>  <largest_ring>  (181) 
6

>  <N_interactions_kept>  (181) 
0.0

>  <N_interactions_lost>  (181) 
4.0

>  <interaction_uniqueness_metric>  (181) 
0.04341

>  <ad_hoc_penalty>  (181) 
-1.286975

>  <N_rotatable_bonds>  (181) 
1

>  <N_HA>  (181) 
12

>  <cluster>  (181) 
2493

>  <N_interactions>  (181) 
4

>  <Enamine>  (181) 
1

>  <Mcule>  (181) 
0

>  <N_PAINS>  (181) 
0

>  <UFF_Gibbs>  (181) 
9.57877

>  <strain_per_HA>  (181) 
0.798231

>  <intxn_scored>  (181) 
9.5

>  <saltbridge:HIS:51>  (181) 
0

>  <pistack:HIS:51>  (181) 
0

>  <hydroph_interaction:HIS:51>  (181) 
0

>  <hbond:ALA:132>  (181) 
0

>  <hbond:SER:135>  (181) 
0

>  <hydroph_interaction:TYR:150>  (181) 
1

>  <pistack:TYR:161>  (181) 
2

>  <hydroph_interaction:TYR:161>  (181) 
1

>  <hydroph_interaction:ASP:83>  (181) 
0

>  <hbond:TYR:130>  (181) 
0

>  <hydroph_interaction:ALA:132>  (181) 
0

>  <hbond:HIS:51>  (181) 
0

>  <hbond:ASP:129>  (181) 
0

>  <hbond:TYR:150>  (181) 
0

>  <hbond:GLY:151>  (181) 
0

>  <hbond:TYR:161>  (181) 
0

>  <hydroph_interaction:TYR:130>  (181) 
0

>  <hydroph_interaction:PRO:131>  (181) 
0

>  <hydroph_interaction:ASP:129>  (181) 
0

>  <saltbridge:ASP:75>  (181) 
0

>  <saltbridge:ASP:83>  (181) 
0

>  <hbond:ASN:152>  (181) 
0

>  <hydroph_interaction:ASN:152>  (181) 
0

>  <halogenbond:TYR:150>  (181) 
0

>  <hbond:ASP:83>  (181) 
0

>  <hydroph_interaction:VAL:155>  (181) 
0

>  <pication:TYR:161>  (181) 
0

>  <hbond:PRO:131>  (181) 
0

>  <saltbridge:ASP:129>  (181) 
0

>  <hbond:THR:134>  (181) 
0

>  <pication:HIS:51>  (181) 
0

>  <hbond:SER:81>  (181) 
0

>  <hydroph_interaction:THR:134>  (181) 
0

>  <hydroph_interaction:MET:49>  (181) 
0

$$$$
CSSB00010236779
     RDKit          3D

 27 28  0  0  0  0  0  0  0  0999 V2000
   -6.4240    5.0740  -14.7000 C   0  0  0  0  0  0  0  0  0  0  0  0
   -7.4630    5.9360  -15.1320 O   0  0  0  0  0  0  0  0  0  0  0  0
   -8.1280    5.5430  -16.2690 C   0  0  0  0  0  0  0  0  0  0  0  0
   -7.3420    5.5290  -17.5200 C   0  0  0  0  0  0  0  0  0  0  0  0
   -5.7070    5.9420  -17.7440 S   0  0  0  0  0  0  0  0  0  0  0  0
   -5.8470    5.5860  -19.4020 C   0  0  0  0  0  0  0  0  0  0  0  0
   -7.0290    5.1830  -19.7950 N   0  0  0  0  0  0  0  0  0  0  0  0
   -7.9100    5.1470  -18.7250 C   0  0  0  0  0  0  0  0  0  0  0  0
   -9.2240    4.7650  -18.8470 C   0  0  0  0  0  0  0  0  0  0  0  0
   -9.9770    4.7790  -17.6700 C   0  0  0  0  0  0  0  0  0  0  0  0
   -9.4610    5.1490  -16.4140 C   0  0  0  0  0  0  0  0  0  0  0  0
   -4.6450    5.7520  -20.2670 C   0  0  0  0  0  0  0  0  0  0  0  0
   -3.4800    5.4070  -19.5810 C   0  0  0  0  0  0  0  0  0  0  0  0
   -4.7960    5.0270  -21.6080 C   0  0  0  0  0  0  0  0  0  0  0  0
   -5.6750    5.6000  -14.1000 H   0  0  0  0  0  0  0  0  0  0  0  0
   -6.8130    4.2370  -14.1100 H   0  0  0  0  0  0  0  0  0  0  0  0
   -5.9290    4.6670  -15.5920 H   0  0  0  0  0  0  0  0  0  0  0  0
   -9.6320    4.4760  -19.8090 H   0  0  0  0  0  0  0  0  0  0  0  0
  -11.0300    4.4820  -17.7400 H   0  0  0  0  0  0  0  0  0  0  0  0
  -10.1420    5.1190  -15.5540 H   0  0  0  0  0  0  0  0  0  0  0  0
   -4.5770    6.8260  -20.4980 H   0  0  0  0  0  0  0  0  0  0  0  0
   -2.9410    6.2970  -19.2420 H   0  0  0  0  0  0  0  0  0  0  0  0
   -2.8150    4.8380  -20.2480 H   0  0  0  0  0  0  0  0  0  0  0  0
   -3.6740    4.7660  -18.7110 H   0  0  0  0  0  0  0  0  0  0  0  0
   -3.9220    4.4090  -21.8450 H   0  0  0  0  0  0  0  0  0  0  0  0
   -4.9150    5.7330  -22.4360 H   0  0  0  0  0  0  0  0  0  0  0  0
   -5.6730    4.3700  -21.6030 H   0  0  0  0  0  0  0  0  0  0  0  0
  1  2  1  0
  2  3  1  0
  3  4  2  0
  4  5  1  0
  5  6  1  0
  6  7  2  0
  7  8  1  0
  8  9  2  0
  9 10  1  0
 10 11  2  0
  6 12  1  0
 12 13  1  0
 12 14  1  0
 11  3  1  0
  8  4  1  0
  1 15  1  0
  1 16  1  0
  1 17  1  0
  9 18  1  0
 10 19  1  0
 11 20  1  0
 12 21  1  0
 13 22  1  0
 13 23  1  0
 13 24  1  0
 14 25  1  0
 14 26  1  0
 14 27  1  0
A    1
 C1 
A    2
 O1 
A    3
 C2 
A    4
 C3 
A    5
 S1 
A    6
 C4 
A    7
 N1 
A    8
 C5 
A    9
 C6 
A   10
 C7 
A   11
 C8 
A   12
 C9 
A   13
 C10
A   14
 C11
A   15
 H1 
A   16
 H2 
A   17
 H3 
A   18
 H4 
A   19
 H5 
A   20
 H6 
A   21
 H7 
A   22
 H8 
A   23
 H9 
A   24
 H10
A   25
 H11
A   26
 H12
A   27
 H13
M  END
>  <ref_pdb>  (182) 
x0051_0B

>  <ref_mols>  (182) 
x0089_0B,x0693_0B

>  <original SMILES>  (182) 
[H]c1c([H])c(OC([H])([H])[H])c2sc(C([H])(C([H])([H])[H])C([H])([H])[H])nc2c1[H]

>  <index>  (182) 
3223

>  <∆∆G>  (182) 
-7.636676

>  <∆G_bound>  (182) 
-7.778246

>  <∆G_unbound>  (182) 
-0.141569

>  <comRMSD>  (182) 
0.69822

>  <N_constrained_atoms>  (182) 
15.0

>  <N_unconstrained_atoms>  (182) 
2.0

>  <runtime>  (182) 
31.258801

>  <LE>  (182) 
0.449216

>  <percent_hybrid>  (182) 
29.0

>  <dist>  (182) 
4.0

>  <ecfp4>  (182) 
0.37037

>  <daylight>  (182) 
0.345912

>  <topodist>  (182) 
3.0

>  <mces>  (182) 
15.0

>  <tdn>  (182) 
3.0

>  <tup>  (182) 
0.0

>  <rdn>  (182) 
0.0

>  <rup>  (182) 
0.0

>  <ldn>  (182) 
0.0

>  <lup>  (182) 
0.0

>  <mut>  (182) 
1.0

>  <maj>  (182) 
1.0

>  <min>  (182) 
0.0

>  <hyb>  (182) 
0.0

>  <sub>  (182) 
2.0

>  <query_index>  (182) 
207.0

>  <max_hit_Tanimoto>  (182) 
0.166023

>  <largest_ring>  (182) 
6

>  <N_interactions_kept>  (182) 
2.5

>  <N_interactions_lost>  (182) 
2.5

>  <interaction_uniqueness_metric>  (182) 
0.04341

>  <ad_hoc_penalty>  (182) 
-2.191175

>  <N_rotatable_bonds>  (182) 
5

>  <N_HA>  (182) 
14

>  <cluster>  (182) 
421

>  <N_interactions>  (182) 
4

>  <Enamine>  (182) 
1

>  <Mcule>  (182) 
0

>  <N_PAINS>  (182) 
0

>  <UFF_Gibbs>  (182) 
52.543179

>  <strain_per_HA>  (182) 
3.753084

>  <intxn_scored>  (182) 
9.5

>  <saltbridge:HIS:51>  (182) 
0

>  <pistack:HIS:51>  (182) 
0

>  <hydroph_interaction:HIS:51>  (182) 
0

>  <hbond:ALA:132>  (182) 
0

>  <hbond:SER:135>  (182) 
0

>  <hydroph_interaction:TYR:150>  (182) 
1

>  <pistack:TYR:161>  (182) 
2

>  <hydroph_interaction:TYR:161>  (182) 
1

>  <hydroph_interaction:ASP:83>  (182) 
0

>  <hbond:TYR:130>  (182) 
0

>  <hydroph_interaction:ALA:132>  (182) 
0

>  <hbond:HIS:51>  (182) 
0

>  <hbond:ASP:129>  (182) 
0

>  <hbond:TYR:150>  (182) 
0

>  <hbond:GLY:151>  (182) 
0

>  <hbond:TYR:161>  (182) 
0

>  <hydroph_interaction:TYR:130>  (182) 
0

>  <hydroph_interaction:PRO:131>  (182) 
0

>  <hydroph_interaction:ASP:129>  (182) 
0

>  <saltbridge:ASP:75>  (182) 
0

>  <saltbridge:ASP:83>  (182) 
0

>  <hbond:ASN:152>  (182) 
0

>  <hydroph_interaction:ASN:152>  (182) 
0

>  <halogenbond:TYR:150>  (182) 
0

>  <hbond:ASP:83>  (182) 
0

>  <hydroph_interaction:VAL:155>  (182) 
0

>  <pication:TYR:161>  (182) 
0

>  <hbond:PRO:131>  (182) 
0

>  <saltbridge:ASP:129>  (182) 
0

>  <hbond:THR:134>  (182) 
0

>  <pication:HIS:51>  (182) 
0

>  <hbond:SER:81>  (182) 
0

>  <hydroph_interaction:THR:134>  (182) 
0

>  <hydroph_interaction:MET:49>  (182) 
0

$$$$
CSSB00009881282
     RDKit          3D

 23 24  0  0  0  0  0  0  0  0999 V2000
  -10.9770    4.9670  -18.5620 C   0  0  0  0  0  0  0  0  0  0  0  0
   -9.6000    4.9960  -18.0010 C   0  0  0  0  0  0  0  0  0  0  0  0
   -8.5680    5.0980  -19.0870 C   0  0  0  0  0  0  0  0  0  0  0  0
   -7.2570    5.1910  -18.6830 C   0  0  0  0  0  0  0  0  0  0  0  0
   -6.2710    5.3030  -19.6600 C   0  0  0  0  0  0  0  0  0  0  0  0
   -4.9360    5.4100  -19.3050 C   0  0  0  0  0  0  0  0  0  0  0  0
   -4.5780    5.4040  -17.9600 C   0  0  0  0  0  0  0  0  0  0  0  0
   -5.5540    5.2880  -16.9620 C   0  0  0  0  0  0  0  0  0  0  0  0
   -5.1760    5.2850  -15.6190 N   0  0  0  0  0  0  0  0  0  0  0  0
   -6.8980    5.1790  -17.3080 C   0  0  0  0  0  0  0  0  0  0  0  0
   -7.9040    5.0600  -16.3230 C   0  0  0  0  0  0  0  0  0  0  0  0
   -9.2590    4.9680  -16.6650 C   0  0  0  0  0  0  0  0  0  0  0  0
  -11.5580    5.7220  -18.0980 H   0  0  0  0  0  0  0  0  0  0  0  0
  -11.4840    4.0270  -18.4640 H   0  0  0  0  0  0  0  0  0  0  0  0
  -10.9230    5.2470  -19.6130 H   0  0  0  0  0  0  0  0  0  0  0  0
   -8.8540    5.1100  -20.1340 H   0  0  0  0  0  0  0  0  0  0  0  0
   -6.5390    5.3100  -20.7150 H   0  0  0  0  0  0  0  0  0  0  0  0
   -4.1700    5.4980  -20.0710 H   0  0  0  0  0  0  0  0  0  0  0  0
   -3.5320    5.4890  -17.6810 H   0  0  0  0  0  0  0  0  0  0  0  0
   -4.2830    4.8240  -15.4710 H   0  0  0  0  0  0  0  0  0  0  0  0
   -5.8740    4.8860  -14.9990 H   0  0  0  0  0  0  0  0  0  0  0  0
   -7.6520    5.0410  -15.2690 H   0  0  0  0  0  0  0  0  0  0  0  0
  -10.0140    4.8880  -15.8860 H   0  0  0  0  0  0  0  0  0  0  0  0
  1  2  1  0
  2  3  2  0
  3  4  1  0
  4  5  2  0
  5  6  1  0
  6  7  2  0
  7  8  1  0
  8  9  1  0
  8 10  2  0
 10 11  1  0
 11 12  2  0
 12  2  1  0
 10  4  1  0
  1 13  1  0
  1 14  1  0
  1 15  1  0
  3 16  1  0
  5 17  1  0
  6 18  1  0
  7 19  1  0
  9 20  1  0
  9 21  1  0
 11 22  1  0
 12 23  1  0
A    1
 C1 
A    2
 C2 
A    3
 C3 
A    4
 C4 
A    5
 C5 
A    6
 C6 
A    7
 C7 
A    8
 C8 
A    9
 N1 
A   10
 C9 
A   11
 C10
A   12
 C11
A   13
 H1 
A   14
 H2 
A   15
 H3 
A   16
 H4 
A   17
 H5 
A   18
 H6 
A   19
 H7 
A   20
 H8 
A   21
 H9 
A   22
 H10
A   23
 H11
M  END
>  <ref_pdb>  (183) 
x0051_0B

>  <ref_mols>  (183) 
x0727_0B,x0605_0B

>  <original SMILES>  (183) 
[H]c1c([H])c(N([H])[H])c2c([H])c([H])c(C([H])([H])[H])c([H])c2c1[H]

>  <index>  (183) 
3444

>  <∆∆G>  (183) 
-7.289459

>  <∆G_bound>  (183) 
-7.339051

>  <∆G_unbound>  (183) 
-0.049592

>  <comRMSD>  (183) 
0.638622

>  <N_constrained_atoms>  (183) 
14.0

>  <N_unconstrained_atoms>  (183) 
0.0

>  <runtime>  (183) 
21.970818

>  <LE>  (183) 
0.520676

>  <percent_hybrid>  (183) 
29.0

>  <dist>  (183) 
2.0

>  <ecfp4>  (183) 
0.405405

>  <daylight>  (183) 
0.380952

>  <topodist>  (183) 
1.0

>  <mces>  (183) 
13.0

>  <tdn>  (183) 
1.0

>  <tup>  (183) 
0.0

>  <rdn>  (183) 
0.0

>  <rup>  (183) 
0.0

>  <ldn>  (183) 
0.0

>  <lup>  (183) 
0.0

>  <mut>  (183) 
1.0

>  <maj>  (183) 
1.0

>  <min>  (183) 
0.0

>  <hyb>  (183) 
0.0

>  <sub>  (183) 
1.0

>  <query_index>  (183) 
74.0

>  <max_hit_Tanimoto>  (183) 
0.245714

>  <largest_ring>  (183) 
6

>  <N_interactions_kept>  (183) 
0.0

>  <N_interactions_lost>  (183) 
3.5

>  <interaction_uniqueness_metric>  (183) 
0.04341

>  <ad_hoc_penalty>  (183) 
-1.86392

>  <N_rotatable_bonds>  (183) 
2

>  <N_HA>  (183) 
12

>  <cluster>  (183) 
3025

>  <N_interactions>  (183) 
4

>  <Enamine>  (183) 
1

>  <Mcule>  (183) 
0

>  <N_PAINS>  (183) 
0

>  <UFF_Gibbs>  (183) 
35.02054

>  <strain_per_HA>  (183) 
2.918378

>  <intxn_scored>  (183) 
9.5

>  <saltbridge:HIS:51>  (183) 
0

>  <pistack:HIS:51>  (183) 
0

>  <hydroph_interaction:HIS:51>  (183) 
0

>  <hbond:ALA:132>  (183) 
0

>  <hbond:SER:135>  (183) 
0

>  <hydroph_interaction:TYR:150>  (183) 
1

>  <pistack:TYR:161>  (183) 
2

>  <hydroph_interaction:TYR:161>  (183) 
1

>  <hydroph_interaction:ASP:83>  (183) 
0

>  <hbond:TYR:130>  (183) 
0

>  <hydroph_interaction:ALA:132>  (183) 
0

>  <hbond:HIS:51>  (183) 
0

>  <hbond:ASP:129>  (183) 
0

>  <hbond:TYR:150>  (183) 
0

>  <hbond:GLY:151>  (183) 
0

>  <hbond:TYR:161>  (183) 
0

>  <hydroph_interaction:TYR:130>  (183) 
0

>  <hydroph_interaction:PRO:131>  (183) 
0

>  <hydroph_interaction:ASP:129>  (183) 
0

>  <saltbridge:ASP:75>  (183) 
0

>  <saltbridge:ASP:83>  (183) 
0

>  <hbond:ASN:152>  (183) 
0

>  <hydroph_interaction:ASN:152>  (183) 
0

>  <halogenbond:TYR:150>  (183) 
0

>  <hbond:ASP:83>  (183) 
0

>  <hydroph_interaction:VAL:155>  (183) 
0

>  <pication:TYR:161>  (183) 
0

>  <hbond:PRO:131>  (183) 
0

>  <saltbridge:ASP:129>  (183) 
0

>  <hbond:THR:134>  (183) 
0

>  <pication:HIS:51>  (183) 
0

>  <hbond:SER:81>  (183) 
0

>  <hydroph_interaction:THR:134>  (183) 
0

>  <hydroph_interaction:MET:49>  (183) 
0

$$$$
Z3789025640
     RDKit          3D

 26 27  0  0  0  0  0  0  0  0999 V2000
   -5.8880    5.2460  -15.1060 N   0  0  0  0  0  0  0  0  0  0  0  0
   -5.4840    6.0740  -16.1090 C   0  0  0  0  0  0  0  0  0  0  0  0
   -4.7020    6.9840  -15.8330 O   0  0  0  0  0  0  0  0  0  0  0  0
   -5.9910    5.8200  -17.3750 N   0  0  0  0  0  0  0  0  0  0  0  0
   -4.9630    5.4100  -18.3410 C   0  0  0  0  0  0  0  0  0  0  0  0
   -5.3340    5.5590  -19.8110 C   0  0  0  0  0  0  0  0  0  0  0  0
   -6.8400    5.4250  -20.0600 C   0  0  0  0  0  0  0  0  0  0  0  0
   -7.7800    5.2540  -18.9180 C   0  0  0  0  0  0  0  0  0  0  0  0
   -9.2200    4.8640  -19.2200 C   0  0  0  0  0  0  0  0  0  0  0  0
  -10.0410    4.7490  -17.9600 C   0  0  0  0  0  0  0  0  0  0  0  0
   -9.4790    4.9850  -16.7140 C   0  0  0  0  0  0  0  0  0  0  0  0
  -10.2380    4.8810  -15.6100 O   0  0  0  0  0  0  0  0  0  0  0  0
   -8.1770    5.3240  -16.5450 C   0  0  0  0  0  0  0  0  0  0  0  0
   -7.3100    5.4650  -17.6110 C   0  0  0  0  0  0  0  0  0  0  0  0
   -6.6770    5.6180  -14.5930 H   0  0  0  0  0  0  0  0  0  0  0  0
   -5.1430    4.8880  -14.5260 H   0  0  0  0  0  0  0  0  0  0  0  0
   -4.6560    4.3950  -18.0940 H   0  0  0  0  0  0  0  0  0  0  0  0
   -4.0940    6.0430  -18.1430 H   0  0  0  0  0  0  0  0  0  0  0  0
   -5.0020    6.5320  -20.1840 H   0  0  0  0  0  0  0  0  0  0  0  0
   -4.8070    4.8050  -20.4000 H   0  0  0  0  0  0  0  0  0  0  0  0
   -7.0160    4.6490  -20.8160 H   0  0  0  0  0  0  0  0  0  0  0  0
   -7.0880    6.3900  -20.5040 H   0  0  0  0  0  0  0  0  0  0  0  0
   -9.6090    4.6950  -20.2200 H   0  0  0  0  0  0  0  0  0  0  0  0
  -11.0910    4.4800  -18.0300 H   0  0  0  0  0  0  0  0  0  0  0  0
  -10.1570    3.9700  -15.2940 H   0  0  0  0  0  0  0  0  0  0  0  0
   -7.8340    5.4850  -15.5290 H   0  0  0  0  0  0  0  0  0  0  0  0
  1  2  1  0
  2  3  2  0
  2  4  1  0
  4  5  1  0
  5  6  1  0
  6  7  1  0
  7  8  1  0
  8  9  2  0
  9 10  1  0
 10 11  2  0
 11 12  1  0
 11 13  1  0
 13 14  2  0
 14  4  1  0
 14  8  1  0
  1 15  1  0
  1 16  1  0
  5 17  1  0
  5 18  1  0
  6 19  1  0
  6 20  1  0
  7 21  1  0
  7 22  1  0
  9 23  1  0
 10 24  1  0
 12 25  1  0
 13 26  1  0
A    1
 N1 
A    2
 C1 
A    3
 O1 
A    4
 N2 
A    5
 C2 
A    6
 C3 
A    7
 C4 
A    8
 C5 
A    9
 C6 
A   10
 C7 
A   11
 C8 
A   12
 O2 
A   13
 C9 
A   14
 C10
A   15
 H1 
A   16
 H2 
A   17
 H3 
A   18
 H4 
A   19
 H5 
A   20
 H6 
A   21
 H7 
A   22
 H8 
A   23
 H9 
A   24
 H10
A   25
 H11
A   26
 H12
M  END
>  <ref_pdb>  (184) 
x0051_0B

>  <ref_mols>  (184) 
x0443_0B,x0455_0B

>  <original SMILES>  (184) 
[H]Oc1c([H])c([H])c2c(c1[H])N(C(=O)N([H])[H])C([H])([H])C([H])([H])C2([H])[H]

>  <index>  (184) 
1255

>  <∆∆G>  (184) 
-5.530557

>  <∆G_bound>  (184) 
-4.951582

>  <∆G_unbound>  (184) 
0.578975

>  <comRMSD>  (184) 
0.664512

>  <N_constrained_atoms>  (184) 
13.0

>  <N_unconstrained_atoms>  (184) 
2.0

>  <runtime>  (184) 
18.215653

>  <LE>  (184) 
0.368704

>  <percent_hybrid>  (184) 
40.0

>  <dist>  (184) 
4.0

>  <ecfp4>  (184) 
0.240741

>  <daylight>  (184) 
0.538462

>  <topodist>  (184) 
2.0

>  <mces>  (184) 
14.0

>  <tdn>  (184) 
0.0

>  <tup>  (184) 
1.0

>  <rdn>  (184) 
1.0

>  <rup>  (184) 
0.0

>  <ldn>  (184) 
0.0

>  <lup>  (184) 
0.0

>  <mut>  (184) 
1.0

>  <maj>  (184) 
1.0

>  <min>  (184) 
0.0

>  <hyb>  (184) 
1.0

>  <sub>  (184) 
2.0

>  <query_index>  (184) 
244.0

>  <max_hit_Tanimoto>  (184) 
0.292047

>  <largest_ring>  (184) 
6

>  <N_interactions_kept>  (184) 
0.0

>  <N_interactions_lost>  (184) 
3.0

>  <interaction_uniqueness_metric>  (184) 
0.131994

>  <ad_hoc_penalty>  (184) 
-3.524155

>  <N_rotatable_bonds>  (184) 
1

>  <N_HA>  (184) 
14

>  <cluster>  (184) 
5062

>  <N_interactions>  (184) 
6

>  <Enamine>  (184) 
1

>  <Mcule>  (184) 
0

>  <N_PAINS>  (184) 
0

>  <UFF_Gibbs>  (184) 
204.392231

>  <strain_per_HA>  (184) 
14.599445

>  <intxn_scored>  (184) 
9.5

>  <saltbridge:HIS:51>  (184) 
0

>  <pistack:HIS:51>  (184) 
0

>  <hydroph_interaction:HIS:51>  (184) 
0

>  <hbond:ALA:132>  (184) 
0

>  <hbond:SER:135>  (184) 
1

>  <hydroph_interaction:TYR:150>  (184) 
1

>  <pistack:TYR:161>  (184) 
1

>  <hydroph_interaction:TYR:161>  (184) 
2

>  <hydroph_interaction:ASP:83>  (184) 
0

>  <hbond:TYR:130>  (184) 
0

>  <hydroph_interaction:ALA:132>  (184) 
0

>  <hbond:HIS:51>  (184) 
0

>  <hbond:ASP:129>  (184) 
0

>  <hbond:TYR:150>  (184) 
0

>  <hbond:GLY:151>  (184) 
0

>  <hbond:TYR:161>  (184) 
1

>  <hydroph_interaction:TYR:130>  (184) 
0

>  <hydroph_interaction:PRO:131>  (184) 
0

>  <hydroph_interaction:ASP:129>  (184) 
0

>  <saltbridge:ASP:75>  (184) 
0

>  <saltbridge:ASP:83>  (184) 
0

>  <hbond:ASN:152>  (184) 
0

>  <hydroph_interaction:ASN:152>  (184) 
0

>  <halogenbond:TYR:150>  (184) 
0

>  <hbond:ASP:83>  (184) 
0

>  <hydroph_interaction:VAL:155>  (184) 
0

>  <pication:TYR:161>  (184) 
0

>  <hbond:PRO:131>  (184) 
0

>  <saltbridge:ASP:129>  (184) 
0

>  <hbond:THR:134>  (184) 
0

>  <pication:HIS:51>  (184) 
0

>  <hbond:SER:81>  (184) 
0

>  <hydroph_interaction:THR:134>  (184) 
0

>  <hydroph_interaction:MET:49>  (184) 
0

$$$$
CSCS00032303006
     RDKit          3D

 26 27  0  0  0  0  0  0  0  0999 V2000
   -2.4690    5.4360  -21.9570 C   0  0  0  0  0  0  0  0  0  0  0  0
   -3.8400    5.4230  -21.3450 C   0  0  0  0  0  0  0  0  0  0  0  0
   -4.9160    5.3480  -22.1890 C   0  0  0  0  0  0  0  0  0  0  0  0
   -3.9390    5.4790  -20.0020 C   0  0  0  0  0  0  0  0  0  0  0  0
   -5.1560    5.4450  -19.2580 C   0  0  0  0  0  0  0  0  0  0  0  0
   -6.3050    5.2020  -19.7440 N   0  0  0  0  0  0  0  0  0  0  0  0
   -7.3420    5.1370  -18.8790 C   0  0  0  0  0  0  0  0  0  0  0  0
   -8.6370    4.8550  -19.3970 C   0  0  0  0  0  0  0  0  0  0  0  0
   -9.7300    4.7560  -18.5490 C   0  0  0  0  0  0  0  0  0  0  0  0
   -9.5420    4.9400  -17.1870 C   0  0  0  0  0  0  0  0  0  0  0  0
   -8.2960    5.2170  -16.6750 C   0  0  0  0  0  0  0  0  0  0  0  0
   -8.2000    5.3810  -15.3510 F   0  0  0  0  0  0  0  0  0  0  0  0
   -7.1830    5.3150  -17.5160 C   0  0  0  0  0  0  0  0  0  0  0  0
   -5.8730    5.5790  -17.0430 C   0  0  0  0  0  0  0  0  0  0  0  0
   -5.6230    5.7090  -15.8470 O   0  0  0  0  0  0  0  0  0  0  0  0
   -4.8810    5.6790  -17.9610 O   0  0  0  0  0  0  0  0  0  0  0  0
   -1.8370    6.1900  -21.4760 H   0  0  0  0  0  0  0  0  0  0  0  0
   -1.9720    4.4630  -21.8330 H   0  0  0  0  0  0  0  0  0  0  0  0
   -2.5330    5.6340  -23.0310 H   0  0  0  0  0  0  0  0  0  0  0  0
   -4.7760    5.6650  -23.2190 H   0  0  0  0  0  0  0  0  0  0  0  0
   -5.7240    5.9720  -21.7840 H   0  0  0  0  0  0  0  0  0  0  0  0
   -5.3140    4.3330  -22.2500 H   0  0  0  0  0  0  0  0  0  0  0  0
   -3.0480    5.5400  -19.3850 H   0  0  0  0  0  0  0  0  0  0  0  0
   -8.7660    4.7090  -20.4680 H   0  0  0  0  0  0  0  0  0  0  0  0
  -10.7150    4.5400  -18.9320 H   0  0  0  0  0  0  0  0  0  0  0  0
  -10.3760    4.8650  -16.5020 H   0  0  0  0  0  0  0  0  0  0  0  0
  1  2  1  0
  2  3  1  0
  2  4  2  3
  4  5  1  0
  5  6  2  0
  6  7  1  0
  7  8  2  0
  8  9  1  0
  9 10  2  0
 10 11  1  0
 11 12  1  0
 11 13  2  0
 13 14  1  0
 14 15  2  0
 14 16  1  0
 16  5  1  0
 13  7  1  0
  1 17  1  0
  1 18  1  0
  1 19  1  0
  3 20  1  0
  3 21  1  0
  3 22  1  0
  4 23  1  0
  8 24  1  0
  9 25  1  0
 10 26  1  0
A    1
 C1 
A    2
 C2 
A    3
 C3 
A    4
 C4 
A    5
 C5 
A    6
 N1 
A    7
 C6 
A    8
 C7 
A    9
 C8 
A   10
 C9 
A   11
 C10
A   12
 F1 
A   13
 C11
A   14
 C12
A   15
 O1 
A   16
 O2 
A   17
 H1 
A   18
 H2 
A   19
 H3 
A   20
 H4 
A   21
 H5 
A   22
 H6 
A   23
 H7 
A   24
 H8 
A   25
 H9 
A   26
 H10
M  END
>  <ref_pdb>  (185) 
x0051_0B

>  <ref_mols>  (185) 
x0904_0B,x0727_0B

>  <original SMILES>  (185) 
[H]C(=C(C([H])([H])[H])C([H])([H])[H])c1nc2c([H])c([H])c([H])c(F)c2c(=O)o1

>  <index>  (185) 
3532

>  <∆∆G>  (185) 
-6.194834

>  <∆G_bound>  (185) 
-6.03369

>  <∆G_unbound>  (185) 
0.161144

>  <comRMSD>  (185) 
0.708016

>  <N_constrained_atoms>  (185) 
17.0

>  <N_unconstrained_atoms>  (185) 
0.0

>  <runtime>  (185) 
26.847306

>  <LE>  (185) 
0.364402

>  <percent_hybrid>  (185) 
34.0

>  <dist>  (185) 
8.0

>  <ecfp4>  (185) 
0.208955

>  <daylight>  (185) 
0.183406

>  <topodist>  (185) 
3.0

>  <mces>  (185) 
17.0

>  <tdn>  (185) 
2.0

>  <tup>  (185) 
0.0

>  <rdn>  (185) 
0.0

>  <rup>  (185) 
0.0

>  <ldn>  (185) 
1.0

>  <lup>  (185) 
0.0

>  <mut>  (185) 
4.0

>  <maj>  (185) 
4.0

>  <min>  (185) 
0.0

>  <hyb>  (185) 
1.0

>  <sub>  (185) 
0.0

>  <query_index>  (185) 
35.0

>  <max_hit_Tanimoto>  (185) 
0.152174

>  <largest_ring>  (185) 
6

>  <N_interactions_kept>  (185) 
0.5

>  <N_interactions_lost>  (185) 
3.5

>  <interaction_uniqueness_metric>  (185) 
0.080146

>  <ad_hoc_penalty>  (185) 
-2.665668

>  <N_rotatable_bonds>  (185) 
3

>  <N_HA>  (185) 
16

>  <cluster>  (185) 
2941

>  <N_interactions>  (185) 
5

>  <Enamine>  (185) 
1

>  <Mcule>  (185) 
0

>  <N_PAINS>  (185) 
0

>  <UFF_Gibbs>  (185) 
33.182931

>  <strain_per_HA>  (185) 
2.073933

>  <intxn_scored>  (185) 
9.5

>  <saltbridge:HIS:51>  (185) 
0

>  <pistack:HIS:51>  (185) 
0

>  <hydroph_interaction:HIS:51>  (185) 
0

>  <hbond:ALA:132>  (185) 
0

>  <hbond:SER:135>  (185) 
0

>  <hydroph_interaction:TYR:150>  (185) 
1

>  <pistack:TYR:161>  (185) 
2

>  <hydroph_interaction:TYR:161>  (185) 
1

>  <hydroph_interaction:ASP:83>  (185) 
0

>  <hbond:TYR:130>  (185) 
0

>  <hydroph_interaction:ALA:132>  (185) 
0

>  <hbond:HIS:51>  (185) 
0

>  <hbond:ASP:129>  (185) 
0

>  <hbond:TYR:150>  (185) 
0

>  <hbond:GLY:151>  (185) 
0

>  <hbond:TYR:161>  (185) 
0

>  <hydroph_interaction:TYR:130>  (185) 
0

>  <hydroph_interaction:PRO:131>  (185) 
0

>  <hydroph_interaction:ASP:129>  (185) 
1

>  <saltbridge:ASP:75>  (185) 
0

>  <saltbridge:ASP:83>  (185) 
0

>  <hbond:ASN:152>  (185) 
0

>  <hydroph_interaction:ASN:152>  (185) 
0

>  <halogenbond:TYR:150>  (185) 
0

>  <hbond:ASP:83>  (185) 
0

>  <hydroph_interaction:VAL:155>  (185) 
0

>  <pication:TYR:161>  (185) 
0

>  <hbond:PRO:131>  (185) 
0

>  <saltbridge:ASP:129>  (185) 
0

>  <hbond:THR:134>  (185) 
0

>  <pication:HIS:51>  (185) 
0

>  <hbond:SER:81>  (185) 
0

>  <hydroph_interaction:THR:134>  (185) 
0

>  <hydroph_interaction:MET:49>  (185) 
0

$$$$
PV-006278820633
     RDKit          3D

 53 56  0  0  0  0  0  0  0  0999 V2000
   -3.2680    4.5830  -15.3290 C   0  0  0  0  0  0  0  0  0  0  0  0
   -2.8090    5.3900  -16.5220 C   0  0  0  0  0  0  0  0  0  0  0  0
   -3.8240    5.4000  -17.6440 C   0  0  0  0  0  0  0  0  0  0  0  0
   -3.4500    5.1090  -18.7830 O   0  0  0  0  0  0  0  0  0  0  0  0
   -5.1450    5.7310  -17.3840 N   0  0  0  0  0  0  0  0  0  0  0  0
   -6.1540    5.7310  -18.4160 C   0  0  0  0  0  0  0  0  0  0  0  0
   -7.4950    5.3530  -17.8970 C   0  0  0  0  0  0  0  0  0  0  0  0
   -8.4720    5.0350  -18.8370 C   0  0  0  0  0  0  0  0  0  0  0  0
   -9.7260    4.6830  -18.4170 C   0  0  0  0  0  0  0  0  0  0  0  0
  -10.0010    4.6470  -17.0800 C   0  0  0  0  0  0  0  0  0  0  0  0
   -9.0670    4.9550  -16.1310 C   0  0  0  0  0  0  0  0  0  0  0  0
   -7.7890    5.3130  -16.5130 C   0  0  0  0  0  0  0  0  0  0  0  0
   -6.7530    5.6440  -15.4530 C   0  0  0  0  0  0  0  0  0  0  0  0
   -7.3430    6.3920  -14.3140 N   0  0  0  0  0  0  0  0  0  0  0  0
   -7.3070    5.9390  -12.9840 C   0  0  0  0  0  0  0  0  0  0  0  0
   -6.2520    5.8360  -12.3600 O   0  0  0  0  0  0  0  0  0  0  0  0
   -8.6650    5.5840  -12.3430 C   0  0  0  0  0  0  0  0  0  0  0  0
   -8.7290    5.5400  -10.8240 C   0  0  0  0  0  0  0  0  0  0  0  0
   -8.8970    4.4400   -9.9920 C   0  0  0  0  0  0  0  0  0  0  0  0
   -9.0600    2.9870  -10.2570 C   0  0  0  0  0  0  0  0  0  0  0  0
   -8.6400    2.2160   -9.0210 C   0  0  0  0  0  0  0  0  0  0  0  0
   -9.4400    2.6740   -7.8140 C   0  0  0  0  0  0  0  0  0  0  0  0
   -9.0600    4.1130   -7.4870 C   0  0  0  0  0  0  0  0  0  0  0  0
   -8.9010    4.9140   -8.6980 N   0  0  0  0  0  0  0  0  0  0  0  0
   -8.7420    6.2390   -8.6230 N   0  0  0  0  0  0  0  0  0  0  0  0
   -8.6400    6.6220   -9.9040 C   0  0  0  0  0  0  0  0  0  0  0  0
   -5.5470    6.3610  -16.1080 C   0  0  0  0  0  0  0  0  0  0  0  0
   -2.8610    3.5700  -15.3770 H   0  0  0  0  0  0  0  0  0  0  0  0
   -2.9230    5.0400  -14.3970 H   0  0  0  0  0  0  0  0  0  0  0  0
   -4.3560    4.5130  -15.2770 H   0  0  0  0  0  0  0  0  0  0  0  0
   -1.8910    4.9480  -16.9240 H   0  0  0  0  0  0  0  0  0  0  0  0
   -2.5360    6.4110  -16.2370 H   0  0  0  0  0  0  0  0  0  0  0  0
   -5.8490    4.9970  -19.1760 H   0  0  0  0  0  0  0  0  0  0  0  0
   -6.2200    6.7150  -18.8860 H   0  0  0  0  0  0  0  0  0  0  0  0
   -8.2550    5.0620  -19.9040 H   0  0  0  0  0  0  0  0  0  0  0  0
  -10.4890    4.4370  -19.1260 H   0  0  0  0  0  0  0  0  0  0  0  0
  -10.9710    4.3630  -16.7700 H   0  0  0  0  0  0  0  0  0  0  0  0
   -9.3480    4.9070  -15.0790 H   0  0  0  0  0  0  0  0  0  0  0  0
   -6.3980    4.6760  -15.0690 H   0  0  0  0  0  0  0  0  0  0  0  0
   -7.9290    7.1870  -14.5360 H   0  0  0  0  0  0  0  0  0  0  0  0
   -9.3960    6.3050  -12.7240 H   0  0  0  0  0  0  0  0  0  0  0  0
   -8.9690    4.6030  -12.7270 H   0  0  0  0  0  0  0  0  0  0  0  0
   -8.4320    2.7000  -11.1100 H   0  0  0  0  0  0  0  0  0  0  0  0
  -10.0980    2.7450  -10.5090 H   0  0  0  0  0  0  0  0  0  0  0  0
   -7.5730    2.3870   -8.8320 H   0  0  0  0  0  0  0  0  0  0  0  0
   -8.7700    1.1560   -9.1800 H   0  0  0  0  0  0  0  0  0  0  0  0
   -9.2370    2.0260   -6.9590 H   0  0  0  0  0  0  0  0  0  0  0  0
  -10.5110    2.6030   -8.0350 H   0  0  0  0  0  0  0  0  0  0  0  0
   -8.1200    4.1440   -6.9270 H   0  0  0  0  0  0  0  0  0  0  0  0
   -9.8460    4.5920   -6.8940 H   0  0  0  0  0  0  0  0  0  0  0  0
   -8.5060    7.6740  -10.1190 H   0  0  0  0  0  0  0  0  0  0  0  0
   -5.7940    7.4190  -16.2500 H   0  0  0  0  0  0  0  0  0  0  0  0
   -4.6700    6.3350  -15.4480 H   0  0  0  0  0  0  0  0  0  0  0  0
  1  2  1  0
  2  3  1  0
  3  4  2  0
  3  5  1  0
  5  6  1  0
  6  7  1  0
  7  8  2  0
  8  9  1  0
  9 10  2  0
 10 11  1  0
 11 12  2  0
 12 13  1  0
 13 14  1  0
 14 15  1  0
 15 16  2  0
 15 17  1  0
 17 18  1  0
 18 19  2  0
 19 20  1  0
 20 21  1  0
 21 22  1  0
 22 23  1  0
 23 24  1  0
 24 25  1  0
 25 26  2  0
 13 27  1  0
 27  5  1  0
 12  7  1  0
 26 18  1  0
 24 19  1  0
  1 28  1  0
  1 29  1  0
  1 30  1  0
  2 31  1  0
  2 32  1  0
  6 33  1  0
  6 34  1  0
  8 35  1  0
  9 36  1  0
 10 37  1  0
 11 38  1  0
 13 39  1  0
 14 40  1  0
 17 41  1  0
 17 42  1  0
 20 43  1  0
 20 44  1  0
 21 45  1  0
 21 46  1  0
 22 47  1  0
 22 48  1  0
 23 49  1  0
 23 50  1  0
 26 51  1  0
 27 52  1  0
 27 53  1  0
A    1
 C1 
A    2
 C2 
A    3
 C3 
A    4
 O1 
A    5
 N1 
A    6
 C4 
A    7
 C5 
A    8
 C6 
A    9
 C7 
A   10
 C8 
A   11
 C9 
A   12
 C10
A   13
 C11
A   14
 N2 
A   15
 C12
A   16
 O2 
A   17
 C13
A   18
 C14
A   19
 C15
A   20
 C16
A   21
 C17
A   22
 C18
A   23
 C19
A   24
 N3 
A   25
 N4 
A   26
 C20
A   27
 C21
A   28
 H1 
A   29
 H2 
A   30
 H3 
A   31
 H4 
A   32
 H5 
A   33
 H6 
A   34
 H7 
A   35
 H8 
A   36
 H9 
A   37
 H10
A   38
 H11
A   39
 H12
A   40
 H13
A   41
 H14
A   42
 H15
A   43
 H16
A   44
 H17
A   45
 H18
A   46
 H19
A   47
 H20
A   48
 H21
A   49
 H22
A   50
 H23
A   51
 H24
A   52
 H25
A   53
 H26
M  END
>  <ref_pdb>  (186) 
x0051_0B

>  <ref_mols>  (186) 
x0472_0B,x0969_1B

>  <original SMILES>  (186) 
[H]c1nn2c(c1C([H])([H])C(=O)N([H])C1([H])c3c([H])c([H])c([H])c([H])c3C([H])([H])N(C(=O)C([H])([H])C([H])([H])[H])C1([H])[H])C([H])([H])C([H])([H])C([H])([H])C2([H])[H]

>  <index>  (186) 
15

>  <∆∆G>  (186) 
-9.743874

>  <∆G_bound>  (186) 
-8.5687

>  <∆G_unbound>  (186) 
1.175174

>  <comRMSD>  (186) 
0.437445

>  <N_constrained_atoms>  (186) 
23.0

>  <N_unconstrained_atoms>  (186) 
4.0

>  <runtime>  (186) 
58.316122

>  <LE>  (186) 
0.360884

>  <percent_hybrid>  (186) 
44.0

>  <dist>  (186) 
9.0

>  <ecfp4>  (186) 
0.19

>  <daylight>  (186) 
0.326648

>  <topodist>  (186) 
2.0

>  <mces>  (186) 
28.0

>  <tdn>  (186) 
0.0

>  <tup>  (186) 
1.0

>  <rdn>  (186) 
0.0

>  <rup>  (186) 
0.0

>  <ldn>  (186) 
0.0

>  <lup>  (186) 
1.0

>  <mut>  (186) 
5.0

>  <maj>  (186) 
5.0

>  <min>  (186) 
0.0

>  <hyb>  (186) 
2.0

>  <sub>  (186) 
0.0

>  <query_index>  (186) 
24.0

>  <max_hit_Tanimoto>  (186) 
0.307823

>  <largest_ring>  (186) 
0

>  <N_interactions_kept>  (186) 
2.5

>  <N_interactions_lost>  (186) 
1.0

>  <interaction_uniqueness_metric>  (186) 
0.187687

>  <ad_hoc_penalty>  (186) 
-43.709784

>  <N_rotatable_bonds>  (186) 
5

>  <N_HA>  (186) 
27

>  <cluster>  (186) 
6202

>  <N_interactions>  (186) 
7

>  <Enamine>  (186) 
1

>  <Mcule>  (186) 
0

>  <N_PAINS>  (186) 
0

>  <UFF_Gibbs>  (186) 
58.951797

>  <strain_per_HA>  (186) 
2.1834

>  <intxn_scored>  (186) 
9.5

>  <saltbridge:HIS:51>  (186) 
0

>  <pistack:HIS:51>  (186) 
1

>  <hydroph_interaction:HIS:51>  (186) 
0

>  <hbond:ALA:132>  (186) 
0

>  <hbond:SER:135>  (186) 
0

>  <hydroph_interaction:TYR:150>  (186) 
1

>  <pistack:TYR:161>  (186) 
1

>  <hydroph_interaction:TYR:161>  (186) 
2

>  <hydroph_interaction:ASP:83>  (186) 
1

>  <hbond:TYR:130>  (186) 
0

>  <hydroph_interaction:ALA:132>  (186) 
0

>  <hbond:HIS:51>  (186) 
0

>  <hbond:ASP:129>  (186) 
0

>  <hbond:TYR:150>  (186) 
0

>  <hbond:GLY:151>  (186) 
0

>  <hbond:TYR:161>  (186) 
0

>  <hydroph_interaction:TYR:130>  (186) 
0

>  <hydroph_interaction:PRO:131>  (186) 
0

>  <hydroph_interaction:ASP:129>  (186) 
0

>  <saltbridge:ASP:75>  (186) 
0

>  <saltbridge:ASP:83>  (186) 
0

>  <hbond:ASN:152>  (186) 
0

>  <hydroph_interaction:ASN:152>  (186) 
0

>  <halogenbond:TYR:150>  (186) 
0

>  <hbond:ASP:83>  (186) 
0

>  <hydroph_interaction:VAL:155>  (186) 
1

>  <pication:TYR:161>  (186) 
0

>  <hbond:PRO:131>  (186) 
0

>  <saltbridge:ASP:129>  (186) 
0

>  <hbond:THR:134>  (186) 
0

>  <pication:HIS:51>  (186) 
0

>  <hbond:SER:81>  (186) 
0

>  <hydroph_interaction:THR:134>  (186) 
0

>  <hydroph_interaction:MET:49>  (186) 
0

$$$$
Z27666324
     RDKit          3D

 46 50  0  0  0  0  0  0  0  0999 V2000
   -6.7280   11.4890  -24.1070 O   0  0  0  0  0  0  0  0  0  0  0  0
   -6.3280   10.4280  -24.5760 C   0  0  0  0  0  0  0  0  0  0  0  0
   -6.2700   10.1180  -25.9390 N   0  0  0  0  0  0  0  0  0  0  0  0
   -7.3280    9.5280  -26.6070 C   0  0  0  0  0  0  0  0  0  0  0  0
   -7.4210    8.1290  -27.0220 N   0  0  0  0  0  0  0  0  0  0  0  0
   -8.6690    8.0570  -27.5900 C   0  0  0  0  0  0  0  0  0  0  0  0
   -9.3210    6.9650  -28.1440 C   0  0  0  0  0  0  0  0  0  0  0  0
  -10.5990    7.1140  -28.6490 C   0  0  0  0  0  0  0  0  0  0  0  0
  -11.2490    8.4450  -28.5950 C   0  0  0  0  0  0  0  0  0  0  0  0
  -10.5830    9.4870  -28.0580 C   0  0  0  0  0  0  0  0  0  0  0  0
   -9.3360    9.2990  -27.5700 C   0  0  0  0  0  0  0  0  0  0  0  0
   -8.4720   10.1880  -26.9690 N   0  0  0  0  0  0  0  0  0  0  0  0
   -5.8650    9.3560  -23.6440 C   0  0  0  0  0  0  0  0  0  0  0  0
   -6.1840    8.0210  -23.8580 C   0  0  0  0  0  0  0  0  0  0  0  0
   -5.7200    7.0370  -22.9790 C   0  0  0  0  0  0  0  0  0  0  0  0
   -4.9260    7.3550  -21.8640 C   0  0  0  0  0  0  0  0  0  0  0  0
   -4.4420    6.2090  -20.9800 C   0  0  0  0  0  0  0  0  0  0  0  0
   -3.7030    5.1940  -21.5090 O   0  0  0  0  0  0  0  0  0  0  0  0
   -4.7540    6.2510  -19.6420 N   0  0  0  0  0  0  0  0  0  0  0  0
   -5.9660    5.8620  -19.1290 C   0  0  0  0  0  0  0  0  0  0  0  0
   -6.1920    5.7540  -17.8470 N   0  0  0  0  0  0  0  0  0  0  0  0
   -7.5000    5.3800  -17.7670 C   0  0  0  0  0  0  0  0  0  0  0  0
   -8.2800    5.1370  -16.6540 C   0  0  0  0  0  0  0  0  0  0  0  0
   -9.5680    4.7860  -16.8190 C   0  0  0  0  0  0  0  0  0  0  0  0
  -10.1390    4.6530  -18.1560 C   0  0  0  0  0  0  0  0  0  0  0  0
   -9.3920    4.8780  -19.2430 C   0  0  0  0  0  0  0  0  0  0  0  0
   -8.0510    5.2510  -19.0340 C   0  0  0  0  0  0  0  0  0  0  0  0
   -7.0810    5.5490  -19.8760 N   0  0  0  0  0  0  0  0  0  0  0  0
   -4.6150    8.7100  -21.6400 C   0  0  0  0  0  0  0  0  0  0  0  0
   -5.0800    9.7030  -22.5220 C   0  0  0  0  0  0  0  0  0  0  0  0
   -5.6640   10.6690  -26.5400 H   0  0  0  0  0  0  0  0  0  0  0  0
   -8.8120    6.0080  -28.1650 H   0  0  0  0  0  0  0  0  0  0  0  0
  -11.1430    6.2800  -29.0840 H   0  0  0  0  0  0  0  0  0  0  0  0
  -12.2540    8.5590  -28.9910 H   0  0  0  0  0  0  0  0  0  0  0  0
  -11.0480   10.4620  -28.0150 H   0  0  0  0  0  0  0  0  0  0  0  0
   -8.6610   11.1620  -26.8090 H   0  0  0  0  0  0  0  0  0  0  0  0
   -6.7950    7.7430  -24.7160 H   0  0  0  0  0  0  0  0  0  0  0  0
   -5.9930    6.0110  -23.1900 H   0  0  0  0  0  0  0  0  0  0  0  0
   -4.0910    6.5520  -18.9430 H   0  0  0  0  0  0  0  0  0  0  0  0
   -7.8500    5.2360  -15.6630 H   0  0  0  0  0  0  0  0  0  0  0  0
  -10.1860    4.6000  -15.9450 H   0  0  0  0  0  0  0  0  0  0  0  0
  -11.1810    4.3700  -18.2740 H   0  0  0  0  0  0  0  0  0  0  0  0
   -9.7990    4.7850  -20.2410 H   0  0  0  0  0  0  0  0  0  0  0  0
   -7.1190    5.5660  -20.8910 H   0  0  0  0  0  0  0  0  0  0  0  0
   -4.0080    9.0170  -20.7930 H   0  0  0  0  0  0  0  0  0  0  0  0
   -4.8250   10.7470  -22.3410 H   0  0  0  0  0  0  0  0  0  0  0  0
  1  2  2  0
  2  3  1  0
  3  4  1  0
  4  5  2  0
  5  6  1  0
  6  7  2  0
  7  8  1  0
  8  9  2  0
  9 10  1  0
 10 11  2  0
 11 12  1  0
  2 13  1  0
 13 14  2  0
 14 15  1  0
 15 16  2  0
 16 17  1  0
 17 18  2  0
 17 19  1  0
 19 20  1  0
 20 21  2  0
 21 22  1  0
 22 23  2  0
 23 24  1  0
 24 25  2  0
 25 26  1  0
 26 27  2  0
 27 28  1  0
 16 29  1  0
 29 30  2  0
 12  4  1  0
 11  6  1  0
 30 13  1  0
 28 20  1  0
 27 22  1  0
  3 31  1  0
  7 32  1  0
  8 33  1  0
  9 34  1  0
 10 35  1  0
 12 36  1  0
 14 37  1  0
 15 38  1  0
 19 39  1  0
 23 40  1  0
 24 41  1  0
 25 42  1  0
 26 43  1  0
 28 44  1  0
 29 45  1  0
 30 46  1  0
A    1
 O1 
A    2
 C1 
A    3
 N1 
A    4
 C2 
A    5
 N2 
A    6
 C3 
A    7
 C4 
A    8
 C5 
A    9
 C6 
A   10
 C7 
A   11
 C8 
A   12
 N3 
A   13
 C9 
A   14
 C10
A   15
 C11
A   16
 C12
A   17
 C13
A   18
 O2 
A   19
 N4 
A   20
 C14
A   21
 N5 
A   22
 C15
A   23
 C16
A   24
 C17
A   25
 C18
A   26
 C19
A   27
 C20
A   28
 N6 
A   29
 C21
A   30
 C22
A   31
 H1 
A   32
 H2 
A   33
 H3 
A   34
 H4 
A   35
 H5 
A   36
 H6 
A   37
 H7 
A   38
 H8 
A   39
 H9 
A   40
 H10
A   41
 H11
A   42
 H12
A   43
 H13
A   44
 H14
A   45
 H15
A   46
 H16
M  END
>  <ref_pdb>  (187) 
x0051_0B

>  <ref_mols>  (187) 
x0846_1B,x0490_0B

>  <original SMILES>  (187) 
[H]c1c([H])c(C(=O)N([H])c2nc3c([H])c([H])c([H])c([H])c3n2[H])c([H])c([H])c1C(=O)N([H])c1nc2c([H])c([H])c([H])c([H])c2n1[H]

>  <index>  (187) 
426

>  <∆∆G>  (187) 
-8.768263

>  <∆G_bound>  (187) 
-7.721695

>  <∆G_unbound>  (187) 
1.046569

>  <comRMSD>  (187) 
0.379557

>  <N_constrained_atoms>  (187) 
27.0

>  <N_unconstrained_atoms>  (187) 
4.0

>  <runtime>  (187) 
78.929773

>  <LE>  (187) 
0.282847

>  <percent_hybrid>  (187) 
34.0

>  <dist>  (187) 
8.0

>  <ecfp4>  (187) 
0.279412

>  <daylight>  (187) 
0.428571

>  <topodist>  (187) 
5.0

>  <mces>  (187) 
32.0

>  <tdn>  (187) 
3.0

>  <tup>  (187) 
2.0

>  <rdn>  (187) 
0.0

>  <rup>  (187) 
0.0

>  <ldn>  (187) 
0.0

>  <lup>  (187) 
0.0

>  <mut>  (187) 
2.0

>  <maj>  (187) 
2.0

>  <min>  (187) 
0.0

>  <hyb>  (187) 
1.0

>  <sub>  (187) 
2.0

>  <query_index>  (187) 
51.0

>  <max_hit_Tanimoto>  (187) 
0.648221

>  <largest_ring>  (187) 
0

>  <N_interactions_kept>  (187) 
0.5

>  <N_interactions_lost>  (187) 
2.5

>  <interaction_uniqueness_metric>  (187) 
0.17823

>  <ad_hoc_penalty>  (187) 
-24.342967

>  <N_rotatable_bonds>  (187) 
4

>  <N_HA>  (187) 
30

>  <cluster>  (187) 
5832

>  <N_interactions>  (187) 
6

>  <Enamine>  (187) 
1

>  <Mcule>  (187) 
0

>  <N_PAINS>  (187) 
0

>  <UFF_Gibbs>  (187) 
77.239153

>  <strain_per_HA>  (187) 
2.574638

>  <intxn_scored>  (187) 
9.5

>  <saltbridge:HIS:51>  (187) 
0

>  <pistack:HIS:51>  (187) 
0

>  <hydroph_interaction:HIS:51>  (187) 
0

>  <hbond:ALA:132>  (187) 
0

>  <hbond:SER:135>  (187) 
0

>  <hydroph_interaction:TYR:150>  (187) 
1

>  <pistack:TYR:161>  (187) 
2

>  <hydroph_interaction:TYR:161>  (187) 
0

>  <hydroph_interaction:ASP:83>  (187) 
0

>  <hbond:TYR:130>  (187) 
0

>  <hydroph_interaction:ALA:132>  (187) 
0

>  <hbond:HIS:51>  (187) 
0

>  <hbond:ASP:129>  (187) 
1

>  <hbond:TYR:150>  (187) 
0

>  <hbond:GLY:151>  (187) 
0

>  <hbond:TYR:161>  (187) 
0

>  <hydroph_interaction:TYR:130>  (187) 
1

>  <hydroph_interaction:PRO:131>  (187) 
1

>  <hydroph_interaction:ASP:129>  (187) 
0

>  <saltbridge:ASP:75>  (187) 
0

>  <saltbridge:ASP:83>  (187) 
0

>  <hbond:ASN:152>  (187) 
0

>  <hydroph_interaction:ASN:152>  (187) 
0

>  <halogenbond:TYR:150>  (187) 
0

>  <hbond:ASP:83>  (187) 
0

>  <hydroph_interaction:VAL:155>  (187) 
0

>  <pication:TYR:161>  (187) 
0

>  <hbond:PRO:131>  (187) 
0

>  <saltbridge:ASP:129>  (187) 
0

>  <hbond:THR:134>  (187) 
0

>  <pication:HIS:51>  (187) 
0

>  <hbond:SER:81>  (187) 
0

>  <hydroph_interaction:THR:134>  (187) 
0

>  <hydroph_interaction:MET:49>  (187) 
0

$$$$
Z2783651219
     RDKit          3D

 46 49  0  0  0  0  0  0  0  0999 V2000
   -9.9010    4.6220  -18.6690 C   0  0  0  0  0  0  0  0  0  0  0  0
   -9.0780    5.0290  -17.4710 C   0  0  0  0  0  0  0  0  0  0  0  0
   -9.6910    4.9390  -16.2130 N   0  0  0  0  0  0  0  0  0  0  0  0
   -8.7890    5.3480  -15.3030 N   0  0  0  0  0  0  0  0  0  0  0  0
   -9.3100    5.2780  -14.1020 C   0  0  0  0  0  0  0  0  0  0  0  0
   -9.0280    6.1680  -12.9520 C   0  0  0  0  0  0  0  0  0  0  0  0
   -9.3900    7.3490  -12.9410 O   0  0  0  0  0  0  0  0  0  0  0  0
   -8.3410    5.5060  -11.9460 N   0  0  0  0  0  0  0  0  0  0  0  0
   -8.5690    5.5570  -10.5790 C   0  0  0  0  0  0  0  0  0  0  0  0
   -8.8170    4.4100   -9.7290 C   0  0  0  0  0  0  0  0  0  0  0  0
   -8.8890    3.0410  -10.0760 C   0  0  0  0  0  0  0  0  0  0  0  0
   -8.7440    2.2820   -8.9140 C   0  0  0  0  0  0  0  0  0  0  0  0
   -9.5720    2.5820   -7.8330 C   0  0  0  0  0  0  0  0  0  0  0  0
   -9.2380    3.9900   -7.3370 C   0  0  0  0  0  0  0  0  0  0  0  0
   -8.9760    4.8650   -8.4710 N   0  0  0  0  0  0  0  0  0  0  0  0
   -8.8710    6.1990   -8.3680 N   0  0  0  0  0  0  0  0  0  0  0  0
   -8.6270    6.6210   -9.6350 C   0  0  0  0  0  0  0  0  0  0  0  0
   -7.5940    5.7110  -15.8950 C   0  0  0  0  0  0  0  0  0  0  0  0
   -7.7500    5.5190  -17.2990 C   0  0  0  0  0  0  0  0  0  0  0  0
   -6.7170    5.7910  -18.2900 C   0  0  0  0  0  0  0  0  0  0  0  0
   -5.4470    5.2390  -18.1740 C   0  0  0  0  0  0  0  0  0  0  0  0
   -4.4650    5.5050  -19.1380 C   0  0  0  0  0  0  0  0  0  0  0  0
   -4.7510    6.3300  -20.2220 C   0  0  0  0  0  0  0  0  0  0  0  0
   -6.0070    6.8850  -20.3450 C   0  0  0  0  0  0  0  0  0  0  0  0
   -6.9740    6.6110  -19.3870 C   0  0  0  0  0  0  0  0  0  0  0  0
   -9.6960    3.5800  -18.9340 H   0  0  0  0  0  0  0  0  0  0  0  0
  -10.9730    4.7140  -18.4570 H   0  0  0  0  0  0  0  0  0  0  0  0
   -9.6690    5.2470  -19.5390 H   0  0  0  0  0  0  0  0  0  0  0  0
  -10.3890    5.3530  -14.2740 H   0  0  0  0  0  0  0  0  0  0  0  0
   -9.1410    4.2420  -13.8370 H   0  0  0  0  0  0  0  0  0  0  0  0
   -7.6750    4.8000  -12.2590 H   0  0  0  0  0  0  0  0  0  0  0  0
   -9.7410    2.7850  -10.6950 H   0  0  0  0  0  0  0  0  0  0  0  0
   -8.0670    2.7030  -10.7020 H   0  0  0  0  0  0  0  0  0  0  0  0
   -8.8620    1.2380   -9.1550 H   0  0  0  0  0  0  0  0  0  0  0  0
   -7.7050    2.3790   -8.5860 H   0  0  0  0  0  0  0  0  0  0  0  0
   -9.3500    1.8640   -7.0350 H   0  0  0  0  0  0  0  0  0  0  0  0
  -10.6400    2.5190   -7.9950 H   0  0  0  0  0  0  0  0  0  0  0  0
   -8.3300    3.9830   -6.7280 H   0  0  0  0  0  0  0  0  0  0  0  0
  -10.0600    4.4120   -6.7540 H   0  0  0  0  0  0  0  0  0  0  0  0
   -8.5020    7.6870   -9.8080 H   0  0  0  0  0  0  0  0  0  0  0  0
   -6.7600    6.0630  -15.2990 H   0  0  0  0  0  0  0  0  0  0  0  0
   -5.2060    4.5980  -17.3360 H   0  0  0  0  0  0  0  0  0  0  0  0
   -3.4820    5.0640  -19.0300 H   0  0  0  0  0  0  0  0  0  0  0  0
   -3.9860    6.5360  -20.9700 H   0  0  0  0  0  0  0  0  0  0  0  0
   -6.2490    7.5300  -21.1860 H   0  0  0  0  0  0  0  0  0  0  0  0
   -7.9310    7.0500  -19.5240 H   0  0  0  0  0  0  0  0  0  0  0  0
  1  2  1  0
  2  3  2  0
  3  4  1  0
  4  5  1  0
  5  6  1  0
  6  7  2  0
  6  8  1  0
  8  9  1  0
  9 10  2  0
 10 11  1  0
 11 12  1  0
 12 13  1  0
 13 14  1  0
 14 15  1  0
 15 16  1  0
 16 17  2  0
  4 18  1  0
 18 19  2  0
 19 20  1  0
 20 21  2  0
 21 22  1  0
 22 23  2  0
 23 24  1  0
 24 25  2  0
 19  2  1  0
 17  9  1  0
 15 10  1  0
 25 20  1  0
  1 26  1  0
  1 27  1  0
  1 28  1  0
  5 29  1  0
  5 30  1  0
  8 31  1  0
 11 32  1  0
 11 33  1  0
 12 34  1  0
 12 35  1  0
 13 36  1  0
 13 37  1  0
 14 38  1  0
 14 39  1  0
 17 40  1  0
 18 41  1  0
 21 42  1  0
 22 43  1  0
 23 44  1  0
 24 45  1  0
 25 46  1  0
A    1
 C1 
A    2
 C2 
A    3
 N1 
A    4
 N2 
A    5
 C3 
A    6
 C4 
A    7
 O1 
A    8
 N3 
A    9
 C5 
A   10
 C6 
A   11
 C7 
A   12
 C8 
A   13
 C9 
A   14
 C10
A   15
 N4 
A   16
 N5 
A   17
 C11
A   18
 C12
A   19
 C13
A   20
 C14
A   21
 C15
A   22
 C16
A   23
 C17
A   24
 C18
A   25
 C19
A   26
 H1 
A   27
 H2 
A   28
 H3 
A   29
 H4 
A   30
 H5 
A   31
 H6 
A   32
 H7 
A   33
 H8 
A   34
 H9 
A   35
 H10
A   36
 H11
A   37
 H12
A   38
 H13
A   39
 H14
A   40
 H15
A   41
 H16
A   42
 H17
A   43
 H18
A   44
 H19
A   45
 H20
A   46
 H21
M  END
>  <ref_pdb>  (188) 
x0051_0B

>  <ref_mols>  (188) 
x0969_1B,x0803_0B

>  <original SMILES>  (188) 
[H]c1nn2c(c1N([H])C(=O)C([H])([H])n1nc(C([H])([H])[H])c(-c3c([H])c([H])c([H])c([H])c3[H])c1[H])C([H])([H])C([H])([H])C([H])([H])C2([H])[H]

>  <index>  (188) 
238

>  <∆∆G>  (188) 
-9.581827

>  <∆G_bound>  (188) 
-8.927272

>  <∆G_unbound>  (188) 
0.654555

>  <comRMSD>  (188) 
0.451992

>  <N_constrained_atoms>  (188) 
22.0

>  <N_unconstrained_atoms>  (188) 
3.0

>  <runtime>  (188) 
74.713171

>  <LE>  (188) 
0.383273

>  <percent_hybrid>  (188) 
46.0

>  <dist>  (188) 
10.0

>  <ecfp4>  (188) 
0.26506

>  <daylight>  (188) 
0.285294

>  <topodist>  (188) 
1.0

>  <mces>  (188) 
27.0

>  <tdn>  (188) 
0.0

>  <tup>  (188) 
1.0

>  <rdn>  (188) 
0.0

>  <rup>  (188) 
0.0

>  <ldn>  (188) 
0.0

>  <lup>  (188) 
0.0

>  <mut>  (188) 
4.0

>  <maj>  (188) 
4.0

>  <min>  (188) 
0.0

>  <hyb>  (188) 
5.0

>  <sub>  (188) 
0.0

>  <query_index>  (188) 
360.0

>  <max_hit_Tanimoto>  (188) 
0.28259

>  <largest_ring>  (188) 
0

>  <N_interactions_kept>  (188) 
4.0

>  <N_interactions_lost>  (188) 
2.0

>  <interaction_uniqueness_metric>  (188) 
0.154519

>  <ad_hoc_penalty>  (188) 
-25.349711

>  <N_rotatable_bonds>  (188) 
5

>  <N_HA>  (188) 
25

>  <cluster>  (188) 
6002

>  <N_interactions>  (188) 
6

>  <Enamine>  (188) 
1

>  <Mcule>  (188) 
0

>  <N_PAINS>  (188) 
0

>  <UFF_Gibbs>  (188) 
116.718511

>  <strain_per_HA>  (188) 
4.66874

>  <intxn_scored>  (188) 
9.5

>  <saltbridge:HIS:51>  (188) 
0

>  <pistack:HIS:51>  (188) 
1

>  <hydroph_interaction:HIS:51>  (188) 
0

>  <hbond:ALA:132>  (188) 
0

>  <hbond:SER:135>  (188) 
0

>  <hydroph_interaction:TYR:150>  (188) 
1

>  <pistack:TYR:161>  (188) 
1

>  <hydroph_interaction:TYR:161>  (188) 
2

>  <hydroph_interaction:ASP:83>  (188) 
1

>  <hbond:TYR:130>  (188) 
0

>  <hydroph_interaction:ALA:132>  (188) 
0

>  <hbond:HIS:51>  (188) 
0

>  <hbond:ASP:129>  (188) 
0

>  <hbond:TYR:150>  (188) 
0

>  <hbond:GLY:151>  (188) 
0

>  <hbond:TYR:161>  (188) 
0

>  <hydroph_interaction:TYR:130>  (188) 
0

>  <hydroph_interaction:PRO:131>  (188) 
0

>  <hydroph_interaction:ASP:129>  (188) 
0

>  <saltbridge:ASP:75>  (188) 
0

>  <saltbridge:ASP:83>  (188) 
0

>  <hbond:ASN:152>  (188) 
0

>  <hydroph_interaction:ASN:152>  (188) 
0

>  <halogenbond:TYR:150>  (188) 
0

>  <hbond:ASP:83>  (188) 
0

>  <hydroph_interaction:VAL:155>  (188) 
0

>  <pication:TYR:161>  (188) 
0

>  <hbond:PRO:131>  (188) 
0

>  <saltbridge:ASP:129>  (188) 
0

>  <hbond:THR:134>  (188) 
0

>  <pication:HIS:51>  (188) 
0

>  <hbond:SER:81>  (188) 
0

>  <hydroph_interaction:THR:134>  (188) 
0

>  <hydroph_interaction:MET:49>  (188) 
0

$$$$
Z245961060
     RDKit          3D

 52 54  0  0  0  0  0  0  0  0999 V2000
   -3.3480    5.2660  -15.6840 C   0  0  0  0  0  0  0  0  0  0  0  0
   -4.2050    5.3030  -16.5230 C   0  0  0  0  0  0  0  0  0  0  0  0
   -5.2150    5.3320  -17.5320 C   0  0  0  0  0  0  0  0  0  0  0  0
   -6.5690    5.1830  -17.2030 C   0  0  0  0  0  0  0  0  0  0  0  0
   -7.5370    5.2060  -18.2120 C   0  0  0  0  0  0  0  0  0  0  0  0
   -8.8860    5.0530  -17.9030 N   0  0  0  0  0  0  0  0  0  0  0  0
   -9.5100    5.0570  -16.6890 C   0  0  0  0  0  0  0  0  0  0  0  0
  -10.5000    4.4490  -16.4660 O   0  0  0  0  0  0  0  0  0  0  0  0
   -8.8790    5.9040  -15.6130 C   0  0  0  0  0  0  0  0  0  0  0  0
   -9.8910    6.7380  -14.9310 N   0  0  0  0  0  0  0  0  0  0  0  0
   -9.1330    7.7740  -13.9070 S   0  0  0  0  0  6  0  0  0  0  0  0
   -9.9570    8.8980  -13.5580 O   0  0  0  0  0  0  0  0  0  0  0  0
   -7.8400    7.9340  -14.5130 O   0  0  0  0  0  0  0  0  0  0  0  0
   -8.8780    6.7140  -12.5440 C   0  0  0  0  0  0  0  0  0  0  0  0
   -8.5710    7.2710  -11.3160 C   0  0  0  0  0  0  0  0  0  0  0  0
   -8.3480    6.4280  -10.2480 C   0  0  0  0  0  0  0  0  0  0  0  0
   -8.4310    5.0440  -10.4130 C   0  0  0  0  0  0  0  0  0  0  0  0
   -8.1650    4.1440   -9.2600 C   0  0  0  0  0  0  0  0  0  0  0  0
   -8.7940    2.7530   -9.3920 C   0  0  0  0  0  0  0  0  0  0  0  0
   -9.7560    2.4570   -8.2640 C   0  0  0  0  0  0  0  0  0  0  0  0
   -9.2620    2.8190   -6.8840 C   0  0  0  0  0  0  0  0  0  0  0  0
   -8.4590    4.0780   -6.7360 C   0  0  0  0  0  0  0  0  0  0  0  0
   -8.5060    4.9170   -7.9830 C   0  0  0  0  0  0  0  0  0  0  0  0
   -8.7540    4.4970  -11.6580 C   0  0  0  0  0  0  0  0  0  0  0  0
   -8.9800    5.3340  -12.7330 C   0  0  0  0  0  0  0  0  0  0  0  0
   -7.1440    5.3780  -19.5250 C   0  0  0  0  0  0  0  0  0  0  0  0
   -5.8080    5.5300  -19.8550 C   0  0  0  0  0  0  0  0  0  0  0  0
   -4.8390    5.5070  -18.8630 C   0  0  0  0  0  0  0  0  0  0  0  0
   -2.5860    5.2260  -14.9420 H   0  0  0  0  0  0  0  0  0  0  0  0
   -6.8480    5.0480  -16.1600 H   0  0  0  0  0  0  0  0  0  0  0  0
   -9.4970    5.1410  -18.7060 H   0  0  0  0  0  0  0  0  0  0  0  0
   -8.1400    6.5390  -16.1060 H   0  0  0  0  0  0  0  0  0  0  0  0
   -8.3780    5.2550  -14.8910 H   0  0  0  0  0  0  0  0  0  0  0  0
  -10.6350    7.1380  -15.5130 H   0  0  0  0  0  0  0  0  0  0  0  0
   -8.5020    8.3480  -11.1860 H   0  0  0  0  0  0  0  0  0  0  0  0
   -8.1030    6.8640   -9.2830 H   0  0  0  0  0  0  0  0  0  0  0  0
   -7.0770    3.9670   -9.2460 H   0  0  0  0  0  0  0  0  0  0  0  0
   -8.0260    1.9720   -9.4250 H   0  0  0  0  0  0  0  0  0  0  0  0
   -9.3520    2.6740  -10.3340 H   0  0  0  0  0  0  0  0  0  0  0  0
   -9.9860    1.3900   -8.2770 H   0  0  0  0  0  0  0  0  0  0  0  0
  -10.7030    2.9570   -8.4500 H   0  0  0  0  0  0  0  0  0  0  0  0
  -10.1470    2.9160   -6.2460 H   0  0  0  0  0  0  0  0  0  0  0  0
   -8.6630    1.9850   -6.5190 H   0  0  0  0  0  0  0  0  0  0  0  0
   -7.4170    3.8100   -6.5150 H   0  0  0  0  0  0  0  0  0  0  0  0
   -8.8230    4.6610   -5.8820 H   0  0  0  0  0  0  0  0  0  0  0  0
   -7.8350    5.7730   -7.8400 H   0  0  0  0  0  0  0  0  0  0  0  0
   -9.5030    5.3430   -8.0920 H   0  0  0  0  0  0  0  0  0  0  0  0
   -8.8250    3.4190  -11.7980 H   0  0  0  0  0  0  0  0  0  0  0  0
   -9.2270    4.9130  -13.7050 H   0  0  0  0  0  0  0  0  0  0  0  0
   -7.8630    5.3960  -20.3230 H   0  0  0  0  0  0  0  0  0  0  0  0
   -5.5220    5.6660  -20.8990 H   0  0  0  0  0  0  0  0  0  0  0  0
   -3.7930    5.6240  -19.1300 H   0  0  0  0  0  0  0  0  0  0  0  0
  1  2  3  0
  2  3  1  0
  3  4  2  0
  4  5  1  0
  5  6  1  0
  6  7  1  0
  7  8  2  0
  7  9  1  0
  9 10  1  0
 10 11  1  0
 11 12  2  0
 11 13  2  0
 11 14  1  0
 14 15  2  0
 15 16  1  0
 16 17  2  0
 17 18  1  0
 18 19  1  0
 19 20  1  0
 20 21  1  0
 21 22  1  0
 22 23  1  0
 17 24  1  0
 24 25  2  0
  5 26  2  0
 26 27  1  0
 27 28  2  0
 28  3  1  0
 25 14  1  0
 23 18  1  0
  1 29  1  0
  4 30  1  0
  6 31  1  0
  9 32  1  0
  9 33  1  0
 10 34  1  0
 15 35  1  0
 16 36  1  0
 18 37  1  0
 19 38  1  0
 19 39  1  0
 20 40  1  0
 20 41  1  0
 21 42  1  0
 21 43  1  0
 22 44  1  0
 22 45  1  0
 23 46  1  0
 23 47  1  0
 24 48  1  0
 25 49  1  0
 26 50  1  0
 27 51  1  0
 28 52  1  0
A    1
 C1 
A    2
 C2 
A    3
 C3 
A    4
 C4 
A    5
 C5 
A    6
 N1 
A    7
 C6 
A    8
 O1 
A    9
 C7 
A   10
 N2 
A   11
 S1 
A   12
 O2 
A   13
 O3 
A   14
 C8 
A   15
 C9 
A   16
 C10
A   17
 C11
A   18
 C12
A   19
 C13
A   20
 C14
A   21
 C15
A   22
 C16
A   23
 C17
A   24
 C18
A   25
 C19
A   26
 C20
A   27
 C21
A   28
 C22
A   29
 H1 
A   30
 H2 
A   31
 H3 
A   32
 H4 
A   33
 H5 
A   34
 H6 
A   35
 H7 
A   36
 H8 
A   37
 H9 
A   38
 H10
A   39
 H11
A   40
 H12
A   41
 H13
A   42
 H14
A   43
 H15
A   44
 H16
A   45
 H17
A   46
 H18
A   47
 H19
A   48
 H20
A   49
 H21
A   50
 H22
A   51
 H23
A   52
 H24
M  END
>  <ref_pdb>  (189) 
x0051_0B

>  <ref_mols>  (189) 
x0425_0B,x0404_0B

>  <original SMILES>  (189) 
[H]C#Cc1c([H])c([H])c([H])c(N([H])C(=O)C([H])([H])N([H])S(=O)(=O)c2c([H])c([H])c(C3([H])C([H])([H])C([H])([H])C([H])([H])C([H])([H])C3([H])[H])c([H])c2[H])c1[H]

>  <index>  (189) 
2574

>  <∆∆G>  (189) 
-6.840632

>  <∆G_bound>  (189) 
-6.399538

>  <∆G_unbound>  (189) 
0.441094

>  <comRMSD>  (189) 
0.695795

>  <N_constrained_atoms>  (189) 
27.0

>  <N_unconstrained_atoms>  (189) 
2.0

>  <runtime>  (189) 
118.94736

>  <LE>  (189) 
0.235884

>  <percent_hybrid>  (189) 
41.0

>  <dist>  (189) 
11.0

>  <ecfp4>  (189) 
0.112245

>  <daylight>  (189) 
0.248927

>  <topodist>  (189) 
2.0

>  <mces>  (189) 
29.0

>  <tdn>  (189) 
1.0

>  <tup>  (189) 
1.0

>  <rdn>  (189) 
0.0

>  <rup>  (189) 
0.0

>  <ldn>  (189) 
0.0

>  <lup>  (189) 
0.0

>  <mut>  (189) 
6.0

>  <maj>  (189) 
6.0

>  <min>  (189) 
0.0

>  <hyb>  (189) 
3.0

>  <sub>  (189) 
1.0

>  <query_index>  (189) 
62.0

>  <max_hit_Tanimoto>  (189) 
0.273954

>  <largest_ring>  (189) 
6

>  <N_interactions_kept>  (189) 
1.0

>  <N_interactions_lost>  (189) 
3.0

>  <interaction_uniqueness_metric>  (189) 
0.165847

>  <ad_hoc_penalty>  (189) 
-1.622793

>  <N_rotatable_bonds>  (189) 
6

>  <N_HA>  (189) 
28

>  <cluster>  (189) 
3848

>  <N_interactions>  (189) 
6

>  <Enamine>  (189) 
1

>  <Mcule>  (189) 
0

>  <N_PAINS>  (189) 
0

>  <UFF_Gibbs>  (189) 
248.920212

>  <strain_per_HA>  (189) 
8.890008

>  <intxn_scored>  (189) 
9.5

>  <saltbridge:HIS:51>  (189) 
0

>  <pistack:HIS:51>  (189) 
1

>  <hydroph_interaction:HIS:51>  (189) 
1

>  <hbond:ALA:132>  (189) 
0

>  <hbond:SER:135>  (189) 
0

>  <hydroph_interaction:TYR:150>  (189) 
0

>  <pistack:TYR:161>  (189) 
1

>  <hydroph_interaction:TYR:161>  (189) 
2

>  <hydroph_interaction:ASP:83>  (189) 
0

>  <hbond:TYR:130>  (189) 
0

>  <hydroph_interaction:ALA:132>  (189) 
0

>  <hbond:HIS:51>  (189) 
1

>  <hbond:ASP:129>  (189) 
0

>  <hbond:TYR:150>  (189) 
0

>  <hbond:GLY:151>  (189) 
0

>  <hbond:TYR:161>  (189) 
0

>  <hydroph_interaction:TYR:130>  (189) 
0

>  <hydroph_interaction:PRO:131>  (189) 
0

>  <hydroph_interaction:ASP:129>  (189) 
0

>  <saltbridge:ASP:75>  (189) 
0

>  <saltbridge:ASP:83>  (189) 
0

>  <hbond:ASN:152>  (189) 
0

>  <hydroph_interaction:ASN:152>  (189) 
0

>  <halogenbond:TYR:150>  (189) 
0

>  <hbond:ASP:83>  (189) 
0

>  <hydroph_interaction:VAL:155>  (189) 
0

>  <pication:TYR:161>  (189) 
0

>  <hbond:PRO:131>  (189) 
0

>  <saltbridge:ASP:129>  (189) 
0

>  <hbond:THR:134>  (189) 
0

>  <pication:HIS:51>  (189) 
0

>  <hbond:SER:81>  (189) 
0

>  <hydroph_interaction:THR:134>  (189) 
0

>  <hydroph_interaction:MET:49>  (189) 
0

$$$$
Z2271009293
     RDKit          3D

 29 31  0  0  0  0  0  0  0  0999 V2000
  -11.2660    4.7880  -18.7440 C   0  0  0  0  0  0  0  0  0  0  0  0
   -9.8110    4.8560  -18.4570 C   0  0  0  0  0  0  0  0  0  0  0  0
   -9.3490    4.8940  -17.0070 C   0  0  0  0  0  0  0  0  0  0  0  0
   -7.9750    5.0220  -16.7430 C   0  0  0  0  0  0  0  0  0  0  0  0
   -7.4470    5.0750  -15.3030 C   0  0  0  0  0  0  0  0  0  0  0  0
   -7.1730    5.1050  -17.8980 C   0  0  0  0  0  0  0  0  0  0  0  0
   -5.8130    5.2560  -17.9740 O   0  0  0  0  0  0  0  0  0  0  0  0
   -5.5850    5.2860  -19.3270 C   0  0  0  0  0  0  0  0  0  0  0  0
   -4.3410    5.4470  -19.7590 N   0  0  0  0  0  0  0  0  0  0  0  0
   -3.2440    5.3860  -18.8380 C   0  0  0  0  0  0  0  0  0  0  0  0
   -1.8970    4.9890  -19.3300 C   0  0  0  0  0  0  0  0  0  0  0  0
   -2.1240    6.3540  -18.9970 C   0  0  0  0  0  0  0  0  0  0  0  0
   -6.6240    5.1560  -20.0710 N   0  0  0  0  0  0  0  0  0  0  0  0
   -7.6260    5.0520  -19.2160 C   0  0  0  0  0  0  0  0  0  0  0  0
   -8.9530    4.9190  -19.5030 C   0  0  0  0  0  0  0  0  0  0  0  0
  -11.7070    5.5640  -18.1610 H   0  0  0  0  0  0  0  0  0  0  0  0
  -11.7640    3.8560  -18.5330 H   0  0  0  0  0  0  0  0  0  0  0  0
  -11.4640    5.0780  -19.7700 H   0  0  0  0  0  0  0  0  0  0  0  0
  -10.0660    4.8350  -16.1880 H   0  0  0  0  0  0  0  0  0  0  0  0
   -8.0220    4.3910  -14.6670 H   0  0  0  0  0  0  0  0  0  0  0  0
   -7.5300    6.0820  -14.8830 H   0  0  0  0  0  0  0  0  0  0  0  0
   -6.3930    4.7820  -15.2780 H   0  0  0  0  0  0  0  0  0  0  0  0
   -4.1830    5.1990  -20.7290 H   0  0  0  0  0  0  0  0  0  0  0  0
   -3.5210    5.1030  -17.8250 H   0  0  0  0  0  0  0  0  0  0  0  0
   -1.8010    4.7190  -20.3760 H   0  0  0  0  0  0  0  0  0  0  0  0
   -1.2750    4.4040  -18.6730 H   0  0  0  0  0  0  0  0  0  0  0  0
   -2.1690    7.0630  -19.8140 H   0  0  0  0  0  0  0  0  0  0  0  0
   -1.6570    6.7390  -18.0970 H   0  0  0  0  0  0  0  0  0  0  0  0
   -9.2990    4.8820  -20.5260 H   0  0  0  0  0  0  0  0  0  0  0  0
  1  2  1  0
  2  3  2  0
  3  4  1  0
  4  5  1  0
  4  6  2  0
  6  7  1  0
  7  8  1  0
  8  9  1  0
  9 10  1  0
 10 11  1  0
 11 12  1  0
  8 13  2  0
 13 14  1  0
 14 15  2  0
 15  2  1  0
 14  6  1  0
 12 10  1  0
  1 16  1  0
  1 17  1  0
  1 18  1  0
  3 19  1  0
  5 20  1  0
  5 21  1  0
  5 22  1  0
  9 23  1  0
 10 24  1  0
 11 25  1  0
 11 26  1  0
 12 27  1  0
 12 28  1  0
 15 29  1  0
A    1
 C1 
A    2
 C2 
A    3
 C3 
A    4
 C4 
A    5
 C5 
A    6
 C6 
A    7
 O1 
A    8
 C7 
A    9
 N1 
A   10
 C8 
A   11
 C9 
A   12
 C10
A   13
 N2 
A   14
 C11
A   15
 C12
A   16
 H1 
A   17
 H2 
A   18
 H3 
A   19
 H4 
A   20
 H5 
A   21
 H6 
A   22
 H7 
A   23
 H8 
A   24
 H9 
A   25
 H10
A   26
 H11
A   27
 H12
A   28
 H13
A   29
 H14
M  END
>  <ref_pdb>  (190) 
x0051_0B

>  <ref_mols>  (190) 
x0089_0B,x0605_0B

>  <original SMILES>  (190) 
[H]c1c(C([H])([H])[H])c([H])c2nc(N([H])C3([H])C([H])([H])C3([H])[H])oc2c1C([H])([H])[H]

>  <index>  (190) 
3349

>  <∆∆G>  (190) 
-7.759393

>  <∆G_bound>  (190) 
-7.630097

>  <∆G_unbound>  (190) 
0.129296

>  <comRMSD>  (190) 
0.738133

>  <N_constrained_atoms>  (190) 
15.0

>  <N_unconstrained_atoms>  (190) 
1.0

>  <runtime>  (190) 
37.337516

>  <LE>  (190) 
0.484962

>  <percent_hybrid>  (190) 
25.0

>  <dist>  (190) 
2.0

>  <ecfp4>  (190) 
0.446809

>  <daylight>  (190) 
0.335526

>  <topodist>  (190) 
1.0

>  <mces>  (190) 
16.0

>  <tdn>  (190) 
0.0

>  <tup>  (190) 
0.0

>  <rdn>  (190) 
0.0

>  <rup>  (190) 
1.0

>  <ldn>  (190) 
0.0

>  <lup>  (190) 
0.0

>  <mut>  (190) 
1.0

>  <maj>  (190) 
1.0

>  <min>  (190) 
0.0

>  <hyb>  (190) 
0.0

>  <sub>  (190) 
2.0

>  <query_index>  (190) 
118.0

>  <max_hit_Tanimoto>  (190) 
0.211286

>  <largest_ring>  (190) 
6

>  <N_interactions_kept>  (190) 
0.0

>  <N_interactions_lost>  (190) 
3.5

>  <interaction_uniqueness_metric>  (190) 
0.076578

>  <ad_hoc_penalty>  (190) 
-2.272949

>  <N_rotatable_bonds>  (190) 
4

>  <N_HA>  (190) 
15

>  <cluster>  (190) 
3114

>  <N_interactions>  (190) 
5

>  <Enamine>  (190) 
1

>  <Mcule>  (190) 
0

>  <N_PAINS>  (190) 
0

>  <UFF_Gibbs>  (190) 
48.721223

>  <strain_per_HA>  (190) 
3.248082

>  <intxn_scored>  (190) 
9.5

>  <saltbridge:HIS:51>  (190) 
0

>  <pistack:HIS:51>  (190) 
0

>  <hydroph_interaction:HIS:51>  (190) 
0

>  <hbond:ALA:132>  (190) 
0

>  <hbond:SER:135>  (190) 
0

>  <hydroph_interaction:TYR:150>  (190) 
1

>  <pistack:TYR:161>  (190) 
2

>  <hydroph_interaction:TYR:161>  (190) 
1

>  <hydroph_interaction:ASP:83>  (190) 
0

>  <hbond:TYR:130>  (190) 
0

>  <hydroph_interaction:ALA:132>  (190) 
0

>  <hbond:HIS:51>  (190) 
0

>  <hbond:ASP:129>  (190) 
0

>  <hbond:TYR:150>  (190) 
0

>  <hbond:GLY:151>  (190) 
0

>  <hbond:TYR:161>  (190) 
0

>  <hydroph_interaction:TYR:130>  (190) 
0

>  <hydroph_interaction:PRO:131>  (190) 
0

>  <hydroph_interaction:ASP:129>  (190) 
0

>  <saltbridge:ASP:75>  (190) 
0

>  <saltbridge:ASP:83>  (190) 
0

>  <hbond:ASN:152>  (190) 
0

>  <hydroph_interaction:ASN:152>  (190) 
0

>  <halogenbond:TYR:150>  (190) 
0

>  <hbond:ASP:83>  (190) 
0

>  <hydroph_interaction:VAL:155>  (190) 
1

>  <pication:TYR:161>  (190) 
0

>  <hbond:PRO:131>  (190) 
0

>  <saltbridge:ASP:129>  (190) 
0

>  <hbond:THR:134>  (190) 
0

>  <pication:HIS:51>  (190) 
0

>  <hbond:SER:81>  (190) 
0

>  <hydroph_interaction:THR:134>  (190) 
0

>  <hydroph_interaction:MET:49>  (190) 
0

$$$$
CSSB00010288523
     RDKit          3D

 22 23  0  0  0  0  0  0  0  0999 V2000
  -10.1560    4.7960  -18.4730 C   0  0  0  0  0  0  0  0  0  0  0  0
   -8.8640    5.0920  -17.7380 C   0  0  0  0  0  0  0  0  0  0  0  0
   -8.7330    5.3260  -16.2450 C   0  0  0  0  0  0  0  0  0  0  0  0
   -9.7610    5.3840  -14.9030 Cl  0  0  0  0  0  0  0  0  0  0  0  0
   -7.3050    5.5530  -16.0200 N   0  0  0  0  0  0  0  0  0  0  0  0
   -6.6430    5.4730  -17.2520 C   0  0  0  0  0  0  0  0  0  0  0  0
   -5.3020    5.6100  -17.5480 C   0  0  0  0  0  0  0  0  0  0  0  0
   -4.2640    5.8720  -16.4480 C   0  0  0  0  0  0  0  0  0  0  0  0
   -4.9190    5.4950  -18.8970 C   0  0  0  0  0  0  0  0  0  0  0  0
   -5.9400    5.2270  -19.9530 C   0  0  0  0  0  0  0  0  0  0  0  0
   -7.2970    5.0810  -19.6040 C   0  0  0  0  0  0  0  0  0  0  0  0
   -7.6090    5.2080  -18.2540 C   0  0  0  0  0  0  0  0  0  0  0  0
  -11.0390    4.9860  -17.8640 H   0  0  0  0  0  0  0  0  0  0  0  0
  -10.1550    3.7390  -18.7480 H   0  0  0  0  0  0  0  0  0  0  0  0
  -10.2300    5.3850  -19.3970 H   0  0  0  0  0  0  0  0  0  0  0  0
   -6.8760    5.7370  -15.1260 H   0  0  0  0  0  0  0  0  0  0  0  0
   -4.5930    5.8980  -15.4100 H   0  0  0  0  0  0  0  0  0  0  0  0
   -3.4940    5.0980  -16.5060 H   0  0  0  0  0  0  0  0  0  0  0  0
   -3.7870    6.8370  -16.6470 H   0  0  0  0  0  0  0  0  0  0  0  0
   -3.8770    5.5980  -19.1800 H   0  0  0  0  0  0  0  0  0  0  0  0
   -5.6390    5.1380  -20.9940 H   0  0  0  0  0  0  0  0  0  0  0  0
   -8.0620    4.8760  -20.3530 H   0  0  0  0  0  0  0  0  0  0  0  0
  1  2  1  0
  2  3  2  0
  3  4  1  0
  3  5  1  0
  5  6  1  0
  6  7  2  0
  7  8  1  0
  7  9  1  0
  9 10  2  0
 10 11  1  0
 11 12  2  0
 12  2  1  0
 12  6  1  0
  1 13  1  0
  1 14  1  0
  1 15  1  0
  5 16  1  0
  8 17  1  0
  8 18  1  0
  8 19  1  0
  9 20  1  0
 10 21  1  0
 11 22  1  0
A    1
 C1 
A    2
 C2 
A    3
 C3 
A    4
CL1 
A    5
 N1 
A    6
 C4 
A    7
 C5 
A    8
 C6 
A    9
 C7 
A   10
 C8 
A   11
 C9 
A   12
 C10
A   13
 H1 
A   14
 H2 
A   15
 H3 
A   16
 H4 
A   17
 H5 
A   18
 H6 
A   19
 H7 
A   20
 H8 
A   21
 H9 
A   22
 H10
M  END
>  <ref_pdb>  (191) 
x0051_0B

>  <ref_mols>  (191) 
x0425_0B,x0969_0B

>  <original SMILES>  (191) 
[H]c1c([H])c(C([H])([H])[H])c2c(c1[H])c(C([H])([H])[H])c(Cl)n2[H]

>  <index>  (191) 
2873

>  <∆∆G>  (191) 
-6.891644

>  <∆G_bound>  (191) 
-7.016543

>  <∆G_unbound>  (191) 
-0.1249

>  <comRMSD>  (191) 
0.541391

>  <N_constrained_atoms>  (191) 
12.0

>  <N_unconstrained_atoms>  (191) 
1.0

>  <runtime>  (191) 
17.99371

>  <LE>  (191) 
0.530126

>  <percent_hybrid>  (191) 
34.0

>  <dist>  (191) 
3.0

>  <ecfp4>  (191) 
0.148148

>  <daylight>  (191) 
0.398058

>  <topodist>  (191) 
2.0

>  <mces>  (191) 
12.0

>  <tdn>  (191) 
1.0

>  <tup>  (191) 
1.0

>  <rdn>  (191) 
0.0

>  <rup>  (191) 
0.0

>  <ldn>  (191) 
0.0

>  <lup>  (191) 
0.0

>  <mut>  (191) 
1.0

>  <maj>  (191) 
1.0

>  <min>  (191) 
0.0

>  <hyb>  (191) 
0.0

>  <sub>  (191) 
2.0

>  <query_index>  (191) 
188.0

>  <max_hit_Tanimoto>  (191) 
0.153285

>  <largest_ring>  (191) 
6

>  <N_interactions_kept>  (191) 
0.0

>  <N_interactions_lost>  (191) 
3.0

>  <interaction_uniqueness_metric>  (191) 
0.04341

>  <ad_hoc_penalty>  (191) 
-4.524766

>  <N_rotatable_bonds>  (191) 
2

>  <N_HA>  (191) 
12

>  <cluster>  (191) 
3566

>  <N_interactions>  (191) 
4

>  <Enamine>  (191) 
1

>  <Mcule>  (191) 
0

>  <N_PAINS>  (191) 
0

>  <UFF_Gibbs>  (191) 
36.859883

>  <strain_per_HA>  (191) 
3.071657

>  <intxn_scored>  (191) 
9.5

>  <saltbridge:HIS:51>  (191) 
0

>  <pistack:HIS:51>  (191) 
0

>  <hydroph_interaction:HIS:51>  (191) 
0

>  <hbond:ALA:132>  (191) 
0

>  <hbond:SER:135>  (191) 
0

>  <hydroph_interaction:TYR:150>  (191) 
1

>  <pistack:TYR:161>  (191) 
2

>  <hydroph_interaction:TYR:161>  (191) 
1

>  <hydroph_interaction:ASP:83>  (191) 
0

>  <hbond:TYR:130>  (191) 
0

>  <hydroph_interaction:ALA:132>  (191) 
0

>  <hbond:HIS:51>  (191) 
0

>  <hbond:ASP:129>  (191) 
0

>  <hbond:TYR:150>  (191) 
0

>  <hbond:GLY:151>  (191) 
0

>  <hbond:TYR:161>  (191) 
0

>  <hydroph_interaction:TYR:130>  (191) 
0

>  <hydroph_interaction:PRO:131>  (191) 
0

>  <hydroph_interaction:ASP:129>  (191) 
0

>  <saltbridge:ASP:75>  (191) 
0

>  <saltbridge:ASP:83>  (191) 
0

>  <hbond:ASN:152>  (191) 
0

>  <hydroph_interaction:ASN:152>  (191) 
0

>  <halogenbond:TYR:150>  (191) 
0

>  <hbond:ASP:83>  (191) 
0

>  <hydroph_interaction:VAL:155>  (191) 
0

>  <pication:TYR:161>  (191) 
0

>  <hbond:PRO:131>  (191) 
0

>  <saltbridge:ASP:129>  (191) 
0

>  <hbond:THR:134>  (191) 
0

>  <pication:HIS:51>  (191) 
0

>  <hbond:SER:81>  (191) 
0

>  <hydroph_interaction:THR:134>  (191) 
0

>  <hydroph_interaction:MET:49>  (191) 
0

$$$$
Z1467040886
     RDKit          3D

 55 59  0  0  0  0  0  0  0  0999 V2000
   -7.9710    5.1930  -15.0670 C   0  0  0  0  0  0  0  0  0  0  0  0
   -8.3820    5.0940  -16.4990 C   0  0  0  0  0  0  0  0  0  0  0  0
   -9.6900    4.8620  -16.7730 C   0  0  0  0  0  0  0  0  0  0  0  0
  -10.2060    4.7460  -18.2060 C   0  0  0  0  0  0  0  0  0  0  0  0
   -9.2230    4.8940  -19.3160 C   0  0  0  0  0  0  0  0  0  0  0  0
   -7.8870    5.1310  -18.9490 C   0  0  0  0  0  0  0  0  0  0  0  0
   -7.5080    5.2230  -17.5990 C   0  0  0  0  0  0  0  0  0  0  0  0
   -6.1580    5.4500  -17.6580 N   0  0  0  0  0  0  0  0  0  0  0  0
   -5.2840    5.6130  -16.5340 C   0  0  0  0  0  0  0  0  0  0  0  0
   -5.7710    5.4970  -18.9610 C   0  0  0  0  0  0  0  0  0  0  0  0
   -4.3550    5.7430  -19.3610 C   0  0  0  0  0  0  0  0  0  0  0  0
   -4.3660    6.6960  -20.4290 N   0  0  0  0  0  0  0  0  0  0  0  0
   -5.1060    6.4530  -21.5540 C   0  0  0  0  0  0  0  0  0  0  0  0
   -5.4790    5.3400  -21.8970 O   0  0  0  0  0  0  0  0  0  0  0  0
   -5.4030    7.5480  -22.3050 C   0  0  0  0  0  0  0  0  0  0  0  0
   -6.1350    7.2830  -23.5990 C   0  0  0  0  0  0  0  0  0  0  0  0
   -6.4500    8.4920  -24.4200 C   0  0  0  0  0  0  0  0  0  0  0  0
   -6.0520    9.7370  -23.9440 C   0  0  0  0  0  0  0  0  0  0  0  0
   -6.3870   11.1900  -24.8890 S   0  0  0  0  0  0  0  0  0  0  0  0
   -6.1950   10.5000  -26.5700 C   0  0  0  0  0  0  0  0  0  0  0  0
   -7.3110    9.7740  -27.0050 C   0  0  0  0  0  0  0  0  0  0  0  0
   -7.3590    8.4920  -27.3270 N   0  0  0  0  0  0  0  0  0  0  0  0
   -8.6650    8.2470  -27.6810 C   0  0  0  0  0  0  0  0  0  0  0  0
   -9.2840    7.0630  -28.1000 C   0  0  0  0  0  0  0  0  0  0  0  0
  -10.6550    7.0880  -28.3930 C   0  0  0  0  0  0  0  0  0  0  0  0
  -11.3910    8.2700  -28.2740 C   0  0  0  0  0  0  0  0  0  0  0  0
  -10.7890    9.4620  -27.8630 C   0  0  0  0  0  0  0  0  0  0  0  0
   -9.4230    9.4070  -27.5750 C   0  0  0  0  0  0  0  0  0  0  0  0
   -8.5420   10.3550  -27.1510 N   0  0  0  0  0  0  0  0  0  0  0  0
   -5.3750    9.9140  -22.7250 C   0  0  0  0  0  0  0  0  0  0  0  0
   -5.0510    8.8360  -21.9080 C   0  0  0  0  0  0  0  0  0  0  0  0
   -6.7960    5.3020  -19.7710 N   0  0  0  0  0  0  0  0  0  0  0  0
   -7.8030    6.2410  -14.8030 H   0  0  0  0  0  0  0  0  0  0  0  0
   -8.7540    4.7780  -14.4230 H   0  0  0  0  0  0  0  0  0  0  0  0
   -7.0510    4.6340  -14.8830 H   0  0  0  0  0  0  0  0  0  0  0  0
  -10.3880    4.7550  -15.9480 H   0  0  0  0  0  0  0  0  0  0  0  0
  -11.2570    4.5620  -18.4130 H   0  0  0  0  0  0  0  0  0  0  0  0
   -9.5130    4.8240  -20.3580 H   0  0  0  0  0  0  0  0  0  0  0  0
   -5.4670    4.8420  -15.7910 H   0  0  0  0  0  0  0  0  0  0  0  0
   -4.2570    5.5560  -16.8860 H   0  0  0  0  0  0  0  0  0  0  0  0
   -5.4850    6.5760  -16.0610 H   0  0  0  0  0  0  0  0  0  0  0  0
   -3.8260    6.2180  -18.5280 H   0  0  0  0  0  0  0  0  0  0  0  0
   -3.7980    4.8560  -19.6380 H   0  0  0  0  0  0  0  0  0  0  0  0
   -3.5340    7.2640  -20.5040 H   0  0  0  0  0  0  0  0  0  0  0  0
   -6.4180    6.2850  -23.9200 H   0  0  0  0  0  0  0  0  0  0  0  0
   -6.9740    8.3500  -25.3560 H   0  0  0  0  0  0  0  0  0  0  0  0
   -5.2860    9.8920  -26.6230 H   0  0  0  0  0  0  0  0  0  0  0  0
   -6.0440   11.3470  -27.2480 H   0  0  0  0  0  0  0  0  0  0  0  0
   -8.7090    6.1490  -28.1890 H   0  0  0  0  0  0  0  0  0  0  0  0
  -11.1480    6.1750  -28.7160 H   0  0  0  0  0  0  0  0  0  0  0  0
  -12.4560    8.2650  -28.5060 H   0  0  0  0  0  0  0  0  0  0  0  0
  -11.3620   10.3780  -27.7720 H   0  0  0  0  0  0  0  0  0  0  0  0
   -8.7550   11.3250  -26.9670 H   0  0  0  0  0  0  0  0  0  0  0  0
   -5.0880   10.9120  -22.3980 H   0  0  0  0  0  0  0  0  0  0  0  0
   -4.5270    9.0240  -20.9770 H   0  0  0  0  0  0  0  0  0  0  0  0
  1  2  1  0
  2  3  2  0
  3  4  1  0
  4  5  2  0
  5  6  1  0
  6  7  2  0
  7  8  1  0
  8  9  1  0
  8 10  1  0
 10 11  1  0
 11 12  1  0
 12 13  1  0
 13 14  2  0
 13 15  1  0
 15 16  2  0
 16 17  1  0
 17 18  2  0
 18 19  1  0
 19 20  1  0
 20 21  1  0
 21 22  2  0
 22 23  1  0
 23 24  2  0
 24 25  1  0
 25 26  2  0
 26 27  1  0
 27 28  2  0
 28 29  1  0
 18 30  1  0
 30 31  2  0
 10 32  2  0
  7  2  1  0
 32  6  1  0
 31 15  1  0
 29 21  1  0
 28 23  1  0
  1 33  1  0
  1 34  1  0
  1 35  1  0
  3 36  1  0
  4 37  1  0
  5 38  1  0
  9 39  1  0
  9 40  1  0
  9 41  1  0
 11 42  1  0
 11 43  1  0
 12 44  1  0
 16 45  1  0
 17 46  1  0
 20 47  1  0
 20 48  1  0
 24 49  1  0
 25 50  1  0
 26 51  1  0
 27 52  1  0
 29 53  1  0
 30 54  1  0
 31 55  1  0
A    1
 C1 
A    2
 C2 
A    3
 C3 
A    4
 C4 
A    5
 C5 
A    6
 C6 
A    7
 C7 
A    8
 N1 
A    9
 C8 
A   10
 C9 
A   11
 C10
A   12
 N2 
A   13
 C11
A   14
 O1 
A   15
 C12
A   16
 C13
A   17
 C14
A   18
 C15
A   19
 S1 
A   20
 C16
A   21
 C17
A   22
 N3 
A   23
 C18
A   24
 C19
A   25
 C20
A   26
 C21
A   27
 C22
A   28
 C23
A   29
 N4 
A   30
 C24
A   31
 C25
A   32
 N5 
A   33
 H1 
A   34
 H2 
A   35
 H3 
A   36
 H4 
A   37
 H5 
A   38
 H6 
A   39
 H7 
A   40
 H8 
A   41
 H9 
A   42
 H10
A   43
 H11
A   44
 H12
A   45
 H13
A   46
 H14
A   47
 H15
A   48
 H16
A   49
 H17
A   50
 H18
A   51
 H19
A   52
 H20
A   53
 H21
A   54
 H22
A   55
 H23
M  END
>  <ref_pdb>  (192) 
x0051_0B

>  <ref_mols>  (192) 
x0846_1B,x0490_0B

>  <original SMILES>  (192) 
[H]c1c([H])c(C(=O)N([H])C([H])([H])c2nc3c([H])c([H])c([H])c(C([H])([H])[H])c3n2C([H])([H])[H])c([H])c([H])c1SC([H])([H])c1nc2c([H])c([H])c([H])c([H])c2n1[H]

>  <index>  (192) 
651

>  <∆∆G>  (192) 
-9.879505

>  <∆G_bound>  (192) 
-9.12737

>  <∆G_unbound>  (192) 
0.752135

>  <comRMSD>  (192) 
0.650442

>  <N_constrained_atoms>  (192) 
29.0

>  <N_unconstrained_atoms>  (192) 
4.0

>  <runtime>  (192) 
52.175129

>  <LE>  (192) 
0.299379

>  <percent_hybrid>  (192) 
38.0

>  <dist>  (192) 
8.0

>  <ecfp4>  (192) 
0.234043

>  <daylight>  (192) 
0.340336

>  <topodist>  (192) 
5.0

>  <mces>  (192) 
33.0

>  <tdn>  (192) 
2.0

>  <tup>  (192) 
2.0

>  <rdn>  (192) 
0.0

>  <rup>  (192) 
0.0

>  <ldn>  (192) 
0.0

>  <lup>  (192) 
1.0

>  <mut>  (192) 
3.0

>  <maj>  (192) 
3.0

>  <min>  (192) 
0.0

>  <hyb>  (192) 
0.0

>  <sub>  (192) 
3.0

>  <query_index>  (192) 
51.0

>  <max_hit_Tanimoto>  (192) 
0.312357

>  <largest_ring>  (192) 
6

>  <N_interactions_kept>  (192) 
0.0

>  <N_interactions_lost>  (192) 
3.0

>  <interaction_uniqueness_metric>  (192) 
0.210454

>  <ad_hoc_penalty>  (192) 
-19.90193

>  <N_rotatable_bonds>  (192) 
8

>  <N_HA>  (192) 
32

>  <cluster>  (192) 
5623

>  <N_interactions>  (192) 
8

>  <Enamine>  (192) 
1

>  <Mcule>  (192) 
0

>  <N_PAINS>  (192) 
0

>  <UFF_Gibbs>  (192) 
129.856982

>  <strain_per_HA>  (192) 
4.058031

>  <intxn_scored>  (192) 
9.5

>  <saltbridge:HIS:51>  (192) 
0

>  <pistack:HIS:51>  (192) 
0

>  <hydroph_interaction:HIS:51>  (192) 
0

>  <hbond:ALA:132>  (192) 
0

>  <hbond:SER:135>  (192) 
0

>  <hydroph_interaction:TYR:150>  (192) 
1

>  <pistack:TYR:161>  (192) 
1

>  <hydroph_interaction:TYR:161>  (192) 
2

>  <hydroph_interaction:ASP:83>  (192) 
0

>  <hbond:TYR:130>  (192) 
1

>  <hydroph_interaction:ALA:132>  (192) 
0

>  <hbond:HIS:51>  (192) 
0

>  <hbond:ASP:129>  (192) 
1

>  <hbond:TYR:150>  (192) 
0

>  <hbond:GLY:151>  (192) 
0

>  <hbond:TYR:161>  (192) 
0

>  <hydroph_interaction:TYR:130>  (192) 
1

>  <hydroph_interaction:PRO:131>  (192) 
1

>  <hydroph_interaction:ASP:129>  (192) 
0

>  <saltbridge:ASP:75>  (192) 
0

>  <saltbridge:ASP:83>  (192) 
0

>  <hbond:ASN:152>  (192) 
0

>  <hydroph_interaction:ASN:152>  (192) 
0

>  <halogenbond:TYR:150>  (192) 
0

>  <hbond:ASP:83>  (192) 
0

>  <hydroph_interaction:VAL:155>  (192) 
0

>  <pication:TYR:161>  (192) 
0

>  <hbond:PRO:131>  (192) 
0

>  <saltbridge:ASP:129>  (192) 
0

>  <hbond:THR:134>  (192) 
0

>  <pication:HIS:51>  (192) 
0

>  <hbond:SER:81>  (192) 
0

>  <hydroph_interaction:THR:134>  (192) 
0

>  <hydroph_interaction:MET:49>  (192) 
0

$$$$
Z1973607587
     RDKit          3D

 34 36  0  0  0  0  0  0  0  0999 V2000
  -11.0110    4.9470  -18.5830 C   0  0  0  0  0  0  0  0  0  0  0  0
   -9.6460    5.0100  -18.0450 C   0  0  0  0  0  0  0  0  0  0  0  0
   -9.3250    4.9980  -16.6570 C   0  0  0  0  0  0  0  0  0  0  0  0
   -7.8460    5.1680  -16.3580 C   0  0  0  0  0  0  0  0  0  0  0  0
   -6.9800    5.3150  -17.6240 C   0  0  0  0  0  0  0  0  0  0  0  0
   -5.5070    5.5190  -17.4540 C   0  0  0  0  0  0  0  0  0  0  0  0
   -4.9290    5.5970  -16.1810 N   0  0  0  0  0  0  0  0  0  0  0  0
   -5.0730    6.9120  -15.5510 C   0  0  0  0  0  0  0  0  0  0  0  0
   -4.0580    7.0060  -14.4620 C   0  0  0  0  0  0  0  0  0  0  0  0
   -3.8010    5.5920  -13.9040 C   0  0  0  0  0  0  0  0  0  0  0  0
   -3.0800    4.7310  -14.7820 C   0  0  0  0  0  0  0  0  0  0  0  0
   -3.5450    5.0990  -16.2180 C   0  0  0  0  0  0  0  0  0  0  0  0
   -4.7620    5.6370  -18.6200 C   0  0  0  0  0  0  0  0  0  0  0  0
   -5.4400    5.5590  -19.8360 C   0  0  0  0  0  0  0  0  0  0  0  0
   -6.7580    5.3840  -19.9730 N   0  0  0  0  0  0  0  0  0  0  0  0
   -7.5140    5.2690  -18.8890 C   0  0  0  0  0  0  0  0  0  0  0  0
   -8.7870    5.1230  -19.0650 N   0  0  0  0  0  0  0  0  0  0  0  0
  -11.5910    5.6950  -18.1020 H   0  0  0  0  0  0  0  0  0  0  0  0
  -11.5340    4.0240  -18.4320 H   0  0  0  0  0  0  0  0  0  0  0  0
  -10.9860    5.2630  -19.6230 H   0  0  0  0  0  0  0  0  0  0  0  0
  -10.0700    4.8950  -15.8790 H   0  0  0  0  0  0  0  0  0  0  0  0
   -7.4460    5.1900  -15.3470 H   0  0  0  0  0  0  0  0  0  0  0  0
   -6.0830    6.9860  -15.1280 H   0  0  0  0  0  0  0  0  0  0  0  0
   -4.9650    7.7440  -16.2580 H   0  0  0  0  0  0  0  0  0  0  0  0
   -4.4210    7.6580  -13.6590 H   0  0  0  0  0  0  0  0  0  0  0  0
   -3.1260    7.4400  -14.8370 H   0  0  0  0  0  0  0  0  0  0  0  0
   -4.7460    5.1090  -13.6390 H   0  0  0  0  0  0  0  0  0  0  0  0
   -3.2350    5.6610  -12.9690 H   0  0  0  0  0  0  0  0  0  0  0  0
   -2.0080    4.8970  -14.6530 H   0  0  0  0  0  0  0  0  0  0  0  0
   -3.2890    3.6780  -14.5750 H   0  0  0  0  0  0  0  0  0  0  0  0
   -3.4810    4.2010  -16.8410 H   0  0  0  0  0  0  0  0  0  0  0  0
   -2.8700    5.8400  -16.6430 H   0  0  0  0  0  0  0  0  0  0  0  0
   -3.6880    5.7880  -18.6070 H   0  0  0  0  0  0  0  0  0  0  0  0
   -4.8790    5.6450  -20.7670 H   0  0  0  0  0  0  0  0  0  0  0  0
  1  2  1  0
  2  3  2  0
  3  4  1  0
  4  5  2  0
  5  6  1  0
  6  7  1  0
  7  8  1  0
  8  9  1  0
  9 10  1  0
 10 11  1  0
 11 12  1  0
  6 13  2  0
 13 14  1  0
 14 15  2  0
 15 16  1  0
 16 17  2  0
 17  2  1  0
 16  5  1  0
 12  7  1  0
  1 18  1  0
  1 19  1  0
  1 20  1  0
  3 21  1  0
  4 22  1  0
  8 23  1  0
  8 24  1  0
  9 25  1  0
  9 26  1  0
 10 27  1  0
 10 28  1  0
 11 29  1  0
 11 30  1  0
 12 31  1  0
 12 32  1  0
 13 33  1  0
 14 34  1  0
A    1
 C1 
A    2
 C2 
A    3
 C3 
A    4
 C4 
A    5
 C5 
A    6
 C6 
A    7
 N1 
A    8
 C7 
A    9
 C8 
A   10
 C9 
A   11
 C10
A   12
 C11
A   13
 C12
A   14
 C13
A   15
 N2 
A   16
 C14
A   17
 N3 
A   18
 H1 
A   19
 H2 
A   20
 H3 
A   21
 H4 
A   22
 H5 
A   23
 H6 
A   24
 H7 
A   25
 H8 
A   26
 H9 
A   27
 H10
A   28
 H11
A   29
 H12
A   30
 H13
A   31
 H14
A   32
 H15
A   33
 H16
A   34
 H17
M  END
>  <ref_pdb>  (193) 
x0051_0B

>  <ref_mols>  (193) 
x0429_0B,x0605_0B

>  <original SMILES>  (193) 
[H]c1nc2nc(C([H])([H])[H])c([H])c([H])c2c(N2C([H])([H])C([H])([H])C([H])([H])C([H])([H])C2([H])[H])c1[H]

>  <index>  (193) 
3464

>  <∆∆G>  (193) 
-5.261707

>  <∆G_bound>  (193) 
-4.962742

>  <∆G_unbound>  (193) 
0.298965

>  <comRMSD>  (193) 
0.637105

>  <N_constrained_atoms>  (193) 
18.0

>  <N_unconstrained_atoms>  (193) 
0.0

>  <runtime>  (193) 
27.978124

>  <LE>  (193) 
0.292317

>  <percent_hybrid>  (193) 
19.0

>  <dist>  (193) 
3.0

>  <ecfp4>  (193) 
0.320755

>  <daylight>  (193) 
0.503876

>  <topodist>  (193) 
1.0

>  <mces>  (193) 
19.0

>  <tdn>  (193) 
1.0

>  <tup>  (193) 
0.0

>  <rdn>  (193) 
0.0

>  <rup>  (193) 
0.0

>  <ldn>  (193) 
0.0

>  <lup>  (193) 
0.0

>  <mut>  (193) 
2.0

>  <maj>  (193) 
2.0

>  <min>  (193) 
0.0

>  <hyb>  (193) 
0.0

>  <sub>  (193) 
1.0

>  <query_index>  (193) 
246.0

>  <max_hit_Tanimoto>  (193) 
0.457143

>  <largest_ring>  (193) 
6

>  <N_interactions_kept>  (193) 
0.0

>  <N_interactions_lost>  (193) 
3.0

>  <interaction_uniqueness_metric>  (193) 
0.04341

>  <ad_hoc_penalty>  (193) 
-0.059299

>  <N_rotatable_bonds>  (193) 
2

>  <N_HA>  (193) 
17

>  <cluster>  (193) 
3007

>  <N_interactions>  (193) 
4

>  <Enamine>  (193) 
1

>  <Mcule>  (193) 
0

>  <N_PAINS>  (193) 
0

>  <UFF_Gibbs>  (193) 
79.069947

>  <strain_per_HA>  (193) 
4.651173

>  <intxn_scored>  (193) 
9.5

>  <saltbridge:HIS:51>  (193) 
0

>  <pistack:HIS:51>  (193) 
0

>  <hydroph_interaction:HIS:51>  (193) 
0

>  <hbond:ALA:132>  (193) 
0

>  <hbond:SER:135>  (193) 
0

>  <hydroph_interaction:TYR:150>  (193) 
1

>  <pistack:TYR:161>  (193) 
2

>  <hydroph_interaction:TYR:161>  (193) 
1

>  <hydroph_interaction:ASP:83>  (193) 
0

>  <hbond:TYR:130>  (193) 
0

>  <hydroph_interaction:ALA:132>  (193) 
0

>  <hbond:HIS:51>  (193) 
0

>  <hbond:ASP:129>  (193) 
0

>  <hbond:TYR:150>  (193) 
0

>  <hbond:GLY:151>  (193) 
0

>  <hbond:TYR:161>  (193) 
0

>  <hydroph_interaction:TYR:130>  (193) 
0

>  <hydroph_interaction:PRO:131>  (193) 
0

>  <hydroph_interaction:ASP:129>  (193) 
0

>  <saltbridge:ASP:75>  (193) 
0

>  <saltbridge:ASP:83>  (193) 
0

>  <hbond:ASN:152>  (193) 
0

>  <hydroph_interaction:ASN:152>  (193) 
0

>  <halogenbond:TYR:150>  (193) 
0

>  <hbond:ASP:83>  (193) 
0

>  <hydroph_interaction:VAL:155>  (193) 
0

>  <pication:TYR:161>  (193) 
0

>  <hbond:PRO:131>  (193) 
0

>  <saltbridge:ASP:129>  (193) 
0

>  <hbond:THR:134>  (193) 
0

>  <pication:HIS:51>  (193) 
0

>  <hbond:SER:81>  (193) 
0

>  <hydroph_interaction:THR:134>  (193) 
0

>  <hydroph_interaction:MET:49>  (193) 
0

$$$$
CSSB00000105174
     RDKit          3D

 21 22  0  0  0  0  0  0  0  0999 V2000
  -10.9730    4.9710  -18.5820 C   0  0  0  0  0  0  0  0  0  0  0  0
   -9.5240    4.9900  -18.1680 C   0  0  0  0  0  0  0  0  0  0  0  0
   -9.2750    4.9670  -16.8060 C   0  0  0  0  0  0  0  0  0  0  0  0
   -7.9330    5.0410  -16.4070 C   0  0  0  0  0  0  0  0  0  0  0  0
   -6.8780    5.1370  -17.3310 C   0  0  0  0  0  0  0  0  0  0  0  0
   -5.5460    5.2330  -16.8950 C   0  0  0  0  0  0  0  0  0  0  0  0
   -5.2150    5.0440  -15.7300 O   0  0  0  0  0  0  0  0  0  0  0  0
   -4.5890    5.5830  -17.9210 N   0  0  0  0  0  0  0  0  0  0  0  0
   -4.9040    5.4580  -19.3190 C   0  0  0  0  0  0  0  0  0  0  0  0
   -6.2040    5.2370  -19.7130 C   0  0  0  0  0  0  0  0  0  0  0  0
   -7.1880    5.1440  -18.7270 C   0  0  0  0  0  0  0  0  0  0  0  0
   -8.5170    5.0650  -19.1190 C   0  0  0  0  0  0  0  0  0  0  0  0
  -11.4810    4.0400  -18.4050 H   0  0  0  0  0  0  0  0  0  0  0  0
  -11.0550    5.3170  -19.6110 H   0  0  0  0  0  0  0  0  0  0  0  0
  -11.4710    5.7200  -18.0210 H   0  0  0  0  0  0  0  0  0  0  0  0
  -10.0640    4.9060  -16.0640 H   0  0  0  0  0  0  0  0  0  0  0  0
   -7.6980    5.0280  -15.3430 H   0  0  0  0  0  0  0  0  0  0  0  0
   -3.6220    5.6230  -17.6180 H   0  0  0  0  0  0  0  0  0  0  0  0
   -4.0620    5.5490  -19.9920 H   0  0  0  0  0  0  0  0  0  0  0  0
   -6.4740    5.1360  -20.7610 H   0  0  0  0  0  0  0  0  0  0  0  0
   -8.7750    5.0750  -20.1720 H   0  0  0  0  0  0  0  0  0  0  0  0
  1  2  1  0
  2  3  2  0
  3  4  1  0
  4  5  2  0
  5  6  1  0
  6  7  2  0
  6  8  1  0
  8  9  1  0
  9 10  2  0
 10 11  1  0
 11 12  2  0
 12  2  1  0
 11  5  1  0
  1 13  1  0
  1 14  1  0
  1 15  1  0
  3 16  1  0
  4 17  1  0
  8 18  1  0
  9 19  1  0
 10 20  1  0
 12 21  1  0
A    1
 C1 
A    2
 C2 
A    3
 C3 
A    4
 C4 
A    5
 C5 
A    6
 C6 
A    7
 O1 
A    8
 N1 
A    9
 C7 
A   10
 C8 
A   11
 C9 
A   12
 C10
A   13
 H1 
A   14
 H2 
A   15
 H3 
A   16
 H4 
A   17
 H5 
A   18
 H6 
A   19
 H7 
A   20
 H8 
A   21
 H9 
M  END
>  <ref_pdb>  (194) 
x0051_0B

>  <ref_mols>  (194) 
x0727_0B,x0605_0B

>  <original SMILES>  (194) 
[H]c1c(C([H])([H])[H])c([H])c2c([H])c([H])n([H])c(=O)c2c1[H]

>  <index>  (194) 
3569

>  <∆∆G>  (194) 
-6.222583

>  <∆G_bound>  (194) 
-6.052816

>  <∆G_unbound>  (194) 
0.169767

>  <comRMSD>  (194) 
0.707933

>  <N_constrained_atoms>  (194) 
12.0

>  <N_unconstrained_atoms>  (194) 
0.0

>  <runtime>  (194) 
25.212055

>  <LE>  (194) 
0.518549

>  <percent_hybrid>  (194) 
25.0

>  <dist>  (194) 
3.0

>  <ecfp4>  (194) 
0.229167

>  <daylight>  (194) 
0.137405

>  <topodist>  (194) 
1.0

>  <mces>  (194) 
13.0

>  <tdn>  (194) 
1.0

>  <tup>  (194) 
0.0

>  <rdn>  (194) 
0.0

>  <rup>  (194) 
0.0

>  <ldn>  (194) 
0.0

>  <lup>  (194) 
0.0

>  <mut>  (194) 
1.0

>  <maj>  (194) 
1.0

>  <min>  (194) 
0.0

>  <hyb>  (194) 
1.0

>  <sub>  (194) 
0.0

>  <query_index>  (194) 
74.0

>  <max_hit_Tanimoto>  (194) 
0.31068

>  <largest_ring>  (194) 
6

>  <N_interactions_kept>  (194) 
0.0

>  <N_interactions_lost>  (194) 
3.5

>  <interaction_uniqueness_metric>  (194) 
0.04341

>  <ad_hoc_penalty>  (194) 
-2.243918

>  <N_rotatable_bonds>  (194) 
1

>  <N_HA>  (194) 
12

>  <cluster>  (194) 
2904

>  <N_interactions>  (194) 
4

>  <Enamine>  (194) 
1

>  <Mcule>  (194) 
0

>  <N_PAINS>  (194) 
0

>  <UFF_Gibbs>  (194) 
24.032617

>  <strain_per_HA>  (194) 
2.002718

>  <intxn_scored>  (194) 
9.5

>  <saltbridge:HIS:51>  (194) 
0

>  <pistack:HIS:51>  (194) 
0

>  <hydroph_interaction:HIS:51>  (194) 
0

>  <hbond:ALA:132>  (194) 
0

>  <hbond:SER:135>  (194) 
0

>  <hydroph_interaction:TYR:150>  (194) 
1

>  <pistack:TYR:161>  (194) 
2

>  <hydroph_interaction:TYR:161>  (194) 
1

>  <hydroph_interaction:ASP:83>  (194) 
0

>  <hbond:TYR:130>  (194) 
0

>  <hydroph_interaction:ALA:132>  (194) 
0

>  <hbond:HIS:51>  (194) 
0

>  <hbond:ASP:129>  (194) 
0

>  <hbond:TYR:150>  (194) 
0

>  <hbond:GLY:151>  (194) 
0

>  <hbond:TYR:161>  (194) 
0

>  <hydroph_interaction:TYR:130>  (194) 
0

>  <hydroph_interaction:PRO:131>  (194) 
0

>  <hydroph_interaction:ASP:129>  (194) 
0

>  <saltbridge:ASP:75>  (194) 
0

>  <saltbridge:ASP:83>  (194) 
0

>  <hbond:ASN:152>  (194) 
0

>  <hydroph_interaction:ASN:152>  (194) 
0

>  <halogenbond:TYR:150>  (194) 
0

>  <hbond:ASP:83>  (194) 
0

>  <hydroph_interaction:VAL:155>  (194) 
0

>  <pication:TYR:161>  (194) 
0

>  <hbond:PRO:131>  (194) 
0

>  <saltbridge:ASP:129>  (194) 
0

>  <hbond:THR:134>  (194) 
0

>  <pication:HIS:51>  (194) 
0

>  <hbond:SER:81>  (194) 
0

>  <hydroph_interaction:THR:134>  (194) 
0

>  <hydroph_interaction:MET:49>  (194) 
0

$$$$
CSSB00011620630
     RDKit          3D

 22 23  0  0  0  0  0  0  0  0999 V2000
   -9.9130    4.8310  -18.1980 C   0  0  0  0  0  0  0  0  0  0  0  0
   -8.7190    5.0820  -17.3160 C   0  0  0  0  0  0  0  0  0  0  0  0
   -8.7980    5.2580  -15.8060 C   0  0  0  0  0  0  0  0  0  0  0  0
  -10.1400    5.2630  -14.7480 Cl  0  0  0  0  0  0  0  0  0  0  0  0
   -7.4810    5.4680  -15.1150 C   0  0  0  0  0  0  0  0  0  0  0  0
   -6.3180    5.5060  -15.8170 C   0  0  0  0  0  0  0  0  0  0  0  0
   -6.3090    5.3630  -17.1920 C   0  0  0  0  0  0  0  0  0  0  0  0
   -5.0200    5.4270  -17.9370 C   0  0  0  0  0  0  0  0  0  0  0  0
   -3.8420    5.6360  -17.0920 N   0  0  0  0  0  0  0  0  0  0  0  0
   -4.9980    5.2920  -19.3310 C   0  0  0  0  0  0  0  0  0  0  0  0
   -6.2150    5.0870  -20.0150 C   0  0  0  0  0  0  0  0  0  0  0  0
   -7.4160    5.0110  -19.4030 N   0  0  0  0  0  0  0  0  0  0  0  0
   -7.4820    5.1540  -17.9400 C   0  0  0  0  0  0  0  0  0  0  0  0
   -9.8210    5.3720  -19.1460 H   0  0  0  0  0  0  0  0  0  0  0  0
   -9.9940    3.7660  -18.4080 H   0  0  0  0  0  0  0  0  0  0  0  0
  -10.8260    5.1600  -17.7110 H   0  0  0  0  0  0  0  0  0  0  0  0
   -7.4330    5.5960  -14.0400 H   0  0  0  0  0  0  0  0  0  0  0  0
   -5.3770    5.6560  -15.3070 H   0  0  0  0  0  0  0  0  0  0  0  0
   -4.0360    5.3540  -16.1320 H   0  0  0  0  0  0  0  0  0  0  0  0
   -3.5000    6.5890  -17.1100 H   0  0  0  0  0  0  0  0  0  0  0  0
   -4.0610    5.3420  -19.8760 H   0  0  0  0  0  0  0  0  0  0  0  0
   -6.2070    4.9790  -21.0990 H   0  0  0  0  0  0  0  0  0  0  0  0
  1  2  1  0
  2  3  2  0
  3  4  1  0
  3  5  1  0
  5  6  2  0
  6  7  1  0
  7  8  2  0
  8  9  1  0
  8 10  1  0
 10 11  2  0
 11 12  1  0
 12 13  2  0
 13  2  1  0
 13  7  1  0
  1 14  1  0
  1 15  1  0
  1 16  1  0
  5 17  1  0
  6 18  1  0
  9 19  1  0
  9 20  1  0
 10 21  1  0
 11 22  1  0
A    1
 C1 
A    2
 C2 
A    3
 C3 
A    4
CL1 
A    5
 C4 
A    6
 C5 
A    7
 C6 
A    8
 C7 
A    9
 N1 
A   10
 C8 
A   11
 C9 
A   12
 N2 
A   13
 C10
A   14
 H1 
A   15
 H2 
A   16
 H3 
A   17
 H4 
A   18
 H5 
A   19
 H6 
A   20
 H7 
A   21
 H8 
A   22
 H9 
M  END
>  <ref_pdb>  (195) 
x0051_0B

>  <ref_mols>  (195) 
x0425_0B,x0435_0B

>  <original SMILES>  (195) 
[H]c1nc2c(C([H])([H])[H])c(Cl)c([H])c([H])c2c(N([H])[H])c1[H]

>  <index>  (195) 
2831

>  <∆∆G>  (195) 
-5.385911

>  <∆G_bound>  (195) 
-5.429539

>  <∆G_unbound>  (195) 
-0.043627

>  <comRMSD>  (195) 
0.870778

>  <N_constrained_atoms>  (195) 
13.0

>  <N_unconstrained_atoms>  (195) 
2.0

>  <runtime>  (195) 
22.150851

>  <LE>  (195) 
0.359061

>  <percent_hybrid>  (195) 
40.0

>  <dist>  (195) 
2.0

>  <ecfp4>  (195) 
0.276596

>  <daylight>  (195) 
0.494253

>  <topodist>  (195) 
2.0

>  <mces>  (195) 
13.0

>  <tdn>  (195) 
0.0

>  <tup>  (195) 
1.0

>  <rdn>  (195) 
0.0

>  <rup>  (195) 
0.0

>  <ldn>  (195) 
1.0

>  <lup>  (195) 
0.0

>  <mut>  (195) 
0.0

>  <maj>  (195) 
0.0

>  <min>  (195) 
0.0

>  <hyb>  (195) 
0.0

>  <sub>  (195) 
1.0

>  <query_index>  (195) 
107.0

>  <max_hit_Tanimoto>  (195) 
0.145897

>  <largest_ring>  (195) 
6

>  <N_interactions_kept>  (195) 
1.0

>  <N_interactions_lost>  (195) 
2.5

>  <interaction_uniqueness_metric>  (195) 
0.04341

>  <ad_hoc_penalty>  (195) 
-0.018653

>  <N_rotatable_bonds>  (195) 
2

>  <N_HA>  (195) 
13

>  <cluster>  (195) 
3604

>  <N_interactions>  (195) 
4

>  <Enamine>  (195) 
1

>  <Mcule>  (195) 
0

>  <N_PAINS>  (195) 
0

>  <UFF_Gibbs>  (195) 
100.791402

>  <strain_per_HA>  (195) 
7.753185

>  <intxn_scored>  (195) 
9.5

>  <saltbridge:HIS:51>  (195) 
0

>  <pistack:HIS:51>  (195) 
0

>  <hydroph_interaction:HIS:51>  (195) 
0

>  <hbond:ALA:132>  (195) 
0

>  <hbond:SER:135>  (195) 
0

>  <hydroph_interaction:TYR:150>  (195) 
1

>  <pistack:TYR:161>  (195) 
2

>  <hydroph_interaction:TYR:161>  (195) 
1

>  <hydroph_interaction:ASP:83>  (195) 
0

>  <hbond:TYR:130>  (195) 
0

>  <hydroph_interaction:ALA:132>  (195) 
0

>  <hbond:HIS:51>  (195) 
0

>  <hbond:ASP:129>  (195) 
0

>  <hbond:TYR:150>  (195) 
0

>  <hbond:GLY:151>  (195) 
0

>  <hbond:TYR:161>  (195) 
0

>  <hydroph_interaction:TYR:130>  (195) 
0

>  <hydroph_interaction:PRO:131>  (195) 
0

>  <hydroph_interaction:ASP:129>  (195) 
0

>  <saltbridge:ASP:75>  (195) 
0

>  <saltbridge:ASP:83>  (195) 
0

>  <hbond:ASN:152>  (195) 
0

>  <hydroph_interaction:ASN:152>  (195) 
0

>  <halogenbond:TYR:150>  (195) 
0

>  <hbond:ASP:83>  (195) 
0

>  <hydroph_interaction:VAL:155>  (195) 
0

>  <pication:TYR:161>  (195) 
0

>  <hbond:PRO:131>  (195) 
0

>  <saltbridge:ASP:129>  (195) 
0

>  <hbond:THR:134>  (195) 
0

>  <pication:HIS:51>  (195) 
0

>  <hbond:SER:81>  (195) 
0

>  <hydroph_interaction:THR:134>  (195) 
0

>  <hydroph_interaction:MET:49>  (195) 
0

$$$$
Z3497256884
     RDKit          3D

 39 41  0  0  0  0  0  0  0  0999 V2000
  -10.3310    4.7220  -17.9510 C   0  0  0  0  0  0  0  0  0  0  0  0
   -8.8860    4.9230  -17.8400 C   0  0  0  0  0  0  0  0  0  0  0  0
   -8.0780    4.9820  -19.1500 C   0  0  0  0  0  0  0  0  0  0  0  0
   -6.5800    5.2000  -18.9130 C   0  0  0  0  0  0  0  0  0  0  0  0
   -6.0800    5.3270  -17.4730 C   0  0  0  0  0  0  0  0  0  0  0  0
   -6.9450    5.2510  -16.3750 C   0  0  0  0  0  0  0  0  0  0  0  0
   -6.3750    5.3760  -15.2750 O   0  0  0  0  0  0  0  0  0  0  0  0
   -6.8820    4.6240  -14.1610 C   0  0  0  0  0  0  0  0  0  0  0  0
   -7.0190    5.5000  -12.9150 C   0  0  0  0  0  0  0  0  0  0  0  0
   -8.7780    5.7360  -12.4600 S   0  0  0  0  0  0  0  0  0  0  0  0
   -8.8360    5.5870  -10.7200 C   0  0  0  0  0  0  0  0  0  0  0  0
   -9.0210    4.3490   -9.9020 C   0  0  0  0  0  0  0  0  0  0  0  0
   -9.1800    3.0200  -10.2700 C   0  0  0  0  0  0  0  0  0  0  0  0
   -8.9710    2.1090   -9.1480 N   0  0  0  0  0  0  0  0  0  0  0  0
   -9.6470    2.5620   -7.9160 C   0  0  0  0  0  0  0  0  0  0  0  0
   -9.1770    3.9430   -7.4620 C   0  0  0  0  0  0  0  0  0  0  0  0
   -9.0120    4.8000   -8.6110 N   0  0  0  0  0  0  0  0  0  0  0  0
   -8.8380    6.1320   -8.4820 N   0  0  0  0  0  0  0  0  0  0  0  0
   -8.7340    6.6010   -9.7440 C   0  0  0  0  0  0  0  0  0  0  0  0
   -8.3080    5.0530  -16.5620 C   0  0  0  0  0  0  0  0  0  0  0  0
  -10.5300    3.9350  -18.6790 H   0  0  0  0  0  0  0  0  0  0  0  0
  -10.8580    5.6160  -18.2830 H   0  0  0  0  0  0  0  0  0  0  0  0
  -10.7080    4.4440  -16.9720 H   0  0  0  0  0  0  0  0  0  0  0  0
   -8.6360    4.8680  -20.0670 H   0  0  0  0  0  0  0  0  0  0  0  0
   -5.8870    5.2610  -19.7460 H   0  0  0  0  0  0  0  0  0  0  0  0
   -4.9960    5.4790  -17.4270 H   0  0  0  0  0  0  0  0  0  0  0  0
   -6.2380    3.7630  -13.9500 H   0  0  0  0  0  0  0  0  0  0  0  0
   -7.8760    4.2290  -14.4090 H   0  0  0  0  0  0  0  0  0  0  0  0
   -6.5790    6.4810  -13.1290 H   0  0  0  0  0  0  0  0  0  0  0  0
   -6.4850    5.0430  -12.0730 H   0  0  0  0  0  0  0  0  0  0  0  0
  -10.1590    2.8370  -10.7100 H   0  0  0  0  0  0  0  0  0  0  0  0
   -8.4470    2.7630  -11.0430 H   0  0  0  0  0  0  0  0  0  0  0  0
   -7.9690    2.1060   -8.9910 H   0  0  0  0  0  0  0  0  0  0  0  0
  -10.7270    2.5760   -8.0800 H   0  0  0  0  0  0  0  0  0  0  0  0
   -9.4500    1.8360   -7.1210 H   0  0  0  0  0  0  0  0  0  0  0  0
   -8.2140    3.8830   -6.9520 H   0  0  0  0  0  0  0  0  0  0  0  0
   -9.8990    4.3910   -6.7690 H   0  0  0  0  0  0  0  0  0  0  0  0
   -8.5910    7.6760   -9.8890 H   0  0  0  0  0  0  0  0  0  0  0  0
   -8.9770    4.9950  -15.7070 H   0  0  0  0  0  0  0  0  0  0  0  0
  1  2  1  0
  2  3  2  0
  3  4  1  0
  4  5  2  0
  5  6  1  0
  6  7  1  0
  7  8  1  0
  8  9  1  0
  9 10  1  0
 10 11  1  0
 11 12  2  0
 12 13  1  0
 13 14  1  0
 14 15  1  0
 15 16  1  0
 16 17  1  0
 17 18  1  0
 18 19  2  0
  6 20  2  0
 20  2  1  0
 19 11  1  0
 17 12  1  0
  1 21  1  0
  1 22  1  0
  1 23  1  0
  3 24  1  0
  4 25  1  0
  5 26  1  0
  8 27  1  0
  8 28  1  0
  9 29  1  0
  9 30  1  0
 13 31  1  0
 13 32  1  0
 14 33  1  0
 15 34  1  0
 15 35  1  0
 16 36  1  0
 16 37  1  0
 19 38  1  0
 20 39  1  0
A    1
 C1 
A    2
 C2 
A    3
 C3 
A    4
 C4 
A    5
 C5 
A    6
 C6 
A    7
 O1 
A    8
 C7 
A    9
 C8 
A   10
 S1 
A   11
 C9 
A   12
 C10
A   13
 C11
A   14
 N1 
A   15
 C12
A   16
 C13
A   17
 N2 
A   18
 N3 
A   19
 C14
A   20
 C15
A   21
 H1 
A   22
 H2 
A   23
 H3 
A   24
 H4 
A   25
 H5 
A   26
 H6 
A   27
 H7 
A   28
 H8 
A   29
 H9 
A   30
 H10
A   31
 H11
A   32
 H12
A   33
 H13
A   34
 H14
A   35
 H15
A   36
 H16
A   37
 H17
A   38
 H18
A   39
 H19
M  END
>  <ref_pdb>  (196) 
x0051_0B

>  <ref_mols>  (196) 
x0605_0B,x0969_1B

>  <original SMILES>  (196) 
[H]c1nn2c(c1SC([H])([H])C([H])([H])Oc1c([H])c([H])c([H])c(C([H])([H])[H])c1[H])C([H])([H])N([H])C([H])([H])C2([H])[H]

>  <index>  (196) 
2854

>  <∆∆G>  (196) 
-6.751678

>  <∆G_bound>  (196) 
-6.609881

>  <∆G_unbound>  (196) 
0.141797

>  <comRMSD>  (196) 
0.3671

>  <N_constrained_atoms>  (196) 
19.0

>  <N_unconstrained_atoms>  (196) 
2.0

>  <runtime>  (196) 
50.775369

>  <LE>  (196) 
0.321508

>  <percent_hybrid>  (196) 
48.0

>  <dist>  (196) 
5.0

>  <ecfp4>  (196) 
0.4

>  <daylight>  (196) 
0.441296

>  <topodist>  (196) 
1.0

>  <mces>  (196) 
22.0

>  <tdn>  (196) 
1.0

>  <tup>  (196) 
0.0

>  <rdn>  (196) 
0.0

>  <rup>  (196) 
0.0

>  <ldn>  (196) 
0.0

>  <lup>  (196) 
0.0

>  <mut>  (196) 
3.0

>  <maj>  (196) 
3.0

>  <min>  (196) 
0.0

>  <hyb>  (196) 
1.0

>  <sub>  (196) 
0.0

>  <query_index>  (196) 
307.0

>  <max_hit_Tanimoto>  (196) 
0.462668

>  <largest_ring>  (196) 
6

>  <N_interactions_kept>  (196) 
0.5

>  <N_interactions_lost>  (196) 
2.5

>  <interaction_uniqueness_metric>  (196) 
0.192402

>  <ad_hoc_penalty>  (196) 
-4.525885

>  <N_rotatable_bonds>  (196) 
6

>  <N_HA>  (196) 
20

>  <cluster>  (196) 
3584

>  <N_interactions>  (196) 
5

>  <Enamine>  (196) 
1

>  <Mcule>  (196) 
0

>  <N_PAINS>  (196) 
0

>  <UFF_Gibbs>  (196) 
96.797175

>  <strain_per_HA>  (196) 
4.839859

>  <intxn_scored>  (196) 
9.5

>  <saltbridge:HIS:51>  (196) 
0

>  <pistack:HIS:51>  (196) 
1

>  <hydroph_interaction:HIS:51>  (196) 
0

>  <hbond:ALA:132>  (196) 
0

>  <hbond:SER:135>  (196) 
0

>  <hydroph_interaction:TYR:150>  (196) 
1

>  <pistack:TYR:161>  (196) 
1

>  <hydroph_interaction:TYR:161>  (196) 
1

>  <hydroph_interaction:ASP:83>  (196) 
0

>  <hbond:TYR:130>  (196) 
0

>  <hydroph_interaction:ALA:132>  (196) 
0

>  <hbond:HIS:51>  (196) 
0

>  <hbond:ASP:129>  (196) 
0

>  <hbond:TYR:150>  (196) 
0

>  <hbond:GLY:151>  (196) 
0

>  <hbond:TYR:161>  (196) 
0

>  <hydroph_interaction:TYR:130>  (196) 
0

>  <hydroph_interaction:PRO:131>  (196) 
0

>  <hydroph_interaction:ASP:129>  (196) 
0

>  <saltbridge:ASP:75>  (196) 
0

>  <saltbridge:ASP:83>  (196) 
0

>  <hbond:ASN:152>  (196) 
0

>  <hydroph_interaction:ASN:152>  (196) 
0

>  <halogenbond:TYR:150>  (196) 
0

>  <hbond:ASP:83>  (196) 
1

>  <hydroph_interaction:VAL:155>  (196) 
0

>  <pication:TYR:161>  (196) 
0

>  <hbond:PRO:131>  (196) 
0

>  <saltbridge:ASP:129>  (196) 
0

>  <hbond:THR:134>  (196) 
0

>  <pication:HIS:51>  (196) 
0

>  <hbond:SER:81>  (196) 
0

>  <hydroph_interaction:THR:134>  (196) 
0

>  <hydroph_interaction:MET:49>  (196) 
0

$$$$
PV-002380672695
     RDKit          3D

 25 26  0  0  0  0  0  0  0  0999 V2000
   -3.1020    5.0760  -19.3250 C   0  0  0  0  0  0  0  0  0  0  0  0
   -3.9220    5.2930  -20.5010 N   0  0  0  0  0  0  0  0  0  0  0  0
   -3.4560    4.9660  -21.7590 C   0  0  0  0  0  0  0  0  0  0  0  0
   -5.2860    5.5910  -20.3390 C   0  0  0  0  0  0  0  0  0  0  0  0
   -6.0420    5.9270  -21.2510 O   0  0  0  0  0  0  0  0  0  0  0  0
   -5.8920    5.5450  -19.0790 C   0  0  0  0  0  0  0  0  0  0  0  0
   -5.2220    5.7960  -17.8780 C   0  0  0  0  0  0  0  0  0  0  0  0
   -5.9920    5.7010  -16.7730 O   0  0  0  0  0  0  0  0  0  0  0  0
   -7.2300    5.3760  -17.2280 C   0  0  0  0  0  0  0  0  0  0  0  0
   -7.2330    5.2570  -18.7000 C   0  0  0  0  0  0  0  0  0  0  0  0
   -8.4300    4.9220  -19.3130 C   0  0  0  0  0  0  0  0  0  0  0  0
   -9.5830    4.7100  -18.5590 C   0  0  0  0  0  0  0  0  0  0  0  0
   -9.5680    4.8270  -17.1720 C   0  0  0  0  0  0  0  0  0  0  0  0
   -8.3980    5.1600  -16.5000 C   0  0  0  0  0  0  0  0  0  0  0  0
   -8.4100    5.2710  -15.1650 F   0  0  0  0  0  0  0  0  0  0  0  0
   -2.7320    6.0220  -18.9210 H   0  0  0  0  0  0  0  0  0  0  0  0
   -3.6690    4.5340  -18.5630 H   0  0  0  0  0  0  0  0  0  0  0  0
   -2.2390    4.4550  -19.5930 H   0  0  0  0  0  0  0  0  0  0  0  0
   -2.9010    5.8100  -22.1790 H   0  0  0  0  0  0  0  0  0  0  0  0
   -2.7820    4.1020  -21.6920 H   0  0  0  0  0  0  0  0  0  0  0  0
   -4.2930    4.6900  -22.4140 H   0  0  0  0  0  0  0  0  0  0  0  0
   -4.1690    6.0510  -17.7880 H   0  0  0  0  0  0  0  0  0  0  0  0
   -8.3890    4.8410  -20.4030 H   0  0  0  0  0  0  0  0  0  0  0  0
  -10.5120    4.4510  -19.0520 H   0  0  0  0  0  0  0  0  0  0  0  0
  -10.4660    4.6590  -16.5940 H   0  0  0  0  0  0  0  0  0  0  0  0
  1  2  1  0
  2  3  1  0
  2  4  1  0
  4  5  2  0
  4  6  1  0
  6  7  2  0
  7  8  1  0
  8  9  1  0
  9 10  2  0
 10 11  1  0
 11 12  2  0
 12 13  1  0
 13 14  2  0
 14 15  1  0
 10  6  1  0
 14  9  1  0
  1 16  1  0
  1 17  1  0
  1 18  1  0
  3 19  1  0
  3 20  1  0
  3 21  1  0
  7 22  1  0
 11 23  1  0
 12 24  1  0
 13 25  1  0
A    1
 C1 
A    2
 N1 
A    3
 C2 
A    4
 C3 
A    5
 O1 
A    6
 C4 
A    7
 C5 
A    8
 O2 
A    9
 C6 
A   10
 C7 
A   11
 C8 
A   12
 C9 
A   13
 C10
A   14
 C11
A   15
 F1 
A   16
 H1 
A   17
 H2 
A   18
 H3 
A   19
 H4 
A   20
 H5 
A   21
 H6 
A   22
 H7 
A   23
 H8 
A   24
 H9 
A   25
 H10
M  END
>  <ref_pdb>  (197) 
x0051_0B

>  <ref_mols>  (197) 
x0904_0B,x0435_0B

>  <original SMILES>  (197) 
[H]c1oc2c(F)c([H])c([H])c([H])c2c1C(=O)N(C([H])([H])[H])C([H])([H])[H]

>  <index>  (197) 
2403

>  <∆∆G>  (197) 
-6.811551

>  <∆G_bound>  (197) 
-6.920624

>  <∆G_unbound>  (197) 
-0.109073

>  <comRMSD>  (197) 
0.826432

>  <N_constrained_atoms>  (197) 
16.0

>  <N_unconstrained_atoms>  (197) 
1.0

>  <runtime>  (197) 
25.265643

>  <LE>  (197) 
0.400679

>  <percent_hybrid>  (197) 
25.0

>  <dist>  (197) 
3.0

>  <ecfp4>  (197) 
0.363636

>  <daylight>  (197) 
0.226744

>  <topodist>  (197) 
1.0

>  <mces>  (197) 
16.0

>  <tdn>  (197) 
0.0

>  <tup>  (197) 
0.0

>  <rdn>  (197) 
0.0

>  <rup>  (197) 
0.0

>  <ldn>  (197) 
1.0

>  <lup>  (197) 
0.0

>  <mut>  (197) 
2.0

>  <maj>  (197) 
2.0

>  <min>  (197) 
0.0

>  <hyb>  (197) 
0.0

>  <sub>  (197) 
0.0

>  <query_index>  (197) 
154.0

>  <max_hit_Tanimoto>  (197) 
0.128951

>  <largest_ring>  (197) 
6

>  <N_interactions_kept>  (197) 
1.5

>  <N_interactions_lost>  (197) 
2.5

>  <interaction_uniqueness_metric>  (197) 
0.04341

>  <ad_hoc_penalty>  (197) 
-4.448275

>  <N_rotatable_bonds>  (197) 
3

>  <N_HA>  (197) 
15

>  <cluster>  (197) 
4008

>  <N_interactions>  (197) 
4

>  <Enamine>  (197) 
1

>  <Mcule>  (197) 
0

>  <N_PAINS>  (197) 
0

>  <UFF_Gibbs>  (197) 
85.253034

>  <strain_per_HA>  (197) 
5.683536

>  <intxn_scored>  (197) 
9.5

>  <saltbridge:HIS:51>  (197) 
0

>  <pistack:HIS:51>  (197) 
0

>  <hydroph_interaction:HIS:51>  (197) 
0

>  <hbond:ALA:132>  (197) 
0

>  <hbond:SER:135>  (197) 
0

>  <hydroph_interaction:TYR:150>  (197) 
1

>  <pistack:TYR:161>  (197) 
2

>  <hydroph_interaction:TYR:161>  (197) 
1

>  <hydroph_interaction:ASP:83>  (197) 
0

>  <hbond:TYR:130>  (197) 
0

>  <hydroph_interaction:ALA:132>  (197) 
0

>  <hbond:HIS:51>  (197) 
0

>  <hbond:ASP:129>  (197) 
0

>  <hbond:TYR:150>  (197) 
0

>  <hbond:GLY:151>  (197) 
0

>  <hbond:TYR:161>  (197) 
0

>  <hydroph_interaction:TYR:130>  (197) 
0

>  <hydroph_interaction:PRO:131>  (197) 
0

>  <hydroph_interaction:ASP:129>  (197) 
0

>  <saltbridge:ASP:75>  (197) 
0

>  <saltbridge:ASP:83>  (197) 
0

>  <hbond:ASN:152>  (197) 
0

>  <hydroph_interaction:ASN:152>  (197) 
0

>  <halogenbond:TYR:150>  (197) 
0

>  <hbond:ASP:83>  (197) 
0

>  <hydroph_interaction:VAL:155>  (197) 
0

>  <pication:TYR:161>  (197) 
0

>  <hbond:PRO:131>  (197) 
0

>  <saltbridge:ASP:129>  (197) 
0

>  <hbond:THR:134>  (197) 
0

>  <pication:HIS:51>  (197) 
0

>  <hbond:SER:81>  (197) 
0

>  <hydroph_interaction:THR:134>  (197) 
0

>  <hydroph_interaction:MET:49>  (197) 
0

$$$$
CSSB00011620600
     RDKit          3D

 25 26  0  0  0  0  0  0  0  0999 V2000
   -9.0470    5.0590  -14.0990 C   0  0  0  0  0  0  0  0  0  0  0  0
   -8.6310    5.0790  -15.5880 C   0  0  0  0  0  0  0  0  0  0  0  0
   -7.1350    5.2930  -15.8090 C   0  0  0  0  0  0  0  0  0  0  0  0
   -6.5950    5.3400  -17.1010 C   0  0  0  0  0  0  0  0  0  0  0  0
   -5.0670    5.5480  -17.3260 C   0  0  0  0  0  0  0  0  0  0  0  0
   -4.0600    5.7020  -16.3460 N   0  0  0  0  0  0  0  0  0  0  0  0
   -4.6150    5.5840  -18.8100 C   0  0  0  0  0  0  0  0  0  0  0  0
   -5.7030    5.4160  -19.7850 C   0  0  0  0  0  0  0  0  0  0  0  0
   -7.1140    5.2230  -19.4770 N   0  0  0  0  0  0  0  0  0  0  0  0
   -7.4910    5.1890  -18.1990 C   0  0  0  0  0  0  0  0  0  0  0  0
   -8.9400    4.9710  -17.9450 C   0  0  0  0  0  0  0  0  0  0  0  0
   -9.8030    4.8070  -19.0130 C   0  0  0  0  0  0  0  0  0  0  0  0
   -9.4630    4.9220  -16.6600 C   0  0  0  0  0  0  0  0  0  0  0  0
   -8.8410    6.0180  -13.6090 H   0  0  0  0  0  0  0  0  0  0  0  0
   -8.5380    4.2620  -13.5430 H   0  0  0  0  0  0  0  0  0  0  0  0
  -10.1230    4.8650  -13.9990 H   0  0  0  0  0  0  0  0  0  0  0  0
   -6.5450    5.4020  -14.8910 H   0  0  0  0  0  0  0  0  0  0  0  0
   -3.9810    6.6790  -16.0740 H   0  0  0  0  0  0  0  0  0  0  0  0
   -4.2290    5.1360  -15.5190 H   0  0  0  0  0  0  0  0  0  0  0  0
   -3.5810    5.7230  -19.1080 H   0  0  0  0  0  0  0  0  0  0  0  0
   -5.3970    5.4390  -20.8360 H   0  0  0  0  0  0  0  0  0  0  0  0
   -9.6190    3.8280  -19.4560 H   0  0  0  0  0  0  0  0  0  0  0  0
  -10.8540    4.8530  -18.6930 H   0  0  0  0  0  0  0  0  0  0  0  0
   -9.6540    5.5820  -19.7720 H   0  0  0  0  0  0  0  0  0  0  0  0
  -10.5150    4.7600  -16.5110 H   0  0  0  0  0  0  0  0  0  0  0  0
  1  2  1  0
  2  3  2  0
  3  4  1  0
  4  5  2  0
  5  6  1  0
  5  7  1  0
  7  8  2  0
  8  9  1  0
  9 10  2  0
 10 11  1  0
 11 12  1  0
 11 13  2  0
 13  2  1  0
 10  4  1  0
  1 14  1  0
  1 15  1  0
  1 16  1  0
  3 17  1  0
  6 18  1  0
  6 19  1  0
  7 20  1  0
  8 21  1  0
 12 22  1  0
 12 23  1  0
 12 24  1  0
 13 25  1  0
A    1
 C1 
A    2
 C2 
A    3
 C3 
A    4
 C4 
A    5
 C5 
A    6
 N1 
A    7
 C6 
A    8
 C7 
A    9
 N2 
A   10
 C8 
A   11
 C9 
A   12
 C10
A   13
 C11
A   14
 H1 
A   15
 H2 
A   16
 H3 
A   17
 H4 
A   18
 H5 
A   19
 H6 
A   20
 H7 
A   21
 H8 
A   22
 H9 
A   23
 H10
A   24
 H11
A   25
 H12
M  END
>  <ref_pdb>  (198) 
x0051_0B

>  <ref_mols>  (198) 
x0425_0B,x0435_0B

>  <original SMILES>  (198) 
[H]c1nc2c(C([H])([H])[H])c([H])c(C([H])([H])[H])c([H])c2c(N([H])[H])c1[H]

>  <index>  (198) 
2221

>  <∆∆G>  (198) 
-7.478209

>  <∆G_bound>  (198) 
-7.606654

>  <∆G_unbound>  (198) 
-0.128445

>  <comRMSD>  (198) 
0.88973

>  <N_constrained_atoms>  (198) 
13.0

>  <N_unconstrained_atoms>  (198) 
2.0

>  <runtime>  (198) 
19.614617

>  <LE>  (198) 
0.498547

>  <percent_hybrid>  (198) 
40.0

>  <dist>  (198) 
2.0

>  <ecfp4>  (198) 
0.404762

>  <daylight>  (198) 
0.565789

>  <topodist>  (198) 
2.0

>  <mces>  (198) 
13.0

>  <tdn>  (198) 
0.0

>  <tup>  (198) 
1.0

>  <rdn>  (198) 
0.0

>  <rup>  (198) 
0.0

>  <ldn>  (198) 
1.0

>  <lup>  (198) 
0.0

>  <mut>  (198) 
0.0

>  <maj>  (198) 
0.0

>  <min>  (198) 
0.0

>  <hyb>  (198) 
0.0

>  <sub>  (198) 
1.0

>  <query_index>  (198) 
107.0

>  <max_hit_Tanimoto>  (198) 
0.162671

>  <largest_ring>  (198) 
6

>  <N_interactions_kept>  (198) 
1.0

>  <N_interactions_lost>  (198) 
2.5

>  <interaction_uniqueness_metric>  (198) 
0.04341

>  <ad_hoc_penalty>  (198) 
-5.157908

>  <N_rotatable_bonds>  (198) 
3

>  <N_HA>  (198) 
13

>  <cluster>  (198) 
4177

>  <N_interactions>  (198) 
4

>  <Enamine>  (198) 
1

>  <Mcule>  (198) 
0

>  <N_PAINS>  (198) 
0

>  <UFF_Gibbs>  (198) 
76.798764

>  <strain_per_HA>  (198) 
5.907597

>  <intxn_scored>  (198) 
9.5

>  <saltbridge:HIS:51>  (198) 
0

>  <pistack:HIS:51>  (198) 
0

>  <hydroph_interaction:HIS:51>  (198) 
0

>  <hbond:ALA:132>  (198) 
0

>  <hbond:SER:135>  (198) 
0

>  <hydroph_interaction:TYR:150>  (198) 
1

>  <pistack:TYR:161>  (198) 
2

>  <hydroph_interaction:TYR:161>  (198) 
1

>  <hydroph_interaction:ASP:83>  (198) 
0

>  <hbond:TYR:130>  (198) 
0

>  <hydroph_interaction:ALA:132>  (198) 
0

>  <hbond:HIS:51>  (198) 
0

>  <hbond:ASP:129>  (198) 
0

>  <hbond:TYR:150>  (198) 
0

>  <hbond:GLY:151>  (198) 
0

>  <hbond:TYR:161>  (198) 
0

>  <hydroph_interaction:TYR:130>  (198) 
0

>  <hydroph_interaction:PRO:131>  (198) 
0

>  <hydroph_interaction:ASP:129>  (198) 
0

>  <saltbridge:ASP:75>  (198) 
0

>  <saltbridge:ASP:83>  (198) 
0

>  <hbond:ASN:152>  (198) 
0

>  <hydroph_interaction:ASN:152>  (198) 
0

>  <halogenbond:TYR:150>  (198) 
0

>  <hbond:ASP:83>  (198) 
0

>  <hydroph_interaction:VAL:155>  (198) 
0

>  <pication:TYR:161>  (198) 
0

>  <hbond:PRO:131>  (198) 
0

>  <saltbridge:ASP:129>  (198) 
0

>  <hbond:THR:134>  (198) 
0

>  <pication:HIS:51>  (198) 
0

>  <hbond:SER:81>  (198) 
0

>  <hydroph_interaction:THR:134>  (198) 
0

>  <hydroph_interaction:MET:49>  (198) 
0

$$$$
Z5316729895
     RDKit          3D

 50 53  0  0  0  0  0  0  0  0999 V2000
   -2.8370    4.8890  -17.8340 C   0  0  0  0  0  0  0  0  0  0  0  0
   -4.1340    5.1210  -18.0340 C   0  0  0  0  0  0  0  0  0  0  0  0
   -4.5990    5.2690  -19.2770 N   0  0  0  0  0  0  0  0  0  0  0  0
   -5.9470    5.4910  -19.1190 O   0  0  0  0  0  0  0  0  0  0  0  0
   -6.2940    5.4870  -17.7700 C   0  0  0  0  0  0  0  0  0  0  0  0
   -7.6640    5.7400  -17.5720 C   0  0  0  0  0  0  0  0  0  0  0  0
   -8.4270    5.0560  -18.5480 C   0  0  0  0  0  0  0  0  0  0  0  0
   -9.6790    4.6840  -18.1120 C   0  0  0  0  0  0  0  0  0  0  0  0
   -9.7050    5.1440  -16.6460 C   0  0  0  0  0  0  0  0  0  0  0  0
   -8.3250    5.3800  -16.2020 N   0  0  0  0  0  0  0  0  0  0  0  0
   -8.3790    6.6000  -14.8940 S   0  0  0  0  0  6  0  0  0  0  0  0
   -9.6420    7.2990  -14.9040 O   0  0  0  0  0  0  0  0  0  0  0  0
   -7.1850    7.3790  -14.9640 O   0  0  0  0  0  0  0  0  0  0  0  0
   -8.5190    5.9620  -13.2260 C   0  0  0  0  0  0  0  0  0  0  0  0
   -8.4810    6.8570  -12.1450 C   0  0  0  0  0  0  0  0  0  0  0  0
   -8.6110    6.3110  -10.7240 C   0  0  0  0  0  0  0  0  0  0  0  0
   -8.7650    4.9380  -10.5250 C   0  0  0  0  0  0  0  0  0  0  0  0
   -8.8920    4.3590   -9.2630 N   0  0  0  0  0  0  0  0  0  0  0  0
   -9.0560    2.8830   -9.2960 C   0  0  0  0  0  0  0  0  0  0  0  0
   -9.6300    2.3900   -7.9590 C   0  0  0  0  0  0  0  0  0  0  0  0
   -8.8700    2.8530   -6.7880 N   0  0  0  0  0  0  0  0  0  0  0  0
   -8.7670    4.3150   -6.7790 C   0  0  0  0  0  0  0  0  0  0  0  0
   -8.1980    4.9060   -8.0830 C   0  0  0  0  0  0  0  0  0  0  0  0
   -8.7930    4.1140  -11.6730 C   0  0  0  0  0  0  0  0  0  0  0  0
   -8.6740    4.6020  -12.9870 C   0  0  0  0  0  0  0  0  0  0  0  0
   -5.1580    5.2440  -17.0510 C   0  0  0  0  0  0  0  0  0  0  0  0
   -2.2210    5.7520  -17.5980 H   0  0  0  0  0  0  0  0  0  0  0  0
   -2.3740    4.2830  -18.6070 H   0  0  0  0  0  0  0  0  0  0  0  0
   -2.7870    4.3010  -16.9120 H   0  0  0  0  0  0  0  0  0  0  0  0
   -7.8050    6.7810  -17.6390 H   0  0  0  0  0  0  0  0  0  0  0  0
   -7.8870    4.3090  -19.1000 H   0  0  0  0  0  0  0  0  0  0  0  0
   -8.6160    5.7950  -19.3340 H   0  0  0  0  0  0  0  0  0  0  0  0
  -10.4680    5.1910  -18.6840 H   0  0  0  0  0  0  0  0  0  0  0  0
   -9.8200    3.6190  -18.2330 H   0  0  0  0  0  0  0  0  0  0  0  0
  -10.2030    4.4060  -16.0320 H   0  0  0  0  0  0  0  0  0  0  0  0
  -10.2690    6.0750  -16.5820 H   0  0  0  0  0  0  0  0  0  0  0  0
   -8.3620    7.9280  -12.3020 H   0  0  0  0  0  0  0  0  0  0  0  0
   -8.5820    7.0120   -9.8950 H   0  0  0  0  0  0  0  0  0  0  0  0
   -8.0950    2.3800   -9.4780 H   0  0  0  0  0  0  0  0  0  0  0  0
   -9.7520    2.6000  -10.0950 H   0  0  0  0  0  0  0  0  0  0  0  0
  -10.6650    2.7290   -7.8570 H   0  0  0  0  0  0  0  0  0  0  0  0
   -9.6580    1.3030   -7.9630 H   0  0  0  0  0  0  0  0  0  0  0  0
   -7.9410    2.4340   -6.8080 H   0  0  0  0  0  0  0  0  0  0  0  0
   -8.1270    4.6020   -5.9370 H   0  0  0  0  0  0  0  0  0  0  0  0
   -9.7590    4.7380   -6.5830 H   0  0  0  0  0  0  0  0  0  0  0  0
   -7.1360    4.6320   -8.1620 H   0  0  0  0  0  0  0  0  0  0  0  0
   -8.2080    6.0020   -8.0530 H   0  0  0  0  0  0  0  0  0  0  0  0
   -8.9150    3.0370  -11.5510 H   0  0  0  0  0  0  0  0  0  0  0  0
   -8.7040    3.9100  -13.8170 H   0  0  0  0  0  0  0  0  0  0  0  0
   -5.0590    5.1700  -15.9800 H   0  0  0  0  0  0  0  0  0  0  0  0
  1  2  1  0
  2  3  2  0
  3  4  1  0
  4  5  1  0
  5  6  1  0
  6  7  1  0
  7  8  1  0
  8  9  1  0
  9 10  1  0
 10 11  1  0
 11 12  2  0
 11 13  2  0
 11 14  1  0
 14 15  2  0
 15 16  1  0
 16 17  2  0
 17 18  1  0
 18 19  1  0
 19 20  1  0
 20 21  1  0
 21 22  1  0
 22 23  1  0
 17 24  1  0
 24 25  2  0
  5 26  2  0
 26  2  1  0
 10  6  1  0
 25 14  1  0
 23 18  1  0
  1 27  1  0
  1 28  1  0
  1 29  1  0
  6 30  1  0
  7 31  1  0
  7 32  1  0
  8 33  1  0
  8 34  1  0
  9 35  1  0
  9 36  1  0
 15 37  1  0
 16 38  1  0
 19 39  1  0
 19 40  1  0
 20 41  1  0
 20 42  1  0
 21 43  1  0
 22 44  1  0
 22 45  1  0
 23 46  1  0
 23 47  1  0
 24 48  1  0
 25 49  1  0
 26 50  1  0
A    1
 C1 
A    2
 C2 
A    3
 N1 
A    4
 O1 
A    5
 C3 
A    6
 C4 
A    7
 C5 
A    8
 C6 
A    9
 C7 
A   10
 N2 
A   11
 S1 
A   12
 O2 
A   13
 O3 
A   14
 C8 
A   15
 C9 
A   16
 C10
A   17
 C11
A   18
 N3 
A   19
 C12
A   20
 C13
A   21
 N4 
A   22
 C14
A   23
 C15
A   24
 C16
A   25
 C17
A   26
 C18
A   27
 H1 
A   28
 H2 
A   29
 H3 
A   30
 H4 
A   31
 H5 
A   32
 H6 
A   33
 H7 
A   34
 H8 
A   35
 H9 
A   36
 H10
A   37
 H11
A   38
 H12
A   39
 H13
A   40
 H14
A   41
 H15
A   42
 H16
A   43
 H17
A   44
 H18
A   45
 H19
A   46
 H20
A   47
 H21
A   48
 H22
A   49
 H23
A   50
 H24
M  END
>  <ref_pdb>  (199) 
x0051_0B

>  <ref_mols>  (199) 
x0404_0B,x0422_0B

>  <original SMILES>  (199) 
[H]c1c(C([H])([H])[H])noc1C1([H])N(S(=O)(=O)c2c([H])c([H])c(N3C([H])([H])C([H])([H])N([H])C([H])([H])C3([H])[H])c([H])c2[H])C([H])([H])C([H])([H])C1([H])[H]

>  <index>  (199) 
2682

>  <∆∆G>  (199) 
-5.314413

>  <∆G_bound>  (199) 
-4.232786

>  <∆G_unbound>  (199) 
1.081627

>  <comRMSD>  (199) 
0.974765

>  <N_constrained_atoms>  (199) 
26.0

>  <N_unconstrained_atoms>  (199) 
1.0

>  <runtime>  (199) 
61.879079

>  <LE>  (199) 
0.19683

>  <percent_hybrid>  (199) 
43.0

>  <dist>  (199) 
7.0

>  <ecfp4>  (199) 
0.345679

>  <daylight>  (199) 
0.302491

>  <topodist>  (199) 
2.0

>  <mces>  (199) 
29.0

>  <tdn>  (199) 
0.0

>  <tup>  (199) 
0.0

>  <rdn>  (199) 
0.0

>  <rup>  (199) 
0.0

>  <ldn>  (199) 
2.0

>  <lup>  (199) 
0.0

>  <mut>  (199) 
5.0

>  <maj>  (199) 
5.0

>  <min>  (199) 
0.0

>  <hyb>  (199) 
0.0

>  <sub>  (199) 
0.0

>  <query_index>  (199) 
324.0

>  <max_hit_Tanimoto>  (199) 
0.266423

>  <largest_ring>  (199) 
6

>  <N_interactions_kept>  (199) 
1.5

>  <N_interactions_lost>  (199) 
4.0

>  <interaction_uniqueness_metric>  (199) 
0.231457

>  <ad_hoc_penalty>  (199) 
-4.787498

>  <N_rotatable_bonds>  (199) 
5

>  <N_HA>  (199) 
26

>  <cluster>  (199) 
3745

>  <N_interactions>  (199) 
8

>  <Enamine>  (199) 
1

>  <Mcule>  (199) 
0

>  <N_PAINS>  (199) 
0

>  <UFF_Gibbs>  (199) 
149.533718

>  <strain_per_HA>  (199) 
5.751297

>  <intxn_scored>  (199) 
9.5

>  <saltbridge:HIS:51>  (199) 
0

>  <pistack:HIS:51>  (199) 
1

>  <hydroph_interaction:HIS:51>  (199) 
0

>  <hbond:ALA:132>  (199) 
0

>  <hbond:SER:135>  (199) 
0

>  <hydroph_interaction:TYR:150>  (199) 
1

>  <pistack:TYR:161>  (199) 
1

>  <hydroph_interaction:TYR:161>  (199) 
3

>  <hydroph_interaction:ASP:83>  (199) 
0

>  <hbond:TYR:130>  (199) 
0

>  <hydroph_interaction:ALA:132>  (199) 
0

>  <hbond:HIS:51>  (199) 
0

>  <hbond:ASP:129>  (199) 
0

>  <hbond:TYR:150>  (199) 
0

>  <hbond:GLY:151>  (199) 
0

>  <hbond:TYR:161>  (199) 
0

>  <hydroph_interaction:TYR:130>  (199) 
0

>  <hydroph_interaction:PRO:131>  (199) 
0

>  <hydroph_interaction:ASP:129>  (199) 
0

>  <saltbridge:ASP:75>  (199) 
0

>  <saltbridge:ASP:83>  (199) 
0

>  <hbond:ASN:152>  (199) 
0

>  <hydroph_interaction:ASN:152>  (199) 
0

>  <halogenbond:TYR:150>  (199) 
0

>  <hbond:ASP:83>  (199) 
0

>  <hydroph_interaction:VAL:155>  (199) 
1

>  <pication:TYR:161>  (199) 
0

>  <hbond:PRO:131>  (199) 
0

>  <saltbridge:ASP:129>  (199) 
0

>  <hbond:THR:134>  (199) 
0

>  <pication:HIS:51>  (199) 
0

>  <hbond:SER:81>  (199) 
1

>  <hydroph_interaction:THR:134>  (199) 
0

>  <hydroph_interaction:MET:49>  (199) 
0

$$$$
Z2368313939
     RDKit          3D

 32 33  0  0  0  0  0  0  0  0999 V2000
   -3.5300    4.8450  -16.3760 C   0  0  0  0  0  0  0  0  0  0  0  0
   -3.0310    4.9560  -14.9400 C   0  0  0  0  0  0  0  0  0  0  0  0
   -3.8840    5.8420  -14.1370 N   0  0  0  0  0  0  0  0  0  0  0  0
   -3.9790    7.2020  -14.7090 C   0  0  0  0  0  0  0  0  0  0  0  0
   -5.0680    7.2900  -15.7500 C   0  0  0  0  0  0  0  0  0  0  0  0
   -5.5290    5.9590  -16.1460 N   0  0  0  0  0  0  0  0  0  0  0  0
   -6.0400    5.7400  -17.4340 C   0  0  0  0  0  0  0  0  0  0  0  0
   -5.1930    5.8730  -18.4780 N   0  0  0  0  0  0  0  0  0  0  0  0
   -5.6930    5.6540  -19.6890 C   0  0  0  0  0  0  0  0  0  0  0  0
   -6.9470    5.3190  -19.9610 N   0  0  0  0  0  0  0  0  0  0  0  0
   -7.7900    5.1880  -18.9370 C   0  0  0  0  0  0  0  0  0  0  0  0
   -9.1250    4.8220  -19.3440 C   0  0  0  0  0  0  0  0  0  0  0  0
  -10.0590    4.6650  -18.3310 C   0  0  0  0  0  0  0  0  0  0  0  0
   -9.6820    4.8580  -17.0310 C   0  0  0  0  0  0  0  0  0  0  0  0
   -8.4260    5.2070  -16.6200 C   0  0  0  0  0  0  0  0  0  0  0  0
   -8.2820    5.4120  -14.5320 I   0  0  0  0  0  0  0  0  0  0  0  0
   -7.4070    5.3870  -17.5950 C   0  0  0  0  0  0  0  0  0  0  0  0
   -2.8720    4.1930  -16.9510 H   0  0  0  0  0  0  0  0  0  0  0  0
   -3.5390    5.8230  -16.8710 H   0  0  0  0  0  0  0  0  0  0  0  0
   -4.5320    4.4140  -16.4210 H   0  0  0  0  0  0  0  0  0  0  0  0
   -3.0070    3.9500  -14.5030 H   0  0  0  0  0  0  0  0  0  0  0  0
   -1.9960    5.3120  -14.9510 H   0  0  0  0  0  0  0  0  0  0  0  0
   -4.8250    5.4460  -14.0860 H   0  0  0  0  0  0  0  0  0  0  0  0
   -4.1950    7.9400  -13.9220 H   0  0  0  0  0  0  0  0  0  0  0  0
   -3.0140    7.4840  -15.1460 H   0  0  0  0  0  0  0  0  0  0  0  0
   -4.7590    7.8910  -16.6170 H   0  0  0  0  0  0  0  0  0  0  0  0
   -5.9230    7.8170  -15.3060 H   0  0  0  0  0  0  0  0  0  0  0  0
   -6.1580    5.5550  -15.4550 H   0  0  0  0  0  0  0  0  0  0  0  0
   -5.0200    5.7570  -20.5330 H   0  0  0  0  0  0  0  0  0  0  0  0
   -9.3900    4.6740  -20.3830 H   0  0  0  0  0  0  0  0  0  0  0  0
  -11.0890    4.3920  -18.5010 H   0  0  0  0  0  0  0  0  0  0  0  0
  -10.4000    4.7360  -16.2130 H   0  0  0  0  0  0  0  0  0  0  0  0
  1  2  1  0
  2  3  1  0
  3  4  1  0
  4  5  1  0
  5  6  1  0
  6  7  1  0
  7  8  2  0
  8  9  1  0
  9 10  2  0
 10 11  1  0
 11 12  2  0
 12 13  1  0
 13 14  2  0
 14 15  1  0
 15 16  1  0
 15 17  2  0
 17  7  1  0
 17 11  1  0
  1 18  1  0
  1 19  1  0
  1 20  1  0
  2 21  1  0
  2 22  1  0
  3 23  1  0
  4 24  1  0
  4 25  1  0
  5 26  1  0
  5 27  1  0
  6 28  1  0
  9 29  1  0
 12 30  1  0
 13 31  1  0
 14 32  1  0
A    1
 C1 
A    2
 C2 
A    3
 N1 
A    4
 C3 
A    5
 C4 
A    6
 N2 
A    7
 C5 
A    8
 N3 
A    9
 C6 
A   10
 N4 
A   11
 C7 
A   12
 C8 
A   13
 C9 
A   14
 C10
A   15
 C11
A   16
 I1 
A   17
 C12
A   18
 H1 
A   19
 H2 
A   20
 H3 
A   21
 H4 
A   22
 H5 
A   23
 H6 
A   24
 H7 
A   25
 H8 
A   26
 H9 
A   27
 H10
A   28
 H11
A   29
 H12
A   30
 H13
A   31
 H14
A   32
 H15
M  END
>  <ref_pdb>  (200) 
x0051_0B

>  <ref_mols>  (200) 
x0429_0B,x0693_0B

>  <original SMILES>  (200) 
[H]c1nc(N([H])C([H])([H])C([H])([H])N([H])C([H])([H])C([H])([H])[H])c2c(I)c([H])c([H])c([H])c2n1

>  <index>  (200) 
2321

>  <∆∆G>  (200) 
-6.100352

>  <∆G_bound>  (200) 
-5.066415

>  <∆G_unbound>  (200) 
1.033936

>  <comRMSD>  (200) 
0.677145

>  <N_constrained_atoms>  (200) 
18.0

>  <N_unconstrained_atoms>  (200) 
0.0

>  <runtime>  (200) 
42.615352

>  <LE>  (200) 
0.338908

>  <percent_hybrid>  (200) 
20.0

>  <dist>  (200) 
3.0

>  <ecfp4>  (200) 
0.290909

>  <daylight>  (200) 
0.516129

>  <topodist>  (200) 
1.0

>  <mces>  (200) 
18.0

>  <tdn>  (200) 
0.0

>  <tup>  (200) 
0.0

>  <rdn>  (200) 
1.0

>  <rup>  (200) 
0.0

>  <ldn>  (200) 
0.0

>  <lup>  (200) 
0.0

>  <mut>  (200) 
2.0

>  <maj>  (200) 
2.0

>  <min>  (200) 
0.0

>  <hyb>  (200) 
0.0

>  <sub>  (200) 
2.0

>  <query_index>  (200) 
179.0

>  <max_hit_Tanimoto>  (200) 
0.391874

>  <largest_ring>  (200) 
6

>  <N_interactions_kept>  (200) 
2.5

>  <N_interactions_lost>  (200) 
2.0

>  <interaction_uniqueness_metric>  (200) 
0.076578

>  <ad_hoc_penalty>  (200) 
-1.754354

>  <N_rotatable_bonds>  (200) 
6

>  <N_HA>  (200) 
17

>  <cluster>  (200) 
4085

>  <N_interactions>  (200) 
5

>  <Enamine>  (200) 
1

>  <Mcule>  (200) 
0

>  <N_PAINS>  (200) 
0

>  <UFF_Gibbs>  (200) 
154.192386

>  <strain_per_HA>  (200) 
9.07014

>  <intxn_scored>  (200) 
9.5

>  <saltbridge:HIS:51>  (200) 
0

>  <pistack:HIS:51>  (200) 
0

>  <hydroph_interaction:HIS:51>  (200) 
0

>  <hbond:ALA:132>  (200) 
0

>  <hbond:SER:135>  (200) 
0

>  <hydroph_interaction:TYR:150>  (200) 
1

>  <pistack:TYR:161>  (200) 
2

>  <hydroph_interaction:TYR:161>  (200) 
1

>  <hydroph_interaction:ASP:83>  (200) 
0

>  <hbond:TYR:130>  (200) 
0

>  <hydroph_interaction:ALA:132>  (200) 
0

>  <hbond:HIS:51>  (200) 
0

>  <hbond:ASP:129>  (200) 
0

>  <hbond:TYR:150>  (200) 
0

>  <hbond:GLY:151>  (200) 
0

>  <hbond:TYR:161>  (200) 
0

>  <hydroph_interaction:TYR:130>  (200) 
0

>  <hydroph_interaction:PRO:131>  (200) 
0

>  <hydroph_interaction:ASP:129>  (200) 
0

>  <saltbridge:ASP:75>  (200) 
0

>  <saltbridge:ASP:83>  (200) 
0

>  <hbond:ASN:152>  (200) 
0

>  <hydroph_interaction:ASN:152>  (200) 
0

>  <halogenbond:TYR:150>  (200) 
0

>  <hbond:ASP:83>  (200) 
0

>  <hydroph_interaction:VAL:155>  (200) 
1

>  <pication:TYR:161>  (200) 
0

>  <hbond:PRO:131>  (200) 
0

>  <saltbridge:ASP:129>  (200) 
0

>  <hbond:THR:134>  (200) 
0

>  <pication:HIS:51>  (200) 
0

>  <hbond:SER:81>  (200) 
0

>  <hydroph_interaction:THR:134>  (200) 
0

>  <hydroph_interaction:MET:49>  (200) 
0

$$$$
Z2761277022
     RDKit          3D

 44 46  0  0  0  0  0  0  0  0999 V2000
  -11.0000    5.2460  -19.0230 C   0  0  0  0  0  0  0  0  0  0  0  0
  -10.1330    4.4670  -18.1050 C   0  0  0  0  0  0  0  0  0  0  0  0
   -8.7230    4.8890  -17.8290 C   0  0  0  0  0  0  0  0  0  0  0  0
   -7.9430    5.1270  -18.9240 C   0  0  0  0  0  0  0  0  0  0  0  0
   -6.6190    5.4980  -18.7980 C   0  0  0  0  0  0  0  0  0  0  0  0
   -6.0770    5.6270  -17.5180 C   0  0  0  0  0  0  0  0  0  0  0  0
   -6.8570    5.3930  -16.3710 C   0  0  0  0  0  0  0  0  0  0  0  0
   -6.2630    5.5410  -15.0950 C   0  0  0  0  0  0  0  0  0  0  0  0
   -6.9810    4.9760  -13.8530 C   0  0  0  0  0  0  0  0  0  0  0  0
   -6.9840    3.5600  -13.9230 O   0  0  0  0  0  0  0  0  0  0  0  0
   -7.5400    5.7000  -12.7570 N   0  0  0  0  0  0  0  0  0  0  0  0
   -8.8210    5.6440  -12.2350 C   0  0  0  0  0  0  0  0  0  0  0  0
   -8.8470    5.5830  -10.8400 C   0  0  0  0  0  0  0  0  0  0  0  0
   -9.0180    4.4150   -9.9040 C   0  0  0  0  0  0  0  0  0  0  0  0
   -9.1910    2.9700  -10.3690 C   0  0  0  0  0  0  0  0  0  0  0  0
   -8.9680    2.1160   -9.2070 N   0  0  0  0  0  0  0  0  0  0  0  0
   -9.6550    2.6050   -7.9900 C   0  0  0  0  0  0  0  0  0  0  0  0
   -9.1520    3.9830   -7.5060 C   0  0  0  0  0  0  0  0  0  0  0  0
   -8.9950    4.8580   -8.6440 N   0  0  0  0  0  0  0  0  0  0  0  0
   -8.8150    6.1990   -8.5730 N   0  0  0  0  0  0  0  0  0  0  0  0
   -8.7300    6.6250   -9.8670 C   0  0  0  0  0  0  0  0  0  0  0  0
   -8.1980    5.0190  -16.5350 C   0  0  0  0  0  0  0  0  0  0  0  0
  -11.2720    6.1680  -18.6150 H   0  0  0  0  0  0  0  0  0  0  0  0
  -10.5400    5.4160  -20.0010 H   0  0  0  0  0  0  0  0  0  0  0  0
  -11.9400    4.7240  -19.1450 H   0  0  0  0  0  0  0  0  0  0  0  0
  -10.6450    4.3940  -17.1460 H   0  0  0  0  0  0  0  0  0  0  0  0
  -10.0600    3.4760  -18.5510 H   0  0  0  0  0  0  0  0  0  0  0  0
   -8.4420    4.9990  -19.8930 H   0  0  0  0  0  0  0  0  0  0  0  0
   -6.0120    5.6820  -19.6790 H   0  0  0  0  0  0  0  0  0  0  0  0
   -5.0350    5.9160  -17.3960 H   0  0  0  0  0  0  0  0  0  0  0  0
   -5.3540    4.9310  -15.1420 H   0  0  0  0  0  0  0  0  0  0  0  0
   -5.8740    6.5470  -14.9760 H   0  0  0  0  0  0  0  0  0  0  0  0
   -6.8600    6.0050  -12.0780 H   0  0  0  0  0  0  0  0  0  0  0  0
   -9.3850    6.5150  -12.5830 H   0  0  0  0  0  0  0  0  0  0  0  0
   -9.3030    4.7570  -12.6640 H   0  0  0  0  0  0  0  0  0  0  0  0
  -10.1810    2.7890  -10.7840 H   0  0  0  0  0  0  0  0  0  0  0  0
   -8.4570    2.7080  -11.1380 H   0  0  0  0  0  0  0  0  0  0  0  0
   -7.9680    2.1190   -9.0460 H   0  0  0  0  0  0  0  0  0  0  0  0
  -10.7120    2.6710   -8.1890 H   0  0  0  0  0  0  0  0  0  0  0  0
   -9.5380    1.8650   -7.1910 H   0  0  0  0  0  0  0  0  0  0  0  0
   -9.8660    4.4360   -6.8140 H   0  0  0  0  0  0  0  0  0  0  0  0
   -8.1760    3.9100   -7.0210 H   0  0  0  0  0  0  0  0  0  0  0  0
   -8.5880    7.6830  -10.0450 H   0  0  0  0  0  0  0  0  0  0  0  0
   -8.8300    4.8250  -15.6660 H   0  0  0  0  0  0  0  0  0  0  0  0
  1  2  1  0
  2  3  1  0
  3  4  2  0
  4  5  1  0
  5  6  2  0
  6  7  1  0
  7  8  1  0
  8  9  1  0
  9 10  2  0
  9 11  1  0
 11 12  1  0
 12 13  1  0
 13 14  2  0
 14 15  1  0
 15 16  1  0
 16 17  1  0
 17 18  1  0
 18 19  1  0
 19 20  1  0
 20 21  2  0
  7 22  2  0
 22  3  1  0
 21 13  1  0
 19 14  1  0
  1 23  1  0
  1 24  1  0
  1 25  1  0
  2 26  1  0
  2 27  1  0
  4 28  1  0
  5 29  1  0
  6 30  1  0
  8 31  1  0
  8 32  1  0
 11 33  1  0
 12 34  1  0
 12 35  1  0
 15 36  1  0
 15 37  1  0
 16 38  1  0
 17 39  1  0
 17 40  1  0
 18 41  1  0
 18 42  1  0
 21 43  1  0
 22 44  1  0
A    1
 C1 
A    2
 C2 
A    3
 C3 
A    4
 C4 
A    5
 C5 
A    6
 C6 
A    7
 C7 
A    8
 C8 
A    9
 C9 
A   10
 O1 
A   11
 N1 
A   12
 C10
A   13
 C11
A   14
 C12
A   15
 C13
A   16
 N2 
A   17
 C14
A   18
 C15
A   19
 N3 
A   20
 N4 
A   21
 C16
A   22
 C17
A   23
 H1 
A   24
 H2 
A   25
 H3 
A   26
 H4 
A   27
 H5 
A   28
 H6 
A   29
 H7 
A   30
 H8 
A   31
 H9 
A   32
 H10
A   33
 H11
A   34
 H12
A   35
 H13
A   36
 H14
A   37
 H15
A   38
 H16
A   39
 H17
A   40
 H18
A   41
 H19
A   42
 H20
A   43
 H21
A   44
 H22
M  END
>  <ref_pdb>  (201) 
x0051_0B

>  <ref_mols>  (201) 
x0605_0B,x0969_1B

>  <original SMILES>  (201) 
[H]c1nn2c(c1C([H])([H])N([H])C(=O)C([H])([H])c1c([H])c([H])c([H])c(C([H])([H])C([H])([H])[H])c1[H])C([H])([H])N([H])C([H])([H])C2([H])[H]

>  <index>  (201) 
3489

>  <∆∆G>  (201) 
-5.824676

>  <∆G_bound>  (201) 
-5.223257

>  <∆G_unbound>  (201) 
0.601419

>  <comRMSD>  (201) 
0.440815

>  <N_constrained_atoms>  (201) 
19.0

>  <N_unconstrained_atoms>  (201) 
3.0

>  <runtime>  (201) 
64.777994

>  <LE>  (201) 
0.264758

>  <percent_hybrid>  (201) 
48.0

>  <dist>  (201) 
5.0

>  <ecfp4>  (201) 
0.447761

>  <daylight>  (201) 
0.519481

>  <topodist>  (201) 
1.0

>  <mces>  (201) 
23.0

>  <tdn>  (201) 
0.0

>  <tup>  (201) 
1.0

>  <rdn>  (201) 
0.0

>  <rup>  (201) 
0.0

>  <ldn>  (201) 
0.0

>  <lup>  (201) 
0.0

>  <mut>  (201) 
2.0

>  <maj>  (201) 
2.0

>  <min>  (201) 
0.0

>  <hyb>  (201) 
2.0

>  <sub>  (201) 
0.0

>  <query_index>  (201) 
307.0

>  <max_hit_Tanimoto>  (201) 
0.645205

>  <largest_ring>  (201) 
6

>  <N_interactions_kept>  (201) 
0.5

>  <N_interactions_lost>  (201) 
2.5

>  <interaction_uniqueness_metric>  (201) 
0.192402

>  <ad_hoc_penalty>  (201) 
-2.045322

>  <N_rotatable_bonds>  (201) 
6

>  <N_HA>  (201) 
22

>  <cluster>  (201) 
2983

>  <N_interactions>  (201) 
5

>  <Enamine>  (201) 
1

>  <Mcule>  (201) 
0

>  <N_PAINS>  (201) 
0

>  <UFF_Gibbs>  (201) 
92.882951

>  <strain_per_HA>  (201) 
4.221952

>  <intxn_scored>  (201) 
9.5

>  <saltbridge:HIS:51>  (201) 
0

>  <pistack:HIS:51>  (201) 
1

>  <hydroph_interaction:HIS:51>  (201) 
0

>  <hbond:ALA:132>  (201) 
0

>  <hbond:SER:135>  (201) 
0

>  <hydroph_interaction:TYR:150>  (201) 
1

>  <pistack:TYR:161>  (201) 
1

>  <hydroph_interaction:TYR:161>  (201) 
1

>  <hydroph_interaction:ASP:83>  (201) 
0

>  <hbond:TYR:130>  (201) 
0

>  <hydroph_interaction:ALA:132>  (201) 
0

>  <hbond:HIS:51>  (201) 
0

>  <hbond:ASP:129>  (201) 
0

>  <hbond:TYR:150>  (201) 
0

>  <hbond:GLY:151>  (201) 
0

>  <hbond:TYR:161>  (201) 
0

>  <hydroph_interaction:TYR:130>  (201) 
0

>  <hydroph_interaction:PRO:131>  (201) 
0

>  <hydroph_interaction:ASP:129>  (201) 
0

>  <saltbridge:ASP:75>  (201) 
0

>  <saltbridge:ASP:83>  (201) 
0

>  <hbond:ASN:152>  (201) 
0

>  <hydroph_interaction:ASN:152>  (201) 
0

>  <halogenbond:TYR:150>  (201) 
0

>  <hbond:ASP:83>  (201) 
1

>  <hydroph_interaction:VAL:155>  (201) 
0

>  <pication:TYR:161>  (201) 
0

>  <hbond:PRO:131>  (201) 
0

>  <saltbridge:ASP:129>  (201) 
0

>  <hbond:THR:134>  (201) 
0

>  <pication:HIS:51>  (201) 
0

>  <hbond:SER:81>  (201) 
0

>  <hydroph_interaction:THR:134>  (201) 
0

>  <hydroph_interaction:MET:49>  (201) 
0

$$$$
Z1692993880
     RDKit          3D

 36 38  0  0  0  0  0  0  0  0999 V2000
   -3.3340    5.8090  -18.8000 C   0  0  0  0  0  0  0  0  0  0  0  0
   -4.8290    5.6020  -18.6250 C   0  0  0  0  0  0  0  0  0  0  0  0
   -5.6320    5.4330  -19.9220 C   0  0  0  0  0  0  0  0  0  0  0  0
   -7.0820    5.2210  -19.8270 N   0  0  0  0  0  0  0  0  0  0  0  0
   -7.5900    5.1850  -18.4540 C   0  0  0  0  0  0  0  0  0  0  0  0
   -9.0470    4.9580  -18.2530 C   0  0  0  0  0  0  0  0  0  0  0  0
   -9.7730    4.8270  -19.3560 C   0  0  0  0  0  0  0  0  0  0  0  0
   -9.6100    4.8940  -17.0120 C   0  0  0  0  0  0  0  0  0  0  0  0
   -8.8740    5.0480  -15.8860 C   0  0  0  0  0  0  0  0  0  0  0  0
   -7.5110    5.2720  -16.0170 C   0  0  0  0  0  0  0  0  0  0  0  0
   -6.8430    5.3420  -17.2770 C   0  0  0  0  0  0  0  0  0  0  0  0
   -5.4600    5.5600  -17.3790 C   0  0  0  0  0  0  0  0  0  0  0  0
   -4.6680    5.7450  -16.2540 N   0  0  0  0  0  0  0  0  0  0  0  0
   -4.7410    7.0810  -15.6710 C   0  0  0  0  0  0  0  0  0  0  0  0
   -4.1530    7.0280  -14.2920 C   0  0  0  0  0  0  0  0  0  0  0  0
   -3.3940    5.8010  -13.8240 C   0  0  0  0  0  0  0  0  0  0  0  0
   -3.2510    4.6250  -14.8260 C   0  0  0  0  0  0  0  0  0  0  0  0
   -3.4160    5.0120  -16.1530 C   0  0  0  0  0  0  0  0  0  0  0  0
   -3.0940    6.0830  -19.8320 H   0  0  0  0  0  0  0  0  0  0  0  0
   -2.7650    4.9120  -18.5360 H   0  0  0  0  0  0  0  0  0  0  0  0
   -2.9920    6.6170  -18.1460 H   0  0  0  0  0  0  0  0  0  0  0  0
   -5.1880    5.4600  -20.9140 H   0  0  0  0  0  0  0  0  0  0  0  0
   -9.4560    3.9320  -19.8840 H   0  0  0  0  0  0  0  0  0  0  0  0
   -9.6150    5.6770  -20.0180 H   0  0  0  0  0  0  0  0  0  0  0  0
  -10.8380    4.8030  -19.1080 H   0  0  0  0  0  0  0  0  0  0  0  0
  -10.6540    4.7220  -16.8110 H   0  0  0  0  0  0  0  0  0  0  0  0
   -9.3400    4.9980  -14.9050 H   0  0  0  0  0  0  0  0  0  0  0  0
   -6.9120    5.3960  -15.1180 H   0  0  0  0  0  0  0  0  0  0  0  0
   -5.7860    7.4020  -15.5980 H   0  0  0  0  0  0  0  0  0  0  0  0
   -4.1860    7.8330  -16.2450 H   0  0  0  0  0  0  0  0  0  0  0  0
   -4.3280    7.9270  -13.6890 H   0  0  0  0  0  0  0  0  0  0  0  0
   -2.9590    5.7300  -12.8320 H   0  0  0  0  0  0  0  0  0  0  0  0
   -3.9980    3.8630  -14.5700 H   0  0  0  0  0  0  0  0  0  0  0  0
   -2.2650    4.1580  -14.7130 H   0  0  0  0  0  0  0  0  0  0  0  0
   -3.4220    4.1170  -16.7860 H   0  0  0  0  0  0  0  0  0  0  0  0
   -2.5620    5.6280  -16.4560 H   0  0  0  0  0  0  0  0  0  0  0  0
  1  2  1  0
  2  3  2  0
  3  4  1  0
  4  5  2  0
  5  6  1  0
  6  7  1  0
  6  8  2  0
  8  9  1  0
  9 10  2  0
 10 11  1  0
 11 12  2  0
 12 13  1  0
 13 14  1  0
 14 15  1  0
 15 16  2  0
 16 17  1  0
 17 18  1  0
 12  2  1  0
 11  5  1  0
 18 13  1  0
  1 19  1  0
  1 20  1  0
  1 21  1  0
  3 22  1  0
  7 23  1  0
  7 24  1  0
  7 25  1  0
  8 26  1  0
  9 27  1  0
 10 28  1  0
 14 29  1  0
 14 30  1  0
 15 31  1  0
 16 32  1  0
 17 33  1  0
 17 34  1  0
 18 35  1  0
 18 36  1  0
A    1
 C1 
A    2
 C2 
A    3
 C3 
A    4
 N1 
A    5
 C4 
A    6
 C5 
A    7
 C6 
A    8
 C7 
A    9
 C8 
A   10
 C9 
A   11
 C10
A   12
 C11
A   13
 N2 
A   14
 C12
A   15
 C13
A   16
 C14
A   17
 C15
A   18
 C16
A   19
 H1 
A   20
 H2 
A   21
 H3 
A   22
 H4 
A   23
 H5 
A   24
 H6 
A   25
 H7 
A   26
 H8 
A   27
 H9 
A   28
 H10
A   29
 H11
A   30
 H12
A   31
 H13
A   32
 H14
A   33
 H15
A   34
 H16
A   35
 H17
A   36
 H18
M  END
>  <ref_pdb>  (202) 
x0051_0B

>  <ref_mols>  (202) 
x0429_0B,x0051_0B

>  <original SMILES>  (202) 
[H]C1=C([H])C([H])([H])C([H])([H])N(c2c(C([H])([H])[H])c([H])nc3c(C([H])([H])[H])c([H])c([H])c([H])c23)C1([H])[H]

>  <index>  (202) 
2864

>  <∆∆G>  (202) 
-7.382198

>  <∆G_bound>  (202) 
-7.345198

>  <∆G_unbound>  (202) 
0.036999

>  <comRMSD>  (202) 
0.728355

>  <N_constrained_atoms>  (202) 
18.0

>  <N_unconstrained_atoms>  (202) 
1.0

>  <runtime>  (202) 
24.999738

>  <LE>  (202) 
0.388537

>  <percent_hybrid>  (202) 
25.0

>  <dist>  (202) 
4.0

>  <ecfp4>  (202) 
0.311475

>  <daylight>  (202) 
0.360465

>  <topodist>  (202) 
1.0

>  <mces>  (202) 
20.0

>  <tdn>  (202) 
0.0

>  <tup>  (202) 
0.0

>  <rdn>  (202) 
0.0

>  <rup>  (202) 
0.0

>  <ldn>  (202) 
1.0

>  <lup>  (202) 
0.0

>  <mut>  (202) 
2.0

>  <maj>  (202) 
2.0

>  <min>  (202) 
0.0

>  <hyb>  (202) 
1.0

>  <sub>  (202) 
0.0

>  <query_index>  (202) 
194.0

>  <max_hit_Tanimoto>  (202) 
0.535526

>  <largest_ring>  (202) 
6

>  <N_interactions_kept>  (202) 
1.0

>  <N_interactions_lost>  (202) 
3.0

>  <interaction_uniqueness_metric>  (202) 
0.04341

>  <ad_hoc_penalty>  (202) 
-1.978726

>  <N_rotatable_bonds>  (202) 
3

>  <N_HA>  (202) 
18

>  <cluster>  (202) 
3575

>  <N_interactions>  (202) 
4

>  <Enamine>  (202) 
1

>  <Mcule>  (202) 
0

>  <N_PAINS>  (202) 
0

>  <UFF_Gibbs>  (202) 
102.088813

>  <strain_per_HA>  (202) 
5.671601

>  <intxn_scored>  (202) 
9.5

>  <saltbridge:HIS:51>  (202) 
0

>  <pistack:HIS:51>  (202) 
0

>  <hydroph_interaction:HIS:51>  (202) 
0

>  <hbond:ALA:132>  (202) 
0

>  <hbond:SER:135>  (202) 
0

>  <hydroph_interaction:TYR:150>  (202) 
1

>  <pistack:TYR:161>  (202) 
2

>  <hydroph_interaction:TYR:161>  (202) 
1

>  <hydroph_interaction:ASP:83>  (202) 
0

>  <hbond:TYR:130>  (202) 
0

>  <hydroph_interaction:ALA:132>  (202) 
0

>  <hbond:HIS:51>  (202) 
0

>  <hbond:ASP:129>  (202) 
0

>  <hbond:TYR:150>  (202) 
0

>  <hbond:GLY:151>  (202) 
0

>  <hbond:TYR:161>  (202) 
0

>  <hydroph_interaction:TYR:130>  (202) 
0

>  <hydroph_interaction:PRO:131>  (202) 
0

>  <hydroph_interaction:ASP:129>  (202) 
0

>  <saltbridge:ASP:75>  (202) 
0

>  <saltbridge:ASP:83>  (202) 
0

>  <hbond:ASN:152>  (202) 
0

>  <hydroph_interaction:ASN:152>  (202) 
0

>  <halogenbond:TYR:150>  (202) 
0

>  <hbond:ASP:83>  (202) 
0

>  <hydroph_interaction:VAL:155>  (202) 
0

>  <pication:TYR:161>  (202) 
0

>  <hbond:PRO:131>  (202) 
0

>  <saltbridge:ASP:129>  (202) 
0

>  <hbond:THR:134>  (202) 
0

>  <pication:HIS:51>  (202) 
0

>  <hbond:SER:81>  (202) 
0

>  <hydroph_interaction:THR:134>  (202) 
0

>  <hydroph_interaction:MET:49>  (202) 
0

$$$$
Z2765129489
     RDKit          3D

 54 56  0  0  0  0  0  0  0  0999 V2000
   -2.2980    4.8150  -21.7060 C   0  0  0  0  0  0  0  0  0  0  0  0
   -3.6200    5.3570  -21.4470 N   0  0  0  0  0  0  0  0  0  0  0  0
   -4.5100    5.3470  -22.5730 C   0  0  0  0  0  0  0  0  0  0  0  0
   -4.2230    5.3660  -20.2000 C   0  0  0  0  0  0  0  0  0  0  0  0
   -3.6490    5.1710  -19.1260 O   0  0  0  0  0  0  0  0  0  0  0  0
   -5.5900    5.5830  -20.0610 C   0  0  0  0  0  0  0  0  0  0  0  0
   -5.8750    5.7030  -18.6750 O   0  0  0  0  0  0  0  0  0  0  0  0
   -7.1250    5.3860  -18.2330 C   0  0  0  0  0  0  0  0  0  0  0  0
   -8.1080    4.9480  -19.1210 C   0  0  0  0  0  0  0  0  0  0  0  0
   -9.3680    4.6420  -18.6130 C   0  0  0  0  0  0  0  0  0  0  0  0
   -9.6310    4.7700  -17.2510 C   0  0  0  0  0  0  0  0  0  0  0  0
   -8.6460    5.2080  -16.3600 C   0  0  0  0  0  0  0  0  0  0  0  0
   -8.8010    5.3750  -14.9470 N   0  0  0  0  0  0  0  0  0  0  0  0
   -9.8780    5.0050  -14.1570 C   0  0  0  0  0  0  0  0  0  0  0  0
  -10.9510    4.7520  -14.6150 O   0  0  0  0  0  0  0  0  0  0  0  0
   -9.7490    4.9070  -12.7710 N   0  0  0  0  0  0  0  0  0  0  0  0
  -10.6440    4.0080  -12.0250 C   0  0  0  0  0  0  0  0  0  0  0  0
   -9.4760    6.1760  -12.1100 C   0  0  0  0  0  0  0  0  0  0  0  0
   -8.9790    6.0060  -10.6840 C   0  0  0  0  0  0  0  0  0  0  0  0
   -8.5390    4.6430  -10.2790 C   0  0  0  0  0  0  0  0  0  0  0  0
   -8.4390    3.3070  -10.8730 C   0  0  0  0  0  0  0  0  0  0  0  0
   -9.0170    2.4020   -9.9050 N   0  0  0  0  0  0  0  0  0  0  0  0
   -8.1390    2.3960   -8.7460 C   0  0  0  0  0  0  0  0  0  0  0  0
   -7.6090    3.7460   -8.2270 C   0  0  0  0  0  0  0  0  0  0  0  0
   -8.1480    4.8350   -9.0000 N   0  0  0  0  0  0  0  0  0  0  0  0
   -8.2880    6.1020   -8.5190 N   0  0  0  0  0  0  0  0  0  0  0  0
   -8.7940    6.8140   -9.5460 C   0  0  0  0  0  0  0  0  0  0  0  0
   -7.3850    5.5140  -16.8750 C   0  0  0  0  0  0  0  0  0  0  0  0
   -2.3040    4.1430  -22.5710 H   0  0  0  0  0  0  0  0  0  0  0  0
   -1.5960    5.6270  -21.9070 H   0  0  0  0  0  0  0  0  0  0  0  0
   -1.9560    4.2710  -20.8210 H   0  0  0  0  0  0  0  0  0  0  0  0
   -4.9560    6.3430  -22.6910 H   0  0  0  0  0  0  0  0  0  0  0  0
   -3.9180    5.1340  -23.4690 H   0  0  0  0  0  0  0  0  0  0  0  0
   -5.3040    4.6000  -22.4640 H   0  0  0  0  0  0  0  0  0  0  0  0
   -6.1140    4.6940  -20.4340 H   0  0  0  0  0  0  0  0  0  0  0  0
   -5.9240    6.4570  -20.6410 H   0  0  0  0  0  0  0  0  0  0  0  0
   -7.9400    4.8360  -20.1870 H   0  0  0  0  0  0  0  0  0  0  0  0
  -10.1450    4.3050  -19.2730 H   0  0  0  0  0  0  0  0  0  0  0  0
  -10.6210    4.5170  -16.9100 H   0  0  0  0  0  0  0  0  0  0  0  0
   -7.9540    5.6120  -14.4560 H   0  0  0  0  0  0  0  0  0  0  0  0
  -10.4920    4.1510  -10.9520 H   0  0  0  0  0  0  0  0  0  0  0  0
  -11.6890    4.2160  -12.2740 H   0  0  0  0  0  0  0  0  0  0  0  0
  -10.4500    2.9590  -12.2950 H   0  0  0  0  0  0  0  0  0  0  0  0
  -10.4090    6.7550  -12.0930 H   0  0  0  0  0  0  0  0  0  0  0  0
   -8.7360    6.7500  -12.6830 H   0  0  0  0  0  0  0  0  0  0  0  0
   -8.9720    3.2260  -11.8220 H   0  0  0  0  0  0  0  0  0  0  0  0
   -7.3900    3.0390  -11.0540 H   0  0  0  0  0  0  0  0  0  0  0  0
   -9.0330    1.4700  -10.3210 H   0  0  0  0  0  0  0  0  0  0  0  0
   -8.5650    1.7840   -7.9480 H   0  0  0  0  0  0  0  0  0  0  0  0
   -7.2810    1.8650   -9.1040 H   0  0  0  0  0  0  0  0  0  0  0  0
   -6.5220    3.7750   -8.3680 H   0  0  0  0  0  0  0  0  0  0  0  0
   -7.8090    3.9180   -7.1730 H   0  0  0  0  0  0  0  0  0  0  0  0
   -8.9980    7.8710   -9.4240 H   0  0  0  0  0  0  0  0  0  0  0  0
   -6.5870    5.8590  -16.2220 H   0  0  0  0  0  0  0  0  0  0  0  0
  1  2  1  0
  2  3  1  0
  2  4  1  0
  4  5  2  0
  4  6  1  0
  6  7  1  0
  7  8  1  0
  8  9  2  0
  9 10  1  0
 10 11  2  0
 11 12  1  0
 12 13  1  0
 13 14  1  0
 14 15  2  0
 14 16  1  0
 16 17  1  0
 16 18  1  0
 18 19  1  0
 19 20  2  0
 20 21  1  0
 21 22  1  0
 22 23  1  0
 23 24  1  0
 24 25  1  0
 25 26  1  0
 26 27  2  0
 12 28  2  0
 28  8  1  0
 27 19  1  0
 25 20  1  0
  1 29  1  0
  1 30  1  0
  1 31  1  0
  3 32  1  0
  3 33  1  0
  3 34  1  0
  6 35  1  0
  6 36  1  0
  9 37  1  0
 10 38  1  0
 11 39  1  0
 13 40  1  0
 17 41  1  0
 17 42  1  0
 17 43  1  0
 18 44  1  0
 18 45  1  0
 21 46  1  0
 21 47  1  0
 22 48  1  0
 23 49  1  0
 23 50  1  0
 24 51  1  0
 24 52  1  0
 27 53  1  0
 28 54  1  0
A    1
 C1 
A    2
 N1 
A    3
 C2 
A    4
 C3 
A    5
 O1 
A    6
 C4 
A    7
 O2 
A    8
 C5 
A    9
 C6 
A   10
 C7 
A   11
 C8 
A   12
 C9 
A   13
 N2 
A   14
 C10
A   15
 O3 
A   16
 N3 
A   17
 C11
A   18
 C12
A   19
 C13
A   20
 C14
A   21
 C15
A   22
 N4 
A   23
 C16
A   24
 C17
A   25
 N5 
A   26
 N6 
A   27
 C18
A   28
 C19
A   29
 H1 
A   30
 H2 
A   31
 H3 
A   32
 H4 
A   33
 H5 
A   34
 H6 
A   35
 H7 
A   36
 H8 
A   37
 H9 
A   38
 H10
A   39
 H11
A   40
 H12
A   41
 H13
A   42
 H14
A   43
 H15
A   44
 H16
A   45
 H17
A   46
 H18
A   47
 H19
A   48
 H20
A   49
 H21
A   50
 H22
A   51
 H23
A   52
 H24
A   53
 H25
A   54
 H26
M  END
>  <ref_pdb>  (203) 
x0051_0B

>  <ref_mols>  (203) 
x0969_1B,x0904_0B

>  <original SMILES>  (203) 
[H]c1nn2c(c1C([H])([H])N(C(=O)N([H])c1c([H])c([H])c([H])c(OC([H])([H])C(=O)N(C([H])([H])[H])C([H])([H])[H])c1[H])C([H])([H])[H])C([H])([H])N([H])C([H])([H])C2([H])[H]

>  <index>  (203) 
2216

>  <∆∆G>  (203) 
-6.601457

>  <∆G_bound>  (203) 
-6.116871

>  <∆G_unbound>  (203) 
0.484586

>  <comRMSD>  (203) 
0.820991

>  <N_constrained_atoms>  (203) 
24.0

>  <N_unconstrained_atoms>  (203) 
4.0

>  <runtime>  (203) 
95.935446

>  <LE>  (203) 
0.235766

>  <percent_hybrid>  (203) 
42.0

>  <dist>  (203) 
5.0

>  <ecfp4>  (203) 
0.676471

>  <daylight>  (203) 
0.607143

>  <topodist>  (203) 
2.0

>  <mces>  (203) 
28.0

>  <tdn>  (203) 
0.0

>  <tup>  (203) 
2.0

>  <rdn>  (203) 
0.0

>  <rup>  (203) 
0.0

>  <ldn>  (203) 
0.0

>  <lup>  (203) 
0.0

>  <mut>  (203) 
2.0

>  <maj>  (203) 
2.0

>  <min>  (203) 
0.0

>  <hyb>  (203) 
1.0

>  <sub>  (203) 
0.0

>  <query_index>  (203) 
111.0

>  <max_hit_Tanimoto>  (203) 
0.516447

>  <largest_ring>  (203) 
6

>  <N_interactions_kept>  (203) 
1.0

>  <N_interactions_lost>  (203) 
2.5

>  <interaction_uniqueness_metric>  (203) 
0.422433

>  <ad_hoc_penalty>  (203) 
-4.413536

>  <N_rotatable_bonds>  (203) 
9

>  <N_HA>  (203) 
28

>  <cluster>  (203) 
4182

>  <N_interactions>  (203) 
7

>  <Enamine>  (203) 
1

>  <Mcule>  (203) 
0

>  <N_PAINS>  (203) 
0

>  <UFF_Gibbs>  (203) 
284.366253

>  <strain_per_HA>  (203) 
10.155938

>  <intxn_scored>  (203) 
9.5

>  <saltbridge:HIS:51>  (203) 
0

>  <pistack:HIS:51>  (203) 
1

>  <hydroph_interaction:HIS:51>  (203) 
1

>  <hbond:ALA:132>  (203) 
0

>  <hbond:SER:135>  (203) 
1

>  <hydroph_interaction:TYR:150>  (203) 
1

>  <pistack:TYR:161>  (203) 
1

>  <hydroph_interaction:TYR:161>  (203) 
0

>  <hydroph_interaction:ASP:83>  (203) 
0

>  <hbond:TYR:130>  (203) 
0

>  <hydroph_interaction:ALA:132>  (203) 
1

>  <hbond:HIS:51>  (203) 
0

>  <hbond:ASP:129>  (203) 
0

>  <hbond:TYR:150>  (203) 
0

>  <hbond:GLY:151>  (203) 
0

>  <hbond:TYR:161>  (203) 
0

>  <hydroph_interaction:TYR:130>  (203) 
0

>  <hydroph_interaction:PRO:131>  (203) 
0

>  <hydroph_interaction:ASP:129>  (203) 
0

>  <saltbridge:ASP:75>  (203) 
0

>  <saltbridge:ASP:83>  (203) 
0

>  <hbond:ASN:152>  (203) 
1

>  <hydroph_interaction:ASN:152>  (203) 
0

>  <halogenbond:TYR:150>  (203) 
0

>  <hbond:ASP:83>  (203) 
0

>  <hydroph_interaction:VAL:155>  (203) 
0

>  <pication:TYR:161>  (203) 
0

>  <hbond:PRO:131>  (203) 
0

>  <saltbridge:ASP:129>  (203) 
0

>  <hbond:THR:134>  (203) 
0

>  <pication:HIS:51>  (203) 
0

>  <hbond:SER:81>  (203) 
0

>  <hydroph_interaction:THR:134>  (203) 
0

>  <hydroph_interaction:MET:49>  (203) 
0

$$$$
PV-003304078357
     RDKit          3D

 23 24  0  0  0  0  0  0  0  0999 V2000
   -3.1050    5.1450  -16.5580 C   0  0  0  0  0  0  0  0  0  0  0  0
   -4.4930    5.4370  -16.4230 O   0  0  0  0  0  0  0  0  0  0  0  0
   -5.2000    5.4160  -17.5850 C   0  0  0  0  0  0  0  0  0  0  0  0
   -4.5730    5.5610  -18.8170 C   0  0  0  0  0  0  0  0  0  0  0  0
   -5.3120    5.5290  -19.9900 C   0  0  0  0  0  0  0  0  0  0  0  0
   -6.6330    5.3630  -20.0270 N   0  0  0  0  0  0  0  0  0  0  0  0
   -7.2890    5.2150  -18.7930 C   0  0  0  0  0  0  0  0  0  0  0  0
   -8.5900    5.0540  -18.8950 N   0  0  0  0  0  0  0  0  0  0  0  0
   -9.3420    4.8990  -17.8200 C   0  0  0  0  0  0  0  0  0  0  0  0
  -10.6630    4.7400  -18.0690 C   0  0  0  0  0  0  0  0  0  0  0  0
   -8.8110    4.9040  -16.5510 C   0  0  0  0  0  0  0  0  0  0  0  0
   -7.4370    5.0770  -16.4410 C   0  0  0  0  0  0  0  0  0  0  0  0
   -6.6130    5.2380  -17.5550 C   0  0  0  0  0  0  0  0  0  0  0  0
   -2.5580    6.0920  -16.5390 H   0  0  0  0  0  0  0  0  0  0  0  0
   -2.7540    4.5350  -15.7190 H   0  0  0  0  0  0  0  0  0  0  0  0
   -2.8980    4.6550  -17.5170 H   0  0  0  0  0  0  0  0  0  0  0  0
   -3.5000    5.7000  -18.9060 H   0  0  0  0  0  0  0  0  0  0  0  0
   -4.8070    5.6420  -20.9470 H   0  0  0  0  0  0  0  0  0  0  0  0
  -11.1270    5.6400  -18.4810 H   0  0  0  0  0  0  0  0  0  0  0  0
  -10.7800    3.9600  -18.7770 H   0  0  0  0  0  0  0  0  0  0  0  0
  -11.1600    4.4450  -17.1690 H   0  0  0  0  0  0  0  0  0  0  0  0
   -9.3500    4.7840  -15.6020 H   0  0  0  0  0  0  0  0  0  0  0  0
   -6.9740    5.0860  -15.4500 H   0  0  0  0  0  0  0  0  0  0  0  0
  1  2  1  0
  2  3  1  0
  3  4  2  0
  4  5  1  0
  5  6  2  0
  6  7  1  0
  7  8  2  0
  8  9  1  0
  9 10  1  0
  9 11  2  0
 11 12  1  0
 12 13  2  0
 13  3  1  0
 13  7  1  0
  1 14  1  0
  1 15  1  0
  1 16  1  0
  4 17  1  0
  5 18  1  0
 10 19  1  0
 10 20  1  0
 10 21  1  0
 11 22  1  0
 12 23  1  0
A    1
 C1 
A    2
 O1 
A    3
 C2 
A    4
 C3 
A    5
 C4 
A    6
 N1 
A    7
 C5 
A    8
 N2 
A    9
 C6 
A   10
 C7 
A   11
 C8 
A   12
 C9 
A   13
 C10
A   14
 H1 
A   15
 H2 
A   16
 H3 
A   17
 H4 
A   18
 H5 
A   19
 H6 
A   20
 H7 
A   21
 H8 
A   22
 H9 
A   23
 H10
M  END
>  <ref_pdb>  (204) 
x0051_0B

>  <ref_mols>  (204) 
x0425_0B,x0589_0B

>  <original SMILES>  (204) 
[H]c1nc2nc(C([H])([H])[H])c([H])c([H])c2c(OC([H])([H])[H])c1[H]

>  <index>  (204) 
3143

>  <∆∆G>  (204) 
-5.556921

>  <∆G_bound>  (204) 
-5.520806

>  <∆G_unbound>  (204) 
0.036115

>  <comRMSD>  (204) 
0.888457

>  <N_constrained_atoms>  (204) 
13.0

>  <N_unconstrained_atoms>  (204) 
0.0

>  <runtime>  (204) 
22.219417

>  <LE>  (204) 
0.427455

>  <percent_hybrid>  (204) 
29.0

>  <dist>  (204) 
3.0

>  <ecfp4>  (204) 
0.229167

>  <daylight>  (204) 
0.363636

>  <topodist>  (204) 
0.0

>  <mces>  (204) 
14.0

>  <tdn>  (204) 
0.0

>  <tup>  (204) 
0.0

>  <rdn>  (204) 
0.0

>  <rup>  (204) 
0.0

>  <ldn>  (204) 
0.0

>  <lup>  (204) 
0.0

>  <mut>  (204) 
3.0

>  <maj>  (204) 
3.0

>  <min>  (204) 
0.0

>  <hyb>  (204) 
0.0

>  <sub>  (204) 
0.0

>  <query_index>  (204) 
147.0

>  <max_hit_Tanimoto>  (204) 
0.137031

>  <largest_ring>  (204) 
6

>  <N_interactions_kept>  (204) 
0.0

>  <N_interactions_lost>  (204) 
2.5

>  <interaction_uniqueness_metric>  (204) 
0.04341

>  <ad_hoc_penalty>  (204) 
-2.488076

>  <N_rotatable_bonds>  (204) 
3

>  <N_HA>  (204) 
13

>  <cluster>  (204) 
3310

>  <N_interactions>  (204) 
4

>  <Enamine>  (204) 
1

>  <Mcule>  (204) 
0

>  <N_PAINS>  (204) 
0

>  <UFF_Gibbs>  (204) 
49.243036

>  <strain_per_HA>  (204) 
3.787926

>  <intxn_scored>  (204) 
9.5

>  <saltbridge:HIS:51>  (204) 
0

>  <pistack:HIS:51>  (204) 
0

>  <hydroph_interaction:HIS:51>  (204) 
0

>  <hbond:ALA:132>  (204) 
0

>  <hbond:SER:135>  (204) 
0

>  <hydroph_interaction:TYR:150>  (204) 
1

>  <pistack:TYR:161>  (204) 
2

>  <hydroph_interaction:TYR:161>  (204) 
1

>  <hydroph_interaction:ASP:83>  (204) 
0

>  <hbond:TYR:130>  (204) 
0

>  <hydroph_interaction:ALA:132>  (204) 
0

>  <hbond:HIS:51>  (204) 
0

>  <hbond:ASP:129>  (204) 
0

>  <hbond:TYR:150>  (204) 
0

>  <hbond:GLY:151>  (204) 
0

>  <hbond:TYR:161>  (204) 
0

>  <hydroph_interaction:TYR:130>  (204) 
0

>  <hydroph_interaction:PRO:131>  (204) 
0

>  <hydroph_interaction:ASP:129>  (204) 
0

>  <saltbridge:ASP:75>  (204) 
0

>  <saltbridge:ASP:83>  (204) 
0

>  <hbond:ASN:152>  (204) 
0

>  <hydroph_interaction:ASN:152>  (204) 
0

>  <halogenbond:TYR:150>  (204) 
0

>  <hbond:ASP:83>  (204) 
0

>  <hydroph_interaction:VAL:155>  (204) 
0

>  <pication:TYR:161>  (204) 
0

>  <hbond:PRO:131>  (204) 
0

>  <saltbridge:ASP:129>  (204) 
0

>  <hbond:THR:134>  (204) 
0

>  <pication:HIS:51>  (204) 
0

>  <hbond:SER:81>  (204) 
0

>  <hydroph_interaction:THR:134>  (204) 
0

>  <hydroph_interaction:MET:49>  (204) 
0

$$$$
CSSB00009824873
     RDKit          3D

 25 26  0  0  0  0  0  0  0  0999 V2000
   -2.1320    4.7240  -19.1570 C   0  0  0  0  0  0  0  0  0  0  0  0
   -3.0230    5.7910  -19.2180 C   0  0  0  0  0  0  0  0  0  0  0  0
   -2.8050    6.8390  -18.6200 O   0  0  0  0  0  0  0  0  0  0  0  0
   -4.1640    5.4710  -20.0770 N   0  0  0  0  0  0  0  0  0  0  0  0
   -5.4640    5.3180  -19.4110 C   0  0  0  0  0  0  0  0  0  0  0  0
   -6.5880    5.2600  -20.0590 N   0  0  0  0  0  0  0  0  0  0  0  0
   -7.5240    5.1180  -19.0090 C   0  0  0  0  0  0  0  0  0  0  0  0
   -8.8510    5.0320  -19.2550 C   0  0  0  0  0  0  0  0  0  0  0  0
   -9.7780    4.9020  -18.0710 C   0  0  0  0  0  0  0  0  0  0  0  0
  -11.0710    4.8950  -18.6290 C   0  0  0  0  0  0  0  0  0  0  0  0
   -9.2500    4.8480  -16.7800 C   0  0  0  0  0  0  0  0  0  0  0  0
   -7.8550    4.9420  -16.6730 C   0  0  0  0  0  0  0  0  0  0  0  0
   -6.9850    5.0850  -17.7740 C   0  0  0  0  0  0  0  0  0  0  0  0
   -5.6300    5.2150  -18.0510 N   0  0  0  0  0  0  0  0  0  0  0  0
   -2.0790    4.2010  -20.1200 H   0  0  0  0  0  0  0  0  0  0  0  0
   -1.1210    5.0500  -18.8850 H   0  0  0  0  0  0  0  0  0  0  0  0
   -2.4990    4.0250  -18.4080 H   0  0  0  0  0  0  0  0  0  0  0  0
   -4.1480    5.7900  -21.0340 H   0  0  0  0  0  0  0  0  0  0  0  0
   -9.2500    5.0680  -20.2640 H   0  0  0  0  0  0  0  0  0  0  0  0
  -11.7070    5.6280  -18.2230 H   0  0  0  0  0  0  0  0  0  0  0  0
  -11.5500    3.9420  -18.4940 H   0  0  0  0  0  0  0  0  0  0  0  0
  -11.1140    5.1290  -19.6820 H   0  0  0  0  0  0  0  0  0  0  0  0
   -9.8940    4.7520  -15.9130 H   0  0  0  0  0  0  0  0  0  0  0  0
   -7.4170    4.9070  -15.6650 H   0  0  0  0  0  0  0  0  0  0  0  0
   -4.8950    5.2300  -17.3640 H   0  0  0  0  0  0  0  0  0  0  0  0
  1  2  1  0
  2  3  2  0
  2  4  1  0
  4  5  1  0
  5  6  2  0
  6  7  1  0
  7  8  2  0
  8  9  1  0
  9 10  1  0
  9 11  2  0
 11 12  1  0
 12 13  2  0
 13 14  1  0
 14  5  1  0
 13  7  1  0
  1 15  1  0
  1 16  1  0
  1 17  1  0
  4 18  1  0
  8 19  1  0
 10 20  1  0
 10 21  1  0
 10 22  1  0
 11 23  1  0
 12 24  1  0
 14 25  1  0
A    1
 C1 
A    2
 C2 
A    3
 O1 
A    4
 N1 
A    5
 C3 
A    6
 N2 
A    7
 C4 
A    8
 C5 
A    9
 C6 
A   10
 C7 
A   11
 C8 
A   12
 C9 
A   13
 C10
A   14
 N3 
A   15
 H1 
A   16
 H2 
A   17
 H3 
A   18
 H4 
A   19
 H5 
A   20
 H6 
A   21
 H7 
A   22
 H8 
A   23
 H9 
A   24
 H10
A   25
 H11
M  END
>  <ref_pdb>  (205) 
x0051_0B

>  <ref_mols>  (205) 
x0089_0B,x0605_0B

>  <original SMILES>  (205) 
[H]c1c(C([H])([H])[H])c([H])c2nc(N([H])C(=O)C([H])([H])[H])n([H])c2c1[H]

>  <index>  (205) 
2781

>  <∆∆G>  (205) 
-7.382991

>  <∆G_bound>  (205) 
-7.088494

>  <∆G_unbound>  (205) 
0.294497

>  <comRMSD>  (205) 
0.757705

>  <N_constrained_atoms>  (205) 
15.0

>  <N_unconstrained_atoms>  (205) 
0.0

>  <runtime>  (205) 
36.08138

>  <LE>  (205) 
0.492199

>  <percent_hybrid>  (205) 
25.0

>  <dist>  (205) 
3.0

>  <ecfp4>  (205) 
0.313725

>  <daylight>  (205) 
0.775281

>  <topodist>  (205) 
1.0

>  <mces>  (205) 
15.0

>  <tdn>  (205) 
1.0

>  <tup>  (205) 
0.0

>  <rdn>  (205) 
0.0

>  <rup>  (205) 
0.0

>  <ldn>  (205) 
0.0

>  <lup>  (205) 
0.0

>  <mut>  (205) 
1.0

>  <maj>  (205) 
1.0

>  <min>  (205) 
0.0

>  <hyb>  (205) 
1.0

>  <sub>  (205) 
1.0

>  <query_index>  (205) 
118.0

>  <max_hit_Tanimoto>  (205) 
0.64467

>  <largest_ring>  (205) 
6

>  <N_interactions_kept>  (205) 
0.0

>  <N_interactions_lost>  (205) 
3.5

>  <interaction_uniqueness_metric>  (205) 
0.076578

>  <ad_hoc_penalty>  (205) 
-2.676464

>  <N_rotatable_bonds>  (205) 
3

>  <N_HA>  (205) 
14

>  <cluster>  (205) 
3654

>  <N_interactions>  (205) 
5

>  <Enamine>  (205) 
1

>  <Mcule>  (205) 
0

>  <N_PAINS>  (205) 
0

>  <UFF_Gibbs>  (205) 
79.082412

>  <strain_per_HA>  (205) 
5.648744

>  <intxn_scored>  (205) 
9.5

>  <saltbridge:HIS:51>  (205) 
0

>  <pistack:HIS:51>  (205) 
0

>  <hydroph_interaction:HIS:51>  (205) 
0

>  <hbond:ALA:132>  (205) 
0

>  <hbond:SER:135>  (205) 
0

>  <hydroph_interaction:TYR:150>  (205) 
1

>  <pistack:TYR:161>  (205) 
2

>  <hydroph_interaction:TYR:161>  (205) 
1

>  <hydroph_interaction:ASP:83>  (205) 
0

>  <hbond:TYR:130>  (205) 
0

>  <hydroph_interaction:ALA:132>  (205) 
0

>  <hbond:HIS:51>  (205) 
0

>  <hbond:ASP:129>  (205) 
0

>  <hbond:TYR:150>  (205) 
0

>  <hbond:GLY:151>  (205) 
0

>  <hbond:TYR:161>  (205) 
0

>  <hydroph_interaction:TYR:130>  (205) 
0

>  <hydroph_interaction:PRO:131>  (205) 
0

>  <hydroph_interaction:ASP:129>  (205) 
0

>  <saltbridge:ASP:75>  (205) 
0

>  <saltbridge:ASP:83>  (205) 
0

>  <hbond:ASN:152>  (205) 
0

>  <hydroph_interaction:ASN:152>  (205) 
0

>  <halogenbond:TYR:150>  (205) 
0

>  <hbond:ASP:83>  (205) 
0

>  <hydroph_interaction:VAL:155>  (205) 
1

>  <pication:TYR:161>  (205) 
0

>  <hbond:PRO:131>  (205) 
0

>  <saltbridge:ASP:129>  (205) 
0

>  <hbond:THR:134>  (205) 
0

>  <pication:HIS:51>  (205) 
0

>  <hbond:SER:81>  (205) 
0

>  <hydroph_interaction:THR:134>  (205) 
0

>  <hydroph_interaction:MET:49>  (205) 
0

$$$$
Z71174798
     RDKit          3D

 31 32  0  0  0  0  0  0  0  0999 V2000
   -4.0960    5.0750  -15.5230 C   0  0  0  0  0  0  0  0  0  0  0  0
   -5.4570    5.5560  -15.6990 N   0  0  0  0  0  0  0  0  0  0  0  0
   -5.9630    5.4390  -17.0550 C   0  0  0  0  0  0  0  0  0  0  0  0
   -5.0200    5.5430  -18.1540 N   0  0  0  0  0  0  0  0  0  0  0  0
   -5.5420    5.4220  -19.3810 C   0  0  0  0  0  0  0  0  0  0  0  0
   -4.3950    5.5440  -20.7170 S   0  0  0  0  0  0  0  0  0  0  0  0
   -2.7900    5.8200  -19.8700 C   0  0  0  0  0  0  0  0  0  0  0  0
   -2.3950    4.6680  -19.2040 C   0  0  0  0  0  0  0  0  0  0  0  0
   -3.0420    6.8930  -18.8200 C   0  0  0  0  0  0  0  0  0  0  0  0
   -6.8300    5.2190  -19.6790 N   0  0  0  0  0  0  0  0  0  0  0  0
   -7.6840    5.1240  -18.6690 C   0  0  0  0  0  0  0  0  0  0  0  0
   -9.1260    4.8880  -18.9490 C   0  0  0  0  0  0  0  0  0  0  0  0
  -10.1440    4.7740  -17.7930 C   0  0  0  0  0  0  0  0  0  0  0  0
   -9.6160    4.9020  -16.5240 C   0  0  0  0  0  0  0  0  0  0  0  0
   -8.2800    5.1140  -16.3220 C   0  0  0  0  0  0  0  0  0  0  0  0
   -7.3150    5.2270  -17.3230 C   0  0  0  0  0  0  0  0  0  0  0  0
   -3.7170    4.5590  -16.4140 H   0  0  0  0  0  0  0  0  0  0  0  0
   -4.0740    4.3610  -14.6930 H   0  0  0  0  0  0  0  0  0  0  0  0
   -3.4300    5.9170  -15.3160 H   0  0  0  0  0  0  0  0  0  0  0  0
   -5.5470    6.5260  -15.4050 H   0  0  0  0  0  0  0  0  0  0  0  0
   -2.1550    6.3050  -20.6000 H   0  0  0  0  0  0  0  0  0  0  0  0
   -2.0000    3.8030  -19.7240 H   0  0  0  0  0  0  0  0  0  0  0  0
   -1.5300    4.9840  -18.6070 H   0  0  0  0  0  0  0  0  0  0  0  0
   -3.0760    4.2520  -18.4720 H   0  0  0  0  0  0  0  0  0  0  0  0
   -2.2720    7.6700  -18.8610 H   0  0  0  0  0  0  0  0  0  0  0  0
   -4.0130    7.3720  -18.9910 H   0  0  0  0  0  0  0  0  0  0  0  0
   -3.0560    6.4770  -17.8070 H   0  0  0  0  0  0  0  0  0  0  0  0
   -9.4630    4.7990  -19.9850 H   0  0  0  0  0  0  0  0  0  0  0  0
  -11.2090    4.6050  -17.9760 H   0  0  0  0  0  0  0  0  0  0  0  0
  -10.3650    4.8140  -15.7320 H   0  0  0  0  0  0  0  0  0  0  0  0
   -7.9440    5.2010  -15.2820 H   0  0  0  0  0  0  0  0  0  0  0  0
  1  2  1  0
  2  3  1  0
  3  4  2  0
  4  5  1  0
  5  6  1  0
  6  7  1  0
  7  8  1  0
  7  9  1  0
  5 10  2  0
 10 11  1  0
 11 12  2  0
 12 13  1  0
 13 14  2  0
 14 15  1  0
 15 16  2  0
 16  3  1  0
 16 11  1  0
  1 17  1  0
  1 18  1  0
  1 19  1  0
  2 20  1  0
  7 21  1  0
  8 22  1  0
  8 23  1  0
  8 24  1  0
  9 25  1  0
  9 26  1  0
  9 27  1  0
 12 28  1  0
 13 29  1  0
 14 30  1  0
 15 31  1  0
A    1
 C1 
A    2
 N1 
A    3
 C2 
A    4
 N2 
A    5
 C3 
A    6
 S1 
A    7
 C4 
A    8
 C5 
A    9
 C6 
A   10
 N3 
A   11
 C7 
A   12
 C8 
A   13
 C9 
A   14
 C10
A   15
 C11
A   16
 C12
A   17
 H1 
A   18
 H2 
A   19
 H3 
A   20
 H4 
A   21
 H5 
A   22
 H6 
A   23
 H7 
A   24
 H8 
A   25
 H9 
A   26
 H10
A   27
 H11
A   28
 H12
A   29
 H13
A   30
 H14
A   31
 H15
M  END
>  <ref_pdb>  (206) 
x0051_0B

>  <ref_mols>  (206) 
x0727_0B,x0089_0B

>  <original SMILES>  (206) 
[H]c1c([H])c([H])c2c(N([H])C([H])([H])[H])nc(SC([H])(C([H])([H])[H])C([H])([H])[H])nc2c1[H]

>  <index>  (206) 
3155

>  <∆∆G>  (206) 
-8.058317

>  <∆G_bound>  (206) 
-7.984255

>  <∆G_unbound>  (206) 
0.074062

>  <comRMSD>  (206) 
0.486267

>  <N_constrained_atoms>  (206) 
16.0

>  <N_unconstrained_atoms>  (206) 
0.0

>  <runtime>  (206) 
26.328757

>  <LE>  (206) 
0.503645

>  <percent_hybrid>  (206) 
43.0

>  <dist>  (206) 
2.0

>  <ecfp4>  (206) 
0.431818

>  <daylight>  (206) 
0.315789

>  <topodist>  (206) 
1.0

>  <mces>  (206) 
16.0

>  <tdn>  (206) 
0.0

>  <tup>  (206) 
0.0

>  <rdn>  (206) 
0.0

>  <rup>  (206) 
0.0

>  <ldn>  (206) 
0.0

>  <lup>  (206) 
1.0

>  <mut>  (206) 
1.0

>  <maj>  (206) 
1.0

>  <min>  (206) 
0.0

>  <hyb>  (206) 
0.0

>  <sub>  (206) 
0.0

>  <query_index>  (206) 
59.0

>  <max_hit_Tanimoto>  (206) 
0.302034

>  <largest_ring>  (206) 
6

>  <N_interactions_kept>  (206) 
0.0

>  <N_interactions_lost>  (206) 
4.0

>  <interaction_uniqueness_metric>  (206) 
0.102397

>  <ad_hoc_penalty>  (206) 
-0.018434

>  <N_rotatable_bonds>  (206) 
6

>  <N_HA>  (206) 
16

>  <cluster>  (206) 
3298

>  <N_interactions>  (206) 
7

>  <Enamine>  (206) 
1

>  <Mcule>  (206) 
0

>  <N_PAINS>  (206) 
0

>  <UFF_Gibbs>  (206) 
107.303816

>  <strain_per_HA>  (206) 
6.706488

>  <intxn_scored>  (206) 
9.5

>  <saltbridge:HIS:51>  (206) 
0

>  <pistack:HIS:51>  (206) 
0

>  <hydroph_interaction:HIS:51>  (206) 
0

>  <hbond:ALA:132>  (206) 
0

>  <hbond:SER:135>  (206) 
0

>  <hydroph_interaction:TYR:150>  (206) 
1

>  <pistack:TYR:161>  (206) 
1

>  <hydroph_interaction:TYR:161>  (206) 
3

>  <hydroph_interaction:ASP:83>  (206) 
0

>  <hbond:TYR:130>  (206) 
1

>  <hydroph_interaction:ALA:132>  (206) 
0

>  <hbond:HIS:51>  (206) 
0

>  <hbond:ASP:129>  (206) 
0

>  <hbond:TYR:150>  (206) 
0

>  <hbond:GLY:151>  (206) 
0

>  <hbond:TYR:161>  (206) 
0

>  <hydroph_interaction:TYR:130>  (206) 
0

>  <hydroph_interaction:PRO:131>  (206) 
0

>  <hydroph_interaction:ASP:129>  (206) 
0

>  <saltbridge:ASP:75>  (206) 
0

>  <saltbridge:ASP:83>  (206) 
0

>  <hbond:ASN:152>  (206) 
0

>  <hydroph_interaction:ASN:152>  (206) 
0

>  <halogenbond:TYR:150>  (206) 
0

>  <hbond:ASP:83>  (206) 
0

>  <hydroph_interaction:VAL:155>  (206) 
1

>  <pication:TYR:161>  (206) 
0

>  <hbond:PRO:131>  (206) 
0

>  <saltbridge:ASP:129>  (206) 
0

>  <hbond:THR:134>  (206) 
0

>  <pication:HIS:51>  (206) 
0

>  <hbond:SER:81>  (206) 
0

>  <hydroph_interaction:THR:134>  (206) 
0

>  <hydroph_interaction:MET:49>  (206) 
0

$$$$
CSSB00011620627
     RDKit          3D

 22 23  0  0  0  0  0  0  0  0999 V2000
  -10.0200    4.7930  -18.6110 C   0  0  0  0  0  0  0  0  0  0  0  0
   -9.0080    4.9910  -17.6830 C   0  0  0  0  0  0  0  0  0  0  0  0
   -9.2830    5.0140  -16.3080 C   0  0  0  0  0  0  0  0  0  0  0  0
   -8.3540    5.1940  -15.2830 C   0  0  0  0  0  0  0  0  0  0  0  0
   -8.7140    5.2050  -13.9910 F   0  0  0  0  0  0  0  0  0  0  0  0
   -7.0410    5.3560  -15.6560 C   0  0  0  0  0  0  0  0  0  0  0  0
   -6.6890    5.3440  -17.1340 C   0  0  0  0  0  0  0  0  0  0  0  0
   -5.2980    5.5160  -17.4580 C   0  0  0  0  0  0  0  0  0  0  0  0
   -4.2410    5.6870  -16.4760 N   0  0  0  0  0  0  0  0  0  0  0  0
   -5.0540    5.4990  -18.8420 C   0  0  0  0  0  0  0  0  0  0  0  0
   -6.1100    5.3280  -19.7340 C   0  0  0  0  0  0  0  0  0  0  0  0
   -7.4000    5.1630  -19.4170 N   0  0  0  0  0  0  0  0  0  0  0  0
   -7.6890    5.1680  -18.1130 C   0  0  0  0  0  0  0  0  0  0  0  0
  -10.0890    3.7320  -18.8360 H   0  0  0  0  0  0  0  0  0  0  0  0
   -9.8370    5.3290  -19.5480 H   0  0  0  0  0  0  0  0  0  0  0  0
  -10.9780    5.1150  -18.1830 H   0  0  0  0  0  0  0  0  0  0  0  0
  -10.3180    4.8750  -15.9980 H   0  0  0  0  0  0  0  0  0  0  0  0
   -6.2620    5.4940  -14.9070 H   0  0  0  0  0  0  0  0  0  0  0  0
   -4.0610    6.6580  -16.2410 H   0  0  0  0  0  0  0  0  0  0  0  0
   -4.3340    5.1450  -15.6240 H   0  0  0  0  0  0  0  0  0  0  0  0
   -4.0450    5.6200  -19.2210 H   0  0  0  0  0  0  0  0  0  0  0  0
   -5.8030    5.3330  -20.7870 H   0  0  0  0  0  0  0  0  0  0  0  0
  1  2  1  0
  2  3  2  0
  3  4  1  0
  4  5  1  0
  4  6  2  0
  6  7  1  0
  7  8  2  0
  8  9  1  0
  8 10  1  0
 10 11  2  0
 11 12  1  0
 12 13  2  0
 13  2  1  0
 13  7  1  0
  1 14  1  0
  1 15  1  0
  1 16  1  0
  3 17  1  0
  6 18  1  0
  9 19  1  0
  9 20  1  0
 10 21  1  0
 11 22  1  0
A    1
 C1 
A    2
 C2 
A    3
 C3 
A    4
 C4 
A    5
 F1 
A    6
 C5 
A    7
 C6 
A    8
 C7 
A    9
 N1 
A   10
 C8 
A   11
 C9 
A   12
 N2 
A   13
 C10
A   14
 H1 
A   15
 H2 
A   16
 H3 
A   17
 H4 
A   18
 H5 
A   19
 H6 
A   20
 H7 
A   21
 H8 
A   22
 H9 
M  END
>  <ref_pdb>  (207) 
x0051_0B

>  <ref_mols>  (207) 
x0425_0B,x0435_0B

>  <original SMILES>  (207) 
[H]c1nc2c(C([H])([H])[H])c([H])c(F)c([H])c2c(N([H])[H])c1[H]

>  <index>  (207) 
2246

>  <∆∆G>  (207) 
-6.43865

>  <∆G_bound>  (207) 
-6.423411

>  <∆G_unbound>  (207) 
0.015239

>  <comRMSD>  (207) 
0.765196

>  <N_constrained_atoms>  (207) 
13.0

>  <N_unconstrained_atoms>  (207) 
2.0

>  <runtime>  (207) 
22.82402

>  <LE>  (207) 
0.429243

>  <percent_hybrid>  (207) 
40.0

>  <dist>  (207) 
2.0

>  <ecfp4>  (207) 
0.386364

>  <daylight>  (207) 
0.52439

>  <topodist>  (207) 
2.0

>  <mces>  (207) 
13.0

>  <tdn>  (207) 
0.0

>  <tup>  (207) 
1.0

>  <rdn>  (207) 
0.0

>  <rup>  (207) 
0.0

>  <ldn>  (207) 
1.0

>  <lup>  (207) 
0.0

>  <mut>  (207) 
0.0

>  <maj>  (207) 
0.0

>  <min>  (207) 
0.0

>  <hyb>  (207) 
0.0

>  <sub>  (207) 
1.0

>  <query_index>  (207) 
107.0

>  <max_hit_Tanimoto>  (207) 
0.157407

>  <largest_ring>  (207) 
6

>  <N_interactions_kept>  (207) 
1.0

>  <N_interactions_lost>  (207) 
2.5

>  <interaction_uniqueness_metric>  (207) 
0.04341

>  <ad_hoc_penalty>  (207) 
-8.025617

>  <N_rotatable_bonds>  (207) 
2

>  <N_HA>  (207) 
13

>  <cluster>  (207) 
4155

>  <N_interactions>  (207) 
4

>  <Enamine>  (207) 
1

>  <Mcule>  (207) 
0

>  <N_PAINS>  (207) 
0

>  <UFF_Gibbs>  (207) 
37.907317

>  <strain_per_HA>  (207) 
2.915947

>  <intxn_scored>  (207) 
9.5

>  <saltbridge:HIS:51>  (207) 
0

>  <pistack:HIS:51>  (207) 
0

>  <hydroph_interaction:HIS:51>  (207) 
0

>  <hbond:ALA:132>  (207) 
0

>  <hbond:SER:135>  (207) 
0

>  <hydroph_interaction:TYR:150>  (207) 
1

>  <pistack:TYR:161>  (207) 
2

>  <hydroph_interaction:TYR:161>  (207) 
1

>  <hydroph_interaction:ASP:83>  (207) 
0

>  <hbond:TYR:130>  (207) 
0

>  <hydroph_interaction:ALA:132>  (207) 
0

>  <hbond:HIS:51>  (207) 
0

>  <hbond:ASP:129>  (207) 
0

>  <hbond:TYR:150>  (207) 
0

>  <hbond:GLY:151>  (207) 
0

>  <hbond:TYR:161>  (207) 
0

>  <hydroph_interaction:TYR:130>  (207) 
0

>  <hydroph_interaction:PRO:131>  (207) 
0

>  <hydroph_interaction:ASP:129>  (207) 
0

>  <saltbridge:ASP:75>  (207) 
0

>  <saltbridge:ASP:83>  (207) 
0

>  <hbond:ASN:152>  (207) 
0

>  <hydroph_interaction:ASN:152>  (207) 
0

>  <halogenbond:TYR:150>  (207) 
0

>  <hbond:ASP:83>  (207) 
0

>  <hydroph_interaction:VAL:155>  (207) 
0

>  <pication:TYR:161>  (207) 
0

>  <hbond:PRO:131>  (207) 
0

>  <saltbridge:ASP:129>  (207) 
0

>  <hbond:THR:134>  (207) 
0

>  <pication:HIS:51>  (207) 
0

>  <hbond:SER:81>  (207) 
0

>  <hydroph_interaction:THR:134>  (207) 
0

>  <hydroph_interaction:MET:49>  (207) 
0

$$$$
Z2766709610
     RDKit          3D

 53 56  0  0  0  0  0  0  0  0999 V2000
   -6.0940    5.8900  -16.4190 C   0  0  0  0  0  0  0  0  0  0  0  0
   -7.4830    5.5160  -16.8160 C   0  0  0  0  0  0  0  0  0  0  0  0
   -8.4390    5.3320  -15.8370 C   0  0  0  0  0  0  0  0  0  0  0  0
   -7.8890    5.5520  -14.4630 N   0  0  0  0  0  0  0  0  0  0  0  0
   -8.7420    5.9340  -13.3200 C   0  0  0  0  0  0  0  0  0  0  0  0
   -9.3520    6.9930  -13.1780 O   0  0  0  0  0  0  0  0  0  0  0  0
   -8.8000    4.9450  -12.3350 C   0  0  0  0  0  0  0  0  0  0  0  0
   -8.7950    5.3130  -10.8750 C   0  0  0  0  0  0  0  0  0  0  0  0
   -8.9720    4.2900   -9.8190 C   0  0  0  0  0  0  0  0  0  0  0  0
   -9.1610    2.9380   -9.9720 C   0  0  0  0  0  0  0  0  0  0  0  0
   -9.1090    2.1940   -8.6940 C   0  0  0  0  0  0  0  0  0  0  0  0
   -9.3700    2.8800   -7.5050 C   0  0  0  0  0  0  0  0  0  0  0  0
   -9.0460    4.2310   -7.3600 C   0  0  0  0  0  0  0  0  0  0  0  0
   -8.9150    4.9170   -8.6370 N   0  0  0  0  0  0  0  0  0  0  0  0
   -8.7240    6.2570   -8.7600 N   0  0  0  0  0  0  0  0  0  0  0  0
   -8.6530    6.4980  -10.1010 C   0  0  0  0  0  0  0  0  0  0  0  0
   -9.7460    4.9800  -16.1810 C   0  0  0  0  0  0  0  0  0  0  0  0
  -10.2010    4.7700  -17.6570 C   0  0  0  0  0  0  0  0  0  0  0  0
   -9.2120    4.9610  -18.6090 C   0  0  0  0  0  0  0  0  0  0  0  0
   -7.8010    5.3570  -18.1780 C   0  0  0  0  0  0  0  0  0  0  0  0
   -6.7380    5.5940  -19.1410 N   0  0  0  0  0  0  0  0  0  0  0  0
   -6.5130    4.9800  -20.3370 C   0  0  0  0  0  0  0  0  0  0  0  0
   -7.2630    4.2570  -20.9780 O   0  0  0  0  0  0  0  0  0  0  0  0
   -5.1930    5.2540  -20.8540 C   0  0  0  0  0  0  0  0  0  0  0  0
   -4.0590    5.3010  -19.9540 C   0  0  0  0  0  0  0  0  0  0  0  0
   -2.7940    5.5480  -20.4750 C   0  0  0  0  0  0  0  0  0  0  0  0
   -2.6360    5.7540  -21.8490 C   0  0  0  0  0  0  0  0  0  0  0  0
   -3.7370    5.7180  -22.7120 C   0  0  0  0  0  0  0  0  0  0  0  0
   -5.0170    5.4690  -22.2110 C   0  0  0  0  0  0  0  0  0  0  0  0
   -5.5480    6.3250  -17.2630 H   0  0  0  0  0  0  0  0  0  0  0  0
   -5.5560    5.0040  -16.0680 H   0  0  0  0  0  0  0  0  0  0  0  0
   -6.1030    6.6400  -15.6200 H   0  0  0  0  0  0  0  0  0  0  0  0
   -7.0830    4.9970  -14.2210 H   0  0  0  0  0  0  0  0  0  0  0  0
   -8.1410    4.1110  -12.5670 H   0  0  0  0  0  0  0  0  0  0  0  0
   -9.7890    4.5020  -12.4890 H   0  0  0  0  0  0  0  0  0  0  0  0
  -10.0450    2.5840  -10.4900 H   0  0  0  0  0  0  0  0  0  0  0  0
   -8.3250    2.5820  -10.5810 H   0  0  0  0  0  0  0  0  0  0  0  0
   -8.2470    1.5720   -8.8120 H   0  0  0  0  0  0  0  0  0  0  0  0
   -9.9350    1.4890   -8.7330 H   0  0  0  0  0  0  0  0  0  0  0  0
  -10.4440    2.7650   -7.2940 H   0  0  0  0  0  0  0  0  0  0  0  0
   -8.8590    2.3350   -6.7040 H   0  0  0  0  0  0  0  0  0  0  0  0
   -8.0800    4.3400   -6.8520 H   0  0  0  0  0  0  0  0  0  0  0  0
   -9.8130    4.7470   -6.7730 H   0  0  0  0  0  0  0  0  0  0  0  0
   -8.5010    7.5150  -10.4450 H   0  0  0  0  0  0  0  0  0  0  0  0
  -10.4980    4.8340  -15.4160 H   0  0  0  0  0  0  0  0  0  0  0  0
  -11.2180    4.4950  -17.9270 H   0  0  0  0  0  0  0  0  0  0  0  0
   -9.4870    4.8260  -19.6520 H   0  0  0  0  0  0  0  0  0  0  0  0
   -6.0340    6.2640  -18.8700 H   0  0  0  0  0  0  0  0  0  0  0  0
   -4.1750    5.1410  -18.8850 H   0  0  0  0  0  0  0  0  0  0  0  0
   -1.9280    5.5820  -19.8180 H   0  0  0  0  0  0  0  0  0  0  0  0
   -1.6440    5.9450  -22.2520 H   0  0  0  0  0  0  0  0  0  0  0  0
   -3.5990    5.8830  -23.7770 H   0  0  0  0  0  0  0  0  0  0  0  0
   -5.8750    5.4400  -22.8790 H   0  0  0  0  0  0  0  0  0  0  0  0
  1  2  1  0
  2  3  2  0
  3  4  1  0
  4  5  1  0
  5  6  2  0
  5  7  1  0
  7  8  1  0
  8  9  2  0
  9 10  1  0
 10 11  1  0
 11 12  1  0
 12 13  1  0
 13 14  1  0
 14 15  1  0
 15 16  2  0
  3 17  1  0
 17 18  2  0
 18 19  1  0
 19 20  2  0
 20 21  1  0
 21 22  1  0
 22 23  2  0
 22 24  1  0
 24 25  2  0
 25 26  1  0
 26 27  2  0
 27 28  1  0
 28 29  2  0
 20  2  1  0
 16  8  1  0
 14  9  1  0
 29 24  1  0
  1 30  1  0
  1 31  1  0
  1 32  1  0
  4 33  1  0
  7 34  1  0
  7 35  1  0
 10 36  1  0
 10 37  1  0
 11 38  1  0
 11 39  1  0
 12 40  1  0
 12 41  1  0
 13 42  1  0
 13 43  1  0
 16 44  1  0
 17 45  1  0
 18 46  1  0
 19 47  1  0
 21 48  1  0
 25 49  1  0
 26 50  1  0
 27 51  1  0
 28 52  1  0
 29 53  1  0
A    1
 C1 
A    2
 C2 
A    3
 C3 
A    4
 N1 
A    5
 C4 
A    6
 O1 
A    7
 C5 
A    8
 C6 
A    9
 C7 
A   10
 C8 
A   11
 C9 
A   12
 C10
A   13
 C11
A   14
 N2 
A   15
 N3 
A   16
 C12
A   17
 C13
A   18
 C14
A   19
 C15
A   20
 C16
A   21
 N4 
A   22
 C17
A   23
 O2 
A   24
 C18
A   25
 C19
A   26
 C20
A   27
 C21
A   28
 C22
A   29
 C23
A   30
 H1 
A   31
 H2 
A   32
 H3 
A   33
 H4 
A   34
 H5 
A   35
 H6 
A   36
 H7 
A   37
 H8 
A   38
 H9 
A   39
 H10
A   40
 H11
A   41
 H12
A   42
 H13
A   43
 H14
A   44
 H15
A   45
 H16
A   46
 H17
A   47
 H18
A   48
 H19
A   49
 H20
A   50
 H21
A   51
 H22
A   52
 H23
A   53
 H24
M  END
>  <ref_pdb>  (208) 
x0051_0B

>  <ref_mols>  (208) 
x0852_0B,x0969_1B

>  <original SMILES>  (208) 
[H]c1nn2c(c1C([H])([H])C(=O)N([H])c1c([H])c([H])c([H])c(N([H])C(=O)c3c([H])c([H])c([H])c([H])c3[H])c1C([H])([H])[H])C([H])([H])C([H])([H])C([H])([H])C2([H])[H]

>  <index>  (208) 
1229

>  <∆∆G>  (208) 
-9.72029

>  <∆G_bound>  (208) 
-9.221572

>  <∆G_unbound>  (208) 
0.498718

>  <comRMSD>  (208) 
0.397762

>  <N_constrained_atoms>  (208) 
28.0

>  <N_unconstrained_atoms>  (208) 
3.0

>  <runtime>  (208) 
54.712043

>  <LE>  (208) 
0.313558

>  <percent_hybrid>  (208) 
36.0

>  <dist>  (208) 
7.0

>  <ecfp4>  (208) 
0.291667

>  <daylight>  (208) 
0.363636

>  <topodist>  (208) 
3.0

>  <mces>  (208) 
31.0

>  <tdn>  (208) 
2.0

>  <tup>  (208) 
1.0

>  <rdn>  (208) 
0.0

>  <rup>  (208) 
0.0

>  <ldn>  (208) 
0.0

>  <lup>  (208) 
0.0

>  <mut>  (208) 
3.0

>  <maj>  (208) 
3.0

>  <min>  (208) 
0.0

>  <hyb>  (208) 
1.0

>  <sub>  (208) 
2.0

>  <query_index>  (208) 
46.0

>  <max_hit_Tanimoto>  (208) 
0.35795

>  <largest_ring>  (208) 
6

>  <N_interactions_kept>  (208) 
3.0

>  <N_interactions_lost>  (208) 
3.0

>  <interaction_uniqueness_metric>  (208) 
0.133962

>  <ad_hoc_penalty>  (208) 
-12.527289

>  <N_rotatable_bonds>  (208) 
6

>  <N_HA>  (208) 
29

>  <cluster>  (208) 
5085

>  <N_interactions>  (208) 
6

>  <Enamine>  (208) 
1

>  <Mcule>  (208) 
0

>  <N_PAINS>  (208) 
0

>  <UFF_Gibbs>  (208) 
167.352456

>  <strain_per_HA>  (208) 
5.770774

>  <intxn_scored>  (208) 
9.5

>  <saltbridge:HIS:51>  (208) 
0

>  <pistack:HIS:51>  (208) 
1

>  <hydroph_interaction:HIS:51>  (208) 
0

>  <hbond:ALA:132>  (208) 
0

>  <hbond:SER:135>  (208) 
0

>  <hydroph_interaction:TYR:150>  (208) 
0

>  <pistack:TYR:161>  (208) 
1

>  <hydroph_interaction:TYR:161>  (208) 
1

>  <hydroph_interaction:ASP:83>  (208) 
0

>  <hbond:TYR:130>  (208) 
1

>  <hydroph_interaction:ALA:132>  (208) 
1

>  <hbond:HIS:51>  (208) 
0

>  <hbond:ASP:129>  (208) 
0

>  <hbond:TYR:150>  (208) 
0

>  <hbond:GLY:151>  (208) 
0

>  <hbond:TYR:161>  (208) 
0

>  <hydroph_interaction:TYR:130>  (208) 
0

>  <hydroph_interaction:PRO:131>  (208) 
0

>  <hydroph_interaction:ASP:129>  (208) 
1

>  <saltbridge:ASP:75>  (208) 
0

>  <saltbridge:ASP:83>  (208) 
0

>  <hbond:ASN:152>  (208) 
0

>  <hydroph_interaction:ASN:152>  (208) 
0

>  <halogenbond:TYR:150>  (208) 
0

>  <hbond:ASP:83>  (208) 
0

>  <hydroph_interaction:VAL:155>  (208) 
0

>  <pication:TYR:161>  (208) 
0

>  <hbond:PRO:131>  (208) 
0

>  <saltbridge:ASP:129>  (208) 
0

>  <hbond:THR:134>  (208) 
0

>  <pication:HIS:51>  (208) 
0

>  <hbond:SER:81>  (208) 
0

>  <hydroph_interaction:THR:134>  (208) 
0

>  <hydroph_interaction:MET:49>  (208) 
0

$$$$
PV-006963624292
     RDKit          3D

 25 26  0  0  0  0  0  0  0  0999 V2000
   -2.2630    4.8960  -22.0920 C   0  0  0  0  0  0  0  0  0  0  0  0
   -3.5910    5.4040  -21.8570 N   0  0  0  0  0  0  0  0  0  0  0  0
   -4.0970    5.3460  -20.5820 C   0  0  0  0  0  0  0  0  0  0  0  0
   -3.3910    5.1280  -19.6000 O   0  0  0  0  0  0  0  0  0  0  0  0
   -5.5900    5.5620  -20.4790 C   0  0  0  0  0  0  0  0  0  0  0  0
   -5.9870    5.5360  -19.0450 C   0  0  0  0  0  0  0  0  0  0  0  0
   -5.0950    5.7770  -18.0250 C   0  0  0  0  0  0  0  0  0  0  0  0
   -5.8020    5.6860  -16.4960 S   0  0  0  0  0  0  0  0  0  0  0  0
   -7.3340    5.3180  -17.1520 C   0  0  0  0  0  0  0  0  0  0  0  0
   -7.3080    5.2600  -18.5480 C   0  0  0  0  0  0  0  0  0  0  0  0
   -8.5160    4.9530  -19.2230 C   0  0  0  0  0  0  0  0  0  0  0  0
   -9.6870    4.7210  -18.5010 C   0  0  0  0  0  0  0  0  0  0  0  0
   -9.6700    4.7920  -17.1240 C   0  0  0  0  0  0  0  0  0  0  0  0
   -8.5080    5.0890  -16.4440 C   0  0  0  0  0  0  0  0  0  0  0  0
   -8.5170    5.1560  -15.1020 F   0  0  0  0  0  0  0  0  0  0  0  0
   -1.9560    4.3020  -21.2270 H   0  0  0  0  0  0  0  0  0  0  0  0
   -2.2850    4.2580  -22.9820 H   0  0  0  0  0  0  0  0  0  0  0  0
   -1.5630    5.7190  -22.2500 H   0  0  0  0  0  0  0  0  0  0  0  0
   -4.2360    5.3760  -22.6330 H   0  0  0  0  0  0  0  0  0  0  0  0
   -6.1460    4.7990  -21.0410 H   0  0  0  0  0  0  0  0  0  0  0  0
   -5.8280    6.5310  -20.9400 H   0  0  0  0  0  0  0  0  0  0  0  0
   -4.0450    6.0080  -18.1080 H   0  0  0  0  0  0  0  0  0  0  0  0
   -8.5440    4.8930  -20.3040 H   0  0  0  0  0  0  0  0  0  0  0  0
  -10.6060    4.4900  -19.0100 H   0  0  0  0  0  0  0  0  0  0  0  0
  -10.5610    4.6140  -16.5530 H   0  0  0  0  0  0  0  0  0  0  0  0
  1  2  1  0
  2  3  1  0
  3  4  2  0
  3  5  1  0
  5  6  1  0
  6  7  2  0
  7  8  1  0
  8  9  1  0
  9 10  2  0
 10 11  1  0
 11 12  2  0
 12 13  1  0
 13 14  2  0
 14 15  1  0
 10  6  1  0
 14  9  1  0
  1 16  1  0
  1 17  1  0
  1 18  1  0
  2 19  1  0
  5 20  1  0
  5 21  1  0
  7 22  1  0
 11 23  1  0
 12 24  1  0
 13 25  1  0
A    1
 C1 
A    2
 N1 
A    3
 C2 
A    4
 O1 
A    5
 C3 
A    6
 C4 
A    7
 C5 
A    8
 S1 
A    9
 C6 
A   10
 C7 
A   11
 C8 
A   12
 C9 
A   13
 C10
A   14
 C11
A   15
 F1 
A   16
 H1 
A   17
 H2 
A   18
 H3 
A   19
 H4 
A   20
 H5 
A   21
 H6 
A   22
 H7 
A   23
 H8 
A   24
 H9 
A   25
 H10
M  END
>  <ref_pdb>  (209) 
x0051_0B

>  <ref_mols>  (209) 
x0904_0B,x0435_0B

>  <original SMILES>  (209) 
[H]c1sc2c(F)c([H])c([H])c([H])c2c1C([H])([H])C(=O)N([H])C([H])([H])[H]

>  <index>  (209) 
1420

>  <∆∆G>  (209) 
-6.696543

>  <∆G_bound>  (209) 
-6.420582

>  <∆G_unbound>  (209) 
0.275961

>  <comRMSD>  (209) 
0.552018

>  <N_constrained_atoms>  (209) 
17.0

>  <N_unconstrained_atoms>  (209) 
0.0

>  <runtime>  (209) 
33.798833

>  <LE>  (209) 
0.393914

>  <percent_hybrid>  (209) 
30.0

>  <dist>  (209) 
3.0

>  <ecfp4>  (209) 
0.322034

>  <daylight>  (209) 
0.341463

>  <topodist>  (209) 
1.0

>  <mces>  (209) 
16.0

>  <tdn>  (209) 
1.0

>  <tup>  (209) 
0.0

>  <rdn>  (209) 
0.0

>  <rup>  (209) 
0.0

>  <ldn>  (209) 
0.0

>  <lup>  (209) 
0.0

>  <mut>  (209) 
2.0

>  <maj>  (209) 
2.0

>  <min>  (209) 
0.0

>  <hyb>  (209) 
0.0

>  <sub>  (209) 
1.0

>  <query_index>  (209) 
154.0

>  <max_hit_Tanimoto>  (209) 
0.154161

>  <largest_ring>  (209) 
6

>  <N_interactions_kept>  (209) 
1.5

>  <N_interactions_lost>  (209) 
2.5

>  <interaction_uniqueness_metric>  (209) 
0.082484

>  <ad_hoc_penalty>  (209) 
-11.968382

>  <N_rotatable_bonds>  (209) 
3

>  <N_HA>  (209) 
15

>  <cluster>  (209) 
4915

>  <N_interactions>  (209) 
5

>  <Enamine>  (209) 
1

>  <Mcule>  (209) 
0

>  <N_PAINS>  (209) 
0

>  <UFF_Gibbs>  (209) 
64.876201

>  <strain_per_HA>  (209) 
4.32508

>  <intxn_scored>  (209) 
9.5

>  <saltbridge:HIS:51>  (209) 
0

>  <pistack:HIS:51>  (209) 
0

>  <hydroph_interaction:HIS:51>  (209) 
0

>  <hbond:ALA:132>  (209) 
0

>  <hbond:SER:135>  (209) 
0

>  <hydroph_interaction:TYR:150>  (209) 
1

>  <pistack:TYR:161>  (209) 
2

>  <hydroph_interaction:TYR:161>  (209) 
1

>  <hydroph_interaction:ASP:83>  (209) 
0

>  <hbond:TYR:130>  (209) 
0

>  <hydroph_interaction:ALA:132>  (209) 
0

>  <hbond:HIS:51>  (209) 
0

>  <hbond:ASP:129>  (209) 
1

>  <hbond:TYR:150>  (209) 
0

>  <hbond:GLY:151>  (209) 
0

>  <hbond:TYR:161>  (209) 
0

>  <hydroph_interaction:TYR:130>  (209) 
0

>  <hydroph_interaction:PRO:131>  (209) 
0

>  <hydroph_interaction:ASP:129>  (209) 
0

>  <saltbridge:ASP:75>  (209) 
0

>  <saltbridge:ASP:83>  (209) 
0

>  <hbond:ASN:152>  (209) 
0

>  <hydroph_interaction:ASN:152>  (209) 
0

>  <halogenbond:TYR:150>  (209) 
0

>  <hbond:ASP:83>  (209) 
0

>  <hydroph_interaction:VAL:155>  (209) 
0

>  <pication:TYR:161>  (209) 
0

>  <hbond:PRO:131>  (209) 
0

>  <saltbridge:ASP:129>  (209) 
0

>  <hbond:THR:134>  (209) 
0

>  <pication:HIS:51>  (209) 
0

>  <hbond:SER:81>  (209) 
0

>  <hydroph_interaction:THR:134>  (209) 
0

>  <hydroph_interaction:MET:49>  (209) 
0

$$$$
Z2761333921
     RDKit          3D

 44 47  0  0  0  0  0  0  0  0999 V2000
   -7.7890    3.7770  -12.8920 C   0  0  0  0  0  0  0  0  0  0  0  0
   -8.7830    4.7620  -12.8330 N   0  0  0  0  0  0  0  0  0  0  0  0
   -8.4930    5.8680  -11.9150 C   0  0  0  0  0  0  0  0  0  0  0  0
   -8.6790    5.6750  -10.5240 C   0  0  0  0  0  0  0  0  0  0  0  0
   -8.9310    4.4950   -9.8260 C   0  0  0  0  0  0  0  0  0  0  0  0
   -9.0670    3.2000  -10.3380 C   0  0  0  0  0  0  0  0  0  0  0  0
   -8.9490    2.1910   -9.2790 N   0  0  0  0  0  0  0  0  0  0  0  0
   -9.7080    2.5430   -8.0610 C   0  0  0  0  0  0  0  0  0  0  0  0
   -9.2730    3.8890   -7.4400 C   0  0  0  0  0  0  0  0  0  0  0  0
   -9.0220    4.8310   -8.5050 N   0  0  0  0  0  0  0  0  0  0  0  0
   -8.8550    6.1420   -8.2660 N   0  0  0  0  0  0  0  0  0  0  0  0
   -8.6480    6.6570   -9.5030 C   0  0  0  0  0  0  0  0  0  0  0  0
   -9.2690    5.2410  -14.1460 C   0  0  0  0  0  0  0  0  0  0  0  0
   -8.2170    5.2710  -15.2810 C   0  0  0  0  0  0  0  0  0  0  0  0
   -6.7730    5.5070  -14.8690 C   0  0  0  0  0  0  0  0  0  0  0  0
   -5.8340    5.5460  -15.8730 C   0  0  0  0  0  0  0  0  0  0  0  0
   -6.1550    5.3660  -17.3480 C   0  0  0  0  0  0  0  0  0  0  0  0
   -7.5190    5.1490  -17.6470 C   0  0  0  0  0  0  0  0  0  0  0  0
   -7.8390    4.9810  -19.0010 C   0  0  0  0  0  0  0  0  0  0  0  0
   -9.3010    4.7530  -19.3010 C   0  0  0  0  0  0  0  0  0  0  0  0
  -10.2910    4.7180  -18.1890 C   0  0  0  0  0  0  0  0  0  0  0  0
   -9.8780    4.8890  -16.9240 N   0  0  0  0  0  0  0  0  0  0  0  0
   -8.5610    5.0970  -16.6340 C   0  0  0  0  0  0  0  0  0  0  0  0
   -8.2030    2.7800  -12.7720 H   0  0  0  0  0  0  0  0  0  0  0  0
   -7.0610    3.9200  -12.0880 H   0  0  0  0  0  0  0  0  0  0  0  0
   -7.2390    3.8440  -13.8320 H   0  0  0  0  0  0  0  0  0  0  0  0
   -9.1090    6.7310  -12.1990 H   0  0  0  0  0  0  0  0  0  0  0  0
   -7.4580    6.1840  -12.0900 H   0  0  0  0  0  0  0  0  0  0  0  0
   -8.2930    3.0130  -11.0720 H   0  0  0  0  0  0  0  0  0  0  0  0
  -10.0210    3.0650  -10.8440 H   0  0  0  0  0  0  0  0  0  0  0  0
   -7.9590    2.1540   -9.0560 H   0  0  0  0  0  0  0  0  0  0  0  0
  -10.7670    2.5940   -8.3060 H   0  0  0  0  0  0  0  0  0  0  0  0
   -9.5980    1.7390   -7.3250 H   0  0  0  0  0  0  0  0  0  0  0  0
  -10.0650    4.3100   -6.8130 H   0  0  0  0  0  0  0  0  0  0  0  0
   -8.3600    3.7790   -6.8540 H   0  0  0  0  0  0  0  0  0  0  0  0
   -8.4810    7.7220   -9.6040 H   0  0  0  0  0  0  0  0  0  0  0  0
   -9.6190    6.2750  -14.0240 H   0  0  0  0  0  0  0  0  0  0  0  0
  -10.1970    4.7160  -14.3550 H   0  0  0  0  0  0  0  0  0  0  0  0
   -6.4950    5.6440  -13.8170 H   0  0  0  0  0  0  0  0  0  0  0  0
   -4.7910    5.7180  -15.5830 H   0  0  0  0  0  0  0  0  0  0  0  0
   -5.3830    5.4040  -18.1110 H   0  0  0  0  0  0  0  0  0  0  0  0
   -7.1490    4.9980  -19.8540 H   0  0  0  0  0  0  0  0  0  0  0  0
   -9.6260    4.6180  -20.3350 H   0  0  0  0  0  0  0  0  0  0  0  0
  -11.3530    4.5620  -18.3460 H   0  0  0  0  0  0  0  0  0  0  0  0
  1  2  1  0
  2  3  1  0
  3  4  1  0
  4  5  2  0
  5  6  1  0
  6  7  1  0
  7  8  1  0
  8  9  1  0
  9 10  1  0
 10 11  1  0
 11 12  2  0
  2 13  1  0
 13 14  1  0
 14 15  2  0
 15 16  1  0
 16 17  2  0
 17 18  1  0
 18 19  2  0
 19 20  1  0
 20 21  2  0
 21 22  1  0
 22 23  2  0
 12  4  1  0
 10  5  1  0
 23 14  1  0
 23 18  1  0
  1 24  1  0
  1 25  1  0
  1 26  1  0
  3 27  1  0
  3 28  1  0
  6 29  1  0
  6 30  1  0
  7 31  1  0
  8 32  1  0
  8 33  1  0
  9 34  1  0
  9 35  1  0
 12 36  1  0
 13 37  1  0
 13 38  1  0
 15 39  1  0
 16 40  1  0
 17 41  1  0
 19 42  1  0
 20 43  1  0
 21 44  1  0
A    1
 C1 
A    2
 N1 
A    3
 C2 
A    4
 C3 
A    5
 C4 
A    6
 C5 
A    7
 N2 
A    8
 C6 
A    9
 C7 
A   10
 N3 
A   11
 N4 
A   12
 C8 
A   13
 C9 
A   14
 C10
A   15
 C11
A   16
 C12
A   17
 C13
A   18
 C14
A   19
 C15
A   20
 C16
A   21
 C17
A   22
 N5 
A   23
 C18
A   24
 H1 
A   25
 H2 
A   26
 H3 
A   27
 H4 
A   28
 H5 
A   29
 H6 
A   30
 H7 
A   31
 H8 
A   32
 H9 
A   33
 H10
A   34
 H11
A   35
 H12
A   36
 H13
A   37
 H14
A   38
 H15
A   39
 H16
A   40
 H17
A   41
 H18
A   42
 H19
A   43
 H20
A   44
 H21
M  END
>  <ref_pdb>  (210) 
x0051_0B

>  <ref_mols>  (210) 
x0969_1B,x0455_0B

>  <original SMILES>  (210) 
[H]c1nc2c(C([H])([H])N(C([H])([H])[H])C([H])([H])c3c([H])nn4c3C([H])([H])N([H])C([H])([H])C4([H])[H])c([H])c([H])c([H])c2c([H])c1[H]

>  <index>  (210) 
1735

>  <∆∆G>  (210) 
-6.172957

>  <∆G_bound>  (210) 
-5.44237

>  <∆G_unbound>  (210) 
0.730587

>  <comRMSD>  (210) 
0.331411

>  <N_constrained_atoms>  (210) 
20.0

>  <N_unconstrained_atoms>  (210) 
3.0

>  <runtime>  (210) 
49.822812

>  <LE>  (210) 
0.268389

>  <percent_hybrid>  (210) 
50.0

>  <dist>  (210) 
6.0

>  <ecfp4>  (210) 
0.432432

>  <daylight>  (210) 
0.43686

>  <topodist>  (210) 
1.0

>  <mces>  (210) 
25.0

>  <tdn>  (210) 
0.0

>  <tup>  (210) 
1.0

>  <rdn>  (210) 
0.0

>  <rup>  (210) 
0.0

>  <ldn>  (210) 
0.0

>  <lup>  (210) 
0.0

>  <mut>  (210) 
2.0

>  <maj>  (210) 
2.0

>  <min>  (210) 
0.0

>  <hyb>  (210) 
3.0

>  <sub>  (210) 
0.0

>  <query_index>  (210) 
204.0

>  <max_hit_Tanimoto>  (210) 
0.565426

>  <largest_ring>  (210) 
6

>  <N_interactions_kept>  (210) 
0.5

>  <N_interactions_lost>  (210) 
2.0

>  <interaction_uniqueness_metric>  (210) 
0.192402

>  <ad_hoc_penalty>  (210) 
-8.105584

>  <N_rotatable_bonds>  (210) 
5

>  <N_HA>  (210) 
23

>  <cluster>  (210) 
4627

>  <N_interactions>  (210) 
5

>  <Enamine>  (210) 
1

>  <Mcule>  (210) 
0

>  <N_PAINS>  (210) 
0

>  <UFF_Gibbs>  (210) 
168.515342

>  <strain_per_HA>  (210) 
7.326754

>  <intxn_scored>  (210) 
9.5

>  <saltbridge:HIS:51>  (210) 
0

>  <pistack:HIS:51>  (210) 
1

>  <hydroph_interaction:HIS:51>  (210) 
0

>  <hbond:ALA:132>  (210) 
0

>  <hbond:SER:135>  (210) 
0

>  <hydroph_interaction:TYR:150>  (210) 
1

>  <pistack:TYR:161>  (210) 
1

>  <hydroph_interaction:TYR:161>  (210) 
1

>  <hydroph_interaction:ASP:83>  (210) 
0

>  <hbond:TYR:130>  (210) 
0

>  <hydroph_interaction:ALA:132>  (210) 
0

>  <hbond:HIS:51>  (210) 
0

>  <hbond:ASP:129>  (210) 
0

>  <hbond:TYR:150>  (210) 
0

>  <hbond:GLY:151>  (210) 
0

>  <hbond:TYR:161>  (210) 
0

>  <hydroph_interaction:TYR:130>  (210) 
0

>  <hydroph_interaction:PRO:131>  (210) 
0

>  <hydroph_interaction:ASP:129>  (210) 
0

>  <saltbridge:ASP:75>  (210) 
0

>  <saltbridge:ASP:83>  (210) 
0

>  <hbond:ASN:152>  (210) 
0

>  <hydroph_interaction:ASN:152>  (210) 
0

>  <halogenbond:TYR:150>  (210) 
0

>  <hbond:ASP:83>  (210) 
1

>  <hydroph_interaction:VAL:155>  (210) 
0

>  <pication:TYR:161>  (210) 
0

>  <hbond:PRO:131>  (210) 
0

>  <saltbridge:ASP:129>  (210) 
0

>  <hbond:THR:134>  (210) 
0

>  <pication:HIS:51>  (210) 
0

>  <hbond:SER:81>  (210) 
0

>  <hydroph_interaction:THR:134>  (210) 
0

>  <hydroph_interaction:MET:49>  (210) 
0

$$$$
Z1862351795
     RDKit          3D

 25 26  0  0  0  0  0  0  0  0999 V2000
  -10.2150    4.8930  -18.6070 C   0  0  0  0  0  0  0  0  0  0  0  0
   -9.0150    5.0370  -17.6880 C   0  0  0  0  0  0  0  0  0  0  0  0
   -9.3460    5.0090  -16.1870 C   0  0  0  0  0  0  0  0  0  0  0  0
   -8.2600    5.1320  -15.2270 C   0  0  0  0  0  0  0  0  0  0  0  0
   -6.9840    5.2640  -15.7610 C   0  0  0  0  0  0  0  0  0  0  0  0
   -6.6430    5.2950  -17.1430 C   0  0  0  0  0  0  0  0  0  0  0  0
   -5.3190    5.4260  -17.5700 C   0  0  0  0  0  0  0  0  0  0  0  0
   -4.2330    5.5210  -16.6910 C   0  0  0  0  0  0  0  0  0  0  0  0
   -3.0240    5.1230  -17.2080 N   0  0  0  0  0  0  0  0  0  0  0  0
   -4.3220    5.9200  -15.5420 O   0  0  0  0  0  0  0  0  0  0  0  0
   -4.9890    5.4650  -18.9350 C   0  0  0  0  0  0  0  0  0  0  0  0
   -5.9960    5.3660  -19.8910 C   0  0  0  0  0  0  0  0  0  0  0  0
   -7.3340    5.2240  -19.4850 C   0  0  0  0  0  0  0  0  0  0  0  0
   -7.6800    5.1850  -18.1150 C   0  0  0  0  0  0  0  0  0  0  0  0
  -11.0770    5.4280  -18.2100 H   0  0  0  0  0  0  0  0  0  0  0  0
   -9.9990    5.3020  -19.5990 H   0  0  0  0  0  0  0  0  0  0  0  0
  -10.4650    3.8480  -18.7080 H   0  0  0  0  0  0  0  0  0  0  0  0
  -10.3610    4.8970  -15.8280 H   0  0  0  0  0  0  0  0  0  0  0  0
   -8.4320    5.1170  -14.1530 H   0  0  0  0  0  0  0  0  0  0  0  0
   -6.1200    5.3560  -15.0950 H   0  0  0  0  0  0  0  0  0  0  0  0
   -2.1990    5.3310  -16.6560 H   0  0  0  0  0  0  0  0  0  0  0  0
   -2.8990    4.9360  -18.2030 H   0  0  0  0  0  0  0  0  0  0  0  0
   -3.9540    5.5690  -19.2440 H   0  0  0  0  0  0  0  0  0  0  0  0
   -5.7490    5.3960  -20.9500 H   0  0  0  0  0  0  0  0  0  0  0  0
   -8.0900    5.1430  -20.2530 H   0  0  0  0  0  0  0  0  0  0  0  0
  1  2  1  0
  2  3  2  0
  3  4  1  0
  4  5  2  0
  5  6  1  0
  6  7  2  0
  7  8  1  0
  8  9  1  0
  8 10  2  0
  7 11  1  0
 11 12  2  0
 12 13  1  0
 13 14  2  0
 14  2  1  0
 14  6  1  0
  1 15  1  0
  1 16  1  0
  1 17  1  0
  3 18  1  0
  4 19  1  0
  5 20  1  0
  9 21  1  0
  9 22  1  0
 11 23  1  0
 12 24  1  0
 13 25  1  0
A    1
 C1 
A    2
 C2 
A    3
 C3 
A    4
 C4 
A    5
 C5 
A    6
 C6 
A    7
 C7 
A    8
 C8 
A    9
 N1 
A   10
 O1 
A   11
 C9 
A   12
 C10
A   13
 C11
A   14
 C12
A   15
 H1 
A   16
 H2 
A   17
 H3 
A   18
 H4 
A   19
 H5 
A   20
 H6 
A   21
 H7 
A   22
 H8 
A   23
 H9 
A   24
 H10
A   25
 H11
M  END
>  <ref_pdb>  (211) 
x0051_0B

>  <ref_mols>  (211) 
x0425_0B,x0435_0B

>  <original SMILES>  (211) 
[H]c1c([H])c(C([H])([H])[H])c2c([H])c([H])c([H])c(C(=O)N([H])[H])c2c1[H]

>  <index>  (211) 
1428

>  <∆∆G>  (211) 
-8.087015

>  <∆G_bound>  (211) 
-8.045362

>  <∆G_unbound>  (211) 
0.041653

>  <comRMSD>  (211) 
0.544757

>  <N_constrained_atoms>  (211) 
13.0

>  <N_unconstrained_atoms>  (211) 
2.0

>  <runtime>  (211) 
20.864386

>  <LE>  (211) 
0.539134

>  <percent_hybrid>  (211) 
40.0

>  <dist>  (211) 
3.0

>  <ecfp4>  (211) 
0.295455

>  <daylight>  (211) 
0.402985

>  <topodist>  (211) 
1.0

>  <mces>  (211) 
14.0

>  <tdn>  (211) 
0.0

>  <tup>  (211) 
1.0

>  <rdn>  (211) 
0.0

>  <rup>  (211) 
0.0

>  <ldn>  (211) 
0.0

>  <lup>  (211) 
0.0

>  <mut>  (211) 
1.0

>  <maj>  (211) 
1.0

>  <min>  (211) 
0.0

>  <hyb>  (211) 
1.0

>  <sub>  (211) 
0.0

>  <query_index>  (211) 
107.0

>  <max_hit_Tanimoto>  (211) 
0.120267

>  <largest_ring>  (211) 
6

>  <N_interactions_kept>  (211) 
1.0

>  <N_interactions_lost>  (211) 
2.5

>  <interaction_uniqueness_metric>  (211) 
0.04341

>  <ad_hoc_penalty>  (211) 
-8.775086

>  <N_rotatable_bonds>  (211) 
2

>  <N_HA>  (211) 
14

>  <cluster>  (211) 
4907

>  <N_interactions>  (211) 
4

>  <Enamine>  (211) 
1

>  <Mcule>  (211) 
0

>  <N_PAINS>  (211) 
0

>  <UFF_Gibbs>  (211) 
99.042067

>  <strain_per_HA>  (211) 
7.074433

>  <intxn_scored>  (211) 
9.5

>  <saltbridge:HIS:51>  (211) 
0

>  <pistack:HIS:51>  (211) 
0

>  <hydroph_interaction:HIS:51>  (211) 
0

>  <hbond:ALA:132>  (211) 
0

>  <hbond:SER:135>  (211) 
0

>  <hydroph_interaction:TYR:150>  (211) 
1

>  <pistack:TYR:161>  (211) 
2

>  <hydroph_interaction:TYR:161>  (211) 
1

>  <hydroph_interaction:ASP:83>  (211) 
0

>  <hbond:TYR:130>  (211) 
0

>  <hydroph_interaction:ALA:132>  (211) 
0

>  <hbond:HIS:51>  (211) 
0

>  <hbond:ASP:129>  (211) 
0

>  <hbond:TYR:150>  (211) 
0

>  <hbond:GLY:151>  (211) 
0

>  <hbond:TYR:161>  (211) 
0

>  <hydroph_interaction:TYR:130>  (211) 
0

>  <hydroph_interaction:PRO:131>  (211) 
0

>  <hydroph_interaction:ASP:129>  (211) 
0

>  <saltbridge:ASP:75>  (211) 
0

>  <saltbridge:ASP:83>  (211) 
0

>  <hbond:ASN:152>  (211) 
0

>  <hydroph_interaction:ASN:152>  (211) 
0

>  <halogenbond:TYR:150>  (211) 
0

>  <hbond:ASP:83>  (211) 
0

>  <hydroph_interaction:VAL:155>  (211) 
0

>  <pication:TYR:161>  (211) 
0

>  <hbond:PRO:131>  (211) 
0

>  <saltbridge:ASP:129>  (211) 
0

>  <hbond:THR:134>  (211) 
0

>  <pication:HIS:51>  (211) 
0

>  <hbond:SER:81>  (211) 
0

>  <hydroph_interaction:THR:134>  (211) 
0

>  <hydroph_interaction:MET:49>  (211) 
0

$$$$
CSSB06354213188
     RDKit          3D

 20 21  0  0  0  0  0  0  0  0999 V2000
  -10.3040    4.7360  -17.7780 C   0  0  0  0  0  0  0  0  0  0  0  0
   -8.8280    4.9340  -17.6720 C   0  0  0  0  0  0  0  0  0  0  0  0
   -8.2720    5.2010  -16.2770 C   0  0  0  0  0  0  0  0  0  0  0  0
   -6.7560    5.4040  -16.2230 C   0  0  0  0  0  0  0  0  0  0  0  0
   -6.2320    5.6480  -14.8910 N   0  0  0  0  0  0  0  0  0  0  0  0
   -5.9510    5.3570  -17.3470 C   0  0  0  0  0  0  0  0  0  0  0  0
   -6.5790    5.1010  -18.5490 C   0  0  0  0  0  0  0  0  0  0  0  0
   -6.0850    4.9880  -19.7890 C   0  0  0  0  0  0  0  0  0  0  0  0
   -7.1320    4.6780  -20.7970 C   0  0  0  0  0  0  0  0  0  0  0  0
   -8.2860    4.6370  -20.0450 O   0  0  0  0  0  0  0  0  0  0  0  0
   -7.9430    4.8920  -18.7150 C   0  0  0  0  0  0  0  0  0  0  0  0
  -10.6920    4.4070  -16.8220 H   0  0  0  0  0  0  0  0  0  0  0  0
  -10.5210    3.9820  -18.5340 H   0  0  0  0  0  0  0  0  0  0  0  0
  -10.8260    5.6440  -18.0740 H   0  0  0  0  0  0  0  0  0  0  0  0
   -8.9090    5.2430  -15.3960 H   0  0  0  0  0  0  0  0  0  0  0  0
   -6.7720    5.1980  -14.1490 H   0  0  0  0  0  0  0  0  0  0  0  0
   -6.0450    6.6290  -14.6950 H   0  0  0  0  0  0  0  0  0  0  0  0
   -4.8770    5.5090  -17.2890 H   0  0  0  0  0  0  0  0  0  0  0  0
   -5.0230    5.1020  -20.0380 H   0  0  0  0  0  0  0  0  0  0  0  0
   -7.1770    4.5050  -21.8570 H   0  0  0  0  0  0  0  0  0  0  0  0
  1  2  1  0
  2  3  2  0
  3  4  1  0
  4  5  1  0
  4  6  2  0
  6  7  1  0
  7  8  1  0
  8  9  2  0
  9 10  1  0
 10 11  1  0
 11  2  1  0
 11  7  2  0
  1 12  1  0
  1 13  1  0
  1 14  1  0
  3 15  1  0
  5 16  1  0
  5 17  1  0
  6 18  1  0
  8 19  1  0
  9 20  1  0
A    1
 C1 
A    2
 C2 
A    3
 C3 
A    4
 C4 
A    5
 N1 
A    6
 C5 
A    7
 C6 
A    8
 C7 
A    9
 C8 
A   10
 O1 
A   11
 C9 
A   12
 H1 
A   13
 H2 
A   14
 H3 
A   15
 H4 
A   16
 H5 
A   17
 H6 
A   18
 H7 
A   19
 H8 
A   20
 H9 
M  END
>  <ref_pdb>  (212) 
x0051_0B

>  <ref_mols>  (212) 
x0605_0B,x0386_0B

>  <original SMILES>  (212) 
[H]c1oc2c(C([H])([H])[H])c([H])c(N([H])[H])c([H])c2c1[H]

>  <index>  (212) 
1034

>  <∆∆G>  (212) 
-5.649408

>  <∆G_bound>  (212) 
-5.683337

>  <∆G_unbound>  (212) 
-0.033929

>  <comRMSD>  (212) 
0.738707

>  <N_constrained_atoms>  (212) 
12.0

>  <N_unconstrained_atoms>  (212) 
1.0

>  <runtime>  (212) 
29.068602

>  <LE>  (212) 
0.43457

>  <percent_hybrid>  (212) 
38.0

>  <dist>  (212) 
2.0

>  <ecfp4>  (212) 
0.275

>  <daylight>  (212) 
0.318182

>  <topodist>  (212) 
2.0

>  <mces>  (212) 
10.0

>  <tdn>  (212) 
0.0

>  <tup>  (212) 
1.0

>  <rdn>  (212) 
0.0

>  <rup>  (212) 
1.0

>  <ldn>  (212) 
0.0

>  <lup>  (212) 
0.0

>  <mut>  (212) 
0.0

>  <maj>  (212) 
0.0

>  <min>  (212) 
0.0

>  <hyb>  (212) 
0.0

>  <sub>  (212) 
2.0

>  <query_index>  (212) 
312.0

>  <max_hit_Tanimoto>  (212) 
0.10124

>  <largest_ring>  (212) 
6

>  <N_interactions_kept>  (212) 
1.0

>  <N_interactions_lost>  (212) 
1.5

>  <interaction_uniqueness_metric>  (212) 
0.04341

>  <ad_hoc_penalty>  (212) 
-14.276916

>  <N_rotatable_bonds>  (212) 
2

>  <N_HA>  (212) 
11

>  <cluster>  (212) 
5267

>  <N_interactions>  (212) 
4

>  <Enamine>  (212) 
1

>  <Mcule>  (212) 
0

>  <N_PAINS>  (212) 
0

>  <UFF_Gibbs>  (212) 
49.9483

>  <strain_per_HA>  (212) 
4.540755

>  <intxn_scored>  (212) 
9.5

>  <saltbridge:HIS:51>  (212) 
0

>  <pistack:HIS:51>  (212) 
0

>  <hydroph_interaction:HIS:51>  (212) 
0

>  <hbond:ALA:132>  (212) 
0

>  <hbond:SER:135>  (212) 
0

>  <hydroph_interaction:TYR:150>  (212) 
1

>  <pistack:TYR:161>  (212) 
2

>  <hydroph_interaction:TYR:161>  (212) 
1

>  <hydroph_interaction:ASP:83>  (212) 
0

>  <hbond:TYR:130>  (212) 
0

>  <hydroph_interaction:ALA:132>  (212) 
0

>  <hbond:HIS:51>  (212) 
0

>  <hbond:ASP:129>  (212) 
0

>  <hbond:TYR:150>  (212) 
0

>  <hbond:GLY:151>  (212) 
0

>  <hbond:TYR:161>  (212) 
0

>  <hydroph_interaction:TYR:130>  (212) 
0

>  <hydroph_interaction:PRO:131>  (212) 
0

>  <hydroph_interaction:ASP:129>  (212) 
0

>  <saltbridge:ASP:75>  (212) 
0

>  <saltbridge:ASP:83>  (212) 
0

>  <hbond:ASN:152>  (212) 
0

>  <hydroph_interaction:ASN:152>  (212) 
0

>  <halogenbond:TYR:150>  (212) 
0

>  <hbond:ASP:83>  (212) 
0

>  <hydroph_interaction:VAL:155>  (212) 
0

>  <pication:TYR:161>  (212) 
0

>  <hbond:PRO:131>  (212) 
0

>  <saltbridge:ASP:129>  (212) 
0

>  <hbond:THR:134>  (212) 
0

>  <pication:HIS:51>  (212) 
0

>  <hbond:SER:81>  (212) 
0

>  <hydroph_interaction:THR:134>  (212) 
0

>  <hydroph_interaction:MET:49>  (212) 
0

$$$$
CSSB03436944812
     RDKit          3D

 40 42  0  0  0  0  0  0  0  0999 V2000
   -4.3280    5.6410  -17.2520 Cl  0  0  0  0  0  0  0  0  0  0  0  0
   -6.0130    5.4120  -17.5270 C   0  0  0  0  0  0  0  0  0  0  0  0
   -6.5040    5.1740  -18.9360 C   0  0  0  0  0  0  0  0  0  0  0  0
   -7.9930    4.9680  -19.1180 C   0  0  0  0  0  0  0  0  0  0  0  0
   -8.8340    5.0280  -17.8500 C   0  0  0  0  0  0  0  0  0  0  0  0
  -10.1830    4.8400  -18.0500 C   0  0  0  0  0  0  0  0  0  0  0  0
  -11.2720    4.7190  -18.3580 N   0  0  0  0  0  0  0  0  0  0  0  0
   -8.2760    5.2700  -16.5610 C   0  0  0  0  0  0  0  0  0  0  0  0
   -9.1270    5.3330  -15.4180 N   0  0  0  0  0  0  0  0  0  0  0  0
   -8.7920    6.3830  -14.3970 C   0  0  0  0  0  0  0  0  0  0  0  0
   -8.4020    7.7170  -14.6270 O   0  0  0  0  0  0  0  0  0  0  0  0
   -8.8200    5.9520  -12.9450 C   0  0  0  0  0  0  0  0  0  0  0  0
   -8.7630    6.9860  -11.8330 C   0  0  0  0  0  0  0  0  0  0  0  0
   -8.7760    6.4620  -10.3970 C   0  0  0  0  0  0  0  0  0  0  0  0
   -8.8460    4.9380  -10.3390 C   0  0  0  0  0  0  0  0  0  0  0  0
   -8.8960    4.1760  -11.4520 N   0  0  0  0  0  0  0  0  0  0  0  0
   -8.8850    4.6540  -12.7320 N   0  0  0  0  0  0  0  0  0  0  0  0
   -8.8630    4.2720   -9.1340 N   0  0  0  0  0  0  0  0  0  0  0  0
   -8.9890    2.8220   -9.1670 C   0  0  0  0  0  0  0  0  0  0  0  0
   -9.6420    2.4170   -8.0200 C   0  0  0  0  0  0  0  0  0  0  0  0
   -9.2520    3.0490   -6.9050 C   0  0  0  0  0  0  0  0  0  0  0  0
   -8.7490    4.3550   -6.8330 C   0  0  0  0  0  0  0  0  0  0  0  0
   -8.2020    4.8950   -7.9870 C   0  0  0  0  0  0  0  0  0  0  0  0
   -6.8890    5.4500  -16.4370 C   0  0  0  0  0  0  0  0  0  0  0  0
   -5.8370    5.1430  -19.7920 H   0  0  0  0  0  0  0  0  0  0  0  0
   -8.4250    4.7880  -20.1030 H   0  0  0  0  0  0  0  0  0  0  0  0
   -9.4620    4.4230  -15.0820 H   0  0  0  0  0  0  0  0  0  0  0  0
   -8.7120    8.0490  -12.0310 H   0  0  0  0  0  0  0  0  0  0  0  0
   -8.7380    7.1120   -9.5280 H   0  0  0  0  0  0  0  0  0  0  0  0
   -7.9910    2.3660   -9.2180 H   0  0  0  0  0  0  0  0  0  0  0  0
   -9.5700    2.4670  -10.0290 H   0  0  0  0  0  0  0  0  0  0  0  0
  -10.7150    2.5920   -8.1520 H   0  0  0  0  0  0  0  0  0  0  0  0
   -9.5310    1.3450   -7.8920 H   0  0  0  0  0  0  0  0  0  0  0  0
   -8.5120    2.3940   -6.4320 H   0  0  0  0  0  0  0  0  0  0  0  0
  -10.1170    3.0410   -6.2340 H   0  0  0  0  0  0  0  0  0  0  0  0
   -9.5440    5.0140   -6.4680 H   0  0  0  0  0  0  0  0  0  0  0  0
   -7.9760    4.3690   -6.0520 H   0  0  0  0  0  0  0  0  0  0  0  0
   -7.1180    4.7230   -8.0140 H   0  0  0  0  0  0  0  0  0  0  0  0
   -8.3800    5.9760   -7.9780 H   0  0  0  0  0  0  0  0  0  0  0  0
   -6.4440    5.6310  -15.4640 H   0  0  0  0  0  0  0  0  0  0  0  0
  1  2  1  0
  2  3  2  0
  3  4  1  0
  4  5  2  0
  5  6  1  0
  6  7  3  0
  5  8  1  0
  8  9  1  0
  9 10  1  0
 10 11  2  0
 10 12  1  0
 12 13  2  0
 13 14  1  0
 14 15  2  0
 15 16  1  0
 16 17  2  0
 15 18  1  0
 18 19  1  0
 19 20  1  0
 20 21  1  0
 21 22  1  0
 22 23  1  0
  8 24  2  0
 24  2  1  0
 17 12  1  0
 23 18  1  0
  3 25  1  0
  4 26  1  0
  9 27  1  0
 13 28  1  0
 14 29  1  0
 19 30  1  0
 19 31  1  0
 20 32  1  0
 20 33  1  0
 21 34  1  0
 21 35  1  0
 22 36  1  0
 22 37  1  0
 23 38  1  0
 23 39  1  0
 24 40  1  0
A    1
CL1 
A    2
 C1 
A    3
 C2 
A    4
 C3 
A    5
 C4 
A    6
 C5 
A    7
 N1 
A    8
 C6 
A    9
 N2 
A   10
 C7 
A   11
 O1 
A   12
 C8 
A   13
 C9 
A   14
 C10
A   15
 C11
A   16
 N3 
A   17
 N4 
A   18
 N5 
A   19
 C12
A   20
 C13
A   21
 C14
A   22
 C15
A   23
 C16
A   24
 C17
A   25
 H1 
A   26
 H2 
A   27
 H3 
A   28
 H4 
A   29
 H5 
A   30
 H6 
A   31
 H7 
A   32
 H8 
A   33
 H9 
A   34
 H10
A   35
 H11
A   36
 H12
A   37
 H13
A   38
 H14
A   39
 H15
A   40
 H16
M  END
>  <ref_pdb>  (213) 
x0051_0B

>  <ref_mols>  (213) 
x0605_0B,x0404_0B

>  <original SMILES>  (213) 
[H]c1c(C(=O)N([H])c2c([H])c(Cl)c([H])c([H])c2C#N)nnc(N2C([H])([H])C([H])([H])C([H])([H])C([H])([H])C2([H])[H])c1[H]

>  <index>  (213) 
815

>  <∆∆G>  (213) 
-6.30469

>  <∆G_bound>  (213) 
-5.575878

>  <∆G_unbound>  (213) 
0.728812

>  <comRMSD>  (213) 
0.560956

>  <N_constrained_atoms>  (213) 
23.0

>  <N_unconstrained_atoms>  (213) 
2.0

>  <runtime>  (213) 
66.469668

>  <LE>  (213) 
0.252188

>  <percent_hybrid>  (213) 
40.0

>  <dist>  (213) 
11.0

>  <ecfp4>  (213) 
0.10989

>  <daylight>  (213) 
0.18677

>  <topodist>  (213) 
4.0

>  <mces>  (213) 
25.0

>  <tdn>  (213) 
2.0

>  <tup>  (213) 
1.0

>  <rdn>  (213) 
0.0

>  <rup>  (213) 
0.0

>  <ldn>  (213) 
1.0

>  <lup>  (213) 
0.0

>  <mut>  (213) 
5.0

>  <maj>  (213) 
5.0

>  <min>  (213) 
0.0

>  <hyb>  (213) 
2.0

>  <sub>  (213) 
2.0

>  <query_index>  (213) 
27.0

>  <max_hit_Tanimoto>  (213) 
0.194995

>  <largest_ring>  (213) 
6

>  <N_interactions_kept>  (213) 
1.5

>  <N_interactions_lost>  (213) 
2.5

>  <interaction_uniqueness_metric>  (213) 
0.167881

>  <ad_hoc_penalty>  (213) 
-15.288061

>  <N_rotatable_bonds>  (213) 
3

>  <N_HA>  (213) 
24

>  <cluster>  (213) 
5471

>  <N_interactions>  (213) 
6

>  <Enamine>  (213) 
1

>  <Mcule>  (213) 
0

>  <N_PAINS>  (213) 
0

>  <UFF_Gibbs>  (213) 
162.686793

>  <strain_per_HA>  (213) 
6.778616

>  <intxn_scored>  (213) 
9.5

>  <saltbridge:HIS:51>  (213) 
0

>  <pistack:HIS:51>  (213) 
1

>  <hydroph_interaction:HIS:51>  (213) 
1

>  <hbond:ALA:132>  (213) 
0

>  <hbond:SER:135>  (213) 
0

>  <hydroph_interaction:TYR:150>  (213) 
0

>  <pistack:TYR:161>  (213) 
1

>  <hydroph_interaction:TYR:161>  (213) 
1

>  <hydroph_interaction:ASP:83>  (213) 
0

>  <hbond:TYR:130>  (213) 
0

>  <hydroph_interaction:ALA:132>  (213) 
0

>  <hbond:HIS:51>  (213) 
0

>  <hbond:ASP:129>  (213) 
0

>  <hbond:TYR:150>  (213) 
0

>  <hbond:GLY:151>  (213) 
1

>  <hbond:TYR:161>  (213) 
1

>  <hydroph_interaction:TYR:130>  (213) 
0

>  <hydroph_interaction:PRO:131>  (213) 
0

>  <hydroph_interaction:ASP:129>  (213) 
0

>  <saltbridge:ASP:75>  (213) 
0

>  <saltbridge:ASP:83>  (213) 
0

>  <hbond:ASN:152>  (213) 
0

>  <hydroph_interaction:ASN:152>  (213) 
0

>  <halogenbond:TYR:150>  (213) 
0

>  <hbond:ASP:83>  (213) 
0

>  <hydroph_interaction:VAL:155>  (213) 
0

>  <pication:TYR:161>  (213) 
0

>  <hbond:PRO:131>  (213) 
0

>  <saltbridge:ASP:129>  (213) 
0

>  <hbond:THR:134>  (213) 
0

>  <pication:HIS:51>  (213) 
0

>  <hbond:SER:81>  (213) 
0

>  <hydroph_interaction:THR:134>  (213) 
0

>  <hydroph_interaction:MET:49>  (213) 
0

$$$$
CSSB00011620619
     RDKit          3D

 22 23  0  0  0  0  0  0  0  0999 V2000
   -9.7680    4.8370  -19.0500 C   0  0  0  0  0  0  0  0  0  0  0  0
   -8.7810    5.0050  -17.9290 C   0  0  0  0  0  0  0  0  0  0  0  0
   -9.4020    4.9170  -16.5580 C   0  0  0  0  0  0  0  0  0  0  0  0
   -8.4540    5.0700  -15.3920 C   0  0  0  0  0  0  0  0  0  0  0  0
   -6.9610    5.2940  -15.6830 C   0  0  0  0  0  0  0  0  0  0  0  0
   -5.9390    5.4550  -14.2910 Cl  0  0  0  0  0  0  0  0  0  0  0  0
   -6.4940    5.3560  -17.0460 C   0  0  0  0  0  0  0  0  0  0  0  0
   -5.1400    5.5470  -17.3720 C   0  0  0  0  0  0  0  0  0  0  0  0
   -4.0990    5.6940  -16.4280 N   0  0  0  0  0  0  0  0  0  0  0  0
   -4.8110    5.5920  -18.7090 C   0  0  0  0  0  0  0  0  0  0  0  0
   -5.7710    5.4550  -19.6840 C   0  0  0  0  0  0  0  0  0  0  0  0
   -7.0610    5.2680  -19.4430 N   0  0  0  0  0  0  0  0  0  0  0  0
   -7.4240    5.2150  -18.1450 C   0  0  0  0  0  0  0  0  0  0  0  0
   -9.6830    5.6430  -19.7840 H   0  0  0  0  0  0  0  0  0  0  0  0
   -9.5650    3.9000  -19.5710 H   0  0  0  0  0  0  0  0  0  0  0  0
  -10.7930    4.8200  -18.6640 H   0  0  0  0  0  0  0  0  0  0  0  0
  -10.4580    4.7510  -16.4070 H   0  0  0  0  0  0  0  0  0  0  0  0
   -8.8360    5.0170  -14.3770 H   0  0  0  0  0  0  0  0  0  0  0  0
   -3.1540    5.6130  -16.8070 H   0  0  0  0  0  0  0  0  0  0  0  0
   -4.2350    5.1510  -15.5800 H   0  0  0  0  0  0  0  0  0  0  0  0
   -3.7630    5.7400  -18.9970 H   0  0  0  0  0  0  0  0  0  0  0  0
   -5.4650    5.4990  -20.7380 H   0  0  0  0  0  0  0  0  0  0  0  0
  1  2  1  0
  2  3  2  0
  3  4  1  0
  4  5  2  0
  5  6  1  0
  5  7  1  0
  7  8  2  0
  8  9  1  0
  8 10  1  0
 10 11  2  0
 11 12  1  0
 12 13  2  0
 13  2  1  0
 13  7  1  0
  1 14  1  0
  1 15  1  0
  1 16  1  0
  3 17  1  0
  4 18  1  0
  9 19  1  0
  9 20  1  0
 10 21  1  0
 11 22  1  0
A    1
 C1 
A    2
 C2 
A    3
 C3 
A    4
 C4 
A    5
 C5 
A    6
CL1 
A    7
 C6 
A    8
 C7 
A    9
 N1 
A   10
 C8 
A   11
 C9 
A   12
 N2 
A   13
 C10
A   14
 H1 
A   15
 H2 
A   16
 H3 
A   17
 H4 
A   18
 H5 
A   19
 H6 
A   20
 H7 
A   21
 H8 
A   22
 H9 
M  END
>  <ref_pdb>  (214) 
x0051_0B

>  <ref_mols>  (214) 
x0425_0B,x0435_0B

>  <original SMILES>  (214) 
[H]c1nc2c(C([H])([H])[H])c([H])c([H])c(Cl)c2c(N([H])[H])c1[H]

>  <index>  (214) 
2072

>  <∆∆G>  (214) 
-6.751305

>  <∆G_bound>  (214) 
-6.6835

>  <∆G_unbound>  (214) 
0.067805

>  <comRMSD>  (214) 
0.681663

>  <N_constrained_atoms>  (214) 
13.0

>  <N_unconstrained_atoms>  (214) 
2.0

>  <runtime>  (214) 
25.643081

>  <LE>  (214) 
0.450087

>  <percent_hybrid>  (214) 
40.0

>  <dist>  (214) 
2.0

>  <ecfp4>  (214) 
0.333333

>  <daylight>  (214) 
0.5

>  <topodist>  (214) 
2.0

>  <mces>  (214) 
13.0

>  <tdn>  (214) 
0.0

>  <tup>  (214) 
1.0

>  <rdn>  (214) 
0.0

>  <rup>  (214) 
0.0

>  <ldn>  (214) 
1.0

>  <lup>  (214) 
0.0

>  <mut>  (214) 
0.0

>  <maj>  (214) 
0.0

>  <min>  (214) 
0.0

>  <hyb>  (214) 
0.0

>  <sub>  (214) 
1.0

>  <query_index>  (214) 
107.0

>  <max_hit_Tanimoto>  (214) 
0.155072

>  <largest_ring>  (214) 
6

>  <N_interactions_kept>  (214) 
1.0

>  <N_interactions_lost>  (214) 
2.5

>  <interaction_uniqueness_metric>  (214) 
0.04341

>  <ad_hoc_penalty>  (214) 
-7.718366

>  <N_rotatable_bonds>  (214) 
2

>  <N_HA>  (214) 
13

>  <cluster>  (214) 
4319

>  <N_interactions>  (214) 
4

>  <Enamine>  (214) 
1

>  <Mcule>  (214) 
0

>  <N_PAINS>  (214) 
0

>  <UFF_Gibbs>  (214) 
54.064781

>  <strain_per_HA>  (214) 
4.158829

>  <intxn_scored>  (214) 
9.5

>  <saltbridge:HIS:51>  (214) 
0

>  <pistack:HIS:51>  (214) 
0

>  <hydroph_interaction:HIS:51>  (214) 
0

>  <hbond:ALA:132>  (214) 
0

>  <hbond:SER:135>  (214) 
0

>  <hydroph_interaction:TYR:150>  (214) 
1

>  <pistack:TYR:161>  (214) 
2

>  <hydroph_interaction:TYR:161>  (214) 
1

>  <hydroph_interaction:ASP:83>  (214) 
0

>  <hbond:TYR:130>  (214) 
0

>  <hydroph_interaction:ALA:132>  (214) 
0

>  <hbond:HIS:51>  (214) 
0

>  <hbond:ASP:129>  (214) 
0

>  <hbond:TYR:150>  (214) 
0

>  <hbond:GLY:151>  (214) 
0

>  <hbond:TYR:161>  (214) 
0

>  <hydroph_interaction:TYR:130>  (214) 
0

>  <hydroph_interaction:PRO:131>  (214) 
0

>  <hydroph_interaction:ASP:129>  (214) 
0

>  <saltbridge:ASP:75>  (214) 
0

>  <saltbridge:ASP:83>  (214) 
0

>  <hbond:ASN:152>  (214) 
0

>  <hydroph_interaction:ASN:152>  (214) 
0

>  <halogenbond:TYR:150>  (214) 
0

>  <hbond:ASP:83>  (214) 
0

>  <hydroph_interaction:VAL:155>  (214) 
0

>  <pication:TYR:161>  (214) 
0

>  <hbond:PRO:131>  (214) 
0

>  <saltbridge:ASP:129>  (214) 
0

>  <hbond:THR:134>  (214) 
0

>  <pication:HIS:51>  (214) 
0

>  <hbond:SER:81>  (214) 
0

>  <hydroph_interaction:THR:134>  (214) 
0

>  <hydroph_interaction:MET:49>  (214) 
0

$$$$
Z2775013427
     RDKit          3D

 39 41  0  0  0  0  0  0  0  0999 V2000
   -5.6970    5.6560  -18.9100 C   0  0  0  0  0  0  0  0  0  0  0  0
   -6.7690    5.4140  -18.0030 C   0  0  0  0  0  0  0  0  0  0  0  0
   -8.0450    5.2660  -18.5160 C   0  0  0  0  0  0  0  0  0  0  0  0
   -9.0960    5.0320  -17.6610 C   0  0  0  0  0  0  0  0  0  0  0  0
  -10.7800    4.8640  -18.4160 Br  0  0  0  0  0  0  0  0  0  0  0  0
   -8.8850    4.9400  -16.3030 C   0  0  0  0  0  0  0  0  0  0  0  0
   -7.6220    5.0780  -15.7590 C   0  0  0  0  0  0  0  0  0  0  0  0
   -7.5050    4.9320  -14.2570 N   0  0  0  0  0  0  0  0  0  0  0  0
   -8.0690    6.0230  -13.4240 C   0  0  0  0  0  0  0  0  0  0  0  0
   -7.8320    7.4290  -13.5580 O   0  0  0  0  0  0  0  0  0  0  0  0
   -8.9790    5.4690  -12.3540 C   0  0  0  0  0  0  0  0  0  0  0  0
   -8.9210    5.5390  -10.9490 C   0  0  0  0  0  0  0  0  0  0  0  0
   -8.9560    4.5070   -9.9040 C   0  0  0  0  0  0  0  0  0  0  0  0
   -9.0590    3.0370  -10.2120 C   0  0  0  0  0  0  0  0  0  0  0  0
   -9.3890    2.2360   -8.9410 C   0  0  0  0  0  0  0  0  0  0  0  0
   -9.5230    2.9340   -7.5660 C   0  0  0  0  0  0  0  0  0  0  0  0
   -8.9110    4.3360   -7.3910 C   0  0  0  0  0  0  0  0  0  0  0  0
   -8.8870    5.0830   -8.6150 N   0  0  0  0  0  0  0  0  0  0  0  0
   -8.7970    6.4170   -8.7350 N   0  0  0  0  0  0  0  0  0  0  0  0
   -8.8200    6.6890  -10.0850 C   0  0  0  0  0  0  0  0  0  0  0  0
   -6.5440    5.3220  -16.6150 C   0  0  0  0  0  0  0  0  0  0  0  0
   -5.8960    5.1950  -19.8840 H   0  0  0  0  0  0  0  0  0  0  0  0
   -5.5550    6.7300  -19.0770 H   0  0  0  0  0  0  0  0  0  0  0  0
   -4.7570    5.2530  -18.5170 H   0  0  0  0  0  0  0  0  0  0  0  0
   -8.2250    5.3360  -19.5910 H   0  0  0  0  0  0  0  0  0  0  0  0
   -9.7440    4.7530  -15.6670 H   0  0  0  0  0  0  0  0  0  0  0  0
   -6.6590    4.4910  -13.9150 H   0  0  0  0  0  0  0  0  0  0  0  0
   -9.9520    5.9000  -12.6080 H   0  0  0  0  0  0  0  0  0  0  0  0
   -9.0740    4.4080  -12.6170 H   0  0  0  0  0  0  0  0  0  0  0  0
   -9.8420    2.8580  -10.9580 H   0  0  0  0  0  0  0  0  0  0  0  0
   -8.1200    2.6800  -10.6440 H   0  0  0  0  0  0  0  0  0  0  0  0
   -8.6880    1.4060   -8.8480 H   0  0  0  0  0  0  0  0  0  0  0  0
  -10.3450    1.7870   -9.1150 H   0  0  0  0  0  0  0  0  0  0  0  0
   -9.0450    2.2750   -6.8320 H   0  0  0  0  0  0  0  0  0  0  0  0
  -10.5810    2.9700   -7.2860 H   0  0  0  0  0  0  0  0  0  0  0  0
   -7.8880    4.2650   -7.0170 H   0  0  0  0  0  0  0  0  0  0  0  0
   -9.5000    4.9150   -6.6930 H   0  0  0  0  0  0  0  0  0  0  0  0
   -8.7620    7.7290  -10.3860 H   0  0  0  0  0  0  0  0  0  0  0  0
   -5.5370    5.4360  -16.2220 H   0  0  0  0  0  0  0  0  0  0  0  0
  1  2  1  0
  2  3  2  0
  3  4  1  0
  4  5  1  0
  4  6  2  0
  6  7  1  0
  7  8  1  0
  8  9  1  0
  9 10  2  0
  9 11  1  0
 11 12  1  0
 12 13  2  0
 13 14  1  0
 14 15  1  0
 15 16  1  0
 16 17  1  0
 17 18  1  0
 18 19  1  0
 19 20  2  0
  7 21  2  0
 21  2  1  0
 20 12  1  0
 18 13  1  0
  1 22  1  0
  1 23  1  0
  1 24  1  0
  3 25  1  0
  6 26  1  0
  8 27  1  0
 11 28  1  0
 11 29  1  0
 14 30  1  0
 14 31  1  0
 15 32  1  0
 15 33  1  0
 16 34  1  0
 16 35  1  0
 17 36  1  0
 17 37  1  0
 20 38  1  0
 21 39  1  0
A    1
 C1 
A    2
 C2 
A    3
 C3 
A    4
 C4 
A    5
BR1 
A    6
 C5 
A    7
 C6 
A    8
 N1 
A    9
 C7 
A   10
 O1 
A   11
 C8 
A   12
 C9 
A   13
 C10
A   14
 C11
A   15
 C12
A   16
 C13
A   17
 C14
A   18
 N2 
A   19
 N3 
A   20
 C15
A   21
 C16
A   22
 H1 
A   23
 H2 
A   24
 H3 
A   25
 H4 
A   26
 H5 
A   27
 H6 
A   28
 H7 
A   29
 H8 
A   30
 H9 
A   31
 H10
A   32
 H11
A   33
 H12
A   34
 H13
A   35
 H14
A   36
 H15
A   37
 H16
A   38
 H17
A   39
 H18
M  END
>  <ref_pdb>  (215) 
x0051_0B

>  <ref_mols>  (215) 
x0589_0B,x0969_1B

>  <original SMILES>  (215) 
[H]c1nn2c(c1C([H])([H])C(=O)N([H])c1c([H])c(Br)c([H])c(C([H])([H])[H])c1[H])C([H])([H])C([H])([H])C([H])([H])C2([H])[H]

>  <index>  (215) 
1191

>  <∆∆G>  (215) 
-5.197233

>  <∆G_bound>  (215) 
-4.520333

>  <∆G_unbound>  (215) 
0.6769

>  <comRMSD>  (215) 
0.559151

>  <N_constrained_atoms>  (215) 
18.0

>  <N_unconstrained_atoms>  (215) 
3.0

>  <runtime>  (215) 
39.882334

>  <LE>  (215) 
0.247487

>  <percent_hybrid>  (215) 
45.0

>  <dist>  (215) 
4.0

>  <ecfp4>  (215) 
0.441176

>  <daylight>  (215) 
0.307692

>  <topodist>  (215) 
1.0

>  <mces>  (215) 
22.0

>  <tdn>  (215) 
0.0

>  <tup>  (215) 
1.0

>  <rdn>  (215) 
0.0

>  <rup>  (215) 
0.0

>  <ldn>  (215) 
0.0

>  <lup>  (215) 
0.0

>  <mut>  (215) 
2.0

>  <maj>  (215) 
2.0

>  <min>  (215) 
0.0

>  <hyb>  (215) 
1.0

>  <sub>  (215) 
0.0

>  <query_index>  (215) 
379.0

>  <max_hit_Tanimoto>  (215) 
0.319085

>  <largest_ring>  (215) 
6

>  <N_interactions_kept>  (215) 
1.0

>  <N_interactions_lost>  (215) 
1.5

>  <interaction_uniqueness_metric>  (215) 
0.130457

>  <ad_hoc_penalty>  (215) 
-13.763185

>  <N_rotatable_bonds>  (215) 
4

>  <N_HA>  (215) 
21

>  <cluster>  (215) 
5123

>  <N_interactions>  (215) 
5

>  <Enamine>  (215) 
1

>  <Mcule>  (215) 
0

>  <N_PAINS>  (215) 
0

>  <UFF_Gibbs>  (215) 
101.991366

>  <strain_per_HA>  (215) 
4.856732

>  <intxn_scored>  (215) 
9.5

>  <saltbridge:HIS:51>  (215) 
0

>  <pistack:HIS:51>  (215) 
1

>  <hydroph_interaction:HIS:51>  (215) 
1

>  <hbond:ALA:132>  (215) 
0

>  <hbond:SER:135>  (215) 
0

>  <hydroph_interaction:TYR:150>  (215) 
0

>  <pistack:TYR:161>  (215) 
1

>  <hydroph_interaction:TYR:161>  (215) 
1

>  <hydroph_interaction:ASP:83>  (215) 
0

>  <hbond:TYR:130>  (215) 
0

>  <hydroph_interaction:ALA:132>  (215) 
0

>  <hbond:HIS:51>  (215) 
0

>  <hbond:ASP:129>  (215) 
0

>  <hbond:TYR:150>  (215) 
0

>  <hbond:GLY:151>  (215) 
0

>  <hbond:TYR:161>  (215) 
1

>  <hydroph_interaction:TYR:130>  (215) 
0

>  <hydroph_interaction:PRO:131>  (215) 
0

>  <hydroph_interaction:ASP:129>  (215) 
0

>  <saltbridge:ASP:75>  (215) 
0

>  <saltbridge:ASP:83>  (215) 
0

>  <hbond:ASN:152>  (215) 
0

>  <hydroph_interaction:ASN:152>  (215) 
0

>  <halogenbond:TYR:150>  (215) 
0

>  <hbond:ASP:83>  (215) 
0

>  <hydroph_interaction:VAL:155>  (215) 
0

>  <pication:TYR:161>  (215) 
0

>  <hbond:PRO:131>  (215) 
0

>  <saltbridge:ASP:129>  (215) 
0

>  <hbond:THR:134>  (215) 
0

>  <pication:HIS:51>  (215) 
0

>  <hbond:SER:81>  (215) 
0

>  <hydroph_interaction:THR:134>  (215) 
0

>  <hydroph_interaction:MET:49>  (215) 
0

$$$$
PV-007066767766
     RDKit          3D

 51 54  0  0  0  0  0  0  0  0999 V2000
   -6.1220    5.8890  -16.2820 C   0  0  0  0  0  0  0  0  0  0  0  0
   -7.5080    5.5060  -16.8030 C   0  0  0  0  0  0  0  0  0  0  0  0
   -8.5340    5.3300  -15.6970 C   0  0  0  0  0  0  0  0  0  0  0  0
   -7.9930    5.5580  -14.4420 N   0  0  0  0  0  0  0  0  0  0  0  0
   -8.6850    6.0160  -13.2320 C   0  0  0  0  0  0  0  0  0  0  0  0
   -9.1420    7.3340  -12.9220 O   0  0  0  0  0  0  0  0  0  0  0  0
   -8.8660    4.9390  -12.3480 C   0  0  0  0  0  0  0  0  0  0  0  0
   -8.8660    5.2250  -10.8650 C   0  0  0  0  0  0  0  0  0  0  0  0
   -8.9550    4.2810   -9.8770 C   0  0  0  0  0  0  0  0  0  0  0  0
   -9.0550    2.9090  -10.0960 O   0  0  0  0  0  0  0  0  0  0  0  0
   -8.7000    2.2790   -8.8560 C   0  0  0  0  0  0  0  0  0  0  0  0
   -9.3580    2.8430   -7.7440 C   0  0  0  0  0  0  0  0  0  0  0  0
   -9.0180    4.1670   -7.3770 C   0  0  0  0  0  0  0  0  0  0  0  0
   -8.9290    4.9330   -8.5990 N   0  0  0  0  0  0  0  0  0  0  0  0
   -8.8180    6.2820   -8.7380 N   0  0  0  0  0  0  0  0  0  0  0  0
   -8.7810    6.4680  -10.2140 C   0  0  0  0  0  0  0  0  0  0  0  0
   -9.8050    4.9800  -16.0930 C   0  0  0  0  0  0  0  0  0  0  0  0
  -10.1050    4.7880  -17.6140 C   0  0  0  0  0  0  0  0  0  0  0  0
   -9.1030    4.9670  -18.5710 C   0  0  0  0  0  0  0  0  0  0  0  0
   -7.8050    5.3340  -18.1660 C   0  0  0  0  0  0  0  0  0  0  0  0
   -6.7610    5.5510  -19.0800 N   0  0  0  0  0  0  0  0  0  0  0  0
   -6.5510    4.9760  -20.3020 C   0  0  0  0  0  0  0  0  0  0  0  0
   -7.3090    4.2770  -20.9590 O   0  0  0  0  0  0  0  0  0  0  0  0
   -5.2140    5.2610  -20.8480 C   0  0  0  0  0  0  0  0  0  0  0  0
   -4.1300    5.2950  -19.9560 C   0  0  0  0  0  0  0  0  0  0  0  0
   -2.8890    5.5360  -20.4210 C   0  0  0  0  0  0  0  0  0  0  0  0
   -2.6820    5.7650  -21.8440 C   0  0  0  0  0  0  0  0  0  0  0  0
   -3.7190    5.7440  -22.7030 C   0  0  0  0  0  0  0  0  0  0  0  0
   -5.0260    5.4860  -22.2060 C   0  0  0  0  0  0  0  0  0  0  0  0
   -5.3690    5.8470  -17.0760 H   0  0  0  0  0  0  0  0  0  0  0  0
   -5.7980    5.2010  -15.4920 H   0  0  0  0  0  0  0  0  0  0  0  0
   -6.1170    6.9050  -15.8700 H   0  0  0  0  0  0  0  0  0  0  0  0
   -7.0110    5.3190  -14.4070 H   0  0  0  0  0  0  0  0  0  0  0  0
   -8.1480    4.1480  -12.5570 H   0  0  0  0  0  0  0  0  0  0  0  0
   -9.7610    4.3970  -12.6350 H   0  0  0  0  0  0  0  0  0  0  0  0
   -7.6120    2.3590   -8.7430 H   0  0  0  0  0  0  0  0  0  0  0  0
   -8.9300    1.2250   -8.9250 H   0  0  0  0  0  0  0  0  0  0  0  0
   -9.1560    2.2050   -6.8920 H   0  0  0  0  0  0  0  0  0  0  0  0
  -10.4400    2.7980   -7.9240 H   0  0  0  0  0  0  0  0  0  0  0  0
   -8.0820    4.3330   -6.8500 H   0  0  0  0  0  0  0  0  0  0  0  0
   -9.8340    4.5850   -6.7740 H   0  0  0  0  0  0  0  0  0  0  0  0
   -8.6970    7.4670  -10.6330 H   0  0  0  0  0  0  0  0  0  0  0  0
  -10.6560    4.8120  -15.4300 H   0  0  0  0  0  0  0  0  0  0  0  0
  -11.1300    4.5110  -17.8670 H   0  0  0  0  0  0  0  0  0  0  0  0
   -9.3720    4.8220  -19.6130 H   0  0  0  0  0  0  0  0  0  0  0  0
   -6.0510    6.2090  -18.7890 H   0  0  0  0  0  0  0  0  0  0  0  0
   -4.3210    5.1190  -18.9070 H   0  0  0  0  0  0  0  0  0  0  0  0
   -2.0300    5.5640  -19.7590 H   0  0  0  0  0  0  0  0  0  0  0  0
   -1.6700    5.9550  -22.1930 H   0  0  0  0  0  0  0  0  0  0  0  0
   -3.5900    5.9150  -23.7630 H   0  0  0  0  0  0  0  0  0  0  0  0
   -5.8680    5.4640  -22.8890 H   0  0  0  0  0  0  0  0  0  0  0  0
  1  2  1  0
  2  3  2  0
  3  4  1  0
  4  5  1  0
  5  6  2  0
  5  7  1  0
  7  8  1  0
  8  9  2  0
  9 10  1  0
 10 11  1  0
 11 12  1  0
 12 13  1  0
 13 14  1  0
 14 15  1  0
 15 16  2  0
  3 17  1  0
 17 18  2  0
 18 19  1  0
 19 20  2  0
 20 21  1  0
 21 22  1  0
 22 23  2  0
 22 24  1  0
 24 25  2  0
 25 26  1  0
 26 27  2  0
 27 28  1  0
 28 29  2  0
 20  2  1  0
 16  8  1  0
 14  9  1  0
 29 24  1  0
  1 30  1  0
  1 31  1  0
  1 32  1  0
  4 33  1  0
  7 34  1  0
  7 35  1  0
 11 36  1  0
 11 37  1  0
 12 38  1  0
 12 39  1  0
 13 40  1  0
 13 41  1  0
 16 42  1  0
 17 43  1  0
 18 44  1  0
 19 45  1  0
 21 46  1  0
 25 47  1  0
 26 48  1  0
 27 49  1  0
 28 50  1  0
 29 51  1  0
A    1
 C1 
A    2
 C2 
A    3
 C3 
A    4
 N1 
A    5
 C4 
A    6
 O1 
A    7
 C5 
A    8
 C6 
A    9
 C7 
A   10
 O2 
A   11
 C8 
A   12
 C9 
A   13
 C10
A   14
 N2 
A   15
 N3 
A   16
 C11
A   17
 C12
A   18
 C13
A   19
 C14
A   20
 C15
A   21
 N4 
A   22
 C16
A   23
 O3 
A   24
 C17
A   25
 C18
A   26
 C19
A   27
 C20
A   28
 C21
A   29
 C22
A   30
 H1 
A   31
 H2 
A   32
 H3 
A   33
 H4 
A   34
 H5 
A   35
 H6 
A   36
 H7 
A   37
 H8 
A   38
 H9 
A   39
 H10
A   40
 H11
A   41
 H12
A   42
 H13
A   43
 H14
A   44
 H15
A   45
 H16
A   46
 H17
A   47
 H18
A   48
 H19
A   49
 H20
A   50
 H21
A   51
 H22
M  END
>  <ref_pdb>  (216) 
x0051_0B

>  <ref_mols>  (216) 
x0852_0B,x0969_1B

>  <original SMILES>  (216) 
[H]c1nn2c(c1C([H])([H])C(=O)N([H])c1c([H])c([H])c([H])c(N([H])C(=O)c3c([H])c([H])c([H])c([H])c3[H])c1C([H])([H])[H])OC([H])([H])C([H])([H])C2([H])[H]

>  <index>  (216) 
1445

>  <∆∆G>  (216) 
-9.169745

>  <∆G_bound>  (216) 
-8.369186

>  <∆G_unbound>  (216) 
0.800559

>  <comRMSD>  (216) 
0.396321

>  <N_constrained_atoms>  (216) 
28.0

>  <N_unconstrained_atoms>  (216) 
3.0

>  <runtime>  (216) 
59.097064

>  <LE>  (216) 
0.295798

>  <percent_hybrid>  (216) 
36.0

>  <dist>  (216) 
8.0

>  <ecfp4>  (216) 
0.272727

>  <daylight>  (216) 
0.377907

>  <topodist>  (216) 
3.0

>  <mces>  (216) 
31.0

>  <tdn>  (216) 
2.0

>  <tup>  (216) 
1.0

>  <rdn>  (216) 
0.0

>  <rup>  (216) 
0.0

>  <ldn>  (216) 
0.0

>  <lup>  (216) 
0.0

>  <mut>  (216) 
4.0

>  <maj>  (216) 
4.0

>  <min>  (216) 
0.0

>  <hyb>  (216) 
1.0

>  <sub>  (216) 
2.0

>  <query_index>  (216) 
46.0

>  <max_hit_Tanimoto>  (216) 
0.364583

>  <largest_ring>  (216) 
6

>  <N_interactions_kept>  (216) 
3.0

>  <N_interactions_lost>  (216) 
3.0

>  <interaction_uniqueness_metric>  (216) 
0.133962

>  <ad_hoc_penalty>  (216) 
-8.991688

>  <N_rotatable_bonds>  (216) 
6

>  <N_HA>  (216) 
29

>  <cluster>  (216) 
4891

>  <N_interactions>  (216) 
6

>  <Enamine>  (216) 
1

>  <Mcule>  (216) 
0

>  <N_PAINS>  (216) 
0

>  <UFF_Gibbs>  (216) 
222.17979

>  <strain_per_HA>  (216) 
7.661372

>  <intxn_scored>  (216) 
9.5

>  <saltbridge:HIS:51>  (216) 
0

>  <pistack:HIS:51>  (216) 
1

>  <hydroph_interaction:HIS:51>  (216) 
0

>  <hbond:ALA:132>  (216) 
0

>  <hbond:SER:135>  (216) 
0

>  <hydroph_interaction:TYR:150>  (216) 
0

>  <pistack:TYR:161>  (216) 
1

>  <hydroph_interaction:TYR:161>  (216) 
1

>  <hydroph_interaction:ASP:83>  (216) 
0

>  <hbond:TYR:130>  (216) 
1

>  <hydroph_interaction:ALA:132>  (216) 
1

>  <hbond:HIS:51>  (216) 
0

>  <hbond:ASP:129>  (216) 
0

>  <hbond:TYR:150>  (216) 
0

>  <hbond:GLY:151>  (216) 
0

>  <hbond:TYR:161>  (216) 
0

>  <hydroph_interaction:TYR:130>  (216) 
0

>  <hydroph_interaction:PRO:131>  (216) 
0

>  <hydroph_interaction:ASP:129>  (216) 
1

>  <saltbridge:ASP:75>  (216) 
0

>  <saltbridge:ASP:83>  (216) 
0

>  <hbond:ASN:152>  (216) 
0

>  <hydroph_interaction:ASN:152>  (216) 
0

>  <halogenbond:TYR:150>  (216) 
0

>  <hbond:ASP:83>  (216) 
0

>  <hydroph_interaction:VAL:155>  (216) 
0

>  <pication:TYR:161>  (216) 
0

>  <hbond:PRO:131>  (216) 
0

>  <saltbridge:ASP:129>  (216) 
0

>  <hbond:THR:134>  (216) 
0

>  <pication:HIS:51>  (216) 
0

>  <hbond:SER:81>  (216) 
0

>  <hydroph_interaction:THR:134>  (216) 
0

>  <hydroph_interaction:MET:49>  (216) 
0

$$$$
CSSS00121678901
     RDKit          3D

 39 41  0  0  0  0  0  0  0  0999 V2000
   -8.6290    9.5900  -13.3240 C   0  0  0  0  0  0  0  0  0  0  0  0
   -9.8230    9.1170  -12.6270 N   0  0  0  0  0  0  0  0  0  0  0  0
   -9.4640    8.1600  -11.5490 C   0  0  0  0  0  0  0  0  0  0  0  0
   -9.0080    6.7890  -12.0680 C   0  0  0  0  0  0  0  0  0  0  0  0
   -9.0140    6.7330  -13.5350 N   0  0  0  0  0  0  0  0  0  0  0  0
  -10.3080    7.1520  -14.0980 C   0  0  0  0  0  0  0  0  0  0  0  0
  -10.7830    8.5140  -13.5700 C   0  0  0  0  0  0  0  0  0  0  0  0
   -8.6080    5.5360  -14.0160 N   0  0  0  0  0  0  0  0  0  0  0  0
   -7.7420    5.4930  -15.0630 C   0  0  0  0  0  0  0  0  0  0  0  0
   -6.5380    5.6450  -14.9100 O   0  0  0  0  0  0  0  0  0  0  0  0
   -8.1760    5.2760  -16.3580 C   0  0  0  0  0  0  0  0  0  0  0  0
   -9.5260    4.9720  -16.5130 C   0  0  0  0  0  0  0  0  0  0  0  0
  -10.0520    4.7340  -17.7860 C   0  0  0  0  0  0  0  0  0  0  0  0
   -9.2430    4.7920  -18.9020 C   0  0  0  0  0  0  0  0  0  0  0  0
   -7.8850    5.0990  -18.7650 C   0  0  0  0  0  0  0  0  0  0  0  0
   -7.0960    5.1530  -19.9050 C   0  0  0  0  0  0  0  0  0  0  0  0
   -5.6570    5.4830  -19.7790 C   0  0  0  0  0  0  0  0  0  0  0  0
   -5.1030    5.7300  -18.5420 C   0  0  0  0  0  0  0  0  0  0  0  0
   -5.9210    5.6650  -17.4090 C   0  0  0  0  0  0  0  0  0  0  0  0
   -7.3080    5.3540  -17.4840 C   0  0  0  0  0  0  0  0  0  0  0  0
   -8.2010    8.7460  -13.8800 H   0  0  0  0  0  0  0  0  0  0  0  0
   -7.8600    9.9440  -12.6300 H   0  0  0  0  0  0  0  0  0  0  0  0
   -8.8700   10.3920  -14.0270 H   0  0  0  0  0  0  0  0  0  0  0  0
   -8.6850    8.5770  -10.9000 H   0  0  0  0  0  0  0  0  0  0  0  0
  -10.3420    8.0250  -10.9030 H   0  0  0  0  0  0  0  0  0  0  0  0
   -9.6530    6.0240  -11.6210 H   0  0  0  0  0  0  0  0  0  0  0  0
   -7.9780    6.6210  -11.7350 H   0  0  0  0  0  0  0  0  0  0  0  0
  -11.0500    6.3920  -13.8380 H   0  0  0  0  0  0  0  0  0  0  0  0
  -10.2860    7.1900  -15.1930 H   0  0  0  0  0  0  0  0  0  0  0  0
  -10.9160    9.1980  -14.4180 H   0  0  0  0  0  0  0  0  0  0  0  0
  -11.7550    8.4410  -13.0700 H   0  0  0  0  0  0  0  0  0  0  0  0
   -8.7620    4.7020  -13.4540 H   0  0  0  0  0  0  0  0  0  0  0  0
  -10.1840    4.9170  -15.6500 H   0  0  0  0  0  0  0  0  0  0  0  0
  -11.1050    4.5010  -17.8980 H   0  0  0  0  0  0  0  0  0  0  0  0
   -9.6720    4.6000  -19.8840 H   0  0  0  0  0  0  0  0  0  0  0  0
   -7.5100    4.9570  -20.8870 H   0  0  0  0  0  0  0  0  0  0  0  0
   -5.0330    5.5290  -20.6680 H   0  0  0  0  0  0  0  0  0  0  0  0
   -4.0490    5.9710  -18.4460 H   0  0  0  0  0  0  0  0  0  0  0  0
   -5.4530    5.8650  -16.4470 H   0  0  0  0  0  0  0  0  0  0  0  0
  1  2  1  0
  2  3  1  0
  3  4  1  0
  4  5  1  0
  5  6  1  0
  6  7  1  0
  5  8  1  0
  8  9  1  0
  9 10  2  0
  9 11  1  0
 11 12  2  0
 12 13  1  0
 13 14  2  0
 14 15  1  0
 15 16  2  0
 16 17  1  0
 17 18  2  0
 18 19  1  0
 19 20  2  0
  7  2  1  0
 20 11  1  0
 20 15  1  0
  1 21  1  0
  1 22  1  0
  1 23  1  0
  3 24  1  0
  3 25  1  0
  4 26  1  0
  4 27  1  0
  6 28  1  0
  6 29  1  0
  7 30  1  0
  7 31  1  0
  8 32  1  0
 12 33  1  0
 13 34  1  0
 14 35  1  0
 16 36  1  0
 17 37  1  0
 18 38  1  0
 19 39  1  0
A    1
 C1 
A    2
 N1 
A    3
 C2 
A    4
 C3 
A    5
 N2 
A    6
 C4 
A    7
 C5 
A    8
 N3 
A    9
 C6 
A   10
 O1 
A   11
 C7 
A   12
 C8 
A   13
 C9 
A   14
 C10
A   15
 C11
A   16
 C12
A   17
 C13
A   18
 C14
A   19
 C15
A   20
 C16
A   21
 H1 
A   22
 H2 
A   23
 H3 
A   24
 H4 
A   25
 H5 
A   26
 H6 
A   27
 H7 
A   28
 H8 
A   29
 H9 
A   30
 H10
A   31
 H11
A   32
 H12
A   33
 H13
A   34
 H14
A   35
 H15
A   36
 H16
A   37
 H17
A   38
 H18
A   39
 H19
M  END
>  <ref_pdb>  (217) 
x0051_0B

>  <ref_mols>  (217) 
x0429_0B,x0951_0B

>  <original SMILES>  (217) 
[H]c1c([H])c([H])c2c(C(=O)N([H])N3C([H])([H])C([H])([H])N(C([H])([H])[H])C([H])([H])C3([H])[H])c([H])c([H])c([H])c2c1[H]

>  <index>  (217) 
1867

>  <∆∆G>  (217) 
-8.30808

>  <∆G_bound>  (217) 
-7.779268

>  <∆G_unbound>  (217) 
0.528812

>  <comRMSD>  (217) 
0.343019

>  <N_constrained_atoms>  (217) 
16.0

>  <N_unconstrained_atoms>  (217) 
5.0

>  <runtime>  (217) 
64.137774

>  <LE>  (217) 
0.395623

>  <percent_hybrid>  (217) 
45.0

>  <dist>  (217) 
8.0

>  <ecfp4>  (217) 
0.126761

>  <daylight>  (217) 
0.226415

>  <topodist>  (217) 
4.0

>  <mces>  (217) 
21.0

>  <tdn>  (217) 
2.0

>  <tup>  (217) 
1.0

>  <rdn>  (217) 
1.0

>  <rup>  (217) 
0.0

>  <ldn>  (217) 
0.0

>  <lup>  (217) 
0.0

>  <mut>  (217) 
3.0

>  <maj>  (217) 
3.0

>  <min>  (217) 
0.0

>  <hyb>  (217) 
1.0

>  <sub>  (217) 
2.0

>  <query_index>  (217) 
76.0

>  <max_hit_Tanimoto>  (217) 
0.1841

>  <largest_ring>  (217) 
6

>  <N_interactions_kept>  (217) 
0.0

>  <N_interactions_lost>  (217) 
3.0

>  <interaction_uniqueness_metric>  (217) 
0.080834

>  <ad_hoc_penalty>  (217) 
-10.24663

>  <N_rotatable_bonds>  (217) 
3

>  <N_HA>  (217) 
20

>  <cluster>  (217) 
4506

>  <N_interactions>  (217) 
5

>  <Enamine>  (217) 
1

>  <Mcule>  (217) 
0

>  <N_PAINS>  (217) 
0

>  <UFF_Gibbs>  (217) 
63.567967

>  <strain_per_HA>  (217) 
3.178398

>  <intxn_scored>  (217) 
9.5

>  <saltbridge:HIS:51>  (217) 
0

>  <pistack:HIS:51>  (217) 
0

>  <hydroph_interaction:HIS:51>  (217) 
0

>  <hbond:ALA:132>  (217) 
0

>  <hbond:SER:135>  (217) 
0

>  <hydroph_interaction:TYR:150>  (217) 
1

>  <pistack:TYR:161>  (217) 
2

>  <hydroph_interaction:TYR:161>  (217) 
1

>  <hydroph_interaction:ASP:83>  (217) 
0

>  <hbond:TYR:130>  (217) 
0

>  <hydroph_interaction:ALA:132>  (217) 
0

>  <hbond:HIS:51>  (217) 
0

>  <hbond:ASP:129>  (217) 
0

>  <hbond:TYR:150>  (217) 
0

>  <hbond:GLY:151>  (217) 
1

>  <hbond:TYR:161>  (217) 
0

>  <hydroph_interaction:TYR:130>  (217) 
0

>  <hydroph_interaction:PRO:131>  (217) 
0

>  <hydroph_interaction:ASP:129>  (217) 
0

>  <saltbridge:ASP:75>  (217) 
0

>  <saltbridge:ASP:83>  (217) 
0

>  <hbond:ASN:152>  (217) 
0

>  <hydroph_interaction:ASN:152>  (217) 
0

>  <halogenbond:TYR:150>  (217) 
0

>  <hbond:ASP:83>  (217) 
0

>  <hydroph_interaction:VAL:155>  (217) 
0

>  <pication:TYR:161>  (217) 
0

>  <hbond:PRO:131>  (217) 
0

>  <saltbridge:ASP:129>  (217) 
0

>  <hbond:THR:134>  (217) 
0

>  <pication:HIS:51>  (217) 
0

>  <hbond:SER:81>  (217) 
0

>  <hydroph_interaction:THR:134>  (217) 
0

>  <hydroph_interaction:MET:49>  (217) 
0

$$$$
CSSB00011620567
     RDKit          3D

 22 23  0  0  0  0  0  0  0  0999 V2000
   -9.8160    4.8250  -18.9930 C   0  0  0  0  0  0  0  0  0  0  0  0
   -8.8510    4.9980  -17.8750 C   0  0  0  0  0  0  0  0  0  0  0  0
   -9.2900    4.9480  -16.5470 C   0  0  0  0  0  0  0  0  0  0  0  0
   -8.4080    5.0960  -15.4830 C   0  0  0  0  0  0  0  0  0  0  0  0
   -7.0610    5.2920  -15.7240 C   0  0  0  0  0  0  0  0  0  0  0  0
   -6.6220    5.3440  -17.0800 C   0  0  0  0  0  0  0  0  0  0  0  0
   -5.2410    5.5390  -17.2790 C   0  0  0  0  0  0  0  0  0  0  0  0
   -4.2690    5.6780  -16.2620 N   0  0  0  0  0  0  0  0  0  0  0  0
   -4.7690    5.5970  -18.7520 C   0  0  0  0  0  0  0  0  0  0  0  0
   -5.7590    5.4510  -19.6940 C   0  0  0  0  0  0  0  0  0  0  0  0
   -7.0670    5.2630  -19.5220 N   0  0  0  0  0  0  0  0  0  0  0  0
   -7.5130    5.2040  -18.1530 C   0  0  0  0  0  0  0  0  0  0  0  0
   -9.6500    3.8490  -19.4530 H   0  0  0  0  0  0  0  0  0  0  0  0
  -10.8520    4.8520  -18.6300 H   0  0  0  0  0  0  0  0  0  0  0  0
   -9.6820    5.6020  -19.7530 H   0  0  0  0  0  0  0  0  0  0  0  0
  -10.3430    4.7870  -16.3380 H   0  0  0  0  0  0  0  0  0  0  0  0
   -8.7910    5.0510  -14.4690 H   0  0  0  0  0  0  0  0  0  0  0  0
   -6.3820    5.3990  -14.8870 H   0  0  0  0  0  0  0  0  0  0  0  0
   -4.5420    5.1370  -15.4450 H   0  0  0  0  0  0  0  0  0  0  0  0
   -4.1240    6.6460  -15.9900 H   0  0  0  0  0  0  0  0  0  0  0  0
   -3.7320    5.7420  -19.0260 H   0  0  0  0  0  0  0  0  0  0  0  0
   -5.4370    5.4910  -20.7400 H   0  0  0  0  0  0  0  0  0  0  0  0
  1  2  1  0
  2  3  2  0
  3  4  1  0
  4  5  2  0
  5  6  1  0
  6  7  2  0
  7  8  1  0
  7  9  1  0
  9 10  2  0
 10 11  1  0
 11 12  2  0
 12  2  1  0
 12  6  1  0
  1 13  1  0
  1 14  1  0
  1 15  1  0
  3 16  1  0
  4 17  1  0
  5 18  1  0
  8 19  1  0
  8 20  1  0
  9 21  1  0
 10 22  1  0
A    1
 C1 
A    2
 C2 
A    3
 C3 
A    4
 C4 
A    5
 C5 
A    6
 C6 
A    7
 C7 
A    8
 N1 
A    9
 C8 
A   10
 C9 
A   11
 N2 
A   12
 C10
A   13
 H1 
A   14
 H2 
A   15
 H3 
A   16
 H4 
A   17
 H5 
A   18
 H6 
A   19
 H7 
A   20
 H8 
A   21
 H9 
A   22
 H10
M  END
>  <ref_pdb>  (218) 
x0051_0B

>  <ref_mols>  (218) 
x0425_0B,x0435_0B

>  <original SMILES>  (218) 
[H]c1nc2c(C([H])([H])[H])c([H])c([H])c([H])c2c(N([H])[H])c1[H]

>  <index>  (218) 
1979

>  <∆∆G>  (218) 
-6.747066

>  <∆G_bound>  (218) 
-6.827745

>  <∆G_unbound>  (218) 
-0.08068

>  <comRMSD>  (218) 
0.891627

>  <N_constrained_atoms>  (218) 
13.0

>  <N_unconstrained_atoms>  (218) 
1.0

>  <runtime>  (218) 
23.015754

>  <LE>  (218) 
0.481933

>  <percent_hybrid>  (218) 
40.0

>  <dist>  (218) 
1.0

>  <ecfp4>  (218) 
0.583333

>  <daylight>  (218) 
0.605634

>  <topodist>  (218) 
1.0

>  <mces>  (218) 
13.0

>  <tdn>  (218) 
0.0

>  <tup>  (218) 
0.0

>  <rdn>  (218) 
0.0

>  <rup>  (218) 
0.0

>  <ldn>  (218) 
1.0

>  <lup>  (218) 
0.0

>  <mut>  (218) 
0.0

>  <maj>  (218) 
0.0

>  <min>  (218) 
0.0

>  <hyb>  (218) 
0.0

>  <sub>  (218) 
0.0

>  <query_index>  (218) 
107.0

>  <max_hit_Tanimoto>  (218) 
0.166972

>  <largest_ring>  (218) 
6

>  <N_interactions_kept>  (218) 
1.0

>  <N_interactions_lost>  (218) 
2.5

>  <interaction_uniqueness_metric>  (218) 
0.04341

>  <ad_hoc_penalty>  (218) 
-8.710894

>  <N_rotatable_bonds>  (218) 
2

>  <N_HA>  (218) 
12

>  <cluster>  (218) 
4404

>  <N_interactions>  (218) 
4

>  <Enamine>  (218) 
1

>  <Mcule>  (218) 
0

>  <N_PAINS>  (218) 
0

>  <UFF_Gibbs>  (218) 
43.985793

>  <strain_per_HA>  (218) 
3.665483

>  <intxn_scored>  (218) 
9.5

>  <saltbridge:HIS:51>  (218) 
0

>  <pistack:HIS:51>  (218) 
0

>  <hydroph_interaction:HIS:51>  (218) 
0

>  <hbond:ALA:132>  (218) 
0

>  <hbond:SER:135>  (218) 
0

>  <hydroph_interaction:TYR:150>  (218) 
1

>  <pistack:TYR:161>  (218) 
2

>  <hydroph_interaction:TYR:161>  (218) 
1

>  <hydroph_interaction:ASP:83>  (218) 
0

>  <hbond:TYR:130>  (218) 
0

>  <hydroph_interaction:ALA:132>  (218) 
0

>  <hbond:HIS:51>  (218) 
0

>  <hbond:ASP:129>  (218) 
0

>  <hbond:TYR:150>  (218) 
0

>  <hbond:GLY:151>  (218) 
0

>  <hbond:TYR:161>  (218) 
0

>  <hydroph_interaction:TYR:130>  (218) 
0

>  <hydroph_interaction:PRO:131>  (218) 
0

>  <hydroph_interaction:ASP:129>  (218) 
0

>  <saltbridge:ASP:75>  (218) 
0

>  <saltbridge:ASP:83>  (218) 
0

>  <hbond:ASN:152>  (218) 
0

>  <hydroph_interaction:ASN:152>  (218) 
0

>  <halogenbond:TYR:150>  (218) 
0

>  <hbond:ASP:83>  (218) 
0

>  <hydroph_interaction:VAL:155>  (218) 
0

>  <pication:TYR:161>  (218) 
0

>  <hbond:PRO:131>  (218) 
0

>  <saltbridge:ASP:129>  (218) 
0

>  <hbond:THR:134>  (218) 
0

>  <pication:HIS:51>  (218) 
0

>  <hbond:SER:81>  (218) 
0

>  <hydroph_interaction:THR:134>  (218) 
0

>  <hydroph_interaction:MET:49>  (218) 
0

$$$$
Z1205073405
     RDKit          3D

 54 57  0  0  0  0  0  0  0  0999 V2000
  -10.0440    4.4640  -18.9110 N   0  0  0  0  0  0  0  0  0  0  0  0
   -9.4180    4.7790  -18.0100 C   0  0  0  0  0  0  0  0  0  0  0  0
   -8.5500    5.2130  -16.9180 C   0  0  0  0  0  0  0  0  0  0  0  0
   -7.2280    5.3750  -17.3070 C   0  0  0  0  0  0  0  0  0  0  0  0
   -6.8690    5.1050  -18.7180 C   0  0  0  0  0  0  0  0  0  0  0  0
   -5.5460    5.2500  -19.1310 C   0  0  0  0  0  0  0  0  0  0  0  0
   -4.5570    5.6500  -18.2310 C   0  0  0  0  0  0  0  0  0  0  0  0
   -3.2190    5.8390  -18.4860 O   0  0  0  0  0  0  0  0  0  0  0  0
   -2.5290    5.1510  -19.5430 C   0  0  0  0  0  0  0  0  0  0  0  0
   -3.0950    5.5080  -20.7700 C   0  0  0  0  0  0  0  0  0  0  0  0
   -4.1150    6.5330  -20.8210 N   0  0  0  0  0  0  0  0  0  0  0  0
   -5.1650    6.4520  -21.7070 C   0  0  0  0  0  0  0  0  0  0  0  0
   -5.8180    5.4460  -21.9410 O   0  0  0  0  0  0  0  0  0  0  0  0
   -5.4080    7.6120  -22.3430 C   0  0  0  0  0  0  0  0  0  0  0  0
   -6.1170    7.4700  -23.6310 C   0  0  0  0  0  0  0  0  0  0  0  0
   -6.3990    8.5250  -24.3530 C   0  0  0  0  0  0  0  0  0  0  0  0
   -6.0120    9.8430  -23.8880 C   0  0  0  0  0  0  0  0  0  0  0  0
   -6.3100   10.9270  -24.6830 C   0  0  0  0  0  0  0  0  0  0  0  0
   -5.9230   10.5640  -26.4210 S   0  0  0  0  0  0  0  0  0  0  0  0
   -7.2890    9.6760  -26.9730 C   0  0  0  0  0  0  0  0  0  0  0  0
   -7.3570    8.4070  -27.2970 N   0  0  0  0  0  0  0  0  0  0  0  0
   -8.6650    8.2160  -27.6570 C   0  0  0  0  0  0  0  0  0  0  0  0
   -9.3800    6.9750  -28.1190 C   0  0  0  0  0  0  0  0  0  0  0  0
  -10.7410    7.0850  -28.4110 C   0  0  0  0  0  0  0  0  0  0  0  0
  -11.4100    8.3060  -28.2790 C   0  0  0  0  0  0  0  0  0  0  0  0
  -10.7600    9.4790  -27.8540 C   0  0  0  0  0  0  0  0  0  0  0  0
   -9.3960    9.3920  -27.5540 C   0  0  0  0  0  0  0  0  0  0  0  0
   -8.4810   10.3100  -27.1160 N   0  0  0  0  0  0  0  0  0  0  0  0
   -5.3420    9.9940  -22.6540 C   0  0  0  0  0  0  0  0  0  0  0  0
   -5.0360    8.8730  -21.8710 C   0  0  0  0  0  0  0  0  0  0  0  0
   -4.9070    5.9080  -16.8950 C   0  0  0  0  0  0  0  0  0  0  0  0
   -6.2220    5.7740  -16.4310 C   0  0  0  0  0  0  0  0  0  0  0  0
   -8.5970    4.4610  -16.1260 H   0  0  0  0  0  0  0  0  0  0  0  0
   -8.9090    6.1450  -16.4710 H   0  0  0  0  0  0  0  0  0  0  0  0
   -7.6240    4.7920  -19.4400 H   0  0  0  0  0  0  0  0  0  0  0  0
   -5.3280    5.0390  -20.1680 H   0  0  0  0  0  0  0  0  0  0  0  0
   -2.4940    4.1240  -19.2070 H   0  0  0  0  0  0  0  0  0  0  0  0
   -1.4730    5.4420  -19.5390 H   0  0  0  0  0  0  0  0  0  0  0  0
   -3.5540    4.6340  -21.2400 H   0  0  0  0  0  0  0  0  0  0  0  0
   -2.2890    5.8210  -21.4410 H   0  0  0  0  0  0  0  0  0  0  0  0
   -4.2560    7.0600  -19.9690 H   0  0  0  0  0  0  0  0  0  0  0  0
   -6.4050    6.4750  -23.9840 H   0  0  0  0  0  0  0  0  0  0  0  0
   -6.9210    8.3230  -25.2910 H   0  0  0  0  0  0  0  0  0  0  0  0
   -7.3350   11.2660  -24.5320 H   0  0  0  0  0  0  0  0  0  0  0  0
   -5.6780   11.7720  -24.3820 H   0  0  0  0  0  0  0  0  0  0  0  0
   -8.8490    6.0360  -28.2150 H   0  0  0  0  0  0  0  0  0  0  0  0
  -11.2860    6.2030  -28.7480 H   0  0  0  0  0  0  0  0  0  0  0  0
  -12.4730    8.3540  -28.5140 H   0  0  0  0  0  0  0  0  0  0  0  0
  -11.3080   10.4110  -27.7620 H   0  0  0  0  0  0  0  0  0  0  0  0
   -8.6470   11.2850  -26.9240 H   0  0  0  0  0  0  0  0  0  0  0  0
   -5.0530   10.9840  -22.3020 H   0  0  0  0  0  0  0  0  0  0  0  0
   -4.5180    9.0040  -20.9270 H   0  0  0  0  0  0  0  0  0  0  0  0
   -4.1350    6.2210  -16.1970 H   0  0  0  0  0  0  0  0  0  0  0  0
   -6.4410    5.9830  -15.3830 H   0  0  0  0  0  0  0  0  0  0  0  0
  1  2  3  0
  2  3  1  0
  3  4  1  0
  4  5  2  0
  5  6  1  0
  6  7  2  0
  7  8  1  0
  8  9  1  0
  9 10  1  0
 10 11  1  0
 11 12  1  0
 12 13  2  0
 12 14  1  0
 14 15  2  0
 15 16  1  0
 16 17  2  0
 17 18  1  0
 18 19  1  0
 19 20  1  0
 20 21  2  0
 21 22  1  0
 22 23  2  0
 23 24  1  0
 24 25  2  0
 25 26  1  0
 26 27  2  0
 27 28  1  0
 17 29  1  0
 29 30  2  0
  7 31  1  0
 31 32  2  0
 32  4  1  0
 30 14  1  0
 28 20  1  0
 27 22  1  0
  3 33  1  0
  3 34  1  0
  5 35  1  0
  6 36  1  0
  9 37  1  0
  9 38  1  0
 10 39  1  0
 10 40  1  0
 11 41  1  0
 15 42  1  0
 16 43  1  0
 18 44  1  0
 18 45  1  0
 23 46  1  0
 24 47  1  0
 25 48  1  0
 26 49  1  0
 28 50  1  0
 29 51  1  0
 30 52  1  0
 31 53  1  0
 32 54  1  0
A    1
 N1 
A    2
 C1 
A    3
 C2 
A    4
 C3 
A    5
 C4 
A    6
 C5 
A    7
 C6 
A    8
 O1 
A    9
 C7 
A   10
 C8 
A   11
 N2 
A   12
 C9 
A   13
 O2 
A   14
 C10
A   15
 C11
A   16
 C12
A   17
 C13
A   18
 C14
A   19
 S1 
A   20
 C15
A   21
 N3 
A   22
 C16
A   23
 C17
A   24
 C18
A   25
 C19
A   26
 C20
A   27
 C21
A   28
 N4 
A   29
 C22
A   30
 C23
A   31
 C24
A   32
 C25
A   33
 H1 
A   34
 H2 
A   35
 H3 
A   36
 H4 
A   37
 H5 
A   38
 H6 
A   39
 H7 
A   40
 H8 
A   41
 H9 
A   42
 H10
A   43
 H11
A   44
 H12
A   45
 H13
A   46
 H14
A   47
 H15
A   48
 H16
A   49
 H17
A   50
 H18
A   51
 H19
A   52
 H20
A   53
 H21
A   54
 H22
M  END
>  <ref_pdb>  (219) 
x0051_0B

>  <ref_mols>  (219) 
x0846_1B,x0051_0B

>  <original SMILES>  (219) 
[H]c1c([H])c(C([H])([H])C#N)c([H])c([H])c1OC([H])([H])C([H])([H])N([H])C(=O)c1c([H])c([H])c(C([H])([H])Sc2nc3c([H])c([H])c([H])c([H])c3n2[H])c([H])c1[H]

>  <index>  (219) 
968

>  <∆∆G>  (219) 
-7.976082

>  <∆G_bound>  (219) 
-7.013574

>  <∆G_unbound>  (219) 
0.962508

>  <comRMSD>  (219) 
0.593938

>  <N_constrained_atoms>  (219) 
30.0

>  <N_unconstrained_atoms>  (219) 
3.0

>  <runtime>  (219) 
47.666279

>  <LE>  (219) 
0.241699

>  <percent_hybrid>  (219) 
40.0

>  <dist>  (219) 
10.0

>  <ecfp4>  (219) 
0.280899

>  <daylight>  (219) 
0.329218

>  <topodist>  (219) 
5.0

>  <mces>  (219) 
33.0

>  <tdn>  (219) 
2.0

>  <tup>  (219) 
1.0

>  <rdn>  (219) 
1.0

>  <rup>  (219) 
0.0

>  <ldn>  (219) 
0.0

>  <lup>  (219) 
1.0

>  <mut>  (219) 
3.0

>  <maj>  (219) 
3.0

>  <min>  (219) 
0.0

>  <hyb>  (219) 
2.0

>  <sub>  (219) 
2.0

>  <query_index>  (219) 
251.0

>  <max_hit_Tanimoto>  (219) 
0.340369

>  <largest_ring>  (219) 
6

>  <N_interactions_kept>  (219) 
1.0

>  <N_interactions_lost>  (219) 
2.5

>  <interaction_uniqueness_metric>  (219) 
0.216905

>  <ad_hoc_penalty>  (219) 
-14.358066

>  <N_rotatable_bonds>  (219) 
9

>  <N_HA>  (219) 
32

>  <cluster>  (219) 
5331

>  <N_interactions>  (219) 
8

>  <Enamine>  (219) 
1

>  <Mcule>  (219) 
0

>  <N_PAINS>  (219) 
0

>  <UFF_Gibbs>  (219) 
215.957071

>  <strain_per_HA>  (219) 
6.748658

>  <intxn_scored>  (219) 
9.5

>  <saltbridge:HIS:51>  (219) 
0

>  <pistack:HIS:51>  (219) 
0

>  <hydroph_interaction:HIS:51>  (219) 
0

>  <hbond:ALA:132>  (219) 
0

>  <hbond:SER:135>  (219) 
0

>  <hydroph_interaction:TYR:150>  (219) 
0

>  <pistack:TYR:161>  (219) 
1

>  <hydroph_interaction:TYR:161>  (219) 
2

>  <hydroph_interaction:ASP:83>  (219) 
0

>  <hbond:TYR:130>  (219) 
1

>  <hydroph_interaction:ALA:132>  (219) 
1

>  <hbond:HIS:51>  (219) 
0

>  <hbond:ASP:129>  (219) 
1

>  <hbond:TYR:150>  (219) 
0

>  <hbond:GLY:151>  (219) 
0

>  <hbond:TYR:161>  (219) 
0

>  <hydroph_interaction:TYR:130>  (219) 
1

>  <hydroph_interaction:PRO:131>  (219) 
1

>  <hydroph_interaction:ASP:129>  (219) 
0

>  <saltbridge:ASP:75>  (219) 
0

>  <saltbridge:ASP:83>  (219) 
0

>  <hbond:ASN:152>  (219) 
0

>  <hydroph_interaction:ASN:152>  (219) 
0

>  <halogenbond:TYR:150>  (219) 
0

>  <hbond:ASP:83>  (219) 
0

>  <hydroph_interaction:VAL:155>  (219) 
0

>  <pication:TYR:161>  (219) 
0

>  <hbond:PRO:131>  (219) 
0

>  <saltbridge:ASP:129>  (219) 
0

>  <hbond:THR:134>  (219) 
0

>  <pication:HIS:51>  (219) 
0

>  <hbond:SER:81>  (219) 
0

>  <hydroph_interaction:THR:134>  (219) 
0

>  <hydroph_interaction:MET:49>  (219) 
0

$$$$
Z3535921972
     RDKit          3D

 39 41  0  0  0  0  0  0  0  0999 V2000
   -8.5490    4.5440   -9.1140 C   0  0  0  0  0  0  0  0  0  0  0  0
   -8.6840    5.0350  -10.3880 N   0  0  0  0  0  0  0  0  0  0  0  0
   -8.6270    4.2870  -11.5980 C   0  0  0  0  0  0  0  0  0  0  0  0
   -8.8170    5.1640  -12.7990 C   0  0  0  0  0  0  0  0  0  0  0  0
   -8.8090    4.7980  -13.9660 O   0  0  0  0  0  0  0  0  0  0  0  0
   -8.1800    5.5810  -14.8700 C   0  0  0  0  0  0  0  0  0  0  0  0
   -7.3150    6.6640  -14.5270 O   0  0  0  0  0  0  0  0  0  0  0  0
   -8.4440    5.2810  -16.3410 C   0  0  0  0  0  0  0  0  0  0  0  0
   -9.8570    4.8680  -16.6950 C   0  0  0  0  0  0  0  0  0  0  0  0
  -10.0720    4.6000  -18.1570 C   0  0  0  0  0  0  0  0  0  0  0  0
   -9.0840    4.7120  -19.0410 C   0  0  0  0  0  0  0  0  0  0  0  0
   -7.8030    5.0910  -18.6230 C   0  0  0  0  0  0  0  0  0  0  0  0
   -6.9440    5.1340  -19.6810 N   0  0  0  0  0  0  0  0  0  0  0  0
   -5.4950    5.8580  -19.3450 S   0  0  0  0  0  6  0  0  0  0  0  0
   -4.8690    5.4330  -18.1130 O   0  0  0  0  0  0  0  0  0  0  0  0
   -4.4720    5.6820  -20.7420 C   0  0  0  0  0  0  0  0  0  0  0  0
   -4.3450    7.0330  -21.4060 C   0  0  0  0  0  0  0  0  0  0  0  0
   -5.3990    7.9890  -20.8220 C   0  0  0  0  0  0  0  0  0  0  0  0
   -5.6510    7.6350  -19.4800 C   0  0  0  0  0  0  0  0  0  0  0  0
   -7.4590    5.3790  -17.3140 C   0  0  0  0  0  0  0  0  0  0  0  0
   -8.9800    6.4060  -12.1400 C   0  0  0  0  0  0  0  0  0  0  0  0
   -8.8990    6.3470  -10.6600 N   0  0  0  0  0  0  0  0  0  0  0  0
   -7.5070    4.6300   -8.7950 H   0  0  0  0  0  0  0  0  0  0  0  0
   -9.1870    5.1130   -8.4360 H   0  0  0  0  0  0  0  0  0  0  0  0
   -8.8550    3.4920   -9.0760 H   0  0  0  0  0  0  0  0  0  0  0  0
   -8.4600    3.2040  -11.6370 H   0  0  0  0  0  0  0  0  0  0  0  0
  -10.6260    4.7810  -15.9440 H   0  0  0  0  0  0  0  0  0  0  0  0
  -11.0600    4.3060  -18.4960 H   0  0  0  0  0  0  0  0  0  0  0  0
   -9.2640    4.5090  -20.0960 H   0  0  0  0  0  0  0  0  0  0  0  0
   -3.5030    5.2830  -20.4320 H   0  0  0  0  0  0  0  0  0  0  0  0
   -4.9490    4.9750  -21.4180 H   0  0  0  0  0  0  0  0  0  0  0  0
   -3.3450    7.4560  -21.2660 H   0  0  0  0  0  0  0  0  0  0  0  0
   -4.5000    6.9240  -22.4900 H   0  0  0  0  0  0  0  0  0  0  0  0
   -5.0450    9.0230  -20.8670 H   0  0  0  0  0  0  0  0  0  0  0  0
   -6.3370    7.9670  -21.3910 H   0  0  0  0  0  0  0  0  0  0  0  0
   -4.9130    8.1210  -18.8330 H   0  0  0  0  0  0  0  0  0  0  0  0
   -6.6210    7.8710  -19.0740 H   0  0  0  0  0  0  0  0  0  0  0  0
   -6.4370    5.6740  -17.0610 H   0  0  0  0  0  0  0  0  0  0  0  0
   -9.1550    7.4230  -12.5080 H   0  0  0  0  0  0  0  0  0  0  0  0
  1  2  1  0
  2  3  1  0
  3  4  2  0
  4  5  1  0
  5  6  1  0
  6  7  2  0
  6  8  1  0
  8  9  2  0
  9 10  1  0
 10 11  2  0
 11 12  1  0
 12 13  1  0
 13 14  2  0
 14 15  2  0
 14 16  1  0
 16 17  1  0
 17 18  1  0
 18 19  1  0
 12 20  2  0
  4 21  1  0
 21 22  2  0
 22  2  1  0
 20  8  1  0
 19 14  1  0
  1 23  1  0
  1 24  1  0
  1 25  1  0
  3 26  1  0
  9 27  1  0
 10 28  1  0
 11 29  1  0
 16 30  1  0
 16 31  1  0
 17 32  1  0
 17 33  1  0
 18 34  1  0
 18 35  1  0
 19 36  1  0
 19 37  1  0
 20 38  1  0
 21 39  1  0
A    1
 C1 
A    2
 N1 
A    3
 C2 
A    4
 C3 
A    5
 O1 
A    6
 C4 
A    7
 O2 
A    8
 C5 
A    9
 C6 
A   10
 C7 
A   11
 C8 
A   12
 C9 
A   13
 N2 
A   14
 S1 
A   15
 O3 
A   16
 C10
A   17
 C11
A   18
 C12
A   19
 C13
A   20
 C14
A   21
 C15
A   22
 N3 
A   23
 H1 
A   24
 H2 
A   25
 H3 
A   26
 H4 
A   27
 H5 
A   28
 H6 
A   29
 H7 
A   30
 H8 
A   31
 H9 
A   32
 H10
A   33
 H11
A   34
 H12
A   35
 H13
A   36
 H14
A   37
 H15
A   38
 H16
A   39
 H17
M  END
>  <ref_pdb>  (220) 
x0051_0B

>  <ref_mols>  (220) 
x1098_0B,x0229_0B

>  <original SMILES>  (220) 
[H]c1nn(C([H])([H])[H])c([H])c1OC(=O)c1c([H])c([H])c([H])c(N=S2(=O)C([H])([H])C([H])([H])C([H])([H])C2([H])[H])c1[H]

>  <index>  (220) 
1146

>  <∆∆G>  (220) 
-5.928719

>  <∆G_bound>  (220) 
-5.280528

>  <∆G_unbound>  (220) 
0.648191

>  <comRMSD>  (220) 
0.437544

>  <N_constrained_atoms>  (220) 
24.0

>  <N_unconstrained_atoms>  (220) 
0.0

>  <runtime>  (220) 
67.547164

>  <LE>  (220) 
0.24703

>  <percent_hybrid>  (220) 
42.0

>  <dist>  (220) 
8.0

>  <ecfp4>  (220) 
0.255814

>  <daylight>  (220) 
0.225914

>  <topodist>  (220) 
3.0

>  <mces>  (220) 
24.0

>  <tdn>  (220) 
2.0

>  <tup>  (220) 
0.0

>  <rdn>  (220) 
1.0

>  <rup>  (220) 
0.0

>  <ldn>  (220) 
0.0

>  <lup>  (220) 
0.0

>  <mut>  (220) 
5.0

>  <maj>  (220) 
5.0

>  <min>  (220) 
0.0

>  <hyb>  (220) 
0.0

>  <sub>  (220) 
1.0

>  <query_index>  (220) 
28.0

>  <max_hit_Tanimoto>  (220) 
0.255556

>  <largest_ring>  (220) 
6

>  <N_interactions_kept>  (220) 
3.5

>  <N_interactions_lost>  (220) 
2.0

>  <interaction_uniqueness_metric>  (220) 
0.169773

>  <ad_hoc_penalty>  (220) 
-12.04402

>  <N_rotatable_bonds>  (220) 
4

>  <N_HA>  (220) 
22

>  <cluster>  (220) 
5166

>  <N_interactions>  (220) 
5

>  <Enamine>  (220) 
1

>  <Mcule>  (220) 
0

>  <N_PAINS>  (220) 
0

>  <UFF_Gibbs>  (220) 
158.249185

>  <strain_per_HA>  (220) 
7.193145

>  <intxn_scored>  (220) 
9.5

>  <saltbridge:HIS:51>  (220) 
1

>  <pistack:HIS:51>  (220) 
1

>  <hydroph_interaction:HIS:51>  (220) 
0

>  <hbond:ALA:132>  (220) 
0

>  <hbond:SER:135>  (220) 
0

>  <hydroph_interaction:TYR:150>  (220) 
1

>  <pistack:TYR:161>  (220) 
1

>  <hydroph_interaction:TYR:161>  (220) 
0

>  <hydroph_interaction:ASP:83>  (220) 
0

>  <hbond:TYR:130>  (220) 
1

>  <hydroph_interaction:ALA:132>  (220) 
0

>  <hbond:HIS:51>  (220) 
0

>  <hbond:ASP:129>  (220) 
0

>  <hbond:TYR:150>  (220) 
0

>  <hbond:GLY:151>  (220) 
0

>  <hbond:TYR:161>  (220) 
0

>  <hydroph_interaction:TYR:130>  (220) 
0

>  <hydroph_interaction:PRO:131>  (220) 
0

>  <hydroph_interaction:ASP:129>  (220) 
0

>  <saltbridge:ASP:75>  (220) 
0

>  <saltbridge:ASP:83>  (220) 
0

>  <hbond:ASN:152>  (220) 
0

>  <hydroph_interaction:ASN:152>  (220) 
0

>  <halogenbond:TYR:150>  (220) 
0

>  <hbond:ASP:83>  (220) 
0

>  <hydroph_interaction:VAL:155>  (220) 
0

>  <pication:TYR:161>  (220) 
0

>  <hbond:PRO:131>  (220) 
0

>  <saltbridge:ASP:129>  (220) 
0

>  <hbond:THR:134>  (220) 
0

>  <pication:HIS:51>  (220) 
0

>  <hbond:SER:81>  (220) 
0

>  <hydroph_interaction:THR:134>  (220) 
0

>  <hydroph_interaction:MET:49>  (220) 
0

$$$$
CSSB00000011990
     RDKit          3D

 26 27  0  0  0  0  0  0  0  0999 V2000
   -5.8570    5.4210  -21.3720 C   0  0  0  0  0  0  0  0  0  0  0  0
   -6.0470    5.3720  -19.8580 C   0  0  0  0  0  0  0  0  0  0  0  0
   -7.4120    5.2170  -19.4540 N   0  0  0  0  0  0  0  0  0  0  0  0
   -7.6800    5.1630  -18.1290 C   0  0  0  0  0  0  0  0  0  0  0  0
   -9.0480    4.9920  -17.7750 C   0  0  0  0  0  0  0  0  0  0  0  0
  -10.1240    4.8620  -18.6140 C   0  0  0  0  0  0  0  0  0  0  0  0
   -9.3590    4.9420  -16.4110 C   0  0  0  0  0  0  0  0  0  0  0  0
   -8.3870    5.0480  -15.4380 C   0  0  0  0  0  0  0  0  0  0  0  0
   -7.0600    5.2020  -15.8010 C   0  0  0  0  0  0  0  0  0  0  0  0
   -6.6760    5.2620  -17.1500 C   0  0  0  0  0  0  0  0  0  0  0  0
   -5.3250    5.4090  -17.5760 C   0  0  0  0  0  0  0  0  0  0  0  0
   -4.1980    5.4990  -16.5890 C   0  0  0  0  0  0  0  0  0  0  0  0
   -5.0160    5.4660  -18.9430 C   0  0  0  0  0  0  0  0  0  0  0  0
   -4.8560    5.0640  -21.6350 H   0  0  0  0  0  0  0  0  0  0  0  0
   -6.5810    4.7580  -21.8570 H   0  0  0  0  0  0  0  0  0  0  0  0
   -5.9920    6.4350  -21.7580 H   0  0  0  0  0  0  0  0  0  0  0  0
  -10.3100    3.8070  -18.7700 H   0  0  0  0  0  0  0  0  0  0  0  0
  -11.0310    5.3070  -18.1970 H   0  0  0  0  0  0  0  0  0  0  0  0
   -9.9260    5.3450  -19.5800 H   0  0  0  0  0  0  0  0  0  0  0  0
  -10.3840    4.8150  -16.0980 H   0  0  0  0  0  0  0  0  0  0  0  0
   -8.6650    5.0040  -14.3880 H   0  0  0  0  0  0  0  0  0  0  0  0
   -6.3220    5.2750  -15.0060 H   0  0  0  0  0  0  0  0  0  0  0  0
   -3.9310    6.5390  -16.3730 H   0  0  0  0  0  0  0  0  0  0  0  0
   -4.4860    5.0290  -15.6420 H   0  0  0  0  0  0  0  0  0  0  0  0
   -3.3050    5.0040  -16.9870 H   0  0  0  0  0  0  0  0  0  0  0  0
   -3.9930    5.5800  -19.2850 H   0  0  0  0  0  0  0  0  0  0  0  0
  1  2  1  0
  2  3  2  0
  3  4  1  0
  4  5  2  0
  5  6  1  0
  5  7  1  0
  7  8  2  0
  8  9  1  0
  9 10  2  0
 10 11  1  0
 11 12  1  0
 11 13  2  0
 13  2  1  0
 10  4  1  0
  1 14  1  0
  1 15  1  0
  1 16  1  0
  6 17  1  0
  6 18  1  0
  6 19  1  0
  7 20  1  0
  8 21  1  0
  9 22  1  0
 12 23  1  0
 12 24  1  0
 12 25  1  0
 13 26  1  0
A    1
 C1 
A    2
 C2 
A    3
 N1 
A    4
 C3 
A    5
 C4 
A    6
 C5 
A    7
 C6 
A    8
 C7 
A    9
 C8 
A   10
 C9 
A   11
 C10
A   12
 C11
A   13
 C12
A   14
 H1 
A   15
 H2 
A   16
 H3 
A   17
 H4 
A   18
 H5 
A   19
 H6 
A   20
 H7 
A   21
 H8 
A   22
 H9 
A   23
 H10
A   24
 H11
A   25
 H12
A   26
 H13
M  END
>  <ref_pdb>  (221) 
x0051_0B

>  <ref_mols>  (221) 
x0425_0B,x0435_0B

>  <original SMILES>  (221) 
[H]c1c([H])c([H])c2c(C([H])([H])[H])c([H])c(C([H])([H])[H])nc2c1C([H])([H])[H]

>  <index>  (221) 
1677

>  <∆∆G>  (221) 
-8.327489

>  <∆G_bound>  (221) 
-8.814543

>  <∆G_unbound>  (221) 
-0.487054

>  <comRMSD>  (221) 
0.559102

>  <N_constrained_atoms>  (221) 
13.0

>  <N_unconstrained_atoms>  (221) 
1.0

>  <runtime>  (221) 
26.669317

>  <LE>  (221) 
0.594821

>  <percent_hybrid>  (221) 
40.0

>  <dist>  (221) 
2.0

>  <ecfp4>  (221) 
0.384615

>  <daylight>  (221) 
0.720588

>  <topodist>  (221) 
2.0

>  <mces>  (221) 
13.0

>  <tdn>  (221) 
1.0

>  <tup>  (221) 
1.0

>  <rdn>  (221) 
0.0

>  <rup>  (221) 
0.0

>  <ldn>  (221) 
0.0

>  <lup>  (221) 
0.0

>  <mut>  (221) 
0.0

>  <maj>  (221) 
0.0

>  <min>  (221) 
0.0

>  <hyb>  (221) 
0.0

>  <sub>  (221) 
2.0

>  <query_index>  (221) 
107.0

>  <max_hit_Tanimoto>  (221) 
0.163077

>  <largest_ring>  (221) 
6

>  <N_interactions_kept>  (221) 
1.0

>  <N_interactions_lost>  (221) 
2.5

>  <interaction_uniqueness_metric>  (221) 
0.04341

>  <ad_hoc_penalty>  (221) 
-12.211129

>  <N_rotatable_bonds>  (221) 
3

>  <N_HA>  (221) 
13

>  <cluster>  (221) 
4681

>  <N_interactions>  (221) 
4

>  <Enamine>  (221) 
1

>  <Mcule>  (221) 
0

>  <N_PAINS>  (221) 
0

>  <UFF_Gibbs>  (221) 
24.734074

>  <strain_per_HA>  (221) 
1.902621

>  <intxn_scored>  (221) 
9.5

>  <saltbridge:HIS:51>  (221) 
0

>  <pistack:HIS:51>  (221) 
0

>  <hydroph_interaction:HIS:51>  (221) 
0

>  <hbond:ALA:132>  (221) 
0

>  <hbond:SER:135>  (221) 
0

>  <hydroph_interaction:TYR:150>  (221) 
1

>  <pistack:TYR:161>  (221) 
2

>  <hydroph_interaction:TYR:161>  (221) 
1

>  <hydroph_interaction:ASP:83>  (221) 
0

>  <hbond:TYR:130>  (221) 
0

>  <hydroph_interaction:ALA:132>  (221) 
0

>  <hbond:HIS:51>  (221) 
0

>  <hbond:ASP:129>  (221) 
0

>  <hbond:TYR:150>  (221) 
0

>  <hbond:GLY:151>  (221) 
0

>  <hbond:TYR:161>  (221) 
0

>  <hydroph_interaction:TYR:130>  (221) 
0

>  <hydroph_interaction:PRO:131>  (221) 
0

>  <hydroph_interaction:ASP:129>  (221) 
0

>  <saltbridge:ASP:75>  (221) 
0

>  <saltbridge:ASP:83>  (221) 
0

>  <hbond:ASN:152>  (221) 
0

>  <hydroph_interaction:ASN:152>  (221) 
0

>  <halogenbond:TYR:150>  (221) 
0

>  <hbond:ASP:83>  (221) 
0

>  <hydroph_interaction:VAL:155>  (221) 
0

>  <pication:TYR:161>  (221) 
0

>  <hbond:PRO:131>  (221) 
0

>  <saltbridge:ASP:129>  (221) 
0

>  <hbond:THR:134>  (221) 
0

>  <pication:HIS:51>  (221) 
0

>  <hbond:SER:81>  (221) 
0

>  <hydroph_interaction:THR:134>  (221) 
0

>  <hydroph_interaction:MET:49>  (221) 
0

$$$$
Z1193286678
     RDKit          3D

 32 34  0  0  0  0  0  0  0  0999 V2000
  -11.1570    4.5180  -18.3030 F   0  0  0  0  0  0  0  0  0  0  0  0
   -9.8710    4.7840  -18.0900 C   0  0  0  0  0  0  0  0  0  0  0  0
   -9.3360    4.9680  -16.6980 C   0  0  0  0  0  0  0  0  0  0  0  0
   -7.9720    5.2580  -16.5620 C   0  0  0  0  0  0  0  0  0  0  0  0
   -7.1550    5.3680  -17.6870 C   0  0  0  0  0  0  0  0  0  0  0  0
   -5.7900    5.6610  -17.5770 C   0  0  0  0  0  0  0  0  0  0  0  0
   -5.1800    5.8590  -16.3500 N   0  0  0  0  0  0  0  0  0  0  0  0
   -5.3630    7.0500  -15.4980 C   0  0  0  0  0  0  0  0  0  0  0  0
   -4.1760    7.1280  -14.5390 C   0  0  0  0  0  0  0  0  0  0  0  0
   -3.6750    5.8420  -13.9320 C   0  0  0  0  0  0  0  0  0  0  0  0
   -3.5540    4.7520  -15.0010 C   0  0  0  0  0  0  0  0  0  0  0  0
   -3.8510    5.2310  -16.2620 C   0  0  0  0  0  0  0  0  0  0  0  0
   -5.0330    5.7530  -18.7410 C   0  0  0  0  0  0  0  0  0  0  0  0
   -5.6540    5.5520  -19.9680 C   0  0  0  0  0  0  0  0  0  0  0  0
   -6.9510    5.2710  -20.1000 N   0  0  0  0  0  0  0  0  0  0  0  0
   -7.6900    5.1810  -18.9920 C   0  0  0  0  0  0  0  0  0  0  0  0
   -9.0270    4.8940  -19.1710 C   0  0  0  0  0  0  0  0  0  0  0  0
   -9.9870    4.8810  -15.8360 H   0  0  0  0  0  0  0  0  0  0  0  0
   -7.5550    5.3970  -15.5660 H   0  0  0  0  0  0  0  0  0  0  0  0
   -6.3000    6.9990  -14.9280 H   0  0  0  0  0  0  0  0  0  0  0  0
   -5.3920    7.9580  -16.1120 H   0  0  0  0  0  0  0  0  0  0  0  0
   -3.3380    7.5880  -15.0800 H   0  0  0  0  0  0  0  0  0  0  0  0
   -4.4160    7.8220  -13.7270 H   0  0  0  0  0  0  0  0  0  0  0  0
   -2.7070    6.0280  -13.4540 H   0  0  0  0  0  0  0  0  0  0  0  0
   -4.3640    5.4740  -13.1650 H   0  0  0  0  0  0  0  0  0  0  0  0
   -2.5370    4.3400  -15.0000 H   0  0  0  0  0  0  0  0  0  0  0  0
   -4.2290    3.9270  -14.7530 H   0  0  0  0  0  0  0  0  0  0  0  0
   -3.7750    4.3980  -16.9640 H   0  0  0  0  0  0  0  0  0  0  0  0
   -3.1150    5.9810  -16.5800 H   0  0  0  0  0  0  0  0  0  0  0  0
   -3.9760    5.9760  -18.7110 H   0  0  0  0  0  0  0  0  0  0  0  0
   -5.0960    5.6160  -20.8980 H   0  0  0  0  0  0  0  0  0  0  0  0
   -9.4200    4.7560  -20.1730 H   0  0  0  0  0  0  0  0  0  0  0  0
  1  2  1  0
  2  3  2  0
  3  4  1  0
  4  5  2  0
  5  6  1  0
  6  7  1  0
  7  8  1  0
  8  9  1  0
  9 10  1  0
 10 11  1  0
 11 12  1  0
  6 13  2  0
 13 14  1  0
 14 15  2  0
 15 16  1  0
 16 17  2  0
 17  2  1  0
 16  5  1  0
 12  7  1  0
  3 18  1  0
  4 19  1  0
  8 20  1  0
  8 21  1  0
  9 22  1  0
  9 23  1  0
 10 24  1  0
 10 25  1  0
 11 26  1  0
 11 27  1  0
 12 28  1  0
 12 29  1  0
 13 30  1  0
 14 31  1  0
 17 32  1  0
A    1
 F1 
A    2
 C1 
A    3
 C2 
A    4
 C3 
A    5
 C4 
A    6
 C5 
A    7
 N1 
A    8
 C6 
A    9
 C7 
A   10
 C8 
A   11
 C9 
A   12
 C10
A   13
 C11
A   14
 C12
A   15
 N2 
A   16
 C13
A   17
 C14
A   18
 H1 
A   19
 H2 
A   20
 H3 
A   21
 H4 
A   22
 H5 
A   23
 H6 
A   24
 H7 
A   25
 H8 
A   26
 H9 
A   27
 H10
A   28
 H11
A   29
 H12
A   30
 H13
A   31
 H14
A   32
 H15
M  END
>  <ref_pdb>  (222) 
x0051_0B

>  <ref_mols>  (222) 
x0429_0B,x0605_0B

>  <original SMILES>  (222) 
[H]c1nc2c([H])c(F)c([H])c([H])c2c(N2C([H])([H])C([H])([H])C([H])([H])C([H])([H])C2([H])[H])c1[H]

>  <index>  (222) 
2795

>  <∆∆G>  (222) 
-5.262934

>  <∆G_bound>  (222) 
-4.979262

>  <∆G_unbound>  (222) 
0.283672

>  <comRMSD>  (222) 
0.5833

>  <N_constrained_atoms>  (222) 
18.0

>  <N_unconstrained_atoms>  (222) 
0.0

>  <runtime>  (222) 
23.373924

>  <LE>  (222) 
0.292385

>  <percent_hybrid>  (222) 
19.0

>  <dist>  (222) 
3.0

>  <ecfp4>  (222) 
0.320755

>  <daylight>  (222) 
0.526316

>  <topodist>  (222) 
1.0

>  <mces>  (222) 
19.0

>  <tdn>  (222) 
1.0

>  <tup>  (222) 
0.0

>  <rdn>  (222) 
0.0

>  <rup>  (222) 
0.0

>  <ldn>  (222) 
0.0

>  <lup>  (222) 
0.0

>  <mut>  (222) 
2.0

>  <maj>  (222) 
2.0

>  <min>  (222) 
0.0

>  <hyb>  (222) 
0.0

>  <sub>  (222) 
1.0

>  <query_index>  (222) 
246.0

>  <max_hit_Tanimoto>  (222) 
0.703316

>  <largest_ring>  (222) 
6

>  <N_interactions_kept>  (222) 
0.0

>  <N_interactions_lost>  (222) 
3.0

>  <interaction_uniqueness_metric>  (222) 
0.04341

>  <ad_hoc_penalty>  (222) 
-5.590125

>  <N_rotatable_bonds>  (222) 
1

>  <N_HA>  (222) 
17

>  <cluster>  (222) 
3640

>  <N_interactions>  (222) 
4

>  <Enamine>  (222) 
1

>  <Mcule>  (222) 
0

>  <N_PAINS>  (222) 
0

>  <UFF_Gibbs>  (222) 
40.293403

>  <strain_per_HA>  (222) 
2.3702

>  <intxn_scored>  (222) 
9.5

>  <saltbridge:HIS:51>  (222) 
0

>  <pistack:HIS:51>  (222) 
0

>  <hydroph_interaction:HIS:51>  (222) 
0

>  <hbond:ALA:132>  (222) 
0

>  <hbond:SER:135>  (222) 
0

>  <hydroph_interaction:TYR:150>  (222) 
1

>  <pistack:TYR:161>  (222) 
2

>  <hydroph_interaction:TYR:161>  (222) 
1

>  <hydroph_interaction:ASP:83>  (222) 
0

>  <hbond:TYR:130>  (222) 
0

>  <hydroph_interaction:ALA:132>  (222) 
0

>  <hbond:HIS:51>  (222) 
0

>  <hbond:ASP:129>  (222) 
0

>  <hbond:TYR:150>  (222) 
0

>  <hbond:GLY:151>  (222) 
0

>  <hbond:TYR:161>  (222) 
0

>  <hydroph_interaction:TYR:130>  (222) 
0

>  <hydroph_interaction:PRO:131>  (222) 
0

>  <hydroph_interaction:ASP:129>  (222) 
0

>  <saltbridge:ASP:75>  (222) 
0

>  <saltbridge:ASP:83>  (222) 
0

>  <hbond:ASN:152>  (222) 
0

>  <hydroph_interaction:ASN:152>  (222) 
0

>  <halogenbond:TYR:150>  (222) 
0

>  <hbond:ASP:83>  (222) 
0

>  <hydroph_interaction:VAL:155>  (222) 
0

>  <pication:TYR:161>  (222) 
0

>  <hbond:PRO:131>  (222) 
0

>  <saltbridge:ASP:129>  (222) 
0

>  <hbond:THR:134>  (222) 
0

>  <pication:HIS:51>  (222) 
0

>  <hbond:SER:81>  (222) 
0

>  <hydroph_interaction:THR:134>  (222) 
0

>  <hydroph_interaction:MET:49>  (222) 
0

$$$$
CSSB00000751276
     RDKit          3D

 20 21  0  0  0  0  0  0  0  0999 V2000
   -9.7820    4.8540  -19.0520 C   0  0  0  0  0  0  0  0  0  0  0  0
   -8.8580    4.9990  -17.8950 C   0  0  0  0  0  0  0  0  0  0  0  0
   -9.4040    4.9150  -16.4920 C   0  0  0  0  0  0  0  0  0  0  0  0
   -8.3710    5.0650  -15.4180 C   0  0  0  0  0  0  0  0  0  0  0  0
   -7.0270    5.2560  -15.7610 C   0  0  0  0  0  0  0  0  0  0  0  0
   -6.5610    5.3260  -17.1040 C   0  0  0  0  0  0  0  0  0  0  0  0
   -5.1160    5.5210  -17.4630 C   0  0  0  0  0  0  0  0  0  0  0  0
   -3.8280    5.6730  -16.3250 Cl  0  0  0  0  0  0  0  0  0  0  0  0
   -4.8070    5.5780  -18.9790 C   0  0  0  0  0  0  0  0  0  0  0  0
   -5.8880    5.4420  -19.8120 C   0  0  0  0  0  0  0  0  0  0  0  0
   -7.1540    5.2650  -19.4400 N   0  0  0  0  0  0  0  0  0  0  0  0
   -7.4990    5.2030  -18.1570 C   0  0  0  0  0  0  0  0  0  0  0  0
   -9.5790    3.8930  -19.5210 H   0  0  0  0  0  0  0  0  0  0  0  0
   -9.6120    5.6360  -19.7970 H   0  0  0  0  0  0  0  0  0  0  0  0
  -10.8250    4.8750  -18.7170 H   0  0  0  0  0  0  0  0  0  0  0  0
  -10.4530    4.7560  -16.2940 H   0  0  0  0  0  0  0  0  0  0  0  0
   -8.6650    5.0200  -14.3760 H   0  0  0  0  0  0  0  0  0  0  0  0
   -6.3180    5.3510  -14.9420 H   0  0  0  0  0  0  0  0  0  0  0  0
   -3.8060    5.7160  -19.3680 H   0  0  0  0  0  0  0  0  0  0  0  0
   -5.7480    5.4730  -20.8900 H   0  0  0  0  0  0  0  0  0  0  0  0
  1  2  1  0
  2  3  2  0
  3  4  1  0
  4  5  2  0
  5  6  1  0
  6  7  2  0
  7  8  1  0
  7  9  1  0
  9 10  2  0
 10 11  1  0
 11 12  2  0
 12  2  1  0
 12  6  1  0
  1 13  1  0
  1 14  1  0
  1 15  1  0
  3 16  1  0
  4 17  1  0
  5 18  1  0
  9 19  1  0
 10 20  1  0
A    1
 C1 
A    2
 C2 
A    3
 C3 
A    4
 C4 
A    5
 C5 
A    6
 C6 
A    7
 C7 
A    8
CL1 
A    9
 C8 
A   10
 C9 
A   11
 N1 
A   12
 C10
A   13
 H1 
A   14
 H2 
A   15
 H3 
A   16
 H4 
A   17
 H5 
A   18
 H6 
A   19
 H7 
A   20
 H8 
M  END
>  <ref_pdb>  (223) 
x0051_0B

>  <ref_mols>  (223) 
x0425_0B,x0435_0B

>  <original SMILES>  (223) 
[H]c1nc2c(C([H])([H])[H])c([H])c([H])c([H])c2c(Cl)c1[H]

>  <index>  (223) 
1531

>  <∆∆G>  (223) 
-6.740818

>  <∆G_bound>  (223) 
-6.856903

>  <∆G_unbound>  (223) 
-0.116084

>  <comRMSD>  (223) 
0.639507

>  <N_constrained_atoms>  (223) 
12.0

>  <N_unconstrained_atoms>  (223) 
1.0

>  <runtime>  (223) 
18.554799

>  <LE>  (223) 
0.518524

>  <percent_hybrid>  (223) 
50.0

>  <dist>  (223) 
2.0

>  <ecfp4>  (223) 
0.540541

>  <daylight>  (223) 
0.561644

>  <topodist>  (223) 
1.0

>  <mces>  (223) 
13.0

>  <tdn>  (223) 
1.0

>  <tup>  (223) 
0.0

>  <rdn>  (223) 
0.0

>  <rup>  (223) 
0.0

>  <ldn>  (223) 
0.0

>  <lup>  (223) 
0.0

>  <mut>  (223) 
1.0

>  <maj>  (223) 
1.0

>  <min>  (223) 
0.0

>  <hyb>  (223) 
0.0

>  <sub>  (223) 
0.0

>  <query_index>  (223) 
107.0

>  <max_hit_Tanimoto>  (223) 
0.147105

>  <largest_ring>  (223) 
6

>  <N_interactions_kept>  (223) 
1.0

>  <N_interactions_lost>  (223) 
2.5

>  <interaction_uniqueness_metric>  (223) 
0.04341

>  <ad_hoc_penalty>  (223) 
-11.933151

>  <N_rotatable_bonds>  (223) 
1

>  <N_HA>  (223) 
12

>  <cluster>  (223) 
4813

>  <N_interactions>  (223) 
4

>  <Enamine>  (223) 
1

>  <Mcule>  (223) 
0

>  <N_PAINS>  (223) 
0

>  <UFF_Gibbs>  (223) 
38.455388

>  <strain_per_HA>  (223) 
3.204616

>  <intxn_scored>  (223) 
9.5

>  <saltbridge:HIS:51>  (223) 
0

>  <pistack:HIS:51>  (223) 
0

>  <hydroph_interaction:HIS:51>  (223) 
0

>  <hbond:ALA:132>  (223) 
0

>  <hbond:SER:135>  (223) 
0

>  <hydroph_interaction:TYR:150>  (223) 
1

>  <pistack:TYR:161>  (223) 
2

>  <hydroph_interaction:TYR:161>  (223) 
1

>  <hydroph_interaction:ASP:83>  (223) 
0

>  <hbond:TYR:130>  (223) 
0

>  <hydroph_interaction:ALA:132>  (223) 
0

>  <hbond:HIS:51>  (223) 
0

>  <hbond:ASP:129>  (223) 
0

>  <hbond:TYR:150>  (223) 
0

>  <hbond:GLY:151>  (223) 
0

>  <hbond:TYR:161>  (223) 
0

>  <hydroph_interaction:TYR:130>  (223) 
0

>  <hydroph_interaction:PRO:131>  (223) 
0

>  <hydroph_interaction:ASP:129>  (223) 
0

>  <saltbridge:ASP:75>  (223) 
0

>  <saltbridge:ASP:83>  (223) 
0

>  <hbond:ASN:152>  (223) 
0

>  <hydroph_interaction:ASN:152>  (223) 
0

>  <halogenbond:TYR:150>  (223) 
0

>  <hbond:ASP:83>  (223) 
0

>  <hydroph_interaction:VAL:155>  (223) 
0

>  <pication:TYR:161>  (223) 
0

>  <hbond:PRO:131>  (223) 
0

>  <saltbridge:ASP:129>  (223) 
0

>  <hbond:THR:134>  (223) 
0

>  <pication:HIS:51>  (223) 
0

>  <hbond:SER:81>  (223) 
0

>  <hydroph_interaction:THR:134>  (223) 
0

>  <hydroph_interaction:MET:49>  (223) 
0

$$$$
Z3363132990
     RDKit          3D

 53 56  0  0  0  0  0  0  0  0999 V2000
  -10.7170    8.1090  -13.8850 C   0  0  0  0  0  0  0  0  0  0  0  0
   -9.4230    7.2810  -13.9020 C   0  0  0  0  0  0  0  0  0  0  0  0
   -9.5050    6.2130  -14.8920 N   0  0  0  0  0  0  0  0  0  0  0  0
   -8.2500    5.5720  -15.3140 C   0  0  0  0  0  0  0  0  0  0  0  0
   -8.4130    5.2820  -16.7630 C   0  0  0  0  0  0  0  0  0  0  0  0
   -9.7250    4.9620  -17.0800 C   0  0  0  0  0  0  0  0  0  0  0  0
  -10.1380    4.6840  -18.3620 C   0  0  0  0  0  0  0  0  0  0  0  0
   -9.2170    4.7150  -19.3960 C   0  0  0  0  0  0  0  0  0  0  0  0
   -7.8770    5.0150  -19.1440 C   0  0  0  0  0  0  0  0  0  0  0  0
   -7.4750    5.2960  -17.8120 C   0  0  0  0  0  0  0  0  0  0  0  0
   -6.1230    5.5390  -17.8990 N   0  0  0  0  0  0  0  0  0  0  0  0
   -5.2380    5.8410  -16.9470 C   0  0  0  0  0  0  0  0  0  0  0  0
   -5.8260    5.3870  -19.3030 C   0  0  0  0  0  0  0  0  0  0  0  0
   -6.8550    5.0720  -20.0740 N   0  0  0  0  0  0  0  0  0  0  0  0
   -9.1320    6.5110  -12.6420 C   0  0  0  0  0  0  0  0  0  0  0  0
   -8.8620    7.1660  -11.4410 C   0  0  0  0  0  0  0  0  0  0  0  0
   -8.5950    6.4250  -10.2880 C   0  0  0  0  0  0  0  0  0  0  0  0
   -8.5930    5.0230  -10.3240 C   0  0  0  0  0  0  0  0  0  0  0  0
   -8.3180    4.2410   -9.1670 N   0  0  0  0  0  0  0  0  0  0  0  0
   -8.6700    2.8280   -9.2530 C   0  0  0  0  0  0  0  0  0  0  0  0
   -9.5950    2.4700   -8.2870 C   0  0  0  0  0  0  0  0  0  0  0  0
   -9.3750    2.9790   -6.8630 C   0  0  0  0  0  0  0  0  0  0  0  0
   -9.0010    4.4390   -6.8030 C   0  0  0  0  0  0  0  0  0  0  0  0
   -8.0230    4.8830   -7.8880 C   0  0  0  0  0  0  0  0  0  0  0  0
   -7.1250    5.6870   -7.6260 O   0  0  0  0  0  0  0  0  0  0  0  0
   -8.8660    4.3880  -11.5290 C   0  0  0  0  0  0  0  0  0  0  0  0
   -9.1310    5.1200  -12.6670 C   0  0  0  0  0  0  0  0  0  0  0  0
  -10.6780    8.9120  -14.6300 H   0  0  0  0  0  0  0  0  0  0  0  0
  -10.8860    8.5770  -12.9100 H   0  0  0  0  0  0  0  0  0  0  0  0
  -11.6010    7.5020  -14.1140 H   0  0  0  0  0  0  0  0  0  0  0  0
   -8.5680    7.9420  -14.0810 H   0  0  0  0  0  0  0  0  0  0  0  0
  -10.1750    5.5090  -14.5970 H   0  0  0  0  0  0  0  0  0  0  0  0
   -7.9900    4.6970  -14.7090 H   0  0  0  0  0  0  0  0  0  0  0  0
   -7.4200    6.2790  -15.1870 H   0  0  0  0  0  0  0  0  0  0  0  0
  -10.4460    4.9340  -16.2800 H   0  0  0  0  0  0  0  0  0  0  0  0
  -11.1780    4.4470  -18.5570 H   0  0  0  0  0  0  0  0  0  0  0  0
   -9.5430    4.5030  -20.4090 H   0  0  0  0  0  0  0  0  0  0  0  0
   -5.0610    4.9360  -16.3580 H   0  0  0  0  0  0  0  0  0  0  0  0
   -4.2990    6.2450  -17.3150 H   0  0  0  0  0  0  0  0  0  0  0  0
   -5.6700    6.6070  -16.2930 H   0  0  0  0  0  0  0  0  0  0  0  0
   -4.8230    5.5130  -19.7340 H   0  0  0  0  0  0  0  0  0  0  0  0
   -8.8580    8.2510  -11.3910 H   0  0  0  0  0  0  0  0  0  0  0  0
   -8.3900    6.9730   -9.3730 H   0  0  0  0  0  0  0  0  0  0  0  0
   -9.0820    2.6300  -10.2460 H   0  0  0  0  0  0  0  0  0  0  0  0
   -7.7860    2.2060   -9.1090 H   0  0  0  0  0  0  0  0  0  0  0  0
   -9.5800    1.3800   -8.2270 H   0  0  0  0  0  0  0  0  0  0  0  0
  -10.6290    2.7090   -8.5470 H   0  0  0  0  0  0  0  0  0  0  0  0
   -8.5820    2.3900   -6.3910 H   0  0  0  0  0  0  0  0  0  0  0  0
  -10.3040    2.8320   -6.3030 H   0  0  0  0  0  0  0  0  0  0  0  0
   -9.9100    5.0380   -6.9000 H   0  0  0  0  0  0  0  0  0  0  0  0
   -8.5780    4.6650   -5.8140 H   0  0  0  0  0  0  0  0  0  0  0  0
   -8.8820    3.3070  -11.6210 H   0  0  0  0  0  0  0  0  0  0  0  0
   -9.3380    4.5650  -13.5770 H   0  0  0  0  0  0  0  0  0  0  0  0
  1  2  1  0
  2  3  1  0
  3  4  1  0
  4  5  1  0
  5  6  2  0
  6  7  1  0
  7  8  2  0
  8  9  1  0
  9 10  2  0
 10 11  1  0
 11 12  1  0
 11 13  1  0
 13 14  2  0
  2 15  1  0
 15 16  2  0
 16 17  1  0
 17 18  2  0
 18 19  1  0
 19 20  1  0
 20 21  1  0
 21 22  1  0
 22 23  1  0
 23 24  1  0
 24 25  2  0
 18 26  1  0
 26 27  2  0
 10  5  1  0
 14  9  1  0
 27 15  1  0
 24 19  1  0
  1 28  1  0
  1 29  1  0
  1 30  1  0
  2 31  1  0
  3 32  1  0
  4 33  1  0
  4 34  1  0
  6 35  1  0
  7 36  1  0
  8 37  1  0
 12 38  1  0
 12 39  1  0
 12 40  1  0
 13 41  1  0
 16 42  1  0
 17 43  1  0
 20 44  1  0
 20 45  1  0
 21 46  1  0
 21 47  1  0
 22 48  1  0
 22 49  1  0
 23 50  1  0
 23 51  1  0
 26 52  1  0
 27 53  1  0
A    1
 C1 
A    2
 C2 
A    3
 N1 
A    4
 C3 
A    5
 C4 
A    6
 C5 
A    7
 C6 
A    8
 C7 
A    9
 C8 
A   10
 C9 
A   11
 N2 
A   12
 C10
A   13
 C11
A   14
 N3 
A   15
 C12
A   16
 C13
A   17
 C14
A   18
 C15
A   19
 N4 
A   20
 C16
A   21
 C17
A   22
 C18
A   23
 C19
A   24
 C20
A   25
 O1 
A   26
 C21
A   27
 C22
A   28
 H1 
A   29
 H2 
A   30
 H3 
A   31
 H4 
A   32
 H5 
A   33
 H6 
A   34
 H7 
A   35
 H8 
A   36
 H9 
A   37
 H10
A   38
 H11
A   39
 H12
A   40
 H13
A   41
 H14
A   42
 H15
A   43
 H16
A   44
 H17
A   45
 H18
A   46
 H19
A   47
 H20
A   48
 H21
A   49
 H22
A   50
 H23
A   51
 H24
A   52
 H25
A   53
 H26
M  END
>  <ref_pdb>  (224) 
x0051_0B

>  <ref_mols>  (224) 
x0490_0B,x0404_0B

>  <original SMILES>  (224) 
[H]c1c([H])c(C([H])(N([H])C([H])([H])c2c([H])c([H])c([H])c3nc([H])n(C([H])([H])[H])c23)C([H])([H])[H])c([H])c([H])c1N1C(=O)C([H])([H])C([H])([H])C([H])([H])C1([H])[H]

>  <index>  (224) 
1023

>  <∆∆G>  (224) 
-9.37833

>  <∆G_bound>  (224) 
-9.204541

>  <∆G_unbound>  (224) 
0.173789

>  <comRMSD>  (224) 
0.53634

>  <N_constrained_atoms>  (224) 
27.0

>  <N_unconstrained_atoms>  (224) 
2.0

>  <runtime>  (224) 
74.851207

>  <LE>  (224) 
0.323391

>  <percent_hybrid>  (224) 
41.0

>  <dist>  (224) 
8.0

>  <ecfp4>  (224) 
0.233333

>  <daylight>  (224) 
0.299611

>  <topodist>  (224) 
3.0

>  <mces>  (224) 
29.0

>  <tdn>  (224) 
2.0

>  <tup>  (224) 
1.0

>  <rdn>  (224) 
0.0

>  <rup>  (224) 
0.0

>  <ldn>  (224) 
0.0

>  <lup>  (224) 
0.0

>  <mut>  (224) 
3.0

>  <maj>  (224) 
3.0

>  <min>  (224) 
0.0

>  <hyb>  (224) 
2.0

>  <sub>  (224) 
1.0

>  <query_index>  (224) 
10.0

>  <max_hit_Tanimoto>  (224) 
0.312856

>  <largest_ring>  (224) 
6

>  <N_interactions_kept>  (224) 
1.0

>  <N_interactions_lost>  (224) 
3.5

>  <interaction_uniqueness_metric>  (224) 
0.167048

>  <ad_hoc_penalty>  (224) 
-10.26424

>  <N_rotatable_bonds>  (224) 
7

>  <N_HA>  (224) 
27

>  <cluster>  (224) 
5278

>  <N_interactions>  (224) 
8

>  <Enamine>  (224) 
1

>  <Mcule>  (224) 
0

>  <N_PAINS>  (224) 
0

>  <UFF_Gibbs>  (224) 
267.963042

>  <strain_per_HA>  (224) 
9.924557

>  <intxn_scored>  (224) 
9.5

>  <saltbridge:HIS:51>  (224) 
0

>  <pistack:HIS:51>  (224) 
1

>  <hydroph_interaction:HIS:51>  (224) 
1

>  <hbond:ALA:132>  (224) 
0

>  <hbond:SER:135>  (224) 
0

>  <hydroph_interaction:TYR:150>  (224) 
1

>  <pistack:TYR:161>  (224) 
1

>  <hydroph_interaction:TYR:161>  (224) 
2

>  <hydroph_interaction:ASP:83>  (224) 
0

>  <hbond:TYR:130>  (224) 
0

>  <hydroph_interaction:ALA:132>  (224) 
1

>  <hbond:HIS:51>  (224) 
0

>  <hbond:ASP:129>  (224) 
0

>  <hbond:TYR:150>  (224) 
0

>  <hbond:GLY:151>  (224) 
1

>  <hbond:TYR:161>  (224) 
0

>  <hydroph_interaction:TYR:130>  (224) 
0

>  <hydroph_interaction:PRO:131>  (224) 
0

>  <hydroph_interaction:ASP:129>  (224) 
0

>  <saltbridge:ASP:75>  (224) 
0

>  <saltbridge:ASP:83>  (224) 
0

>  <hbond:ASN:152>  (224) 
0

>  <hydroph_interaction:ASN:152>  (224) 
0

>  <halogenbond:TYR:150>  (224) 
0

>  <hbond:ASP:83>  (224) 
0

>  <hydroph_interaction:VAL:155>  (224) 
0

>  <pication:TYR:161>  (224) 
0

>  <hbond:PRO:131>  (224) 
0

>  <saltbridge:ASP:129>  (224) 
0

>  <hbond:THR:134>  (224) 
0

>  <pication:HIS:51>  (224) 
0

>  <hbond:SER:81>  (224) 
0

>  <hydroph_interaction:THR:134>  (224) 
0

>  <hydroph_interaction:MET:49>  (224) 
0

$$$$
CSSB03496581808
     RDKit          3D

 27 28  0  0  0  0  0  0  0  0999 V2000
   -9.9210    4.6920  -18.6460 C   0  0  0  0  0  0  0  0  0  0  0  0
   -8.9250    5.0270  -17.6060 C   0  0  0  0  0  0  0  0  0  0  0  0
   -9.1930    5.0510  -16.2300 C   0  0  0  0  0  0  0  0  0  0  0  0
   -8.0840    5.3950  -15.3950 C   0  0  0  0  0  0  0  0  0  0  0  0
   -8.3830    5.4120  -13.8620 C   0  0  0  0  0  0  0  0  0  0  0  0
   -9.0470    6.6420  -13.4390 N   0  0  0  0  0  0  0  0  0  0  0  0
   -6.7780    5.7040  -15.8360 C   0  0  0  0  0  0  0  0  0  0  0  0
   -6.5480    5.6750  -17.1730 C   0  0  0  0  0  0  0  0  0  0  0  0
   -7.6600    5.3300  -18.0760 C   0  0  0  0  0  0  0  0  0  0  0  0
   -7.1370    5.3880  -19.4330 C   0  0  0  0  0  0  0  0  0  0  0  0
   -5.7880    5.7380  -19.3270 C   0  0  0  0  0  0  0  0  0  0  0  0
   -5.3030    5.9360  -18.0000 C   0  0  0  0  0  0  0  0  0  0  0  0
   -9.7630    5.2920  -19.5490 H   0  0  0  0  0  0  0  0  0  0  0  0
  -10.9420    4.8750  -18.2950 H   0  0  0  0  0  0  0  0  0  0  0  0
   -9.8380    3.6340  -18.9090 H   0  0  0  0  0  0  0  0  0  0  0  0
  -10.1690    4.8220  -15.8310 H   0  0  0  0  0  0  0  0  0  0  0  0
   -7.4550    5.2790  -13.2980 H   0  0  0  0  0  0  0  0  0  0  0  0
   -9.0160    4.5520  -13.6050 H   0  0  0  0  0  0  0  0  0  0  0  0
   -8.8780    6.7660  -12.4420 H   0  0  0  0  0  0  0  0  0  0  0  0
  -10.0560    6.5010  -13.5210 H   0  0  0  0  0  0  0  0  0  0  0  0
   -5.9790    5.9560  -15.1320 H   0  0  0  0  0  0  0  0  0  0  0  0
   -7.6590    6.1490  -20.0030 H   0  0  0  0  0  0  0  0  0  0  0  0
   -7.2590    4.4200  -19.9300 H   0  0  0  0  0  0  0  0  0  0  0  0
   -5.5780    6.6160  -19.9460 H   0  0  0  0  0  0  0  0  0  0  0  0
   -5.2040    4.9210  -19.7710 H   0  0  0  0  0  0  0  0  0  0  0  0
   -4.9150    6.9490  -17.8660 H   0  0  0  0  0  0  0  0  0  0  0  0
   -4.5280    5.2010  -17.7490 H   0  0  0  0  0  0  0  0  0  0  0  0
  1  2  1  0
  2  3  2  0
  3  4  1  0
  4  5  1  0
  5  6  1  0
  4  7  2  0
  7  8  1  0
  8  9  2  0
  9 10  1  0
 10 11  1  0
 11 12  1  0
  9  2  1  0
 12  8  1  0
  1 13  1  0
  1 14  1  0
  1 15  1  0
  3 16  1  0
  5 17  1  0
  5 18  1  0
  6 19  1  0
  6 20  1  0
  7 21  1  0
 10 22  1  0
 10 23  1  0
 11 24  1  0
 11 25  1  0
 12 26  1  0
 12 27  1  0
A    1
 C1 
A    2
 C2 
A    3
 C3 
A    4
 C4 
A    5
 C5 
A    6
 N1 
A    7
 C6 
A    8
 C7 
A    9
 C8 
A   10
 C9 
A   11
 C10
A   12
 C11
A   13
 H1 
A   14
 H2 
A   15
 H3 
A   16
 H4 
A   17
 H5 
A   18
 H6 
A   19
 H7 
A   20
 H8 
A   21
 H9 
A   22
 H10
A   23
 H11
A   24
 H12
A   25
 H13
A   26
 H14
A   27
 H15
M  END
>  <ref_pdb>  (225) 
x0051_0B

>  <ref_mols>  (225) 
x0969_0B,x0951_0B

>  <original SMILES>  (225) 
[H]c1c(C([H])([H])[H])c2c(c([H])c1C([H])([H])N([H])[H])C([H])([H])C([H])([H])C2([H])[H]

>  <index>  (225) 
2773

>  <∆∆G>  (225) 
-7.512548

>  <∆G_bound>  (225) 
-7.538359

>  <∆G_unbound>  (225) 
-0.025811

>  <comRMSD>  (225) 
0.812594

>  <N_constrained_atoms>  (225) 
15.0

>  <N_unconstrained_atoms>  (225) 
0.0

>  <runtime>  (225) 
26.90799

>  <LE>  (225) 
0.500837

>  <percent_hybrid>  (225) 
38.0

>  <dist>  (225) 
3.0

>  <ecfp4>  (225) 
0.217391

>  <daylight>  (225) 
0.178571

>  <topodist>  (225) 
1.0

>  <mces>  (225) 
13.0

>  <tdn>  (225) 
1.0

>  <tup>  (225) 
0.0

>  <rdn>  (225) 
0.0

>  <rup>  (225) 
0.0

>  <ldn>  (225) 
0.0

>  <lup>  (225) 
0.0

>  <mut>  (225) 
2.0

>  <maj>  (225) 
2.0

>  <min>  (225) 
0.0

>  <hyb>  (225) 
0.0

>  <sub>  (225) 
1.0

>  <query_index>  (225) 
99.0

>  <max_hit_Tanimoto>  (225) 
0.112782

>  <largest_ring>  (225) 
6

>  <N_interactions_kept>  (225) 
0.0

>  <N_interactions_lost>  (225) 
3.0

>  <interaction_uniqueness_metric>  (225) 
0.10774

>  <ad_hoc_penalty>  (225) 
-5.696925

>  <N_rotatable_bonds>  (225) 
3

>  <N_HA>  (225) 
12

>  <cluster>  (225) 
3661

>  <N_interactions>  (225) 
4

>  <Enamine>  (225) 
1

>  <Mcule>  (225) 
0

>  <N_PAINS>  (225) 
0

>  <UFF_Gibbs>  (225) 
37.299687

>  <strain_per_HA>  (225) 
3.108307

>  <intxn_scored>  (225) 
9.5

>  <saltbridge:HIS:51>  (225) 
0

>  <pistack:HIS:51>  (225) 
0

>  <hydroph_interaction:HIS:51>  (225) 
0

>  <hbond:ALA:132>  (225) 
0

>  <hbond:SER:135>  (225) 
0

>  <hydroph_interaction:TYR:150>  (225) 
1

>  <pistack:TYR:161>  (225) 
2

>  <hydroph_interaction:TYR:161>  (225) 
0

>  <hydroph_interaction:ASP:83>  (225) 
0

>  <hbond:TYR:130>  (225) 
0

>  <hydroph_interaction:ALA:132>  (225) 
0

>  <hbond:HIS:51>  (225) 
1

>  <hbond:ASP:129>  (225) 
0

>  <hbond:TYR:150>  (225) 
0

>  <hbond:GLY:151>  (225) 
0

>  <hbond:TYR:161>  (225) 
0

>  <hydroph_interaction:TYR:130>  (225) 
0

>  <hydroph_interaction:PRO:131>  (225) 
0

>  <hydroph_interaction:ASP:129>  (225) 
0

>  <saltbridge:ASP:75>  (225) 
0

>  <saltbridge:ASP:83>  (225) 
0

>  <hbond:ASN:152>  (225) 
0

>  <hydroph_interaction:ASN:152>  (225) 
0

>  <halogenbond:TYR:150>  (225) 
0

>  <hbond:ASP:83>  (225) 
0

>  <hydroph_interaction:VAL:155>  (225) 
0

>  <pication:TYR:161>  (225) 
0

>  <hbond:PRO:131>  (225) 
0

>  <saltbridge:ASP:129>  (225) 
0

>  <hbond:THR:134>  (225) 
0

>  <pication:HIS:51>  (225) 
0

>  <hbond:SER:81>  (225) 
0

>  <hydroph_interaction:THR:134>  (225) 
0

>  <hydroph_interaction:MET:49>  (225) 
0

$$$$
CSSS00000010464
     RDKit          3D

 26 27  0  0  0  0  0  0  0  0999 V2000
   -8.9350    4.9610  -14.0520 C   0  0  0  0  0  0  0  0  0  0  0  0
   -8.5120    5.0330  -15.5100 C   0  0  0  0  0  0  0  0  0  0  0  0
   -7.0470    5.2360  -15.7920 C   0  0  0  0  0  0  0  0  0  0  0  0
   -6.5980    5.3190  -17.1050 C   0  0  0  0  0  0  0  0  0  0  0  0
   -5.2570    5.4980  -17.4010 C   0  0  0  0  0  0  0  0  0  0  0  0
   -4.3150    5.5820  -16.3750 C   0  0  0  0  0  0  0  0  0  0  0  0
   -4.8580    5.5910  -18.8320 C   0  0  0  0  0  0  0  0  0  0  0  0
   -5.8650    5.4850  -19.7720 C   0  0  0  0  0  0  0  0  0  0  0  0
   -5.5460    5.5820  -21.4540 Cl  0  0  0  0  0  0  0  0  0  0  0  0
   -7.1940    5.2910  -19.4540 N   0  0  0  0  0  0  0  0  0  0  0  0
   -7.5380    5.2110  -18.1620 C   0  0  0  0  0  0  0  0  0  0  0  0
   -8.8910    5.0050  -17.8750 C   0  0  0  0  0  0  0  0  0  0  0  0
   -9.8280    4.8700  -19.0280 C   0  0  0  0  0  0  0  0  0  0  0  0
   -9.3770    4.9200  -16.5690 C   0  0  0  0  0  0  0  0  0  0  0  0
  -10.0220    4.8480  -13.9630 H   0  0  0  0  0  0  0  0  0  0  0  0
   -8.6460    5.8760  -13.5270 H   0  0  0  0  0  0  0  0  0  0  0  0
   -8.4620    4.1130  -13.5490 H   0  0  0  0  0  0  0  0  0  0  0  0
   -6.3290    5.3220  -14.9760 H   0  0  0  0  0  0  0  0  0  0  0  0
   -4.5750    4.8950  -15.5590 H   0  0  0  0  0  0  0  0  0  0  0  0
   -3.3450    5.2480  -16.7550 H   0  0  0  0  0  0  0  0  0  0  0  0
   -4.1960    6.5610  -15.9220 H   0  0  0  0  0  0  0  0  0  0  0  0
   -3.8270    5.7340  -19.1390 H   0  0  0  0  0  0  0  0  0  0  0  0
  -10.8690    4.9310  -18.6900 H   0  0  0  0  0  0  0  0  0  0  0  0
   -9.6760    5.6390  -19.7900 H   0  0  0  0  0  0  0  0  0  0  0  0
   -9.6420    3.9070  -19.5030 H   0  0  0  0  0  0  0  0  0  0  0  0
  -10.4290    4.7630  -16.3900 H   0  0  0  0  0  0  0  0  0  0  0  0
  1  2  1  0
  2  3  2  0
  3  4  1  0
  4  5  2  0
  5  6  1  0
  5  7  1  0
  7  8  2  0
  8  9  1  0
  8 10  1  0
 10 11  2  0
 11 12  1  0
 12 13  1  0
 12 14  2  0
 14  2  1  0
 11  4  1  0
  1 15  1  0
  1 16  1  0
  1 17  1  0
  3 18  1  0
  6 19  1  0
  6 20  1  0
  6 21  1  0
  7 22  1  0
 13 23  1  0
 13 24  1  0
 13 25  1  0
 14 26  1  0
A    1
 C1 
A    2
 C2 
A    3
 C3 
A    4
 C4 
A    5
 C5 
A    6
 C6 
A    7
 C7 
A    8
 C8 
A    9
CL1 
A   10
 N1 
A   11
 C9 
A   12
 C10
A   13
 C11
A   14
 C12
A   15
 H1 
A   16
 H2 
A   17
 H3 
A   18
 H4 
A   19
 H5 
A   20
 H6 
A   21
 H7 
A   22
 H8 
A   23
 H9 
A   24
 H10
A   25
 H11
A   26
 H12
M  END
>  <ref_pdb>  (226) 
x0051_0B

>  <ref_mols>  (226) 
x0425_0B,x0435_0B

>  <original SMILES>  (226) 
[H]c1c(C([H])([H])[H])c([H])c2c(C([H])([H])[H])c([H])c(Cl)nc2c1C([H])([H])[H]

>  <index>  (226) 
1924

>  <∆∆G>  (226) 
-8.030914

>  <∆G_bound>  (226) 
-8.422495

>  <∆G_unbound>  (226) 
-0.391581

>  <comRMSD>  (226) 
0.687847

>  <N_constrained_atoms>  (226) 
13.0

>  <N_unconstrained_atoms>  (226) 
2.0

>  <runtime>  (226) 
18.433525

>  <LE>  (226) 
0.535394

>  <percent_hybrid>  (226) 
40.0

>  <dist>  (226) 
3.0

>  <ecfp4>  (226) 
0.212766

>  <daylight>  (226) 
0.597561

>  <topodist>  (226) 
3.0

>  <mces>  (226) 
13.0

>  <tdn>  (226) 
1.0

>  <tup>  (226) 
2.0

>  <rdn>  (226) 
0.0

>  <rup>  (226) 
0.0

>  <ldn>  (226) 
0.0

>  <lup>  (226) 
0.0

>  <mut>  (226) 
0.0

>  <maj>  (226) 
0.0

>  <min>  (226) 
0.0

>  <hyb>  (226) 
0.0

>  <sub>  (226) 
3.0

>  <query_index>  (226) 
107.0

>  <max_hit_Tanimoto>  (226) 
0.155862

>  <largest_ring>  (226) 
6

>  <N_interactions_kept>  (226) 
1.0

>  <N_interactions_lost>  (226) 
2.5

>  <interaction_uniqueness_metric>  (226) 
0.04341

>  <ad_hoc_penalty>  (226) 
-10.432256

>  <N_rotatable_bonds>  (226) 
3

>  <N_HA>  (226) 
14

>  <cluster>  (226) 
4452

>  <N_interactions>  (226) 
4

>  <Enamine>  (226) 
1

>  <Mcule>  (226) 
0

>  <N_PAINS>  (226) 
0

>  <UFF_Gibbs>  (226) 
31.983789

>  <strain_per_HA>  (226) 
2.284556

>  <intxn_scored>  (226) 
9.5

>  <saltbridge:HIS:51>  (226) 
0

>  <pistack:HIS:51>  (226) 
0

>  <hydroph_interaction:HIS:51>  (226) 
0

>  <hbond:ALA:132>  (226) 
0

>  <hbond:SER:135>  (226) 
0

>  <hydroph_interaction:TYR:150>  (226) 
1

>  <pistack:TYR:161>  (226) 
2

>  <hydroph_interaction:TYR:161>  (226) 
1

>  <hydroph_interaction:ASP:83>  (226) 
0

>  <hbond:TYR:130>  (226) 
0

>  <hydroph_interaction:ALA:132>  (226) 
0

>  <hbond:HIS:51>  (226) 
0

>  <hbond:ASP:129>  (226) 
0

>  <hbond:TYR:150>  (226) 
0

>  <hbond:GLY:151>  (226) 
0

>  <hbond:TYR:161>  (226) 
0

>  <hydroph_interaction:TYR:130>  (226) 
0

>  <hydroph_interaction:PRO:131>  (226) 
0

>  <hydroph_interaction:ASP:129>  (226) 
0

>  <saltbridge:ASP:75>  (226) 
0

>  <saltbridge:ASP:83>  (226) 
0

>  <hbond:ASN:152>  (226) 
0

>  <hydroph_interaction:ASN:152>  (226) 
0

>  <halogenbond:TYR:150>  (226) 
0

>  <hbond:ASP:83>  (226) 
0

>  <hydroph_interaction:VAL:155>  (226) 
0

>  <pication:TYR:161>  (226) 
0

>  <hbond:PRO:131>  (226) 
0

>  <saltbridge:ASP:129>  (226) 
0

>  <hbond:THR:134>  (226) 
0

>  <pication:HIS:51>  (226) 
0

>  <hbond:SER:81>  (226) 
0

>  <hydroph_interaction:THR:134>  (226) 
0

>  <hydroph_interaction:MET:49>  (226) 
0

$$$$
CSSB00000102439
     RDKit          3D

 20 21  0  0  0  0  0  0  0  0999 V2000
  -10.9440    4.9720  -18.5700 C   0  0  0  0  0  0  0  0  0  0  0  0
   -9.5480    5.0050  -18.0800 C   0  0  0  0  0  0  0  0  0  0  0  0
   -8.5430    5.1020  -19.0390 C   0  0  0  0  0  0  0  0  0  0  0  0
   -7.2140    5.2020  -18.6920 C   0  0  0  0  0  0  0  0  0  0  0  0
   -6.2440    5.3150  -19.6600 C   0  0  0  0  0  0  0  0  0  0  0  0
   -4.9270    5.4240  -19.2760 C   0  0  0  0  0  0  0  0  0  0  0  0
   -4.5260    5.4280  -17.9900 N   0  0  0  0  0  0  0  0  0  0  0  0
   -5.4960    5.3140  -17.0510 C   0  0  0  0  0  0  0  0  0  0  0  0
   -4.8630    5.3360  -15.4450 Cl  0  0  0  0  0  0  0  0  0  0  0  0
   -6.8630    5.1950  -17.3360 C   0  0  0  0  0  0  0  0  0  0  0  0
   -7.8700    5.0750  -16.3560 C   0  0  0  0  0  0  0  0  0  0  0  0
   -9.2070    4.9820  -16.7230 C   0  0  0  0  0  0  0  0  0  0  0  0
  -11.4930    5.6990  -18.0330 H   0  0  0  0  0  0  0  0  0  0  0  0
  -11.4050    4.0110  -18.4560 H   0  0  0  0  0  0  0  0  0  0  0  0
  -10.9640    5.2830  -19.6140 H   0  0  0  0  0  0  0  0  0  0  0  0
   -8.8210    5.1120  -20.0930 H   0  0  0  0  0  0  0  0  0  0  0  0
   -6.4990    5.3200  -20.7150 H   0  0  0  0  0  0  0  0  0  0  0  0
   -4.1360    5.5150  -20.0150 H   0  0  0  0  0  0  0  0  0  0  0  0
   -7.6110    5.0620  -15.2980 H   0  0  0  0  0  0  0  0  0  0  0  0
   -9.9700    4.9030  -15.9580 H   0  0  0  0  0  0  0  0  0  0  0  0
  1  2  1  0
  2  3  2  0
  3  4  1  0
  4  5  2  0
  5  6  1  0
  6  7  2  0
  7  8  1  0
  8  9  1  0
  8 10  2  0
 10 11  1  0
 11 12  2  0
 12  2  1  0
 10  4  1  0
  1 13  1  0
  1 14  1  0
  1 15  1  0
  3 16  1  0
  5 17  1  0
  6 18  1  0
 11 19  1  0
 12 20  1  0
A    1
 C1 
A    2
 C2 
A    3
 C3 
A    4
 C4 
A    5
 C5 
A    6
 C6 
A    7
 N1 
A    8
 C7 
A    9
CL1 
A   10
 C8 
A   11
 C9 
A   12
 C10
A   13
 H1 
A   14
 H2 
A   15
 H3 
A   16
 H4 
A   17
 H5 
A   18
 H6 
A   19
 H7 
A   20
 H8 
M  END
>  <ref_pdb>  (227) 
x0051_0B

>  <ref_mols>  (227) 
x0727_0B,x0605_0B

>  <original SMILES>  (227) 
[H]c1nc(Cl)c2c([H])c([H])c(C([H])([H])[H])c([H])c2c1[H]

>  <index>  (227) 
3124

>  <∆∆G>  (227) 
-6.926485

>  <∆G_bound>  (227) 
-6.902197

>  <∆G_unbound>  (227) 
0.024289

>  <comRMSD>  (227) 
0.714109

>  <N_constrained_atoms>  (227) 
12.0

>  <N_unconstrained_atoms>  (227) 
0.0

>  <runtime>  (227) 
24.792971

>  <LE>  (227) 
0.577207

>  <percent_hybrid>  (227) 
25.0

>  <dist>  (227) 
2.0

>  <ecfp4>  (227) 
0.555556

>  <daylight>  (227) 
0.474359

>  <topodist>  (227) 
1.0

>  <mces>  (227) 
13.0

>  <tdn>  (227) 
1.0

>  <tup>  (227) 
0.0

>  <rdn>  (227) 
0.0

>  <rup>  (227) 
0.0

>  <ldn>  (227) 
0.0

>  <lup>  (227) 
0.0

>  <mut>  (227) 
1.0

>  <maj>  (227) 
1.0

>  <min>  (227) 
0.0

>  <hyb>  (227) 
0.0

>  <sub>  (227) 
0.0

>  <query_index>  (227) 
74.0

>  <max_hit_Tanimoto>  (227) 
0.315534

>  <largest_ring>  (227) 
6

>  <N_interactions_kept>  (227) 
0.0

>  <N_interactions_lost>  (227) 
3.5

>  <interaction_uniqueness_metric>  (227) 
0.04341

>  <ad_hoc_penalty>  (227) 
-5.455175

>  <N_rotatable_bonds>  (227) 
1

>  <N_HA>  (227) 
12

>  <cluster>  (227) 
3328

>  <N_interactions>  (227) 
4

>  <Enamine>  (227) 
1

>  <Mcule>  (227) 
0

>  <N_PAINS>  (227) 
0

>  <UFF_Gibbs>  (227) 
10.89627

>  <strain_per_HA>  (227) 
0.908023

>  <intxn_scored>  (227) 
9.5

>  <saltbridge:HIS:51>  (227) 
0

>  <pistack:HIS:51>  (227) 
0

>  <hydroph_interaction:HIS:51>  (227) 
0

>  <hbond:ALA:132>  (227) 
0

>  <hbond:SER:135>  (227) 
0

>  <hydroph_interaction:TYR:150>  (227) 
1

>  <pistack:TYR:161>  (227) 
2

>  <hydroph_interaction:TYR:161>  (227) 
1

>  <hydroph_interaction:ASP:83>  (227) 
0

>  <hbond:TYR:130>  (227) 
0

>  <hydroph_interaction:ALA:132>  (227) 
0

>  <hbond:HIS:51>  (227) 
0

>  <hbond:ASP:129>  (227) 
0

>  <hbond:TYR:150>  (227) 
0

>  <hbond:GLY:151>  (227) 
0

>  <hbond:TYR:161>  (227) 
0

>  <hydroph_interaction:TYR:130>  (227) 
0

>  <hydroph_interaction:PRO:131>  (227) 
0

>  <hydroph_interaction:ASP:129>  (227) 
0

>  <saltbridge:ASP:75>  (227) 
0

>  <saltbridge:ASP:83>  (227) 
0

>  <hbond:ASN:152>  (227) 
0

>  <hydroph_interaction:ASN:152>  (227) 
0

>  <halogenbond:TYR:150>  (227) 
0

>  <hbond:ASP:83>  (227) 
0

>  <hydroph_interaction:VAL:155>  (227) 
0

>  <pication:TYR:161>  (227) 
0

>  <hbond:PRO:131>  (227) 
0

>  <saltbridge:ASP:129>  (227) 
0

>  <hbond:THR:134>  (227) 
0

>  <pication:HIS:51>  (227) 
0

>  <hbond:SER:81>  (227) 
0

>  <hydroph_interaction:THR:134>  (227) 
0

>  <hydroph_interaction:MET:49>  (227) 
0

$$$$
PV-002220088381
     RDKit          3D

 22 23  0  0  0  0  0  0  0  0999 V2000
   -5.1430    5.8010  -17.3670 C   0  0  0  0  0  0  0  0  0  0  0  0
   -6.3930    5.5800  -16.6910 N   0  0  0  0  0  0  0  0  0  0  0  0
   -6.4980    5.6580  -15.3390 N   0  0  0  0  0  0  0  0  0  0  0  0
   -7.8060    5.3770  -15.1040 C   0  0  0  0  0  0  0  0  0  0  0  0
   -8.3420    5.3540  -13.8150 C   0  0  0  0  0  0  0  0  0  0  0  0
   -8.8400    6.5910  -13.5080 N   0  0  0  0  0  0  0  0  0  0  0  0
   -8.3770    4.4070  -13.0380 O   0  0  0  0  0  0  0  0  0  0  0  0
   -8.4840    5.1310  -16.3340 C   0  0  0  0  0  0  0  0  0  0  0  0
   -9.7700    4.7990  -16.7280 C   0  0  0  0  0  0  0  0  0  0  0  0
  -10.1800    4.6060  -18.1990 C   0  0  0  0  0  0  0  0  0  0  0  0
   -9.1930    4.7720  -19.1630 C   0  0  0  0  0  0  0  0  0  0  0  0
   -7.8800    5.0980  -18.8150 C   0  0  0  0  0  0  0  0  0  0  0  0
   -7.5470    5.2740  -17.3310 C   0  0  0  0  0  0  0  0  0  0  0  0
   -5.2670    5.5790  -18.4310 H   0  0  0  0  0  0  0  0  0  0  0  0
   -4.3800    5.1330  -16.9510 H   0  0  0  0  0  0  0  0  0  0  0  0
   -4.8220    6.8410  -17.2580 H   0  0  0  0  0  0  0  0  0  0  0  0
   -8.3890    7.1460  -12.7980 H   0  0  0  0  0  0  0  0  0  0  0  0
   -9.7500    6.8430  -13.8770 H   0  0  0  0  0  0  0  0  0  0  0  0
  -10.5930    4.6470  -16.0310 H   0  0  0  0  0  0  0  0  0  0  0  0
  -11.2290    4.3500  -18.3910 H   0  0  0  0  0  0  0  0  0  0  0  0
   -9.4460    4.6430  -20.2140 H   0  0  0  0  0  0  0  0  0  0  0  0
   -7.1250    5.2190  -19.5840 H   0  0  0  0  0  0  0  0  0  0  0  0
  1  2  1  0
  2  3  1  0
  3  4  2  0
  4  5  1  0
  5  6  1  0
  5  7  2  0
  4  8  1  0
  8  9  2  0
  9 10  1  0
 10 11  2  0
 11 12  1  0
 12 13  2  0
 13  2  1  0
 13  8  1  0
  1 14  1  0
  1 15  1  0
  1 16  1  0
  6 17  1  0
  6 18  1  0
  9 19  1  0
 10 20  1  0
 11 21  1  0
 12 22  1  0
A    1
 C1 
A    2
 N1 
A    3
 N2 
A    4
 C2 
A    5
 C3 
A    6
 N3 
A    7
 O1 
A    8
 C4 
A    9
 C5 
A   10
 C6 
A   11
 C7 
A   12
 C8 
A   13
 C9 
A   14
 H1 
A   15
 H2 
A   16
 H3 
A   17
 H4 
A   18
 H5 
A   19
 H6 
A   20
 H7 
A   21
 H8 
A   22
 H9 
M  END
>  <ref_pdb>  (228) 
x0051_0B

>  <ref_mols>  (228) 
x0951_0B,x0800_0B

>  <original SMILES>  (228) 
[H]c1c([H])c([H])c2c(c(C(=O)N([H])[H])nn2C([H])([H])[H])c1[H]

>  <index>  (228) 
2154

>  <∆∆G>  (228) 
-5.876829

>  <∆G_bound>  (228) 
-5.763179

>  <∆G_unbound>  (228) 
0.11365

>  <comRMSD>  (228) 
0.738647

>  <N_constrained_atoms>  (228) 
16.0

>  <N_unconstrained_atoms>  (228) 
1.0

>  <runtime>  (228) 
26.694156

>  <LE>  (228) 
0.345696

>  <percent_hybrid>  (228) 
37.0

>  <dist>  (228) 
4.0

>  <ecfp4>  (228) 
0.189655

>  <daylight>  (228) 
0.224138

>  <topodist>  (228) 
2.0

>  <mces>  (228) 
14.0

>  <tdn>  (228) 
2.0

>  <tup>  (228) 
0.0

>  <rdn>  (228) 
0.0

>  <rup>  (228) 
0.0

>  <ldn>  (228) 
0.0

>  <lup>  (228) 
0.0

>  <mut>  (228) 
2.0

>  <maj>  (228) 
2.0

>  <min>  (228) 
0.0

>  <hyb>  (228) 
0.0

>  <sub>  (228) 
1.0

>  <query_index>  (228) 
116.0

>  <max_hit_Tanimoto>  (228) 
0.159116

>  <largest_ring>  (228) 
6

>  <N_interactions_kept>  (228) 
0.0

>  <N_interactions_lost>  (228) 
3.5

>  <interaction_uniqueness_metric>  (228) 
0.157824

>  <ad_hoc_penalty>  (228) 
-8.156016

>  <N_rotatable_bonds>  (228) 
2

>  <N_HA>  (228) 
13

>  <cluster>  (228) 
4240

>  <N_interactions>  (228) 
6

>  <Enamine>  (228) 
1

>  <Mcule>  (228) 
0

>  <N_PAINS>  (228) 
0

>  <UFF_Gibbs>  (228) 
58.370818

>  <strain_per_HA>  (228) 
4.490063

>  <intxn_scored>  (228) 
9.5

>  <saltbridge:HIS:51>  (228) 
0

>  <pistack:HIS:51>  (228) 
0

>  <hydroph_interaction:HIS:51>  (228) 
0

>  <hbond:ALA:132>  (228) 
0

>  <hbond:SER:135>  (228) 
0

>  <hydroph_interaction:TYR:150>  (228) 
1

>  <pistack:TYR:161>  (228) 
1

>  <hydroph_interaction:TYR:161>  (228) 
2

>  <hydroph_interaction:ASP:83>  (228) 
0

>  <hbond:TYR:130>  (228) 
0

>  <hydroph_interaction:ALA:132>  (228) 
0

>  <hbond:HIS:51>  (228) 
1

>  <hbond:ASP:129>  (228) 
0

>  <hbond:TYR:150>  (228) 
0

>  <hbond:GLY:151>  (228) 
0

>  <hbond:TYR:161>  (228) 
1

>  <hydroph_interaction:TYR:130>  (228) 
0

>  <hydroph_interaction:PRO:131>  (228) 
0

>  <hydroph_interaction:ASP:129>  (228) 
0

>  <saltbridge:ASP:75>  (228) 
0

>  <saltbridge:ASP:83>  (228) 
0

>  <hbond:ASN:152>  (228) 
0

>  <hydroph_interaction:ASN:152>  (228) 
0

>  <halogenbond:TYR:150>  (228) 
0

>  <hbond:ASP:83>  (228) 
0

>  <hydroph_interaction:VAL:155>  (228) 
0

>  <pication:TYR:161>  (228) 
0

>  <hbond:PRO:131>  (228) 
0

>  <saltbridge:ASP:129>  (228) 
0

>  <hbond:THR:134>  (228) 
0

>  <pication:HIS:51>  (228) 
0

>  <hbond:SER:81>  (228) 
0

>  <hydroph_interaction:THR:134>  (228) 
0

>  <hydroph_interaction:MET:49>  (228) 
0

$$$$
CSSB00000700890
     RDKit          3D

 24 25  0  0  0  0  0  0  0  0999 V2000
   -9.7990    7.2770  -13.9740 C   0  0  0  0  0  0  0  0  0  0  0  0
   -9.3750    5.9890  -13.5320 O   0  0  0  0  0  0  0  0  0  0  0  0
   -8.0510    5.6790  -13.6960 C   0  0  0  0  0  0  0  0  0  0  0  0
   -7.3010    5.4770  -12.7390 O   0  0  0  0  0  0  0  0  0  0  0  0
   -7.5520    5.6010  -15.1550 C   0  0  0  0  0  0  0  0  0  0  0  0
   -6.2450    5.8390  -15.4720 N   0  0  0  0  0  0  0  0  0  0  0  0
   -6.1770    5.6810  -16.8140 N   0  0  0  0  0  0  0  0  0  0  0  0
   -4.9490    5.8380  -17.5520 C   0  0  0  0  0  0  0  0  0  0  0  0
   -7.4010    5.3560  -17.3680 C   0  0  0  0  0  0  0  0  0  0  0  0
   -7.7630    5.1070  -18.7690 C   0  0  0  0  0  0  0  0  0  0  0  0
   -9.0570    4.7930  -19.0310 C   0  0  0  0  0  0  0  0  0  0  0  0
  -10.0180    4.7070  -18.0260 C   0  0  0  0  0  0  0  0  0  0  0  0
   -9.6450    4.9530  -16.6730 C   0  0  0  0  0  0  0  0  0  0  0  0
   -8.3120    5.2860  -16.3400 C   0  0  0  0  0  0  0  0  0  0  0  0
  -10.4820    7.6920  -13.2270 H   0  0  0  0  0  0  0  0  0  0  0  0
   -8.9500    7.9580  -14.0890 H   0  0  0  0  0  0  0  0  0  0  0  0
  -10.3370    7.2120  -14.9280 H   0  0  0  0  0  0  0  0  0  0  0  0
   -4.4760    4.8550  -17.6340 H   0  0  0  0  0  0  0  0  0  0  0  0
   -4.2850    6.5310  -17.0310 H   0  0  0  0  0  0  0  0  0  0  0  0
   -5.1920    6.2350  -18.5390 H   0  0  0  0  0  0  0  0  0  0  0  0
   -7.0340    5.1660  -19.5730 H   0  0  0  0  0  0  0  0  0  0  0  0
   -9.3510    4.6040  -20.0610 H   0  0  0  0  0  0  0  0  0  0  0  0
  -11.0450    4.4530  -18.2730 H   0  0  0  0  0  0  0  0  0  0  0  0
  -10.3840    4.8850  -15.8840 H   0  0  0  0  0  0  0  0  0  0  0  0
  1  2  1  0
  2  3  1  0
  3  4  2  0
  3  5  1  0
  5  6  2  0
  6  7  1  0
  7  8  1  0
  7  9  1  0
  9 10  2  0
 10 11  1  0
 11 12  2  0
 12 13  1  0
 13 14  2  0
 14  5  1  0
 14  9  1  0
  1 15  1  0
  1 16  1  0
  1 17  1  0
  8 18  1  0
  8 19  1  0
  8 20  1  0
 10 21  1  0
 11 22  1  0
 12 23  1  0
 13 24  1  0
A    1
 C1 
A    2
 O1 
A    3
 C2 
A    4
 O2 
A    5
 C3 
A    6
 N1 
A    7
 N2 
A    8
 C4 
A    9
 C5 
A   10
 C6 
A   11
 C7 
A   12
 C8 
A   13
 C9 
A   14
 C10
A   15
 H1 
A   16
 H2 
A   17
 H3 
A   18
 H4 
A   19
 H5 
A   20
 H6 
A   21
 H7 
A   22
 H8 
A   23
 H9 
A   24
 H10
M  END
>  <ref_pdb>  (229) 
x0051_0B

>  <ref_mols>  (229) 
x0951_0B,x0969_0B

>  <original SMILES>  (229) 
[H]c1c([H])c([H])c2c(c(C(=O)OC([H])([H])[H])nn2C([H])([H])[H])c1[H]

>  <index>  (229) 
3091

>  <∆∆G>  (229) 
-6.987046

>  <∆G_bound>  (229) 
-6.862269

>  <∆G_unbound>  (229) 
0.124777

>  <comRMSD>  (229) 
0.644638

>  <N_constrained_atoms>  (229) 
16.0

>  <N_unconstrained_atoms>  (229) 
1.0

>  <runtime>  (229) 
41.502838

>  <LE>  (229) 
0.411003

>  <percent_hybrid>  (229) 
40.0

>  <dist>  (229) 
5.0

>  <ecfp4>  (229) 
0.192982

>  <daylight>  (229) 
0.319797

>  <topodist>  (229) 
3.0

>  <mces>  (229) 
14.0

>  <tdn>  (229) 
1.0

>  <tup>  (229) 
1.0

>  <rdn>  (229) 
1.0

>  <rup>  (229) 
0.0

>  <ldn>  (229) 
0.0

>  <lup>  (229) 
0.0

>  <mut>  (229) 
1.0

>  <maj>  (229) 
1.0

>  <min>  (229) 
0.0

>  <hyb>  (229) 
1.0

>  <sub>  (229) 
2.0

>  <query_index>  (229) 
121.0

>  <max_hit_Tanimoto>  (229) 
0.208649

>  <largest_ring>  (229) 
6

>  <N_interactions_kept>  (229) 
0.0

>  <N_interactions_lost>  (229) 
3.0

>  <interaction_uniqueness_metric>  (229) 
0.122408

>  <ad_hoc_penalty>  (229) 
-5.740757

>  <N_rotatable_bonds>  (229) 
3

>  <N_HA>  (229) 
14

>  <cluster>  (229) 
3361

>  <N_interactions>  (229) 
4

>  <Enamine>  (229) 
1

>  <Mcule>  (229) 
0

>  <N_PAINS>  (229) 
0

>  <UFF_Gibbs>  (229) 
22.08058

>  <strain_per_HA>  (229) 
1.577184

>  <intxn_scored>  (229) 
9.5

>  <saltbridge:HIS:51>  (229) 
1

>  <pistack:HIS:51>  (229) 
0

>  <hydroph_interaction:HIS:51>  (229) 
0

>  <hbond:ALA:132>  (229) 
0

>  <hbond:SER:135>  (229) 
0

>  <hydroph_interaction:TYR:150>  (229) 
1

>  <pistack:TYR:161>  (229) 
2

>  <hydroph_interaction:TYR:161>  (229) 
0

>  <hydroph_interaction:ASP:83>  (229) 
0

>  <hbond:TYR:130>  (229) 
0

>  <hydroph_interaction:ALA:132>  (229) 
0

>  <hbond:HIS:51>  (229) 
0

>  <hbond:ASP:129>  (229) 
0

>  <hbond:TYR:150>  (229) 
0

>  <hbond:GLY:151>  (229) 
0

>  <hbond:TYR:161>  (229) 
0

>  <hydroph_interaction:TYR:130>  (229) 
0

>  <hydroph_interaction:PRO:131>  (229) 
0

>  <hydroph_interaction:ASP:129>  (229) 
0

>  <saltbridge:ASP:75>  (229) 
0

>  <saltbridge:ASP:83>  (229) 
0

>  <hbond:ASN:152>  (229) 
0

>  <hydroph_interaction:ASN:152>  (229) 
0

>  <halogenbond:TYR:150>  (229) 
0

>  <hbond:ASP:83>  (229) 
0

>  <hydroph_interaction:VAL:155>  (229) 
0

>  <pication:TYR:161>  (229) 
0

>  <hbond:PRO:131>  (229) 
0

>  <saltbridge:ASP:129>  (229) 
0

>  <hbond:THR:134>  (229) 
0

>  <pication:HIS:51>  (229) 
0

>  <hbond:SER:81>  (229) 
0

>  <hydroph_interaction:THR:134>  (229) 
0

>  <hydroph_interaction:MET:49>  (229) 
0

$$$$
CSSB00025714185
     RDKit          3D

 31 32  0  0  0  0  0  0  0  0999 V2000
   -8.5130    5.4290   -8.3420 C   0  0  0  0  0  0  0  0  0  0  0  0
   -8.6450    5.3260   -9.8310 C   0  0  0  0  0  0  0  0  0  0  0  0
   -8.5720    4.0800  -10.3350 N   0  0  0  0  0  0  0  0  0  0  0  0
   -8.6910    3.9060  -11.6700 C   0  0  0  0  0  0  0  0  0  0  0  0
   -8.8880    4.9430  -12.5820 C   0  0  0  0  0  0  0  0  0  0  0  0
   -9.0110    4.8010  -13.9760 N   0  0  0  0  0  0  0  0  0  0  0  0
   -8.4210    5.6250  -14.8890 C   0  0  0  0  0  0  0  0  0  0  0  0
   -7.7430    6.6130  -14.6260 O   0  0  0  0  0  0  0  0  0  0  0  0
   -8.6030    5.3250  -16.2240 C   0  0  0  0  0  0  0  0  0  0  0  0
   -9.7730    4.7940  -16.7010 C   0  0  0  0  0  0  0  0  0  0  0  0
   -9.8980    4.5180  -18.1530 C   0  0  0  0  0  0  0  0  0  0  0  0
   -8.8090    4.8030  -18.9810 C   0  0  0  0  0  0  0  0  0  0  0  0
   -7.6450    5.3390  -18.4110 C   0  0  0  0  0  0  0  0  0  0  0  0
   -7.5620    5.5860  -17.0740 C   0  0  0  0  0  0  0  0  0  0  0  0
   -6.4240    5.6940  -19.1610 C   0  0  0  0  0  0  0  0  0  0  0  0
   -5.3250    5.0430  -18.6980 F   0  0  0  0  0  0  0  0  0  0  0  0
   -6.1640    7.0120  -18.9770 F   0  0  0  0  0  0  0  0  0  0  0  0
   -6.4870    5.4770  -20.4920 F   0  0  0  0  0  0  0  0  0  0  0  0
   -8.9620    6.2310  -12.0480 C   0  0  0  0  0  0  0  0  0  0  0  0
   -8.8410    6.4290  -10.6650 C   0  0  0  0  0  0  0  0  0  0  0  0
   -8.9570    8.2050  -10.0030 Br  0  0  0  0  0  0  0  0  0  0  0  0
   -9.1740    4.7110   -7.8430 H   0  0  0  0  0  0  0  0  0  0  0  0
   -7.4880    5.1930   -8.0270 H   0  0  0  0  0  0  0  0  0  0  0  0
   -8.7660    6.4390   -8.0060 H   0  0  0  0  0  0  0  0  0  0  0  0
   -8.6210    2.8700  -12.0010 H   0  0  0  0  0  0  0  0  0  0  0  0
   -9.3830    3.9160  -14.3190 H   0  0  0  0  0  0  0  0  0  0  0  0
  -10.5930    4.5790  -16.0380 H   0  0  0  0  0  0  0  0  0  0  0  0
  -10.8110    4.1040  -18.5630 H   0  0  0  0  0  0  0  0  0  0  0  0
   -8.8730    4.6090  -20.0540 H   0  0  0  0  0  0  0  0  0  0  0  0
   -6.6420    6.0070  -16.6690 H   0  0  0  0  0  0  0  0  0  0  0  0
   -9.1150    7.0860  -12.6990 H   0  0  0  0  0  0  0  0  0  0  0  0
  1  2  1  0
  2  3  2  0
  3  4  1  0
  4  5  2  0
  5  6  1  0
  6  7  1  0
  7  8  2  0
  7  9  1  0
  9 10  2  0
 10 11  1  0
 11 12  2  0
 12 13  1  0
 13 14  2  0
 13 15  1  0
 15 16  1  0
 15 17  1  0
 15 18  1  0
  5 19  1  0
 19 20  2  0
 20 21  1  0
 20  2  1  0
 14  9  1  0
  1 22  1  0
  1 23  1  0
  1 24  1  0
  4 25  1  0
  6 26  1  0
 10 27  1  0
 11 28  1  0
 12 29  1  0
 14 30  1  0
 19 31  1  0
A    1
 C1 
A    2
 C2 
A    3
 N1 
A    4
 C3 
A    5
 C4 
A    6
 N2 
A    7
 C5 
A    8
 O1 
A    9
 C6 
A   10
 C7 
A   11
 C8 
A   12
 C9 
A   13
 C10
A   14
 C11
A   15
 C12
A   16
 F1 
A   17
 F2 
A   18
 F3 
A   19
 C13
A   20
 C14
A   21
BR1 
A   22
 H1 
A   23
 H2 
A   24
 H3 
A   25
 H4 
A   26
 H5 
A   27
 H6 
A   28
 H7 
A   29
 H8 
A   30
 H9 
A   31
 H10
M  END
>  <ref_pdb>  (230) 
x0051_0B

>  <ref_mols>  (230) 
x1098_0B,x0386_0B

>  <original SMILES>  (230) 
[H]c1nc(C([H])([H])[H])c(Br)c([H])c1N([H])C(=O)c1c([H])c([H])c([H])c(C(F)(F)F)c1[H]

>  <index>  (230) 
1588

>  <∆∆G>  (230) 
-6.023076

>  <∆G_bound>  (230) 
-5.522979

>  <∆G_unbound>  (230) 
0.500097

>  <comRMSD>  (230) 
0.707347

>  <N_constrained_atoms>  (230) 
20.0

>  <N_unconstrained_atoms>  (230) 
2.0

>  <runtime>  (230) 
63.074196

>  <LE>  (230) 
0.273776

>  <percent_hybrid>  (230) 
14.0

>  <dist>  (230) 
7.0

>  <ecfp4>  (230) 
0.177215

>  <daylight>  (230) 
0.333333

>  <topodist>  (230) 
5.0

>  <mces>  (230) 
19.0

>  <tdn>  (230) 
1.0

>  <tup>  (230) 
1.0

>  <rdn>  (230) 
0.0

>  <rup>  (230) 
0.0

>  <ldn>  (230) 
1.0

>  <lup>  (230) 
2.0

>  <mut>  (230) 
2.0

>  <maj>  (230) 
2.0

>  <min>  (230) 
0.0

>  <hyb>  (230) 
0.0

>  <sub>  (230) 
0.0

>  <query_index>  (230) 
61.0

>  <max_hit_Tanimoto>  (230) 
0.419192

>  <largest_ring>  (230) 
6

>  <N_interactions_kept>  (230) 
1.5

>  <N_interactions_lost>  (230) 
3.5

>  <interaction_uniqueness_metric>  (230) 
0.195987

>  <ad_hoc_penalty>  (230) 
-14.733638

>  <N_rotatable_bonds>  (230) 
3

>  <N_HA>  (230) 
21

>  <cluster>  (230) 
4759

>  <N_interactions>  (230) 
7

>  <Enamine>  (230) 
1

>  <Mcule>  (230) 
0

>  <N_PAINS>  (230) 
0

>  <UFF_Gibbs>  (230) 
35.164853

>  <strain_per_HA>  (230) 
1.674517

>  <intxn_scored>  (230) 
9.5

>  <saltbridge:HIS:51>  (230) 
0

>  <pistack:HIS:51>  (230) 
1

>  <hydroph_interaction:HIS:51>  (230) 
1

>  <hbond:ALA:132>  (230) 
0

>  <hbond:SER:135>  (230) 
0

>  <hydroph_interaction:TYR:150>  (230) 
1

>  <pistack:TYR:161>  (230) 
1

>  <hydroph_interaction:TYR:161>  (230) 
0

>  <hydroph_interaction:ASP:83>  (230) 
0

>  <hbond:TYR:130>  (230) 
0

>  <hydroph_interaction:ALA:132>  (230) 
1

>  <hbond:HIS:51>  (230) 
0

>  <hbond:ASP:129>  (230) 
0

>  <hbond:TYR:150>  (230) 
0

>  <hbond:GLY:151>  (230) 
1

>  <hbond:TYR:161>  (230) 
1

>  <hydroph_interaction:TYR:130>  (230) 
0

>  <hydroph_interaction:PRO:131>  (230) 
0

>  <hydroph_interaction:ASP:129>  (230) 
0

>  <saltbridge:ASP:75>  (230) 
0

>  <saltbridge:ASP:83>  (230) 
0

>  <hbond:ASN:152>  (230) 
0

>  <hydroph_interaction:ASN:152>  (230) 
0

>  <halogenbond:TYR:150>  (230) 
0

>  <hbond:ASP:83>  (230) 
0

>  <hydroph_interaction:VAL:155>  (230) 
0

>  <pication:TYR:161>  (230) 
0

>  <hbond:PRO:131>  (230) 
0

>  <saltbridge:ASP:129>  (230) 
0

>  <hbond:THR:134>  (230) 
0

>  <pication:HIS:51>  (230) 
0

>  <hbond:SER:81>  (230) 
0

>  <hydroph_interaction:THR:134>  (230) 
0

>  <hydroph_interaction:MET:49>  (230) 
0

$$$$
CSSB00000008058
     RDKit          3D

 23 24  0  0  0  0  0  0  0  0999 V2000
   -9.8550    4.8710  -18.9780 C   0  0  0  0  0  0  0  0  0  0  0  0
   -8.8810    4.9970  -17.8550 C   0  0  0  0  0  0  0  0  0  0  0  0
   -9.3250    4.8970  -16.5380 C   0  0  0  0  0  0  0  0  0  0  0  0
   -8.4260    4.9960  -15.4960 C   0  0  0  0  0  0  0  0  0  0  0  0
   -7.0850    5.1870  -15.7780 C   0  0  0  0  0  0  0  0  0  0  0  0
   -6.6150    5.2920  -17.1040 C   0  0  0  0  0  0  0  0  0  0  0  0
   -5.2530    5.4780  -17.4480 C   0  0  0  0  0  0  0  0  0  0  0  0
   -4.1700    5.5650  -16.4140 C   0  0  0  0  0  0  0  0  0  0  0  0
   -4.9020    5.5810  -18.7960 C   0  0  0  0  0  0  0  0  0  0  0  0
   -5.9050    5.4920  -19.7320 C   0  0  0  0  0  0  0  0  0  0  0  0
   -5.5730    5.6190  -21.4120 Cl  0  0  0  0  0  0  0  0  0  0  0  0
   -7.1960    5.3040  -19.4410 N   0  0  0  0  0  0  0  0  0  0  0  0
   -7.5460    5.2030  -18.1570 C   0  0  0  0  0  0  0  0  0  0  0  0
   -9.7230    3.9000  -19.4500 H   0  0  0  0  0  0  0  0  0  0  0  0
  -10.8860    4.9450  -18.6150 H   0  0  0  0  0  0  0  0  0  0  0  0
   -9.6750    5.6270  -19.7500 H   0  0  0  0  0  0  0  0  0  0  0  0
  -10.3690    4.7380  -16.3190 H   0  0  0  0  0  0  0  0  0  0  0  0
   -8.7720    4.9170  -14.4690 H   0  0  0  0  0  0  0  0  0  0  0  0
   -6.3990    5.2530  -14.9370 H   0  0  0  0  0  0  0  0  0  0  0  0
   -3.2670    5.0310  -16.7330 H   0  0  0  0  0  0  0  0  0  0  0  0
   -3.8940    6.6070  -16.2380 H   0  0  0  0  0  0  0  0  0  0  0  0
   -4.5050    5.1050  -15.4780 H   0  0  0  0  0  0  0  0  0  0  0  0
   -3.8750    5.7290  -19.1070 H   0  0  0  0  0  0  0  0  0  0  0  0
  1  2  1  0
  2  3  2  0
  3  4  1  0
  4  5  2  0
  5  6  1  0
  6  7  2  0
  7  8  1  0
  7  9  1  0
  9 10  2  0
 10 11  1  0
 10 12  1  0
 12 13  2  0
 13  2  1  0
 13  6  1  0
  1 14  1  0
  1 15  1  0
  1 16  1  0
  3 17  1  0
  4 18  1  0
  5 19  1  0
  8 20  1  0
  8 21  1  0
  8 22  1  0
  9 23  1  0
A    1
 C1 
A    2
 C2 
A    3
 C3 
A    4
 C4 
A    5
 C5 
A    6
 C6 
A    7
 C7 
A    8
 C8 
A    9
 C9 
A   10
 C10
A   11
CL1 
A   12
 N1 
A   13
 C11
A   14
 H1 
A   15
 H2 
A   16
 H3 
A   17
 H4 
A   18
 H5 
A   19
 H6 
A   20
 H7 
A   21
 H8 
A   22
 H9 
A   23
 H10
M  END
>  <ref_pdb>  (231) 
x0051_0B

>  <ref_mols>  (231) 
x0425_0B,x0435_0B

>  <original SMILES>  (231) 
[H]c1c([H])c([H])c2c(C([H])([H])[H])c([H])c(Cl)nc2c1C([H])([H])[H]

>  <index>  (231) 
1752

>  <∆∆G>  (231) 
-7.240852

>  <∆G_bound>  (231) 
-7.483168

>  <∆G_unbound>  (231) 
-0.242316

>  <comRMSD>  (231) 
0.654984

>  <N_constrained_atoms>  (231) 
12.0

>  <N_unconstrained_atoms>  (231) 
1.0

>  <runtime>  (231) 
21.717271

>  <LE>  (231) 
0.556989

>  <percent_hybrid>  (231) 
50.0

>  <dist>  (231) 
2.0

>  <ecfp4>  (231) 
0.365854

>  <daylight>  (231) 
0.644737

>  <topodist>  (231) 
2.0

>  <mces>  (231) 
13.0

>  <tdn>  (231) 
1.0

>  <tup>  (231) 
1.0

>  <rdn>  (231) 
0.0

>  <rup>  (231) 
0.0

>  <ldn>  (231) 
0.0

>  <lup>  (231) 
0.0

>  <mut>  (231) 
0.0

>  <maj>  (231) 
0.0

>  <min>  (231) 
0.0

>  <hyb>  (231) 
0.0

>  <sub>  (231) 
2.0

>  <query_index>  (231) 
107.0

>  <max_hit_Tanimoto>  (231) 
0.15575

>  <largest_ring>  (231) 
6

>  <N_interactions_kept>  (231) 
1.0

>  <N_interactions_lost>  (231) 
2.5

>  <interaction_uniqueness_metric>  (231) 
0.04341

>  <ad_hoc_penalty>  (231) 
-12.755009

>  <N_rotatable_bonds>  (231) 
2

>  <N_HA>  (231) 
13

>  <cluster>  (231) 
4612

>  <N_interactions>  (231) 
4

>  <Enamine>  (231) 
1

>  <Mcule>  (231) 
0

>  <N_PAINS>  (231) 
0

>  <UFF_Gibbs>  (231) 
11.589534

>  <strain_per_HA>  (231) 
0.891503

>  <intxn_scored>  (231) 
9.5

>  <saltbridge:HIS:51>  (231) 
0

>  <pistack:HIS:51>  (231) 
0

>  <hydroph_interaction:HIS:51>  (231) 
0

>  <hbond:ALA:132>  (231) 
0

>  <hbond:SER:135>  (231) 
0

>  <hydroph_interaction:TYR:150>  (231) 
1

>  <pistack:TYR:161>  (231) 
2

>  <hydroph_interaction:TYR:161>  (231) 
1

>  <hydroph_interaction:ASP:83>  (231) 
0

>  <hbond:TYR:130>  (231) 
0

>  <hydroph_interaction:ALA:132>  (231) 
0

>  <hbond:HIS:51>  (231) 
0

>  <hbond:ASP:129>  (231) 
0

>  <hbond:TYR:150>  (231) 
0

>  <hbond:GLY:151>  (231) 
0

>  <hbond:TYR:161>  (231) 
0

>  <hydroph_interaction:TYR:130>  (231) 
0

>  <hydroph_interaction:PRO:131>  (231) 
0

>  <hydroph_interaction:ASP:129>  (231) 
0

>  <saltbridge:ASP:75>  (231) 
0

>  <saltbridge:ASP:83>  (231) 
0

>  <hbond:ASN:152>  (231) 
0

>  <hydroph_interaction:ASN:152>  (231) 
0

>  <halogenbond:TYR:150>  (231) 
0

>  <hbond:ASP:83>  (231) 
0

>  <hydroph_interaction:VAL:155>  (231) 
0

>  <pication:TYR:161>  (231) 
0

>  <hbond:PRO:131>  (231) 
0

>  <saltbridge:ASP:129>  (231) 
0

>  <hbond:THR:134>  (231) 
0

>  <pication:HIS:51>  (231) 
0

>  <hbond:SER:81>  (231) 
0

>  <hydroph_interaction:THR:134>  (231) 
0

>  <hydroph_interaction:MET:49>  (231) 
0

$$$$
PV-006184706728
     RDKit          3D

 52 55  0  0  0  0  0  0  0  0999 V2000
   -2.6330    5.0310  -17.6410 C   0  0  0  0  0  0  0  0  0  0  0  0
   -4.0820    5.2350  -18.0560 C   0  0  0  0  0  0  0  0  0  0  0  0
   -5.1080    5.4120  -17.2100 N   0  0  0  0  0  0  0  0  0  0  0  0
   -6.1570    5.5460  -18.0800 C   0  0  0  0  0  0  0  0  0  0  0  0
   -7.5870    5.7850  -17.7610 C   0  0  1  0  0  0  0  0  0  0  0  0
   -8.4820    5.1570  -18.6300 C   0  0  0  0  0  0  0  0  0  0  0  0
   -9.6900    4.7700  -17.9210 C   0  0  0  0  0  0  0  0  0  0  0  0
   -9.2690    4.6630  -16.4880 C   0  0  0  0  0  0  0  0  0  0  0  0
   -8.1000    5.5210  -16.2870 N   0  0  0  0  0  0  0  0  0  0  0  0
   -8.4450    6.7060  -15.0150 S   0  0  0  0  0  6  0  0  0  0  0  0
   -7.4850    7.7910  -14.9110 O   0  0  0  0  0  0  0  0  0  0  0  0
   -9.8300    6.9940  -15.2370 O   0  0  0  0  0  0  0  0  0  0  0  0
   -8.5460    6.0430  -13.3560 C   0  0  0  0  0  0  0  0  0  0  0  0
   -8.5130    6.9880  -12.1270 C   0  0  0  0  0  0  0  0  0  0  0  0
   -8.6150    6.4430  -10.7160 C   0  0  0  0  0  0  0  0  0  0  0  0
   -8.7480    4.9280  -10.6850 C   0  0  0  0  0  0  0  0  0  0  0  0
   -8.8710    4.3150   -9.3180 C   0  0  0  0  0  0  0  0  0  0  0  0
   -9.0180    2.8030   -9.3240 C   0  0  0  0  0  0  0  0  0  0  0  0
   -9.6260    2.4360   -7.9880 C   0  0  0  0  0  0  0  0  0  0  0  0
   -8.9900    3.1420   -6.7810 C   0  0  0  0  0  0  0  0  0  0  0  0
   -8.4080    4.5350   -7.0120 C   0  0  0  0  0  0  0  0  0  0  0  0
   -7.8390    4.7200   -8.2730 C   0  0  0  0  0  0  0  0  0  0  0  0
   -8.7670    4.1400  -11.8530 C   0  0  0  0  0  0  0  0  0  0  0  0
   -8.6690    4.6780  -13.1440 C   0  0  0  0  0  0  0  0  0  0  0  0
   -5.8120    5.4540  -19.3810 N   0  0  0  0  0  0  0  0  0  0  0  0
   -4.4950    5.2620  -19.3240 N   0  0  0  0  0  0  0  0  0  0  0  0
   -2.0790    4.4890  -18.4130 H   0  0  0  0  0  0  0  0  0  0  0  0
   -2.1370    5.9920  -17.4730 H   0  0  0  0  0  0  0  0  0  0  0  0
   -2.5780    4.4570  -16.7100 H   0  0  0  0  0  0  0  0  0  0  0  0
   -7.6770    6.8290  -17.9670 H   0  0  0  0  0  0  0  0  0  0  0  0
   -8.0370    4.2950  -19.1200 H   0  0  0  0  0  0  0  0  0  0  0  0
   -8.7440    5.8350  -19.4490 H   0  0  0  0  0  0  0  0  0  0  0  0
  -10.4520    5.5510  -17.9560 H   0  0  0  0  0  0  0  0  0  0  0  0
  -10.1290    3.9120  -18.4080 H   0  0  0  0  0  0  0  0  0  0  0  0
   -9.9970    4.8220  -15.7040 H   0  0  0  0  0  0  0  0  0  0  0  0
   -8.8610    3.7020  -16.3790 H   0  0  0  0  0  0  0  0  0  0  0  0
   -8.4150    8.0550  -12.3620 H   0  0  0  0  0  0  0  0  0  0  0  0
   -8.5960    7.0920   -9.8450 H   0  0  0  0  0  0  0  0  0  0  0  0
   -9.7970    4.6920   -8.9200 H   0  0  0  0  0  0  0  0  0  0  0  0
   -8.0620    2.2840   -9.4710 H   0  0  0  0  0  0  0  0  0  0  0  0
   -9.6910    2.4930  -10.1330 H   0  0  0  0  0  0  0  0  0  0  0  0
  -10.6970    2.6630   -8.0200 H   0  0  0  0  0  0  0  0  0  0  0  0
   -9.5620    1.3600   -7.8380 H   0  0  0  0  0  0  0  0  0  0  0  0
   -9.7580    3.2360   -6.0120 H   0  0  0  0  0  0  0  0  0  0  0  0
   -8.2060    2.4980   -6.3640 H   0  0  0  0  0  0  0  0  0  0  0  0
   -7.6560    4.7520   -6.2450 H   0  0  0  0  0  0  0  0  0  0  0  0
   -9.2090    5.2730   -6.8720 H   0  0  0  0  0  0  0  0  0  0  0  0
   -6.9920    4.0260   -8.3700 H   0  0  0  0  0  0  0  0  0  0  0  0
   -7.4160    5.6930   -8.5160 H   0  0  0  0  0  0  0  0  0  0  0  0
   -8.8650    3.0570  -11.7630 H   0  0  0  0  0  0  0  0  0  0  0  0
   -8.6910    4.0060  -13.9920 H   0  0  0  0  0  0  0  0  0  0  0  0
   -3.9680    5.1590  -20.1810 H   0  0  0  0  0  0  0  0  0  0  0  0
  1  2  1  0
  2  3  2  0
  3  4  1  0
  4  5  1  0
  5  6  1  0
  6  7  1  0
  7  8  1  0
  8  9  1  0
  9 10  1  0
 10 11  2  0
 10 12  2  0
 10 13  1  0
 13 14  2  0
 14 15  1  0
 15 16  2  0
 16 17  1  0
 17 18  1  0
 18 19  1  0
 19 20  1  0
 20 21  1  0
 21 22  1  0
 16 23  1  0
 23 24  2  0
  4 25  2  0
 25 26  1  0
 26  2  1  0
  9  5  1  0
 24 13  1  0
 22 17  1  0
  1 27  1  0
  1 28  1  0
  1 29  1  0
  5 30  1  6
  6 31  1  0
  6 32  1  0
  7 33  1  0
  7 34  1  0
  8 35  1  0
  8 36  1  0
 14 37  1  0
 15 38  1  0
 17 39  1  0
 18 40  1  0
 18 41  1  0
 19 42  1  0
 19 43  1  0
 20 44  1  0
 20 45  1  0
 21 46  1  0
 21 47  1  0
 22 48  1  0
 22 49  1  0
 23 50  1  0
 24 51  1  0
 26 52  1  0
A    1
 C1 
A    2
 C2 
A    3
 N1 
A    4
 C3 
A    5
 C4 
A    6
 C5 
A    7
 C6 
A    8
 C7 
A    9
 N2 
A   10
 S1 
A   11
 O1 
A   12
 O2 
A   13
 C8 
A   14
 C9 
A   15
 C10
A   16
 C11
A   17
 C12
A   18
 C13
A   19
 C14
A   20
 C15
A   21
 C16
A   22
 C17
A   23
 C18
A   24
 C19
A   25
 N3 
A   26
 N4 
A   27
 H1 
A   28
 H2 
A   29
 H3 
A   30
 H4 
A   31
 H5 
A   32
 H6 
A   33
 H7 
A   34
 H8 
A   35
 H9 
A   36
 H10
A   37
 H11
A   38
 H12
A   39
 H13
A   40
 H14
A   41
 H15
A   42
 H16
A   43
 H17
A   44
 H18
A   45
 H19
A   46
 H20
A   47
 H21
A   48
 H22
A   49
 H23
A   50
 H24
A   51
 H25
A   52
 H26
M  END
>  <ref_pdb>  (232) 
x0051_0B

>  <ref_mols>  (232) 
x0404_0B,x0422_0B

>  <original SMILES>  (232) 
[H]c1c([H])c(S(=O)(=O)N2C([H])([H])C([H])([H])C([H])([H])[C@]2([H])c2nc(C([H])([H])[H])n([H])n2)c([H])c([H])c1C1([H])C([H])([H])C([H])([H])C([H])([H])C([H])([H])C1([H])[H]

>  <index>  (232) 
1817

>  <∆∆G>  (232) 
-5.405711

>  <∆G_bound>  (232) 
-3.542106

>  <∆G_unbound>  (232) 
1.863605

>  <comRMSD>  (232) 
0.818412

>  <N_constrained_atoms>  (232) 
26.0

>  <N_unconstrained_atoms>  (232) 
0.0

>  <runtime>  (232) 
73.459281

>  <LE>  (232) 
0.207912

>  <percent_hybrid>  (232) 
43.0

>  <dist>  (232) 
9.0

>  <ecfp4>  (232) 
0.22093

>  <daylight>  (232) 
0.307692

>  <topodist>  (232) 
2.0

>  <mces>  (232) 
29.0

>  <tdn>  (232) 
0.0

>  <tup>  (232) 
0.0

>  <rdn>  (232) 
0.0

>  <rup>  (232) 
0.0

>  <ldn>  (232) 
2.0

>  <lup>  (232) 
0.0

>  <mut>  (232) 
5.0

>  <maj>  (232) 
5.0

>  <min>  (232) 
0.0

>  <hyb>  (232) 
2.0

>  <sub>  (232) 
0.0

>  <query_index>  (232) 
324.0

>  <max_hit_Tanimoto>  (232) 
0.174643

>  <largest_ring>  (232) 
6

>  <N_interactions_kept>  (232) 
2.5

>  <N_interactions_lost>  (232) 
3.0

>  <interaction_uniqueness_metric>  (232) 
0.128279

>  <ad_hoc_penalty>  (232) 
-8.523941

>  <N_rotatable_bonds>  (232) 
5

>  <N_HA>  (232) 
26

>  <cluster>  (232) 
4551

>  <N_interactions>  (232) 
7

>  <Enamine>  (232) 
1

>  <Mcule>  (232) 
0

>  <N_PAINS>  (232) 
0

>  <UFF_Gibbs>  (232) 
146.468861

>  <strain_per_HA>  (232) 
5.633418

>  <intxn_scored>  (232) 
9.5

>  <saltbridge:HIS:51>  (232) 
0

>  <pistack:HIS:51>  (232) 
1

>  <hydroph_interaction:HIS:51>  (232) 
1

>  <hbond:ALA:132>  (232) 
0

>  <hbond:SER:135>  (232) 
0

>  <hydroph_interaction:TYR:150>  (232) 
0

>  <pistack:TYR:161>  (232) 
1

>  <hydroph_interaction:TYR:161>  (232) 
3

>  <hydroph_interaction:ASP:83>  (232) 
0

>  <hbond:TYR:130>  (232) 
0

>  <hydroph_interaction:ALA:132>  (232) 
0

>  <hbond:HIS:51>  (232) 
0

>  <hbond:ASP:129>  (232) 
0

>  <hbond:TYR:150>  (232) 
0

>  <hbond:GLY:151>  (232) 
0

>  <hbond:TYR:161>  (232) 
0

>  <hydroph_interaction:TYR:130>  (232) 
0

>  <hydroph_interaction:PRO:131>  (232) 
0

>  <hydroph_interaction:ASP:129>  (232) 
0

>  <saltbridge:ASP:75>  (232) 
0

>  <saltbridge:ASP:83>  (232) 
0

>  <hbond:ASN:152>  (232) 
0

>  <hydroph_interaction:ASN:152>  (232) 
0

>  <halogenbond:TYR:150>  (232) 
0

>  <hbond:ASP:83>  (232) 
0

>  <hydroph_interaction:VAL:155>  (232) 
1

>  <pication:TYR:161>  (232) 
0

>  <hbond:PRO:131>  (232) 
0

>  <saltbridge:ASP:129>  (232) 
0

>  <hbond:THR:134>  (232) 
0

>  <pication:HIS:51>  (232) 
0

>  <hbond:SER:81>  (232) 
0

>  <hydroph_interaction:THR:134>  (232) 
0

>  <hydroph_interaction:MET:49>  (232) 
0

$$$$
CSSB00160469017
     RDKit          3D

 39 41  0  0  0  0  0  0  0  0999 V2000
   -8.7250    4.9640  -13.0110 O   0  0  0  0  0  0  0  0  0  0  0  0
   -8.4340    5.7490  -13.9010 C   0  0  0  0  0  0  0  0  0  0  0  0
   -8.7690    7.0990  -13.8380 N   0  0  0  0  0  0  0  0  0  0  0  0
   -9.9930    7.5190  -13.1700 C   0  0  0  0  0  0  0  0  0  0  0  0
  -10.7690    8.4090  -13.9330 C   0  0  0  0  0  0  0  0  0  0  0  0
  -10.4400    9.7700  -13.9690 C   0  0  0  0  0  0  0  0  0  0  0  0
  -10.3790   10.3850  -12.6380 N   0  0  0  0  0  0  0  0  0  0  0  0
  -10.5420    9.4030  -11.5630 C   0  0  0  0  0  0  0  0  0  0  0  0
   -9.7090    8.1430  -11.7950 C   0  0  0  0  0  0  0  0  0  0  0  0
   -7.7340    5.4860  -15.0630 N   0  0  0  0  0  0  0  0  0  0  0  0
   -8.2310    5.2690  -16.3770 C   0  0  0  0  0  0  0  0  0  0  0  0
   -9.5720    4.9520  -16.6000 C   0  0  0  0  0  0  0  0  0  0  0  0
  -10.0610    4.7330  -17.8870 C   0  0  0  0  0  0  0  0  0  0  0  0
   -9.2110    4.8250  -18.9730 C   0  0  0  0  0  0  0  0  0  0  0  0
   -7.8660    5.1420  -18.7930 C   0  0  0  0  0  0  0  0  0  0  0  0
   -7.0400    5.2250  -19.9160 C   0  0  0  0  0  0  0  0  0  0  0  0
   -5.6970    5.5420  -19.8020 C   0  0  0  0  0  0  0  0  0  0  0  0
   -5.1590    5.7760  -18.5490 C   0  0  0  0  0  0  0  0  0  0  0  0
   -5.9670    5.6930  -17.4150 C   0  0  0  0  0  0  0  0  0  0  0  0
   -7.3460    5.3740  -17.4940 C   0  0  0  0  0  0  0  0  0  0  0  0
   -7.9750    7.7160  -13.7400 H   0  0  0  0  0  0  0  0  0  0  0  0
  -10.5660    6.6060  -13.0290 H   0  0  0  0  0  0  0  0  0  0  0  0
  -10.7710    8.0360  -14.9650 H   0  0  0  0  0  0  0  0  0  0  0  0
  -11.8140    8.3280  -13.6040 H   0  0  0  0  0  0  0  0  0  0  0  0
   -9.4600    9.8950  -14.4420 H   0  0  0  0  0  0  0  0  0  0  0  0
  -11.1510   10.3210  -14.5980 H   0  0  0  0  0  0  0  0  0  0  0  0
   -9.4790   10.8550  -12.5250 H   0  0  0  0  0  0  0  0  0  0  0  0
  -11.6020    9.1360  -11.4900 H   0  0  0  0  0  0  0  0  0  0  0  0
  -10.2800    9.8650  -10.6030 H   0  0  0  0  0  0  0  0  0  0  0  0
   -9.9470    7.4070  -11.0140 H   0  0  0  0  0  0  0  0  0  0  0  0
   -8.6460    8.3840  -11.6840 H   0  0  0  0  0  0  0  0  0  0  0  0
   -6.7960    5.1670  -14.8890 H   0  0  0  0  0  0  0  0  0  0  0  0
  -10.2740    4.8640  -15.7780 H   0  0  0  0  0  0  0  0  0  0  0  0
  -11.1080    4.4910  -18.0380 H   0  0  0  0  0  0  0  0  0  0  0  0
   -9.6070    4.6510  -19.9700 H   0  0  0  0  0  0  0  0  0  0  0  0
   -7.4410    5.0390  -20.9050 H   0  0  0  0  0  0  0  0  0  0  0  0
   -5.0740    5.6020  -20.6900 H   0  0  0  0  0  0  0  0  0  0  0  0
   -4.1070    6.0230  -18.4470 H   0  0  0  0  0  0  0  0  0  0  0  0
   -5.4850    5.8850  -16.4610 H   0  0  0  0  0  0  0  0  0  0  0  0
  1  2  2  0
  2  3  1  0
  3  4  1  0
  4  5  1  0
  5  6  1  0
  6  7  1  0
  7  8  1  0
  8  9  1  0
  2 10  1  0
 10 11  1  0
 11 12  2  0
 12 13  1  0
 13 14  2  0
 14 15  1  0
 15 16  2  0
 16 17  1  0
 17 18  2  0
 18 19  1  0
 19 20  2  0
  9  4  1  0
 20 11  1  0
 20 15  1  0
  3 21  1  0
  4 22  1  0
  5 23  1  0
  5 24  1  0
  6 25  1  0
  6 26  1  0
  7 27  1  0
  8 28  1  0
  8 29  1  0
  9 30  1  0
  9 31  1  0
 10 32  1  0
 12 33  1  0
 13 34  1  0
 14 35  1  0
 16 36  1  0
 17 37  1  0
 18 38  1  0
 19 39  1  0
A    1
 O1 
A    2
 C1 
A    3
 N1 
A    4
 C2 
A    5
 C3 
A    6
 C4 
A    7
 N2 
A    8
 C5 
A    9
 C6 
A   10
 N3 
A   11
 C7 
A   12
 C8 
A   13
 C9 
A   14
 C10
A   15
 C11
A   16
 C12
A   17
 C13
A   18
 C14
A   19
 C15
A   20
 C16
A   21
 H1 
A   22
 H2 
A   23
 H3 
A   24
 H4 
A   25
 H5 
A   26
 H6 
A   27
 H7 
A   28
 H8 
A   29
 H9 
A   30
 H10
A   31
 H11
A   32
 H12
A   33
 H13
A   34
 H14
A   35
 H15
A   36
 H16
A   37
 H17
A   38
 H18
A   39
 H19
M  END
>  <ref_pdb>  (233) 
x0051_0B

>  <ref_mols>  (233) 
x0429_0B,x0951_0B

>  <original SMILES>  (233) 
[H]c1c([H])c([H])c2c(N([H])C(=O)N([H])C3([H])C([H])([H])C([H])([H])N([H])C([H])([H])C3([H])[H])c([H])c([H])c([H])c2c1[H]

>  <index>  (233) 
2604

>  <∆∆G>  (233) 
-7.877404

>  <∆G_bound>  (233) 
-7.099449

>  <∆G_unbound>  (233) 
0.777956

>  <comRMSD>  (233) 
0.42971

>  <N_constrained_atoms>  (233) 
16.0

>  <N_unconstrained_atoms>  (233) 
6.0

>  <runtime>  (233) 
49.338001

>  <LE>  (233) 
0.358064

>  <percent_hybrid>  (233) 
45.0

>  <dist>  (233) 
7.0

>  <ecfp4>  (233) 
0.176471

>  <daylight>  (233) 
0.191617

>  <topodist>  (233) 
4.0

>  <mces>  (233) 
21.0

>  <tdn>  (233) 
2.0

>  <tup>  (233) 
0.0

>  <rdn>  (233) 
1.0

>  <rup>  (233) 
0.0

>  <ldn>  (233) 
0.0

>  <lup>  (233) 
1.0

>  <mut>  (233) 
2.0

>  <maj>  (233) 
2.0

>  <min>  (233) 
0.0

>  <hyb>  (233) 
1.0

>  <sub>  (233) 
2.0

>  <query_index>  (233) 
76.0

>  <max_hit_Tanimoto>  (233) 
0.309179

>  <largest_ring>  (233) 
6

>  <N_interactions_kept>  (233) 
0.0

>  <N_interactions_lost>  (233) 
3.0

>  <interaction_uniqueness_metric>  (233) 
0.04341

>  <ad_hoc_penalty>  (233) 
-6.282038

>  <N_rotatable_bonds>  (233) 
2

>  <N_HA>  (233) 
20

>  <cluster>  (233) 
3820

>  <N_interactions>  (233) 
4

>  <Enamine>  (233) 
1

>  <Mcule>  (233) 
0

>  <N_PAINS>  (233) 
0

>  <UFF_Gibbs>  (233) 
54.551213

>  <strain_per_HA>  (233) 
2.727561

>  <intxn_scored>  (233) 
9.5

>  <saltbridge:HIS:51>  (233) 
0

>  <pistack:HIS:51>  (233) 
0

>  <hydroph_interaction:HIS:51>  (233) 
0

>  <hbond:ALA:132>  (233) 
0

>  <hbond:SER:135>  (233) 
0

>  <hydroph_interaction:TYR:150>  (233) 
1

>  <pistack:TYR:161>  (233) 
2

>  <hydroph_interaction:TYR:161>  (233) 
1

>  <hydroph_interaction:ASP:83>  (233) 
0

>  <hbond:TYR:130>  (233) 
0

>  <hydroph_interaction:ALA:132>  (233) 
0

>  <hbond:HIS:51>  (233) 
0

>  <hbond:ASP:129>  (233) 
0

>  <hbond:TYR:150>  (233) 
0

>  <hbond:GLY:151>  (233) 
0

>  <hbond:TYR:161>  (233) 
0

>  <hydroph_interaction:TYR:130>  (233) 
0

>  <hydroph_interaction:PRO:131>  (233) 
0

>  <hydroph_interaction:ASP:129>  (233) 
0

>  <saltbridge:ASP:75>  (233) 
0

>  <saltbridge:ASP:83>  (233) 
0

>  <hbond:ASN:152>  (233) 
0

>  <hydroph_interaction:ASN:152>  (233) 
0

>  <halogenbond:TYR:150>  (233) 
0

>  <hbond:ASP:83>  (233) 
0

>  <hydroph_interaction:VAL:155>  (233) 
0

>  <pication:TYR:161>  (233) 
0

>  <hbond:PRO:131>  (233) 
0

>  <saltbridge:ASP:129>  (233) 
0

>  <hbond:THR:134>  (233) 
0

>  <pication:HIS:51>  (233) 
0

>  <hbond:SER:81>  (233) 
0

>  <hydroph_interaction:THR:134>  (233) 
0

>  <hydroph_interaction:MET:49>  (233) 
0

$$$$
CSSB00102622029
     RDKit          3D

 25 27  0  0  0  0  0  0  0  0999 V2000
  -10.6200    4.9530  -18.6030 C   0  0  0  0  0  0  0  0  0  0  0  0
   -9.2030    5.0790  -18.1620 C   0  0  0  0  0  0  0  0  0  0  0  0
   -8.2240    5.1320  -19.0100 N   0  0  0  0  0  0  0  0  0  0  0  0
   -7.0410    5.2930  -18.3420 C   0  0  0  0  0  0  0  0  0  0  0  0
   -5.6890    5.4010  -19.0070 C   0  0  0  0  0  0  0  0  0  0  0  0
   -5.6760    5.3380  -20.5110 C   0  0  0  0  0  0  0  0  0  0  0  0
   -4.5390    5.9410  -21.0250 C   0  0  0  0  0  0  0  0  0  0  0  0
   -3.1950    5.8240  -20.2870 C   0  0  0  0  0  0  0  0  0  0  0  0
   -3.1860    5.6380  -18.8770 C   0  0  0  0  0  0  0  0  0  0  0  0
   -4.5510    5.5500  -18.2360 C   0  0  0  0  0  0  0  0  0  0  0  0
   -4.7680    5.6110  -16.7280 C   0  0  0  0  0  0  0  0  0  0  0  0
   -6.0580    5.5120  -16.1720 C   0  0  0  0  0  0  0  0  0  0  0  0
   -7.1390    5.3570  -16.9500 C   0  0  0  0  0  0  0  0  0  0  0  0
   -8.7960    5.2060  -16.5040 S   0  0  0  0  0  0  0  0  0  0  0  0
  -10.9360    3.9340  -18.5640 H   0  0  0  0  0  0  0  0  0  0  0  0
  -10.6860    5.3300  -19.6270 H   0  0  0  0  0  0  0  0  0  0  0  0
  -11.2700    5.5780  -18.0130 H   0  0  0  0  0  0  0  0  0  0  0  0
   -5.7970    4.3260  -20.8830 H   0  0  0  0  0  0  0  0  0  0  0  0
   -6.5740    5.7790  -20.9320 H   0  0  0  0  0  0  0  0  0  0  0  0
   -4.6530    6.9980  -21.3020 H   0  0  0  0  0  0  0  0  0  0  0  0
   -4.3870    5.4480  -21.9940 H   0  0  0  0  0  0  0  0  0  0  0  0
   -2.2510    5.8900  -20.8380 H   0  0  0  0  0  0  0  0  0  0  0  0
   -2.2630    5.5540  -18.3010 H   0  0  0  0  0  0  0  0  0  0  0  0
   -3.8520    5.7340  -16.1370 H   0  0  0  0  0  0  0  0  0  0  0  0
   -6.2890    5.5470  -15.1030 H   0  0  0  0  0  0  0  0  0  0  0  0
  1  2  1  0
  2  3  2  0
  3  4  1  0
  4  5  2  0
  5  6  1  0
  6  7  1  0
  7  8  1  0
  8  9  2  0
  9 10  1  0
 10 11  2  0
 11 12  1  0
 12 13  2  0
 13 14  1  0
 14  2  1  0
 13  4  1  0
 10  5  1  0
  1 15  1  0
  1 16  1  0
  1 17  1  0
  6 18  1  0
  6 19  1  0
  7 20  1  0
  7 21  1  0
  8 22  1  0
  9 23  1  0
 11 24  1  0
 12 25  1  0
A    1
 C1 
A    2
 C2 
A    3
 N1 
A    4
 C3 
A    5
 C4 
A    6
 C5 
A    7
 C6 
A    8
 C7 
A    9
 C8 
A   10
 C9 
A   11
 C10
A   12
 C11
A   13
 C12
A   14
 S1 
A   15
 H1 
A   16
 H2 
A   17
 H3 
A   18
 H4 
A   19
 H5 
A   20
 H6 
A   21
 H7 
A   22
 H8 
A   23
 H9 
A   24
 H10
A   25
 H11
M  END
>  <ref_pdb>  (234) 
x0051_0B

>  <ref_mols>  (234) 
x0051_0B,x0101_0B

>  <original SMILES>  (234) 
[H]C1=C([H])C([H])([H])C([H])([H])c2c1c([H])c([H])c1sc(C([H])([H])[H])nc21

>  <index>  (234) 
2431

>  <∆∆G>  (234) 
-6.197552

>  <∆G_bound>  (234) 
-6.089492

>  <∆G_unbound>  (234) 
0.10806

>  <comRMSD>  (234) 
0.538375

>  <N_constrained_atoms>  (234) 
16.0

>  <N_unconstrained_atoms>  (234) 
0.0

>  <runtime>  (234) 
27.300338

>  <LE>  (234) 
0.387347

>  <percent_hybrid>  (234) 
43.0

>  <dist>  (234) 
7.0

>  <ecfp4>  (234) 
0.212121

>  <daylight>  (234) 
0.248175

>  <topodist>  (234) 
3.0

>  <mces>  (234) 
16.0

>  <tdn>  (234) 
3.0

>  <tup>  (234) 
0.0

>  <rdn>  (234) 
0.0

>  <rup>  (234) 
0.0

>  <ldn>  (234) 
0.0

>  <lup>  (234) 
0.0

>  <mut>  (234) 
3.0

>  <maj>  (234) 
3.0

>  <min>  (234) 
0.0

>  <hyb>  (234) 
1.0

>  <sub>  (234) 
1.0

>  <query_index>  (234) 
294.0

>  <max_hit_Tanimoto>  (234) 
0.318087

>  <largest_ring>  (234) 
6

>  <N_interactions_kept>  (234) 
2.0

>  <N_interactions_lost>  (234) 
3.0

>  <interaction_uniqueness_metric>  (234) 
0.04341

>  <ad_hoc_penalty>  (234) 
-6.553229

>  <N_rotatable_bonds>  (234) 
1

>  <N_HA>  (234) 
14

>  <cluster>  (234) 
3981

>  <N_interactions>  (234) 
4

>  <Enamine>  (234) 
1

>  <Mcule>  (234) 
0

>  <N_PAINS>  (234) 
0

>  <UFF_Gibbs>  (234) 
47.960085

>  <strain_per_HA>  (234) 
3.42572

>  <intxn_scored>  (234) 
9.5

>  <saltbridge:HIS:51>  (234) 
0

>  <pistack:HIS:51>  (234) 
0

>  <hydroph_interaction:HIS:51>  (234) 
0

>  <hbond:ALA:132>  (234) 
0

>  <hbond:SER:135>  (234) 
0

>  <hydroph_interaction:TYR:150>  (234) 
1

>  <pistack:TYR:161>  (234) 
2

>  <hydroph_interaction:TYR:161>  (234) 
1

>  <hydroph_interaction:ASP:83>  (234) 
0

>  <hbond:TYR:130>  (234) 
0

>  <hydroph_interaction:ALA:132>  (234) 
0

>  <hbond:HIS:51>  (234) 
0

>  <hbond:ASP:129>  (234) 
0

>  <hbond:TYR:150>  (234) 
0

>  <hbond:GLY:151>  (234) 
0

>  <hbond:TYR:161>  (234) 
0

>  <hydroph_interaction:TYR:130>  (234) 
0

>  <hydroph_interaction:PRO:131>  (234) 
0

>  <hydroph_interaction:ASP:129>  (234) 
0

>  <saltbridge:ASP:75>  (234) 
0

>  <saltbridge:ASP:83>  (234) 
0

>  <hbond:ASN:152>  (234) 
0

>  <hydroph_interaction:ASN:152>  (234) 
0

>  <halogenbond:TYR:150>  (234) 
0

>  <hbond:ASP:83>  (234) 
0

>  <hydroph_interaction:VAL:155>  (234) 
0

>  <pication:TYR:161>  (234) 
0

>  <hbond:PRO:131>  (234) 
0

>  <saltbridge:ASP:129>  (234) 
0

>  <hbond:THR:134>  (234) 
0

>  <pication:HIS:51>  (234) 
0

>  <hbond:SER:81>  (234) 
0

>  <hydroph_interaction:THR:134>  (234) 
0

>  <hydroph_interaction:MET:49>  (234) 
0

$$$$
CSSS00000183674
     RDKit          3D

 23 25  0  0  0  0  0  0  0  0999 V2000
  -10.6360    4.9560  -18.6130 C   0  0  0  0  0  0  0  0  0  0  0  0
   -9.2680    5.0760  -18.0530 C   0  0  0  0  0  0  0  0  0  0  0  0
   -8.2440    5.1440  -18.9190 N   0  0  0  0  0  0  0  0  0  0  0  0
   -7.0690    5.2970  -18.2840 C   0  0  0  0  0  0  0  0  0  0  0  0
   -7.1350    5.3440  -16.9540 C   0  0  0  0  0  0  0  0  0  0  0  0
   -8.7910    5.1860  -16.4140 S   0  0  0  0  0  0  0  0  0  0  0  0
   -5.9390    5.5030  -16.2530 C   0  0  0  0  0  0  0  0  0  0  0  0
   -4.6750    5.6150  -16.7660 C   0  0  0  0  0  0  0  0  0  0  0  0
   -4.6190    5.5590  -18.2000 C   0  0  0  0  0  0  0  0  0  0  0  0
   -5.8080    5.4060  -18.9260 C   0  0  0  0  0  0  0  0  0  0  0  0
   -5.8020    5.3530  -20.3230 C   0  0  0  0  0  0  0  0  0  0  0  0
   -4.5260    5.4540  -21.0750 C   0  0  0  0  0  0  0  0  0  0  0  0
   -3.2560    5.6120  -20.2660 C   0  0  0  0  0  0  0  0  0  0  0  0
   -3.3870    5.6560  -18.8670 C   0  0  0  0  0  0  0  0  0  0  0  0
  -10.9650    3.9410  -18.5640 H   0  0  0  0  0  0  0  0  0  0  0  0
  -11.3070    5.5830  -18.0530 H   0  0  0  0  0  0  0  0  0  0  0  0
  -10.6470    5.2900  -19.6520 H   0  0  0  0  0  0  0  0  0  0  0  0
   -6.0260    5.5390  -15.1630 H   0  0  0  0  0  0  0  0  0  0  0  0
   -3.7980    5.7350  -16.1280 H   0  0  0  0  0  0  0  0  0  0  0  0
   -6.7360    5.2350  -20.8670 H   0  0  0  0  0  0  0  0  0  0  0  0
   -4.5080    5.4130  -22.1630 H   0  0  0  0  0  0  0  0  0  0  0  0
   -2.2840    5.6900  -20.7450 H   0  0  0  0  0  0  0  0  0  0  0  0
   -2.4760    5.7730  -18.2810 H   0  0  0  0  0  0  0  0  0  0  0  0
  1  2  1  0
  2  3  2  0
  3  4  1  0
  4  5  2  0
  5  6  1  0
  5  7  1  0
  7  8  2  0
  8  9  1  0
  9 10  2  0
 10 11  1  0
 11 12  2  0
 12 13  1  0
 13 14  2  0
  6  2  1  0
 10  4  1  0
 14  9  1  0
  1 15  1  0
  1 16  1  0
  1 17  1  0
  7 18  1  0
  8 19  1  0
 11 20  1  0
 12 21  1  0
 13 22  1  0
 14 23  1  0
A    1
 C1 
A    2
 C2 
A    3
 N1 
A    4
 C3 
A    5
 C4 
A    6
 S1 
A    7
 C5 
A    8
 C6 
A    9
 C7 
A   10
 C8 
A   11
 C9 
A   12
 C10
A   13
 C11
A   14
 C12
A   15
 H1 
A   16
 H2 
A   17
 H3 
A   18
 H4 
A   19
 H5 
A   20
 H6 
A   21
 H7 
A   22
 H8 
A   23
 H9 
M  END
>  <ref_pdb>  (235) 
x0051_0B

>  <ref_mols>  (235) 
x0051_0B,x0101_0B

>  <original SMILES>  (235) 
[H]c1c([H])c([H])c2c(c1[H])c([H])c([H])c1sc(C([H])([H])[H])nc12

>  <index>  (235) 
1998

>  <∆∆G>  (235) 
-6.997809

>  <∆G_bound>  (235) 
-7.056401

>  <∆G_unbound>  (235) 
-0.058592

>  <comRMSD>  (235) 
0.495228

>  <N_constrained_atoms>  (235) 
15.0

>  <N_unconstrained_atoms>  (235) 
0.0

>  <runtime>  (235) 
28.147411

>  <LE>  (235) 
0.466521

>  <percent_hybrid>  (235) 
50.0

>  <dist>  (235) 
8.0

>  <ecfp4>  (235) 
0.216667

>  <daylight>  (235) 
0.282828

>  <topodist>  (235) 
3.0

>  <mces>  (235) 
16.0

>  <tdn>  (235) 
3.0

>  <tup>  (235) 
0.0

>  <rdn>  (235) 
0.0

>  <rup>  (235) 
0.0

>  <ldn>  (235) 
0.0

>  <lup>  (235) 
0.0

>  <mut>  (235) 
3.0

>  <maj>  (235) 
3.0

>  <min>  (235) 
0.0

>  <hyb>  (235) 
2.0

>  <sub>  (235) 
0.0

>  <query_index>  (235) 
294.0

>  <max_hit_Tanimoto>  (235) 
0.395455

>  <largest_ring>  (235) 
6

>  <N_interactions_kept>  (235) 
2.0

>  <N_interactions_lost>  (235) 
3.0

>  <interaction_uniqueness_metric>  (235) 
0.04341

>  <ad_hoc_penalty>  (235) 
-10.095296

>  <N_rotatable_bonds>  (235) 
1

>  <N_HA>  (235) 
14

>  <cluster>  (235) 
4387

>  <N_interactions>  (235) 
4

>  <Enamine>  (235) 
1

>  <Mcule>  (235) 
0

>  <N_PAINS>  (235) 
0

>  <UFF_Gibbs>  (235) 
30.26511

>  <strain_per_HA>  (235) 
2.161794

>  <intxn_scored>  (235) 
9.5

>  <saltbridge:HIS:51>  (235) 
0

>  <pistack:HIS:51>  (235) 
0

>  <hydroph_interaction:HIS:51>  (235) 
0

>  <hbond:ALA:132>  (235) 
0

>  <hbond:SER:135>  (235) 
0

>  <hydroph_interaction:TYR:150>  (235) 
1

>  <pistack:TYR:161>  (235) 
2

>  <hydroph_interaction:TYR:161>  (235) 
1

>  <hydroph_interaction:ASP:83>  (235) 
0

>  <hbond:TYR:130>  (235) 
0

>  <hydroph_interaction:ALA:132>  (235) 
0

>  <hbond:HIS:51>  (235) 
0

>  <hbond:ASP:129>  (235) 
0

>  <hbond:TYR:150>  (235) 
0

>  <hbond:GLY:151>  (235) 
0

>  <hbond:TYR:161>  (235) 
0

>  <hydroph_interaction:TYR:130>  (235) 
0

>  <hydroph_interaction:PRO:131>  (235) 
0

>  <hydroph_interaction:ASP:129>  (235) 
0

>  <saltbridge:ASP:75>  (235) 
0

>  <saltbridge:ASP:83>  (235) 
0

>  <hbond:ASN:152>  (235) 
0

>  <hydroph_interaction:ASN:152>  (235) 
0

>  <halogenbond:TYR:150>  (235) 
0

>  <hbond:ASP:83>  (235) 
0

>  <hydroph_interaction:VAL:155>  (235) 
0

>  <pication:TYR:161>  (235) 
0

>  <hbond:PRO:131>  (235) 
0

>  <saltbridge:ASP:129>  (235) 
0

>  <hbond:THR:134>  (235) 
0

>  <pication:HIS:51>  (235) 
0

>  <hbond:SER:81>  (235) 
0

>  <hydroph_interaction:THR:134>  (235) 
0

>  <hydroph_interaction:MET:49>  (235) 
0

$$$$
CSSS00000246533
     RDKit          3D

 26 27  0  0  0  0  0  0  0  0999 V2000
   -5.8600    5.1310  -15.0270 C   0  0  0  0  0  0  0  0  0  0  0  0
   -7.1160    5.7800  -15.1830 O   0  0  0  0  0  0  0  0  0  0  0  0
   -7.8180    5.4560  -16.3170 C   0  0  0  0  0  0  0  0  0  0  0  0
   -7.0920    5.4480  -17.6510 C   0  0  0  0  0  0  0  0  0  0  0  0
   -5.9290    5.6910  -17.9220 O   0  0  0  0  0  0  0  0  0  0  0  0
   -5.7880    5.5390  -19.2920 C   0  0  0  0  0  0  0  0  0  0  0  0
   -6.9950    5.1610  -19.9100 C   0  0  0  0  0  0  0  0  0  0  0  0
   -7.8820    5.0910  -18.8670 C   0  0  0  0  0  0  0  0  0  0  0  0
   -9.2120    4.7710  -18.8580 C   0  0  0  0  0  0  0  0  0  0  0  0
   -9.8520    4.7870  -17.6280 C   0  0  0  0  0  0  0  0  0  0  0  0
   -9.1910    5.1120  -16.4060 C   0  0  0  0  0  0  0  0  0  0  0  0
   -4.4190    5.8020  -19.7940 C   0  0  0  0  0  0  0  0  0  0  0  0
   -3.4600    5.2840  -18.9410 C   0  0  0  0  0  0  0  0  0  0  0  0
   -4.2880    5.2150  -21.0860 O   0  0  0  0  0  0  0  0  0  0  0  0
   -5.9910    4.2900  -14.3350 H   0  0  0  0  0  0  0  0  0  0  0  0
   -5.4740    4.7520  -15.9780 H   0  0  0  0  0  0  0  0  0  0  0  0
   -5.0970    5.8050  -14.6280 H   0  0  0  0  0  0  0  0  0  0  0  0
   -7.1700    4.9730  -20.9600 H   0  0  0  0  0  0  0  0  0  0  0  0
   -9.7370    4.5210  -19.7710 H   0  0  0  0  0  0  0  0  0  0  0  0
  -10.9070    4.5390  -17.6050 H   0  0  0  0  0  0  0  0  0  0  0  0
   -9.8030    5.0860  -15.5050 H   0  0  0  0  0  0  0  0  0  0  0  0
   -4.2650    6.8810  -19.9090 H   0  0  0  0  0  0  0  0  0  0  0  0
   -3.9050    4.6130  -18.2010 H   0  0  0  0  0  0  0  0  0  0  0  0
   -2.7040    4.7290  -19.5080 H   0  0  0  0  0  0  0  0  0  0  0  0
   -2.9250    6.0760  -18.4050 H   0  0  0  0  0  0  0  0  0  0  0  0
   -5.0770    4.6510  -21.2110 H   0  0  0  0  0  0  0  0  0  0  0  0
  1  2  1  0
  2  3  1  0
  3  4  2  0
  4  5  1  0
  5  6  1  0
  6  7  2  0
  7  8  1  0
  8  9  2  0
  9 10  1  0
 10 11  2  0
  6 12  1  0
 12 13  1  0
 12 14  1  0
 11  3  1  0
  8  4  1  0
  1 15  1  0
  1 16  1  0
  1 17  1  0
  7 18  1  0
  9 19  1  0
 10 20  1  0
 11 21  1  0
 12 22  1  0
 13 23  1  0
 13 24  1  0
 13 25  1  0
 14 26  1  0
A    1
 C1 
A    2
 O1 
A    3
 C2 
A    4
 C3 
A    5
 O2 
A    6
 C4 
A    7
 C5 
A    8
 C6 
A    9
 C7 
A   10
 C8 
A   11
 C9 
A   12
 C10
A   13
 C11
A   14
 O3 
A   15
 H1 
A   16
 H2 
A   17
 H3 
A   18
 H4 
A   19
 H5 
A   20
 H6 
A   21
 H7 
A   22
 H8 
A   23
 H9 
A   24
 H10
A   25
 H11
A   26
 H12
M  END
>  <ref_pdb>  (236) 
x0051_0B

>  <ref_mols>  (236) 
x0089_0B,x0693_0B

>  <original SMILES>  (236) 
[H]OC([H])(c1oc2c(OC([H])([H])[H])c([H])c([H])c([H])c2c1[H])C([H])([H])[H]

>  <index>  (236) 
2071

>  <∆∆G>  (236) 
-7.752765

>  <∆G_bound>  (236) 
-7.784503

>  <∆G_unbound>  (236) 
-0.031738

>  <comRMSD>  (236) 
0.616833

>  <N_constrained_atoms>  (236) 
16.0

>  <N_unconstrained_atoms>  (236) 
2.0

>  <runtime>  (236) 
28.470733

>  <LE>  (236) 
0.430709

>  <percent_hybrid>  (236) 
34.0

>  <dist>  (236) 
5.0

>  <ecfp4>  (236) 
0.288136

>  <daylight>  (236) 
0.179641

>  <topodist>  (236) 
3.0

>  <mces>  (236) 
15.0

>  <tdn>  (236) 
3.0

>  <tup>  (236) 
0.0

>  <rdn>  (236) 
0.0

>  <rup>  (236) 
0.0

>  <ldn>  (236) 
0.0

>  <lup>  (236) 
0.0

>  <mut>  (236) 
2.0

>  <maj>  (236) 
2.0

>  <min>  (236) 
0.0

>  <hyb>  (236) 
0.0

>  <sub>  (236) 
1.0

>  <query_index>  (236) 
207.0

>  <max_hit_Tanimoto>  (236) 
0.128405

>  <largest_ring>  (236) 
6

>  <N_interactions_kept>  (236) 
2.5

>  <N_interactions_lost>  (236) 
2.5

>  <interaction_uniqueness_metric>  (236) 
0.082484

>  <ad_hoc_penalty>  (236) 
-6.941699

>  <N_rotatable_bonds>  (236) 
5

>  <N_HA>  (236) 
14

>  <cluster>  (236) 
4320

>  <N_interactions>  (236) 
5

>  <Enamine>  (236) 
1

>  <Mcule>  (236) 
0

>  <N_PAINS>  (236) 
0

>  <UFF_Gibbs>  (236) 
74.125404

>  <strain_per_HA>  (236) 
5.294672

>  <intxn_scored>  (236) 
9.5

>  <saltbridge:HIS:51>  (236) 
0

>  <pistack:HIS:51>  (236) 
0

>  <hydroph_interaction:HIS:51>  (236) 
0

>  <hbond:ALA:132>  (236) 
0

>  <hbond:SER:135>  (236) 
0

>  <hydroph_interaction:TYR:150>  (236) 
1

>  <pistack:TYR:161>  (236) 
2

>  <hydroph_interaction:TYR:161>  (236) 
1

>  <hydroph_interaction:ASP:83>  (236) 
0

>  <hbond:TYR:130>  (236) 
0

>  <hydroph_interaction:ALA:132>  (236) 
0

>  <hbond:HIS:51>  (236) 
0

>  <hbond:ASP:129>  (236) 
1

>  <hbond:TYR:150>  (236) 
0

>  <hbond:GLY:151>  (236) 
0

>  <hbond:TYR:161>  (236) 
0

>  <hydroph_interaction:TYR:130>  (236) 
0

>  <hydroph_interaction:PRO:131>  (236) 
0

>  <hydroph_interaction:ASP:129>  (236) 
0

>  <saltbridge:ASP:75>  (236) 
0

>  <saltbridge:ASP:83>  (236) 
0

>  <hbond:ASN:152>  (236) 
0

>  <hydroph_interaction:ASN:152>  (236) 
0

>  <halogenbond:TYR:150>  (236) 
0

>  <hbond:ASP:83>  (236) 
0

>  <hydroph_interaction:VAL:155>  (236) 
0

>  <pication:TYR:161>  (236) 
0

>  <hbond:PRO:131>  (236) 
0

>  <saltbridge:ASP:129>  (236) 
0

>  <hbond:THR:134>  (236) 
0

>  <pication:HIS:51>  (236) 
0

>  <hbond:SER:81>  (236) 
0

>  <hydroph_interaction:THR:134>  (236) 
0

>  <hydroph_interaction:MET:49>  (236) 
0

$$$$
CSSB00000035646
     RDKit          3D

 26 27  0  0  0  0  0  0  0  0999 V2000
   -9.1790    5.0700  -14.1290 C   0  0  0  0  0  0  0  0  0  0  0  0
   -8.5700    5.1050  -15.5020 C   0  0  0  0  0  0  0  0  0  0  0  0
   -7.0710    5.2710  -15.6830 C   0  0  0  0  0  0  0  0  0  0  0  0
   -6.5290    5.3040  -17.1130 C   0  0  0  0  0  0  0  0  0  0  0  0
   -5.1420    5.4450  -17.3940 C   0  0  0  0  0  0  0  0  0  0  0  0
   -4.1980    5.5460  -16.3920 C   0  0  0  0  0  0  0  0  0  0  0  0
   -4.7090    5.4800  -18.7140 C   0  0  0  0  0  0  0  0  0  0  0  0
   -5.7780    5.3570  -19.7870 C   0  0  0  0  0  0  0  0  0  0  0  0
   -7.0690    5.2160  -19.4890 N   0  0  0  0  0  0  0  0  0  0  0  0
   -7.4360    5.1860  -18.1950 C   0  0  0  0  0  0  0  0  0  0  0  0
   -8.8770    5.0110  -17.9080 C   0  0  0  0  0  0  0  0  0  0  0  0
   -9.8180    4.8610  -19.0610 C   0  0  0  0  0  0  0  0  0  0  0  0
   -9.3840    4.9790  -16.6120 C   0  0  0  0  0  0  0  0  0  0  0  0
   -8.7230    4.2650  -13.5450 H   0  0  0  0  0  0  0  0  0  0  0  0
   -9.0050    6.0140  -13.6080 H   0  0  0  0  0  0  0  0  0  0  0  0
  -10.2520    4.8750  -14.1950 H   0  0  0  0  0  0  0  0  0  0  0  0
   -6.4220    5.3630  -14.8170 H   0  0  0  0  0  0  0  0  0  0  0  0
   -3.9900    6.5970  -16.1710 H   0  0  0  0  0  0  0  0  0  0  0  0
   -4.5440    5.0730  -15.4670 H   0  0  0  0  0  0  0  0  0  0  0  0
   -3.2780    5.0360  -16.6920 H   0  0  0  0  0  0  0  0  0  0  0  0
   -3.6620    5.5880  -18.9840 H   0  0  0  0  0  0  0  0  0  0  0  0
   -5.5360    5.3740  -20.8470 H   0  0  0  0  0  0  0  0  0  0  0  0
  -10.8570    4.8730  -18.7150 H   0  0  0  0  0  0  0  0  0  0  0  0
   -9.7050    5.6520  -19.8080 H   0  0  0  0  0  0  0  0  0  0  0  0
   -9.5970    3.9190  -19.5630 H   0  0  0  0  0  0  0  0  0  0  0  0
  -10.4420    4.8490  -16.4700 H   0  0  0  0  0  0  0  0  0  0  0  0
  1  2  1  0
  2  3  2  0
  3  4  1  0
  4  5  2  0
  5  6  1  0
  5  7  1  0
  7  8  2  0
  8  9  1  0
  9 10  2  0
 10 11  1  0
 11 12  1  0
 11 13  2  0
 13  2  1  0
 10  4  1  0
  1 14  1  0
  1 15  1  0
  1 16  1  0
  3 17  1  0
  6 18  1  0
  6 19  1  0
  6 20  1  0
  7 21  1  0
  8 22  1  0
 12 23  1  0
 12 24  1  0
 12 25  1  0
 13 26  1  0
A    1
 C1 
A    2
 C2 
A    3
 C3 
A    4
 C4 
A    5
 C5 
A    6
 C6 
A    7
 C7 
A    8
 C8 
A    9
 N1 
A   10
 C9 
A   11
 C10
A   12
 C11
A   13
 C12
A   14
 H1 
A   15
 H2 
A   16
 H3 
A   17
 H4 
A   18
 H5 
A   19
 H6 
A   20
 H7 
A   21
 H8 
A   22
 H9 
A   23
 H10
A   24
 H11
A   25
 H12
A   26
 H13
M  END
>  <ref_pdb>  (237) 
x0051_0B

>  <ref_mols>  (237) 
x0425_0B,x0435_0B

>  <original SMILES>  (237) 
[H]c1nc2c(C([H])([H])[H])c([H])c(C([H])([H])[H])c([H])c2c(C([H])([H])[H])c1[H]

>  <index>  (237) 
1889

>  <∆∆G>  (237) 
-8.097197

>  <∆G_bound>  (237) 
-8.480809

>  <∆G_unbound>  (237) 
-0.383612

>  <comRMSD>  (237) 
0.670167

>  <N_constrained_atoms>  (237) 
13.0

>  <N_unconstrained_atoms>  (237) 
2.0

>  <runtime>  (237) 
17.673423

>  <LE>  (237) 
0.539813

>  <percent_hybrid>  (237) 
40.0

>  <dist>  (237) 
2.0

>  <ecfp4>  (237) 
0.410256

>  <daylight>  (237) 
0.75

>  <topodist>  (237) 
2.0

>  <mces>  (237) 
13.0

>  <tdn>  (237) 
1.0

>  <tup>  (237) 
1.0

>  <rdn>  (237) 
0.0

>  <rup>  (237) 
0.0

>  <ldn>  (237) 
0.0

>  <lup>  (237) 
0.0

>  <mut>  (237) 
0.0

>  <maj>  (237) 
0.0

>  <min>  (237) 
0.0

>  <hyb>  (237) 
0.0

>  <sub>  (237) 
2.0

>  <query_index>  (237) 
107.0

>  <max_hit_Tanimoto>  (237) 
0.160149

>  <largest_ring>  (237) 
6

>  <N_interactions_kept>  (237) 
1.0

>  <N_interactions_lost>  (237) 
2.5

>  <interaction_uniqueness_metric>  (237) 
0.04341

>  <ad_hoc_penalty>  (237) 
-9.796229

>  <N_rotatable_bonds>  (237) 
3

>  <N_HA>  (237) 
13

>  <cluster>  (237) 
4486

>  <N_interactions>  (237) 
4

>  <Enamine>  (237) 
1

>  <Mcule>  (237) 
0

>  <N_PAINS>  (237) 
0

>  <UFF_Gibbs>  (237) 
40.608334

>  <strain_per_HA>  (237) 
3.123718

>  <intxn_scored>  (237) 
9.5

>  <saltbridge:HIS:51>  (237) 
0

>  <pistack:HIS:51>  (237) 
0

>  <hydroph_interaction:HIS:51>  (237) 
0

>  <hbond:ALA:132>  (237) 
0

>  <hbond:SER:135>  (237) 
0

>  <hydroph_interaction:TYR:150>  (237) 
1

>  <pistack:TYR:161>  (237) 
2

>  <hydroph_interaction:TYR:161>  (237) 
1

>  <hydroph_interaction:ASP:83>  (237) 
0

>  <hbond:TYR:130>  (237) 
0

>  <hydroph_interaction:ALA:132>  (237) 
0

>  <hbond:HIS:51>  (237) 
0

>  <hbond:ASP:129>  (237) 
0

>  <hbond:TYR:150>  (237) 
0

>  <hbond:GLY:151>  (237) 
0

>  <hbond:TYR:161>  (237) 
0

>  <hydroph_interaction:TYR:130>  (237) 
0

>  <hydroph_interaction:PRO:131>  (237) 
0

>  <hydroph_interaction:ASP:129>  (237) 
0

>  <saltbridge:ASP:75>  (237) 
0

>  <saltbridge:ASP:83>  (237) 
0

>  <hbond:ASN:152>  (237) 
0

>  <hydroph_interaction:ASN:152>  (237) 
0

>  <halogenbond:TYR:150>  (237) 
0

>  <hbond:ASP:83>  (237) 
0

>  <hydroph_interaction:VAL:155>  (237) 
0

>  <pication:TYR:161>  (237) 
0

>  <hbond:PRO:131>  (237) 
0

>  <saltbridge:ASP:129>  (237) 
0

>  <hbond:THR:134>  (237) 
0

>  <pication:HIS:51>  (237) 
0

>  <hbond:SER:81>  (237) 
0

>  <hydroph_interaction:THR:134>  (237) 
0

>  <hydroph_interaction:MET:49>  (237) 
0

$$$$
PV-004288834789
     RDKit          3D

 48 52  0  0  0  0  0  0  0  0999 V2000
   -3.7600    8.5880  -26.2920 O   0  0  0  0  0  0  0  0  0  0  0  0
   -4.6980    8.3900  -25.5230 C   0  0  0  0  0  0  0  0  0  0  0  0
   -5.2140    7.0370  -25.2600 C   0  0  0  0  0  0  0  0  0  0  0  0
   -6.3800    7.0970  -24.4750 C   0  0  0  0  0  0  0  0  0  0  0  0
   -6.0600    7.7780  -23.2320 N   0  0  0  0  0  0  0  0  0  0  0  0
   -5.6390    6.8800  -22.0600 C   0  0  0  0  0  0  0  0  0  0  0  0
   -6.1210    7.4000  -20.8300 C   0  0  0  0  0  0  0  0  0  0  0  0
   -6.1990    6.6010  -19.5290 N   0  0  0  0  0  0  0  0  0  0  0  0
   -5.1020    6.5690  -18.6790 N   0  0  0  0  0  0  0  0  0  0  0  0
   -5.4030    5.8980  -17.5420 N   0  0  0  0  0  0  0  0  0  0  0  0
   -6.6960    5.4520  -17.5810 C   0  0  0  0  0  0  0  0  0  0  0  0
   -7.5070    4.7680  -16.6680 C   0  0  0  0  0  0  0  0  0  0  0  0
   -8.9040    4.4410  -17.0710 C   0  0  0  0  0  0  0  0  0  0  0  0
   -9.3950    4.7680  -18.3090 C   0  0  0  0  0  0  0  0  0  0  0  0
   -8.5410    5.4530  -19.1670 C   0  0  0  0  0  0  0  0  0  0  0  0
   -7.2490    5.7930  -18.7890 C   0  0  0  0  0  0  0  0  0  0  0  0
   -5.6700    9.1130  -23.4450 C   0  0  0  0  0  0  0  0  0  0  0  0
   -5.5830    9.9500  -22.5400 O   0  0  0  0  0  0  0  0  0  0  0  0
   -5.3720    9.3600  -24.8090 N   0  0  0  0  0  0  0  0  0  0  0  0
   -6.1550   10.2820  -25.6500 C   0  0  0  0  0  0  0  0  0  0  0  0
   -7.2610    9.5570  -26.4520 C   0  0  0  0  0  0  0  0  0  0  0  0
   -7.3320    8.2880  -26.8300 N   0  0  0  0  0  0  0  0  0  0  0  0
   -8.5490    8.1560  -27.4710 C   0  0  0  0  0  0  0  0  0  0  0  0
   -9.2040    6.9330  -28.0940 C   0  0  0  0  0  0  0  0  0  0  0  0
  -10.5500    7.1750  -28.6780 C   0  0  0  0  0  0  0  0  0  0  0  0
  -11.1590    8.4410  -28.6560 C   0  0  0  0  0  0  0  0  0  0  0  0
  -10.4910    9.5170  -28.0770 C   0  0  0  0  0  0  0  0  0  0  0  0
   -9.2240    9.3590  -27.5040 C   0  0  0  0  0  0  0  0  0  0  0  0
   -8.3840   10.2340  -26.8720 N   0  0  0  0  0  0  0  0  0  0  0  0
   -5.4130    6.5600  -26.2260 H   0  0  0  0  0  0  0  0  0  0  0  0
   -4.4360    6.4550  -24.7500 H   0  0  0  0  0  0  0  0  0  0  0  0
   -6.6740    6.0990  -24.2080 H   0  0  0  0  0  0  0  0  0  0  0  0
   -7.2410    7.5970  -24.8980 H   0  0  0  0  0  0  0  0  0  0  0  0
   -5.9770    5.8810  -22.3210 H   0  0  0  0  0  0  0  0  0  0  0  0
   -4.5580    6.8000  -22.1280 H   0  0  0  0  0  0  0  0  0  0  0  0
   -7.1180    7.8080  -20.8900 H   0  0  0  0  0  0  0  0  0  0  0  0
   -5.5650    8.2700  -20.4940 H   0  0  0  0  0  0  0  0  0  0  0  0
   -7.0970    4.5030  -15.6980 H   0  0  0  0  0  0  0  0  0  0  0  0
   -9.6260    3.9410  -16.4660 H   0  0  0  0  0  0  0  0  0  0  0  0
  -10.4120    4.5160  -18.6050 H   0  0  0  0  0  0  0  0  0  0  0  0
   -8.9100    5.7310  -20.1220 H   0  0  0  0  0  0  0  0  0  0  0  0
   -5.5090   10.8360  -26.3390 H   0  0  0  0  0  0  0  0  0  0  0  0
   -6.6300   11.0300  -25.0040 H   0  0  0  0  0  0  0  0  0  0  0  0
   -8.7180    5.9630  -28.1000 H   0  0  0  0  0  0  0  0  0  0  0  0
  -11.0740    6.3420  -29.1340 H   0  0  0  0  0  0  0  0  0  0  0  0
  -12.1520    8.5840  -29.0940 H   0  0  0  0  0  0  0  0  0  0  0  0
  -10.9740   10.4910  -28.0700 H   0  0  0  0  0  0  0  0  0  0  0  0
   -8.5680   11.2160  -26.7200 H   0  0  0  0  0  0  0  0  0  0  0  0
  1  2  2  0
  2  3  1  0
  3  4  1  0
  4  5  1  0
  5  6  1  0
  6  7  1  0
  7  8  1  0
  8  9  1  0
  9 10  2  0
 10 11  1  0
 11 12  2  0
 12 13  1  0
 13 14  2  0
 14 15  1  0
 15 16  2  0
  5 17  1  0
 17 18  2  0
 17 19  1  0
 19 20  1  0
 20 21  1  0
 21 22  2  0
 22 23  1  0
 23 24  2  0
 24 25  1  0
 25 26  2  0
 26 27  1  0
 27 28  2  0
 28 29  1  0
 19  2  1  0
 16  8  1  0
 16 11  1  0
 29 21  1  0
 28 23  1  0
  3 30  1  0
  3 31  1  0
  4 32  1  0
  4 33  1  0
  6 34  1  0
  6 35  1  0
  7 36  1  0
  7 37  1  0
 12 38  1  0
 13 39  1  0
 14 40  1  0
 15 41  1  0
 20 42  1  0
 20 43  1  0
 24 44  1  0
 25 45  1  0
 26 46  1  0
 27 47  1  0
 29 48  1  0
A    1
 O1 
A    2
 C1 
A    3
 C2 
A    4
 C3 
A    5
 N1 
A    6
 C4 
A    7
 C5 
A    8
 N2 
A    9
 N3 
A   10
 N4 
A   11
 C6 
A   12
 C7 
A   13
 C8 
A   14
 C9 
A   15
 C10
A   16
 C11
A   17
 C12
A   18
 O2 
A   19
 N5 
A   20
 C13
A   21
 C14
A   22
 N6 
A   23
 C15
A   24
 C16
A   25
 C17
A   26
 C18
A   27
 C19
A   28
 C20
A   29
 N7 
A   30
 H1 
A   31
 H2 
A   32
 H3 
A   33
 H4 
A   34
 H5 
A   35
 H6 
A   36
 H7 
A   37
 H8 
A   38
 H9 
A   39
 H10
A   40
 H11
A   41
 H12
A   42
 H13
A   43
 H14
A   44
 H15
A   45
 H16
A   46
 H17
A   47
 H18
A   48
 H19
M  END
>  <ref_pdb>  (238) 
x0051_0B

>  <ref_mols>  (238) 
x0435_0B,x0846_1B

>  <original SMILES>  (238) 
[H]c1c([H])c([H])c2c(nnn2C([H])([H])C([H])([H])N2C(=O)N(C([H])([H])c3nc4c([H])c([H])c([H])c([H])c4n3[H])C(=O)C([H])([H])C2([H])[H])c1[H]

>  <index>  (238) 
841

>  <∆∆G>  (238) 
-6.39677

>  <∆G_bound>  (238) 
-4.710813

>  <∆G_unbound>  (238) 
1.685957

>  <comRMSD>  (238) 
0.984011

>  <N_constrained_atoms>  (238) 
27.0

>  <N_unconstrained_atoms>  (238) 
3.0

>  <runtime>  (238) 
44.073307

>  <LE>  (238) 
0.213226

>  <percent_hybrid>  (238) 
34.0

>  <dist>  (238) 
10.0

>  <ecfp4>  (238) 
0.195652

>  <daylight>  (238) 
0.227273

>  <topodist>  (238) 
3.0

>  <mces>  (238) 
32.0

>  <tdn>  (238) 
0.0

>  <tup>  (238) 
1.0

>  <rdn>  (238) 
0.0

>  <rup>  (238) 
0.0

>  <ldn>  (238) 
2.0

>  <lup>  (238) 
0.0

>  <mut>  (238) 
4.0

>  <maj>  (238) 
4.0

>  <min>  (238) 
0.0

>  <hyb>  (238) 
3.0

>  <sub>  (238) 
1.0

>  <query_index>  (238) 
36.0

>  <max_hit_Tanimoto>  (238) 
0.24783

>  <largest_ring>  (238) 
6

>  <N_interactions_kept>  (238) 
1.0

>  <N_interactions_lost>  (238) 
2.0

>  <interaction_uniqueness_metric>  (238) 
0.175892

>  <ad_hoc_penalty>  (238) 
-16.319459

>  <N_rotatable_bonds>  (238) 
5

>  <N_HA>  (238) 
29

>  <cluster>  (238) 
5449

>  <N_interactions>  (238) 
6

>  <Enamine>  (238) 
1

>  <Mcule>  (238) 
0

>  <N_PAINS>  (238) 
0

>  <UFF_Gibbs>  (238) 
160.559305

>  <strain_per_HA>  (238) 
5.536528

>  <intxn_scored>  (238) 
9.5

>  <saltbridge:HIS:51>  (238) 
0

>  <pistack:HIS:51>  (238) 
0

>  <hydroph_interaction:HIS:51>  (238) 
0

>  <hbond:ALA:132>  (238) 
0

>  <hbond:SER:135>  (238) 
0

>  <hydroph_interaction:TYR:150>  (238) 
1

>  <pistack:TYR:161>  (238) 
2

>  <hydroph_interaction:TYR:161>  (238) 
0

>  <hydroph_interaction:ASP:83>  (238) 
0

>  <hbond:TYR:130>  (238) 
0

>  <hydroph_interaction:ALA:132>  (238) 
0

>  <hbond:HIS:51>  (238) 
0

>  <hbond:ASP:129>  (238) 
0

>  <hbond:TYR:150>  (238) 
0

>  <hbond:GLY:151>  (238) 
0

>  <hbond:TYR:161>  (238) 
0

>  <hydroph_interaction:TYR:130>  (238) 
1

>  <hydroph_interaction:PRO:131>  (238) 
1

>  <hydroph_interaction:ASP:129>  (238) 
1

>  <saltbridge:ASP:75>  (238) 
0

>  <saltbridge:ASP:83>  (238) 
0

>  <hbond:ASN:152>  (238) 
0

>  <hydroph_interaction:ASN:152>  (238) 
0

>  <halogenbond:TYR:150>  (238) 
0

>  <hbond:ASP:83>  (238) 
0

>  <hydroph_interaction:VAL:155>  (238) 
0

>  <pication:TYR:161>  (238) 
0

>  <hbond:PRO:131>  (238) 
0

>  <saltbridge:ASP:129>  (238) 
0

>  <hbond:THR:134>  (238) 
0

>  <pication:HIS:51>  (238) 
0

>  <hbond:SER:81>  (238) 
0

>  <hydroph_interaction:THR:134>  (238) 
0

>  <hydroph_interaction:MET:49>  (238) 
0

$$$$
PV-004956746919
     RDKit          3D

 54 57  0  0  0  0  0  0  0  0999 V2000
  -10.8990    4.9070  -18.6680 C   0  0  0  0  0  0  0  0  0  0  0  0
  -10.5350    4.6730  -17.3230 O   0  0  0  0  0  0  0  0  0  0  0  0
   -9.2370    4.9390  -16.9560 C   0  0  0  0  0  0  0  0  0  0  0  0
   -9.0310    4.9990  -15.5990 C   0  0  0  0  0  0  0  0  0  0  0  0
   -7.7430    5.2450  -15.2090 C   0  0  0  0  0  0  0  0  0  0  0  0
   -7.3650    5.3010  -13.8930 N   0  0  0  0  0  0  0  0  0  0  0  0
   -7.4400    6.5620  -13.1360 C   0  0  0  0  0  0  0  0  0  0  0  0
   -8.6410    6.6510  -12.3910 C   0  0  0  0  0  0  0  0  0  0  0  0
   -8.7980    5.6590  -11.2250 C   0  0  0  0  0  0  0  0  0  0  0  0
   -9.1030    4.2600  -11.6990 C   0  0  0  0  0  0  0  0  0  0  0  0
   -9.3010    3.2530  -10.7920 C   0  0  0  0  0  0  0  0  0  0  0  0
   -9.2230    3.5190   -9.4450 C   0  0  0  0  0  0  0  0  0  0  0  0
   -9.4610    2.4670   -8.5940 C   0  0  0  0  0  0  0  0  0  0  0  0
   -9.6100    2.8310   -7.1480 C   0  0  0  0  0  0  0  0  0  0  0  0
   -9.7970    4.2410   -6.9590 O   0  0  0  0  0  0  0  0  0  0  0  0
   -8.8490    4.9950   -7.5820 C   0  0  0  0  0  0  0  0  0  0  0  0
   -8.9200    4.8280   -8.9580 C   0  0  0  0  0  0  0  0  0  0  0  0
   -8.7090    5.9020   -9.8490 C   0  0  0  0  0  0  0  0  0  0  0  0
   -6.7240    5.4350  -16.1050 N   0  0  0  0  0  0  0  0  0  0  0  0
   -7.0520    5.3550  -17.4180 C   0  0  0  0  0  0  0  0  0  0  0  0
   -6.0310    5.5360  -18.3620 C   0  0  0  0  0  0  0  0  0  0  0  0
   -6.5240    6.2590  -19.6250 C   0  0  0  0  0  0  0  0  0  0  0  0
   -5.4110    6.9040  -20.4400 C   0  0  0  0  0  0  0  0  0  0  0  0
   -4.5050    7.5790  -19.5850 O   0  0  0  0  0  0  0  0  0  0  0  0
   -3.8930    6.7090  -18.6390 C   0  0  0  0  0  0  0  0  0  0  0  0
   -4.7780    6.1370  -17.7240 C   0  0  0  0  0  0  0  0  0  0  0  0
   -8.2840    5.1100  -17.8810 N   0  0  0  0  0  0  0  0  0  0  0  0
  -11.8280    4.3850  -18.8740 H   0  0  0  0  0  0  0  0  0  0  0  0
  -11.1170    5.9560  -18.8060 H   0  0  0  0  0  0  0  0  0  0  0  0
  -10.1020    4.6280  -19.3660 H   0  0  0  0  0  0  0  0  0  0  0  0
   -9.8400    4.8480  -14.8960 H   0  0  0  0  0  0  0  0  0  0  0  0
   -7.8050    4.5330  -13.3920 H   0  0  0  0  0  0  0  0  0  0  0  0
   -6.5810    6.6410  -12.4620 H   0  0  0  0  0  0  0  0  0  0  0  0
   -7.4040    7.4140  -13.8230 H   0  0  0  0  0  0  0  0  0  0  0  0
   -8.7290    7.6690  -11.9930 H   0  0  0  0  0  0  0  0  0  0  0  0
   -9.5010    6.5330  -13.0620 H   0  0  0  0  0  0  0  0  0  0  0  0
   -9.1830    4.0120  -12.7630 H   0  0  0  0  0  0  0  0  0  0  0  0
   -9.5230    2.2750  -11.2330 H   0  0  0  0  0  0  0  0  0  0  0  0
  -10.2180    1.9460   -9.1490 H   0  0  0  0  0  0  0  0  0  0  0  0
   -8.6100    1.7930   -8.6390 H   0  0  0  0  0  0  0  0  0  0  0  0
  -10.4980    2.3300   -6.7510 H   0  0  0  0  0  0  0  0  0  0  0  0
   -8.7490    2.4970   -6.5620 H   0  0  0  0  0  0  0  0  0  0  0  0
   -9.0700    6.0450   -7.3570 H   0  0  0  0  0  0  0  0  0  0  0  0
   -7.9180    4.7520   -7.0700 H   0  0  0  0  0  0  0  0  0  0  0  0
   -8.4860    6.9000   -9.4720 H   0  0  0  0  0  0  0  0  0  0  0  0
   -5.7520    4.5320  -18.6850 H   0  0  0  0  0  0  0  0  0  0  0  0
   -7.2610    7.0280  -19.3680 H   0  0  0  0  0  0  0  0  0  0  0  0
   -7.0540    5.5470  -20.2720 H   0  0  0  0  0  0  0  0  0  0  0  0
   -4.8730    6.1630  -21.0430 H   0  0  0  0  0  0  0  0  0  0  0  0
   -5.8410    7.6340  -21.1350 H   0  0  0  0  0  0  0  0  0  0  0  0
   -3.1210    7.2720  -18.1040 H   0  0  0  0  0  0  0  0  0  0  0  0
   -3.3740    5.9290  -19.2060 H   0  0  0  0  0  0  0  0  0  0  0  0
   -4.2500    5.4060  -17.1010 H   0  0  0  0  0  0  0  0  0  0  0  0
   -5.1070    6.9310  -17.0410 H   0  0  0  0  0  0  0  0  0  0  0  0
  1  2  1  0
  2  3  1  0
  3  4  2  0
  4  5  1  0
  5  6  1  0
  6  7  1  0
  7  8  1  0
  8  9  1  0
  9 10  2  0
 10 11  1  0
 11 12  2  0
 12 13  1  0
 13 14  1  0
 14 15  1  0
 15 16  1  0
 16 17  1  0
 17 18  2  0
  5 19  2  0
 19 20  1  0
 20 21  1  0
 21 22  1  0
 22 23  1  0
 23 24  1  0
 24 25  1  0
 25 26  1  0
 20 27  2  0
 27  3  1  0
 18  9  1  0
 17 12  1  0
 26 21  1  0
  1 28  1  0
  1 29  1  0
  1 30  1  0
  4 31  1  0
  6 32  1  0
  7 33  1  0
  7 34  1  0
  8 35  1  0
  8 36  1  0
 10 37  1  0
 11 38  1  0
 13 39  1  0
 13 40  1  0
 14 41  1  0
 14 42  1  0
 16 43  1  0
 16 44  1  0
 18 45  1  0
 21 46  1  0
 22 47  1  0
 22 48  1  0
 23 49  1  0
 23 50  1  0
 25 51  1  0
 25 52  1  0
 26 53  1  0
 26 54  1  0
A    1
 C1 
A    2
 O1 
A    3
 C2 
A    4
 C3 
A    5
 C4 
A    6
 N1 
A    7
 C5 
A    8
 C6 
A    9
 C7 
A   10
 C8 
A   11
 C9 
A   12
 C10
A   13
 C11
A   14
 C12
A   15
 O2 
A   16
 C13
A   17
 C14
A   18
 C15
A   19
 N2 
A   20
 C16
A   21
 C17
A   22
 C18
A   23
 C19
A   24
 O3 
A   25
 C20
A   26
 C21
A   27
 N3 
A   28
 H1 
A   29
 H2 
A   30
 H3 
A   31
 H4 
A   32
 H5 
A   33
 H6 
A   34
 H7 
A   35
 H8 
A   36
 H9 
A   37
 H10
A   38
 H11
A   39
 H12
A   40
 H13
A   41
 H14
A   42
 H15
A   43
 H16
A   44
 H17
A   45
 H18
A   46
 H19
A   47
 H20
A   48
 H21
A   49
 H22
A   50
 H23
A   51
 H24
A   52
 H25
A   53
 H26
A   54
 H27
M  END
>  <ref_pdb>  (239) 
x0051_0B

>  <ref_mols>  (239) 
x0945_0B,x0969_1B

>  <original SMILES>  (239) 
[H]c1c(OC([H])([H])[H])nc(C2([H])C([H])([H])C([H])([H])OC([H])([H])C2([H])[H])nc1N([H])C([H])([H])C([H])([H])c1c([H])c([H])c2c(c1[H])C([H])([H])OC([H])([H])C2([H])[H]

>  <index>  (239) 
734

>  <∆∆G>  (239) 
-7.450241

>  <∆G_bound>  (239) 
-6.193505

>  <∆G_unbound>  (239) 
1.256736

>  <comRMSD>  (239) 
0.737274

>  <N_constrained_atoms>  (239) 
24.0

>  <N_unconstrained_atoms>  (239) 
3.0

>  <runtime>  (239) 
71.918648

>  <LE>  (239) 
0.275935

>  <percent_hybrid>  (239) 
42.0

>  <dist>  (239) 
7.0

>  <ecfp4>  (239) 
0.214286

>  <daylight>  (239) 
0.24024

>  <topodist>  (239) 
1.0

>  <mces>  (239) 
29.0

>  <tdn>  (239) 
0.0

>  <tup>  (239) 
0.0

>  <rdn>  (239) 
0.0

>  <rup>  (239) 
0.0

>  <ldn>  (239) 
0.0

>  <lup>  (239) 
1.0

>  <mut>  (239) 
6.0

>  <maj>  (239) 
6.0

>  <min>  (239) 
0.0

>  <hyb>  (239) 
0.0

>  <sub>  (239) 
0.0

>  <query_index>  (239) 
347.0

>  <max_hit_Tanimoto>  (239) 
0.216981

>  <largest_ring>  (239) 
6

>  <N_interactions_kept>  (239) 
1.0

>  <N_interactions_lost>  (239) 
1.0

>  <interaction_uniqueness_metric>  (239) 
0.130457

>  <ad_hoc_penalty>  (239) 
-16.301307

>  <N_rotatable_bonds>  (239) 
7

>  <N_HA>  (239) 
27

>  <cluster>  (239) 
5547

>  <N_interactions>  (239) 
5

>  <Enamine>  (239) 
1

>  <Mcule>  (239) 
0

>  <N_PAINS>  (239) 
0

>  <UFF_Gibbs>  (239) 
166.739345

>  <strain_per_HA>  (239) 
6.175531

>  <intxn_scored>  (239) 
9.5

>  <saltbridge:HIS:51>  (239) 
0

>  <pistack:HIS:51>  (239) 
1

>  <hydroph_interaction:HIS:51>  (239) 
1

>  <hbond:ALA:132>  (239) 
0

>  <hbond:SER:135>  (239) 
0

>  <hydroph_interaction:TYR:150>  (239) 
0

>  <pistack:TYR:161>  (239) 
1

>  <hydroph_interaction:TYR:161>  (239) 
1

>  <hydroph_interaction:ASP:83>  (239) 
0

>  <hbond:TYR:130>  (239) 
0

>  <hydroph_interaction:ALA:132>  (239) 
0

>  <hbond:HIS:51>  (239) 
0

>  <hbond:ASP:129>  (239) 
0

>  <hbond:TYR:150>  (239) 
0

>  <hbond:GLY:151>  (239) 
0

>  <hbond:TYR:161>  (239) 
1

>  <hydroph_interaction:TYR:130>  (239) 
0

>  <hydroph_interaction:PRO:131>  (239) 
0

>  <hydroph_interaction:ASP:129>  (239) 
0

>  <saltbridge:ASP:75>  (239) 
0

>  <saltbridge:ASP:83>  (239) 
0

>  <hbond:ASN:152>  (239) 
0

>  <hydroph_interaction:ASN:152>  (239) 
0

>  <halogenbond:TYR:150>  (239) 
0

>  <hbond:ASP:83>  (239) 
0

>  <hydroph_interaction:VAL:155>  (239) 
0

>  <pication:TYR:161>  (239) 
0

>  <hbond:PRO:131>  (239) 
0

>  <saltbridge:ASP:129>  (239) 
0

>  <hbond:THR:134>  (239) 
0

>  <pication:HIS:51>  (239) 
0

>  <hbond:SER:81>  (239) 
0

>  <hydroph_interaction:THR:134>  (239) 
0

>  <hydroph_interaction:MET:49>  (239) 
0

$$$$
CSSS00026108404
     RDKit          3D

 29 30  0  0  0  0  0  0  0  0999 V2000
   -6.3860    5.5510  -16.4420 C   0  0  0  0  0  0  0  0  0  0  0  0
   -5.7930    5.4850  -17.8330 C   0  0  0  0  0  0  0  0  0  0  0  0
   -4.3850    5.4460  -17.9610 C   0  0  0  0  0  0  0  0  0  0  0  0
   -3.2720    5.4630  -16.6290 Cl  0  0  0  0  0  0  0  0  0  0  0  0
   -3.8220    5.3870  -19.2930 C   0  0  0  0  0  0  0  0  0  0  0  0
   -4.6540    5.3670  -20.3820 C   0  0  0  0  0  0  0  0  0  0  0  0
   -6.0190    5.4000  -20.2830 C   0  0  0  0  0  0  0  0  0  0  0  0
   -6.6250    5.4600  -19.0260 C   0  0  0  0  0  0  0  0  0  0  0  0
   -8.0430    5.4960  -18.9990 N   0  0  0  0  0  0  0  0  0  0  0  0
   -8.9320    4.8370  -18.1630 C   0  0  0  0  0  0  0  0  0  0  0  0
   -8.6550    4.3830  -17.0620 O   0  0  0  0  0  0  0  0  0  0  0  0
  -10.2490    4.7330  -18.6350 C   0  0  0  0  0  0  0  0  0  0  0  0
  -10.5080    3.8320  -19.6540 C   0  0  0  0  0  0  0  0  0  0  0  0
  -11.7910    3.5220  -20.1010 C   0  0  0  0  0  0  0  0  0  0  0  0
  -11.8160    2.5970  -21.1280 C   0  0  0  0  0  0  0  0  0  0  0  0
  -10.5390    2.1980  -21.4610 C   0  0  0  0  0  0  0  0  0  0  0  0
   -9.3250    2.9640  -20.5320 S   0  0  0  0  0  0  0  0  0  0  0  0
   -7.1320    6.3480  -16.3790 H   0  0  0  0  0  0  0  0  0  0  0  0
   -5.5960    5.7480  -15.7140 H   0  0  0  0  0  0  0  0  0  0  0  0
   -6.8980    4.6220  -16.1790 H   0  0  0  0  0  0  0  0  0  0  0  0
   -2.7440    5.3550  -19.4390 H   0  0  0  0  0  0  0  0  0  0  0  0
   -4.2120    5.3200  -21.3770 H   0  0  0  0  0  0  0  0  0  0  0  0
   -6.5490    5.3770  -21.2400 H   0  0  0  0  0  0  0  0  0  0  0  0
   -8.4320    5.7980  -19.9040 H   0  0  0  0  0  0  0  0  0  0  0  0
  -10.4440    5.6910  -19.1060 H   0  0  0  0  0  0  0  0  0  0  0  0
  -11.0900    4.6200  -17.9700 H   0  0  0  0  0  0  0  0  0  0  0  0
  -12.6860    3.9650  -19.6840 H   0  0  0  0  0  0  0  0  0  0  0  0
  -12.7100    2.2250  -21.6130 H   0  0  0  0  0  0  0  0  0  0  0  0
  -10.3200    1.4730  -22.2380 H   0  0  0  0  0  0  0  0  0  0  0  0
  1  2  1  0
  2  3  2  0
  3  4  1  0
  3  5  1  0
  5  6  2  0
  6  7  1  0
  7  8  2  0
  8  9  1  0
  9 10  1  0
 10 11  2  0
 10 12  1  0
 12 13  1  0
 13 14  2  0
 14 15  1  0
 15 16  2  0
 16 17  1  0
  8  2  1  0
 17 13  1  0
  1 18  1  0
  1 19  1  0
  1 20  1  0
  5 21  1  0
  6 22  1  0
  7 23  1  0
  9 24  1  0
 12 25  1  0
 12 26  1  0
 14 27  1  0
 15 28  1  0
 16 29  1  0
A    1
 C1 
A    2
 C2 
A    3
 C3 
A    4
CL1 
A    5
 C4 
A    6
 C5 
A    7
 C6 
A    8
 C7 
A    9
 N1 
A   10
 C8 
A   11
 O1 
A   12
 C9 
A   13
 C10
A   14
 C11
A   15
 C12
A   16
 C13
A   17
 S1 
A   18
 H1 
A   19
 H2 
A   20
 H3 
A   21
 H4 
A   22
 H5 
A   23
 H6 
A   24
 H7 
A   25
 H8 
A   26
 H9 
A   27
 H10
A   28
 H11
A   29
 H12
M  END
>  <ref_pdb>  (240) 
x0051_0B

>  <ref_mols>  (240) 
x0680_0B,x0472_0B

>  <original SMILES>  (240) 
[H]c1sc(C([H])([H])C(=O)N([H])c2c([H])c([H])c([H])c(Cl)c2C([H])([H])[H])c([H])c1[H]

>  <index>  (240) 
1045

>  <∆∆G>  (240) 
-9.51709

>  <∆G_bound>  (240) 
-9.930936

>  <∆G_unbound>  (240) 
-0.413846

>  <comRMSD>  (240) 
0.650028

>  <N_constrained_atoms>  (240) 
14.0

>  <N_unconstrained_atoms>  (240) 
5.0

>  <runtime>  (240) 
32.950764

>  <LE>  (240) 
0.500899

>  <percent_hybrid>  (240) 
50.0

>  <dist>  (240) 
7.0

>  <ecfp4>  (240) 
0.136986

>  <daylight>  (240) 
0.157303

>  <topodist>  (240) 
4.0

>  <mces>  (240) 
16.0

>  <tdn>  (240) 
1.0

>  <tup>  (240) 
1.0

>  <rdn>  (240) 
1.0

>  <rup>  (240) 
0.0

>  <ldn>  (240) 
0.0

>  <lup>  (240) 
1.0

>  <mut>  (240) 
2.0

>  <maj>  (240) 
2.0

>  <min>  (240) 
0.0

>  <hyb>  (240) 
1.0

>  <sub>  (240) 
3.0

>  <query_index>  (240) 
38.0

>  <max_hit_Tanimoto>  (240) 
0.277338

>  <largest_ring>  (240) 
6

>  <N_interactions_kept>  (240) 
2.0

>  <N_interactions_lost>  (240) 
3.0

>  <interaction_uniqueness_metric>  (240) 
0.117543

>  <ad_hoc_penalty>  (240) 
-16.282005

>  <N_rotatable_bonds>  (240) 
4

>  <N_HA>  (240) 
17

>  <cluster>  (240) 
5257

>  <N_interactions>  (240) 
6

>  <Enamine>  (240) 
1

>  <Mcule>  (240) 
0

>  <N_PAINS>  (240) 
0

>  <UFF_Gibbs>  (240) 
54.356864

>  <strain_per_HA>  (240) 
3.197463

>  <intxn_scored>  (240) 
9.5

>  <saltbridge:HIS:51>  (240) 
0

>  <pistack:HIS:51>  (240) 
0

>  <hydroph_interaction:HIS:51>  (240) 
0

>  <hbond:ALA:132>  (240) 
0

>  <hbond:SER:135>  (240) 
0

>  <hydroph_interaction:TYR:150>  (240) 
1

>  <pistack:TYR:161>  (240) 
1

>  <hydroph_interaction:TYR:161>  (240) 
2

>  <hydroph_interaction:ASP:83>  (240) 
0

>  <hbond:TYR:130>  (240) 
1

>  <hydroph_interaction:ALA:132>  (240) 
0

>  <hbond:HIS:51>  (240) 
0

>  <hbond:ASP:129>  (240) 
0

>  <hbond:TYR:150>  (240) 
0

>  <hbond:GLY:151>  (240) 
0

>  <hbond:TYR:161>  (240) 
0

>  <hydroph_interaction:TYR:130>  (240) 
1

>  <hydroph_interaction:PRO:131>  (240) 
0

>  <hydroph_interaction:ASP:129>  (240) 
0

>  <saltbridge:ASP:75>  (240) 
0

>  <saltbridge:ASP:83>  (240) 
0

>  <hbond:ASN:152>  (240) 
0

>  <hydroph_interaction:ASN:152>  (240) 
0

>  <halogenbond:TYR:150>  (240) 
0

>  <hbond:ASP:83>  (240) 
0

>  <hydroph_interaction:VAL:155>  (240) 
0

>  <pication:TYR:161>  (240) 
0

>  <hbond:PRO:131>  (240) 
0

>  <saltbridge:ASP:129>  (240) 
0

>  <hbond:THR:134>  (240) 
0

>  <pication:HIS:51>  (240) 
0

>  <hbond:SER:81>  (240) 
0

>  <hydroph_interaction:THR:134>  (240) 
0

>  <hydroph_interaction:MET:49>  (240) 
0

$$$$
Z1256266225
     RDKit          3D

 53 56  0  0  0  0  0  0  0  0999 V2000
   -9.5750    4.7650  -18.6300 N   0  0  0  0  0  0  0  0  0  0  0  0
   -8.3750    4.6610  -19.2730 C   0  0  0  0  0  0  0  0  0  0  0  0
   -8.3190    4.2000  -20.4020 O   0  0  0  0  0  0  0  0  0  0  0  0
   -7.1400    5.1140  -18.5100 C   0  0  0  0  0  0  0  0  0  0  0  0
   -7.4910    5.6120  -17.1190 C   0  0  0  0  0  0  0  0  0  0  0  0
   -6.3170    6.0850  -16.2500 C   0  0  0  0  0  0  0  0  0  0  0  0
   -4.8860    6.0260  -16.8210 C   0  0  0  0  0  0  0  0  0  0  0  0
   -4.7620    5.4880  -18.2450 C   0  0  0  0  0  0  0  0  0  0  0  0
   -3.3380    5.4230  -18.7990 C   0  0  0  0  0  0  0  0  0  0  0  0
   -3.0610    5.6240  -20.1350 C   0  0  0  0  0  0  0  0  0  0  0  0
   -3.7800    6.6350  -20.6250 N   0  0  0  0  0  0  0  0  0  0  0  0
   -4.8280    6.4240  -21.5040 C   0  0  0  0  0  0  0  0  0  0  0  0
   -5.3880    5.3510  -21.6870 O   0  0  0  0  0  0  0  0  0  0  0  0
   -5.2370    7.6460  -22.2880 C   0  0  0  0  0  0  0  0  0  0  0  0
   -6.0170    7.4200  -23.5270 C   0  0  0  0  0  0  0  0  0  0  0  0
   -6.4390    8.4100  -24.3460 C   0  0  0  0  0  0  0  0  0  0  0  0
   -6.0580    9.7130  -23.9010 C   0  0  0  0  0  0  0  0  0  0  0  0
   -6.4870   11.1380  -24.8480 S   0  0  0  0  0  0  0  0  0  0  0  0
   -6.2200   10.4550  -26.5200 C   0  0  0  0  0  0  0  0  0  0  0  0
   -7.3200    9.7350  -26.9800 C   0  0  0  0  0  0  0  0  0  0  0  0
   -7.3670    8.4510  -27.3020 N   0  0  0  0  0  0  0  0  0  0  0  0
   -8.6670    8.2160  -27.6790 C   0  0  0  0  0  0  0  0  0  0  0  0
   -9.2930    7.0350  -28.1080 C   0  0  0  0  0  0  0  0  0  0  0  0
  -10.6570    7.0760  -28.4260 C   0  0  0  0  0  0  0  0  0  0  0  0
  -11.3820    8.2630  -28.3210 C   0  0  0  0  0  0  0  0  0  0  0  0
  -10.7750    9.4500  -27.9010 C   0  0  0  0  0  0  0  0  0  0  0  0
   -9.4180    9.3820  -27.5900 C   0  0  0  0  0  0  0  0  0  0  0  0
   -8.5380   10.3230  -27.1510 N   0  0  0  0  0  0  0  0  0  0  0  0
   -5.3220    9.9620  -22.7180 C   0  0  0  0  0  0  0  0  0  0  0  0
   -4.9060    8.9250  -21.8970 C   0  0  0  0  0  0  0  0  0  0  0  0
   -5.8490    5.0710  -19.0090 C   0  0  0  0  0  0  0  0  0  0  0  0
  -10.3750    5.1890  -19.0750 H   0  0  0  0  0  0  0  0  0  0  0  0
   -9.5170    4.8450  -17.6220 H   0  0  0  0  0  0  0  0  0  0  0  0
   -8.5160    5.6360  -16.7530 H   0  0  0  0  0  0  0  0  0  0  0  0
   -6.4950    6.4570  -15.2440 H   0  0  0  0  0  0  0  0  0  0  0  0
   -4.0220    6.3500  -16.2330 H   0  0  0  0  0  0  0  0  0  0  0  0
   -2.7390    6.1310  -18.2140 H   0  0  0  0  0  0  0  0  0  0  0  0
   -2.9160    4.4470  -18.5210 H   0  0  0  0  0  0  0  0  0  0  0  0
   -3.2960    4.7430  -20.7370 H   0  0  0  0  0  0  0  0  0  0  0  0
   -2.0000    5.8480  -20.2800 H   0  0  0  0  0  0  0  0  0  0  0  0
   -3.4270    7.5700  -20.4890 H   0  0  0  0  0  0  0  0  0  0  0  0
   -6.2740    6.4080  -23.8180 H   0  0  0  0  0  0  0  0  0  0  0  0
   -7.0040    8.1850  -25.2450 H   0  0  0  0  0  0  0  0  0  0  0  0
   -5.9480   11.2520  -27.2170 H   0  0  0  0  0  0  0  0  0  0  0  0
   -5.3590    9.7770  -26.4610 H   0  0  0  0  0  0  0  0  0  0  0  0
   -8.7260    6.1150  -28.1860 H   0  0  0  0  0  0  0  0  0  0  0  0
  -11.1560    6.1690  -28.7590 H   0  0  0  0  0  0  0  0  0  0  0  0
  -12.4420    8.2720  -28.5720 H   0  0  0  0  0  0  0  0  0  0  0  0
  -11.3370   10.3720  -27.8220 H   0  0  0  0  0  0  0  0  0  0  0  0
   -8.7530   11.2970  -26.9730 H   0  0  0  0  0  0  0  0  0  0  0  0
   -5.0660   10.9810  -22.4350 H   0  0  0  0  0  0  0  0  0  0  0  0
   -4.3380    9.1190  -20.9890 H   0  0  0  0  0  0  0  0  0  0  0  0
   -5.6630    4.7010  -20.0120 H   0  0  0  0  0  0  0  0  0  0  0  0
  1  2  1  0
  2  3  2  0
  2  4  1  0
  4  5  2  0
  5  6  1  0
  6  7  2  0
  7  8  1  0
  8  9  1  0
  9 10  1  0
 10 11  1  0
 11 12  1  0
 12 13  2  0
 12 14  1  0
 14 15  2  0
 15 16  1  0
 16 17  2  0
 17 18  1  0
 18 19  1  0
 19 20  1  0
 20 21  2  0
 21 22  1  0
 22 23  2  0
 23 24  1  0
 24 25  2  0
 25 26  1  0
 26 27  2  0
 27 28  1  0
 17 29  1  0
 29 30  2  0
  8 31  2  0
 31  4  1  0
 30 14  1  0
 28 20  1  0
 27 22  1  0
  1 32  1  0
  1 33  1  0
  5 34  1  0
  6 35  1  0
  7 36  1  0
  9 37  1  0
  9 38  1  0
 10 39  1  0
 10 40  1  0
 11 41  1  0
 15 42  1  0
 16 43  1  0
 19 44  1  0
 19 45  1  0
 23 46  1  0
 24 47  1  0
 25 48  1  0
 26 49  1  0
 28 50  1  0
 29 51  1  0
 30 52  1  0
 31 53  1  0
A    1
 N1 
A    2
 C1 
A    3
 O1 
A    4
 C2 
A    5
 C3 
A    6
 C4 
A    7
 C5 
A    8
 C6 
A    9
 C7 
A   10
 C8 
A   11
 N2 
A   12
 C9 
A   13
 O2 
A   14
 C10
A   15
 C11
A   16
 C12
A   17
 C13
A   18
 S1 
A   19
 C14
A   20
 C15
A   21
 N3 
A   22
 C16
A   23
 C17
A   24
 C18
A   25
 C19
A   26
 C20
A   27
 C21
A   28
 N4 
A   29
 C22
A   30
 C23
A   31
 C24
A   32
 H1 
A   33
 H2 
A   34
 H3 
A   35
 H4 
A   36
 H5 
A   37
 H6 
A   38
 H7 
A   39
 H8 
A   40
 H9 
A   41
 H10
A   42
 H11
A   43
 H12
A   44
 H13
A   45
 H14
A   46
 H15
A   47
 H16
A   48
 H17
A   49
 H18
A   50
 H19
A   51
 H20
A   52
 H21
A   53
 H22
M  END
>  <ref_pdb>  (241) 
x0051_0B

>  <ref_mols>  (241) 
x0051_0B,x0846_1B

>  <original SMILES>  (241) 
[H]c1c([H])c(C(=O)N([H])[H])c([H])c(C([H])([H])C([H])([H])N([H])C(=O)c2c([H])c([H])c(SC([H])([H])c3nc4c([H])c([H])c([H])c([H])c4n3[H])c([H])c2[H])c1[H]

>  <index>  (241) 
604

>  <∆∆G>  (241) 
-7.969766

>  <∆G_bound>  (241) 
-7.099039

>  <∆G_unbound>  (241) 
0.870727

>  <comRMSD>  (241) 
0.665967

>  <N_constrained_atoms>  (241) 
30.0

>  <N_unconstrained_atoms>  (241) 
3.0

>  <runtime>  (241) 
49.127339

>  <LE>  (241) 
0.241508

>  <percent_hybrid>  (241) 
40.0

>  <dist>  (241) 
10.0

>  <ecfp4>  (241) 
0.229167

>  <daylight>  (241) 
0.2397

>  <topodist>  (241) 
4.0

>  <mces>  (241) 
33.0

>  <tdn>  (241) 
1.0

>  <tup>  (241) 
1.0

>  <rdn>  (241) 
1.0

>  <rup>  (241) 
0.0

>  <ldn>  (241) 
1.0

>  <lup>  (241) 
0.0

>  <mut>  (241) 
5.0

>  <maj>  (241) 
4.0

>  <min>  (241) 
1.0

>  <hyb>  (241) 
1.0

>  <sub>  (241) 
2.0

>  <query_index>  (241) 
185.0

>  <max_hit_Tanimoto>  (241) 
0.317105

>  <largest_ring>  (241) 
6

>  <N_interactions_kept>  (241) 
1.0

>  <N_interactions_lost>  (241) 
2.5

>  <interaction_uniqueness_metric>  (241) 
0.27225

>  <ad_hoc_penalty>  (241) 
-16.504015

>  <N_rotatable_bonds>  (241) 
8

>  <N_HA>  (241) 
31

>  <cluster>  (241) 
5666

>  <N_interactions>  (241) 
8

>  <Enamine>  (241) 
1

>  <Mcule>  (241) 
0

>  <N_PAINS>  (241) 
0

>  <UFF_Gibbs>  (241) 
268.689315

>  <strain_per_HA>  (241) 
8.667397

>  <intxn_scored>  (241) 
9.5

>  <saltbridge:HIS:51>  (241) 
0

>  <pistack:HIS:51>  (241) 
0

>  <hydroph_interaction:HIS:51>  (241) 
0

>  <hbond:ALA:132>  (241) 
1

>  <hbond:SER:135>  (241) 
0

>  <hydroph_interaction:TYR:150>  (241) 
0

>  <pistack:TYR:161>  (241) 
1

>  <hydroph_interaction:TYR:161>  (241) 
1

>  <hydroph_interaction:ASP:83>  (241) 
0

>  <hbond:TYR:130>  (241) 
1

>  <hydroph_interaction:ALA:132>  (241) 
1

>  <hbond:HIS:51>  (241) 
0

>  <hbond:ASP:129>  (241) 
1

>  <hbond:TYR:150>  (241) 
0

>  <hbond:GLY:151>  (241) 
0

>  <hbond:TYR:161>  (241) 
0

>  <hydroph_interaction:TYR:130>  (241) 
1

>  <hydroph_interaction:PRO:131>  (241) 
1

>  <hydroph_interaction:ASP:129>  (241) 
0

>  <saltbridge:ASP:75>  (241) 
0

>  <saltbridge:ASP:83>  (241) 
0

>  <hbond:ASN:152>  (241) 
0

>  <hydroph_interaction:ASN:152>  (241) 
0

>  <halogenbond:TYR:150>  (241) 
0

>  <hbond:ASP:83>  (241) 
0

>  <hydroph_interaction:VAL:155>  (241) 
0

>  <pication:TYR:161>  (241) 
0

>  <hbond:PRO:131>  (241) 
0

>  <saltbridge:ASP:129>  (241) 
0

>  <hbond:THR:134>  (241) 
0

>  <pication:HIS:51>  (241) 
0

>  <hbond:SER:81>  (241) 
0

>  <hydroph_interaction:THR:134>  (241) 
0

>  <hydroph_interaction:MET:49>  (241) 
0

$$$$
CSSB02495339907
     RDKit          3D

 21 22  0  0  0  0  0  0  0  0999 V2000
  -10.8460    4.9930  -18.6000 C   0  0  0  0  0  0  0  0  0  0  0  0
   -9.4600    5.0340  -18.0610 C   0  0  0  0  0  0  0  0  0  0  0  0
   -9.2550    5.0050  -16.5650 C   0  0  0  0  0  0  0  0  0  0  0  0
   -7.9480    5.0850  -16.0630 C   0  0  0  0  0  0  0  0  0  0  0  0
   -6.8990    5.1870  -16.9810 C   0  0  0  0  0  0  0  0  0  0  0  0
   -5.5090    5.2850  -16.8260 N   0  0  0  0  0  0  0  0  0  0  0  0
   -4.8750    5.3610  -18.1260 C   0  0  0  0  0  0  0  0  0  0  0  0
   -3.5420    5.4580  -18.2710 N   0  0  0  0  0  0  0  0  0  0  0  0
   -5.9140    5.3080  -19.0310 C   0  0  0  0  0  0  0  0  0  0  0  0
   -7.1270    5.2050  -18.3720 C   0  0  0  0  0  0  0  0  0  0  0  0
   -8.3790    5.1290  -18.9280 C   0  0  0  0  0  0  0  0  0  0  0  0
  -11.4670    5.7030  -18.0970 H   0  0  0  0  0  0  0  0  0  0  0  0
  -10.8380    5.3110  -19.6470 H   0  0  0  0  0  0  0  0  0  0  0  0
  -11.3030    4.0250  -18.4940 H   0  0  0  0  0  0  0  0  0  0  0  0
  -10.0970    4.9300  -15.8800 H   0  0  0  0  0  0  0  0  0  0  0  0
   -7.7550    5.0690  -14.9960 H   0  0  0  0  0  0  0  0  0  0  0  0
   -5.0170    5.2980  -15.9340 H   0  0  0  0  0  0  0  0  0  0  0  0
   -2.9500    5.4070  -17.4450 H   0  0  0  0  0  0  0  0  0  0  0  0
   -3.0680    5.1450  -19.1120 H   0  0  0  0  0  0  0  0  0  0  0  0
   -5.8060    5.3410  -20.1120 H   0  0  0  0  0  0  0  0  0  0  0  0
   -8.4940    5.1520  -20.0010 H   0  0  0  0  0  0  0  0  0  0  0  0
  1  2  1  0
  2  3  2  0
  3  4  1  0
  4  5  2  0
  5  6  1  0
  6  7  1  0
  7  8  1  0
  7  9  2  0
  9 10  1  0
 10 11  2  0
 11  2  1  0
 10  5  1  0
  1 12  1  0
  1 13  1  0
  1 14  1  0
  3 15  1  0
  4 16  1  0
  6 17  1  0
  8 18  1  0
  8 19  1  0
  9 20  1  0
 11 21  1  0
A    1
 C1 
A    2
 C2 
A    3
 C3 
A    4
 C4 
A    5
 C5 
A    6
 N1 
A    7
 C6 
A    8
 N2 
A    9
 C7 
A   10
 C8 
A   11
 C9 
A   12
 H1 
A   13
 H2 
A   14
 H3 
A   15
 H4 
A   16
 H5 
A   17
 H6 
A   18
 H7 
A   19
 H8 
A   20
 H9 
A   21
 H10
M  END
>  <ref_pdb>  (242) 
x0051_0B

>  <ref_mols>  (242) 
x0553_0B,x0559_0B

>  <original SMILES>  (242) 
[H]c1c(C([H])([H])[H])c([H])c2c([H])c(N([H])[H])n([H])c2c1[H]

>  <index>  (242) 
2389

>  <∆∆G>  (242) 
-6.408576

>  <∆G_bound>  (242) 
-6.412735

>  <∆G_unbound>  (242) 
-0.004159

>  <comRMSD>  (242) 
0.782692

>  <N_constrained_atoms>  (242) 
10.0

>  <N_unconstrained_atoms>  (242) 
2.0

>  <runtime>  (242) 
24.843146

>  <LE>  (242) 
0.534048

>  <percent_hybrid>  (242) 
25.0

>  <dist>  (242) 
2.0

>  <ecfp4>  (242) 
0.289474

>  <daylight>  (242) 
0.217391

>  <topodist>  (242) 
2.0

>  <mces>  (242) 
10.0

>  <tdn>  (242) 
0.0

>  <tup>  (242) 
0.0

>  <rdn>  (242) 
0.0

>  <rup>  (242) 
1.0

>  <ldn>  (242) 
0.0

>  <lup>  (242) 
1.0

>  <mut>  (242) 
0.0

>  <maj>  (242) 
0.0

>  <min>  (242) 
0.0

>  <hyb>  (242) 
0.0

>  <sub>  (242) 
2.0

>  <query_index>  (242) 
378.0

>  <max_hit_Tanimoto>  (242) 
0.117794

>  <largest_ring>  (242) 
6

>  <N_interactions_kept>  (242) 
1.0

>  <N_interactions_lost>  (242) 
2.5

>  <interaction_uniqueness_metric>  (242) 
0.04341

>  <ad_hoc_penalty>  (242) 
-7.265085

>  <N_rotatable_bonds>  (242) 
2

>  <N_HA>  (242) 
11

>  <cluster>  (242) 
4021

>  <N_interactions>  (242) 
4

>  <Enamine>  (242) 
1

>  <Mcule>  (242) 
0

>  <N_PAINS>  (242) 
0

>  <UFF_Gibbs>  (242) 
32.413086

>  <strain_per_HA>  (242) 
2.946644

>  <intxn_scored>  (242) 
9.5

>  <saltbridge:HIS:51>  (242) 
0

>  <pistack:HIS:51>  (242) 
0

>  <hydroph_interaction:HIS:51>  (242) 
0

>  <hbond:ALA:132>  (242) 
0

>  <hbond:SER:135>  (242) 
0

>  <hydroph_interaction:TYR:150>  (242) 
1

>  <pistack:TYR:161>  (242) 
2

>  <hydroph_interaction:TYR:161>  (242) 
1

>  <hydroph_interaction:ASP:83>  (242) 
0

>  <hbond:TYR:130>  (242) 
0

>  <hydroph_interaction:ALA:132>  (242) 
0

>  <hbond:HIS:51>  (242) 
0

>  <hbond:ASP:129>  (242) 
0

>  <hbond:TYR:150>  (242) 
0

>  <hbond:GLY:151>  (242) 
0

>  <hbond:TYR:161>  (242) 
0

>  <hydroph_interaction:TYR:130>  (242) 
0

>  <hydroph_interaction:PRO:131>  (242) 
0

>  <hydroph_interaction:ASP:129>  (242) 
0

>  <saltbridge:ASP:75>  (242) 
0

>  <saltbridge:ASP:83>  (242) 
0

>  <hbond:ASN:152>  (242) 
0

>  <hydroph_interaction:ASN:152>  (242) 
0

>  <halogenbond:TYR:150>  (242) 
0

>  <hbond:ASP:83>  (242) 
0

>  <hydroph_interaction:VAL:155>  (242) 
0

>  <pication:TYR:161>  (242) 
0

>  <hbond:PRO:131>  (242) 
0

>  <saltbridge:ASP:129>  (242) 
0

>  <hbond:THR:134>  (242) 
0

>  <pication:HIS:51>  (242) 
0

>  <hbond:SER:81>  (242) 
0

>  <hydroph_interaction:THR:134>  (242) 
0

>  <hydroph_interaction:MET:49>  (242) 
0

$$$$
CSSS00000010438
     RDKit          3D

 23 24  0  0  0  0  0  0  0  0999 V2000
   -4.2940    5.7400  -20.1400 S   0  0  0  0  0  0  0  0  0  0  0  0
   -5.8290    5.5060  -19.3900 C   0  0  0  0  0  0  0  0  0  0  0  0
   -7.0320    5.2190  -20.0620 N   0  0  0  0  0  0  0  0  0  0  0  0
   -8.0150    5.1110  -19.0610 C   0  0  0  0  0  0  0  0  0  0  0  0
   -9.3530    4.8330  -19.3470 C   0  0  0  0  0  0  0  0  0  0  0  0
  -10.1950    4.7650  -18.0860 C   0  0  0  0  0  0  0  0  0  0  0  0
   -9.6220    4.9730  -16.7780 C   0  0  0  0  0  0  0  0  0  0  0  0
   -8.2540    5.2510  -16.6290 C   0  0  0  0  0  0  0  0  0  0  0  0
   -7.4700    5.3150  -17.7970 C   0  0  0  0  0  0  0  0  0  0  0  0
   -6.0990    5.5650  -18.0280 N   0  0  0  0  0  0  0  0  0  0  0  0
   -5.1510    5.8340  -16.9820 C   0  0  0  0  0  0  0  0  0  0  0  0
   -3.7670    5.3280  -17.3380 C   0  0  0  0  0  0  0  0  0  0  0  0
   -3.1550    4.7600  -16.1790 C   0  0  0  0  0  0  0  0  0  0  0  0
   -2.7140    4.2910  -15.2200 N   0  0  0  0  0  0  0  0  0  0  0  0
   -4.5420    4.9770  -21.2160 H   0  0  0  0  0  0  0  0  0  0  0  0
   -9.7180    4.6880  -20.3530 H   0  0  0  0  0  0  0  0  0  0  0  0
  -11.2580    4.5550  -18.1780 H   0  0  0  0  0  0  0  0  0  0  0  0
  -10.2520    4.9150  -15.8930 H   0  0  0  0  0  0  0  0  0  0  0  0
   -7.8320    5.4070  -15.6430 H   0  0  0  0  0  0  0  0  0  0  0  0
   -5.1450    6.9170  -16.8040 H   0  0  0  0  0  0  0  0  0  0  0  0
   -5.5220    5.3800  -16.0550 H   0  0  0  0  0  0  0  0  0  0  0  0
   -3.8230    4.5740  -18.1320 H   0  0  0  0  0  0  0  0  0  0  0  0
   -3.1470    6.1460  -17.7200 H   0  0  0  0  0  0  0  0  0  0  0  0
  1  2  1  0
  2  3  2  0
  3  4  1  0
  4  5  2  0
  5  6  1  0
  6  7  2  0
  7  8  1  0
  8  9  2  0
  9 10  1  0
 10 11  1  0
 11 12  1  0
 12 13  1  0
 13 14  3  0
 10  2  1  0
  9  4  1  0
  1 15  1  0
  5 16  1  0
  6 17  1  0
  7 18  1  0
  8 19  1  0
 11 20  1  0
 11 21  1  0
 12 22  1  0
 12 23  1  0
A    1
 S1 
A    2
 C1 
A    3
 N1 
A    4
 C2 
A    5
 C3 
A    6
 C4 
A    7
 C5 
A    8
 C6 
A    9
 C7 
A   10
 N2 
A   11
 C8 
A   12
 C9 
A   13
 C10
A   14
 N3 
A   15
 H1 
A   16
 H2 
A   17
 H3 
A   18
 H4 
A   19
 H5 
A   20
 H6 
A   21
 H7 
A   22
 H8 
A   23
 H9 
M  END
>  <ref_pdb>  (243) 
x0051_0B

>  <ref_mols>  (243) 
x0490_0B,x0472_0B

>  <original SMILES>  (243) 
[H]Sc1nc2c([H])c([H])c([H])c([H])c2n1C([H])([H])C([H])([H])C#N

>  <index>  (243) 
1808

>  <∆∆G>  (243) 
-5.95829

>  <∆G_bound>  (243) 
-5.827887

>  <∆G_unbound>  (243) 
0.130403

>  <comRMSD>  (243) 
0.596177

>  <N_constrained_atoms>  (243) 
16.0

>  <N_unconstrained_atoms>  (243) 
1.0

>  <runtime>  (243) 
31.336701

>  <LE>  (243) 
0.350488

>  <percent_hybrid>  (243) 
38.0

>  <dist>  (243) 
4.0

>  <ecfp4>  (243) 
0.214286

>  <daylight>  (243) 
0.709677

>  <topodist>  (243) 
2.0

>  <mces>  (243) 
14.0

>  <tdn>  (243) 
1.0

>  <tup>  (243) 
1.0

>  <rdn>  (243) 
0.0

>  <rup>  (243) 
0.0

>  <ldn>  (243) 
0.0

>  <lup>  (243) 
0.0

>  <mut>  (243) 
0.0

>  <maj>  (243) 
0.0

>  <min>  (243) 
0.0

>  <hyb>  (243) 
2.0

>  <sub>  (243) 
2.0

>  <query_index>  (243) 
228.0

>  <max_hit_Tanimoto>  (243) 
0.638776

>  <largest_ring>  (243) 
6

>  <N_interactions_kept>  (243) 
1.0

>  <N_interactions_lost>  (243) 
3.0

>  <interaction_uniqueness_metric>  (243) 
0.069229

>  <ad_hoc_penalty>  (243) 
-9.749712

>  <N_rotatable_bonds>  (243) 
3

>  <N_HA>  (243) 
14

>  <cluster>  (243) 
4560

>  <N_interactions>  (243) 
6

>  <Enamine>  (243) 
1

>  <Mcule>  (243) 
0

>  <N_PAINS>  (243) 
0

>  <UFF_Gibbs>  (243) 
53.879149

>  <strain_per_HA>  (243) 
3.848511

>  <intxn_scored>  (243) 
9.5

>  <saltbridge:HIS:51>  (243) 
0

>  <pistack:HIS:51>  (243) 
0

>  <hydroph_interaction:HIS:51>  (243) 
0

>  <hbond:ALA:132>  (243) 
0

>  <hbond:SER:135>  (243) 
0

>  <hydroph_interaction:TYR:150>  (243) 
1

>  <pistack:TYR:161>  (243) 
1

>  <hydroph_interaction:TYR:161>  (243) 
3

>  <hydroph_interaction:ASP:83>  (243) 
0

>  <hbond:TYR:130>  (243) 
1

>  <hydroph_interaction:ALA:132>  (243) 
0

>  <hbond:HIS:51>  (243) 
0

>  <hbond:ASP:129>  (243) 
0

>  <hbond:TYR:150>  (243) 
0

>  <hbond:GLY:151>  (243) 
0

>  <hbond:TYR:161>  (243) 
0

>  <hydroph_interaction:TYR:130>  (243) 
0

>  <hydroph_interaction:PRO:131>  (243) 
0

>  <hydroph_interaction:ASP:129>  (243) 
0

>  <saltbridge:ASP:75>  (243) 
0

>  <saltbridge:ASP:83>  (243) 
0

>  <hbond:ASN:152>  (243) 
0

>  <hydroph_interaction:ASN:152>  (243) 
0

>  <halogenbond:TYR:150>  (243) 
0

>  <hbond:ASP:83>  (243) 
0

>  <hydroph_interaction:VAL:155>  (243) 
0

>  <pication:TYR:161>  (243) 
0

>  <hbond:PRO:131>  (243) 
0

>  <saltbridge:ASP:129>  (243) 
0

>  <hbond:THR:134>  (243) 
0

>  <pication:HIS:51>  (243) 
0

>  <hbond:SER:81>  (243) 
0

>  <hydroph_interaction:THR:134>  (243) 
0

>  <hydroph_interaction:MET:49>  (243) 
0

$$$$
Z1683997000
     RDKit          3D

 46 50  0  0  0  0  0  0  0  0999 V2000
   -9.5820    4.6430  -16.7890 C   0  0  0  0  0  0  0  0  0  0  0  0
   -8.2300    5.0300  -16.2870 C   0  0  0  0  0  0  0  0  0  0  0  0
   -7.2350    5.4370  -17.3450 C   0  0  0  0  0  0  0  0  0  0  0  0
   -5.8610    5.8530  -16.8730 C   0  0  0  0  0  0  0  0  0  0  0  0
   -4.8970    6.3080  -17.9440 C   0  0  0  0  0  0  0  0  0  0  0  0
   -5.3900    6.2990  -19.3930 C   0  0  0  0  0  0  0  0  0  0  0  0
   -4.4260    6.7900  -20.2500 O   0  0  0  0  0  0  0  0  0  0  0  0
   -4.4280    6.5920  -21.6700 C   0  0  0  0  0  0  0  0  0  0  0  0
   -5.1790    7.5670  -22.6380 C   0  0  0  0  0  0  0  0  0  0  0  0
   -6.1100    7.1220  -23.4870 N   0  0  0  0  0  0  0  0  0  0  0  0
   -6.4980    8.2500  -24.1890 O   0  0  0  0  0  0  0  0  0  0  0  0
   -5.7840    9.3230  -23.7450 C   0  0  0  0  0  0  0  0  0  0  0  0
   -6.1270   10.6060  -24.5050 C   0  0  0  0  0  0  0  0  0  0  0  0
   -5.8970   10.2860  -26.0060 C   0  0  0  0  0  0  0  0  0  0  0  0
   -7.2060    9.7830  -26.6440 C   0  0  0  0  0  0  0  0  0  0  0  0
   -7.2900    8.5010  -26.9970 N   0  0  0  0  0  0  0  0  0  0  0  0
   -8.5710    8.2230  -27.5340 C   0  0  0  0  0  0  0  0  0  0  0  0
   -9.2020    6.9290  -28.0690 C   0  0  0  0  0  0  0  0  0  0  0  0
  -10.6530    6.9970  -28.5610 C   0  0  0  0  0  0  0  0  0  0  0  0
  -11.3780    8.3370  -28.4950 C   0  0  0  0  0  0  0  0  0  0  0  0
  -10.7200    9.6020  -27.9690 C   0  0  0  0  0  0  0  0  0  0  0  0
   -9.2680    9.4480  -27.4930 C   0  0  0  0  0  0  0  0  0  0  0  0
   -8.3880   10.3990  -26.9490 N   0  0  0  0  0  0  0  0  0  0  0  0
   -4.9380    9.0220  -22.7610 N   0  0  0  0  0  0  0  0  0  0  0  0
   -6.6860    5.8470  -19.6950 C   0  0  0  0  0  0  0  0  0  0  0  0
   -7.6040    5.4300  -18.7110 C   0  0  0  0  0  0  0  0  0  0  0  0
   -8.9090    5.0190  -19.0770 C   0  0  0  0  0  0  0  0  0  0  0  0
   -9.8770    4.6400  -18.1400 C   0  0  0  0  0  0  0  0  0  0  0  0
  -10.3000    4.3680  -16.0240 H   0  0  0  0  0  0  0  0  0  0  0  0
   -7.8940    5.0580  -15.2440 H   0  0  0  0  0  0  0  0  0  0  0  0
   -5.5730    5.8450  -15.8250 H   0  0  0  0  0  0  0  0  0  0  0  0
   -3.8910    6.6400  -17.6910 H   0  0  0  0  0  0  0  0  0  0  0  0
   -3.3700    6.6960  -21.9390 H   0  0  0  0  0  0  0  0  0  0  0  0
   -4.6100    5.5310  -21.8390 H   0  0  0  0  0  0  0  0  0  0  0  0
   -5.3770   11.3510  -24.2090 H   0  0  0  0  0  0  0  0  0  0  0  0
   -7.0730   11.0820  -24.2520 H   0  0  0  0  0  0  0  0  0  0  0  0
   -5.0430    9.6370  -26.1870 H   0  0  0  0  0  0  0  0  0  0  0  0
   -5.5730   11.2230  -26.4440 H   0  0  0  0  0  0  0  0  0  0  0  0
   -8.6360    6.0040  -28.0880 H   0  0  0  0  0  0  0  0  0  0  0  0
  -11.1500    6.1080  -28.9470 H   0  0  0  0  0  0  0  0  0  0  0  0
  -12.4100    8.3930  -28.8410 H   0  0  0  0  0  0  0  0  0  0  0  0
  -11.2430   10.5570  -27.9280 H   0  0  0  0  0  0  0  0  0  0  0  0
   -8.6040   11.3740  -26.7960 H   0  0  0  0  0  0  0  0  0  0  0  0
   -7.0190    5.8270  -20.7210 H   0  0  0  0  0  0  0  0  0  0  0  0
   -9.1930    5.0060  -20.1270 H   0  0  0  0  0  0  0  0  0  0  0  0
  -10.8660    4.3490  -18.4770 H   0  0  0  0  0  0  0  0  0  0  0  0
  1  2  2  0
  2  3  1  0
  3  4  2  0
  4  5  1  0
  5  6  2  0
  6  7  1  0
  7  8  1  0
  8  9  1  0
  9 10  2  0
 10 11  1  0
 11 12  1  0
 12 13  1  0
 13 14  1  0
 14 15  1  0
 15 16  2  0
 16 17  1  0
 17 18  2  0
 18 19  1  0
 19 20  2  0
 20 21  1  0
 21 22  2  0
 22 23  1  0
 12 24  2  0
  6 25  1  0
 25 26  2  0
 26 27  1  0
 27 28  2  0
 28  1  1  0
 26  3  1  0
 24  9  1  0
 23 15  1  0
 22 17  1  0
  1 29  1  0
  2 30  1  0
  4 31  1  0
  5 32  1  0
  8 33  1  0
  8 34  1  0
 13 35  1  0
 13 36  1  0
 14 37  1  0
 14 38  1  0
 18 39  1  0
 19 40  1  0
 20 41  1  0
 21 42  1  0
 23 43  1  0
 25 44  1  0
 27 45  1  0
 28 46  1  0
A    1
 C1 
A    2
 C2 
A    3
 C3 
A    4
 C4 
A    5
 C5 
A    6
 C6 
A    7
 O1 
A    8
 C7 
A    9
 C8 
A   10
 N1 
A   11
 O2 
A   12
 C9 
A   13
 C10
A   14
 C11
A   15
 C12
A   16
 N2 
A   17
 C13
A   18
 C14
A   19
 C15
A   20
 C16
A   21
 C17
A   22
 C18
A   23
 N3 
A   24
 N4 
A   25
 C19
A   26
 C20
A   27
 C21
A   28
 C22
A   29
 H1 
A   30
 H2 
A   31
 H3 
A   32
 H4 
A   33
 H5 
A   34
 H6 
A   35
 H7 
A   36
 H8 
A   37
 H9 
A   38
 H10
A   39
 H11
A   40
 H12
A   41
 H13
A   42
 H14
A   43
 H15
A   44
 H16
A   45
 H17
A   46
 H18
M  END
>  <ref_pdb>  (244) 
x0051_0B

>  <ref_mols>  (244) 
x0727_0B,x0846_1B

>  <original SMILES>  (244) 
[H]c1c([H])c([H])c2c(nc(C([H])([H])C([H])([H])c3nc(C([H])([H])Oc4c([H])c([H])c5c([H])c([H])c([H])c([H])c5c4[H])no3)n2[H])c1[H]

>  <index>  (244) 
2026

>  <∆∆G>  (244) 
-7.583878

>  <∆G_bound>  (244) 
-6.801229

>  <∆G_unbound>  (244) 
0.782649

>  <comRMSD>  (244) 
0.856144

>  <N_constrained_atoms>  (244) 
29.0

>  <N_unconstrained_atoms>  (244) 
1.0

>  <runtime>  (244) 
36.495273

>  <LE>  (244) 
0.252796

>  <percent_hybrid>  (244) 
38.0

>  <dist>  (244) 
9.0

>  <ecfp4>  (244) 
0.270588

>  <daylight>  (244) 
0.266409

>  <topodist>  (244) 
4.0

>  <mces>  (244) 
32.0

>  <tdn>  (244) 
3.0

>  <tup>  (244) 
0.0

>  <rdn>  (244) 
0.0

>  <rup>  (244) 
0.0

>  <ldn>  (244) 
1.0

>  <lup>  (244) 
0.0

>  <mut>  (244) 
5.0

>  <maj>  (244) 
5.0

>  <min>  (244) 
0.0

>  <hyb>  (244) 
0.0

>  <sub>  (244) 
1.0

>  <query_index>  (244) 
15.0

>  <max_hit_Tanimoto>  (244) 
0.292929

>  <largest_ring>  (244) 
6

>  <N_interactions_kept>  (244) 
0.5

>  <N_interactions_lost>  (244) 
2.5

>  <interaction_uniqueness_metric>  (244) 
0.139156

>  <ad_hoc_penalty>  (244) 
-7.552982

>  <N_rotatable_bonds>  (244) 
6

>  <N_HA>  (244) 
28

>  <cluster>  (244) 
4363

>  <N_interactions>  (244) 
5

>  <Enamine>  (244) 
1

>  <Mcule>  (244) 
0

>  <N_PAINS>  (244) 
0

>  <UFF_Gibbs>  (244) 
156.091884

>  <strain_per_HA>  (244) 
5.57471

>  <intxn_scored>  (244) 
9.5

>  <saltbridge:HIS:51>  (244) 
0

>  <pistack:HIS:51>  (244) 
0

>  <hydroph_interaction:HIS:51>  (244) 
0

>  <hbond:ALA:132>  (244) 
0

>  <hbond:SER:135>  (244) 
0

>  <hydroph_interaction:TYR:150>  (244) 
1

>  <pistack:TYR:161>  (244) 
2

>  <hydroph_interaction:TYR:161>  (244) 
0

>  <hydroph_interaction:ASP:83>  (244) 
0

>  <hbond:TYR:130>  (244) 
0

>  <hydroph_interaction:ALA:132>  (244) 
0

>  <hbond:HIS:51>  (244) 
0

>  <hbond:ASP:129>  (244) 
0

>  <hbond:TYR:150>  (244) 
0

>  <hbond:GLY:151>  (244) 
0

>  <hbond:TYR:161>  (244) 
0

>  <hydroph_interaction:TYR:130>  (244) 
1

>  <hydroph_interaction:PRO:131>  (244) 
1

>  <hydroph_interaction:ASP:129>  (244) 
0

>  <saltbridge:ASP:75>  (244) 
0

>  <saltbridge:ASP:83>  (244) 
0

>  <hbond:ASN:152>  (244) 
0

>  <hydroph_interaction:ASN:152>  (244) 
0

>  <halogenbond:TYR:150>  (244) 
0

>  <hbond:ASP:83>  (244) 
0

>  <hydroph_interaction:VAL:155>  (244) 
0

>  <pication:TYR:161>  (244) 
0

>  <hbond:PRO:131>  (244) 
0

>  <saltbridge:ASP:129>  (244) 
0

>  <hbond:THR:134>  (244) 
0

>  <pication:HIS:51>  (244) 
0

>  <hbond:SER:81>  (244) 
0

>  <hydroph_interaction:THR:134>  (244) 
0

>  <hydroph_interaction:MET:49>  (244) 
0

$$$$
CSSS00011218179
     RDKit          3D

 18 18  0  0  0  0  0  0  0  0999 V2000
  -10.2810    4.7480  -17.7440 C   0  0  0  0  0  0  0  0  0  0  0  0
   -8.8330    4.9360  -17.6550 C   0  0  0  0  0  0  0  0  0  0  0  0
   -8.0970    5.1100  -16.5070 C   0  0  0  0  0  0  0  0  0  0  0  0
   -6.7160    5.2770  -16.5690 C   0  0  0  0  0  0  0  0  0  0  0  0
   -5.9440    5.4500  -15.4150 N   0  0  0  0  0  0  0  0  0  0  0  0
   -6.0470    5.2750  -17.7980 C   0  0  0  0  0  0  0  0  0  0  0  0
   -6.7830    5.1000  -18.9620 C   0  0  0  0  0  0  0  0  0  0  0  0
   -8.1630    4.9300  -18.8660 C   0  0  0  0  0  0  0  0  0  0  0  0
   -8.7850    4.7540  -20.0580 O   0  0  0  0  0  0  0  0  0  0  0  0
  -10.6540    4.3860  -16.7900 H   0  0  0  0  0  0  0  0  0  0  0  0
  -10.5070    4.0220  -18.5220 H   0  0  0  0  0  0  0  0  0  0  0  0
  -10.8030    5.6690  -17.9940 H   0  0  0  0  0  0  0  0  0  0  0  0
   -8.5620    5.1200  -15.5270 H   0  0  0  0  0  0  0  0  0  0  0  0
   -6.2920    4.9440  -14.6080 H   0  0  0  0  0  0  0  0  0  0  0  0
   -5.7360    6.4220  -15.2010 H   0  0  0  0  0  0  0  0  0  0  0  0
   -4.9710    5.4040  -17.8490 H   0  0  0  0  0  0  0  0  0  0  0  0
   -6.2930    5.0910  -19.9310 H   0  0  0  0  0  0  0  0  0  0  0  0
   -8.6280    5.5060  -20.6600 H   0  0  0  0  0  0  0  0  0  0  0  0
  1  2  1  0
  2  3  2  0
  3  4  1  0
  4  5  1  0
  4  6  2  0
  6  7  1  0
  7  8  2  0
  8  9  1  0
  8  2  1  0
  1 10  1  0
  1 11  1  0
  1 12  1  0
  3 13  1  0
  5 14  1  0
  5 15  1  0
  6 16  1  0
  7 17  1  0
  9 18  1  0
A    1
 C1 
A    2
 C2 
A    3
 C3 
A    4
 C4 
A    5
 N1 
A    6
 C5 
A    7
 C6 
A    8
 C7 
A    9
 O1 
A   10
 H1 
A   11
 H2 
A   12
 H3 
A   13
 H4 
A   14
 H5 
A   15
 H6 
A   16
 H7 
A   17
 H8 
A   18
 H9 
M  END
>  <ref_pdb>  (245) 
x0051_0B

>  <ref_mols>  (245) 
x0605_0B,x0386_0B

>  <original SMILES>  (245) 
[H]Oc1c([H])c([H])c(N([H])[H])c([H])c1C([H])([H])[H]

>  <index>  (245) 
1974

>  <∆∆G>  (245) 
-5.914549

>  <∆G_bound>  (245) 
-5.865775

>  <∆G_unbound>  (245) 
0.048774

>  <comRMSD>  (245) 
0.608972

>  <N_constrained_atoms>  (245) 
12.0

>  <N_unconstrained_atoms>  (245) 
0.0

>  <runtime>  (245) 
29.243413

>  <LE>  (245) 
0.492879

>  <percent_hybrid>  (245) 
38.0

>  <dist>  (245) 
3.0

>  <ecfp4>  (245) 
0.243243

>  <daylight>  (245) 
0.5

>  <topodist>  (245) 
3.0

>  <mces>  (245) 
8.0

>  <tdn>  (245) 
2.0

>  <tup>  (245) 
1.0

>  <rdn>  (245) 
0.0

>  <rup>  (245) 
0.0

>  <ldn>  (245) 
0.0

>  <lup>  (245) 
0.0

>  <mut>  (245) 
0.0

>  <maj>  (245) 
0.0

>  <min>  (245) 
0.0

>  <hyb>  (245) 
0.0

>  <sub>  (245) 
2.0

>  <query_index>  (245) 
312.0

>  <max_hit_Tanimoto>  (245) 
0.096026

>  <largest_ring>  (245) 
6

>  <N_interactions_kept>  (245) 
0.0

>  <N_interactions_lost>  (245) 
2.5

>  <interaction_uniqueness_metric>  (245) 
0.072445

>  <ad_hoc_penalty>  (245) 
-9.387961

>  <N_rotatable_bonds>  (245) 
3

>  <N_HA>  (245) 
9

>  <cluster>  (245) 
4409

>  <N_interactions>  (245) 
5

>  <Enamine>  (245) 
1

>  <Mcule>  (245) 
0

>  <N_PAINS>  (245) 
0

>  <UFF_Gibbs>  (245) 
29.705503

>  <strain_per_HA>  (245) 
3.300611

>  <intxn_scored>  (245) 
9.5

>  <saltbridge:HIS:51>  (245) 
0

>  <pistack:HIS:51>  (245) 
0

>  <hydroph_interaction:HIS:51>  (245) 
0

>  <hbond:ALA:132>  (245) 
0

>  <hbond:SER:135>  (245) 
0

>  <hydroph_interaction:TYR:150>  (245) 
1

>  <pistack:TYR:161>  (245) 
1

>  <hydroph_interaction:TYR:161>  (245) 
1

>  <hydroph_interaction:ASP:83>  (245) 
0

>  <hbond:TYR:130>  (245) 
2

>  <hydroph_interaction:ALA:132>  (245) 
0

>  <hbond:HIS:51>  (245) 
0

>  <hbond:ASP:129>  (245) 
0

>  <hbond:TYR:150>  (245) 
0

>  <hbond:GLY:151>  (245) 
0

>  <hbond:TYR:161>  (245) 
0

>  <hydroph_interaction:TYR:130>  (245) 
0

>  <hydroph_interaction:PRO:131>  (245) 
0

>  <hydroph_interaction:ASP:129>  (245) 
0

>  <saltbridge:ASP:75>  (245) 
0

>  <saltbridge:ASP:83>  (245) 
0

>  <hbond:ASN:152>  (245) 
0

>  <hydroph_interaction:ASN:152>  (245) 
0

>  <halogenbond:TYR:150>  (245) 
0

>  <hbond:ASP:83>  (245) 
0

>  <hydroph_interaction:VAL:155>  (245) 
0

>  <pication:TYR:161>  (245) 
0

>  <hbond:PRO:131>  (245) 
0

>  <saltbridge:ASP:129>  (245) 
0

>  <hbond:THR:134>  (245) 
0

>  <pication:HIS:51>  (245) 
0

>  <hbond:SER:81>  (245) 
0

>  <hydroph_interaction:THR:134>  (245) 
0

>  <hydroph_interaction:MET:49>  (245) 
0

$$$$
CSSB00025766883
     RDKit          3D

 33 35  0  0  0  0  0  0  0  0999 V2000
   -6.6030    5.0020  -14.7290 C   0  0  0  0  0  0  0  0  0  0  0  0
   -7.8260    5.6650  -15.1370 N   0  0  0  0  0  0  0  0  0  0  0  0
   -8.8770    5.6890  -14.2540 N   0  0  0  0  0  0  0  0  0  0  0  0
   -9.1410    6.8730  -13.8150 C   0  0  0  0  0  0  0  0  0  0  0  0
  -10.1450    7.2130  -12.9780 N   0  0  0  0  0  0  0  0  0  0  0  0
  -10.4810    8.5860  -13.2190 C   0  0  0  0  0  0  0  0  0  0  0  0
   -9.1030    9.1560  -13.5530 C   0  0  0  0  0  0  0  0  0  0  0  0
   -8.4030    8.0560  -14.1570 O   0  0  0  0  0  0  0  0  0  0  0  0
   -8.1780    5.3570  -16.4910 C   0  0  0  0  0  0  0  0  0  0  0  0
   -9.5160    4.9920  -16.6850 C   0  0  0  0  0  0  0  0  0  0  0  0
  -10.0030    4.6800  -17.9550 C   0  0  0  0  0  0  0  0  0  0  0  0
   -9.1570    4.7200  -19.0460 C   0  0  0  0  0  0  0  0  0  0  0  0
   -7.8270    5.0740  -18.8900 C   0  0  0  0  0  0  0  0  0  0  0  0
   -7.0210    5.1040  -20.0060 C   0  0  0  0  0  0  0  0  0  0  0  0
   -5.6110    5.4760  -19.9010 C   0  0  0  0  0  0  0  0  0  0  0  0
   -5.0820    5.7990  -18.6590 C   0  0  0  0  0  0  0  0  0  0  0  0
   -5.9310    5.7570  -17.5310 C   0  0  0  0  0  0  0  0  0  0  0  0
   -7.2990    5.4020  -17.6120 C   0  0  0  0  0  0  0  0  0  0  0  0
   -6.0280    4.6810  -15.6020 H   0  0  0  0  0  0  0  0  0  0  0  0
   -6.8410    4.0930  -14.1720 H   0  0  0  0  0  0  0  0  0  0  0  0
   -5.9560    5.6220  -14.1040 H   0  0  0  0  0  0  0  0  0  0  0  0
  -10.8890    6.5140  -12.8970 H   0  0  0  0  0  0  0  0  0  0  0  0
  -10.8940    9.0550  -12.3170 H   0  0  0  0  0  0  0  0  0  0  0  0
  -11.1480    8.7400  -14.0760 H   0  0  0  0  0  0  0  0  0  0  0  0
   -8.5920    9.4970  -12.6460 H   0  0  0  0  0  0  0  0  0  0  0  0
   -9.1860    9.9790  -14.2710 H   0  0  0  0  0  0  0  0  0  0  0  0
  -10.1830    4.9570  -15.8300 H   0  0  0  0  0  0  0  0  0  0  0  0
  -11.0450    4.4070  -18.0870 H   0  0  0  0  0  0  0  0  0  0  0  0
   -9.5450    4.4740  -20.0310 H   0  0  0  0  0  0  0  0  0  0  0  0
   -7.3480    4.8640  -21.0230 H   0  0  0  0  0  0  0  0  0  0  0  0
   -4.9790    5.4970  -20.7990 H   0  0  0  0  0  0  0  0  0  0  0  0
   -4.0520    6.0870  -18.4760 H   0  0  0  0  0  0  0  0  0  0  0  0
   -5.4960    6.0120  -16.5670 H   0  0  0  0  0  0  0  0  0  0  0  0
  1  2  1  0
  2  3  1  0
  3  4  2  0
  4  5  1  0
  5  6  1  0
  6  7  1  0
  7  8  1  0
  2  9  1  0
  9 10  2  0
 10 11  1  0
 11 12  2  0
 12 13  1  0
 13 14  2  0
 14 15  1  0
 15 16  2  0
 16 17  1  0
 17 18  2  0
  8  4  1  0
 18  9  1  0
 18 13  1  0
  1 19  1  0
  1 20  1  0
  1 21  1  0
  5 22  1  0
  6 23  1  0
  6 24  1  0
  7 25  1  0
  7 26  1  0
 10 27  1  0
 11 28  1  0
 12 29  1  0
 14 30  1  0
 15 31  1  0
 16 32  1  0
 17 33  1  0
A    1
 C1 
A    2
 N1 
A    3
 N2 
A    4
 C2 
A    5
 N3 
A    6
 C3 
A    7
 C4 
A    8
 O1 
A    9
 C5 
A   10
 C6 
A   11
 C7 
A   12
 C8 
A   13
 C9 
A   14
 C10
A   15
 C11
A   16
 C12
A   17
 C13
A   18
 C14
A   19
 H1 
A   20
 H2 
A   21
 H3 
A   22
 H4 
A   23
 H5 
A   24
 H6 
A   25
 H7 
A   26
 H8 
A   27
 H9 
A   28
 H10
A   29
 H11
A   30
 H12
A   31
 H13
A   32
 H14
A   33
 H15
M  END
>  <ref_pdb>  (246) 
x0051_0B

>  <ref_mols>  (246) 
x0429_0B,x0951_0B

>  <original SMILES>  (246) 
[H]c1c([H])c([H])c2c(N(/N=C3\OC([H])([H])C([H])([H])N3[H])C([H])([H])[H])c([H])c([H])c([H])c2c1[H]

>  <index>  (246) 
1820

>  <∆∆G>  (246) 
-7.959565

>  <∆G_bound>  (246) 
-7.994956

>  <∆G_unbound>  (246) 
-0.035391

>  <comRMSD>  (246) 
0.738152

>  <N_constrained_atoms>  (246) 
17.0

>  <N_unconstrained_atoms>  (246) 
3.0

>  <runtime>  (246) 
50.241493

>  <LE>  (246) 
0.397978

>  <percent_hybrid>  (246) 
50.0

>  <dist>  (246) 
10.0

>  <ecfp4>  (246) 
0.138889

>  <daylight>  (246) 
0.096939

>  <topodist>  (246) 
4.0

>  <mces>  (246) 
20.0

>  <tdn>  (246) 
2.0

>  <tup>  (246) 
0.0

>  <rdn>  (246) 
1.0

>  <rup>  (246) 
0.0

>  <ldn>  (246) 
1.0

>  <lup>  (246) 
0.0

>  <mut>  (246) 
4.0

>  <maj>  (246) 
4.0

>  <min>  (246) 
0.0

>  <hyb>  (246) 
2.0

>  <sub>  (246) 
2.0

>  <query_index>  (246) 
76.0

>  <max_hit_Tanimoto>  (246) 
0.255201

>  <largest_ring>  (246) 
6

>  <N_interactions_kept>  (246) 
0.0

>  <N_interactions_lost>  (246) 
3.0

>  <interaction_uniqueness_metric>  (246) 
0.080834

>  <ad_hoc_penalty>  (246) 
-9.287268

>  <N_rotatable_bonds>  (246) 
3

>  <N_HA>  (246) 
18

>  <cluster>  (246) 
4548

>  <N_interactions>  (246) 
5

>  <Enamine>  (246) 
1

>  <Mcule>  (246) 
0

>  <N_PAINS>  (246) 
0

>  <UFF_Gibbs>  (246) 
78.539711

>  <strain_per_HA>  (246) 
4.363317

>  <intxn_scored>  (246) 
9.5

>  <saltbridge:HIS:51>  (246) 
0

>  <pistack:HIS:51>  (246) 
0

>  <hydroph_interaction:HIS:51>  (246) 
0

>  <hbond:ALA:132>  (246) 
0

>  <hbond:SER:135>  (246) 
0

>  <hydroph_interaction:TYR:150>  (246) 
1

>  <pistack:TYR:161>  (246) 
2

>  <hydroph_interaction:TYR:161>  (246) 
1

>  <hydroph_interaction:ASP:83>  (246) 
0

>  <hbond:TYR:130>  (246) 
0

>  <hydroph_interaction:ALA:132>  (246) 
0

>  <hbond:HIS:51>  (246) 
0

>  <hbond:ASP:129>  (246) 
0

>  <hbond:TYR:150>  (246) 
0

>  <hbond:GLY:151>  (246) 
1

>  <hbond:TYR:161>  (246) 
0

>  <hydroph_interaction:TYR:130>  (246) 
0

>  <hydroph_interaction:PRO:131>  (246) 
0

>  <hydroph_interaction:ASP:129>  (246) 
0

>  <saltbridge:ASP:75>  (246) 
0

>  <saltbridge:ASP:83>  (246) 
0

>  <hbond:ASN:152>  (246) 
0

>  <hydroph_interaction:ASN:152>  (246) 
0

>  <halogenbond:TYR:150>  (246) 
0

>  <hbond:ASP:83>  (246) 
0

>  <hydroph_interaction:VAL:155>  (246) 
0

>  <pication:TYR:161>  (246) 
0

>  <hbond:PRO:131>  (246) 
0

>  <saltbridge:ASP:129>  (246) 
0

>  <hbond:THR:134>  (246) 
0

>  <pication:HIS:51>  (246) 
0

>  <hbond:SER:81>  (246) 
0

>  <hydroph_interaction:THR:134>  (246) 
0

>  <hydroph_interaction:MET:49>  (246) 
0

$$$$
CSSB00012353951
     RDKit          3D

 20 21  0  0  0  0  0  0  0  0999 V2000
   -9.8470    4.8440  -19.0160 C   0  0  0  0  0  0  0  0  0  0  0  0
   -8.8820    4.9900  -17.8860 C   0  0  0  0  0  0  0  0  0  0  0  0
   -9.3440    4.9240  -16.5730 C   0  0  0  0  0  0  0  0  0  0  0  0
   -8.4630    5.0470  -15.5230 C   0  0  0  0  0  0  0  0  0  0  0  0
   -7.1170    5.2280  -15.7910 C   0  0  0  0  0  0  0  0  0  0  0  0
   -6.6260    5.2970  -17.1190 C   0  0  0  0  0  0  0  0  0  0  0  0
   -5.2720    5.4690  -17.4800 C   0  0  0  0  0  0  0  0  0  0  0  0
   -3.8840    5.6190  -16.1960 Br  0  0  0  0  0  0  0  0  0  0  0  0
   -4.8810    5.5310  -18.8090 C   0  0  0  0  0  0  0  0  0  0  0  0
   -5.8630    5.4160  -19.7600 C   0  0  0  0  0  0  0  0  0  0  0  0
   -7.1620    5.2430  -19.4640 N   0  0  0  0  0  0  0  0  0  0  0  0
   -7.5380    5.1820  -18.1790 C   0  0  0  0  0  0  0  0  0  0  0  0
  -10.8820    4.8680  -18.6520 H   0  0  0  0  0  0  0  0  0  0  0  0
   -9.7340    5.6290  -19.7690 H   0  0  0  0  0  0  0  0  0  0  0  0
   -9.6410    3.8910  -19.5070 H   0  0  0  0  0  0  0  0  0  0  0  0
  -10.3950    4.7730  -16.3650 H   0  0  0  0  0  0  0  0  0  0  0  0
   -8.8210    4.9970  -14.5020 H   0  0  0  0  0  0  0  0  0  0  0  0
   -6.4410    5.3150  -14.9430 H   0  0  0  0  0  0  0  0  0  0  0  0
   -3.8460    5.6630  -19.1010 H   0  0  0  0  0  0  0  0  0  0  0  0
   -5.6310    5.4560  -20.8190 H   0  0  0  0  0  0  0  0  0  0  0  0
  1  2  1  0
  2  3  2  0
  3  4  1  0
  4  5  2  0
  5  6  1  0
  6  7  2  0
  7  8  1  0
  7  9  1  0
  9 10  2  0
 10 11  1  0
 11 12  2  0
 12  2  1  0
 12  6  1  0
  1 13  1  0
  1 14  1  0
  1 15  1  0
  3 16  1  0
  4 17  1  0
  5 18  1  0
  9 19  1  0
 10 20  1  0
A    1
 C1 
A    2
 C2 
A    3
 C3 
A    4
 C4 
A    5
 C5 
A    6
 C6 
A    7
 C7 
A    8
BR1 
A    9
 C8 
A   10
 C9 
A   11
 N1 
A   12
 C10
A   13
 H1 
A   14
 H2 
A   15
 H3 
A   16
 H4 
A   17
 H5 
A   18
 H6 
A   19
 H7 
A   20
 H8 
M  END
>  <ref_pdb>  (247) 
x0051_0B

>  <ref_mols>  (247) 
x0425_0B,x0435_0B

>  <original SMILES>  (247) 
[H]c1nc2c(C([H])([H])[H])c([H])c([H])c([H])c2c(Br)c1[H]

>  <index>  (247) 
1394

>  <∆∆G>  (247) 
-7.071282

>  <∆G_bound>  (247) 
-7.194651

>  <∆G_unbound>  (247) 
-0.123369

>  <comRMSD>  (247) 
0.61319

>  <N_constrained_atoms>  (247) 
12.0

>  <N_unconstrained_atoms>  (247) 
1.0

>  <runtime>  (247) 
25.592847

>  <LE>  (247) 
0.543945

>  <percent_hybrid>  (247) 
50.0

>  <dist>  (247) 
2.0

>  <ecfp4>  (247) 
0.540541

>  <daylight>  (247) 
0.561644

>  <topodist>  (247) 
1.0

>  <mces>  (247) 
13.0

>  <tdn>  (247) 
1.0

>  <tup>  (247) 
0.0

>  <rdn>  (247) 
0.0

>  <rup>  (247) 
0.0

>  <ldn>  (247) 
0.0

>  <lup>  (247) 
0.0

>  <mut>  (247) 
1.0

>  <maj>  (247) 
1.0

>  <min>  (247) 
0.0

>  <hyb>  (247) 
0.0

>  <sub>  (247) 
0.0

>  <query_index>  (247) 
107.0

>  <max_hit_Tanimoto>  (247) 
0.145946

>  <largest_ring>  (247) 
6

>  <N_interactions_kept>  (247) 
1.0

>  <N_interactions_lost>  (247) 
2.5

>  <interaction_uniqueness_metric>  (247) 
0.04341

>  <ad_hoc_penalty>  (247) 
-15.582608

>  <N_rotatable_bonds>  (247) 
1

>  <N_HA>  (247) 
12

>  <cluster>  (247) 
4939

>  <N_interactions>  (247) 
4

>  <Enamine>  (247) 
1

>  <Mcule>  (247) 
0

>  <N_PAINS>  (247) 
0

>  <UFF_Gibbs>  (247) 
6.544679

>  <strain_per_HA>  (247) 
0.54539

>  <intxn_scored>  (247) 
9.5

>  <saltbridge:HIS:51>  (247) 
0

>  <pistack:HIS:51>  (247) 
0

>  <hydroph_interaction:HIS:51>  (247) 
0

>  <hbond:ALA:132>  (247) 
0

>  <hbond:SER:135>  (247) 
0

>  <hydroph_interaction:TYR:150>  (247) 
1

>  <pistack:TYR:161>  (247) 
2

>  <hydroph_interaction:TYR:161>  (247) 
1

>  <hydroph_interaction:ASP:83>  (247) 
0

>  <hbond:TYR:130>  (247) 
0

>  <hydroph_interaction:ALA:132>  (247) 
0

>  <hbond:HIS:51>  (247) 
0

>  <hbond:ASP:129>  (247) 
0

>  <hbond:TYR:150>  (247) 
0

>  <hbond:GLY:151>  (247) 
0

>  <hbond:TYR:161>  (247) 
0

>  <hydroph_interaction:TYR:130>  (247) 
0

>  <hydroph_interaction:PRO:131>  (247) 
0

>  <hydroph_interaction:ASP:129>  (247) 
0

>  <saltbridge:ASP:75>  (247) 
0

>  <saltbridge:ASP:83>  (247) 
0

>  <hbond:ASN:152>  (247) 
0

>  <hydroph_interaction:ASN:152>  (247) 
0

>  <halogenbond:TYR:150>  (247) 
0

>  <hbond:ASP:83>  (247) 
0

>  <hydroph_interaction:VAL:155>  (247) 
0

>  <pication:TYR:161>  (247) 
0

>  <hbond:PRO:131>  (247) 
0

>  <saltbridge:ASP:129>  (247) 
0

>  <hbond:THR:134>  (247) 
0

>  <pication:HIS:51>  (247) 
0

>  <hbond:SER:81>  (247) 
0

>  <hydroph_interaction:THR:134>  (247) 
0

>  <hydroph_interaction:MET:49>  (247) 
0

$$$$
Z3289547512
     RDKit          3D

 55 59  0  0  0  0  0  0  0  0999 V2000
  -11.1690    4.9330  -18.6490 C   0  0  0  0  0  0  0  0  0  0  0  0
   -9.8230    4.9660  -18.1820 C   0  0  0  0  0  0  0  0  0  0  0  0
   -9.4620    4.9110  -16.8330 C   0  0  0  0  0  0  0  0  0  0  0  0
   -8.1260    5.0200  -16.5430 C   0  0  0  0  0  0  0  0  0  0  0  0
   -7.1240    5.1910  -17.5940 C   0  0  0  0  0  0  0  0  0  0  0  0
   -7.5520    5.2210  -18.9140 C   0  0  0  0  0  0  0  0  0  0  0  0
   -8.8880    5.1010  -19.1910 C   0  0  0  0  0  0  0  0  0  0  0  0
   -6.5290    5.3840  -19.8410 N   0  0  0  0  0  0  0  0  0  0  0  0
   -5.4410    5.4670  -19.0050 C   0  0  0  0  0  0  0  0  0  0  0  0
   -4.2000    5.6620  -19.5950 C   0  0  0  0  0  0  0  0  0  0  0  0
   -4.3490    6.6730  -20.4400 N   0  0  0  0  0  0  0  0  0  0  0  0
   -5.0870    6.4650  -21.5760 C   0  0  0  0  0  0  0  0  0  0  0  0
   -5.4780    5.3730  -21.9620 O   0  0  0  0  0  0  0  0  0  0  0  0
   -5.3670    7.5990  -22.3090 C   0  0  0  0  0  0  0  0  0  0  0  0
   -6.1170    7.4170  -23.6240 C   0  0  0  0  0  0  0  0  0  0  0  0
   -6.4280    8.6160  -24.4510 C   0  0  0  0  0  0  0  0  0  0  0  0
   -5.9150    9.8770  -23.8150 C   0  0  0  0  0  0  0  0  0  0  0  0
   -6.2710   10.9960  -24.7510 C   0  0  0  0  0  0  0  0  0  0  0  0
   -5.8870   10.5400  -26.4670 S   0  0  0  0  0  0  0  0  0  0  0  0
   -7.2640    9.6570  -27.0030 C   0  0  0  0  0  0  0  0  0  0  0  0
   -7.3440    8.3830  -27.3270 N   0  0  0  0  0  0  0  0  0  0  0  0
   -8.6610    8.2020  -27.6740 C   0  0  0  0  0  0  0  0  0  0  0  0
   -9.3940    6.9950  -28.1230 C   0  0  0  0  0  0  0  0  0  0  0  0
  -10.7610    7.0940  -28.4060 C   0  0  0  0  0  0  0  0  0  0  0  0
  -11.4150    8.3260  -28.2640 C   0  0  0  0  0  0  0  0  0  0  0  0
  -10.7470    9.4900  -27.8440 C   0  0  0  0  0  0  0  0  0  0  0  0
   -9.3770    9.3890  -27.5590 C   0  0  0  0  0  0  0  0  0  0  0  0
   -8.4500   10.2980  -27.1310 N   0  0  0  0  0  0  0  0  0  0  0  0
   -5.2340    9.9850  -22.5940 C   0  0  0  0  0  0  0  0  0  0  0  0
   -4.9580    8.8550  -21.8390 C   0  0  0  0  0  0  0  0  0  0  0  0
   -5.7640    5.3440  -17.6750 N   0  0  0  0  0  0  0  0  0  0  0  0
   -4.8310    5.3780  -16.5880 C   0  0  0  0  0  0  0  0  0  0  0  0
  -11.6720    3.9870  -18.5110 H   0  0  0  0  0  0  0  0  0  0  0  0
  -11.6880    5.6960  -18.1380 H   0  0  0  0  0  0  0  0  0  0  0  0
  -11.1890    5.2430  -19.6870 H   0  0  0  0  0  0  0  0  0  0  0  0
  -10.1870    4.8000  -16.0320 H   0  0  0  0  0  0  0  0  0  0  0  0
   -7.7320    4.9940  -15.5200 H   0  0  0  0  0  0  0  0  0  0  0  0
   -9.2290    5.1310  -20.2210 H   0  0  0  0  0  0  0  0  0  0  0  0
   -3.7730    4.8710  -20.1950 H   0  0  0  0  0  0  0  0  0  0  0  0
   -3.4030    5.9480  -18.9120 H   0  0  0  0  0  0  0  0  0  0  0  0
   -3.5860    7.3330  -20.4820 H   0  0  0  0  0  0  0  0  0  0  0  0
   -6.4710    6.4750  -24.0550 H   0  0  0  0  0  0  0  0  0  0  0  0
   -6.9650    8.4680  -25.3900 H   0  0  0  0  0  0  0  0  0  0  0  0
   -7.3390   11.1630  -24.6800 H   0  0  0  0  0  0  0  0  0  0  0  0
   -5.8340   11.9730  -24.5640 H   0  0  0  0  0  0  0  0  0  0  0  0
   -8.8710    6.0440  -28.2270 H   0  0  0  0  0  0  0  0  0  0  0  0
  -11.3140    6.2190  -28.7350 H   0  0  0  0  0  0  0  0  0  0  0  0
  -12.4820    8.3890  -28.4870 H   0  0  0  0  0  0  0  0  0  0  0  0
  -11.2800   10.4280  -27.7440 H   0  0  0  0  0  0  0  0  0  0  0  0
   -8.6020   11.2760  -26.9340 H   0  0  0  0  0  0  0  0  0  0  0  0
   -4.9110   10.9630  -22.2260 H   0  0  0  0  0  0  0  0  0  0  0  0
   -4.4270    8.9550  -20.8960 H   0  0  0  0  0  0  0  0  0  0  0  0
   -5.2850    4.8920  -15.7180 H   0  0  0  0  0  0  0  0  0  0  0  0
   -3.9190    4.8570  -16.8900 H   0  0  0  0  0  0  0  0  0  0  0  0
   -4.5880    6.4100  -16.3320 H   0  0  0  0  0  0  0  0  0  0  0  0
  1  2  1  0
  2  3  2  0
  3  4  1  0
  4  5  2  0
  5  6  1  0
  6  7  2  0
  6  8  1  0
  8  9  2  0
  9 10  1  0
 10 11  1  0
 11 12  1  0
 12 13  2  0
 12 14  1  0
 14 15  2  0
 15 16  1  0
 16 17  2  0
 17 18  1  0
 18 19  1  0
 19 20  1  0
 20 21  2  0
 21 22  1  0
 22 23  2  0
 23 24  1  0
 24 25  2  0
 25 26  1  0
 26 27  2  0
 27 28  1  0
 17 29  1  0
 29 30  2  0
  9 31  1  0
 31 32  1  0
  7  2  1  0
 31  5  1  0
 30 14  1  0
 28 20  1  0
 27 22  1  0
  1 33  1  0
  1 34  1  0
  1 35  1  0
  3 36  1  0
  4 37  1  0
  7 38  1  0
 10 39  1  0
 10 40  1  0
 11 41  1  0
 15 42  1  0
 16 43  1  0
 18 44  1  0
 18 45  1  0
 23 46  1  0
 24 47  1  0
 25 48  1  0
 26 49  1  0
 28 50  1  0
 29 51  1  0
 30 52  1  0
 32 53  1  0
 32 54  1  0
 32 55  1  0
A    1
 C1 
A    2
 C2 
A    3
 C3 
A    4
 C4 
A    5
 C5 
A    6
 C6 
A    7
 C7 
A    8
 N1 
A    9
 C8 
A   10
 C9 
A   11
 N2 
A   12
 C10
A   13
 O1 
A   14
 C11
A   15
 C12
A   16
 C13
A   17
 C14
A   18
 C15
A   19
 S1 
A   20
 C16
A   21
 N3 
A   22
 C17
A   23
 C18
A   24
 C19
A   25
 C20
A   26
 C21
A   27
 C22
A   28
 N4 
A   29
 C23
A   30
 C24
A   31
 N5 
A   32
 C25
A   33
 H1 
A   34
 H2 
A   35
 H3 
A   36
 H4 
A   37
 H5 
A   38
 H6 
A   39
 H7 
A   40
 H8 
A   41
 H9 
A   42
 H10
A   43
 H11
A   44
 H12
A   45
 H13
A   46
 H14
A   47
 H15
A   48
 H16
A   49
 H17
A   50
 H18
A   51
 H19
A   52
 H20
A   53
 H21
A   54
 H22
A   55
 H23
M  END
>  <ref_pdb>  (248) 
x0051_0B

>  <ref_mols>  (248) 
x0846_1B,x0490_0B

>  <original SMILES>  (248) 
[H]c1c([H])c(C([H])([H])Sc2nc3c([H])c([H])c([H])c([H])c3n2[H])c([H])c([H])c1C(=O)N([H])C([H])([H])c1nc2c([H])c(C([H])([H])[H])c([H])c([H])c2n1C([H])([H])[H]

>  <index>  (248) 
969

>  <∆∆G>  (248) 
-8.883701

>  <∆G_bound>  (248) 
-8.118452

>  <∆G_unbound>  (248) 
0.765249

>  <comRMSD>  (248) 
0.665198

>  <N_constrained_atoms>  (248) 
29.0

>  <N_unconstrained_atoms>  (248) 
4.0

>  <runtime>  (248) 
59.947164

>  <LE>  (248) 
0.269203

>  <percent_hybrid>  (248) 
38.0

>  <dist>  (248) 
7.0

>  <ecfp4>  (248) 
0.244681

>  <daylight>  (248) 
0.351931

>  <topodist>  (248) 
5.0

>  <mces>  (248) 
33.0

>  <tdn>  (248) 
2.0

>  <tup>  (248) 
2.0

>  <rdn>  (248) 
0.0

>  <rup>  (248) 
0.0

>  <ldn>  (248) 
0.0

>  <lup>  (248) 
1.0

>  <mut>  (248) 
2.0

>  <maj>  (248) 
2.0

>  <min>  (248) 
0.0

>  <hyb>  (248) 
0.0

>  <sub>  (248) 
3.0

>  <query_index>  (248) 
51.0

>  <max_hit_Tanimoto>  (248) 
0.324879

>  <largest_ring>  (248) 
6

>  <N_interactions_kept>  (248) 
0.0

>  <N_interactions_lost>  (248) 
3.0

>  <interaction_uniqueness_metric>  (248) 
0.210454

>  <ad_hoc_penalty>  (248) 
-14.58792

>  <N_rotatable_bonds>  (248) 
8

>  <N_HA>  (248) 
32

>  <cluster>  (248) 
5330

>  <N_interactions>  (248) 
8

>  <Enamine>  (248) 
1

>  <Mcule>  (248) 
0

>  <N_PAINS>  (248) 
0

>  <UFF_Gibbs>  (248) 
204.708859

>  <strain_per_HA>  (248) 
6.397152

>  <intxn_scored>  (248) 
9.5

>  <saltbridge:HIS:51>  (248) 
0

>  <pistack:HIS:51>  (248) 
0

>  <hydroph_interaction:HIS:51>  (248) 
0

>  <hbond:ALA:132>  (248) 
0

>  <hbond:SER:135>  (248) 
0

>  <hydroph_interaction:TYR:150>  (248) 
1

>  <pistack:TYR:161>  (248) 
1

>  <hydroph_interaction:TYR:161>  (248) 
2

>  <hydroph_interaction:ASP:83>  (248) 
0

>  <hbond:TYR:130>  (248) 
1

>  <hydroph_interaction:ALA:132>  (248) 
0

>  <hbond:HIS:51>  (248) 
0

>  <hbond:ASP:129>  (248) 
1

>  <hbond:TYR:150>  (248) 
0

>  <hbond:GLY:151>  (248) 
0

>  <hbond:TYR:161>  (248) 
0

>  <hydroph_interaction:TYR:130>  (248) 
1

>  <hydroph_interaction:PRO:131>  (248) 
1

>  <hydroph_interaction:ASP:129>  (248) 
0

>  <saltbridge:ASP:75>  (248) 
0

>  <saltbridge:ASP:83>  (248) 
0

>  <hbond:ASN:152>  (248) 
0

>  <hydroph_interaction:ASN:152>  (248) 
0

>  <halogenbond:TYR:150>  (248) 
0

>  <hbond:ASP:83>  (248) 
0

>  <hydroph_interaction:VAL:155>  (248) 
0

>  <pication:TYR:161>  (248) 
0

>  <hbond:PRO:131>  (248) 
0

>  <saltbridge:ASP:129>  (248) 
0

>  <hbond:THR:134>  (248) 
0

>  <pication:HIS:51>  (248) 
0

>  <hbond:SER:81>  (248) 
0

>  <hydroph_interaction:THR:134>  (248) 
0

>  <hydroph_interaction:MET:49>  (248) 
0

$$$$
PV-002901798350
     RDKit          3D

 24 25  0  0  0  0  0  0  0  0999 V2000
  -10.9060    4.7610  -19.8700 C   0  0  0  0  0  0  0  0  0  0  0  0
   -9.6360    4.4590  -19.7210 C   0  0  0  0  0  0  0  0  0  0  0  0
   -8.7390    3.8380  -20.7260 C   0  0  0  0  0  0  0  0  0  0  0  0
   -9.0450    4.7280  -18.4850 C   0  0  0  0  0  0  0  0  0  0  0  0
   -9.8150    4.7470  -17.3640 C   0  0  0  0  0  0  0  0  0  0  0  0
   -9.3390    4.9830  -16.1450 N   0  0  0  0  0  0  0  0  0  0  0  0
   -8.0320    5.2040  -16.0530 C   0  0  0  0  0  0  0  0  0  0  0  0
   -7.4980    5.4350  -14.8140 C   0  0  0  0  0  0  0  0  0  0  0  0
   -6.1340    5.6720  -14.6490 C   0  0  0  0  0  0  0  0  0  0  0  0
   -5.2860    5.6830  -15.7500 C   0  0  0  0  0  0  0  0  0  0  0  0
   -5.8000    5.4520  -17.0080 C   0  0  0  0  0  0  0  0  0  0  0  0
   -7.1650    5.2110  -17.1570 C   0  0  0  0  0  0  0  0  0  0  0  0
   -7.7060    4.9670  -18.3900 C   0  0  0  0  0  0  0  0  0  0  0  0
  -11.4940    5.2130  -19.0820 H   0  0  0  0  0  0  0  0  0  0  0  0
  -11.4170    4.5690  -20.7880 H   0  0  0  0  0  0  0  0  0  0  0  0
   -9.2520    3.7460  -21.6530 H   0  0  0  0  0  0  0  0  0  0  0  0
   -7.8250    4.4220  -20.8920 H   0  0  0  0  0  0  0  0  0  0  0  0
   -8.4380    2.8470  -20.4150 H   0  0  0  0  0  0  0  0  0  0  0  0
  -10.8790    4.5650  -17.4050 H   0  0  0  0  0  0  0  0  0  0  0  0
   -8.1550    5.4300  -13.9510 H   0  0  0  0  0  0  0  0  0  0  0  0
   -5.7350    5.8490  -13.6550 H   0  0  0  0  0  0  0  0  0  0  0  0
   -4.2240    5.8700  -15.6150 H   0  0  0  0  0  0  0  0  0  0  0  0
   -5.1390    5.4560  -17.8680 H   0  0  0  0  0  0  0  0  0  0  0  0
   -7.0780    4.9600  -19.2730 H   0  0  0  0  0  0  0  0  0  0  0  0
  1  2  2  3
  2  3  1  0
  2  4  1  0
  4  5  2  0
  5  6  1  0
  6  7  2  0
  7  8  1  0
  8  9  2  0
  9 10  1  0
 10 11  2  0
 11 12  1  0
 12 13  2  0
 13  4  1  0
 12  7  1  0
  1 14  1  0
  1 15  1  0
  3 16  1  0
  3 17  1  0
  3 18  1  0
  5 19  1  0
  8 20  1  0
  9 21  1  0
 10 22  1  0
 11 23  1  0
 13 24  1  0
A    1
 C1 
A    2
 C2 
A    3
 C3 
A    4
 C4 
A    5
 C5 
A    6
 N1 
A    7
 C6 
A    8
 C7 
A    9
 C8 
A   10
 C9 
A   11
 C10
A   12
 C11
A   13
 C12
A   14
 H1 
A   15
 H2 
A   16
 H3 
A   17
 H4 
A   18
 H5 
A   19
 H6 
A   20
 H7 
A   21
 H8 
A   22
 H9 
A   23
 H10
A   24
 H11
M  END
>  <ref_pdb>  (249) 
x0051_0B

>  <ref_mols>  (249) 
x0559_0B,x0455_0B

>  <original SMILES>  (249) 
[H]C([H])=C(c1c([H])nc2c([H])c([H])c([H])c([H])c2c1[H])C([H])([H])[H]

>  <index>  (249) 
2171

>  <∆∆G>  (249) 
-6.711437

>  <∆G_bound>  (249) 
-6.788197

>  <∆G_unbound>  (249) 
-0.076759

>  <comRMSD>  (249) 
0.939551

>  <N_constrained_atoms>  (249) 
13.0

>  <N_unconstrained_atoms>  (249) 
3.0

>  <runtime>  (249) 
37.041281

>  <LE>  (249) 
0.419465

>  <percent_hybrid>  (249) 
34.0

>  <dist>  (249) 
3.0

>  <ecfp4>  (249) 
0.038462

>  <daylight>  (249) 
0.343137

>  <topodist>  (249) 
2.0

>  <mces>  (249) 
12.0

>  <tdn>  (249) 
0.0

>  <tup>  (249) 
1.0

>  <rdn>  (249) 
0.0

>  <rup>  (249) 
0.0

>  <ldn>  (249) 
0.0

>  <lup>  (249) 
1.0

>  <mut>  (249) 
1.0

>  <maj>  (249) 
1.0

>  <min>  (249) 
0.0

>  <hyb>  (249) 
0.0

>  <sub>  (249) 
1.0

>  <query_index>  (249) 
356.0

>  <max_hit_Tanimoto>  (249) 
0.191693

>  <largest_ring>  (249) 
6

>  <N_interactions_kept>  (249) 
1.0

>  <N_interactions_lost>  (249) 
2.5

>  <interaction_uniqueness_metric>  (249) 
0.04341

>  <ad_hoc_penalty>  (249) 
-8.473423

>  <N_rotatable_bonds>  (249) 
2

>  <N_HA>  (249) 
13

>  <cluster>  (249) 
4225

>  <N_interactions>  (249) 
4

>  <Enamine>  (249) 
1

>  <Mcule>  (249) 
0

>  <N_PAINS>  (249) 
0

>  <UFF_Gibbs>  (249) 
36.670262

>  <strain_per_HA>  (249) 
2.820789

>  <intxn_scored>  (249) 
9.5

>  <saltbridge:HIS:51>  (249) 
0

>  <pistack:HIS:51>  (249) 
0

>  <hydroph_interaction:HIS:51>  (249) 
0

>  <hbond:ALA:132>  (249) 
0

>  <hbond:SER:135>  (249) 
0

>  <hydroph_interaction:TYR:150>  (249) 
1

>  <pistack:TYR:161>  (249) 
2

>  <hydroph_interaction:TYR:161>  (249) 
1

>  <hydroph_interaction:ASP:83>  (249) 
0

>  <hbond:TYR:130>  (249) 
0

>  <hydroph_interaction:ALA:132>  (249) 
0

>  <hbond:HIS:51>  (249) 
0

>  <hbond:ASP:129>  (249) 
0

>  <hbond:TYR:150>  (249) 
0

>  <hbond:GLY:151>  (249) 
0

>  <hbond:TYR:161>  (249) 
0

>  <hydroph_interaction:TYR:130>  (249) 
0

>  <hydroph_interaction:PRO:131>  (249) 
0

>  <hydroph_interaction:ASP:129>  (249) 
0

>  <saltbridge:ASP:75>  (249) 
0

>  <saltbridge:ASP:83>  (249) 
0

>  <hbond:ASN:152>  (249) 
0

>  <hydroph_interaction:ASN:152>  (249) 
0

>  <halogenbond:TYR:150>  (249) 
0

>  <hbond:ASP:83>  (249) 
0

>  <hydroph_interaction:VAL:155>  (249) 
0

>  <pication:TYR:161>  (249) 
0

>  <hbond:PRO:131>  (249) 
0

>  <saltbridge:ASP:129>  (249) 
0

>  <hbond:THR:134>  (249) 
0

>  <pication:HIS:51>  (249) 
0

>  <hbond:SER:81>  (249) 
0

>  <hydroph_interaction:THR:134>  (249) 
0

>  <hydroph_interaction:MET:49>  (249) 
0

$$$$
PV-007048074743
     RDKit          3D

 22 23  0  0  0  0  0  0  0  0999 V2000
  -10.2400    4.8200  -18.5800 C   0  0  0  0  0  0  0  0  0  0  0  0
   -8.9760    5.0380  -17.7870 C   0  0  0  0  0  0  0  0  0  0  0  0
   -9.0660    5.1020  -16.2910 C   0  0  0  0  0  0  0  0  0  0  0  0
   -7.5330    5.3470  -15.6390 S   0  0  0  0  0  0  0  0  0  0  0  0
   -6.7240    5.3740  -17.1920 C   0  0  0  0  0  0  0  0  0  0  0  0
   -5.3190    5.5370  -17.4940 C   0  0  0  0  0  0  0  0  0  0  0  0
   -4.2790    5.7030  -16.5850 C   0  0  0  0  0  0  0  0  0  0  0  0
   -2.9630    5.2900  -16.9060 N   0  0  0  0  0  0  0  0  0  0  0  0
   -4.4690    6.2120  -15.4850 O   0  0  0  0  0  0  0  0  0  0  0  0
   -4.9260    5.5220  -18.9680 C   0  0  0  0  0  0  0  0  0  0  0  0
   -5.8920    5.3550  -19.9480 C   0  0  0  0  0  0  0  0  0  0  0  0
   -7.2210    5.1970  -19.5830 C   0  0  0  0  0  0  0  0  0  0  0  0
   -7.6430    5.2010  -18.2610 C   0  0  0  0  0  0  0  0  0  0  0  0
  -10.3800    3.7590  -18.7230 H   0  0  0  0  0  0  0  0  0  0  0  0
  -11.1130    5.1980  -18.0520 H   0  0  0  0  0  0  0  0  0  0  0  0
  -10.1630    5.2760  -19.5750 H   0  0  0  0  0  0  0  0  0  0  0  0
   -9.9810    5.0040  -15.7020 H   0  0  0  0  0  0  0  0  0  0  0  0
   -2.7580    5.0710  -17.8740 H   0  0  0  0  0  0  0  0  0  0  0  0
   -2.2260    5.1980  -16.2200 H   0  0  0  0  0  0  0  0  0  0  0  0
   -3.8800    5.6420  -19.2470 H   0  0  0  0  0  0  0  0  0  0  0  0
   -5.6090    5.3440  -20.9960 H   0  0  0  0  0  0  0  0  0  0  0  0
   -7.9560    5.0620  -20.3670 H   0  0  0  0  0  0  0  0  0  0  0  0
  1  2  1  0
  2  3  2  0
  3  4  1  0
  4  5  1  0
  5  6  2  0
  6  7  1  0
  7  8  1  0
  7  9  2  0
  6 10  1  0
 10 11  2  0
 11 12  1  0
 12 13  2  0
 13  2  1  0
 13  5  1  0
  1 14  1  0
  1 15  1  0
  1 16  1  0
  3 17  1  0
  8 18  1  0
  8 19  1  0
 10 20  1  0
 11 21  1  0
 12 22  1  0
A    1
 C1 
A    2
 C2 
A    3
 C3 
A    4
 S1 
A    5
 C4 
A    6
 C5 
A    7
 C6 
A    8
 N1 
A    9
 O1 
A   10
 C7 
A   11
 C8 
A   12
 C9 
A   13
 C10
A   14
 H1 
A   15
 H2 
A   16
 H3 
A   17
 H4 
A   18
 H5 
A   19
 H6 
A   20
 H7 
A   21
 H8 
A   22
 H9 
M  END
>  <ref_pdb>  (250) 
x0051_0B

>  <ref_mols>  (250) 
x0425_0B,x0969_0B

>  <original SMILES>  (250) 
[H]c1sc2c(C(=O)N([H])[H])c([H])c([H])c([H])c2c1C([H])([H])[H]

>  <index>  (250) 
2218

>  <∆∆G>  (250) 
-8.04753

>  <∆G_bound>  (250) 
-7.871067

>  <∆G_unbound>  (250) 
0.176463

>  <comRMSD>  (250) 
0.397204

>  <N_constrained_atoms>  (250) 
12.0

>  <N_unconstrained_atoms>  (250) 
1.0

>  <runtime>  (250) 
19.767864

>  <LE>  (250) 
0.619041

>  <percent_hybrid>  (250) 
34.0

>  <dist>  (250) 
4.0

>  <ecfp4>  (250) 
0.185185

>  <daylight>  (250) 
0.195312

>  <topodist>  (250) 
1.0

>  <mces>  (250) 
13.0

>  <tdn>  (250) 
0.0

>  <tup>  (250) 
1.0

>  <rdn>  (250) 
0.0

>  <rup>  (250) 
0.0

>  <ldn>  (250) 
0.0

>  <lup>  (250) 
0.0

>  <mut>  (250) 
2.0

>  <maj>  (250) 
2.0

>  <min>  (250) 
0.0

>  <hyb>  (250) 
1.0

>  <sub>  (250) 
0.0

>  <query_index>  (250) 
188.0

>  <max_hit_Tanimoto>  (250) 
0.157518

>  <largest_ring>  (250) 
6

>  <N_interactions_kept>  (250) 
0.0

>  <N_interactions_lost>  (250) 
3.0

>  <interaction_uniqueness_metric>  (250) 
0.04341

>  <ad_hoc_penalty>  (250) 
-8.373291

>  <N_rotatable_bonds>  (250) 
2

>  <N_HA>  (250) 
13

>  <cluster>  (250) 
4180

>  <N_interactions>  (250) 
4

>  <Enamine>  (250) 
1

>  <Mcule>  (250) 
0

>  <N_PAINS>  (250) 
0

>  <UFF_Gibbs>  (250) 
35.035323

>  <strain_per_HA>  (250) 
2.695025

>  <intxn_scored>  (250) 
9.5

>  <saltbridge:HIS:51>  (250) 
0

>  <pistack:HIS:51>  (250) 
0

>  <hydroph_interaction:HIS:51>  (250) 
0

>  <hbond:ALA:132>  (250) 
0

>  <hbond:SER:135>  (250) 
0

>  <hydroph_interaction:TYR:150>  (250) 
1

>  <pistack:TYR:161>  (250) 
2

>  <hydroph_interaction:TYR:161>  (250) 
1

>  <hydroph_interaction:ASP:83>  (250) 
0

>  <hbond:TYR:130>  (250) 
0

>  <hydroph_interaction:ALA:132>  (250) 
0

>  <hbond:HIS:51>  (250) 
0

>  <hbond:ASP:129>  (250) 
0

>  <hbond:TYR:150>  (250) 
0

>  <hbond:GLY:151>  (250) 
0

>  <hbond:TYR:161>  (250) 
0

>  <hydroph_interaction:TYR:130>  (250) 
0

>  <hydroph_interaction:PRO:131>  (250) 
0

>  <hydroph_interaction:ASP:129>  (250) 
0

>  <saltbridge:ASP:75>  (250) 
0

>  <saltbridge:ASP:83>  (250) 
0

>  <hbond:ASN:152>  (250) 
0

>  <hydroph_interaction:ASN:152>  (250) 
0

>  <halogenbond:TYR:150>  (250) 
0

>  <hbond:ASP:83>  (250) 
0

>  <hydroph_interaction:VAL:155>  (250) 
0

>  <pication:TYR:161>  (250) 
0

>  <hbond:PRO:131>  (250) 
0

>  <saltbridge:ASP:129>  (250) 
0

>  <hbond:THR:134>  (250) 
0

>  <pication:HIS:51>  (250) 
0

>  <hbond:SER:81>  (250) 
0

>  <hydroph_interaction:THR:134>  (250) 
0

>  <hydroph_interaction:MET:49>  (250) 
0

$$$$
Z1318738869
     RDKit          3D

 52 54  0  0  0  0  0  0  0  0999 V2000
   -3.5160    4.9080  -21.8430 C   0  0  0  0  0  0  0  0  0  0  0  0
   -3.9600    5.3100  -20.5140 N   0  0  0  0  0  0  0  0  0  0  0  0
   -3.0240    5.0480  -19.4290 C   0  0  0  0  0  0  0  0  0  0  0  0
   -5.2900    5.4620  -20.1540 C   0  0  0  0  0  0  0  0  0  0  0  0
   -6.2130    5.3360  -20.9390 O   0  0  0  0  0  0  0  0  0  0  0  0
   -5.5290    5.8580  -18.4580 S   0  0  0  0  0  0  0  0  0  0  0  0
   -7.2200    5.4640  -18.1440 C   0  0  0  0  0  0  0  0  0  0  0  0
   -8.0320    4.9100  -19.1230 C   0  0  0  0  0  0  0  0  0  0  0  0
   -9.3430    4.6210  -18.8180 C   0  0  0  0  0  0  0  0  0  0  0  0
   -9.8610    4.8770  -17.5550 C   0  0  0  0  0  0  0  0  0  0  0  0
   -9.0570    5.4400  -16.5570 C   0  0  0  0  0  0  0  0  0  0  0  0
   -9.4950    5.7510  -15.2410 N   0  0  0  0  0  0  0  0  0  0  0  0
   -8.9130    6.6490  -14.3380 C   0  0  0  0  0  0  0  0  0  0  0  0
   -8.4210    7.7300  -14.5510 O   0  0  0  0  0  0  0  0  0  0  0  0
   -8.8830    6.1480  -12.9510 C   0  0  0  0  0  0  0  0  0  0  0  0
   -8.7910    6.9460  -11.7960 C   0  0  0  0  0  0  0  0  0  0  0  0
   -8.7700    6.3190  -10.5440 C   0  0  0  0  0  0  0  0  0  0  0  0
   -8.8390    4.9170  -10.4380 C   0  0  0  0  0  0  0  0  0  0  0  0
   -8.8240    4.2960   -9.2010 N   0  0  0  0  0  0  0  0  0  0  0  0
   -8.8690    2.8420   -9.1610 C   0  0  0  0  0  0  0  0  0  0  0  0
   -9.6910    2.4810   -7.9470 C   0  0  0  0  0  0  0  0  0  0  0  0
   -9.2110    3.1980   -6.6840 C   0  0  0  0  0  0  0  0  0  0  0  0
   -8.8040    4.6550   -6.8480 C   0  0  0  0  0  0  0  0  0  0  0  0
   -8.0450    4.9120   -8.1360 C   0  0  0  0  0  0  0  0  0  0  0  0
   -8.9290    4.1680  -11.6060 C   0  0  0  0  0  0  0  0  0  0  0  0
   -8.9500    4.7770  -12.8410 C   0  0  0  0  0  0  0  0  0  0  0  0
   -7.7310    5.7250  -16.8720 C   0  0  0  0  0  0  0  0  0  0  0  0
   -2.9030    4.0010  -21.7690 H   0  0  0  0  0  0  0  0  0  0  0  0
   -2.9130    5.7180  -22.2690 H   0  0  0  0  0  0  0  0  0  0  0  0
   -4.3570    4.6900  -22.5020 H   0  0  0  0  0  0  0  0  0  0  0  0
   -3.5670    4.6430  -18.5710 H   0  0  0  0  0  0  0  0  0  0  0  0
   -2.2390    4.3400  -19.7080 H   0  0  0  0  0  0  0  0  0  0  0  0
   -2.5510    5.9920  -19.1400 H   0  0  0  0  0  0  0  0  0  0  0  0
   -7.6600    4.7000  -20.1180 H   0  0  0  0  0  0  0  0  0  0  0  0
   -9.9650    4.1940  -19.5720 H   0  0  0  0  0  0  0  0  0  0  0  0
  -10.8940    4.6260  -17.3900 H   0  0  0  0  0  0  0  0  0  0  0  0
  -10.0170    5.0000  -14.8060 H   0  0  0  0  0  0  0  0  0  0  0  0
   -8.7370    8.0310  -11.8510 H   0  0  0  0  0  0  0  0  0  0  0  0
   -8.7000    6.9290   -9.6450 H   0  0  0  0  0  0  0  0  0  0  0  0
   -9.3460    2.4290  -10.0600 H   0  0  0  0  0  0  0  0  0  0  0  0
   -7.8660    2.4060   -9.0550 H   0  0  0  0  0  0  0  0  0  0  0  0
   -9.6610    1.4030   -7.7900 H   0  0  0  0  0  0  0  0  0  0  0  0
  -10.7390    2.7370   -8.1290 H   0  0  0  0  0  0  0  0  0  0  0  0
   -8.3840    2.6370   -6.2370 H   0  0  0  0  0  0  0  0  0  0  0  0
  -10.0430    3.1950   -5.9760 H   0  0  0  0  0  0  0  0  0  0  0  0
   -8.1740    4.9440   -5.9950 H   0  0  0  0  0  0  0  0  0  0  0  0
   -9.6970    5.2900   -6.8130 H   0  0  0  0  0  0  0  0  0  0  0  0
   -7.0400    4.4680   -8.0860 H   0  0  0  0  0  0  0  0  0  0  0  0
   -7.9320    5.9950   -8.2630 H   0  0  0  0  0  0  0  0  0  0  0  0
   -8.9860    3.0840  -11.5810 H   0  0  0  0  0  0  0  0  0  0  0  0
   -9.0220    4.1660  -13.7360 H   0  0  0  0  0  0  0  0  0  0  0  0
   -7.0780    6.1610  -16.1230 H   0  0  0  0  0  0  0  0  0  0  0  0
  1  2  1  0
  2  3  1  0
  2  4  1  0
  4  5  2  0
  4  6  1  0
  6  7  1  0
  7  8  2  0
  8  9  1  0
  9 10  2  0
 10 11  1  0
 11 12  1  0
 12 13  1  0
 13 14  2  0
 13 15  1  0
 15 16  2  0
 16 17  1  0
 17 18  2  0
 18 19  1  0
 19 20  1  0
 20 21  1  0
 21 22  1  0
 22 23  1  0
 23 24  1  0
 18 25  1  0
 25 26  2  0
 11 27  2  0
 27  7  1  0
 26 15  1  0
 24 19  1  0
  1 28  1  0
  1 29  1  0
  1 30  1  0
  3 31  1  0
  3 32  1  0
  3 33  1  0
  8 34  1  0
  9 35  1  0
 10 36  1  0
 12 37  1  0
 16 38  1  0
 17 39  1  0
 20 40  1  0
 20 41  1  0
 21 42  1  0
 21 43  1  0
 22 44  1  0
 22 45  1  0
 23 46  1  0
 23 47  1  0
 24 48  1  0
 24 49  1  0
 25 50  1  0
 26 51  1  0
 27 52  1  0
A    1
 C1 
A    2
 N1 
A    3
 C2 
A    4
 C3 
A    5
 O1 
A    6
 S1 
A    7
 C4 
A    8
 C5 
A    9
 C6 
A   10
 C7 
A   11
 C8 
A   12
 N2 
A   13
 C9 
A   14
 O2 
A   15
 C10
A   16
 C11
A   17
 C12
A   18
 C13
A   19
 N3 
A   20
 C14
A   21
 C15
A   22
 C16
A   23
 C17
A   24
 C18
A   25
 C19
A   26
 C20
A   27
 C21
A   28
 H1 
A   29
 H2 
A   30
 H3 
A   31
 H4 
A   32
 H5 
A   33
 H6 
A   34
 H7 
A   35
 H8 
A   36
 H9 
A   37
 H10
A   38
 H11
A   39
 H12
A   40
 H13
A   41
 H14
A   42
 H15
A   43
 H16
A   44
 H17
A   45
 H18
A   46
 H19
A   47
 H20
A   48
 H21
A   49
 H22
A   50
 H23
A   51
 H24
A   52
 H25
M  END
>  <ref_pdb>  (251) 
x0051_0B

>  <ref_mols>  (251) 
x0904_0B,x0404_0B

>  <original SMILES>  (251) 
[H]c1c([H])c(SC(=O)N(C([H])([H])[H])C([H])([H])[H])c([H])c(N([H])C(=O)c2c([H])c([H])c(N3C([H])([H])C([H])([H])C([H])([H])C([H])([H])C3([H])[H])c([H])c2[H])c1[H]

>  <index>  (251) 
1040

>  <∆∆G>  (251) 
-9.860562

>  <∆G_bound>  (251) 
-9.493472

>  <∆G_unbound>  (251) 
0.36709

>  <comRMSD>  (251) 
0.547925

>  <N_constrained_atoms>  (251) 
28.0

>  <N_unconstrained_atoms>  (251) 
1.0

>  <runtime>  (251) 
133.230858

>  <LE>  (251) 
0.340019

>  <percent_hybrid>  (251) 
50.0

>  <dist>  (251) 
6.0

>  <ecfp4>  (251) 
0.259259

>  <daylight>  (251) 
0.25

>  <topodist>  (251) 
2.0

>  <mces>  (251) 
29.0

>  <tdn>  (251) 
1.0

>  <tup>  (251) 
0.0

>  <rdn>  (251) 
0.0

>  <rup>  (251) 
0.0

>  <ldn>  (251) 
1.0

>  <lup>  (251) 
0.0

>  <mut>  (251) 
3.0

>  <maj>  (251) 
2.0

>  <min>  (251) 
1.0

>  <hyb>  (251) 
1.0

>  <sub>  (251) 
0.0

>  <query_index>  (251) 
19.0

>  <max_hit_Tanimoto>  (251) 
0.307471

>  <largest_ring>  (251) 
6

>  <N_interactions_kept>  (251) 
1.5

>  <N_interactions_lost>  (251) 
3.0

>  <interaction_uniqueness_metric>  (251) 
0.140782

>  <ad_hoc_penalty>  (251) 
-11.889688

>  <N_rotatable_bonds>  (251) 
6

>  <N_HA>  (251) 
27

>  <cluster>  (251) 
5262

>  <N_interactions>  (251) 
6

>  <Enamine>  (251) 
1

>  <Mcule>  (251) 
0

>  <N_PAINS>  (251) 
0

>  <UFF_Gibbs>  (251) 
213.708119

>  <strain_per_HA>  (251) 
7.915116

>  <intxn_scored>  (251) 
9.0

>  <saltbridge:HIS:51>  (251) 
0

>  <pistack:HIS:51>  (251) 
1

>  <hydroph_interaction:HIS:51>  (251) 
0

>  <hbond:ALA:132>  (251) 
0

>  <hbond:SER:135>  (251) 
0

>  <hydroph_interaction:TYR:150>  (251) 
1

>  <pistack:TYR:161>  (251) 
1

>  <hydroph_interaction:TYR:161>  (251) 
0

>  <hydroph_interaction:ASP:83>  (251) 
0

>  <hbond:TYR:130>  (251) 
1

>  <hydroph_interaction:ALA:132>  (251) 
1

>  <hbond:HIS:51>  (251) 
0

>  <hbond:ASP:129>  (251) 
0

>  <hbond:TYR:150>  (251) 
0

>  <hbond:GLY:151>  (251) 
1

>  <hbond:TYR:161>  (251) 
0

>  <hydroph_interaction:TYR:130>  (251) 
0

>  <hydroph_interaction:PRO:131>  (251) 
0

>  <hydroph_interaction:ASP:129>  (251) 
0

>  <saltbridge:ASP:75>  (251) 
0

>  <saltbridge:ASP:83>  (251) 
0

>  <hbond:ASN:152>  (251) 
0

>  <hydroph_interaction:ASN:152>  (251) 
0

>  <halogenbond:TYR:150>  (251) 
0

>  <hbond:ASP:83>  (251) 
0

>  <hydroph_interaction:VAL:155>  (251) 
0

>  <pication:TYR:161>  (251) 
0

>  <hbond:PRO:131>  (251) 
0

>  <saltbridge:ASP:129>  (251) 
0

>  <hbond:THR:134>  (251) 
0

>  <pication:HIS:51>  (251) 
0

>  <hbond:SER:81>  (251) 
0

>  <hydroph_interaction:THR:134>  (251) 
0

>  <hydroph_interaction:MET:49>  (251) 
0

$$$$
Z1252397945
     RDKit          3D

 39 41  0  0  0  0  0  0  0  0999 V2000
   -3.2910    5.3510  -22.6280 C   0  0  0  0  0  0  0  0  0  0  0  0
   -4.4890    5.5740  -21.8760 O   0  0  0  0  0  0  0  0  0  0  0  0
   -4.2320    5.3270  -20.5870 C   0  0  0  0  0  0  0  0  0  0  0  0
   -3.1060    5.0870  -20.1750 O   0  0  0  0  0  0  0  0  0  0  0  0
   -5.3490    5.3310  -19.5970 C   0  0  0  0  0  0  0  0  0  0  0  0
   -4.8100    5.5950  -18.3820 C   0  0  0  0  0  0  0  0  0  0  0  0
   -5.5790    5.6400  -17.2760 C   0  0  0  0  0  0  0  0  0  0  0  0
   -4.9350    5.9090  -16.0880 N   0  0  0  0  0  0  0  0  0  0  0  0
   -5.0060    7.3070  -15.6390 C   0  0  0  0  0  0  0  0  0  0  0  0
   -4.2180    7.5250  -14.3550 C   0  0  0  0  0  0  0  0  0  0  0  0
   -4.0650    5.9680  -13.4290 S   0  0  0  0  0  0  0  0  0  0  0  0
   -3.0570    5.0800  -14.6480 C   0  0  0  0  0  0  0  0  0  0  0  0
   -3.0830    3.6040  -14.2850 C   0  0  0  0  0  0  0  0  0  0  0  0
   -3.5910    5.2880  -16.0740 C   0  0  0  0  0  0  0  0  0  0  0  0
   -6.9450    5.4090  -17.4080 C   0  0  0  0  0  0  0  0  0  0  0  0
   -7.7540    5.4460  -16.3110 C   0  0  0  0  0  0  0  0  0  0  0  0
   -9.0900    5.2230  -16.3940 C   0  0  0  0  0  0  0  0  0  0  0  0
   -9.9690    5.3570  -14.7340 Br  0  0  0  0  0  0  0  0  0  0  0  0
   -9.6740    4.9330  -17.6410 C   0  0  0  0  0  0  0  0  0  0  0  0
   -8.8600    4.8920  -18.7900 C   0  0  0  0  0  0  0  0  0  0  0  0
   -7.4770    5.1340  -18.6970 C   0  0  0  0  0  0  0  0  0  0  0  0
   -6.6860    5.0960  -19.8110 N   0  0  0  0  0  0  0  0  0  0  0  0
   -3.5120    5.5250  -23.6830 H   0  0  0  0  0  0  0  0  0  0  0  0
   -2.9580    4.3120  -22.5150 H   0  0  0  0  0  0  0  0  0  0  0  0
   -2.5040    6.0450  -22.3180 H   0  0  0  0  0  0  0  0  0  0  0  0
   -3.7440    5.7650  -18.3230 H   0  0  0  0  0  0  0  0  0  0  0  0
   -6.0440    7.6260  -15.4720 H   0  0  0  0  0  0  0  0  0  0  0  0
   -4.6150    7.9540  -16.4370 H   0  0  0  0  0  0  0  0  0  0  0  0
   -3.2170    7.9110  -14.5660 H   0  0  0  0  0  0  0  0  0  0  0  0
   -4.7330    8.2510  -13.7190 H   0  0  0  0  0  0  0  0  0  0  0  0
   -2.0430    5.4800  -14.5840 H   0  0  0  0  0  0  0  0  0  0  0  0
   -4.0050    3.3090  -13.7730 H   0  0  0  0  0  0  0  0  0  0  0  0
   -2.9620    3.0040  -15.1870 H   0  0  0  0  0  0  0  0  0  0  0  0
   -2.2290    3.3640  -13.6390 H   0  0  0  0  0  0  0  0  0  0  0  0
   -2.8780    5.8880  -16.6510 H   0  0  0  0  0  0  0  0  0  0  0  0
   -3.6410    4.3070  -16.5620 H   0  0  0  0  0  0  0  0  0  0  0  0
   -7.3370    5.6610  -15.3350 H   0  0  0  0  0  0  0  0  0  0  0  0
  -10.7380    4.7460  -17.7370 H   0  0  0  0  0  0  0  0  0  0  0  0
   -9.3000    4.6720  -19.7600 H   0  0  0  0  0  0  0  0  0  0  0  0
  1  2  1  0
  2  3  1  0
  3  4  2  0
  3  5  1  0
  5  6  2  0
  6  7  1  0
  7  8  1  0
  8  9  1  0
  9 10  1  0
 10 11  1  0
 11 12  1  0
 12 13  1  0
 12 14  1  0
  7 15  2  0
 15 16  1  0
 16 17  2  0
 17 18  1  0
 17 19  1  0
 19 20  2  0
 20 21  1  0
 21 22  2  0
 22  5  1  0
 14  8  1  0
 21 15  1  0
  1 23  1  0
  1 24  1  0
  1 25  1  0
  6 26  1  0
  9 27  1  0
  9 28  1  0
 10 29  1  0
 10 30  1  0
 12 31  1  0
 13 32  1  0
 13 33  1  0
 13 34  1  0
 14 35  1  0
 14 36  1  0
 16 37  1  0
 19 38  1  0
 20 39  1  0
A    1
 C1 
A    2
 O1 
A    3
 C2 
A    4
 O2 
A    5
 C3 
A    6
 C4 
A    7
 C5 
A    8
 N1 
A    9
 C6 
A   10
 C7 
A   11
 S1 
A   12
 C8 
A   13
 C9 
A   14
 C10
A   15
 C11
A   16
 C12
A   17
 C13
A   18
BR1 
A   19
 C14
A   20
 C15
A   21
 C16
A   22
 N2 
A   23
 H1 
A   24
 H2 
A   25
 H3 
A   26
 H4 
A   27
 H5 
A   28
 H6 
A   29
 H7 
A   30
 H8 
A   31
 H9 
A   32
 H10
A   33
 H11
A   34
 H12
A   35
 H13
A   36
 H14
A   37
 H15
A   38
 H16
A   39
 H17
M  END
>  <ref_pdb>  (252) 
x0051_0B

>  <ref_mols>  (252) 
x0429_0B,x0904_0B

>  <original SMILES>  (252) 
[H]c1c(Br)c([H])c2c(N3C([H])([H])C([H])([H])SC([H])(C([H])([H])[H])C3([H])[H])c([H])c(C(=O)OC([H])([H])[H])nc2c1[H]

>  <index>  (252) 
2571

>  <∆∆G>  (252) 
-5.295921

>  <∆G_bound>  (252) 
-4.831349

>  <∆G_unbound>  (252) 
0.464572

>  <comRMSD>  (252) 
0.698987

>  <N_constrained_atoms>  (252) 
21.0

>  <N_unconstrained_atoms>  (252) 
1.0

>  <runtime>  (252) 
33.155516

>  <LE>  (252) 
0.240724

>  <percent_hybrid>  (252) 
39.0

>  <dist>  (252) 
5.0

>  <ecfp4>  (252) 
0.315789

>  <daylight>  (252) 
0.449761

>  <topodist>  (252) 
2.0

>  <mces>  (252) 
23.0

>  <tdn>  (252) 
1.0

>  <tup>  (252) 
1.0

>  <rdn>  (252) 
0.0

>  <rup>  (252) 
0.0

>  <ldn>  (252) 
0.0

>  <lup>  (252) 
0.0

>  <mut>  (252) 
3.0

>  <maj>  (252) 
2.0

>  <min>  (252) 
1.0

>  <hyb>  (252) 
0.0

>  <sub>  (252) 
1.0

>  <query_index>  (252) 
153.0

>  <max_hit_Tanimoto>  (252) 
0.458889

>  <largest_ring>  (252) 
6

>  <N_interactions_kept>  (252) 
1.5

>  <N_interactions_lost>  (252) 
2.0

>  <interaction_uniqueness_metric>  (252) 
0.061055

>  <ad_hoc_penalty>  (252) 
-5.127587

>  <N_rotatable_bonds>  (252) 
4

>  <N_HA>  (252) 
22

>  <cluster>  (252) 
3851

>  <N_interactions>  (252) 
4

>  <Enamine>  (252) 
1

>  <Mcule>  (252) 
0

>  <N_PAINS>  (252) 
0

>  <UFF_Gibbs>  (252) 
91.083755

>  <strain_per_HA>  (252) 
4.140171

>  <intxn_scored>  (252) 
9.0

>  <saltbridge:HIS:51>  (252) 
0

>  <pistack:HIS:51>  (252) 
0

>  <hydroph_interaction:HIS:51>  (252) 
0

>  <hbond:ALA:132>  (252) 
0

>  <hbond:SER:135>  (252) 
0

>  <hydroph_interaction:TYR:150>  (252) 
0

>  <pistack:TYR:161>  (252) 
2

>  <hydroph_interaction:TYR:161>  (252) 
1

>  <hydroph_interaction:ASP:83>  (252) 
0

>  <hbond:TYR:130>  (252) 
0

>  <hydroph_interaction:ALA:132>  (252) 
0

>  <hbond:HIS:51>  (252) 
0

>  <hbond:ASP:129>  (252) 
0

>  <hbond:TYR:150>  (252) 
0

>  <hbond:GLY:151>  (252) 
0

>  <hbond:TYR:161>  (252) 
0

>  <hydroph_interaction:TYR:130>  (252) 
0

>  <hydroph_interaction:PRO:131>  (252) 
0

>  <hydroph_interaction:ASP:129>  (252) 
0

>  <saltbridge:ASP:75>  (252) 
0

>  <saltbridge:ASP:83>  (252) 
0

>  <hbond:ASN:152>  (252) 
0

>  <hydroph_interaction:ASN:152>  (252) 
0

>  <halogenbond:TYR:150>  (252) 
0

>  <hbond:ASP:83>  (252) 
0

>  <hydroph_interaction:VAL:155>  (252) 
1

>  <pication:TYR:161>  (252) 
0

>  <hbond:PRO:131>  (252) 
0

>  <saltbridge:ASP:129>  (252) 
0

>  <hbond:THR:134>  (252) 
0

>  <pication:HIS:51>  (252) 
0

>  <hbond:SER:81>  (252) 
0

>  <hydroph_interaction:THR:134>  (252) 
0

>  <hydroph_interaction:MET:49>  (252) 
0

$$$$
CSSS00010199660
     RDKit          3D

 19 20  0  0  0  0  0  0  0  0999 V2000
  -10.8750    4.7560  -18.0450 C   0  0  0  0  0  0  0  0  0  0  0  0
   -9.4550    4.9560  -17.9630 C   0  0  0  0  0  0  0  0  0  0  0  0
   -8.7700    5.2710  -16.7730 C   0  0  0  0  0  0  0  0  0  0  0  0
   -9.5720    5.5000  -15.0650 Br  0  0  0  0  0  0  0  0  0  0  0  0
   -7.4050    5.4550  -16.7770 C   0  0  0  0  0  0  0  0  0  0  0  0
   -6.7600    5.3260  -17.9960 C   0  0  0  0  0  0  0  0  0  0  0  0
   -5.4370    5.4610  -18.2970 N   0  0  0  0  0  0  0  0  0  0  0  0
   -5.2490    5.2560  -19.6370 C   0  0  0  0  0  0  0  0  0  0  0  0
   -6.4700    4.9800  -20.2060 C   0  0  0  0  0  0  0  0  0  0  0  0
   -7.4230    5.0220  -19.1810 C   0  0  0  0  0  0  0  0  0  0  0  0
   -8.7850    4.8290  -19.1620 C   0  0  0  0  0  0  0  0  0  0  0  0
  -11.2090    4.4210  -17.0890 H   0  0  0  0  0  0  0  0  0  0  0  0
  -11.0870    3.9740  -18.7150 H   0  0  0  0  0  0  0  0  0  0  0  0
  -11.4010    5.6630  -18.3360 H   0  0  0  0  0  0  0  0  0  0  0  0
   -6.8570    5.6960  -15.8710 H   0  0  0  0  0  0  0  0  0  0  0  0
   -4.7080    5.6800  -17.6310 H   0  0  0  0  0  0  0  0  0  0  0  0
   -4.2650    5.3220  -20.0720 H   0  0  0  0  0  0  0  0  0  0  0  0
   -6.6490    4.7700  -21.2540 H   0  0  0  0  0  0  0  0  0  0  0  0
   -9.3100    4.5880  -20.0840 H   0  0  0  0  0  0  0  0  0  0  0  0
  1  2  1  0
  2  3  2  0
  3  4  1  0
  3  5  1  0
  5  6  2  0
  6  7  1  0
  7  8  1  0
  8  9  2  0
  9 10  1  0
 10 11  2  0
 11  2  1  0
 10  6  1  0
  1 12  1  0
  1 13  1  0
  1 14  1  0
  5 15  1  0
  7 16  1  0
  8 17  1  0
  9 18  1  0
 11 19  1  0
A    1
 C1 
A    2
 C2 
A    3
 C3 
A    4
BR1 
A    5
 C4 
A    6
 C5 
A    7
 N1 
A    8
 C6 
A    9
 C7 
A   10
 C8 
A   11
 C9 
A   12
 H1 
A   13
 H2 
A   14
 H3 
A   15
 H4 
A   16
 H5 
A   17
 H6 
A   18
 H7 
A   19
 H8 
M  END
>  <ref_pdb>  (253) 
x0051_0B

>  <ref_mols>  (253) 
x0605_0B,x0443_0B

>  <original SMILES>  (253) 
[H]c1c(C([H])([H])[H])c(Br)c([H])c2c1c([H])c([H])n2[H]

>  <index>  (253) 
3157

>  <∆∆G>  (253) 
-5.40797

>  <∆G_bound>  (253) 
-5.413714

>  <∆G_unbound>  (253) 
-0.005744

>  <comRMSD>  (253) 
0.989387

>  <N_constrained_atoms>  (253) 
13.0

>  <N_unconstrained_atoms>  (253) 
1.0

>  <runtime>  (253) 
29.728999

>  <LE>  (253) 
0.386284

>  <percent_hybrid>  (253) 
34.0

>  <dist>  (253) 
3.0

>  <ecfp4>  (253) 
0.117647

>  <daylight>  (253) 
0.487805

>  <topodist>  (253) 
3.0

>  <mces>  (253) 
11.0

>  <tdn>  (253) 
2.0

>  <tup>  (253) 
1.0

>  <rdn>  (253) 
0.0

>  <rup>  (253) 
0.0

>  <ldn>  (253) 
0.0

>  <lup>  (253) 
0.0

>  <mut>  (253) 
0.0

>  <maj>  (253) 
0.0

>  <min>  (253) 
0.0

>  <hyb>  (253) 
0.0

>  <sub>  (253) 
3.0

>  <query_index>  (253) 
139.0

>  <max_hit_Tanimoto>  (253) 
0.168096

>  <largest_ring>  (253) 
6

>  <N_interactions_kept>  (253) 
1.0

>  <N_interactions_lost>  (253) 
2.5

>  <interaction_uniqueness_metric>  (253) 
0.027887

>  <ad_hoc_penalty>  (253) 
-4.82474

>  <N_rotatable_bonds>  (253) 
1

>  <N_HA>  (253) 
11

>  <cluster>  (253) 
3297

>  <N_interactions>  (253) 
3

>  <Enamine>  (253) 
1

>  <Mcule>  (253) 
0

>  <N_PAINS>  (253) 
0

>  <UFF_Gibbs>  (253) 
13.475136

>  <strain_per_HA>  (253) 
1.225012

>  <intxn_scored>  (253) 
9.0

>  <saltbridge:HIS:51>  (253) 
0

>  <pistack:HIS:51>  (253) 
0

>  <hydroph_interaction:HIS:51>  (253) 
0

>  <hbond:ALA:132>  (253) 
0

>  <hbond:SER:135>  (253) 
0

>  <hydroph_interaction:TYR:150>  (253) 
0

>  <pistack:TYR:161>  (253) 
2

>  <hydroph_interaction:TYR:161>  (253) 
1

>  <hydroph_interaction:ASP:83>  (253) 
0

>  <hbond:TYR:130>  (253) 
0

>  <hydroph_interaction:ALA:132>  (253) 
0

>  <hbond:HIS:51>  (253) 
0

>  <hbond:ASP:129>  (253) 
0

>  <hbond:TYR:150>  (253) 
0

>  <hbond:GLY:151>  (253) 
0

>  <hbond:TYR:161>  (253) 
0

>  <hydroph_interaction:TYR:130>  (253) 
0

>  <hydroph_interaction:PRO:131>  (253) 
0

>  <hydroph_interaction:ASP:129>  (253) 
0

>  <saltbridge:ASP:75>  (253) 
0

>  <saltbridge:ASP:83>  (253) 
0

>  <hbond:ASN:152>  (253) 
0

>  <hydroph_interaction:ASN:152>  (253) 
0

>  <halogenbond:TYR:150>  (253) 
0

>  <hbond:ASP:83>  (253) 
0

>  <hydroph_interaction:VAL:155>  (253) 
0

>  <pication:TYR:161>  (253) 
0

>  <hbond:PRO:131>  (253) 
0

>  <saltbridge:ASP:129>  (253) 
0

>  <hbond:THR:134>  (253) 
0

>  <pication:HIS:51>  (253) 
0

>  <hbond:SER:81>  (253) 
0

>  <hydroph_interaction:THR:134>  (253) 
0

>  <hydroph_interaction:MET:49>  (253) 
0

$$$$
Z5318864218
     RDKit          3D

 45 47  0  0  0  0  0  0  0  0999 V2000
   -4.0410    4.9690  -16.8490 C   0  0  0  0  0  0  0  0  0  0  0  0
   -4.8340    5.6210  -17.9700 C   0  0  0  0  0  0  0  0  0  0  0  0
   -6.3380    5.3960  -17.7920 C   0  0  0  0  0  0  0  0  0  0  0  0
   -7.1230    5.1530  -19.0750 C   0  0  0  0  0  0  0  0  0  0  0  0
   -8.5920    4.9280  -18.8470 C   0  0  0  0  0  0  0  0  0  0  0  0
   -9.0950    4.9630  -17.5450 C   0  0  0  0  0  0  0  0  0  0  0  0
   -8.2370    5.2080  -16.4660 C   0  0  0  0  0  0  0  0  0  0  0  0
   -8.9310    5.2270  -15.0980 C   0  0  0  0  0  0  0  0  0  0  0  0
   -8.7960    6.5090  -14.3780 N   0  0  0  0  0  0  0  0  0  0  0  0
   -9.2310    6.3610  -12.9810 C   0  0  0  0  0  0  0  0  0  0  0  0
   -8.1470    5.7680  -12.0710 C   0  0  0  0  0  0  0  0  0  0  0  0
   -8.4850    5.6090  -10.5860 C   0  0  0  0  0  0  0  0  0  0  0  0
   -8.8010    4.4160   -9.7840 C   0  0  0  0  0  0  0  0  0  0  0  0
   -8.9200    2.9780  -10.1160 C   0  0  0  0  0  0  0  0  0  0  0  0
   -8.7050    2.1810   -8.8480 C   0  0  0  0  0  0  0  0  0  0  0  0
   -9.6920    2.6360   -7.7910 C   0  0  0  0  0  0  0  0  0  0  0  0
   -9.3010    4.0360   -7.3470 C   0  0  0  0  0  0  0  0  0  0  0  0
   -8.9850    4.8690   -8.5020 N   0  0  0  0  0  0  0  0  0  0  0  0
   -8.8420    6.2020   -8.3770 N   0  0  0  0  0  0  0  0  0  0  0  0
   -8.5500    6.6400   -9.6150 C   0  0  0  0  0  0  0  0  0  0  0  0
   -6.8930    5.4190  -16.5580 N   0  0  0  0  0  0  0  0  0  0  0  0
   -3.3340    4.2410  -17.2590 H   0  0  0  0  0  0  0  0  0  0  0  0
   -4.7030    4.4480  -16.1500 H   0  0  0  0  0  0  0  0  0  0  0  0
   -3.4700    5.7140  -16.2860 H   0  0  0  0  0  0  0  0  0  0  0  0
   -4.5100    5.2010  -18.9280 H   0  0  0  0  0  0  0  0  0  0  0  0
   -4.6070    6.6920  -17.9880 H   0  0  0  0  0  0  0  0  0  0  0  0
   -6.6730    5.1370  -20.0620 H   0  0  0  0  0  0  0  0  0  0  0  0
   -9.2530    4.7400  -19.6870 H   0  0  0  0  0  0  0  0  0  0  0  0
  -10.1560    4.8020  -17.3650 H   0  0  0  0  0  0  0  0  0  0  0  0
   -8.5170    4.4100  -14.4920 H   0  0  0  0  0  0  0  0  0  0  0  0
   -9.9940    4.9790  -15.2180 H   0  0  0  0  0  0  0  0  0  0  0  0
   -7.8640    6.9110  -14.4110 H   0  0  0  0  0  0  0  0  0  0  0  0
   -9.6240    7.3050  -12.5830 H   0  0  0  0  0  0  0  0  0  0  0  0
  -10.0690    5.6680  -12.9990 H   0  0  0  0  0  0  0  0  0  0  0  0
   -7.8650    4.7830  -12.4650 H   0  0  0  0  0  0  0  0  0  0  0  0
   -7.2420    6.3820  -12.1420 H   0  0  0  0  0  0  0  0  0  0  0  0
   -9.8970    2.7480  -10.5650 H   0  0  0  0  0  0  0  0  0  0  0  0
   -8.1540    2.7070  -10.8540 H   0  0  0  0  0  0  0  0  0  0  0  0
   -8.8370    1.1250   -9.0240 H   0  0  0  0  0  0  0  0  0  0  0  0
   -7.6930    2.3500   -8.4790 H   0  0  0  0  0  0  0  0  0  0  0  0
   -9.6650    1.9530   -6.9600 H   0  0  0  0  0  0  0  0  0  0  0  0
  -10.7100    2.6330   -8.1860 H   0  0  0  0  0  0  0  0  0  0  0  0
  -10.1160    4.5230   -6.8020 H   0  0  0  0  0  0  0  0  0  0  0  0
   -8.4180    3.9960   -6.7010 H   0  0  0  0  0  0  0  0  0  0  0  0
   -8.3890    7.6990   -9.7570 H   0  0  0  0  0  0  0  0  0  0  0  0
  1  2  1  0
  2  3  1  0
  3  4  2  0
  4  5  1  0
  5  6  2  0
  6  7  1  0
  7  8  1  0
  8  9  1  0
  9 10  1  0
 10 11  1  0
 11 12  1  0
 12 13  2  0
 13 14  1  0
 14 15  1  0
 15 16  1  0
 16 17  1  0
 17 18  1  0
 18 19  1  0
 19 20  2  0
  7 21  2  0
 21  3  1  0
 20 12  1  0
 18 13  1  0
  1 22  1  0
  1 23  1  0
  1 24  1  0
  2 25  1  0
  2 26  1  0
  4 27  1  0
  5 28  1  0
  6 29  1  0
  8 30  1  0
  8 31  1  0
  9 32  1  0
 10 33  1  0
 10 34  1  0
 11 35  1  0
 11 36  1  0
 14 37  1  0
 14 38  1  0
 15 39  1  0
 15 40  1  0
 16 41  1  0
 16 42  1  0
 17 43  1  0
 17 44  1  0
 20 45  1  0
A    1
 C1 
A    2
 C2 
A    3
 C3 
A    4
 C4 
A    5
 C5 
A    6
 C6 
A    7
 C7 
A    8
 C8 
A    9
 N1 
A   10
 C9 
A   11
 C10
A   12
 C11
A   13
 C12
A   14
 C13
A   15
 C14
A   16
 C15
A   17
 C16
A   18
 N2 
A   19
 N3 
A   20
 C17
A   21
 N4 
A   22
 H1 
A   23
 H2 
A   24
 H3 
A   25
 H4 
A   26
 H5 
A   27
 H6 
A   28
 H7 
A   29
 H8 
A   30
 H9 
A   31
 H10
A   32
 H11
A   33
 H12
A   34
 H13
A   35
 H14
A   36
 H15
A   37
 H16
A   38
 H17
A   39
 H18
A   40
 H19
A   41
 H20
A   42
 H21
A   43
 H22
A   44
 H23
A   45
 H24
M  END
>  <ref_pdb>  (254) 
x0051_0B

>  <ref_mols>  (254) 
x0605_0B,x0969_1B

>  <original SMILES>  (254) 
[H]c1nn2c(c1C([H])([H])C([H])([H])N([H])C([H])([H])c1nc(C([H])([H])C([H])([H])[H])c([H])c([H])c1[H])C([H])([H])C([H])([H])C([H])([H])C2([H])[H]

>  <index>  (254) 
897

>  <∆∆G>  (254) 
-7.594199

>  <∆G_bound>  (254) 
-7.262147

>  <∆G_unbound>  (254) 
0.332052

>  <comRMSD>  (254) 
0.325295

>  <N_constrained_atoms>  (254) 
17.0

>  <N_unconstrained_atoms>  (254) 
5.0

>  <runtime>  (254) 
78.705388

>  <LE>  (254) 
0.345191

>  <percent_hybrid>  (254) 
42.0

>  <dist>  (254) 
5.0

>  <ecfp4>  (254) 
0.333333

>  <daylight>  (254) 
0.305263

>  <topodist>  (254) 
0.0

>  <mces>  (254) 
23.0

>  <tdn>  (254) 
0.0

>  <tup>  (254) 
0.0

>  <rdn>  (254) 
0.0

>  <rup>  (254) 
0.0

>  <ldn>  (254) 
0.0

>  <lup>  (254) 
0.0

>  <mut>  (254) 
3.0

>  <maj>  (254) 
3.0

>  <min>  (254) 
0.0

>  <hyb>  (254) 
2.0

>  <sub>  (254) 
0.0

>  <query_index>  (254) 
307.0

>  <max_hit_Tanimoto>  (254) 
0.372067

>  <largest_ring>  (254) 
6

>  <N_interactions_kept>  (254) 
2.0

>  <N_interactions_lost>  (254) 
1.0

>  <interaction_uniqueness_metric>  (254) 
0.138996

>  <ad_hoc_penalty>  (254) 
-18.333004

>  <N_rotatable_bonds>  (254) 
7

>  <N_HA>  (254) 
21

>  <cluster>  (254) 
5397

>  <N_interactions>  (254) 
5

>  <Enamine>  (254) 
1

>  <Mcule>  (254) 
0

>  <N_PAINS>  (254) 
0

>  <UFF_Gibbs>  (254) 
52.533188

>  <strain_per_HA>  (254) 
2.50158

>  <intxn_scored>  (254) 
9.0

>  <saltbridge:HIS:51>  (254) 
0

>  <pistack:HIS:51>  (254) 
1

>  <hydroph_interaction:HIS:51>  (254) 
0

>  <hbond:ALA:132>  (254) 
0

>  <hbond:SER:135>  (254) 
0

>  <hydroph_interaction:TYR:150>  (254) 
0

>  <pistack:TYR:161>  (254) 
1

>  <hydroph_interaction:TYR:161>  (254) 
2

>  <hydroph_interaction:ASP:83>  (254) 
1

>  <hbond:TYR:130>  (254) 
0

>  <hydroph_interaction:ALA:132>  (254) 
0

>  <hbond:HIS:51>  (254) 
0

>  <hbond:ASP:129>  (254) 
0

>  <hbond:TYR:150>  (254) 
0

>  <hbond:GLY:151>  (254) 
0

>  <hbond:TYR:161>  (254) 
0

>  <hydroph_interaction:TYR:130>  (254) 
0

>  <hydroph_interaction:PRO:131>  (254) 
0

>  <hydroph_interaction:ASP:129>  (254) 
0

>  <saltbridge:ASP:75>  (254) 
0

>  <saltbridge:ASP:83>  (254) 
0

>  <hbond:ASN:152>  (254) 
0

>  <hydroph_interaction:ASN:152>  (254) 
0

>  <halogenbond:TYR:150>  (254) 
0

>  <hbond:ASP:83>  (254) 
0

>  <hydroph_interaction:VAL:155>  (254) 
0

>  <pication:TYR:161>  (254) 
0

>  <hbond:PRO:131>  (254) 
0

>  <saltbridge:ASP:129>  (254) 
0

>  <hbond:THR:134>  (254) 
0

>  <pication:HIS:51>  (254) 
0

>  <hbond:SER:81>  (254) 
0

>  <hydroph_interaction:THR:134>  (254) 
0

>  <hydroph_interaction:MET:49>  (254) 
0

$$$$
PV-006653556354
     RDKit          3D

 39 41  0  0  0  0  0  0  0  0999 V2000
   -2.5010    5.2930  -21.5520 C   0  0  0  0  0  0  0  0  0  0  0  0
   -3.6160    5.9980  -20.9870 O   0  0  0  0  0  0  0  0  0  0  0  0
   -4.7390    5.2380  -20.9510 C   0  0  0  0  0  0  0  0  0  0  0  0
   -5.0770    4.5360  -21.8410 O   0  0  0  0  0  0  0  0  0  0  0  0
   -5.4410    5.3120  -19.7600 C   0  0  0  0  0  0  0  0  0  0  0  0
   -4.7440    5.5620  -18.6150 C   0  0  0  0  0  0  0  0  0  0  0  0
   -5.4340    5.6040  -17.4550 C   0  0  0  0  0  0  0  0  0  0  0  0
   -4.7760    5.8290  -16.2440 N   0  0  0  0  0  0  0  0  0  0  0  0
   -4.8680    7.2370  -15.7850 C   0  0  0  0  0  0  0  0  0  0  0  0
   -4.1560    7.4370  -14.5700 C   0  0  0  0  0  0  0  0  0  0  0  0
   -4.0760    5.9350  -13.5330 S   0  0  0  0  0  0  0  0  0  0  0  0
   -3.1240    4.8560  -14.6530 C   0  0  0  0  0  0  0  0  0  0  0  0
   -3.5140    5.0830  -16.1170 C   0  0  2  0  0  0  0  0  0  0  0  0
   -2.4420    5.8280  -16.8990 C   0  0  0  0  0  0  0  0  0  0  0  0
   -6.8160    5.4020  -17.4620 C   0  0  0  0  0  0  0  0  0  0  0  0
   -7.6090    5.4450  -16.2250 C   0  0  0  0  0  0  0  0  0  0  0  0
   -9.1030    5.2180  -16.2680 C   0  0  0  0  0  0  0  0  0  0  0  0
   -9.9790    5.3390  -14.6130 Br  0  0  0  0  0  0  0  0  0  0  0  0
   -9.6970    4.9520  -17.5080 C   0  0  0  0  0  0  0  0  0  0  0  0
   -8.8830    4.9220  -18.6770 C   0  0  0  0  0  0  0  0  0  0  0  0
   -7.4850    5.1450  -18.6740 C   0  0  0  0  0  0  0  0  0  0  0  0
   -6.7930    5.1050  -19.8180 N   0  0  0  0  0  0  0  0  0  0  0  0
   -1.8750    5.9550  -22.1600 H   0  0  0  0  0  0  0  0  0  0  0  0
   -1.9090    4.8640  -20.7370 H   0  0  0  0  0  0  0  0  0  0  0  0
   -2.8390    4.4580  -22.1810 H   0  0  0  0  0  0  0  0  0  0  0  0
   -3.6730    5.7110  -18.6490 H   0  0  0  0  0  0  0  0  0  0  0  0
   -4.4680    7.8900  -16.5730 H   0  0  0  0  0  0  0  0  0  0  0  0
   -5.9130    7.5470  -15.6490 H   0  0  0  0  0  0  0  0  0  0  0  0
   -3.1240    7.7310  -14.7980 H   0  0  0  0  0  0  0  0  0  0  0  0
   -4.5950    8.2370  -13.9660 H   0  0  0  0  0  0  0  0  0  0  0  0
   -2.0620    5.0740  -14.4970 H   0  0  0  0  0  0  0  0  0  0  0  0
   -3.2950    3.8140  -14.3600 H   0  0  0  0  0  0  0  0  0  0  0  0
   -3.6070    4.0980  -16.5740 H   0  0  0  0  0  0  0  0  0  0  0  0
   -2.0520    5.2430  -17.7390 H   0  0  0  0  0  0  0  0  0  0  0  0
   -1.5960    6.0830  -16.2530 H   0  0  0  0  0  0  0  0  0  0  0  0
   -2.8280    6.7660  -17.3130 H   0  0  0  0  0  0  0  0  0  0  0  0
   -7.0480    5.6520  -15.3060 H   0  0  0  0  0  0  0  0  0  0  0  0
  -10.7620    4.7760  -17.5980 H   0  0  0  0  0  0  0  0  0  0  0  0
   -9.3610    4.7180  -19.6350 H   0  0  0  0  0  0  0  0  0  0  0  0
  1  2  1  0
  2  3  1  0
  3  4  2  0
  3  5  1  0
  5  6  2  0
  6  7  1  0
  7  8  1  0
  8  9  1  0
  9 10  1  0
 10 11  1  0
 11 12  1  0
 12 13  1  0
 13 14  1  0
  7 15  2  0
 15 16  1  0
 16 17  2  0
 17 18  1  0
 17 19  1  0
 19 20  2  0
 20 21  1  0
 21 22  2  0
 22  5  1  0
 13  8  1  0
 21 15  1  0
  1 23  1  0
  1 24  1  0
  1 25  1  0
  6 26  1  0
  9 27  1  0
  9 28  1  0
 10 29  1  0
 10 30  1  0
 12 31  1  0
 12 32  1  0
 13 33  1  6
 14 34  1  0
 14 35  1  0
 14 36  1  0
 16 37  1  0
 19 38  1  0
 20 39  1  0
A    1
 C1 
A    2
 O1 
A    3
 C2 
A    4
 O2 
A    5
 C3 
A    6
 C4 
A    7
 C5 
A    8
 N1 
A    9
 C6 
A   10
 C7 
A   11
 S1 
A   12
 C8 
A   13
 C9 
A   14
 C10
A   15
 C11
A   16
 C12
A   17
 C13
A   18
BR1 
A   19
 C14
A   20
 C15
A   21
 C16
A   22
 N2 
A   23
 H1 
A   24
 H2 
A   25
 H3 
A   26
 H4 
A   27
 H5 
A   28
 H6 
A   29
 H7 
A   30
 H8 
A   31
 H9 
A   32
 H10
A   33
 H11
A   34
 H12
A   35
 H13
A   36
 H14
A   37
 H15
A   38
 H16
A   39
 H17
M  END
>  <ref_pdb>  (255) 
x0051_0B

>  <ref_mols>  (255) 
x0429_0B,x0904_0B

>  <original SMILES>  (255) 
[H]c1c(Br)c([H])c2c(N3C([H])([H])C([H])([H])SC([H])([H])[C@]3([H])C([H])([H])[H])c([H])c(C(=O)OC([H])([H])[H])nc2c1[H]

>  <index>  (255) 
2630

>  <∆∆G>  (255) 
-5.20176

>  <∆G_bound>  (255) 
-5.033714

>  <∆G_unbound>  (255) 
0.168045

>  <comRMSD>  (255) 
0.866374

>  <N_constrained_atoms>  (255) 
21.0

>  <N_unconstrained_atoms>  (255) 
1.0

>  <runtime>  (255) 
26.292186

>  <LE>  (255) 
0.236444

>  <percent_hybrid>  (255) 
39.0

>  <dist>  (255) 
5.0

>  <ecfp4>  (255) 
0.282051

>  <daylight>  (255) 
0.449275

>  <topodist>  (255) 
2.0

>  <mces>  (255) 
23.0

>  <tdn>  (255) 
1.0

>  <tup>  (255) 
1.0

>  <rdn>  (255) 
0.0

>  <rup>  (255) 
0.0

>  <ldn>  (255) 
0.0

>  <lup>  (255) 
0.0

>  <mut>  (255) 
3.0

>  <maj>  (255) 
2.0

>  <min>  (255) 
1.0

>  <hyb>  (255) 
0.0

>  <sub>  (255) 
1.0

>  <query_index>  (255) 
153.0

>  <max_hit_Tanimoto>  (255) 
0.456763

>  <largest_ring>  (255) 
6

>  <N_interactions_kept>  (255) 
1.5

>  <N_interactions_lost>  (255) 
2.0

>  <interaction_uniqueness_metric>  (255) 
0.066961

>  <ad_hoc_penalty>  (255) 
-4.754968

>  <N_rotatable_bonds>  (255) 
4

>  <N_HA>  (255) 
22

>  <cluster>  (255) 
3794

>  <N_interactions>  (255) 
4

>  <Enamine>  (255) 
1

>  <Mcule>  (255) 
0

>  <N_PAINS>  (255) 
0

>  <UFF_Gibbs>  (255) 
95.618259

>  <strain_per_HA>  (255) 
4.346284

>  <intxn_scored>  (255) 
9.0

>  <saltbridge:HIS:51>  (255) 
0

>  <pistack:HIS:51>  (255) 
0

>  <hydroph_interaction:HIS:51>  (255) 
0

>  <hbond:ALA:132>  (255) 
0

>  <hbond:SER:135>  (255) 
0

>  <hydroph_interaction:TYR:150>  (255) 
0

>  <pistack:TYR:161>  (255) 
2

>  <hydroph_interaction:TYR:161>  (255) 
1

>  <hydroph_interaction:ASP:83>  (255) 
0

>  <hbond:TYR:130>  (255) 
0

>  <hydroph_interaction:ALA:132>  (255) 
0

>  <hbond:HIS:51>  (255) 
0

>  <hbond:ASP:129>  (255) 
1

>  <hbond:TYR:150>  (255) 
0

>  <hbond:GLY:151>  (255) 
0

>  <hbond:TYR:161>  (255) 
0

>  <hydroph_interaction:TYR:130>  (255) 
0

>  <hydroph_interaction:PRO:131>  (255) 
0

>  <hydroph_interaction:ASP:129>  (255) 
0

>  <saltbridge:ASP:75>  (255) 
0

>  <saltbridge:ASP:83>  (255) 
0

>  <hbond:ASN:152>  (255) 
0

>  <hydroph_interaction:ASN:152>  (255) 
0

>  <halogenbond:TYR:150>  (255) 
0

>  <hbond:ASP:83>  (255) 
0

>  <hydroph_interaction:VAL:155>  (255) 
0

>  <pication:TYR:161>  (255) 
0

>  <hbond:PRO:131>  (255) 
0

>  <saltbridge:ASP:129>  (255) 
0

>  <hbond:THR:134>  (255) 
0

>  <pication:HIS:51>  (255) 
0

>  <hbond:SER:81>  (255) 
0

>  <hydroph_interaction:THR:134>  (255) 
0

>  <hydroph_interaction:MET:49>  (255) 
0

$$$$
Z2925446880
     RDKit          3D

 50 52  0  0  0  0  0  0  0  0999 V2000
   -7.6090    7.1380  -12.8510 C   0  0  0  0  0  0  0  0  0  0  0  0
   -8.6460    6.0850  -12.5490 C   0  0  0  0  0  0  0  0  0  0  0  0
   -8.5840    5.0660  -13.6550 N   0  0  0  0  0  0  0  0  0  0  0  0
   -9.3150    5.4010  -14.8570 C   0  0  0  0  0  0  0  0  0  0  0  0
   -8.8430    5.2310  -16.2130 C   0  0  0  0  0  0  0  0  0  0  0  0
   -9.7420    4.7390  -17.1660 C   0  0  0  0  0  0  0  0  0  0  0  0
   -9.3910    4.5530  -18.5100 C   0  0  0  0  0  0  0  0  0  0  0  0
   -8.1170    4.8550  -18.9540 C   0  0  0  0  0  0  0  0  0  0  0  0
   -7.1840    5.3450  -18.0440 C   0  0  0  0  0  0  0  0  0  0  0  0
   -5.9000    5.6770  -18.3720 O   0  0  0  0  0  0  0  0  0  0  0  0
   -5.5610    5.6610  -19.7540 C   0  0  0  0  0  0  0  0  0  0  0  0
   -4.1390    5.3770  -20.0270 C   0  0  0  0  0  0  0  0  0  0  0  0
   -3.3590    5.1050  -19.1140 O   0  0  0  0  0  0  0  0  0  0  0  0
   -3.7100    5.4300  -21.3500 N   0  0  0  0  0  0  0  0  0  0  0  0
   -2.3740    4.9410  -21.6560 C   0  0  0  0  0  0  0  0  0  0  0  0
   -4.6070    5.2650  -22.4730 C   0  0  0  0  0  0  0  0  0  0  0  0
   -7.5390    5.5330  -16.6810 C   0  0  0  0  0  0  0  0  0  0  0  0
   -8.7650    5.7160  -11.1320 C   0  0  0  0  0  0  0  0  0  0  0  0
   -8.9380    4.5080  -10.2460 C   0  0  0  0  0  0  0  0  0  0  0  0
   -9.0680    3.0940  -10.3790 C   0  0  0  0  0  0  0  0  0  0  0  0
   -9.2250    2.3330   -9.2780 C   0  0  0  0  0  0  0  0  0  0  0  0
   -9.2870    2.8600   -7.9370 C   0  0  0  0  0  0  0  0  0  0  0  0
   -9.1510    4.1730   -7.7880 C   0  0  0  0  0  0  0  0  0  0  0  0
   -8.9790    4.9950   -8.9090 N   0  0  0  0  0  0  0  0  0  0  0  0
   -8.8430    6.3360   -8.8690 N   0  0  0  0  0  0  0  0  0  0  0  0
   -8.7240    6.7390  -10.1350 C   0  0  0  0  0  0  0  0  0  0  0  0
   -7.4090    7.7290  -11.9540 H   0  0  0  0  0  0  0  0  0  0  0  0
   -6.6720    6.6690  -13.1630 H   0  0  0  0  0  0  0  0  0  0  0  0
   -7.9430    7.7960  -13.6600 H   0  0  0  0  0  0  0  0  0  0  0  0
   -9.6270    6.5500  -12.7060 H   0  0  0  0  0  0  0  0  0  0  0  0
   -8.9350    4.1730  -13.3130 H   0  0  0  0  0  0  0  0  0  0  0  0
   -9.5930    6.4570  -14.7800 H   0  0  0  0  0  0  0  0  0  0  0  0
  -10.2670    4.8610  -14.8120 H   0  0  0  0  0  0  0  0  0  0  0  0
  -10.7440    4.4900  -16.8680 H   0  0  0  0  0  0  0  0  0  0  0  0
  -10.0910    4.1740  -19.2340 H   0  0  0  0  0  0  0  0  0  0  0  0
   -7.8500    4.7110  -19.9990 H   0  0  0  0  0  0  0  0  0  0  0  0
   -5.8750    6.5840  -20.2560 H   0  0  0  0  0  0  0  0  0  0  0  0
   -6.1390    4.8380  -20.1910 H   0  0  0  0  0  0  0  0  0  0  0  0
   -2.2660    3.9170  -21.2780 H   0  0  0  0  0  0  0  0  0  0  0  0
   -2.2240    4.9570  -22.7390 H   0  0  0  0  0  0  0  0  0  0  0  0
   -1.6250    5.5980  -21.1950 H   0  0  0  0  0  0  0  0  0  0  0  0
   -5.1960    6.1820  -22.5870 H   0  0  0  0  0  0  0  0  0  0  0  0
   -4.0310    5.1040  -23.3910 H   0  0  0  0  0  0  0  0  0  0  0  0
   -5.2800    4.4130  -22.3260 H   0  0  0  0  0  0  0  0  0  0  0  0
   -6.7940    5.9210  -15.9800 H   0  0  0  0  0  0  0  0  0  0  0  0
   -9.0300    2.6280  -11.3580 H   0  0  0  0  0  0  0  0  0  0  0  0
   -9.3010    1.2820   -9.3560 H   0  0  0  0  0  0  0  0  0  0  0  0
   -9.4280    2.1870   -7.1020 H   0  0  0  0  0  0  0  0  0  0  0  0
   -9.1710    4.6690   -6.8270 H   0  0  0  0  0  0  0  0  0  0  0  0
   -8.6080    7.8020  -10.3100 H   0  0  0  0  0  0  0  0  0  0  0  0
  1  2  1  0
  2  3  1  0
  3  4  1  0
  4  5  1  0
  5  6  2  0
  6  7  1  0
  7  8  2  0
  8  9  1  0
  9 10  1  0
 10 11  1  0
 11 12  1  0
 12 13  2  0
 12 14  1  0
 14 15  1  0
 14 16  1  0
  9 17  2  0
  2 18  1  0
 18 19  2  0
 19 20  1  0
 20 21  2  0
 21 22  1  0
 22 23  2  0
 23 24  1  0
 24 25  1  0
 25 26  2  0
 17  5  1  0
 26 18  1  0
 24 19  1  0
  1 27  1  0
  1 28  1  0
  1 29  1  0
  2 30  1  0
  3 31  1  0
  4 32  1  0
  4 33  1  0
  6 34  1  0
  7 35  1  0
  8 36  1  0
 11 37  1  0
 11 38  1  0
 15 39  1  0
 15 40  1  0
 15 41  1  0
 16 42  1  0
 16 43  1  0
 16 44  1  0
 17 45  1  0
 20 46  1  0
 21 47  1  0
 22 48  1  0
 23 49  1  0
 26 50  1  0
A    1
 C1 
A    2
 C2 
A    3
 N1 
A    4
 C3 
A    5
 C4 
A    6
 C5 
A    7
 C6 
A    8
 C7 
A    9
 C8 
A   10
 O1 
A   11
 C9 
A   12
 C10
A   13
 O2 
A   14
 N2 
A   15
 C11
A   16
 C12
A   17
 C13
A   18
 C14
A   19
 C15
A   20
 C16
A   21
 C17
A   22
 C18
A   23
 C19
A   24
 N3 
A   25
 N4 
A   26
 C20
A   27
 H1 
A   28
 H2 
A   29
 H3 
A   30
 H4 
A   31
 H5 
A   32
 H6 
A   33
 H7 
A   34
 H8 
A   35
 H9 
A   36
 H10
A   37
 H11
A   38
 H12
A   39
 H13
A   40
 H14
A   41
 H15
A   42
 H16
A   43
 H17
A   44
 H18
A   45
 H19
A   46
 H20
A   47
 H21
A   48
 H22
A   49
 H23
A   50
 H24
M  END
>  <ref_pdb>  (256) 
x0051_0B

>  <ref_mols>  (256) 
x0969_1B,x0904_0B

>  <original SMILES>  (256) 
[H]c1nn2c([H])c([H])c([H])c([H])c2c1C([H])(N([H])C([H])([H])c1c([H])c([H])c([H])c(OC([H])([H])C(=O)N(C([H])([H])[H])C([H])([H])[H])c1[H])C([H])([H])[H]

>  <index>  (256) 
3613

>  <∆∆G>  (256) 
-7.819856

>  <∆G_bound>  (256) 
-7.236445

>  <∆G_unbound>  (256) 
0.583411

>  <comRMSD>  (256) 
0.571309

>  <N_constrained_atoms>  (256) 
24.0

>  <N_unconstrained_atoms>  (256) 
2.0

>  <runtime>  (256) 
66.153912

>  <LE>  (256) 
0.300764

>  <percent_hybrid>  (256) 
42.0

>  <dist>  (256) 
7.0

>  <ecfp4>  (256) 
0.382716

>  <daylight>  (256) 
0.300752

>  <topodist>  (256) 
2.0

>  <mces>  (256) 
27.0

>  <tdn>  (256) 
0.0

>  <tup>  (256) 
1.0

>  <rdn>  (256) 
0.0

>  <rup>  (256) 
0.0

>  <ldn>  (256) 
1.0

>  <lup>  (256) 
0.0

>  <mut>  (256) 
2.0

>  <maj>  (256) 
2.0

>  <min>  (256) 
0.0

>  <hyb>  (256) 
3.0

>  <sub>  (256) 
1.0

>  <query_index>  (256) 
111.0

>  <max_hit_Tanimoto>  (256) 
0.240674

>  <largest_ring>  (256) 
6

>  <N_interactions_kept>  (256) 
1.5

>  <N_interactions_lost>  (256) 
2.0

>  <interaction_uniqueness_metric>  (256) 
0.121217

>  <ad_hoc_penalty>  (256) 
-0.053312

>  <N_rotatable_bonds>  (256) 
10

>  <N_HA>  (256) 
26

>  <cluster>  (256) 
2863

>  <N_interactions>  (256) 
5

>  <Enamine>  (256) 
1

>  <Mcule>  (256) 
0

>  <N_PAINS>  (256) 
0

>  <UFF_Gibbs>  (256) 
126.653046

>  <strain_per_HA>  (256) 
4.871271

>  <intxn_scored>  (256) 
9.0

>  <saltbridge:HIS:51>  (256) 
0

>  <pistack:HIS:51>  (256) 
1

>  <hydroph_interaction:HIS:51>  (256) 
0

>  <hbond:ALA:132>  (256) 
0

>  <hbond:SER:135>  (256) 
0

>  <hydroph_interaction:TYR:150>  (256) 
1

>  <pistack:TYR:161>  (256) 
1

>  <hydroph_interaction:TYR:161>  (256) 
0

>  <hydroph_interaction:ASP:83>  (256) 
0

>  <hbond:TYR:130>  (256) 
0

>  <hydroph_interaction:ALA:132>  (256) 
1

>  <hbond:HIS:51>  (256) 
0

>  <hbond:ASP:129>  (256) 
0

>  <hbond:TYR:150>  (256) 
0

>  <hbond:GLY:151>  (256) 
0

>  <hbond:TYR:161>  (256) 
1

>  <hydroph_interaction:TYR:130>  (256) 
0

>  <hydroph_interaction:PRO:131>  (256) 
0

>  <hydroph_interaction:ASP:129>  (256) 
0

>  <saltbridge:ASP:75>  (256) 
0

>  <saltbridge:ASP:83>  (256) 
0

>  <hbond:ASN:152>  (256) 
0

>  <hydroph_interaction:ASN:152>  (256) 
0

>  <halogenbond:TYR:150>  (256) 
0

>  <hbond:ASP:83>  (256) 
0

>  <hydroph_interaction:VAL:155>  (256) 
0

>  <pication:TYR:161>  (256) 
0

>  <hbond:PRO:131>  (256) 
0

>  <saltbridge:ASP:129>  (256) 
0

>  <hbond:THR:134>  (256) 
0

>  <pication:HIS:51>  (256) 
0

>  <hbond:SER:81>  (256) 
0

>  <hydroph_interaction:THR:134>  (256) 
0

>  <hydroph_interaction:MET:49>  (256) 
0

$$$$
CSSB03437231633
     RDKit          3D

 20 21  0  0  0  0  0  0  0  0999 V2000
  -10.1350    4.7880  -17.3790 C   0  0  0  0  0  0  0  0  0  0  0  0
   -8.6890    5.0120  -17.2150 C   0  0  0  0  0  0  0  0  0  0  0  0
   -8.0210    4.9480  -18.3850 C   0  0  0  0  0  0  0  0  0  0  0  0
   -8.6940    4.6260  -19.9090 S   0  0  0  0  0  0  0  0  0  0  0  0
   -7.1610    4.7510  -20.6620 C   0  0  0  0  0  0  0  0  0  0  0  0
   -6.1560    5.0420  -19.7530 C   0  0  0  0  0  0  0  0  0  0  0  0
   -6.6600    5.1400  -18.4650 C   0  0  0  0  0  0  0  0  0  0  0  0
   -5.8620    5.4160  -17.2340 C   0  0  0  0  0  0  0  0  0  0  0  0
   -6.6040    5.4530  -16.0610 C   0  0  0  0  0  0  0  0  0  0  0  0
   -5.8940    5.6900  -14.9130 N   0  0  0  0  0  0  0  0  0  0  0  0
   -8.0010    5.2590  -16.0410 C   0  0  0  0  0  0  0  0  0  0  0  0
  -10.3000    4.1070  -18.2150 H   0  0  0  0  0  0  0  0  0  0  0  0
  -10.5390    4.3500  -16.4710 H   0  0  0  0  0  0  0  0  0  0  0  0
  -10.6480    5.7280  -17.5500 H   0  0  0  0  0  0  0  0  0  0  0  0
   -7.0620    4.6100  -21.7270 H   0  0  0  0  0  0  0  0  0  0  0  0
   -5.1150    5.1660  -20.0230 H   0  0  0  0  0  0  0  0  0  0  0  0
   -4.7890    5.5700  -17.2480 H   0  0  0  0  0  0  0  0  0  0  0  0
   -5.8100    6.6740  -14.6770 H   0  0  0  0  0  0  0  0  0  0  0  0
   -6.2010    5.1290  -14.1230 H   0  0  0  0  0  0  0  0  0  0  0  0
   -8.5430    5.3010  -15.1000 H   0  0  0  0  0  0  0  0  0  0  0  0
  1  2  1  0
  2  3  2  0
  3  4  1  0
  4  5  1  0
  5  6  2  0
  6  7  1  0
  7  8  2  0
  8  9  1  0
  9 10  1  0
  9 11  2  0
 11  2  1  0
  7  3  1  0
  1 12  1  0
  1 13  1  0
  1 14  1  0
  5 15  1  0
  6 16  1  0
  8 17  1  0
 10 18  1  0
 10 19  1  0
 11 20  1  0
A    1
 C1 
A    2
 C2 
A    3
 C3 
A    4
 S1 
A    5
 C4 
A    6
 C5 
A    7
 C6 
A    8
 C7 
A    9
 C8 
A   10
 N1 
A   11
 C9 
A   12
 H1 
A   13
 H2 
A   14
 H3 
A   15
 H4 
A   16
 H5 
A   17
 H6 
A   18
 H7 
A   19
 H8 
A   20
 H9 
M  END
>  <ref_pdb>  (257) 
x0051_0B

>  <ref_mols>  (257) 
x0605_0B,x0386_0B

>  <original SMILES>  (257) 
[H]c1sc2c(C([H])([H])[H])c([H])c(N([H])[H])c([H])c2c1[H]

>  <index>  (257) 
742

>  <∆∆G>  (257) 
-6.643481

>  <∆G_bound>  (257) 
-6.683791

>  <∆G_unbound>  (257) 
-0.04031

>  <comRMSD>  (257) 
0.819638

>  <N_constrained_atoms>  (257) 
11.0

>  <N_unconstrained_atoms>  (257) 
1.0

>  <runtime>  (257) 
27.400256

>  <LE>  (257) 
0.553623

>  <percent_hybrid>  (257) 
34.0

>  <dist>  (257) 
2.0

>  <ecfp4>  (257) 
0.275

>  <daylight>  (257) 
0.313433

>  <topodist>  (257) 
2.0

>  <mces>  (257) 
10.0

>  <tdn>  (257) 
0.0

>  <tup>  (257) 
1.0

>  <rdn>  (257) 
0.0

>  <rup>  (257) 
1.0

>  <ldn>  (257) 
0.0

>  <lup>  (257) 
0.0

>  <mut>  (257) 
0.0

>  <maj>  (257) 
0.0

>  <min>  (257) 
0.0

>  <hyb>  (257) 
0.0

>  <sub>  (257) 
2.0

>  <query_index>  (257) 
312.0

>  <max_hit_Tanimoto>  (257) 
0.097363

>  <largest_ring>  (257) 
6

>  <N_interactions_kept>  (257) 
1.5

>  <N_interactions_lost>  (257) 
1.0

>  <interaction_uniqueness_metric>  (257) 
0.027887

>  <ad_hoc_penalty>  (257) 
-17.965046

>  <N_rotatable_bonds>  (257) 
2

>  <N_HA>  (257) 
11

>  <cluster>  (257) 
5540

>  <N_interactions>  (257) 
3

>  <Enamine>  (257) 
1

>  <Mcule>  (257) 
0

>  <N_PAINS>  (257) 
0

>  <UFF_Gibbs>  (257) 
36.525581

>  <strain_per_HA>  (257) 
3.320507

>  <intxn_scored>  (257) 
9.0

>  <saltbridge:HIS:51>  (257) 
0

>  <pistack:HIS:51>  (257) 
0

>  <hydroph_interaction:HIS:51>  (257) 
0

>  <hbond:ALA:132>  (257) 
0

>  <hbond:SER:135>  (257) 
0

>  <hydroph_interaction:TYR:150>  (257) 
0

>  <pistack:TYR:161>  (257) 
2

>  <hydroph_interaction:TYR:161>  (257) 
1

>  <hydroph_interaction:ASP:83>  (257) 
0

>  <hbond:TYR:130>  (257) 
0

>  <hydroph_interaction:ALA:132>  (257) 
0

>  <hbond:HIS:51>  (257) 
0

>  <hbond:ASP:129>  (257) 
0

>  <hbond:TYR:150>  (257) 
0

>  <hbond:GLY:151>  (257) 
0

>  <hbond:TYR:161>  (257) 
0

>  <hydroph_interaction:TYR:130>  (257) 
0

>  <hydroph_interaction:PRO:131>  (257) 
0

>  <hydroph_interaction:ASP:129>  (257) 
0

>  <saltbridge:ASP:75>  (257) 
0

>  <saltbridge:ASP:83>  (257) 
0

>  <hbond:ASN:152>  (257) 
0

>  <hydroph_interaction:ASN:152>  (257) 
0

>  <halogenbond:TYR:150>  (257) 
0

>  <hbond:ASP:83>  (257) 
0

>  <hydroph_interaction:VAL:155>  (257) 
0

>  <pication:TYR:161>  (257) 
0

>  <hbond:PRO:131>  (257) 
0

>  <saltbridge:ASP:129>  (257) 
0

>  <hbond:THR:134>  (257) 
0

>  <pication:HIS:51>  (257) 
0

>  <hbond:SER:81>  (257) 
0

>  <hydroph_interaction:THR:134>  (257) 
0

>  <hydroph_interaction:MET:49>  (257) 
0

$$$$
PV-002872184942
     RDKit          3D

 22 23  0  0  0  0  0  0  0  0999 V2000
   -3.2780    5.3240  -20.4150 C   0  0  0  0  0  0  0  0  0  0  0  0
   -3.2640    5.7570  -19.0640 O   0  0  0  0  0  0  0  0  0  0  0  0
   -4.3710    5.5920  -18.2780 C   0  0  0  0  0  0  0  0  0  0  0  0
   -4.3400    5.5720  -16.9010 C   0  0  0  0  0  0  0  0  0  0  0  0
   -5.4040    5.4180  -16.1010 N   0  0  0  0  0  0  0  0  0  0  0  0
   -6.5940    5.2730  -16.6790 C   0  0  0  0  0  0  0  0  0  0  0  0
   -7.6920    5.1160  -15.8600 C   0  0  0  0  0  0  0  0  0  0  0  0
   -8.9580    4.9680  -16.3810 C   0  0  0  0  0  0  0  0  0  0  0  0
   -9.1330    4.9760  -17.7470 C   0  0  0  0  0  0  0  0  0  0  0  0
  -10.4320    4.8500  -18.2440 C   0  0  0  0  0  0  0  0  0  0  0  0
  -11.4950    4.8250  -18.6140 N   0  0  0  0  0  0  0  0  0  0  0  0
   -8.0480    5.1250  -18.6100 C   0  0  0  0  0  0  0  0  0  0  0  0
   -6.7670    5.2760  -18.0790 C   0  0  0  0  0  0  0  0  0  0  0  0
   -5.6270    5.4370  -18.8840 C   0  0  0  0  0  0  0  0  0  0  0  0
   -4.2650    4.9560  -20.7040 H   0  0  0  0  0  0  0  0  0  0  0  0
   -2.9440    6.1180  -21.0910 H   0  0  0  0  0  0  0  0  0  0  0  0
   -2.5660    4.4970  -20.5020 H   0  0  0  0  0  0  0  0  0  0  0  0
   -3.4130    5.6840  -16.3490 H   0  0  0  0  0  0  0  0  0  0  0  0
   -7.5510    5.1130  -14.7840 H   0  0  0  0  0  0  0  0  0  0  0  0
   -9.8050    4.8510  -15.7060 H   0  0  0  0  0  0  0  0  0  0  0  0
   -8.2020    5.1290  -19.6890 H   0  0  0  0  0  0  0  0  0  0  0  0
   -5.7070    5.4450  -19.9690 H   0  0  0  0  0  0  0  0  0  0  0  0
  1  2  1  0
  2  3  1  0
  3  4  2  0
  4  5  1  0
  5  6  2  0
  6  7  1  0
  7  8  2  0
  8  9  1  0
  9 10  1  0
 10 11  3  0
  9 12  2  0
 12 13  1  0
 13 14  2  0
 14  3  1  0
 13  6  1  0
  1 15  1  0
  1 16  1  0
  1 17  1  0
  4 18  1  0
  7 19  1  0
  8 20  1  0
 12 21  1  0
 14 22  1  0
A    1
 C1 
A    2
 O1 
A    3
 C2 
A    4
 C3 
A    5
 N1 
A    6
 C4 
A    7
 C5 
A    8
 C6 
A    9
 C7 
A   10
 C8 
A   11
 N2 
A   12
 C9 
A   13
 C10
A   14
 C11
A   15
 H1 
A   16
 H2 
A   17
 H3 
A   18
 H4 
A   19
 H5 
A   20
 H6 
A   21
 H7 
A   22
 H8 
M  END
>  <ref_pdb>  (258) 
x0051_0B

>  <ref_mols>  (258) 
x0553_0B,x0051_0B

>  <original SMILES>  (258) 
[H]c1nc2c([H])c([H])c(C#N)c([H])c2c([H])c1OC([H])([H])[H]

>  <index>  (258) 
3725

>  <∆∆G>  (258) 
-5.229975

>  <∆G_bound>  (258) 
-5.254314

>  <∆G_unbound>  (258) 
-0.024339

>  <comRMSD>  (258) 
0.571043

>  <N_constrained_atoms>  (258) 
14.0

>  <N_unconstrained_atoms>  (258) 
0.0

>  <runtime>  (258) 
31.524065

>  <LE>  (258) 
0.37357

>  <percent_hybrid>  (258) 
29.0

>  <dist>  (258) 
1.0

>  <ecfp4>  (258) 
0.621622

>  <daylight>  (258) 
0.506494

>  <topodist>  (258) 
0.0

>  <mces>  (258) 
15.0

>  <tdn>  (258) 
0.0

>  <tup>  (258) 
0.0

>  <rdn>  (258) 
0.0

>  <rup>  (258) 
0.0

>  <ldn>  (258) 
0.0

>  <lup>  (258) 
0.0

>  <mut>  (258) 
1.0

>  <maj>  (258) 
1.0

>  <min>  (258) 
0.0

>  <hyb>  (258) 
0.0

>  <sub>  (258) 
0.0

>  <query_index>  (258) 
238.0

>  <max_hit_Tanimoto>  (258) 
0.24344

>  <largest_ring>  (258) 
6

>  <N_interactions_kept>  (258) 
1.0

>  <N_interactions_lost>  (258) 
2.5

>  <interaction_uniqueness_metric>  (258) 
0.027887

>  <ad_hoc_penalty>  (258) 
-0.079735

>  <N_rotatable_bonds>  (258) 
2

>  <N_HA>  (258) 
14

>  <cluster>  (258) 
2759

>  <N_interactions>  (258) 
3

>  <Enamine>  (258) 
1

>  <Mcule>  (258) 
0

>  <N_PAINS>  (258) 
0

>  <UFF_Gibbs>  (258) 
44.959287

>  <strain_per_HA>  (258) 
3.211378

>  <intxn_scored>  (258) 
9.0

>  <saltbridge:HIS:51>  (258) 
0

>  <pistack:HIS:51>  (258) 
0

>  <hydroph_interaction:HIS:51>  (258) 
0

>  <hbond:ALA:132>  (258) 
0

>  <hbond:SER:135>  (258) 
0

>  <hydroph_interaction:TYR:150>  (258) 
0

>  <pistack:TYR:161>  (258) 
2

>  <hydroph_interaction:TYR:161>  (258) 
1

>  <hydroph_interaction:ASP:83>  (258) 
0

>  <hbond:TYR:130>  (258) 
0

>  <hydroph_interaction:ALA:132>  (258) 
0

>  <hbond:HIS:51>  (258) 
0

>  <hbond:ASP:129>  (258) 
0

>  <hbond:TYR:150>  (258) 
0

>  <hbond:GLY:151>  (258) 
0

>  <hbond:TYR:161>  (258) 
0

>  <hydroph_interaction:TYR:130>  (258) 
0

>  <hydroph_interaction:PRO:131>  (258) 
0

>  <hydroph_interaction:ASP:129>  (258) 
0

>  <saltbridge:ASP:75>  (258) 
0

>  <saltbridge:ASP:83>  (258) 
0

>  <hbond:ASN:152>  (258) 
0

>  <hydroph_interaction:ASN:152>  (258) 
0

>  <halogenbond:TYR:150>  (258) 
0

>  <hbond:ASP:83>  (258) 
0

>  <hydroph_interaction:VAL:155>  (258) 
0

>  <pication:TYR:161>  (258) 
0

>  <hbond:PRO:131>  (258) 
0

>  <saltbridge:ASP:129>  (258) 
0

>  <hbond:THR:134>  (258) 
0

>  <pication:HIS:51>  (258) 
0

>  <hbond:SER:81>  (258) 
0

>  <hydroph_interaction:THR:134>  (258) 
0

>  <hydroph_interaction:MET:49>  (258) 
0

$$$$
Z3375757598
     RDKit          3D

 23 24  0  0  0  0  0  0  0  0999 V2000
   -6.3600    6.1280  -15.0580 C   0  0  0  0  0  0  0  0  0  0  0  0
   -7.4890    5.6360  -15.9700 C   0  0  0  0  0  0  0  0  0  0  0  0
   -8.8340    5.4220  -15.3960 N   0  0  0  0  0  0  0  0  0  0  0  0
   -9.6190    4.9890  -16.4190 N   0  0  0  0  0  0  0  0  0  0  0  0
   -8.9750    4.8800  -17.6160 C   0  0  0  0  0  0  0  0  0  0  0  0
   -7.5230    5.2880  -17.4620 C   0  0  0  0  0  0  0  0  0  0  0  0
   -6.4660    5.2970  -18.5680 C   0  0  0  0  0  0  0  0  0  0  0  0
   -5.1240    5.5670  -18.2280 C   0  0  0  0  0  0  0  0  0  0  0  0
   -4.0650    5.5710  -19.3070 C   0  0  0  0  0  0  0  0  0  0  0  0
   -4.5240    5.3000  -20.5960 C   0  0  0  0  0  0  0  0  0  0  0  0
   -5.8640    5.0290  -20.9320 C   0  0  0  0  0  0  0  0  0  0  0  0
   -6.8060    5.0320  -19.9090 C   0  0  0  0  0  0  0  0  0  0  0  0
   -8.0690    4.7550  -20.3030 O   0  0  0  0  0  0  0  0  0  0  0  0
   -5.7360    6.8600  -15.5820 H   0  0  0  0  0  0  0  0  0  0  0  0
   -5.7430    5.2970  -14.7070 H   0  0  0  0  0  0  0  0  0  0  0  0
   -6.7720    6.6330  -14.1780 H   0  0  0  0  0  0  0  0  0  0  0  0
  -10.5880    4.7850  -16.2110 H   0  0  0  0  0  0  0  0  0  0  0  0
   -9.3350    4.5640  -18.6020 H   0  0  0  0  0  0  0  0  0  0  0  0
   -4.8400    5.7720  -17.1980 H   0  0  0  0  0  0  0  0  0  0  0  0
   -3.0180    5.7730  -19.0940 H   0  0  0  0  0  0  0  0  0  0  0  0
   -3.8190    5.2820  -21.4320 H   0  0  0  0  0  0  0  0  0  0  0  0
   -6.1540    4.8200  -21.9590 H   0  0  0  0  0  0  0  0  0  0  0  0
   -8.3470    5.4530  -20.9180 H   0  0  0  0  0  0  0  0  0  0  0  0
  1  2  1  0
  2  3  2  0
  3  4  1  0
  4  5  1  0
  5  6  2  0
  6  7  1  0
  7  8  2  0
  8  9  1  0
  9 10  2  0
 10 11  1  0
 11 12  2  0
 12 13  1  0
  6  2  1  0
 12  7  1  0
  1 14  1  0
  1 15  1  0
  1 16  1  0
  4 17  1  0
  5 18  1  0
  8 19  1  0
  9 20  1  0
 10 21  1  0
 11 22  1  0
 13 23  1  0
A    1
 C1 
A    2
 C2 
A    3
 N1 
A    4
 N2 
A    5
 C3 
A    6
 C4 
A    7
 C5 
A    8
 C6 
A    9
 C7 
A   10
 C8 
A   11
 C9 
A   12
 C10
A   13
 O1 
A   14
 H1 
A   15
 H2 
A   16
 H3 
A   17
 H4 
A   18
 H5 
A   19
 H6 
A   20
 H7 
A   21
 H8 
A   22
 H9 
A   23
 H10
M  END
>  <ref_pdb>  (259) 
x0051_0B

>  <ref_mols>  (259) 
x0680_0B,x0693_0B

>  <original SMILES>  (259) 
[H]Oc1c([H])c([H])c([H])c([H])c1-c1c(C([H])([H])[H])nn([H])c1[H]

>  <index>  (259) 
1304

>  <∆∆G>  (259) 
-5.477669

>  <∆G_bound>  (259) 
-5.272901

>  <∆G_unbound>  (259) 
0.204768

>  <comRMSD>  (259) 
0.754972

>  <N_constrained_atoms>  (259) 
15.0

>  <N_unconstrained_atoms>  (259) 
1.0

>  <runtime>  (259) 
22.92898

>  <LE>  (259) 
0.342354

>  <percent_hybrid>  (259) 
45.0

>  <dist>  (259) 
3.0

>  <ecfp4>  (259) 
0.236364

>  <daylight>  (259) 
0.358025

>  <topodist>  (259) 
2.0

>  <mces>  (259) 
14.0

>  <tdn>  (259) 
1.0

>  <tup>  (259) 
0.0

>  <rdn>  (259) 
1.0

>  <rup>  (259) 
0.0

>  <ldn>  (259) 
0.0

>  <lup>  (259) 
0.0

>  <mut>  (259) 
1.0

>  <maj>  (259) 
1.0

>  <min>  (259) 
0.0

>  <hyb>  (259) 
0.0

>  <sub>  (259) 
2.0

>  <query_index>  (259) 
168.0

>  <max_hit_Tanimoto>  (259) 
0.157895

>  <largest_ring>  (259) 
6

>  <N_interactions_kept>  (259) 
4.0

>  <N_interactions_lost>  (259) 
2.0

>  <interaction_uniqueness_metric>  (259) 
0.131303

>  <ad_hoc_penalty>  (259) 
-12.339175

>  <N_rotatable_bonds>  (259) 
3

>  <N_HA>  (259) 
13

>  <cluster>  (259) 
5022

>  <N_interactions>  (259) 
5

>  <Enamine>  (259) 
1

>  <Mcule>  (259) 
0

>  <N_PAINS>  (259) 
0

>  <UFF_Gibbs>  (259) 
69.911326

>  <strain_per_HA>  (259) 
5.377794

>  <intxn_scored>  (259) 
9.0

>  <saltbridge:HIS:51>  (259) 
0

>  <pistack:HIS:51>  (259) 
0

>  <hydroph_interaction:HIS:51>  (259) 
0

>  <hbond:ALA:132>  (259) 
0

>  <hbond:SER:135>  (259) 
0

>  <hydroph_interaction:TYR:150>  (259) 
0

>  <pistack:TYR:161>  (259) 
1

>  <hydroph_interaction:TYR:161>  (259) 
2

>  <hydroph_interaction:ASP:83>  (259) 
0

>  <hbond:TYR:130>  (259) 
1

>  <hydroph_interaction:ALA:132>  (259) 
0

>  <hbond:HIS:51>  (259) 
0

>  <hbond:ASP:129>  (259) 
0

>  <hbond:TYR:150>  (259) 
1

>  <hbond:GLY:151>  (259) 
0

>  <hbond:TYR:161>  (259) 
0

>  <hydroph_interaction:TYR:130>  (259) 
0

>  <hydroph_interaction:PRO:131>  (259) 
0

>  <hydroph_interaction:ASP:129>  (259) 
0

>  <saltbridge:ASP:75>  (259) 
0

>  <saltbridge:ASP:83>  (259) 
0

>  <hbond:ASN:152>  (259) 
0

>  <hydroph_interaction:ASN:152>  (259) 
0

>  <halogenbond:TYR:150>  (259) 
0

>  <hbond:ASP:83>  (259) 
0

>  <hydroph_interaction:VAL:155>  (259) 
0

>  <pication:TYR:161>  (259) 
0

>  <hbond:PRO:131>  (259) 
0

>  <saltbridge:ASP:129>  (259) 
0

>  <hbond:THR:134>  (259) 
0

>  <pication:HIS:51>  (259) 
0

>  <hbond:SER:81>  (259) 
0

>  <hydroph_interaction:THR:134>  (259) 
0

>  <hydroph_interaction:MET:49>  (259) 
0

$$$$
CSCS00104127517
     RDKit          3D

 33 35  0  0  0  0  0  0  0  0999 V2000
   -7.8680    4.6790   -9.6440 C   0  0  0  0  0  0  0  0  0  0  0  0
   -8.5760    5.4010  -10.6690 N   0  0  0  0  0  0  0  0  0  0  0  0
   -9.3400    6.4360  -10.3140 N   0  0  0  0  0  0  0  0  0  0  0  0
   -9.8770    6.8930  -11.4580 C   0  0  0  0  0  0  0  0  0  0  0  0
  -10.8350    8.0900  -11.4030 C   0  0  0  0  0  0  0  0  0  0  0  0
   -9.4550    6.1580  -12.5920 C   0  0  0  0  0  0  0  0  0  0  0  0
   -8.6190    5.2120  -12.0460 C   0  0  0  0  0  0  0  0  0  0  0  0
   -7.9530    4.2230  -12.9660 C   0  0  0  0  0  0  0  0  0  0  0  0
   -8.5340    4.4490  -14.2640 N   0  0  0  0  0  0  0  0  0  0  0  0
   -8.1270    5.4310  -15.1330 C   0  0  0  0  0  0  0  0  0  0  0  0
   -7.5710    6.4660  -14.7800 O   0  0  0  0  0  0  0  0  0  0  0  0
   -8.4020    5.2100  -16.4950 C   0  0  0  0  0  0  0  0  0  0  0  0
   -9.6730    4.8630  -16.9060 C   0  0  0  0  0  0  0  0  0  0  0  0
  -10.0270    4.6330  -18.2150 C   0  0  0  0  0  0  0  0  0  0  0  0
   -9.1120    4.7270  -19.2460 C   0  0  0  0  0  0  0  0  0  0  0  0
   -7.8000    5.0720  -18.9000 C   0  0  0  0  0  0  0  0  0  0  0  0
   -6.7940    5.2040  -19.7750 N   0  0  0  0  0  0  0  0  0  0  0  0
   -5.4550    5.6210  -18.9040 S   0  0  0  0  0  0  0  0  0  0  0  0
   -6.1240    5.6410  -17.3900 N   0  0  0  0  0  0  0  0  0  0  0  0
   -7.4260    5.3190  -17.5330 C   0  0  0  0  0  0  0  0  0  0  0  0
   -6.8380    4.4650   -9.9430 H   0  0  0  0  0  0  0  0  0  0  0  0
   -8.3960    3.7400   -9.4520 H   0  0  0  0  0  0  0  0  0  0  0  0
   -7.8600    5.2590   -8.7140 H   0  0  0  0  0  0  0  0  0  0  0  0
  -11.8660    7.7660  -11.5900 H   0  0  0  0  0  0  0  0  0  0  0  0
  -10.8060    8.5720  -10.4200 H   0  0  0  0  0  0  0  0  0  0  0  0
  -10.5610    8.8410  -12.1520 H   0  0  0  0  0  0  0  0  0  0  0  0
   -9.7230    6.3010  -13.6410 H   0  0  0  0  0  0  0  0  0  0  0  0
   -8.1070    3.1830  -12.6520 H   0  0  0  0  0  0  0  0  0  0  0  0
   -6.8750    4.3990  -13.0390 H   0  0  0  0  0  0  0  0  0  0  0  0
   -9.1190    3.7100  -14.6310 H   0  0  0  0  0  0  0  0  0  0  0  0
  -10.4400    4.7650  -16.1380 H   0  0  0  0  0  0  0  0  0  0  0  0
  -11.0660    4.3660  -18.4440 H   0  0  0  0  0  0  0  0  0  0  0  0
   -9.3880    4.5440  -20.2800 H   0  0  0  0  0  0  0  0  0  0  0  0
  1  2  1  0
  2  3  1  0
  3  4  2  0
  4  5  1  0
  4  6  1  0
  6  7  2  0
  7  8  1  0
  8  9  1  0
  9 10  1  0
 10 11  2  0
 10 12  1  0
 12 13  2  0
 13 14  1  0
 14 15  2  0
 15 16  1  0
 16 17  2  0
 17 18  1  0
 18 19  1  0
 19 20  2  0
  7  2  1  0
 20 12  1  0
 20 16  1  0
  1 21  1  0
  1 22  1  0
  1 23  1  0
  5 24  1  0
  5 25  1  0
  5 26  1  0
  6 27  1  0
  8 28  1  0
  8 29  1  0
  9 30  1  0
 13 31  1  0
 14 32  1  0
 15 33  1  0
A    1
 C1 
A    2
 N1 
A    3
 N2 
A    4
 C2 
A    5
 C3 
A    6
 C4 
A    7
 C5 
A    8
 C6 
A    9
 N3 
A   10
 C7 
A   11
 O1 
A   12
 C8 
A   13
 C9 
A   14
 C10
A   15
 C11
A   16
 C12
A   17
 N4 
A   18
 S1 
A   19
 N5 
A   20
 C13
A   21
 H1 
A   22
 H2 
A   23
 H3 
A   24
 H4 
A   25
 H5 
A   26
 H6 
A   27
 H7 
A   28
 H8 
A   29
 H9 
A   30
 H10
A   31
 H11
A   32
 H12
A   33
 H13
M  END
>  <ref_pdb>  (260) 
x0051_0B

>  <ref_mols>  (260) 
x1098_0B,x0490_0B

>  <original SMILES>  (260) 
[H]c1c([H])c(C(=O)N([H])C([H])([H])c2c([H])c(C([H])([H])[H])nn2C([H])([H])[H])c2nsnc2c1[H]

>  <index>  (260) 
2883

>  <∆∆G>  (260) 
-7.730515

>  <∆G_bound>  (260) 
-6.703714

>  <∆G_unbound>  (260) 
1.026801

>  <comRMSD>  (260) 
0.636303

>  <N_constrained_atoms>  (260) 
18.0

>  <N_unconstrained_atoms>  (260) 
2.0

>  <runtime>  (260) 
54.052689

>  <LE>  (260) 
0.386526

>  <percent_hybrid>  (260) 
10.0

>  <dist>  (260) 
9.0

>  <ecfp4>  (260) 
0.2375

>  <daylight>  (260) 
0.263598

>  <topodist>  (260) 
4.0

>  <mces>  (260) 
20.0

>  <tdn>  (260) 
2.0

>  <tup>  (260) 
1.0

>  <rdn>  (260) 
0.0

>  <rup>  (260) 
0.0

>  <ldn>  (260) 
0.0

>  <lup>  (260) 
1.0

>  <mut>  (260) 
3.0

>  <maj>  (260) 
3.0

>  <min>  (260) 
0.0

>  <hyb>  (260) 
2.0

>  <sub>  (260) 
0.0

>  <query_index>  (260) 
69.0

>  <max_hit_Tanimoto>  (260) 
0.27988

>  <largest_ring>  (260) 
6

>  <N_interactions_kept>  (260) 
3.0

>  <N_interactions_lost>  (260) 
3.0

>  <interaction_uniqueness_metric>  (260) 
0.108789

>  <ad_hoc_penalty>  (260) 
-5.831502

>  <N_rotatable_bonds>  (260) 
5

>  <N_HA>  (260) 
20

>  <cluster>  (260) 
3556

>  <N_interactions>  (260) 
5

>  <Enamine>  (260) 
1

>  <Mcule>  (260) 
0

>  <N_PAINS>  (260) 
0

>  <UFF_Gibbs>  (260) 
48.31409

>  <strain_per_HA>  (260) 
2.415705

>  <intxn_scored>  (260) 
9.0

>  <saltbridge:HIS:51>  (260) 
0

>  <pistack:HIS:51>  (260) 
0

>  <hydroph_interaction:HIS:51>  (260) 
1

>  <hbond:ALA:132>  (260) 
0

>  <hbond:SER:135>  (260) 
0

>  <hydroph_interaction:TYR:150>  (260) 
1

>  <pistack:TYR:161>  (260) 
2

>  <hydroph_interaction:TYR:161>  (260) 
0

>  <hydroph_interaction:ASP:83>  (260) 
0

>  <hbond:TYR:130>  (260) 
0

>  <hydroph_interaction:ALA:132>  (260) 
0

>  <hbond:HIS:51>  (260) 
0

>  <hbond:ASP:129>  (260) 
0

>  <hbond:TYR:150>  (260) 
0

>  <hbond:GLY:151>  (260) 
1

>  <hbond:TYR:161>  (260) 
0

>  <hydroph_interaction:TYR:130>  (260) 
0

>  <hydroph_interaction:PRO:131>  (260) 
0

>  <hydroph_interaction:ASP:129>  (260) 
0

>  <saltbridge:ASP:75>  (260) 
0

>  <saltbridge:ASP:83>  (260) 
0

>  <hbond:ASN:152>  (260) 
0

>  <hydroph_interaction:ASN:152>  (260) 
0

>  <halogenbond:TYR:150>  (260) 
0

>  <hbond:ASP:83>  (260) 
0

>  <hydroph_interaction:VAL:155>  (260) 
0

>  <pication:TYR:161>  (260) 
0

>  <hbond:PRO:131>  (260) 
0

>  <saltbridge:ASP:129>  (260) 
0

>  <hbond:THR:134>  (260) 
0

>  <pication:HIS:51>  (260) 
0

>  <hbond:SER:81>  (260) 
0

>  <hydroph_interaction:THR:134>  (260) 
0

>  <hydroph_interaction:MET:49>  (260) 
0

$$$$
Z5431392412
     RDKit          3D

 24 25  0  0  0  0  0  0  0  0999 V2000
   -2.6410    5.2030  -16.6580 C   0  0  0  0  0  0  0  0  0  0  0  0
   -3.5360    5.0620  -15.4270 C   0  0  0  0  0  0  0  0  0  0  0  0
   -4.9120    5.4700  -15.7120 N   0  0  0  0  0  0  0  0  0  0  0  0
   -5.3640    5.4230  -17.0570 C   0  0  0  0  0  0  0  0  0  0  0  0
   -4.4880    5.5400  -18.1180 N   0  0  0  0  0  0  0  0  0  0  0  0
   -4.9080    5.5010  -19.4130 N   0  0  0  0  0  0  0  0  0  0  0  0
   -6.2070    5.3440  -19.6560 C   0  0  0  0  0  0  0  0  0  0  0  0
   -7.1460    5.2220  -18.6660 C   0  0  0  0  0  0  0  0  0  0  0  0
   -8.4600    5.0700  -19.0030 C   0  0  0  0  0  0  0  0  0  0  0  0
   -9.5050    4.9450  -17.9260 C   0  0  0  0  0  0  0  0  0  0  0  0
  -11.0970    4.7990  -18.4070 Cl  0  0  0  0  0  0  0  0  0  0  0  0
   -9.0910    4.9760  -16.6070 C   0  0  0  0  0  0  0  0  0  0  0  0
   -7.7380    5.1280  -16.3130 C   0  0  0  0  0  0  0  0  0  0  0  0
   -6.7420    5.2570  -17.3060 C   0  0  0  0  0  0  0  0  0  0  0  0
   -2.7960    6.1770  -17.1250 H   0  0  0  0  0  0  0  0  0  0  0  0
   -2.8760    4.4220  -17.3850 H   0  0  0  0  0  0  0  0  0  0  0  0
   -1.5920    5.1170  -16.3740 H   0  0  0  0  0  0  0  0  0  0  0  0
   -2.9910    5.5370  -14.6020 H   0  0  0  0  0  0  0  0  0  0  0  0
   -3.5360    3.9980  -15.1700 H   0  0  0  0  0  0  0  0  0  0  0  0
   -5.1040    6.3990  -15.3590 H   0  0  0  0  0  0  0  0  0  0  0  0
   -6.5030    5.3180  -20.7060 H   0  0  0  0  0  0  0  0  0  0  0  0
   -8.8510    5.0370  -20.0290 H   0  0  0  0  0  0  0  0  0  0  0  0
   -9.8090    4.8860  -15.7880 H   0  0  0  0  0  0  0  0  0  0  0  0
   -7.3320    5.1630  -15.2940 H   0  0  0  0  0  0  0  0  0  0  0  0
  1  2  1  0
  2  3  1  0
  3  4  1  0
  4  5  2  0
  5  6  1  0
  6  7  2  0
  7  8  1  0
  8  9  2  0
  9 10  1  0
 10 11  1  0
 10 12  2  0
 12 13  1  0
 13 14  2  0
 14  4  1  0
 14  8  1  0
  1 15  1  0
  1 16  1  0
  1 17  1  0
  2 18  1  0
  2 19  1  0
  3 20  1  0
  7 21  1  0
  9 22  1  0
 12 23  1  0
 13 24  1  0
A    1
 C1 
A    2
 C2 
A    3
 N1 
A    4
 C3 
A    5
 N2 
A    6
 N3 
A    7
 C4 
A    8
 C5 
A    9
 C6 
A   10
 C7 
A   11
CL1 
A   12
 C8 
A   13
 C9 
A   14
 C10
A   15
 H1 
A   16
 H2 
A   17
 H3 
A   18
 H4 
A   19
 H5 
A   20
 H6 
A   21
 H7 
A   22
 H8 
A   23
 H9 
A   24
 H10
M  END
>  <ref_pdb>  (261) 
x0051_0B

>  <ref_mols>  (261) 
x0727_0B,x0605_0B

>  <original SMILES>  (261) 
[H]c1c(Cl)c([H])c2c([H])nnc(N([H])C([H])([H])C([H])([H])[H])c2c1[H]

>  <index>  (261) 
3355

>  <∆∆G>  (261) 
-5.213851

>  <∆G_bound>  (261) 
-5.0878

>  <∆G_unbound>  (261) 
0.126051

>  <comRMSD>  (261) 
0.717474

>  <N_constrained_atoms>  (261) 
13.0

>  <N_unconstrained_atoms>  (261) 
1.0

>  <runtime>  (261) 
25.778718

>  <LE>  (261) 
0.372418

>  <percent_hybrid>  (261) 
20.0

>  <dist>  (261) 
3.0

>  <ecfp4>  (261) 
0.235294

>  <daylight>  (261) 
0.309091

>  <topodist>  (261) 
1.0

>  <mces>  (261) 
14.0

>  <tdn>  (261) 
0.0

>  <tup>  (261) 
1.0

>  <rdn>  (261) 
0.0

>  <rup>  (261) 
0.0

>  <ldn>  (261) 
0.0

>  <lup>  (261) 
0.0

>  <mut>  (261) 
2.0

>  <maj>  (261) 
2.0

>  <min>  (261) 
0.0

>  <hyb>  (261) 
0.0

>  <sub>  (261) 
1.0

>  <query_index>  (261) 
74.0

>  <max_hit_Tanimoto>  (261) 
0.376518

>  <largest_ring>  (261) 
6

>  <N_interactions_kept>  (261) 
1.0

>  <N_interactions_lost>  (261) 
2.5

>  <interaction_uniqueness_metric>  (261) 
0.061055

>  <ad_hoc_penalty>  (261) 
-0.1328

>  <N_rotatable_bonds>  (261) 
3

>  <N_HA>  (261) 
14

>  <cluster>  (261) 
3108

>  <N_interactions>  (261) 
4

>  <Enamine>  (261) 
1

>  <Mcule>  (261) 
0

>  <N_PAINS>  (261) 
0

>  <UFF_Gibbs>  (261) 
72.889279

>  <strain_per_HA>  (261) 
5.206377

>  <intxn_scored>  (261) 
9.0

>  <saltbridge:HIS:51>  (261) 
0

>  <pistack:HIS:51>  (261) 
0

>  <hydroph_interaction:HIS:51>  (261) 
0

>  <hbond:ALA:132>  (261) 
0

>  <hbond:SER:135>  (261) 
0

>  <hydroph_interaction:TYR:150>  (261) 
0

>  <pistack:TYR:161>  (261) 
2

>  <hydroph_interaction:TYR:161>  (261) 
1

>  <hydroph_interaction:ASP:83>  (261) 
0

>  <hbond:TYR:130>  (261) 
0

>  <hydroph_interaction:ALA:132>  (261) 
0

>  <hbond:HIS:51>  (261) 
0

>  <hbond:ASP:129>  (261) 
0

>  <hbond:TYR:150>  (261) 
0

>  <hbond:GLY:151>  (261) 
0

>  <hbond:TYR:161>  (261) 
0

>  <hydroph_interaction:TYR:130>  (261) 
0

>  <hydroph_interaction:PRO:131>  (261) 
0

>  <hydroph_interaction:ASP:129>  (261) 
0

>  <saltbridge:ASP:75>  (261) 
0

>  <saltbridge:ASP:83>  (261) 
0

>  <hbond:ASN:152>  (261) 
0

>  <hydroph_interaction:ASN:152>  (261) 
0

>  <halogenbond:TYR:150>  (261) 
0

>  <hbond:ASP:83>  (261) 
0

>  <hydroph_interaction:VAL:155>  (261) 
1

>  <pication:TYR:161>  (261) 
0

>  <hbond:PRO:131>  (261) 
0

>  <saltbridge:ASP:129>  (261) 
0

>  <hbond:THR:134>  (261) 
0

>  <pication:HIS:51>  (261) 
0

>  <hbond:SER:81>  (261) 
0

>  <hydroph_interaction:THR:134>  (261) 
0

>  <hydroph_interaction:MET:49>  (261) 
0

$$$$
CSSB00040469456
     RDKit          3D

 26 27  0  0  0  0  0  0  0  0999 V2000
   -4.6820    5.5330  -20.1130 C   0  0  0  0  0  0  0  0  0  0  0  0
   -5.4740    6.0620  -19.0160 N   0  0  0  0  0  0  0  0  0  0  0  0
   -4.8890    5.6780  -17.7270 C   0  0  0  0  0  0  0  0  0  0  0  0
   -5.7440    6.2820  -16.5750 C   0  0  0  0  0  0  0  0  0  0  0  0
   -7.0100    5.7850  -16.7210 N   0  0  0  0  0  0  0  0  0  0  0  0
   -7.7970    5.5880  -15.6320 N   0  0  0  0  0  0  0  0  0  0  0  0
   -8.8930    5.1040  -16.1940 C   0  0  0  0  0  0  0  0  0  0  0  0
   -8.8240    4.9840  -17.6970 C   0  0  0  0  0  0  0  0  0  0  0  0
   -9.8150    4.5020  -18.6680 C   0  0  0  0  0  0  0  0  0  0  0  0
   -9.3080    4.8610  -19.9750 N   0  0  0  0  0  0  0  0  0  0  0  0
   -7.5550    5.4550  -17.9490 C   0  0  0  0  0  0  0  0  0  0  0  0
   -6.8620    5.6080  -19.1840 C   0  0  0  0  0  0  0  0  0  0  0  0
   -4.4160    6.3150  -20.8330 H   0  0  0  0  0  0  0  0  0  0  0  0
   -3.7680    5.0640  -19.7420 H   0  0  0  0  0  0  0  0  0  0  0  0
   -5.2810    4.7750  -20.6260 H   0  0  0  0  0  0  0  0  0  0  0  0
   -4.8080    4.5990  -17.6240 H   0  0  0  0  0  0  0  0  0  0  0  0
   -3.8870    6.1110  -17.6730 H   0  0  0  0  0  0  0  0  0  0  0  0
   -5.4250    6.0180  -15.5650 H   0  0  0  0  0  0  0  0  0  0  0  0
   -5.7910    7.3730  -16.6600 H   0  0  0  0  0  0  0  0  0  0  0  0
   -9.8210    4.7870  -15.7070 H   0  0  0  0  0  0  0  0  0  0  0  0
   -9.8980    3.4230  -18.6170 H   0  0  0  0  0  0  0  0  0  0  0  0
  -10.8060    4.9410  -18.5060 H   0  0  0  0  0  0  0  0  0  0  0  0
   -9.8850    5.6050  -20.3720 H   0  0  0  0  0  0  0  0  0  0  0  0
   -9.4050    4.0580  -20.6140 H   0  0  0  0  0  0  0  0  0  0  0  0
   -7.2720    6.2040  -19.9880 H   0  0  0  0  0  0  0  0  0  0  0  0
   -6.8070    4.6030  -19.6210 H   0  0  0  0  0  0  0  0  0  0  0  0
  1  2  1  0
  2  3  1  0
  3  4  1  0
  4  5  1  0
  5  6  1  0
  6  7  2  0
  7  8  1  0
  8  9  1  0
  9 10  1  0
  8 11  2  0
 11 12  1  0
 12  2  1  0
 11  5  1  0
  1 13  1  0
  1 14  1  0
  1 15  1  0
  3 16  1  0
  3 17  1  0
  4 18  1  0
  4 19  1  0
  7 20  1  0
  9 21  1  0
  9 22  1  0
 10 23  1  0
 10 24  1  0
 12 25  1  0
 12 26  1  0
A    1
 C1 
A    2
 N1 
A    3
 C2 
A    4
 C3 
A    5
 N2 
A    6
 N3 
A    7
 C4 
A    8
 C5 
A    9
 C6 
A   10
 N4 
A   11
 C7 
A   12
 C8 
A   13
 H1 
A   14
 H2 
A   15
 H3 
A   16
 H4 
A   17
 H5 
A   18
 H6 
A   19
 H7 
A   20
 H8 
A   21
 H9 
A   22
 H10
A   23
 H11
A   24
 H12
A   25
 H13
A   26
 H14
M  END
>  <ref_pdb>  (262) 
x0051_0B

>  <ref_mols>  (262) 
x0969_0B,x0443_0B

>  <original SMILES>  (262) 
[H]c1nn2c(c1C([H])([H])N([H])[H])C([H])([H])N(C([H])([H])[H])C([H])([H])C2([H])[H]

>  <index>  (262) 
1604

>  <∆∆G>  (262) 
-6.090533

>  <∆G_bound>  (262) 
-5.941898

>  <∆G_unbound>  (262) 
0.148635

>  <comRMSD>  (262) 
0.91938

>  <N_constrained_atoms>  (262) 
14.0

>  <N_unconstrained_atoms>  (262) 
1.0

>  <runtime>  (262) 
27.737338

>  <LE>  (262) 
0.406036

>  <percent_hybrid>  (262) 
43.0

>  <dist>  (262) 
3.0

>  <ecfp4>  (262) 
0.22

>  <daylight>  (262) 
0.744966

>  <topodist>  (262) 
2.0

>  <mces>  (262) 
12.0

>  <tdn>  (262) 
1.0

>  <tup>  (262) 
1.0

>  <rdn>  (262) 
0.0

>  <rup>  (262) 
0.0

>  <ldn>  (262) 
0.0

>  <lup>  (262) 
0.0

>  <mut>  (262) 
1.0

>  <maj>  (262) 
1.0

>  <min>  (262) 
0.0

>  <hyb>  (262) 
0.0

>  <sub>  (262) 
2.0

>  <query_index>  (262) 
183.0

>  <max_hit_Tanimoto>  (262) 
0.792929

>  <largest_ring>  (262) 
6

>  <N_interactions_kept>  (262) 
1.5

>  <N_interactions_lost>  (262) 
2.0

>  <interaction_uniqueness_metric>  (262) 
0.202841

>  <ad_hoc_penalty>  (262) 
-11.159057

>  <N_rotatable_bonds>  (262) 
3

>  <N_HA>  (262) 
12

>  <cluster>  (262) 
4744

>  <N_interactions>  (262) 
4

>  <Enamine>  (262) 
1

>  <Mcule>  (262) 
0

>  <N_PAINS>  (262) 
0

>  <UFF_Gibbs>  (262) 
63.14758

>  <strain_per_HA>  (262) 
5.262298

>  <intxn_scored>  (262) 
9.0

>  <saltbridge:HIS:51>  (262) 
0

>  <pistack:HIS:51>  (262) 
0

>  <hydroph_interaction:HIS:51>  (262) 
0

>  <hbond:ALA:132>  (262) 
0

>  <hbond:SER:135>  (262) 
0

>  <hydroph_interaction:TYR:150>  (262) 
0

>  <pistack:TYR:161>  (262) 
1

>  <hydroph_interaction:TYR:161>  (262) 
0

>  <hydroph_interaction:ASP:83>  (262) 
0

>  <hbond:TYR:130>  (262) 
1

>  <hydroph_interaction:ALA:132>  (262) 
0

>  <hbond:HIS:51>  (262) 
0

>  <hbond:ASP:129>  (262) 
0

>  <hbond:TYR:150>  (262) 
1

>  <hbond:GLY:151>  (262) 
0

>  <hbond:TYR:161>  (262) 
0

>  <hydroph_interaction:TYR:130>  (262) 
0

>  <hydroph_interaction:PRO:131>  (262) 
0

>  <hydroph_interaction:ASP:129>  (262) 
0

>  <saltbridge:ASP:75>  (262) 
0

>  <saltbridge:ASP:83>  (262) 
0

>  <hbond:ASN:152>  (262) 
0

>  <hydroph_interaction:ASN:152>  (262) 
0

>  <halogenbond:TYR:150>  (262) 
0

>  <hbond:ASP:83>  (262) 
0

>  <hydroph_interaction:VAL:155>  (262) 
0

>  <pication:TYR:161>  (262) 
1

>  <hbond:PRO:131>  (262) 
0

>  <saltbridge:ASP:129>  (262) 
0

>  <hbond:THR:134>  (262) 
0

>  <pication:HIS:51>  (262) 
0

>  <hbond:SER:81>  (262) 
0

>  <hydroph_interaction:THR:134>  (262) 
0

>  <hydroph_interaction:MET:49>  (262) 
0

$$$$
Z2480315080
     RDKit          3D

 45 48  0  0  0  0  0  0  0  0999 V2000
   -9.9450    6.1400  -14.3360 O   0  0  0  0  0  0  0  0  0  0  0  0
   -8.7300    6.0690  -14.1670 C   0  0  0  0  0  0  0  0  0  0  0  0
   -8.1350    6.0670  -12.9420 O   0  0  0  0  0  0  0  0  0  0  0  0
   -8.6780    5.0400  -12.1170 C   0  0  0  0  0  0  0  0  0  0  0  0
   -8.7480    5.3340  -10.6400 C   0  0  0  0  0  0  0  0  0  0  0  0
   -8.9770    4.3290   -9.7300 C   0  0  0  0  0  0  0  0  0  0  0  0
   -9.1640    3.0010  -10.0530 C   0  0  0  0  0  0  0  0  0  0  0  0
   -9.4730    2.1760   -8.9710 C   0  0  0  0  0  0  0  0  0  0  0  0
   -9.6580    2.6780   -7.5340 C   0  0  0  0  0  0  0  0  0  0  0  0
   -9.1980    4.1200   -7.2700 C   0  0  0  0  0  0  0  0  0  0  0  0
   -8.9870    4.8730   -8.4950 N   0  0  0  0  0  0  0  0  0  0  0  0
   -8.7770    6.2100   -8.5060 N   0  0  0  0  0  0  0  0  0  0  0  0
   -8.6300    6.4970   -9.8360 C   0  0  0  0  0  0  0  0  0  0  0  0
   -7.7560    5.9960  -15.3360 C   0  0  0  0  0  0  0  0  0  0  0  0
   -6.5930    5.2960  -15.0520 C   0  0  0  0  0  0  0  0  0  0  0  0
   -5.5630    5.5440  -15.9980 C   0  0  0  0  0  0  0  0  0  0  0  0
   -6.0500    5.6280  -17.4750 C   0  0  0  0  0  0  0  0  0  0  0  0
   -7.4300    5.3000  -17.6530 C   0  0  0  0  0  0  0  0  0  0  0  0
   -7.8380    4.8300  -18.9000 C   0  0  0  0  0  0  0  0  0  0  0  0
   -9.1790    4.5020  -19.0930 C   0  0  0  0  0  0  0  0  0  0  0  0
  -10.0890    4.6380  -18.0470 C   0  0  0  0  0  0  0  0  0  0  0  0
   -9.6490    5.1110  -16.8060 C   0  0  0  0  0  0  0  0  0  0  0  0
   -8.3230    5.4490  -16.6180 C   0  0  0  0  0  0  0  0  0  0  0  0
   -9.6510    4.7250  -12.5060 H   0  0  0  0  0  0  0  0  0  0  0  0
   -8.0320    4.1820  -12.2530 H   0  0  0  0  0  0  0  0  0  0  0  0
   -9.8100    2.8620  -10.9170 H   0  0  0  0  0  0  0  0  0  0  0  0
   -8.1910    2.6570  -10.4240 H   0  0  0  0  0  0  0  0  0  0  0  0
   -8.7600    1.3550   -8.9590 H   0  0  0  0  0  0  0  0  0  0  0  0
  -10.3950    1.7050   -9.2230 H   0  0  0  0  0  0  0  0  0  0  0  0
   -9.0940    2.0240   -6.8680 H   0  0  0  0  0  0  0  0  0  0  0  0
  -10.7090    2.5760   -7.2420 H   0  0  0  0  0  0  0  0  0  0  0  0
   -8.2420    4.0870   -6.7390 H   0  0  0  0  0  0  0  0  0  0  0  0
   -9.9260    4.6260   -6.6280 H   0  0  0  0  0  0  0  0  0  0  0  0
   -8.4450    7.5320  -10.1500 H   0  0  0  0  0  0  0  0  0  0  0  0
   -7.6100    7.0430  -15.5890 H   0  0  0  0  0  0  0  0  0  0  0  0
   -6.7570    4.2480  -14.8220 H   0  0  0  0  0  0  0  0  0  0  0  0
   -6.2570    5.6820  -14.1000 H   0  0  0  0  0  0  0  0  0  0  0  0
   -4.8190    4.7620  -15.9130 H   0  0  0  0  0  0  0  0  0  0  0  0
   -5.0520    6.4750  -15.7260 H   0  0  0  0  0  0  0  0  0  0  0  0
   -5.8710    6.6330  -17.8780 H   0  0  0  0  0  0  0  0  0  0  0  0
   -5.4660    4.9130  -18.0720 H   0  0  0  0  0  0  0  0  0  0  0  0
   -7.1290    4.7160  -19.7190 H   0  0  0  0  0  0  0  0  0  0  0  0
   -9.5010    4.1420  -20.0580 H   0  0  0  0  0  0  0  0  0  0  0  0
  -11.1380    4.3800  -18.1950 H   0  0  0  0  0  0  0  0  0  0  0  0
  -10.3570    5.2160  -15.9950 H   0  0  0  0  0  0  0  0  0  0  0  0
  1  2  2  0
  2  3  1  0
  3  4  1  0
  4  5  1  0
  5  6  2  0
  6  7  1  0
  7  8  1  0
  8  9  1  0
  9 10  1  0
 10 11  1  0
 11 12  1  0
 12 13  2  0
  2 14  1  0
 14 15  1  0
 15 16  1  0
 16 17  1  0
 17 18  1  0
 18 19  2  0
 19 20  1  0
 20 21  2  0
 21 22  1  0
 22 23  2  0
 13  5  1  0
 11  6  1  0
 23 14  1  0
 23 18  1  0
  4 24  1  0
  4 25  1  0
  7 26  1  0
  7 27  1  0
  8 28  1  0
  8 29  1  0
  9 30  1  0
  9 31  1  0
 10 32  1  0
 10 33  1  0
 13 34  1  0
 14 35  1  0
 15 36  1  0
 15 37  1  0
 16 38  1  0
 16 39  1  0
 17 40  1  0
 17 41  1  0
 19 42  1  0
 20 43  1  0
 21 44  1  0
 22 45  1  0
A    1
 O1 
A    2
 C1 
A    3
 O2 
A    4
 C2 
A    5
 C3 
A    6
 C4 
A    7
 C5 
A    8
 C6 
A    9
 C7 
A   10
 C8 
A   11
 N1 
A   12
 N2 
A   13
 C9 
A   14
 C10
A   15
 C11
A   16
 C12
A   17
 C13
A   18
 C14
A   19
 C15
A   20
 C16
A   21
 C17
A   22
 C18
A   23
 C19
A   24
 H1 
A   25
 H2 
A   26
 H3 
A   27
 H4 
A   28
 H5 
A   29
 H6 
A   30
 H7 
A   31
 H8 
A   32
 H9 
A   33
 H10
A   34
 H11
A   35
 H12
A   36
 H13
A   37
 H14
A   38
 H15
A   39
 H16
A   40
 H17
A   41
 H18
A   42
 H19
A   43
 H20
A   44
 H21
A   45
 H22
M  END
>  <ref_pdb>  (263) 
x0051_0B

>  <ref_mols>  (263) 
x0969_1B,x0455_0B

>  <original SMILES>  (263) 
[H]c1nn2c(c1C([H])([H])OC(=O)C1([H])c3c([H])c([H])c([H])c([H])c3C([H])([H])C([H])([H])C1([H])[H])C([H])([H])C([H])([H])C([H])([H])C2([H])[H]

>  <index>  (263) 
2

>  <∆∆G>  (263) 
-6.589362

>  <∆G_bound>  (263) 
-5.524366

>  <∆G_unbound>  (263) 
1.064996

>  <comRMSD>  (263) 
0.442891

>  <N_constrained_atoms>  (263) 
20.0

>  <N_unconstrained_atoms>  (263) 
3.0

>  <runtime>  (263) 
56.713678

>  <LE>  (263) 
0.286494

>  <percent_hybrid>  (263) 
50.0

>  <dist>  (263) 
5.0

>  <ecfp4>  (263) 
0.283951

>  <daylight>  (263) 
0.354354

>  <topodist>  (263) 
1.0

>  <mces>  (263) 
25.0

>  <tdn>  (263) 
0.0

>  <tup>  (263) 
1.0

>  <rdn>  (263) 
0.0

>  <rup>  (263) 
0.0

>  <ldn>  (263) 
0.0

>  <lup>  (263) 
0.0

>  <mut>  (263) 
3.0

>  <maj>  (263) 
3.0

>  <min>  (263) 
0.0

>  <hyb>  (263) 
1.0

>  <sub>  (263) 
0.0

>  <query_index>  (263) 
204.0

>  <max_hit_Tanimoto>  (263) 
0.3049

>  <largest_ring>  (263) 
0

>  <N_interactions_kept>  (263) 
1.5

>  <N_interactions_lost>  (263) 
1.0

>  <interaction_uniqueness_metric>  (263) 
0.22098

>  <ad_hoc_penalty>  (263) 
-47.837751

>  <N_rotatable_bonds>  (263) 
3

>  <N_HA>  (263) 
23

>  <cluster>  (263) 
6214

>  <N_interactions>  (263) 
9

>  <Enamine>  (263) 
1

>  <Mcule>  (263) 
0

>  <N_PAINS>  (263) 
0

>  <UFF_Gibbs>  (263) 
118.561112

>  <strain_per_HA>  (263) 
5.154831

>  <intxn_scored>  (263) 
9.0

>  <saltbridge:HIS:51>  (263) 
1

>  <pistack:HIS:51>  (263) 
1

>  <hydroph_interaction:HIS:51>  (263) 
0

>  <hbond:ALA:132>  (263) 
0

>  <hbond:SER:135>  (263) 
1

>  <hydroph_interaction:TYR:150>  (263) 
1

>  <pistack:TYR:161>  (263) 
0

>  <hydroph_interaction:TYR:161>  (263) 
4

>  <hydroph_interaction:ASP:83>  (263) 
0

>  <hbond:TYR:130>  (263) 
0

>  <hydroph_interaction:ALA:132>  (263) 
1

>  <hbond:HIS:51>  (263) 
0

>  <hbond:ASP:129>  (263) 
0

>  <hbond:TYR:150>  (263) 
0

>  <hbond:GLY:151>  (263) 
0

>  <hbond:TYR:161>  (263) 
0

>  <hydroph_interaction:TYR:130>  (263) 
0

>  <hydroph_interaction:PRO:131>  (263) 
0

>  <hydroph_interaction:ASP:129>  (263) 
0

>  <saltbridge:ASP:75>  (263) 
0

>  <saltbridge:ASP:83>  (263) 
0

>  <hbond:ASN:152>  (263) 
0

>  <hydroph_interaction:ASN:152>  (263) 
0

>  <halogenbond:TYR:150>  (263) 
0

>  <hbond:ASP:83>  (263) 
0

>  <hydroph_interaction:VAL:155>  (263) 
0

>  <pication:TYR:161>  (263) 
0

>  <hbond:PRO:131>  (263) 
0

>  <saltbridge:ASP:129>  (263) 
0

>  <hbond:THR:134>  (263) 
0

>  <pication:HIS:51>  (263) 
0

>  <hbond:SER:81>  (263) 
0

>  <hydroph_interaction:THR:134>  (263) 
0

>  <hydroph_interaction:MET:49>  (263) 
0

$$$$
CSSB00000717000
     RDKit          3D

 24 25  0  0  0  0  0  0  0  0999 V2000
   -2.3680    4.2760  -17.2150 C   0  0  0  0  0  0  0  0  0  0  0  0
   -3.1260    5.5320  -17.2780 N   0  0  0  0  0  0  0  0  0  0  0  0
   -4.4180    5.5240  -16.5690 C   0  0  0  0  0  0  0  0  0  0  0  0
   -5.4820    5.4200  -17.4840 C   0  0  0  0  0  0  0  0  0  0  0  0
   -6.8310    5.2970  -17.0700 C   0  0  0  0  0  0  0  0  0  0  0  0
   -7.5020    5.2490  -15.8390 N   0  0  0  0  0  0  0  0  0  0  0  0
   -8.8740    5.1060  -16.0350 C   0  0  0  0  0  0  0  0  0  0  0  0
   -9.0570    5.0660  -17.3860 C   0  0  0  0  0  0  0  0  0  0  0  0
   -7.8330    5.1840  -18.0010 C   0  0  0  0  0  0  0  0  0  0  0  0
   -7.5550    5.1920  -19.4790 C   0  0  0  0  0  0  0  0  0  0  0  0
   -6.2470    5.3190  -19.8480 C   0  0  0  0  0  0  0  0  0  0  0  0
   -5.2310    5.4310  -18.8950 C   0  0  0  0  0  0  0  0  0  0  0  0
   -2.4940    3.7190  -18.1490 H   0  0  0  0  0  0  0  0  0  0  0  0
   -1.2940    4.4620  -17.1000 H   0  0  0  0  0  0  0  0  0  0  0  0
   -2.7030    3.6520  -16.3810 H   0  0  0  0  0  0  0  0  0  0  0  0
   -2.5580    6.2990  -16.9160 H   0  0  0  0  0  0  0  0  0  0  0  0
   -4.5490    6.4560  -16.0040 H   0  0  0  0  0  0  0  0  0  0  0  0
   -4.4730    4.6780  -15.8750 H   0  0  0  0  0  0  0  0  0  0  0  0
   -7.0540    5.3070  -14.9350 H   0  0  0  0  0  0  0  0  0  0  0  0
   -9.5310    5.0520  -15.1710 H   0  0  0  0  0  0  0  0  0  0  0  0
  -10.0130    4.9600  -17.8820 H   0  0  0  0  0  0  0  0  0  0  0  0
   -8.3700    5.0980  -20.2050 H   0  0  0  0  0  0  0  0  0  0  0  0
   -6.0820    5.3230  -20.9290 H   0  0  0  0  0  0  0  0  0  0  0  0
   -4.2030    5.5270  -19.2440 H   0  0  0  0  0  0  0  0  0  0  0  0
  1  2  1  0
  2  3  1  0
  3  4  1  0
  4  5  2  0
  5  6  1  0
  6  7  1  0
  7  8  2  0
  8  9  1  0
  9 10  2  0
 10 11  1  0
 11 12  2  0
 12  4  1  0
  9  5  1  0
  1 13  1  0
  1 14  1  0
  1 15  1  0
  2 16  1  0
  3 17  1  0
  3 18  1  0
  6 19  1  0
  7 20  1  0
  8 21  1  0
 10 22  1  0
 11 23  1  0
 12 24  1  0
A    1
 C1 
A    2
 N1 
A    3
 C2 
A    4
 C3 
A    5
 C4 
A    6
 N2 
A    7
 C5 
A    8
 C6 
A    9
 C7 
A   10
 C8 
A   11
 C9 
A   12
 C10
A   13
 H1 
A   14
 H2 
A   15
 H3 
A   16
 H4 
A   17
 H5 
A   18
 H6 
A   19
 H7 
A   20
 H8 
A   21
 H9 
A   22
 H10
A   23
 H11
A   24
 H12
M  END
>  <ref_pdb>  (264) 
x0051_0B

>  <ref_mols>  (264) 
x0425_0B,x0969_0B

>  <original SMILES>  (264) 
[H]c1c([H])c(C([H])([H])N([H])C([H])([H])[H])c2c(c1[H])c([H])c([H])n2[H]

>  <index>  (264) 
3714

>  <∆∆G>  (264) 
-6.513907

>  <∆G_bound>  (264) 
-6.323015

>  <∆G_unbound>  (264) 
0.190892

>  <comRMSD>  (264) 
0.598035

>  <N_constrained_atoms>  (264) 
13.0

>  <N_unconstrained_atoms>  (264) 
1.0

>  <runtime>  (264) 
17.271567

>  <LE>  (264) 
0.465279

>  <percent_hybrid>  (264) 
40.0

>  <dist>  (264) 
3.0

>  <ecfp4>  (264) 
0.192308

>  <daylight>  (264) 
0.505376

>  <topodist>  (264) 
2.0

>  <mces>  (264) 
12.0

>  <tdn>  (264) 
1.0

>  <tup>  (264) 
1.0

>  <rdn>  (264) 
0.0

>  <rup>  (264) 
0.0

>  <ldn>  (264) 
0.0

>  <lup>  (264) 
0.0

>  <mut>  (264) 
1.0

>  <maj>  (264) 
1.0

>  <min>  (264) 
0.0

>  <hyb>  (264) 
0.0

>  <sub>  (264) 
2.0

>  <query_index>  (264) 
188.0

>  <max_hit_Tanimoto>  (264) 
0.170923

>  <largest_ring>  (264) 
6

>  <N_interactions_kept>  (264) 
0.5

>  <N_interactions_lost>  (264) 
2.5

>  <interaction_uniqueness_metric>  (264) 
0.027887

>  <ad_hoc_penalty>  (264) 
-0.235528

>  <N_rotatable_bonds>  (264) 
3

>  <N_HA>  (264) 
12

>  <cluster>  (264) 
2768

>  <N_interactions>  (264) 
3

>  <Enamine>  (264) 
1

>  <Mcule>  (264) 
0

>  <N_PAINS>  (264) 
0

>  <UFF_Gibbs>  (264) 
37.618362

>  <strain_per_HA>  (264) 
3.134864

>  <intxn_scored>  (264) 
9.0

>  <saltbridge:HIS:51>  (264) 
0

>  <pistack:HIS:51>  (264) 
0

>  <hydroph_interaction:HIS:51>  (264) 
0

>  <hbond:ALA:132>  (264) 
0

>  <hbond:SER:135>  (264) 
0

>  <hydroph_interaction:TYR:150>  (264) 
0

>  <pistack:TYR:161>  (264) 
2

>  <hydroph_interaction:TYR:161>  (264) 
1

>  <hydroph_interaction:ASP:83>  (264) 
0

>  <hbond:TYR:130>  (264) 
0

>  <hydroph_interaction:ALA:132>  (264) 
0

>  <hbond:HIS:51>  (264) 
0

>  <hbond:ASP:129>  (264) 
0

>  <hbond:TYR:150>  (264) 
0

>  <hbond:GLY:151>  (264) 
0

>  <hbond:TYR:161>  (264) 
0

>  <hydroph_interaction:TYR:130>  (264) 
0

>  <hydroph_interaction:PRO:131>  (264) 
0

>  <hydroph_interaction:ASP:129>  (264) 
0

>  <saltbridge:ASP:75>  (264) 
0

>  <saltbridge:ASP:83>  (264) 
0

>  <hbond:ASN:152>  (264) 
0

>  <hydroph_interaction:ASN:152>  (264) 
0

>  <halogenbond:TYR:150>  (264) 
0

>  <hbond:ASP:83>  (264) 
0

>  <hydroph_interaction:VAL:155>  (264) 
0

>  <pication:TYR:161>  (264) 
0

>  <hbond:PRO:131>  (264) 
0

>  <saltbridge:ASP:129>  (264) 
0

>  <hbond:THR:134>  (264) 
0

>  <pication:HIS:51>  (264) 
0

>  <hbond:SER:81>  (264) 
0

>  <hydroph_interaction:THR:134>  (264) 
0

>  <hydroph_interaction:MET:49>  (264) 
0

$$$$
CSSS00010524444
     RDKit          3D

 33 34  0  0  0  0  0  0  0  0999 V2000
   -2.4890    7.1470  -19.7020 C   0  0  0  0  0  0  0  0  0  0  0  0
   -3.1930    5.8440  -19.3980 C   0  0  0  0  0  0  0  0  0  0  0  0
   -4.5400    5.7790  -20.0390 C   0  0  0  0  0  0  0  0  0  0  0  0
   -5.5380    5.5370  -19.0090 C   0  0  0  0  0  0  0  0  0  0  0  0
   -6.8350    5.4210  -19.3880 N   0  0  0  0  0  0  0  0  0  0  0  0
   -7.8010    5.2750  -18.4080 C   0  0  0  0  0  0  0  0  0  0  0  0
   -7.4870    5.4920  -17.0680 C   0  0  0  0  0  0  0  0  0  0  0  0
   -8.4620    5.3350  -16.1100 C   0  0  0  0  0  0  0  0  0  0  0  0
   -9.7470    4.9700  -16.4420 C   0  0  0  0  0  0  0  0  0  0  0  0
  -10.0860    4.7500  -17.7830 C   0  0  0  0  0  0  0  0  0  0  0  0
   -9.0990    4.9020  -18.7670 C   0  0  0  0  0  0  0  0  0  0  0  0
   -5.0370    5.4590  -17.8280 N   0  0  0  0  0  0  0  0  0  0  0  0
   -3.5690    5.6460  -17.9060 C   0  0  0  0  0  0  0  0  0  0  0  0
   -2.9950    4.5340  -17.3180 C   0  0  0  0  0  0  0  0  0  0  0  0
   -3.2260    6.8800  -17.0760 C   0  0  0  0  0  0  0  0  0  0  0  0
   -1.5040    7.1720  -19.2240 H   0  0  0  0  0  0  0  0  0  0  0  0
   -2.3220    7.2590  -20.7780 H   0  0  0  0  0  0  0  0  0  0  0  0
   -3.0740    7.9990  -19.3450 H   0  0  0  0  0  0  0  0  0  0  0  0
   -2.5790    5.0010  -19.7360 H   0  0  0  0  0  0  0  0  0  0  0  0
   -4.6110    4.9580  -20.7640 H   0  0  0  0  0  0  0  0  0  0  0  0
   -4.7680    6.7120  -20.5620 H   0  0  0  0  0  0  0  0  0  0  0  0
   -7.1380    5.9380  -20.2060 H   0  0  0  0  0  0  0  0  0  0  0  0
   -6.4860    5.7800  -16.7850 H   0  0  0  0  0  0  0  0  0  0  0  0
   -8.1220    5.5230  -15.0860 H   0  0  0  0  0  0  0  0  0  0  0  0
  -10.4790    4.8560  -15.6530 H   0  0  0  0  0  0  0  0  0  0  0  0
  -11.0960    4.4650  -18.0630 H   0  0  0  0  0  0  0  0  0  0  0  0
   -9.3620    4.7270  -19.8090 H   0  0  0  0  0  0  0  0  0  0  0  0
   -2.8650    3.7490  -18.0640 H   0  0  0  0  0  0  0  0  0  0  0  0
   -3.6220    4.1200  -16.5240 H   0  0  0  0  0  0  0  0  0  0  0  0
   -2.0100    4.7640  -16.8970 H   0  0  0  0  0  0  0  0  0  0  0  0
   -2.1720    7.1570  -17.1920 H   0  0  0  0  0  0  0  0  0  0  0  0
   -3.3920    6.6990  -16.0070 H   0  0  0  0  0  0  0  0  0  0  0  0
   -3.8370    7.7400  -17.3720 H   0  0  0  0  0  0  0  0  0  0  0  0
  1  2  1  0
  2  3  1  0
  3  4  1  0
  4  5  1  0
  5  6  1  0
  6  7  2  0
  7  8  1  0
  8  9  2  0
  9 10  1  0
 10 11  2  0
  4 12  2  0
 12 13  1  0
 13 14  1  0
 13 15  1  0
 13  2  1  0
 11  6  1  0
  1 16  1  0
  1 17  1  0
  1 18  1  0
  2 19  1  0
  3 20  1  0
  3 21  1  0
  5 22  1  0
  7 23  1  0
  8 24  1  0
  9 25  1  0
 10 26  1  0
 11 27  1  0
 14 28  1  0
 14 29  1  0
 14 30  1  0
 15 31  1  0
 15 32  1  0
 15 33  1  0
A    1
 C1 
A    2
 C2 
A    3
 C3 
A    4
 C4 
A    5
 N1 
A    6
 C5 
A    7
 C6 
A    8
 C7 
A    9
 C8 
A   10
 C9 
A   11
 C10
A   12
 N2 
A   13
 C11
A   14
 C12
A   15
 C13
A   16
 H1 
A   17
 H2 
A   18
 H3 
A   19
 H4 
A   20
 H5 
A   21
 H6 
A   22
 H7 
A   23
 H8 
A   24
 H9 
A   25
 H10
A   26
 H11
A   27
 H12
A   28
 H13
A   29
 H14
A   30
 H15
A   31
 H16
A   32
 H17
A   33
 H18
M  END
>  <ref_pdb>  (265) 
x0051_0B

>  <ref_mols>  (265) 
x0089_0B,x0229_0B

>  <original SMILES>  (265) 
[H]c1c([H])c([H])c(N([H])C2=NC(C([H])([H])[H])(C([H])([H])[H])C([H])(C([H])([H])[H])C2([H])[H])c([H])c1[H]

>  <index>  (265) 
2137

>  <∆∆G>  (265) 
-6.448782

>  <∆G_bound>  (265) 
-6.364556

>  <∆G_unbound>  (265) 
0.084226

>  <comRMSD>  (265) 
0.657565

>  <N_constrained_atoms>  (265) 
16.0

>  <N_unconstrained_atoms>  (265) 
2.0

>  <runtime>  (265) 
58.677682

>  <LE>  (265) 
0.358266

>  <percent_hybrid>  (265) 
50.0

>  <dist>  (265) 
6.0

>  <ecfp4>  (265) 
0.215686

>  <daylight>  (265) 
0.390476

>  <topodist>  (265) 
4.0

>  <mces>  (265) 
15.0

>  <tdn>  (265) 
1.0

>  <tup>  (265) 
0.0

>  <rdn>  (265) 
2.0

>  <rup>  (265) 
1.0

>  <ldn>  (265) 
0.0

>  <lup>  (265) 
0.0

>  <mut>  (265) 
0.0

>  <maj>  (265) 
0.0

>  <min>  (265) 
0.0

>  <hyb>  (265) 
2.0

>  <sub>  (265) 
4.0

>  <query_index>  (265) 
115.0

>  <max_hit_Tanimoto>  (265) 
0.226226

>  <largest_ring>  (265) 
6

>  <N_interactions_kept>  (265) 
0.0

>  <N_interactions_lost>  (265) 
3.5

>  <interaction_uniqueness_metric>  (265) 
0.121386

>  <ad_hoc_penalty>  (265) 
-5.185811

>  <N_rotatable_bonds>  (265) 
4

>  <N_HA>  (265) 
15

>  <cluster>  (265) 
4257

>  <N_interactions>  (265) 
7

>  <Enamine>  (265) 
1

>  <Mcule>  (265) 
0

>  <N_PAINS>  (265) 
0

>  <UFF_Gibbs>  (265) 
105.217201

>  <strain_per_HA>  (265) 
7.01448

>  <intxn_scored>  (265) 
9.0

>  <saltbridge:HIS:51>  (265) 
0

>  <pistack:HIS:51>  (265) 
0

>  <hydroph_interaction:HIS:51>  (265) 
0

>  <hbond:ALA:132>  (265) 
0

>  <hbond:SER:135>  (265) 
0

>  <hydroph_interaction:TYR:150>  (265) 
1

>  <pistack:TYR:161>  (265) 
1

>  <hydroph_interaction:TYR:161>  (265) 
2

>  <hydroph_interaction:ASP:83>  (265) 
0

>  <hbond:TYR:130>  (265) 
1

>  <hydroph_interaction:ALA:132>  (265) 
1

>  <hbond:HIS:51>  (265) 
0

>  <hbond:ASP:129>  (265) 
0

>  <hbond:TYR:150>  (265) 
0

>  <hbond:GLY:151>  (265) 
0

>  <hbond:TYR:161>  (265) 
0

>  <hydroph_interaction:TYR:130>  (265) 
0

>  <hydroph_interaction:PRO:131>  (265) 
0

>  <hydroph_interaction:ASP:129>  (265) 
0

>  <saltbridge:ASP:75>  (265) 
0

>  <saltbridge:ASP:83>  (265) 
0

>  <hbond:ASN:152>  (265) 
0

>  <hydroph_interaction:ASN:152>  (265) 
0

>  <halogenbond:TYR:150>  (265) 
0

>  <hbond:ASP:83>  (265) 
0

>  <hydroph_interaction:VAL:155>  (265) 
1

>  <pication:TYR:161>  (265) 
0

>  <hbond:PRO:131>  (265) 
0

>  <saltbridge:ASP:129>  (265) 
0

>  <hbond:THR:134>  (265) 
0

>  <pication:HIS:51>  (265) 
0

>  <hbond:SER:81>  (265) 
0

>  <hydroph_interaction:THR:134>  (265) 
0

>  <hydroph_interaction:MET:49>  (265) 
0

$$$$
Z654070892
     RDKit          3D

 53 56  0  0  0  0  0  0  0  0999 V2000
  -11.5630    6.1700  -29.4060 C   0  0  0  0  0  0  0  0  0  0  0  0
  -10.0610    6.2000  -29.2960 C   0  0  0  0  0  0  0  0  0  0  0  0
   -9.3790    5.8980  -30.2690 O   0  0  0  0  0  0  0  0  0  0  0  0
   -9.6030    6.5840  -28.0560 N   0  0  0  0  0  0  0  0  0  0  0  0
   -9.1480    7.8590  -27.6800 C   0  0  0  0  0  0  0  0  0  0  0  0
   -7.9320    8.1040  -27.0050 C   0  0  0  0  0  0  0  0  0  0  0  0
   -7.5270    9.4840  -26.6230 C   0  0  0  0  0  0  0  0  0  0  0  0
   -6.3780    9.8540  -25.9140 N   0  0  0  0  0  0  0  0  0  0  0  0
   -6.4340   10.2430  -24.5750 C   0  0  0  0  0  0  0  0  0  0  0  0
   -7.0340   11.2000  -24.1030 O   0  0  0  0  0  0  0  0  0  0  0  0
   -5.6430    9.3730  -23.6130 C   0  0  0  0  0  0  0  0  0  0  0  0
   -5.7750    7.9710  -23.6260 C   0  0  0  0  0  0  0  0  0  0  0  0
   -4.9990    7.1940  -22.7430 C   0  0  0  0  0  0  0  0  0  0  0  0
   -4.0940    7.8130  -21.8530 C   0  0  0  0  0  0  0  0  0  0  0  0
   -3.3090    7.0350  -21.0200 O   0  0  0  0  0  0  0  0  0  0  0  0
   -3.5040    5.6310  -20.8330 C   0  0  0  0  0  0  0  0  0  0  0  0
   -4.4180    5.5210  -19.8140 C   0  0  0  0  0  0  0  0  0  0  0  0
   -4.1360    5.5560  -18.4500 C   0  0  0  0  0  0  0  0  0  0  0  0
   -5.3600    5.4530  -17.8500 N   0  0  0  0  0  0  0  0  0  0  0  0
   -5.6650    5.4510  -16.4830 C   0  0  0  0  0  0  0  0  0  0  0  0
   -7.1300    5.3420  -16.0550 C   0  0  0  0  0  0  0  0  0  0  0  0
   -8.1120    5.2370  -17.1120 C   0  0  0  0  0  0  0  0  0  0  0  0
   -7.6700    5.2380  -18.5730 C   0  0  0  0  0  0  0  0  0  0  0  0
   -6.3020    5.3510  -18.9020 C   0  0  0  0  0  0  0  0  0  0  0  0
   -5.7370    5.3860  -20.0750 N   0  0  0  0  0  0  0  0  0  0  0  0
   -4.0050    9.2030  -21.8480 C   0  0  0  0  0  0  0  0  0  0  0  0
   -4.7680    9.9720  -22.7160 C   0  0  0  0  0  0  0  0  0  0  0  0
   -8.3840   10.5120  -26.9860 C   0  0  0  0  0  0  0  0  0  0  0  0
   -9.5830   10.2490  -27.6490 C   0  0  0  0  0  0  0  0  0  0  0  0
   -9.9860    8.9550  -27.9910 C   0  0  0  0  0  0  0  0  0  0  0  0
  -11.3130    8.7840  -28.6750 C   0  0  0  0  0  0  0  0  0  0  0  0
  -12.0160    6.5230  -28.4790 H   0  0  0  0  0  0  0  0  0  0  0  0
  -11.9220    5.1640  -29.6380 H   0  0  0  0  0  0  0  0  0  0  0  0
  -11.8870    6.8360  -30.2110 H   0  0  0  0  0  0  0  0  0  0  0  0
   -9.1940    5.7700  -27.5600 H   0  0  0  0  0  0  0  0  0  0  0  0
   -7.2840    7.2710  -26.7490 H   0  0  0  0  0  0  0  0  0  0  0  0
   -5.5180    9.4260  -26.2240 H   0  0  0  0  0  0  0  0  0  0  0  0
   -6.4640    7.4870  -24.3160 H   0  0  0  0  0  0  0  0  0  0  0  0
   -5.0930    6.1080  -22.7570 H   0  0  0  0  0  0  0  0  0  0  0  0
   -2.5700    5.1400  -20.5340 H   0  0  0  0  0  0  0  0  0  0  0  0
   -3.9200    5.1620  -21.7360 H   0  0  0  0  0  0  0  0  0  0  0  0
   -3.2140    5.6500  -17.8960 H   0  0  0  0  0  0  0  0  0  0  0  0
   -4.8440    5.5310  -15.7840 H   0  0  0  0  0  0  0  0  0  0  0  0
   -7.4450    5.3380  -15.0180 H   0  0  0  0  0  0  0  0  0  0  0  0
   -9.1610    5.1540  -16.8380 H   0  0  0  0  0  0  0  0  0  0  0  0
   -8.3860    5.1550  -19.3850 H   0  0  0  0  0  0  0  0  0  0  0  0
   -3.3310    9.7260  -21.1750 H   0  0  0  0  0  0  0  0  0  0  0  0
   -4.6590   11.0560  -22.6860 H   0  0  0  0  0  0  0  0  0  0  0  0
   -8.1400   11.5460  -26.7470 H   0  0  0  0  0  0  0  0  0  0  0  0
  -10.2190   11.0980  -27.8970 H   0  0  0  0  0  0  0  0  0  0  0  0
  -11.2030    8.3370  -29.6670 H   0  0  0  0  0  0  0  0  0  0  0  0
  -11.7970    9.7570  -28.8090 H   0  0  0  0  0  0  0  0  0  0  0  0
  -11.9640    8.1310  -28.0850 H   0  0  0  0  0  0  0  0  0  0  0  0
  1  2  1  0
  2  3  2  0
  2  4  1  0
  4  5  1  0
  5  6  2  0
  6  7  1  0
  7  8  1  0
  8  9  1  0
  9 10  2  0
  9 11  1  0
 11 12  2  0
 12 13  1  0
 13 14  2  0
 14 15  1  0
 15 16  1  0
 16 17  1  0
 17 18  2  0
 18 19  1  0
 19 20  1  0
 20 21  2  0
 21 22  1  0
 22 23  2  0
 23 24  1  0
 24 25  2  0
 14 26  1  0
 26 27  2  0
  7 28  2  0
 28 29  1  0
 29 30  2  0
 30 31  1  0
 30  5  1  0
 27 11  1  0
 25 17  1  0
 24 19  1  0
  1 32  1  0
  1 33  1  0
  1 34  1  0
  4 35  1  0
  6 36  1  0
  8 37  1  0
 12 38  1  0
 13 39  1  0
 16 40  1  0
 16 41  1  0
 18 42  1  0
 20 43  1  0
 21 44  1  0
 22 45  1  0
 23 46  1  0
 26 47  1  0
 27 48  1  0
 28 49  1  0
 29 50  1  0
 31 51  1  0
 31 52  1  0
 31 53  1  0
A    1
 C1 
A    2
 C2 
A    3
 O1 
A    4
 N1 
A    5
 C3 
A    6
 C4 
A    7
 C5 
A    8
 N2 
A    9
 C6 
A   10
 O2 
A   11
 C7 
A   12
 C8 
A   13
 C9 
A   14
 C10
A   15
 O3 
A   16
 C11
A   17
 C12
A   18
 C13
A   19
 N3 
A   20
 C14
A   21
 C15
A   22
 C16
A   23
 C17
A   24
 C18
A   25
 N4 
A   26
 C19
A   27
 C20
A   28
 C21
A   29
 C22
A   30
 C23
A   31
 C24
A   32
 H1 
A   33
 H2 
A   34
 H3 
A   35
 H4 
A   36
 H5 
A   37
 H6 
A   38
 H7 
A   39
 H8 
A   40
 H9 
A   41
 H10
A   42
 H11
A   43
 H12
A   44
 H13
A   45
 H14
A   46
 H15
A   47
 H16
A   48
 H17
A   49
 H18
A   50
 H19
A   51
 H20
A   52
 H21
A   53
 H22
M  END
>  <ref_pdb>  (266) 
x0051_0B

>  <ref_mols>  (266) 
x0846_1B,x0680_0B

>  <original SMILES>  (266) 
[H]c1c([H])c(C(=O)N([H])c2c([H])c([H])c(C([H])([H])[H])c(N([H])C(=O)C([H])([H])[H])c2[H])c([H])c([H])c1OC([H])([H])c1nc2c([H])c([H])c([H])c([H])n2c1[H]

>  <index>  (266) 
2871

>  <∆∆G>  (266) 
-7.311189

>  <∆G_bound>  (266) 
-6.801511

>  <∆G_unbound>  (266) 
0.509677

>  <comRMSD>  (266) 
0.771667

>  <N_constrained_atoms>  (266) 
27.0

>  <N_unconstrained_atoms>  (266) 
6.0

>  <runtime>  (266) 
68.154223

>  <LE>  (266) 
0.221551

>  <percent_hybrid>  (266) 
34.0

>  <dist>  (266) 
8.0

>  <ecfp4>  (266) 
0.307692

>  <daylight>  (266) 
0.441964

>  <topodist>  (266) 
3.0

>  <mces>  (266) 
32.0

>  <tdn>  (266) 
1.0

>  <tup>  (266) 
1.0

>  <rdn>  (266) 
0.0

>  <rup>  (266) 
0.0

>  <ldn>  (266) 
0.0

>  <lup>  (266) 
1.0

>  <mut>  (266) 
5.0

>  <maj>  (266) 
5.0

>  <min>  (266) 
0.0

>  <hyb>  (266) 
0.0

>  <sub>  (266) 
1.0

>  <query_index>  (266) 
100.0

>  <max_hit_Tanimoto>  (266) 
0.248688

>  <largest_ring>  (266) 
6

>  <N_interactions_kept>  (266) 
2.0

>  <N_interactions_lost>  (266) 
2.0

>  <interaction_uniqueness_metric>  (266) 
0.162707

>  <ad_hoc_penalty>  (266) 
-3.632106

>  <N_rotatable_bonds>  (266) 
8

>  <N_HA>  (266) 
31

>  <cluster>  (266) 
3568

>  <N_interactions>  (266) 
5

>  <Enamine>  (266) 
1

>  <Mcule>  (266) 
0

>  <N_PAINS>  (266) 
0

>  <UFF_Gibbs>  (266) 
161.332732

>  <strain_per_HA>  (266) 
5.204282

>  <intxn_scored>  (266) 
9.0

>  <saltbridge:HIS:51>  (266) 
0

>  <pistack:HIS:51>  (266) 
0

>  <hydroph_interaction:HIS:51>  (266) 
0

>  <hbond:ALA:132>  (266) 
0

>  <hbond:SER:135>  (266) 
0

>  <hydroph_interaction:TYR:150>  (266) 
0

>  <pistack:TYR:161>  (266) 
2

>  <hydroph_interaction:TYR:161>  (266) 
0

>  <hydroph_interaction:ASP:83>  (266) 
0

>  <hbond:TYR:130>  (266) 
0

>  <hydroph_interaction:ALA:132>  (266) 
0

>  <hbond:HIS:51>  (266) 
0

>  <hbond:ASP:129>  (266) 
1

>  <hbond:TYR:150>  (266) 
0

>  <hbond:GLY:151>  (266) 
0

>  <hbond:TYR:161>  (266) 
0

>  <hydroph_interaction:TYR:130>  (266) 
1

>  <hydroph_interaction:PRO:131>  (266) 
1

>  <hydroph_interaction:ASP:129>  (266) 
0

>  <saltbridge:ASP:75>  (266) 
0

>  <saltbridge:ASP:83>  (266) 
0

>  <hbond:ASN:152>  (266) 
0

>  <hydroph_interaction:ASN:152>  (266) 
0

>  <halogenbond:TYR:150>  (266) 
0

>  <hbond:ASP:83>  (266) 
0

>  <hydroph_interaction:VAL:155>  (266) 
0

>  <pication:TYR:161>  (266) 
0

>  <hbond:PRO:131>  (266) 
0

>  <saltbridge:ASP:129>  (266) 
0

>  <hbond:THR:134>  (266) 
0

>  <pication:HIS:51>  (266) 
0

>  <hbond:SER:81>  (266) 
0

>  <hydroph_interaction:THR:134>  (266) 
0

>  <hydroph_interaction:MET:49>  (266) 
0

$$$$
CSSS00000751279
     RDKit          3D

 20 21  0  0  0  0  0  0  0  0999 V2000
   -8.4630    5.5210  -13.7460 C   0  0  0  0  0  0  0  0  0  0  0  0
   -8.3220    5.3820  -15.2520 C   0  0  0  0  0  0  0  0  0  0  0  0
   -6.9480    5.5160  -15.7730 C   0  0  0  0  0  0  0  0  0  0  0  0
   -6.7650    5.3850  -17.2600 C   0  0  0  0  0  0  0  0  0  0  0  0
   -5.5070    5.4930  -17.7800 C   0  0  0  0  0  0  0  0  0  0  0  0
   -4.1100    5.7600  -16.7950 Cl  0  0  0  0  0  0  0  0  0  0  0  0
   -5.3300    5.3840  -19.1620 C   0  0  0  0  0  0  0  0  0  0  0  0
   -6.4800    5.1580  -19.9360 C   0  0  0  0  0  0  0  0  0  0  0  0
   -7.7230    5.0400  -19.4130 N   0  0  0  0  0  0  0  0  0  0  0  0
   -7.8620    5.1530  -18.0880 C   0  0  0  0  0  0  0  0  0  0  0  0
   -9.1550    5.0270  -17.5280 C   0  0  0  0  0  0  0  0  0  0  0  0
   -9.3690    5.1450  -16.1330 C   0  0  0  0  0  0  0  0  0  0  0  0
   -7.5600    5.1630  -13.2440 H   0  0  0  0  0  0  0  0  0  0  0  0
   -9.3290    4.9560  -13.3790 H   0  0  0  0  0  0  0  0  0  0  0  0
   -8.6030    6.5680  -13.4640 H   0  0  0  0  0  0  0  0  0  0  0  0
   -6.1110    5.6990  -15.1010 H   0  0  0  0  0  0  0  0  0  0  0  0
   -4.3540    5.4660  -19.6280 H   0  0  0  0  0  0  0  0  0  0  0  0
   -6.4250    5.0620  -21.0180 H   0  0  0  0  0  0  0  0  0  0  0  0
  -10.0020    4.8430  -18.1870 H   0  0  0  0  0  0  0  0  0  0  0  0
  -10.3740    5.0420  -15.7440 H   0  0  0  0  0  0  0  0  0  0  0  0
  1  2  1  0
  2  3  2  0
  3  4  1  0
  4  5  2  0
  5  6  1  0
  5  7  1  0
  7  8  2  0
  8  9  1  0
  9 10  2  0
 10 11  1  0
 11 12  2  0
 12  2  1  0
 10  4  1  0
  1 13  1  0
  1 14  1  0
  1 15  1  0
  3 16  1  0
  7 17  1  0
  8 18  1  0
 11 19  1  0
 12 20  1  0
A    1
 C1 
A    2
 C2 
A    3
 C3 
A    4
 C4 
A    5
 C5 
A    6
CL1 
A    7
 C6 
A    8
 C7 
A    9
 N1 
A   10
 C8 
A   11
 C9 
A   12
 C10
A   13
 H1 
A   14
 H2 
A   15
 H3 
A   16
 H4 
A   17
 H5 
A   18
 H6 
A   19
 H7 
A   20
 H8 
M  END
>  <ref_pdb>  (267) 
x0051_0B

>  <ref_mols>  (267) 
x0425_0B,x0687_0B

>  <original SMILES>  (267) 
[H]c1nc2c([H])c([H])c(C([H])([H])[H])c([H])c2c(Cl)c1[H]

>  <index>  (267) 
4056

>  <∆∆G>  (267) 
-5.445559

>  <∆G_bound>  (267) 
-5.465782

>  <∆G_unbound>  (267) 
-0.020223

>  <comRMSD>  (267) 
0.505677

>  <N_constrained_atoms>  (267) 
13.0

>  <N_unconstrained_atoms>  (267) 
0.0

>  <runtime>  (267) 
17.687799

>  <LE>  (267) 
0.418889

>  <percent_hybrid>  (267) 
40.0

>  <dist>  (267) 
5.0

>  <ecfp4>  (267) 
0.140351

>  <daylight>  (267) 
0.134969

>  <topodist>  (267) 
2.0

>  <mces>  (267) 
13.0

>  <tdn>  (267) 
2.0

>  <tup>  (267) 
0.0

>  <rdn>  (267) 
0.0

>  <rup>  (267) 
0.0

>  <ldn>  (267) 
0.0

>  <lup>  (267) 
0.0

>  <mut>  (267) 
3.0

>  <maj>  (267) 
3.0

>  <min>  (267) 
0.0

>  <hyb>  (267) 
0.0

>  <sub>  (267) 
0.0

>  <query_index>  (267) 
169.0

>  <max_hit_Tanimoto>  (267) 
0.159763

>  <largest_ring>  (267) 
6

>  <N_interactions_kept>  (267) 
1.5

>  <N_interactions_lost>  (267) 
3.0

>  <interaction_uniqueness_metric>  (267) 
0.027887

>  <ad_hoc_penalty>  (267) 
-0.345526

>  <N_rotatable_bonds>  (267) 
1

>  <N_HA>  (267) 
12

>  <cluster>  (267) 
2442

>  <N_interactions>  (267) 
3

>  <Enamine>  (267) 
1

>  <Mcule>  (267) 
0

>  <N_PAINS>  (267) 
0

>  <UFF_Gibbs>  (267) 
15.703936

>  <strain_per_HA>  (267) 
1.308661

>  <intxn_scored>  (267) 
9.0

>  <saltbridge:HIS:51>  (267) 
0

>  <pistack:HIS:51>  (267) 
0

>  <hydroph_interaction:HIS:51>  (267) 
0

>  <hbond:ALA:132>  (267) 
0

>  <hbond:SER:135>  (267) 
0

>  <hydroph_interaction:TYR:150>  (267) 
0

>  <pistack:TYR:161>  (267) 
2

>  <hydroph_interaction:TYR:161>  (267) 
1

>  <hydroph_interaction:ASP:83>  (267) 
0

>  <hbond:TYR:130>  (267) 
0

>  <hydroph_interaction:ALA:132>  (267) 
0

>  <hbond:HIS:51>  (267) 
0

>  <hbond:ASP:129>  (267) 
0

>  <hbond:TYR:150>  (267) 
0

>  <hbond:GLY:151>  (267) 
0

>  <hbond:TYR:161>  (267) 
0

>  <hydroph_interaction:TYR:130>  (267) 
0

>  <hydroph_interaction:PRO:131>  (267) 
0

>  <hydroph_interaction:ASP:129>  (267) 
0

>  <saltbridge:ASP:75>  (267) 
0

>  <saltbridge:ASP:83>  (267) 
0

>  <hbond:ASN:152>  (267) 
0

>  <hydroph_interaction:ASN:152>  (267) 
0

>  <halogenbond:TYR:150>  (267) 
0

>  <hbond:ASP:83>  (267) 
0

>  <hydroph_interaction:VAL:155>  (267) 
0

>  <pication:TYR:161>  (267) 
0

>  <hbond:PRO:131>  (267) 
0

>  <saltbridge:ASP:129>  (267) 
0

>  <hbond:THR:134>  (267) 
0

>  <pication:HIS:51>  (267) 
0

>  <hbond:SER:81>  (267) 
0

>  <hydroph_interaction:THR:134>  (267) 
0

>  <hydroph_interaction:MET:49>  (267) 
0

$$$$
CSSB00150720221
     RDKit          3D

 18 19  0  0  0  0  0  0  0  0999 V2000
  -10.2190    4.8640  -18.6960 C   0  0  0  0  0  0  0  0  0  0  0  0
   -9.0660    5.0520  -17.8920 N   0  0  0  0  0  0  0  0  0  0  0  0
   -9.0990    5.1250  -16.5280 C   0  0  0  0  0  0  0  0  0  0  0  0
   -7.7220    5.3220  -15.9950 C   0  0  0  0  0  0  0  0  0  0  0  0
   -7.2880    5.4910  -14.0010 I   0  0  0  0  0  0  0  0  0  0  0  0
   -6.9040    5.3380  -17.2740 C   0  0  0  0  0  0  0  0  0  0  0  0
   -5.4160    5.4840  -17.4740 C   0  0  0  0  0  0  0  0  0  0  0  0
   -4.0980    5.6810  -16.1400 Br  0  0  0  0  0  0  0  0  0  0  0  0
   -5.0140    5.4590  -18.8060 C   0  0  0  0  0  0  0  0  0  0  0  0
   -5.9920    5.3030  -19.8140 C   0  0  0  0  0  0  0  0  0  0  0  0
   -7.3400    5.1630  -19.6410 N   0  0  0  0  0  0  0  0  0  0  0  0
   -7.7460    5.1840  -18.3600 C   0  0  0  0  0  0  0  0  0  0  0  0
  -10.4460    3.8080  -18.7370 H   0  0  0  0  0  0  0  0  0  0  0  0
  -11.0600    5.4230  -18.2760 H   0  0  0  0  0  0  0  0  0  0  0  0
  -10.0180    5.2300  -19.7110 H   0  0  0  0  0  0  0  0  0  0  0  0
  -10.0090    5.0480  -15.9260 H   0  0  0  0  0  0  0  0  0  0  0  0
   -3.9680    5.5570  -19.0820 H   0  0  0  0  0  0  0  0  0  0  0  0
   -5.6810    5.2850  -20.8570 H   0  0  0  0  0  0  0  0  0  0  0  0
  1  2  1  0
  2  3  1  0
  3  4  2  0
  4  5  1  0
  4  6  1  0
  6  7  2  0
  7  8  1  0
  7  9  1  0
  9 10  2  0
 10 11  1  0
 11 12  2  0
 12  2  1  0
 12  6  1  0
  1 13  1  0
  1 14  1  0
  1 15  1  0
  3 16  1  0
  9 17  1  0
 10 18  1  0
A    1
 C1 
A    2
 N1 
A    3
 C2 
A    4
 C3 
A    5
 I1 
A    6
 C4 
A    7
 C5 
A    8
BR1 
A    9
 C6 
A   10
 C7 
A   11
 N2 
A   12
 C8 
A   13
 H1 
A   14
 H2 
A   15
 H3 
A   16
 H4 
A   17
 H5 
A   18
 H6 
M  END
>  <ref_pdb>  (268) 
x0051_0B

>  <ref_mols>  (268) 
x0425_0B,x0687_0B

>  <original SMILES>  (268) 
[H]c1nc2c(c(Br)c1[H])c(I)c([H])n2C([H])([H])[H]

>  <index>  (268) 
3772

>  <∆∆G>  (268) 
-5.927705

>  <∆G_bound>  (268) 
-5.871864

>  <∆G_unbound>  (268) 
0.055841

>  <comRMSD>  (268) 
0.675509

>  <N_constrained_atoms>  (268) 
13.0

>  <N_unconstrained_atoms>  (268) 
0.0

>  <runtime>  (268) 
24.746416

>  <LE>  (268) 
0.455977

>  <percent_hybrid>  (268) 
50.0

>  <dist>  (268) 
4.0

>  <ecfp4>  (268) 
0.339623

>  <daylight>  (268) 
0.147208

>  <topodist>  (268) 
2.0

>  <mces>  (268) 
13.0

>  <tdn>  (268) 
1.0

>  <tup>  (268) 
0.0

>  <rdn>  (268) 
0.0

>  <rup>  (268) 
0.0

>  <ldn>  (268) 
1.0

>  <lup>  (268) 
0.0

>  <mut>  (268) 
2.0

>  <maj>  (268) 
2.0

>  <min>  (268) 
0.0

>  <hyb>  (268) 
0.0

>  <sub>  (268) 
0.0

>  <query_index>  (268) 
169.0

>  <max_hit_Tanimoto>  (268) 
0.129771

>  <largest_ring>  (268) 
6

>  <N_interactions_kept>  (268) 
1.5

>  <N_interactions_lost>  (268) 
3.0

>  <interaction_uniqueness_metric>  (268) 
0.027887

>  <ad_hoc_penalty>  (268) 
-0.394981

>  <N_rotatable_bonds>  (268) 
1

>  <N_HA>  (268) 
12

>  <cluster>  (268) 
2714

>  <N_interactions>  (268) 
3

>  <Enamine>  (268) 
1

>  <Mcule>  (268) 
0

>  <N_PAINS>  (268) 
0

>  <UFF_Gibbs>  (268) 
32.107819

>  <strain_per_HA>  (268) 
2.675652

>  <intxn_scored>  (268) 
9.0

>  <saltbridge:HIS:51>  (268) 
0

>  <pistack:HIS:51>  (268) 
0

>  <hydroph_interaction:HIS:51>  (268) 
0

>  <hbond:ALA:132>  (268) 
0

>  <hbond:SER:135>  (268) 
0

>  <hydroph_interaction:TYR:150>  (268) 
0

>  <pistack:TYR:161>  (268) 
2

>  <hydroph_interaction:TYR:161>  (268) 
1

>  <hydroph_interaction:ASP:83>  (268) 
0

>  <hbond:TYR:130>  (268) 
0

>  <hydroph_interaction:ALA:132>  (268) 
0

>  <hbond:HIS:51>  (268) 
0

>  <hbond:ASP:129>  (268) 
0

>  <hbond:TYR:150>  (268) 
0

>  <hbond:GLY:151>  (268) 
0

>  <hbond:TYR:161>  (268) 
0

>  <hydroph_interaction:TYR:130>  (268) 
0

>  <hydroph_interaction:PRO:131>  (268) 
0

>  <hydroph_interaction:ASP:129>  (268) 
0

>  <saltbridge:ASP:75>  (268) 
0

>  <saltbridge:ASP:83>  (268) 
0

>  <hbond:ASN:152>  (268) 
0

>  <hydroph_interaction:ASN:152>  (268) 
0

>  <halogenbond:TYR:150>  (268) 
0

>  <hbond:ASP:83>  (268) 
0

>  <hydroph_interaction:VAL:155>  (268) 
0

>  <pication:TYR:161>  (268) 
0

>  <hbond:PRO:131>  (268) 
0

>  <saltbridge:ASP:129>  (268) 
0

>  <hbond:THR:134>  (268) 
0

>  <pication:HIS:51>  (268) 
0

>  <hbond:SER:81>  (268) 
0

>  <hydroph_interaction:THR:134>  (268) 
0

>  <hydroph_interaction:MET:49>  (268) 
0

$$$$
Z95672431
     RDKit          3D

 39 41  0  0  0  0  0  0  0  0999 V2000
   -8.5970    4.5650   -8.9950 C   0  0  0  0  0  0  0  0  0  0  0  0
   -8.7220    4.9590  -10.4150 C   0  0  0  0  0  0  0  0  0  0  0  0
   -8.8780    6.1970  -10.8230 N   0  0  0  0  0  0  0  0  0  0  0  0
   -8.9660    6.2720  -12.1960 N   0  0  0  0  0  0  0  0  0  0  0  0
   -8.8710    5.0940  -12.7610 C   0  0  0  0  0  0  0  0  0  0  0  0
   -8.9000    4.7690  -14.0870 N   0  0  0  0  0  0  0  0  0  0  0  0
   -8.2970    5.5950  -14.9840 C   0  0  0  0  0  0  0  0  0  0  0  0
   -7.6010    6.5670  -14.7350 O   0  0  0  0  0  0  0  0  0  0  0  0
   -8.5200    5.2880  -16.4080 C   0  0  0  0  0  0  0  0  0  0  0  0
   -9.7830    4.8740  -16.7830 C   0  0  0  0  0  0  0  0  0  0  0  0
  -10.0670    4.5930  -18.1200 C   0  0  0  0  0  0  0  0  0  0  0  0
   -9.0690    4.7200  -19.0720 C   0  0  0  0  0  0  0  0  0  0  0  0
   -7.7900    5.1270  -18.6810 C   0  0  0  0  0  0  0  0  0  0  0  0
   -7.5110    5.4150  -17.3320 C   0  0  0  0  0  0  0  0  0  0  0  0
   -5.8740    5.9260  -16.8880 S   0  0  0  0  0  0  0  0  0  0  0  0
   -4.9090    5.3680  -18.3200 C   0  0  0  0  0  0  0  0  0  0  0  0
   -4.6610    6.4560  -19.3330 C   0  0  0  0  0  0  0  0  0  0  0  0
   -5.8200    7.4310  -19.4730 C   0  0  0  0  0  0  0  0  0  0  0  0
   -5.5770    8.0180  -20.8440 C   0  0  0  0  0  0  0  0  0  0  0  0
   -4.6820    7.0030  -21.5320 C   0  0  0  0  0  0  0  0  0  0  0  0
   -4.5070    5.9010  -20.6390 O   0  0  0  0  0  0  0  0  0  0  0  0
   -8.6740    3.7890  -11.6790 S   0  0  0  0  0  0  0  0  0  0  0  0
   -8.9290    3.5340   -8.8390 H   0  0  0  0  0  0  0  0  0  0  0  0
   -7.5600    4.6580   -8.6560 H   0  0  0  0  0  0  0  0  0  0  0  0
   -9.2120    5.2110   -8.3610 H   0  0  0  0  0  0  0  0  0  0  0  0
   -9.3490    3.9040  -14.3920 H   0  0  0  0  0  0  0  0  0  0  0  0
  -10.5340    4.7770  -16.0210 H   0  0  0  0  0  0  0  0  0  0  0  0
  -11.0650    4.2760  -18.4100 H   0  0  0  0  0  0  0  0  0  0  0  0
   -9.2710    4.5050  -20.1190 H   0  0  0  0  0  0  0  0  0  0  0  0
   -7.0190    5.2160  -19.4420 H   0  0  0  0  0  0  0  0  0  0  0  0
   -5.5110    4.5840  -18.7820 H   0  0  0  0  0  0  0  0  0  0  0  0
   -3.9780    4.9150  -17.9680 H   0  0  0  0  0  0  0  0  0  0  0  0
   -3.7480    7.0190  -19.0970 H   0  0  0  0  0  0  0  0  0  0  0  0
   -5.8310    8.1860  -18.6850 H   0  0  0  0  0  0  0  0  0  0  0  0
   -6.7850    6.9100  -19.4680 H   0  0  0  0  0  0  0  0  0  0  0  0
   -5.1370    9.0190  -20.8160 H   0  0  0  0  0  0  0  0  0  0  0  0
   -6.5280    8.0890  -21.3830 H   0  0  0  0  0  0  0  0  0  0  0  0
   -5.1550    6.6160  -22.4400 H   0  0  0  0  0  0  0  0  0  0  0  0
   -3.7050    7.4160  -21.7970 H   0  0  0  0  0  0  0  0  0  0  0  0
  1  2  1  0
  2  3  2  0
  3  4  1  0
  4  5  2  0
  5  6  1  0
  6  7  1  0
  7  8  2  0
  7  9  1  0
  9 10  2  0
 10 11  1  0
 11 12  2  0
 12 13  1  0
 13 14  2  0
 14 15  1  0
 15 16  1  0
 16 17  1  0
 17 18  1  0
 18 19  1  0
 19 20  1  0
 20 21  1  0
  5 22  1  0
 22  2  1  0
 14  9  1  0
 21 17  1  0
  1 23  1  0
  1 24  1  0
  1 25  1  0
  6 26  1  0
 10 27  1  0
 11 28  1  0
 12 29  1  0
 13 30  1  0
 16 31  1  0
 16 32  1  0
 17 33  1  0
 18 34  1  0
 18 35  1  0
 19 36  1  0
 19 37  1  0
 20 38  1  0
 20 39  1  0
A    1
 C1 
A    2
 C2 
A    3
 N1 
A    4
 N2 
A    5
 C3 
A    6
 N3 
A    7
 C4 
A    8
 O1 
A    9
 C5 
A   10
 C6 
A   11
 C7 
A   12
 C8 
A   13
 C9 
A   14
 C10
A   15
 S1 
A   16
 C11
A   17
 C12
A   18
 C13
A   19
 C14
A   20
 C15
A   21
 O2 
A   22
 S2 
A   23
 H1 
A   24
 H2 
A   25
 H3 
A   26
 H4 
A   27
 H5 
A   28
 H6 
A   29
 H7 
A   30
 H8 
A   31
 H9 
A   32
 H10
A   33
 H11
A   34
 H12
A   35
 H13
A   36
 H14
A   37
 H15
A   38
 H16
A   39
 H17
M  END
>  <ref_pdb>  (269) 
x0051_0B

>  <ref_mols>  (269) 
x1098_0B,x0229_0B

>  <original SMILES>  (269) 
[H]c1c([H])c([H])c(C(=O)N([H])c2nnc(C([H])([H])[H])s2)c(SC([H])([H])C2([H])OC([H])([H])C([H])([H])C2([H])[H])c1[H]

>  <index>  (269) 
1795

>  <∆∆G>  (269) 
-11.288729

>  <∆G_bound>  (269) 
-7.88845

>  <∆G_unbound>  (269) 
3.40028

>  <comRMSD>  (269) 
0.636859

>  <N_constrained_atoms>  (269) 
26.0

>  <N_unconstrained_atoms>  (269) 
0.0

>  <runtime>  (269) 
62.481563

>  <LE>  (269) 
0.434182

>  <percent_hybrid>  (269) 
43.0

>  <dist>  (269) 
8.0

>  <ecfp4>  (269) 
0.195652

>  <daylight>  (269) 
0.207951

>  <topodist>  (269) 
3.0

>  <mces>  (269) 
24.0

>  <tdn>  (269) 
2.0

>  <tup>  (269) 
0.0

>  <rdn>  (269) 
1.0

>  <rup>  (269) 
0.0

>  <ldn>  (269) 
0.0

>  <lup>  (269) 
0.0

>  <mut>  (269) 
5.0

>  <maj>  (269) 
5.0

>  <min>  (269) 
0.0

>  <hyb>  (269) 
0.0

>  <sub>  (269) 
2.0

>  <query_index>  (269) 
28.0

>  <max_hit_Tanimoto>  (269) 
0.273273

>  <largest_ring>  (269) 
6

>  <N_interactions_kept>  (269) 
1.5

>  <N_interactions_lost>  (269) 
4.0

>  <interaction_uniqueness_metric>  (269) 
0.174013

>  <ad_hoc_penalty>  (269) 
-10.106129

>  <N_rotatable_bonds>  (269) 
6

>  <N_HA>  (269) 
22

>  <cluster>  (269) 
485

>  <N_interactions>  (269) 
6

>  <Enamine>  (269) 
1

>  <Mcule>  (269) 
0

>  <N_PAINS>  (269) 
0

>  <UFF_Gibbs>  (269) 
103.69889

>  <strain_per_HA>  (269) 
4.713586

>  <intxn_scored>  (269) 
9.0

>  <saltbridge:HIS:51>  (269) 
0

>  <pistack:HIS:51>  (269) 
1

>  <hydroph_interaction:HIS:51>  (269) 
1

>  <hbond:ALA:132>  (269) 
0

>  <hbond:SER:135>  (269) 
0

>  <hydroph_interaction:TYR:150>  (269) 
1

>  <pistack:TYR:161>  (269) 
1

>  <hydroph_interaction:TYR:161>  (269) 
0

>  <hydroph_interaction:ASP:83>  (269) 
0

>  <hbond:TYR:130>  (269) 
0

>  <hydroph_interaction:ALA:132>  (269) 
0

>  <hbond:HIS:51>  (269) 
0

>  <hbond:ASP:129>  (269) 
0

>  <hbond:TYR:150>  (269) 
0

>  <hbond:GLY:151>  (269) 
1

>  <hbond:TYR:161>  (269) 
1

>  <hydroph_interaction:TYR:130>  (269) 
0

>  <hydroph_interaction:PRO:131>  (269) 
0

>  <hydroph_interaction:ASP:129>  (269) 
0

>  <saltbridge:ASP:75>  (269) 
0

>  <saltbridge:ASP:83>  (269) 
0

>  <hbond:ASN:152>  (269) 
0

>  <hydroph_interaction:ASN:152>  (269) 
0

>  <halogenbond:TYR:150>  (269) 
0

>  <hbond:ASP:83>  (269) 
0

>  <hydroph_interaction:VAL:155>  (269) 
0

>  <pication:TYR:161>  (269) 
0

>  <hbond:PRO:131>  (269) 
0

>  <saltbridge:ASP:129>  (269) 
0

>  <hbond:THR:134>  (269) 
0

>  <pication:HIS:51>  (269) 
0

>  <hbond:SER:81>  (269) 
0

>  <hydroph_interaction:THR:134>  (269) 
0

>  <hydroph_interaction:MET:49>  (269) 
0

$$$$
Z3537468943
     RDKit          3D

 43 46  0  0  0  0  0  0  0  0999 V2000
   -9.9930    4.9270  -14.2060 O   0  0  0  0  0  0  0  0  0  0  0  0
   -8.8100    5.1460  -14.0110 C   0  0  0  0  0  0  0  0  0  0  0  0
   -8.2320    5.0660  -12.7760 O   0  0  0  0  0  0  0  0  0  0  0  0
   -8.7200    6.1030  -11.9150 C   0  0  0  0  0  0  0  0  0  0  0  0
   -8.7470    5.7510  -10.4460 C   0  0  0  0  0  0  0  0  0  0  0  0
   -8.7300    4.6440   -9.6620 C   0  0  0  0  0  0  0  0  0  0  0  0
   -8.6620    3.2220  -10.1290 C   0  0  0  0  0  0  0  0  0  0  0  0
   -9.2380    2.2610   -9.0990 C   0  0  0  0  0  0  0  0  0  0  0  0
   -9.4410    2.6870   -7.8020 C   0  0  0  0  0  0  0  0  0  0  0  0
   -8.7810    3.8290   -7.3680 C   0  0  0  0  0  0  0  0  0  0  0  0
   -8.7810    4.8250   -8.3370 N   0  0  0  0  0  0  0  0  0  0  0  0
   -8.8290    6.1350   -8.0780 N   0  0  0  0  0  0  0  0  0  0  0  0
   -8.8090    6.7120   -9.3920 C   0  0  0  0  0  0  0  0  0  0  0  0
   -7.8680    5.5820  -15.1290 C   0  0  0  0  0  0  0  0  0  0  0  0
   -6.4660    5.1880  -14.8540 C   0  0  0  0  0  0  0  0  0  0  0  0
   -5.5840    5.5980  -15.8870 C   0  0  0  0  0  0  0  0  0  0  0  0
   -5.9830    5.6740  -17.2200 C   0  0  0  0  0  0  0  0  0  0  0  0
   -7.4150    5.3050  -17.5800 C   0  0  0  0  0  0  0  0  0  0  0  0
   -7.8040    5.0100  -19.0430 C   0  0  0  0  0  0  0  0  0  0  0  0
   -9.2660    4.6510  -19.2960 C   0  0  0  0  0  0  0  0  0  0  0  0
  -10.1050    4.6130  -18.1990 C   0  0  0  0  0  0  0  0  0  0  0  0
   -9.6520    4.9110  -16.7900 C   0  0  0  0  0  0  0  0  0  0  0  0
   -8.3360    5.2510  -16.5310 C   0  0  0  0  0  0  0  0  0  0  0  0
   -8.0980    6.9880  -12.0840 H   0  0  0  0  0  0  0  0  0  0  0  0
   -9.6750    6.3730  -12.3480 H   0  0  0  0  0  0  0  0  0  0  0  0
   -9.2000    3.1000  -11.0760 H   0  0  0  0  0  0  0  0  0  0  0  0
   -7.6110    2.9610  -10.3120 H   0  0  0  0  0  0  0  0  0  0  0  0
  -10.1980    1.9450   -9.4870 H   0  0  0  0  0  0  0  0  0  0  0  0
   -8.6090    1.3710   -9.0690 H   0  0  0  0  0  0  0  0  0  0  0  0
   -9.1570    1.8660   -7.1380 H   0  0  0  0  0  0  0  0  0  0  0  0
  -10.5170    2.8290   -7.6450 H   0  0  0  0  0  0  0  0  0  0  0  0
   -9.3560    4.1920   -6.5060 H   0  0  0  0  0  0  0  0  0  0  0  0
   -7.7490    3.7270   -7.0380 H   0  0  0  0  0  0  0  0  0  0  0  0
   -8.8440    7.8080   -9.4810 H   0  0  0  0  0  0  0  0  0  0  0  0
   -7.9130    6.6770  -15.0770 H   0  0  0  0  0  0  0  0  0  0  0  0
   -6.1510    5.4200  -13.8400 H   0  0  0  0  0  0  0  0  0  0  0  0
   -6.4500    4.1000  -14.8560 H   0  0  0  0  0  0  0  0  0  0  0  0
   -4.5670    5.8560  -15.6100 H   0  0  0  0  0  0  0  0  0  0  0  0
   -5.3000    5.9860  -18.0060 H   0  0  0  0  0  0  0  0  0  0  0  0
   -7.1020    5.0510  -19.8680 H   0  0  0  0  0  0  0  0  0  0  0  0
   -9.6120    4.4390  -20.2980 H   0  0  0  0  0  0  0  0  0  0  0  0
  -11.1590    4.3580  -18.3550 H   0  0  0  0  0  0  0  0  0  0  0  0
  -10.4240    4.8410  -16.0280 H   0  0  0  0  0  0  0  0  0  0  0  0
  1  2  2  0
  2  3  1  0
  3  4  1  0
  4  5  1  0
  5  6  2  0
  6  7  1  0
  7  8  1  0
  8  9  1  0
  9 10  1  0
 10 11  1  0
 11 12  1  0
 12 13  2  0
  2 14  1  0
 14 15  1  0
 15 16  1  0
 16 17  2  0
 17 18  1  0
 18 19  2  0
 19 20  1  0
 20 21  2  0
 21 22  1  0
 22 23  2  0
 13  5  1  0
 11  6  1  0
 23 14  1  0
 23 18  1  0
  4 24  1  0
  4 25  1  0
  7 26  1  0
  7 27  1  0
  8 28  1  0
  8 29  1  0
  9 30  1  0
  9 31  1  0
 10 32  1  0
 10 33  1  0
 13 34  1  0
 14 35  1  0
 15 36  1  0
 15 37  1  0
 16 38  1  0
 17 39  1  0
 19 40  1  0
 20 41  1  0
 21 42  1  0
 22 43  1  0
A    1
 O1 
A    2
 C1 
A    3
 O2 
A    4
 C2 
A    5
 C3 
A    6
 C4 
A    7
 C5 
A    8
 C6 
A    9
 C7 
A   10
 C8 
A   11
 N1 
A   12
 N2 
A   13
 C9 
A   14
 C10
A   15
 C11
A   16
 C12
A   17
 C13
A   18
 C14
A   19
 C15
A   20
 C16
A   21
 C17
A   22
 C18
A   23
 C19
A   24
 H1 
A   25
 H2 
A   26
 H3 
A   27
 H4 
A   28
 H5 
A   29
 H6 
A   30
 H7 
A   31
 H8 
A   32
 H9 
A   33
 H10
A   34
 H11
A   35
 H12
A   36
 H13
A   37
 H14
A   38
 H15
A   39
 H16
A   40
 H17
A   41
 H18
A   42
 H19
A   43
 H20
M  END
>  <ref_pdb>  (270) 
x0051_0B

>  <ref_mols>  (270) 
x0969_1B,x0455_0B

>  <original SMILES>  (270) 
[H]C1=C([H])C([H])([H])C([H])(C(=O)OC([H])([H])c2c([H])nn3c2C([H])([H])C([H])([H])C([H])([H])C3([H])[H])c2c([H])c([H])c([H])c([H])c21

>  <index>  (270) 
49

>  <∆∆G>  (270) 
-7.088228

>  <∆G_bound>  (270) 
-5.73358

>  <∆G_unbound>  (270) 
1.354648

>  <comRMSD>  (270) 
0.4074

>  <N_constrained_atoms>  (270) 
20.0

>  <N_unconstrained_atoms>  (270) 
3.0

>  <runtime>  (270) 
55.641556

>  <LE>  (270) 
0.308184

>  <percent_hybrid>  (270) 
50.0

>  <dist>  (270) 
6.0

>  <ecfp4>  (270) 
0.26506

>  <daylight>  (270) 
0.349711

>  <topodist>  (270) 
1.0

>  <mces>  (270) 
25.0

>  <tdn>  (270) 
0.0

>  <tup>  (270) 
1.0

>  <rdn>  (270) 
0.0

>  <rup>  (270) 
0.0

>  <ldn>  (270) 
0.0

>  <lup>  (270) 
0.0

>  <mut>  (270) 
3.0

>  <maj>  (270) 
3.0

>  <min>  (270) 
0.0

>  <hyb>  (270) 
2.0

>  <sub>  (270) 
0.0

>  <query_index>  (270) 
204.0

>  <max_hit_Tanimoto>  (270) 
0.305654

>  <largest_ring>  (270) 
0

>  <N_interactions_kept>  (270) 
1.0

>  <N_interactions_lost>  (270) 
1.5

>  <interaction_uniqueness_metric>  (270) 
0.215508

>  <ad_hoc_penalty>  (270) 
-32.68423

>  <N_rotatable_bonds>  (270) 
3

>  <N_HA>  (270) 
23

>  <cluster>  (270) 
6172

>  <N_interactions>  (270) 
7

>  <Enamine>  (270) 
1

>  <Mcule>  (270) 
0

>  <N_PAINS>  (270) 
0

>  <UFF_Gibbs>  (270) 
154.014227

>  <strain_per_HA>  (270) 
6.696271

>  <intxn_scored>  (270) 
9.0

>  <saltbridge:HIS:51>  (270) 
1

>  <pistack:HIS:51>  (270) 
0

>  <hydroph_interaction:HIS:51>  (270) 
1

>  <hbond:ALA:132>  (270) 
0

>  <hbond:SER:135>  (270) 
1

>  <hydroph_interaction:TYR:150>  (270) 
1

>  <pistack:TYR:161>  (270) 
1

>  <hydroph_interaction:TYR:161>  (270) 
2

>  <hydroph_interaction:ASP:83>  (270) 
0

>  <hbond:TYR:130>  (270) 
0

>  <hydroph_interaction:ALA:132>  (270) 
0

>  <hbond:HIS:51>  (270) 
0

>  <hbond:ASP:129>  (270) 
0

>  <hbond:TYR:150>  (270) 
0

>  <hbond:GLY:151>  (270) 
0

>  <hbond:TYR:161>  (270) 
0

>  <hydroph_interaction:TYR:130>  (270) 
0

>  <hydroph_interaction:PRO:131>  (270) 
0

>  <hydroph_interaction:ASP:129>  (270) 
0

>  <saltbridge:ASP:75>  (270) 
0

>  <saltbridge:ASP:83>  (270) 
0

>  <hbond:ASN:152>  (270) 
0

>  <hydroph_interaction:ASN:152>  (270) 
0

>  <halogenbond:TYR:150>  (270) 
0

>  <hbond:ASP:83>  (270) 
0

>  <hydroph_interaction:VAL:155>  (270) 
0

>  <pication:TYR:161>  (270) 
0

>  <hbond:PRO:131>  (270) 
0

>  <saltbridge:ASP:129>  (270) 
0

>  <hbond:THR:134>  (270) 
0

>  <pication:HIS:51>  (270) 
0

>  <hbond:SER:81>  (270) 
0

>  <hydroph_interaction:THR:134>  (270) 
0

>  <hydroph_interaction:MET:49>  (270) 
0

$$$$
Z5316725443
     RDKit          3D

 50 53  0  0  0  0  0  0  0  0999 V2000
   -2.6560    4.9410  -17.5700 C   0  0  0  0  0  0  0  0  0  0  0  0
   -4.0600    5.1360  -17.9490 C   0  0  0  0  0  0  0  0  0  0  0  0
   -5.1230    5.3840  -17.2090 C   0  0  0  0  0  0  0  0  0  0  0  0
   -6.2480    5.5060  -17.9700 C   0  0  0  0  0  0  0  0  0  0  0  0
   -7.6440    5.8110  -17.6230 C   0  0  0  0  0  0  0  0  0  0  0  0
   -8.4670    5.1430  -18.5300 C   0  0  0  0  0  0  0  0  0  0  0  0
   -9.6480    4.7260  -17.8570 C   0  0  0  0  0  0  0  0  0  0  0  0
   -9.6810    5.1360  -16.5390 C   0  0  0  0  0  0  0  0  0  0  0  0
   -8.3650    5.4860  -16.2380 N   0  0  0  0  0  0  0  0  0  0  0  0
   -8.3480    6.6390  -14.8880 S   0  0  0  0  0  6  0  0  0  0  0  0
   -9.5860    7.3780  -14.8240 O   0  0  0  0  0  0  0  0  0  0  0  0
   -7.1370    7.3850  -14.9690 O   0  0  0  0  0  0  0  0  0  0  0  0
   -8.4880    5.9640  -13.2250 C   0  0  0  0  0  0  0  0  0  0  0  0
   -8.4450    6.9340  -12.0210 C   0  0  0  0  0  0  0  0  0  0  0  0
   -8.5830    6.2730  -10.6450 C   0  0  0  0  0  0  0  0  0  0  0  0
   -8.7370    4.8820  -10.5180 C   0  0  0  0  0  0  0  0  0  0  0  0
   -8.8580    4.2740   -9.2780 N   0  0  0  0  0  0  0  0  0  0  0  0
   -9.1220    2.8240   -9.2740 C   0  0  0  0  0  0  0  0  0  0  0  0
   -9.6570    2.3790   -7.9160 C   0  0  0  0  0  0  0  0  0  0  0  0
   -8.8520    2.8570   -6.8050 N   0  0  0  0  0  0  0  0  0  0  0  0
   -8.8150    4.3210   -6.8560 C   0  0  0  0  0  0  0  0  0  0  0  0
   -8.2650    4.8590   -8.0440 C   0  0  0  0  0  0  0  0  0  0  0  0
   -8.7640    4.1040  -11.6940 C   0  0  0  0  0  0  0  0  0  0  0  0
   -8.6460    4.6090  -13.0030 C   0  0  0  0  0  0  0  0  0  0  0  0
   -5.8540    5.3120  -19.2600 N   0  0  0  0  0  0  0  0  0  0  0  0
   -4.4730    5.0830  -19.2410 O   0  0  0  0  0  0  0  0  0  0  0  0
   -2.5910    4.3530  -16.6490 H   0  0  0  0  0  0  0  0  0  0  0  0
   -2.1670    5.9050  -17.3980 H   0  0  0  0  0  0  0  0  0  0  0  0
   -2.0980    4.4200  -18.3570 H   0  0  0  0  0  0  0  0  0  0  0  0
   -5.1430    5.4950  -16.1300 H   0  0  0  0  0  0  0  0  0  0  0  0
   -7.7340    6.8540  -17.6510 H   0  0  0  0  0  0  0  0  0  0  0  0
   -7.9360    4.2910  -18.9350 H   0  0  0  0  0  0  0  0  0  0  0  0
   -8.6960    5.7950  -19.3800 H   0  0  0  0  0  0  0  0  0  0  0  0
  -10.4990    5.2130  -18.3530 H   0  0  0  0  0  0  0  0  0  0  0  0
   -9.8470    3.6930  -18.0170 H   0  0  0  0  0  0  0  0  0  0  0  0
  -10.0780    4.4880  -15.7840 H   0  0  0  0  0  0  0  0  0  0  0  0
  -10.2670    6.0550  -16.4980 H   0  0  0  0  0  0  0  0  0  0  0  0
   -8.3270    8.0110  -12.1250 H   0  0  0  0  0  0  0  0  0  0  0  0
   -8.5600    6.8970   -9.7450 H   0  0  0  0  0  0  0  0  0  0  0  0
   -8.2010    2.2750   -9.5080 H   0  0  0  0  0  0  0  0  0  0  0  0
   -9.8820    2.5630  -10.0200 H   0  0  0  0  0  0  0  0  0  0  0  0
   -9.7410    1.2970   -7.8790 H   0  0  0  0  0  0  0  0  0  0  0  0
  -10.6660    2.7630   -7.7910 H   0  0  0  0  0  0  0  0  0  0  0  0
   -9.2360    2.5270   -5.9160 H   0  0  0  0  0  0  0  0  0  0  0  0
   -8.2500    4.6840   -5.9920 H   0  0  0  0  0  0  0  0  0  0  0  0
   -9.8410    4.6950   -6.7460 H   0  0  0  0  0  0  0  0  0  0  0  0
   -8.4030    5.9470   -8.0540 H   0  0  0  0  0  0  0  0  0  0  0  0
   -7.1870    4.6590   -8.0050 H   0  0  0  0  0  0  0  0  0  0  0  0
   -8.8840    3.0270  -11.6160 H   0  0  0  0  0  0  0  0  0  0  0  0
   -8.6790    3.9280  -13.8400 H   0  0  0  0  0  0  0  0  0  0  0  0
  1  2  1  0
  2  3  2  0
  3  4  1  0
  4  5  1  0
  5  6  1  0
  6  7  1  0
  7  8  1  0
  8  9  1  0
  9 10  1  0
 10 11  2  0
 10 12  2  0
 10 13  1  0
 13 14  2  0
 14 15  1  0
 15 16  2  0
 16 17  1  0
 17 18  1  0
 18 19  1  0
 19 20  1  0
 20 21  1  0
 21 22  1  0
 16 23  1  0
 23 24  2  0
  4 25  2  0
 25 26  1  0
 26  2  1  0
  9  5  1  0
 24 13  1  0
 22 17  1  0
  1 27  1  0
  1 28  1  0
  1 29  1  0
  3 30  1  0
  5 31  1  0
  6 32  1  0
  6 33  1  0
  7 34  1  0
  7 35  1  0
  8 36  1  0
  8 37  1  0
 14 38  1  0
 15 39  1  0
 18 40  1  0
 18 41  1  0
 19 42  1  0
 19 43  1  0
 20 44  1  0
 21 45  1  0
 21 46  1  0
 22 47  1  0
 22 48  1  0
 23 49  1  0
 24 50  1  0
A    1
 C1 
A    2
 C2 
A    3
 C3 
A    4
 C4 
A    5
 C5 
A    6
 C6 
A    7
 C7 
A    8
 C8 
A    9
 N1 
A   10
 S1 
A   11
 O1 
A   12
 O2 
A   13
 C9 
A   14
 C10
A   15
 C11
A   16
 C12
A   17
 N2 
A   18
 C13
A   19
 C14
A   20
 N3 
A   21
 C15
A   22
 C16
A   23
 C17
A   24
 C18
A   25
 N4 
A   26
 O3 
A   27
 H1 
A   28
 H2 
A   29
 H3 
A   30
 H4 
A   31
 H5 
A   32
 H6 
A   33
 H7 
A   34
 H8 
A   35
 H9 
A   36
 H10
A   37
 H11
A   38
 H12
A   39
 H13
A   40
 H14
A   41
 H15
A   42
 H16
A   43
 H17
A   44
 H18
A   45
 H19
A   46
 H20
A   47
 H21
A   48
 H22
A   49
 H23
A   50
 H24
M  END
>  <ref_pdb>  (271) 
x0051_0B

>  <ref_mols>  (271) 
x0404_0B,x0422_0B

>  <original SMILES>  (271) 
[H]c1c(C2([H])N(S(=O)(=O)c3c([H])c([H])c(N4C([H])([H])C([H])([H])N([H])C([H])([H])C4([H])[H])c([H])c3[H])C([H])([H])C([H])([H])C2([H])[H])noc1C([H])([H])[H]

>  <index>  (271) 
2209

>  <∆∆G>  (271) 
-6.036317

>  <∆G_bound>  (271) 
-4.473933

>  <∆G_unbound>  (271) 
1.562384

>  <comRMSD>  (271) 
0.861574

>  <N_constrained_atoms>  (271) 
26.0

>  <N_unconstrained_atoms>  (271) 
0.0

>  <runtime>  (271) 
71.746759

>  <LE>  (271) 
0.232166

>  <percent_hybrid>  (271) 
43.0

>  <dist>  (271) 
7.0

>  <ecfp4>  (271) 
0.345679

>  <daylight>  (271) 
0.315603

>  <topodist>  (271) 
2.0

>  <mces>  (271) 
29.0

>  <tdn>  (271) 
0.0

>  <tup>  (271) 
0.0

>  <rdn>  (271) 
0.0

>  <rup>  (271) 
0.0

>  <ldn>  (271) 
2.0

>  <lup>  (271) 
0.0

>  <mut>  (271) 
5.0

>  <maj>  (271) 
5.0

>  <min>  (271) 
0.0

>  <hyb>  (271) 
0.0

>  <sub>  (271) 
0.0

>  <query_index>  (271) 
324.0

>  <max_hit_Tanimoto>  (271) 
0.267824

>  <largest_ring>  (271) 
6

>  <N_interactions_kept>  (271) 
2.0

>  <N_interactions_lost>  (271) 
3.5

>  <interaction_uniqueness_metric>  (271) 
0.215934

>  <ad_hoc_penalty>  (271) 
-6.931454

>  <N_rotatable_bonds>  (271) 
5

>  <N_HA>  (271) 
26

>  <cluster>  (271) 
4189

>  <N_interactions>  (271) 
7

>  <Enamine>  (271) 
1

>  <Mcule>  (271) 
0

>  <N_PAINS>  (271) 
0

>  <UFF_Gibbs>  (271) 
155.063808

>  <strain_per_HA>  (271) 
5.963993

>  <intxn_scored>  (271) 
9.0

>  <saltbridge:HIS:51>  (271) 
0

>  <pistack:HIS:51>  (271) 
1

>  <hydroph_interaction:HIS:51>  (271) 
0

>  <hbond:ALA:132>  (271) 
0

>  <hbond:SER:135>  (271) 
0

>  <hydroph_interaction:TYR:150>  (271) 
0

>  <pistack:TYR:161>  (271) 
1

>  <hydroph_interaction:TYR:161>  (271) 
3

>  <hydroph_interaction:ASP:83>  (271) 
0

>  <hbond:TYR:130>  (271) 
0

>  <hydroph_interaction:ALA:132>  (271) 
0

>  <hbond:HIS:51>  (271) 
0

>  <hbond:ASP:129>  (271) 
0

>  <hbond:TYR:150>  (271) 
0

>  <hbond:GLY:151>  (271) 
0

>  <hbond:TYR:161>  (271) 
0

>  <hydroph_interaction:TYR:130>  (271) 
0

>  <hydroph_interaction:PRO:131>  (271) 
0

>  <hydroph_interaction:ASP:129>  (271) 
0

>  <saltbridge:ASP:75>  (271) 
0

>  <saltbridge:ASP:83>  (271) 
0

>  <hbond:ASN:152>  (271) 
0

>  <hydroph_interaction:ASN:152>  (271) 
0

>  <halogenbond:TYR:150>  (271) 
0

>  <hbond:ASP:83>  (271) 
0

>  <hydroph_interaction:VAL:155>  (271) 
1

>  <pication:TYR:161>  (271) 
0

>  <hbond:PRO:131>  (271) 
0

>  <saltbridge:ASP:129>  (271) 
0

>  <hbond:THR:134>  (271) 
0

>  <pication:HIS:51>  (271) 
0

>  <hbond:SER:81>  (271) 
1

>  <hydroph_interaction:THR:134>  (271) 
0

>  <hydroph_interaction:MET:49>  (271) 
0

$$$$
CSSB00011100921
     RDKit          3D

 20 22  0  0  0  0  0  0  0  0999 V2000
   -6.1560    5.4830  -20.5520 C   0  0  0  0  0  0  0  0  0  0  0  0
   -4.7710    5.3010  -21.1400 C   0  0  0  0  0  0  0  0  0  0  0  0
   -3.6620    5.5880  -20.1490 C   0  0  0  0  0  0  0  0  0  0  0  0
   -3.8740    5.9790  -18.8500 O   0  0  0  0  0  0  0  0  0  0  0  0
   -4.9720    5.7880  -18.3170 C   0  0  0  0  0  0  0  0  0  0  0  0
   -5.0780    5.8290  -16.7770 C   0  0  0  0  0  0  0  0  0  0  0  0
   -6.3030    5.6160  -16.1660 C   0  0  0  0  0  0  0  0  0  0  0  0
   -7.4240    5.3600  -16.9570 C   0  0  0  0  0  0  0  0  0  0  0  0
   -9.0430    5.0590  -16.4360 S   0  0  0  0  0  0  0  0  0  0  0  0
   -9.5320    4.8860  -18.0730 C   0  0  0  0  0  0  0  0  0  0  0  0
   -8.5900    5.0430  -18.9710 N   0  0  0  0  0  0  0  0  0  0  0  0
   -7.3710    5.3160  -18.3560 C   0  0  0  0  0  0  0  0  0  0  0  0
   -6.1600    5.5300  -19.0520 C   0  0  0  0  0  0  0  0  0  0  0  0
   -6.8160    4.6700  -20.8770 H   0  0  0  0  0  0  0  0  0  0  0  0
   -6.5960    6.4150  -20.9190 H   0  0  0  0  0  0  0  0  0  0  0  0
   -4.6120    4.9900  -22.1670 H   0  0  0  0  0  0  0  0  0  0  0  0
   -2.5900    5.5110  -20.3750 H   0  0  0  0  0  0  0  0  0  0  0  0
   -4.1950    6.0250  -16.1710 H   0  0  0  0  0  0  0  0  0  0  0  0
   -6.3880    5.6430  -15.0850 H   0  0  0  0  0  0  0  0  0  0  0  0
  -10.5680    4.6660  -18.3430 H   0  0  0  0  0  0  0  0  0  0  0  0
  1  2  1  0
  2  3  2  0
  3  4  1  0
  4  5  1  0
  5  6  2  0
  6  7  1  0
  7  8  2  0
  8  9  1  0
  9 10  1  0
 10 11  2  0
 11 12  1  0
 12 13  2  0
 13  1  1  0
 13  5  1  0
 12  8  1  0
  1 14  1  0
  1 15  1  0
  2 16  1  0
  3 17  1  0
  6 18  1  0
  7 19  1  0
 10 20  1  0
A    1
 C1 
A    2
 C2 
A    3
 C3 
A    4
 O1 
A    5
 C4 
A    6
 C5 
A    7
 C6 
A    8
 C7 
A    9
 S1 
A   10
 C8 
A   11
 N1 
A   12
 C9 
A   13
 C10
A   14
 H1 
A   15
 H2 
A   16
 H3 
A   17
 H4 
A   18
 H5 
A   19
 H6 
A   20
 H7 
M  END
>  <ref_pdb>  (272) 
x0051_0B

>  <ref_mols>  (272) 
x0051_0B,x0101_0B

>  <original SMILES>  (272) 
[H]C1=C([H])C([H])([H])c2c(c([H])c([H])c3sc([H])nc23)O1

>  <index>  (272) 
3419

>  <∆∆G>  (272) 
-5.246122

>  <∆G_bound>  (272) 
-5.066244

>  <∆G_unbound>  (272) 
0.179878

>  <comRMSD>  (272) 
0.79228

>  <N_constrained_atoms>  (272) 
15.0

>  <N_unconstrained_atoms>  (272) 
0.0

>  <runtime>  (272) 
17.453009

>  <LE>  (272) 
0.349741

>  <percent_hybrid>  (272) 
50.0

>  <dist>  (272) 
7.0

>  <ecfp4>  (272) 
0.184615

>  <daylight>  (272) 
0.359504

>  <topodist>  (272) 
4.0

>  <mces>  (272) 
15.0

>  <tdn>  (272) 
4.0

>  <tup>  (272) 
0.0

>  <rdn>  (272) 
0.0

>  <rup>  (272) 
0.0

>  <ldn>  (272) 
0.0

>  <lup>  (272) 
0.0

>  <mut>  (272) 
1.0

>  <maj>  (272) 
1.0

>  <min>  (272) 
0.0

>  <hyb>  (272) 
2.0

>  <sub>  (272) 
1.0

>  <query_index>  (272) 
294.0

>  <max_hit_Tanimoto>  (272) 
0.46382

>  <largest_ring>  (272) 
6

>  <N_interactions_kept>  (272) 
2.0

>  <N_interactions_lost>  (272) 
3.0

>  <interaction_uniqueness_metric>  (272) 
0.027887

>  <ad_hoc_penalty>  (272) 
-0.543227

>  <N_rotatable_bonds>  (272) 
0

>  <N_HA>  (272) 
13

>  <cluster>  (272) 
3047

>  <N_interactions>  (272) 
3

>  <Enamine>  (272) 
1

>  <Mcule>  (272) 
0

>  <N_PAINS>  (272) 
0

>  <UFF_Gibbs>  (272) 
54.817175

>  <strain_per_HA>  (272) 
4.216706

>  <intxn_scored>  (272) 
9.0

>  <saltbridge:HIS:51>  (272) 
0

>  <pistack:HIS:51>  (272) 
0

>  <hydroph_interaction:HIS:51>  (272) 
0

>  <hbond:ALA:132>  (272) 
0

>  <hbond:SER:135>  (272) 
0

>  <hydroph_interaction:TYR:150>  (272) 
0

>  <pistack:TYR:161>  (272) 
2

>  <hydroph_interaction:TYR:161>  (272) 
1

>  <hydroph_interaction:ASP:83>  (272) 
0

>  <hbond:TYR:130>  (272) 
0

>  <hydroph_interaction:ALA:132>  (272) 
0

>  <hbond:HIS:51>  (272) 
0

>  <hbond:ASP:129>  (272) 
0

>  <hbond:TYR:150>  (272) 
0

>  <hbond:GLY:151>  (272) 
0

>  <hbond:TYR:161>  (272) 
0

>  <hydroph_interaction:TYR:130>  (272) 
0

>  <hydroph_interaction:PRO:131>  (272) 
0

>  <hydroph_interaction:ASP:129>  (272) 
0

>  <saltbridge:ASP:75>  (272) 
0

>  <saltbridge:ASP:83>  (272) 
0

>  <hbond:ASN:152>  (272) 
0

>  <hydroph_interaction:ASN:152>  (272) 
0

>  <halogenbond:TYR:150>  (272) 
0

>  <hbond:ASP:83>  (272) 
0

>  <hydroph_interaction:VAL:155>  (272) 
0

>  <pication:TYR:161>  (272) 
0

>  <hbond:PRO:131>  (272) 
0

>  <saltbridge:ASP:129>  (272) 
0

>  <hbond:THR:134>  (272) 
0

>  <pication:HIS:51>  (272) 
0

>  <hbond:SER:81>  (272) 
0

>  <hydroph_interaction:THR:134>  (272) 
0

>  <hydroph_interaction:MET:49>  (272) 
0

$$$$
Z2852288100
     RDKit          3D

 37 39  0  0  0  0  0  0  0  0999 V2000
  -11.4850    4.8340  -18.5920 N   0  0  0  0  0  0  0  0  0  0  0  0
  -10.4420    4.8660  -18.1750 C   0  0  0  0  0  0  0  0  0  0  0  0
   -9.1430    4.9630  -17.6530 C   0  0  0  0  0  0  0  0  0  0  0  0
   -8.0960    5.1820  -18.5260 C   0  0  0  0  0  0  0  0  0  0  0  0
   -6.8480    5.2790  -17.9690 C   0  0  0  0  0  0  0  0  0  0  0  0
   -6.6120    5.1650  -16.6400 N   0  0  0  0  0  0  0  0  0  0  0  0
   -7.6450    4.9410  -15.7930 C   0  0  0  0  0  0  0  0  0  0  0  0
   -7.3000    4.8030  -14.4300 N   0  0  0  0  0  0  0  0  0  0  0  0
   -7.7050    5.7290  -13.3310 C   0  0  0  0  0  0  0  0  0  0  0  0
   -8.9110    5.2640  -12.4760 C   0  0  0  0  0  0  0  0  0  0  0  0
   -8.8620    5.3790  -10.9580 C   0  0  0  0  0  0  0  0  0  0  0  0
   -8.9760    4.3500  -10.0420 C   0  0  0  0  0  0  0  0  0  0  0  0
   -9.1560    2.8890  -10.2040 C   0  0  0  0  0  0  0  0  0  0  0  0
   -8.6870    2.1940   -8.9450 C   0  0  0  0  0  0  0  0  0  0  0  0
   -9.4090    2.7460   -7.7300 C   0  0  0  0  0  0  0  0  0  0  0  0
   -8.9820    4.1930   -7.5210 C   0  0  0  0  0  0  0  0  0  0  0  0
   -8.8940    4.9120   -8.7860 N   0  0  0  0  0  0  0  0  0  0  0  0
   -8.7220    6.2380   -8.8140 N   0  0  0  0  0  0  0  0  0  0  0  0
   -8.7050    6.5280  -10.1270 C   0  0  0  0  0  0  0  0  0  0  0  0
   -8.9370    4.8420  -16.2860 C   0  0  0  0  0  0  0  0  0  0  0  0
   -8.2420    5.2770  -19.5980 H   0  0  0  0  0  0  0  0  0  0  0  0
   -5.9700    5.4530  -18.5850 H   0  0  0  0  0  0  0  0  0  0  0  0
   -7.4160    3.7930  -14.2220 H   0  0  0  0  0  0  0  0  0  0  0  0
   -7.9490    6.6900  -13.8010 H   0  0  0  0  0  0  0  0  0  0  0  0
   -6.8560    5.9390  -12.6710 H   0  0  0  0  0  0  0  0  0  0  0  0
   -9.1580    4.2260  -12.7440 H   0  0  0  0  0  0  0  0  0  0  0  0
   -9.7750    5.8540  -12.8070 H   0  0  0  0  0  0  0  0  0  0  0  0
   -8.5650    2.5460  -11.0600 H   0  0  0  0  0  0  0  0  0  0  0  0
  -10.2000    2.6310  -10.4060 H   0  0  0  0  0  0  0  0  0  0  0  0
   -7.6080    2.3370   -8.8340 H   0  0  0  0  0  0  0  0  0  0  0  0
   -8.8600    1.1300   -9.0070 H   0  0  0  0  0  0  0  0  0  0  0  0
   -9.1400    2.1510   -6.8560 H   0  0  0  0  0  0  0  0  0  0  0  0
  -10.4970    2.6760   -7.8520 H   0  0  0  0  0  0  0  0  0  0  0  0
   -7.9860    4.2400   -7.0640 H   0  0  0  0  0  0  0  0  0  0  0  0
   -9.6940    4.7180   -6.8780 H   0  0  0  0  0  0  0  0  0  0  0  0
   -8.5810    7.5600  -10.4270 H   0  0  0  0  0  0  0  0  0  0  0  0
   -9.7720    4.6690  -15.6160 H   0  0  0  0  0  0  0  0  0  0  0  0
  1  2  3  0
  2  3  1  0
  3  4  2  0
  4  5  1  0
  5  6  2  0
  6  7  1  0
  7  8  1  0
  8  9  1  0
  9 10  1  0
 10 11  1  0
 11 12  2  0
 12 13  1  0
 13 14  1  0
 14 15  1  0
 15 16  1  0
 16 17  1  0
 17 18  1  0
 18 19  2  0
  7 20  2  0
 20  3  1  0
 19 11  1  0
 17 12  1  0
  4 21  1  0
  5 22  1  0
  8 23  1  0
  9 24  1  0
  9 25  1  0
 10 26  1  0
 10 27  1  0
 13 28  1  0
 13 29  1  0
 14 30  1  0
 14 31  1  0
 15 32  1  0
 15 33  1  0
 16 34  1  0
 16 35  1  0
 19 36  1  0
 20 37  1  0
A    1
 N1 
A    2
 C1 
A    3
 C2 
A    4
 C3 
A    5
 C4 
A    6
 N2 
A    7
 C5 
A    8
 N3 
A    9
 C6 
A   10
 C7 
A   11
 C8 
A   12
 C9 
A   13
 C10
A   14
 C11
A   15
 C12
A   16
 C13
A   17
 N4 
A   18
 N5 
A   19
 C14
A   20
 C15
A   21
 H1 
A   22
 H2 
A   23
 H3 
A   24
 H4 
A   25
 H5 
A   26
 H6 
A   27
 H7 
A   28
 H8 
A   29
 H9 
A   30
 H10
A   31
 H11
A   32
 H12
A   33
 H13
A   34
 H14
A   35
 H15
A   36
 H16
A   37
 H17
M  END
>  <ref_pdb>  (273) 
x0051_0B

>  <ref_mols>  (273) 
x0553_0B,x0969_1B

>  <original SMILES>  (273) 
[H]c1nc(N([H])C([H])([H])C([H])([H])c2c([H])nn3c2C([H])([H])C([H])([H])C([H])([H])C3([H])[H])c([H])c(C#N)c1[H]

>  <index>  (273) 
677

>  <∆∆G>  (273) 
-6.300853

>  <∆G_bound>  (273) 
-4.968113

>  <∆G_unbound>  (273) 
1.332739

>  <comRMSD>  (273) 
0.52153

>  <N_constrained_atoms>  (273) 
18.0

>  <N_unconstrained_atoms>  (273) 
2.0

>  <runtime>  (273) 
56.498035

>  <LE>  (273) 
0.315043

>  <percent_hybrid>  (273) 
45.0

>  <dist>  (273) 
4.0

>  <ecfp4>  (273) 
0.416667

>  <daylight>  (273) 
0.282828

>  <topodist>  (273) 
1.0

>  <mces>  (273) 
22.0

>  <tdn>  (273) 
1.0

>  <tup>  (273) 
0.0

>  <rdn>  (273) 
0.0

>  <rup>  (273) 
0.0

>  <ldn>  (273) 
0.0

>  <lup>  (273) 
0.0

>  <mut>  (273) 
3.0

>  <maj>  (273) 
3.0

>  <min>  (273) 
0.0

>  <hyb>  (273) 
0.0

>  <sub>  (273) 
0.0

>  <query_index>  (273) 
375.0

>  <max_hit_Tanimoto>  (273) 
0.332978

>  <largest_ring>  (273) 
6

>  <N_interactions_kept>  (273) 
1.5

>  <N_interactions_lost>  (273) 
1.0

>  <interaction_uniqueness_metric>  (273) 
0.167935

>  <ad_hoc_penalty>  (273) 
-21.256108

>  <N_rotatable_bonds>  (273) 
4

>  <N_HA>  (273) 
20

>  <cluster>  (273) 
5597

>  <N_interactions>  (273) 
4

>  <Enamine>  (273) 
1

>  <Mcule>  (273) 
0

>  <N_PAINS>  (273) 
0

>  <UFF_Gibbs>  (273) 
38.762619

>  <strain_per_HA>  (273) 
1.938131

>  <intxn_scored>  (273) 
9.0

>  <saltbridge:HIS:51>  (273) 
0

>  <pistack:HIS:51>  (273) 
1

>  <hydroph_interaction:HIS:51>  (273) 
0

>  <hbond:ALA:132>  (273) 
0

>  <hbond:SER:135>  (273) 
0

>  <hydroph_interaction:TYR:150>  (273) 
0

>  <pistack:TYR:161>  (273) 
1

>  <hydroph_interaction:TYR:161>  (273) 
0

>  <hydroph_interaction:ASP:83>  (273) 
1

>  <hbond:TYR:130>  (273) 
0

>  <hydroph_interaction:ALA:132>  (273) 
0

>  <hbond:HIS:51>  (273) 
0

>  <hbond:ASP:129>  (273) 
0

>  <hbond:TYR:150>  (273) 
0

>  <hbond:GLY:151>  (273) 
0

>  <hbond:TYR:161>  (273) 
1

>  <hydroph_interaction:TYR:130>  (273) 
0

>  <hydroph_interaction:PRO:131>  (273) 
0

>  <hydroph_interaction:ASP:129>  (273) 
0

>  <saltbridge:ASP:75>  (273) 
0

>  <saltbridge:ASP:83>  (273) 
0

>  <hbond:ASN:152>  (273) 
0

>  <hydroph_interaction:ASN:152>  (273) 
0

>  <halogenbond:TYR:150>  (273) 
0

>  <hbond:ASP:83>  (273) 
0

>  <hydroph_interaction:VAL:155>  (273) 
0

>  <pication:TYR:161>  (273) 
0

>  <hbond:PRO:131>  (273) 
0

>  <saltbridge:ASP:129>  (273) 
0

>  <hbond:THR:134>  (273) 
0

>  <pication:HIS:51>  (273) 
0

>  <hbond:SER:81>  (273) 
0

>  <hydroph_interaction:THR:134>  (273) 
0

>  <hydroph_interaction:MET:49>  (273) 
0

$$$$
CSSB00000566322
     RDKit          3D

 30 31  0  0  0  0  0  0  0  0999 V2000
   -8.5520    4.4820   -8.9330 C   0  0  0  0  0  0  0  0  0  0  0  0
   -8.6250    5.0460  -10.2740 N   0  0  0  0  0  0  0  0  0  0  0  0
   -8.3310    4.2420  -11.4150 C   0  0  0  0  0  0  0  0  0  0  0  0
   -8.4880    5.1070  -12.6320 C   0  0  0  0  0  0  0  0  0  0  0  0
   -8.2650    4.6410  -14.0030 N   0  0  0  0  0  0  0  0  0  0  0  0
   -9.1270    5.4190  -14.8850 C   0  0  0  0  0  0  0  0  0  0  0  0
   -8.8820    5.2080  -16.3480 C   0  0  0  0  0  0  0  0  0  0  0  0
   -9.9000    4.6420  -17.0850 C   0  0  0  0  0  0  0  0  0  0  0  0
   -9.8020    4.4100  -18.4410 C   0  0  0  0  0  0  0  0  0  0  0  0
   -8.6450    4.7480  -19.1080 C   0  0  0  0  0  0  0  0  0  0  0  0
   -7.6080    5.3190  -18.3790 C   0  0  0  0  0  0  0  0  0  0  0  0
   -7.7210    5.5460  -17.0150 C   0  0  0  0  0  0  0  0  0  0  0  0
   -6.3310    5.7290  -19.0040 C   0  0  0  0  0  0  0  0  0  0  0  0
   -6.3430    5.6410  -20.3550 F   0  0  0  0  0  0  0  0  0  0  0  0
   -6.0410    7.0200  -18.6940 F   0  0  0  0  0  0  0  0  0  0  0  0
   -5.2740    5.0020  -18.5620 F   0  0  0  0  0  0  0  0  0  0  0  0
   -8.8720    6.3460  -12.0280 C   0  0  0  0  0  0  0  0  0  0  0  0
   -8.9500    6.3140  -10.6450 N   0  0  0  0  0  0  0  0  0  0  0  0
   -8.7840    3.4090   -8.9590 H   0  0  0  0  0  0  0  0  0  0  0  0
   -7.5310    4.5660   -8.5400 H   0  0  0  0  0  0  0  0  0  0  0  0
   -9.2290    4.9580   -8.2180 H   0  0  0  0  0  0  0  0  0  0  0  0
   -8.0400    3.1830  -11.4100 H   0  0  0  0  0  0  0  0  0  0  0  0
   -8.1310    3.6460  -14.2350 H   0  0  0  0  0  0  0  0  0  0  0  0
   -9.0160    6.4900  -14.6710 H   0  0  0  0  0  0  0  0  0  0  0  0
  -10.1760    5.1700  -14.6670 H   0  0  0  0  0  0  0  0  0  0  0  0
  -10.8030    4.3700  -16.5750 H   0  0  0  0  0  0  0  0  0  0  0  0
  -10.6280    3.9670  -18.9640 H   0  0  0  0  0  0  0  0  0  0  0  0
   -8.5600    4.5720  -20.1800 H   0  0  0  0  0  0  0  0  0  0  0  0
   -6.8940    5.9950  -16.4670 H   0  0  0  0  0  0  0  0  0  0  0  0
   -9.0990    7.2810  -12.5190 H   0  0  0  0  0  0  0  0  0  0  0  0
  1  2  1  0
  2  3  1  0
  3  4  2  0
  4  5  1  0
  5  6  1  0
  6  7  1  0
  7  8  2  0
  8  9  1  0
  9 10  2  0
 10 11  1  0
 11 12  2  0
 11 13  1  0
 13 14  1  0
 13 15  1  0
 13 16  1  0
  4 17  1  0
 17 18  2  0
 18  2  1  0
 12  7  1  0
  1 19  1  0
  1 20  1  0
  1 21  1  0
  3 22  1  0
  5 23  1  0
  6 24  1  0
  6 25  1  0
  8 26  1  0
  9 27  1  0
 10 28  1  0
 12 29  1  0
 17 30  1  0
A    1
 C1 
A    2
 N1 
A    3
 C2 
A    4
 C3 
A    5
 N2 
A    6
 C4 
A    7
 C5 
A    8
 C6 
A    9
 C7 
A   10
 C8 
A   11
 C9 
A   12
 C10
A   13
 C11
A   14
 F1 
A   15
 F2 
A   16
 F3 
A   17
 C12
A   18
 N3 
A   19
 H1 
A   20
 H2 
A   21
 H3 
A   22
 H4 
A   23
 H5 
A   24
 H6 
A   25
 H7 
A   26
 H8 
A   27
 H9 
A   28
 H10
A   29
 H11
A   30
 H12
M  END
>  <ref_pdb>  (274) 
x0051_0B

>  <ref_mols>  (274) 
x1098_0B,x0386_0B

>  <original SMILES>  (274) 
[H]c1nn(C([H])([H])[H])c([H])c1N([H])C([H])([H])c1c([H])c([H])c([H])c(C(F)(F)F)c1[H]

>  <index>  (274) 
2150

>  <∆∆G>  (274) 
-5.766202

>  <∆G_bound>  (274) 
-5.516243

>  <∆G_unbound>  (274) 
0.249959

>  <comRMSD>  (274) 
0.878876

>  <N_constrained_atoms>  (274) 
20.0

>  <N_unconstrained_atoms>  (274) 
0.0

>  <runtime>  (274) 
61.531442

>  <LE>  (274) 
0.28831

>  <percent_hybrid>  (274) 
14.0

>  <dist>  (274) 
6.0

>  <ecfp4>  (274) 
0.369231

>  <daylight>  (274) 
0.603175

>  <topodist>  (274) 
4.0

>  <mces>  (274) 
18.0

>  <tdn>  (274) 
2.0

>  <tup>  (274) 
0.0

>  <rdn>  (274) 
0.0

>  <rup>  (274) 
0.0

>  <ldn>  (274) 
1.0

>  <lup>  (274) 
1.0

>  <mut>  (274) 
1.0

>  <maj>  (274) 
1.0

>  <min>  (274) 
0.0

>  <hyb>  (274) 
1.0

>  <sub>  (274) 
0.0

>  <query_index>  (274) 
61.0

>  <max_hit_Tanimoto>  (274) 
0.542907

>  <largest_ring>  (274) 
6

>  <N_interactions_kept>  (274) 
2.5

>  <N_interactions_lost>  (274) 
2.5

>  <interaction_uniqueness_metric>  (274) 
0.121217

>  <ad_hoc_penalty>  (274) 
-9.813714

>  <N_rotatable_bonds>  (274) 
4

>  <N_HA>  (274) 
18

>  <cluster>  (274) 
4244

>  <N_interactions>  (274) 
5

>  <Enamine>  (274) 
1

>  <Mcule>  (274) 
0

>  <N_PAINS>  (274) 
0

>  <UFF_Gibbs>  (274) 
44.138491

>  <strain_per_HA>  (274) 
2.452138

>  <intxn_scored>  (274) 
9.0

>  <saltbridge:HIS:51>  (274) 
0

>  <pistack:HIS:51>  (274) 
1

>  <hydroph_interaction:HIS:51>  (274) 
0

>  <hbond:ALA:132>  (274) 
0

>  <hbond:SER:135>  (274) 
0

>  <hydroph_interaction:TYR:150>  (274) 
1

>  <pistack:TYR:161>  (274) 
1

>  <hydroph_interaction:TYR:161>  (274) 
0

>  <hydroph_interaction:ASP:83>  (274) 
0

>  <hbond:TYR:130>  (274) 
0

>  <hydroph_interaction:ALA:132>  (274) 
1

>  <hbond:HIS:51>  (274) 
0

>  <hbond:ASP:129>  (274) 
0

>  <hbond:TYR:150>  (274) 
0

>  <hbond:GLY:151>  (274) 
0

>  <hbond:TYR:161>  (274) 
1

>  <hydroph_interaction:TYR:130>  (274) 
0

>  <hydroph_interaction:PRO:131>  (274) 
0

>  <hydroph_interaction:ASP:129>  (274) 
0

>  <saltbridge:ASP:75>  (274) 
0

>  <saltbridge:ASP:83>  (274) 
0

>  <hbond:ASN:152>  (274) 
0

>  <hydroph_interaction:ASN:152>  (274) 
0

>  <halogenbond:TYR:150>  (274) 
0

>  <hbond:ASP:83>  (274) 
0

>  <hydroph_interaction:VAL:155>  (274) 
0

>  <pication:TYR:161>  (274) 
0

>  <hbond:PRO:131>  (274) 
0

>  <saltbridge:ASP:129>  (274) 
0

>  <hbond:THR:134>  (274) 
0

>  <pication:HIS:51>  (274) 
0

>  <hbond:SER:81>  (274) 
0

>  <hydroph_interaction:THR:134>  (274) 
0

>  <hydroph_interaction:MET:49>  (274) 
0

$$$$
Z4984661183
     RDKit          3D

 23 24  0  0  0  0  0  0  0  0999 V2000
   -9.8930    4.7430  -17.3190 C   0  0  0  0  0  0  0  0  0  0  0  0
   -8.6670    5.2800  -16.7850 N   0  0  0  0  0  0  0  0  0  0  0  0
   -7.4890    5.2790  -17.4460 C   0  0  0  0  0  0  0  0  0  0  0  0
   -6.3780    5.4030  -16.6690 C   0  0  0  0  0  0  0  0  0  0  0  0
   -5.0880    5.4050  -17.2470 C   0  0  0  0  0  0  0  0  0  0  0  0
   -3.8850    5.5170  -16.4210 C   0  0  0  0  0  0  0  0  0  0  0  0
   -2.6090    5.5150  -17.0110 C   0  0  0  0  0  0  0  0  0  0  0  0
   -2.4820    5.4090  -18.4010 C   0  0  0  0  0  0  0  0  0  0  0  0
   -3.6210    5.3030  -19.2020 C   0  0  0  0  0  0  0  0  0  0  0  0
   -4.9110    5.2950  -18.6530 C   0  0  0  0  0  0  0  0  0  0  0  0
   -6.0250    5.1710  -19.4710 C   0  0  0  0  0  0  0  0  0  0  0  0
   -7.3860    5.1520  -18.8070 C   0  0  0  0  0  0  0  0  0  0  0  0
   -8.8330    4.9590  -19.6940 Cl  0  0  0  0  0  0  0  0  0  0  0  0
  -10.4440    5.5160  -17.8490 H   0  0  0  0  0  0  0  0  0  0  0  0
  -10.4880    4.3800  -16.4880 H   0  0  0  0  0  0  0  0  0  0  0  0
   -9.6460    3.9210  -17.9890 H   0  0  0  0  0  0  0  0  0  0  0  0
   -8.5200    5.0260  -15.8180 H   0  0  0  0  0  0  0  0  0  0  0  0
   -6.4730    5.4950  -15.5900 H   0  0  0  0  0  0  0  0  0  0  0  0
   -3.9650    5.6030  -15.3410 H   0  0  0  0  0  0  0  0  0  0  0  0
   -1.7230    5.5970  -16.3870 H   0  0  0  0  0  0  0  0  0  0  0  0
   -1.4960    5.4090  -18.8590 H   0  0  0  0  0  0  0  0  0  0  0  0
   -3.4890    5.2200  -20.2800 H   0  0  0  0  0  0  0  0  0  0  0  0
   -5.9310    5.0780  -20.5520 H   0  0  0  0  0  0  0  0  0  0  0  0
  1  2  1  0
  2  3  1  0
  3  4  2  0
  4  5  1  0
  5  6  2  0
  6  7  1  0
  7  8  2  0
  8  9  1  0
  9 10  2  0
 10 11  1  0
 11 12  2  0
 12 13  1  0
 12  3  1  0
 10  5  1  0
  1 14  1  0
  1 15  1  0
  1 16  1  0
  2 17  1  0
  4 18  1  0
  6 19  1  0
  7 20  1  0
  8 21  1  0
  9 22  1  0
 11 23  1  0
A    1
 C1 
A    2
 N1 
A    3
 C2 
A    4
 C3 
A    5
 C4 
A    6
 C5 
A    7
 C6 
A    8
 C7 
A    9
 C8 
A   10
 C9 
A   11
 C10
A   12
 C11
A   13
CL1 
A   14
 H1 
A   15
 H2 
A   16
 H3 
A   17
 H4 
A   18
 H5 
A   19
 H6 
A   20
 H7 
A   21
 H8 
A   22
 H9 
A   23
 H10
M  END
>  <ref_pdb>  (275) 
x0051_0B

>  <ref_mols>  (275) 
x0425_0B,x0443_0B

>  <original SMILES>  (275) 
[H]c1c([H])c([H])c2c([H])c(N([H])C([H])([H])[H])c(Cl)c([H])c2c1[H]

>  <index>  (275) 
3332

>  <∆∆G>  (275) 
-6.168308

>  <∆G_bound>  (275) 
-6.347994

>  <∆G_unbound>  (275) 
-0.179686

>  <comRMSD>  (275) 
0.84789

>  <N_constrained_atoms>  (275) 
13.0

>  <N_unconstrained_atoms>  (275) 
2.0

>  <runtime>  (275) 
19.00465

>  <LE>  (275) 
0.411221

>  <percent_hybrid>  (275) 
50.0

>  <dist>  (275) 
3.0

>  <ecfp4>  (275) 
0.216216

>  <daylight>  (275) 
0.361702

>  <topodist>  (275) 
0.0

>  <mces>  (275) 
14.0

>  <tdn>  (275) 
0.0

>  <tup>  (275) 
0.0

>  <rdn>  (275) 
0.0

>  <rup>  (275) 
0.0

>  <ldn>  (275) 
0.0

>  <lup>  (275) 
0.0

>  <mut>  (275) 
3.0

>  <maj>  (275) 
3.0

>  <min>  (275) 
0.0

>  <hyb>  (275) 
0.0

>  <sub>  (275) 
0.0

>  <query_index>  (275) 
71.0

>  <max_hit_Tanimoto>  (275) 
0.112941

>  <largest_ring>  (275) 
6

>  <N_interactions_kept>  (275) 
0.5

>  <N_interactions_lost>  (275) 
3.0

>  <interaction_uniqueness_metric>  (275) 
0.061055

>  <ad_hoc_penalty>  (275) 
-0.868571

>  <N_rotatable_bonds>  (275) 
2

>  <N_HA>  (275) 
13

>  <cluster>  (275) 
3130

>  <N_interactions>  (275) 
4

>  <Enamine>  (275) 
1

>  <Mcule>  (275) 
0

>  <N_PAINS>  (275) 
0

>  <UFF_Gibbs>  (275) 
59.415197

>  <strain_per_HA>  (275) 
4.5704

>  <intxn_scored>  (275) 
9.0

>  <saltbridge:HIS:51>  (275) 
0

>  <pistack:HIS:51>  (275) 
0

>  <hydroph_interaction:HIS:51>  (275) 
0

>  <hbond:ALA:132>  (275) 
0

>  <hbond:SER:135>  (275) 
0

>  <hydroph_interaction:TYR:150>  (275) 
0

>  <pistack:TYR:161>  (275) 
2

>  <hydroph_interaction:TYR:161>  (275) 
1

>  <hydroph_interaction:ASP:83>  (275) 
0

>  <hbond:TYR:130>  (275) 
0

>  <hydroph_interaction:ALA:132>  (275) 
0

>  <hbond:HIS:51>  (275) 
0

>  <hbond:ASP:129>  (275) 
0

>  <hbond:TYR:150>  (275) 
0

>  <hbond:GLY:151>  (275) 
0

>  <hbond:TYR:161>  (275) 
0

>  <hydroph_interaction:TYR:130>  (275) 
0

>  <hydroph_interaction:PRO:131>  (275) 
0

>  <hydroph_interaction:ASP:129>  (275) 
0

>  <saltbridge:ASP:75>  (275) 
0

>  <saltbridge:ASP:83>  (275) 
0

>  <hbond:ASN:152>  (275) 
0

>  <hydroph_interaction:ASN:152>  (275) 
0

>  <halogenbond:TYR:150>  (275) 
0

>  <hbond:ASP:83>  (275) 
0

>  <hydroph_interaction:VAL:155>  (275) 
1

>  <pication:TYR:161>  (275) 
0

>  <hbond:PRO:131>  (275) 
0

>  <saltbridge:ASP:129>  (275) 
0

>  <hbond:THR:134>  (275) 
0

>  <pication:HIS:51>  (275) 
0

>  <hbond:SER:81>  (275) 
0

>  <hydroph_interaction:THR:134>  (275) 
0

>  <hydroph_interaction:MET:49>  (275) 
0

$$$$
Z750433262
     RDKit          3D

 53 56  0  0  0  0  0  0  0  0999 V2000
   -9.9920    4.7620  -18.2670 C   0  0  0  0  0  0  0  0  0  0  0  0
   -9.4030    4.8410  -16.9460 N   0  0  0  0  0  0  0  0  0  0  0  0
   -8.1670    5.4200  -16.7810 C   0  0  0  0  0  0  0  0  0  0  0  0
   -7.7670    5.8790  -15.7120 O   0  0  0  0  0  0  0  0  0  0  0  0
   -7.3780    5.4700  -17.9200 C   0  0  0  0  0  0  0  0  0  0  0  0
   -5.9150    5.3250  -18.0150 C   0  0  0  0  0  0  0  0  0  0  0  0
   -5.2380    4.9240  -16.8410 C   0  0  0  0  0  0  0  0  0  0  0  0
   -3.7120    4.7200  -16.7730 C   0  0  0  0  0  0  0  0  0  0  0  0
   -3.1060    5.0150  -18.1350 C   0  0  0  0  0  0  0  0  0  0  0  0
   -3.8140    5.4130  -19.2600 C   0  0  0  0  0  0  0  0  0  0  0  0
   -5.2080    5.5760  -19.2230 C   0  0  0  0  0  0  0  0  0  0  0  0
   -5.9010    5.9910  -20.3820 N   0  0  0  0  0  0  0  0  0  0  0  0
   -5.3320    6.1480  -21.6360 C   0  0  0  0  0  0  0  0  0  0  0  0
   -4.6640    5.3120  -22.2260 O   0  0  0  0  0  0  0  0  0  0  0  0
   -5.5300    7.4330  -22.3220 C   0  0  0  0  0  0  0  0  0  0  0  0
   -6.1420    7.3490  -23.5770 C   0  0  0  0  0  0  0  0  0  0  0  0
   -6.3700    8.4810  -24.3040 C   0  0  0  0  0  0  0  0  0  0  0  0
   -5.9980    9.7270  -23.8130 C   0  0  0  0  0  0  0  0  0  0  0  0
   -6.2720   10.9180  -24.6750 C   0  0  0  0  0  0  0  0  0  0  0  0
   -5.8800   10.5220  -26.4110 S   0  0  0  0  0  0  0  0  0  0  0  0
   -7.2660    9.6600  -26.9580 C   0  0  0  0  0  0  0  0  0  0  0  0
   -7.3450    8.3920  -27.2810 N   0  0  0  0  0  0  0  0  0  0  0  0
   -8.6580    8.2070  -27.6440 C   0  0  0  0  0  0  0  0  0  0  0  0
   -9.3190    7.0440  -28.0720 C   0  0  0  0  0  0  0  0  0  0  0  0
  -10.6830    7.1210  -28.3770 C   0  0  0  0  0  0  0  0  0  0  0  0
  -11.3760    8.3250  -28.2610 C   0  0  0  0  0  0  0  0  0  0  0  0
  -10.7380    9.4980  -27.8410 C   0  0  0  0  0  0  0  0  0  0  0  0
   -9.3750    9.3960  -27.5400 C   0  0  0  0  0  0  0  0  0  0  0  0
   -8.4500   10.3080  -27.1030 N   0  0  0  0  0  0  0  0  0  0  0  0
   -5.3830    9.8310  -22.5500 C   0  0  0  0  0  0  0  0  0  0  0  0
   -5.1470    8.6780  -21.7970 C   0  0  0  0  0  0  0  0  0  0  0  0
  -11.0150    5.1470  -18.2770 H   0  0  0  0  0  0  0  0  0  0  0  0
   -9.3940    5.3280  -18.9830 H   0  0  0  0  0  0  0  0  0  0  0  0
   -9.9950    3.7200  -18.5930 H   0  0  0  0  0  0  0  0  0  0  0  0
   -9.6220    4.0680  -16.3050 H   0  0  0  0  0  0  0  0  0  0  0  0
   -7.6440    6.4020  -18.4250 H   0  0  0  0  0  0  0  0  0  0  0  0
   -7.7910    4.7010  -18.5830 H   0  0  0  0  0  0  0  0  0  0  0  0
   -5.7380    4.7200  -15.8840 H   0  0  0  0  0  0  0  0  0  0  0  0
   -3.1550    4.4110  -15.8960 H   0  0  0  0  0  0  0  0  0  0  0  0
   -2.0290    4.9090  -18.2430 H   0  0  0  0  0  0  0  0  0  0  0  0
   -3.2460    5.5930  -20.1670 H   0  0  0  0  0  0  0  0  0  0  0  0
   -6.9210    5.9350  -20.3590 H   0  0  0  0  0  0  0  0  0  0  0  0
   -6.4370    6.3840  -23.9790 H   0  0  0  0  0  0  0  0  0  0  0  0
   -6.8460    8.3920  -25.2780 H   0  0  0  0  0  0  0  0  0  0  0  0
   -7.2980   11.2740  -24.5580 H   0  0  0  0  0  0  0  0  0  0  0  0
   -5.6270   11.7460  -24.3620 H   0  0  0  0  0  0  0  0  0  0  0  0
   -8.7770    6.1090  -28.1590 H   0  0  0  0  0  0  0  0  0  0  0  0
  -11.2070    6.2250  -28.7070 H   0  0  0  0  0  0  0  0  0  0  0  0
  -12.4400    8.3570  -28.5030 H   0  0  0  0  0  0  0  0  0  0  0  0
  -11.2820   10.4330  -27.7560 H   0  0  0  0  0  0  0  0  0  0  0  0
   -8.6050   11.2880  -26.9140 H   0  0  0  0  0  0  0  0  0  0  0  0
   -5.0880   10.8000  -22.1550 H   0  0  0  0  0  0  0  0  0  0  0  0
   -4.6720    8.7670  -20.8230 H   0  0  0  0  0  0  0  0  0  0  0  0
  1  2  1  0
  2  3  1  0
  3  4  2  0
  3  5  1  0
  5  6  1  0
  6  7  2  0
  7  8  1  0
  8  9  2  0
  9 10  1  0
 10 11  2  0
 11 12  1  0
 12 13  1  0
 13 14  2  0
 13 15  1  0
 15 16  2  0
 16 17  1  0
 17 18  2  0
 18 19  1  0
 19 20  1  0
 20 21  1  0
 21 22  2  0
 22 23  1  0
 23 24  2  0
 24 25  1  0
 25 26  2  0
 26 27  1  0
 27 28  2  0
 28 29  1  0
 18 30  1  0
 30 31  2  0
 11  6  1  0
 31 15  1  0
 29 21  1  0
 28 23  1  0
  1 32  1  0
  1 33  1  0
  1 34  1  0
  2 35  1  0
  5 36  1  0
  5 37  1  0
  7 38  1  0
  8 39  1  0
  9 40  1  0
 10 41  1  0
 12 42  1  0
 16 43  1  0
 17 44  1  0
 19 45  1  0
 19 46  1  0
 24 47  1  0
 25 48  1  0
 26 49  1  0
 27 50  1  0
 29 51  1  0
 30 52  1  0
 31 53  1  0
A    1
 C1 
A    2
 N1 
A    3
 C2 
A    4
 O1 
A    5
 C3 
A    6
 C4 
A    7
 C5 
A    8
 C6 
A    9
 C7 
A   10
 C8 
A   11
 C9 
A   12
 N2 
A   13
 C10
A   14
 O2 
A   15
 C11
A   16
 C12
A   17
 C13
A   18
 C14
A   19
 C15
A   20
 S1 
A   21
 C16
A   22
 N3 
A   23
 C17
A   24
 C18
A   25
 C19
A   26
 C20
A   27
 C21
A   28
 C22
A   29
 N4 
A   30
 C23
A   31
 C24
A   32
 H1 
A   33
 H2 
A   34
 H3 
A   35
 H4 
A   36
 H5 
A   37
 H6 
A   38
 H7 
A   39
 H8 
A   40
 H9 
A   41
 H10
A   42
 H11
A   43
 H12
A   44
 H13
A   45
 H14
A   46
 H15
A   47
 H16
A   48
 H17
A   49
 H18
A   50
 H19
A   51
 H20
A   52
 H21
A   53
 H22
M  END
>  <ref_pdb>  (276) 
x0051_0B

>  <ref_mols>  (276) 
x0465_0B,x0846_1B

>  <original SMILES>  (276) 
[H]c1c([H])c([H])c(C([H])([H])C(=O)N([H])C([H])([H])[H])c(N([H])C(=O)c2c([H])c([H])c(C([H])([H])Sc3nc4c([H])c([H])c([H])c([H])c4n3[H])c([H])c2[H])c1[H]

>  <index>  (276) 
89

>  <∆∆G>  (276) 
-12.244588

>  <∆G_bound>  (276) 
-10.566884

>  <∆G_unbound>  (276) 
1.677704

>  <comRMSD>  (276) 
0.817691

>  <N_constrained_atoms>  (276) 
31.0

>  <N_unconstrained_atoms>  (276) 
3.0

>  <runtime>  (276) 
71.005196

>  <LE>  (276) 
0.360135

>  <percent_hybrid>  (276) 
42.0

>  <dist>  (276) 
9.0

>  <ecfp4>  (276) 
0.267442

>  <daylight>  (276) 
0.403509

>  <topodist>  (276) 
5.0

>  <mces>  (276) 
33.0

>  <tdn>  (276) 
1.0

>  <tup>  (276) 
1.0

>  <rdn>  (276) 
1.0

>  <rup>  (276) 
0.0

>  <ldn>  (276) 
2.0

>  <lup>  (276) 
0.0

>  <mut>  (276) 
3.0

>  <maj>  (276) 
3.0

>  <min>  (276) 
0.0

>  <hyb>  (276) 
1.0

>  <sub>  (276) 
2.0

>  <query_index>  (276) 
127.0

>  <max_hit_Tanimoto>  (276) 
0.286199

>  <largest_ring>  (276) 
0

>  <N_interactions_kept>  (276) 
1.5

>  <N_interactions_lost>  (276) 
2.5

>  <interaction_uniqueness_metric>  (276) 
0.232355

>  <ad_hoc_penalty>  (276) 
-32.65559

>  <N_rotatable_bonds>  (276) 
8

>  <N_HA>  (276) 
31

>  <cluster>  (276) 
6135

>  <N_interactions>  (276) 
8

>  <Enamine>  (276) 
1

>  <Mcule>  (276) 
0

>  <N_PAINS>  (276) 
0

>  <UFF_Gibbs>  (276) 
146.055996

>  <strain_per_HA>  (276) 
4.711484

>  <intxn_scored>  (276) 
9.0

>  <saltbridge:HIS:51>  (276) 
0

>  <pistack:HIS:51>  (276) 
0

>  <hydroph_interaction:HIS:51>  (276) 
0

>  <hbond:ALA:132>  (276) 
0

>  <hbond:SER:135>  (276) 
0

>  <hydroph_interaction:TYR:150>  (276) 
0

>  <pistack:TYR:161>  (276) 
1

>  <hydroph_interaction:TYR:161>  (276) 
2

>  <hydroph_interaction:ASP:83>  (276) 
0

>  <hbond:TYR:130>  (276) 
1

>  <hydroph_interaction:ALA:132>  (276) 
0

>  <hbond:HIS:51>  (276) 
0

>  <hbond:ASP:129>  (276) 
1

>  <hbond:TYR:150>  (276) 
0

>  <hbond:GLY:151>  (276) 
1

>  <hbond:TYR:161>  (276) 
0

>  <hydroph_interaction:TYR:130>  (276) 
1

>  <hydroph_interaction:PRO:131>  (276) 
1

>  <hydroph_interaction:ASP:129>  (276) 
0

>  <saltbridge:ASP:75>  (276) 
0

>  <saltbridge:ASP:83>  (276) 
0

>  <hbond:ASN:152>  (276) 
0

>  <hydroph_interaction:ASN:152>  (276) 
0

>  <halogenbond:TYR:150>  (276) 
0

>  <hbond:ASP:83>  (276) 
0

>  <hydroph_interaction:VAL:155>  (276) 
0

>  <pication:TYR:161>  (276) 
0

>  <hbond:PRO:131>  (276) 
0

>  <saltbridge:ASP:129>  (276) 
0

>  <hbond:THR:134>  (276) 
0

>  <pication:HIS:51>  (276) 
0

>  <hbond:SER:81>  (276) 
0

>  <hydroph_interaction:THR:134>  (276) 
0

>  <hydroph_interaction:MET:49>  (276) 
0

$$$$
Z2928553930
     RDKit          3D

 46 49  0  0  0  0  0  0  0  0999 V2000
   -6.5830    5.2410  -20.2130 Cl  0  0  0  0  0  0  0  0  0  0  0  0
   -7.7770    5.1420  -18.9720 C   0  0  0  0  0  0  0  0  0  0  0  0
   -9.1640    4.6970  -19.3170 C   0  0  0  0  0  0  0  0  0  0  0  0
  -10.0560    4.6770  -18.0900 C   0  0  0  0  0  0  0  0  0  0  0  0
   -9.7760    4.9840  -16.8350 N   0  0  0  0  0  0  0  0  0  0  0  0
   -8.4830    5.3790  -16.6720 C   0  0  0  0  0  0  0  0  0  0  0  0
   -7.4980    5.4640  -17.6620 C   0  0  0  0  0  0  0  0  0  0  0  0
   -6.1510    5.9400  -17.1510 C   0  0  0  0  0  0  0  0  0  0  0  0
   -5.8090    5.3950  -15.9060 C   0  0  0  0  0  0  0  0  0  0  0  0
   -6.8360    5.1900  -14.9690 C   0  0  0  0  0  0  0  0  0  0  0  0
   -8.0570    5.7860  -15.2630 C   0  0  0  0  0  0  0  0  0  0  0  0
   -8.9610    5.4740  -14.3510 N   0  0  0  0  0  0  0  0  0  0  0  0
   -8.7840    6.1360  -13.0450 C   0  0  0  0  0  0  0  0  0  0  0  0
   -8.5460    5.1320  -12.0780 C   0  0  0  0  0  0  0  0  0  0  0  0
   -8.6880    5.4160  -10.5930 C   0  0  0  0  0  0  0  0  0  0  0  0
   -8.8970    4.4080   -9.6870 C   0  0  0  0  0  0  0  0  0  0  0  0
   -9.0270    2.9180   -9.9630 C   0  0  0  0  0  0  0  0  0  0  0  0
   -8.7140    2.2050   -8.8080 C   0  0  0  0  0  0  0  0  0  0  0  0
   -9.3420    2.7500   -7.5010 C   0  0  0  0  0  0  0  0  0  0  0  0
   -9.1660    4.1300   -7.3830 C   0  0  0  0  0  0  0  0  0  0  0  0
   -8.9700    4.9350   -8.4620 N   0  0  0  0  0  0  0  0  0  0  0  0
   -8.8260    6.3000   -8.4570 N   0  0  0  0  0  0  0  0  0  0  0  0
   -8.6550    6.5860   -9.7760 C   0  0  0  0  0  0  0  0  0  0  0  0
   -9.4860    4.4260  -20.3120 H   0  0  0  0  0  0  0  0  0  0  0  0
  -11.0900    4.3730  -18.2190 H   0  0  0  0  0  0  0  0  0  0  0  0
   -5.3440    5.6990  -17.8490 H   0  0  0  0  0  0  0  0  0  0  0  0
   -6.1790    7.0330  -17.0740 H   0  0  0  0  0  0  0  0  0  0  0  0
   -5.1860    6.1660  -15.4360 H   0  0  0  0  0  0  0  0  0  0  0  0
   -5.1210    4.5570  -15.9310 H   0  0  0  0  0  0  0  0  0  0  0  0
   -6.9150    4.1690  -14.6110 H   0  0  0  0  0  0  0  0  0  0  0  0
   -6.4730    5.7110  -14.0720 H   0  0  0  0  0  0  0  0  0  0  0  0
   -7.9060    6.8740  -15.2640 H   0  0  0  0  0  0  0  0  0  0  0  0
   -9.8690    5.7610  -14.7270 H   0  0  0  0  0  0  0  0  0  0  0  0
   -9.6920    6.6830  -12.7650 H   0  0  0  0  0  0  0  0  0  0  0  0
   -7.9480    6.8440  -13.0760 H   0  0  0  0  0  0  0  0  0  0  0  0
   -7.5480    4.7050  -12.2470 H   0  0  0  0  0  0  0  0  0  0  0  0
   -9.2380    4.3110  -12.3180 H   0  0  0  0  0  0  0  0  0  0  0  0
   -8.3850    2.5030  -10.7280 H   0  0  0  0  0  0  0  0  0  0  0  0
  -10.0060    2.5560  -10.2580 H   0  0  0  0  0  0  0  0  0  0  0  0
   -7.6300    2.2150   -8.7020 H   0  0  0  0  0  0  0  0  0  0  0  0
   -8.9930    1.1660   -8.9220 H   0  0  0  0  0  0  0  0  0  0  0  0
   -8.8460    2.2560   -6.6630 H   0  0  0  0  0  0  0  0  0  0  0  0
  -10.4070    2.4940   -7.4480 H   0  0  0  0  0  0  0  0  0  0  0  0
   -8.2770    4.3000   -6.7640 H   0  0  0  0  0  0  0  0  0  0  0  0
  -10.0160    4.5450   -6.8340 H   0  0  0  0  0  0  0  0  0  0  0  0
   -8.5130    7.6150  -10.0820 H   0  0  0  0  0  0  0  0  0  0  0  0
  1  2  1  0
  2  3  2  0
  3  4  1  0
  4  5  2  0
  5  6  1  0
  6  7  2  0
  7  8  1  0
  8  9  1  0
  9 10  1  0
 10 11  1  0
 11 12  1  0
 12 13  1  0
 13 14  1  0
 14 15  1  0
 15 16  2  0
 16 17  1  0
 17 18  1  0
 18 19  1  0
 19 20  1  0
 20 21  1  0
 21 22  1  0
 22 23  2  0
  7  2  1  0
 11  6  1  0
 23 15  1  0
 21 16  1  0
  3 24  1  0
  4 25  1  0
  8 26  1  0
  8 27  1  0
  9 28  1  0
  9 29  1  0
 10 30  1  0
 10 31  1  0
 11 32  1  0
 12 33  1  0
 13 34  1  0
 13 35  1  0
 14 36  1  0
 14 37  1  0
 17 38  1  0
 17 39  1  0
 18 40  1  0
 18 41  1  0
 19 42  1  0
 19 43  1  0
 20 44  1  0
 20 45  1  0
 23 46  1  0
A    1
CL1 
A    2
 C1 
A    3
 C2 
A    4
 C3 
A    5
 N1 
A    6
 C4 
A    7
 C5 
A    8
 C6 
A    9
 C7 
A   10
 C8 
A   11
 C9 
A   12
 N2 
A   13
 C10
A   14
 C11
A   15
 C12
A   16
 C13
A   17
 C14
A   18
 C15
A   19
 C16
A   20
 C17
A   21
 N3 
A   22
 N4 
A   23
 C18
A   24
 H1 
A   25
 H2 
A   26
 H3 
A   27
 H4 
A   28
 H5 
A   29
 H6 
A   30
 H7 
A   31
 H8 
A   32
 H9 
A   33
 H10
A   34
 H11
A   35
 H12
A   36
 H13
A   37
 H14
A   38
 H15
A   39
 H16
A   40
 H17
A   41
 H18
A   42
 H19
A   43
 H20
A   44
 H21
A   45
 H22
A   46
 H23
M  END
>  <ref_pdb>  (277) 
x0051_0B

>  <ref_mols>  (277) 
x0969_1B,x0455_0B

>  <original SMILES>  (277) 
[H]c1nc2c(c(Cl)c1[H])C([H])([H])C([H])([H])C([H])([H])C2([H])N([H])C([H])([H])C([H])([H])c1c([H])nn2c1C([H])([H])C([H])([H])C([H])([H])C2([H])[H]

>  <index>  (277) 
46

>  <∆∆G>  (277) 
-6.427274

>  <∆G_bound>  (277) 
-5.439526

>  <∆G_unbound>  (277) 
0.987748

>  <comRMSD>  (277) 
0.436915

>  <N_constrained_atoms>  (277) 
20.0

>  <N_unconstrained_atoms>  (277) 
3.0

>  <runtime>  (277) 
57.592115

>  <LE>  (277) 
0.279447

>  <percent_hybrid>  (277) 
50.0

>  <dist>  (277) 
5.0

>  <ecfp4>  (277) 
0.317073

>  <daylight>  (277) 
0.339726

>  <topodist>  (277) 
1.0

>  <mces>  (277) 
25.0

>  <tdn>  (277) 
0.0

>  <tup>  (277) 
1.0

>  <rdn>  (277) 
0.0

>  <rup>  (277) 
0.0

>  <ldn>  (277) 
0.0

>  <lup>  (277) 
0.0

>  <mut>  (277) 
4.0

>  <maj>  (277) 
4.0

>  <min>  (277) 
0.0

>  <hyb>  (277) 
0.0

>  <sub>  (277) 
1.0

>  <query_index>  (277) 
204.0

>  <max_hit_Tanimoto>  (277) 
0.311828

>  <largest_ring>  (277) 
0

>  <N_interactions_kept>  (277) 
1.5

>  <N_interactions_lost>  (277) 
1.0

>  <interaction_uniqueness_metric>  (277) 
0.210027

>  <ad_hoc_penalty>  (277) 
-32.930735

>  <N_rotatable_bonds>  (277) 
4

>  <N_HA>  (277) 
23

>  <cluster>  (277) 
6174

>  <N_interactions>  (277) 
7

>  <Enamine>  (277) 
1

>  <Mcule>  (277) 
0

>  <N_PAINS>  (277) 
0

>  <UFF_Gibbs>  (277) 
146.359562

>  <strain_per_HA>  (277) 
6.363459

>  <intxn_scored>  (277) 
9.0

>  <saltbridge:HIS:51>  (277) 
0

>  <pistack:HIS:51>  (277) 
1

>  <hydroph_interaction:HIS:51>  (277) 
0

>  <hbond:ALA:132>  (277) 
0

>  <hbond:SER:135>  (277) 
0

>  <hydroph_interaction:TYR:150>  (277) 
1

>  <pistack:TYR:161>  (277) 
1

>  <hydroph_interaction:TYR:161>  (277) 
1

>  <hydroph_interaction:ASP:83>  (277) 
1

>  <hbond:TYR:130>  (277) 
0

>  <hydroph_interaction:ALA:132>  (277) 
1

>  <hbond:HIS:51>  (277) 
0

>  <hbond:ASP:129>  (277) 
0

>  <hbond:TYR:150>  (277) 
0

>  <hbond:GLY:151>  (277) 
1

>  <hbond:TYR:161>  (277) 
0

>  <hydroph_interaction:TYR:130>  (277) 
0

>  <hydroph_interaction:PRO:131>  (277) 
0

>  <hydroph_interaction:ASP:129>  (277) 
0

>  <saltbridge:ASP:75>  (277) 
0

>  <saltbridge:ASP:83>  (277) 
0

>  <hbond:ASN:152>  (277) 
0

>  <hydroph_interaction:ASN:152>  (277) 
0

>  <halogenbond:TYR:150>  (277) 
0

>  <hbond:ASP:83>  (277) 
0

>  <hydroph_interaction:VAL:155>  (277) 
0

>  <pication:TYR:161>  (277) 
0

>  <hbond:PRO:131>  (277) 
0

>  <saltbridge:ASP:129>  (277) 
0

>  <hbond:THR:134>  (277) 
0

>  <pication:HIS:51>  (277) 
0

>  <hbond:SER:81>  (277) 
0

>  <hydroph_interaction:THR:134>  (277) 
0

>  <hydroph_interaction:MET:49>  (277) 
0

$$$$
PV-003397358342
     RDKit          3D

 34 36  0  0  0  0  0  0  0  0999 V2000
   -7.4690    5.3160   -9.0890 C   0  0  0  0  0  0  0  0  0  0  0  0
   -8.2310    5.0900  -10.2480 N   0  0  0  0  0  0  0  0  0  0  0  0
   -8.4440    5.9290  -11.2760 C   0  0  0  0  0  0  0  0  0  0  0  0
   -9.2920    5.1670  -12.2080 C   0  0  0  0  0  0  0  0  0  0  0  0
   -9.7890    5.6160  -13.4830 C   0  0  0  0  0  0  0  0  0  0  0  0
   -8.9880    4.9020  -14.4440 N   0  0  0  0  0  0  0  0  0  0  0  0
   -8.2000    5.5820  -15.3350 C   0  0  0  0  0  0  0  0  0  0  0  0
   -7.3520    6.4020  -15.0210 O   0  0  0  0  0  0  0  0  0  0  0  0
   -8.4590    5.2950  -16.6920 C   0  0  0  0  0  0  0  0  0  0  0  0
   -9.7580    4.8990  -16.9850 C   0  0  0  0  0  0  0  0  0  0  0  0
  -10.1730    4.6010  -18.2650 C   0  0  0  0  0  0  0  0  0  0  0  0
   -9.1650    4.7050  -19.3600 C   0  0  0  0  0  0  0  0  0  0  0  0
   -7.8810    5.0970  -19.0090 C   0  0  0  0  0  0  0  0  0  0  0  0
   -7.4660    5.4060  -17.7110 C   0  0  0  0  0  0  0  0  0  0  0  0
   -6.1350    5.7630  -17.7240 C   0  0  0  0  0  0  0  0  0  0  0  0
   -5.3670    6.1490  -16.5810 C   0  0  0  0  0  0  0  0  0  0  0  0
   -4.5950    6.5100  -15.5460 N   0  0  0  0  0  0  0  0  0  0  0  0
   -5.6990    5.6770  -19.0290 C   0  0  0  0  0  0  0  0  0  0  0  0
   -6.7630    5.2720  -19.8020 N   0  0  0  0  0  0  0  0  0  0  0  0
   -9.4690    3.9340  -11.5460 C   0  0  0  0  0  0  0  0  0  0  0  0
   -8.8260    3.8980  -10.3710 N   0  0  0  0  0  0  0  0  0  0  0  0
   -6.4690    4.9370   -9.2680 H   0  0  0  0  0  0  0  0  0  0  0  0
   -8.0020    4.8770   -8.2490 H   0  0  0  0  0  0  0  0  0  0  0  0
   -7.3940    6.3930   -8.9120 H   0  0  0  0  0  0  0  0  0  0  0  0
   -8.0730    6.9440  -11.4150 H   0  0  0  0  0  0  0  0  0  0  0  0
   -9.7030    6.6790  -13.7310 H   0  0  0  0  0  0  0  0  0  0  0  0
  -10.8430    5.3390  -13.5960 H   0  0  0  0  0  0  0  0  0  0  0  0
   -9.3180    3.9750  -14.7000 H   0  0  0  0  0  0  0  0  0  0  0  0
  -10.4490    4.8320  -16.1590 H   0  0  0  0  0  0  0  0  0  0  0  0
  -11.1920    4.3000  -18.4690 H   0  0  0  0  0  0  0  0  0  0  0  0
   -9.4410    4.4790  -20.3900 H   0  0  0  0  0  0  0  0  0  0  0  0
   -4.7320    5.8680  -19.4750 H   0  0  0  0  0  0  0  0  0  0  0  0
   -6.7370    5.1230  -20.8020 H   0  0  0  0  0  0  0  0  0  0  0  0
  -10.0330    3.0690  -11.8780 H   0  0  0  0  0  0  0  0  0  0  0  0
  1  2  1  0
  2  3  1  0
  3  4  2  0
  4  5  1  0
  5  6  1  0
  6  7  1  0
  7  8  2  0
  7  9  1  0
  9 10  2  0
 10 11  1  0
 11 12  2  0
 12 13  1  0
 13 14  2  0
 14 15  1  0
 15 16  1  0
 16 17  3  0
 15 18  2  0
 18 19  1  0
  4 20  1  0
 20 21  2  0
 21  2  1  0
 14  9  1  0
 19 13  1  0
  1 22  1  0
  1 23  1  0
  1 24  1  0
  3 25  1  0
  5 26  1  0
  5 27  1  0
  6 28  1  0
 10 29  1  0
 11 30  1  0
 12 31  1  0
 18 32  1  0
 19 33  1  0
 20 34  1  0
A    1
 C1 
A    2
 N1 
A    3
 C2 
A    4
 C3 
A    5
 C4 
A    6
 N2 
A    7
 C5 
A    8
 O1 
A    9
 C6 
A   10
 C7 
A   11
 C8 
A   12
 C9 
A   13
 C10
A   14
 C11
A   15
 C12
A   16
 C13
A   17
 N3 
A   18
 C14
A   19
 N4 
A   20
 C15
A   21
 N5 
A   22
 H1 
A   23
 H2 
A   24
 H3 
A   25
 H4 
A   26
 H5 
A   27
 H6 
A   28
 H7 
A   29
 H8 
A   30
 H9 
A   31
 H10
A   32
 H11
A   33
 H12
A   34
 H13
M  END
>  <ref_pdb>  (278) 
x0051_0B

>  <ref_mols>  (278) 
x1098_0B,x0490_0B

>  <original SMILES>  (278) 
[H]c1nn(C([H])([H])[H])c([H])c1C([H])([H])N([H])C(=O)c1c([H])c([H])c([H])c2c1c(C#N)c([H])n2[H]

>  <index>  (278) 
2201

>  <∆∆G>  (278) 
-7.911077

>  <∆G_bound>  (278) 
-6.097993

>  <∆G_unbound>  (278) 
1.813084

>  <comRMSD>  (278) 
0.968803

>  <N_constrained_atoms>  (278) 
19.0

>  <N_unconstrained_atoms>  (278) 
2.0

>  <runtime>  (278) 
64.05294

>  <LE>  (278) 
0.376718

>  <percent_hybrid>  (278) 
10.0

>  <dist>  (278) 
5.0

>  <ecfp4>  (278) 
0.373333

>  <daylight>  (278) 
0.262009

>  <topodist>  (278) 
1.0

>  <mces>  (278) 
22.0

>  <tdn>  (278) 
0.0

>  <tup>  (278) 
0.0

>  <rdn>  (278) 
0.0

>  <rup>  (278) 
0.0

>  <ldn>  (278) 
0.0

>  <lup>  (278) 
1.0

>  <mut>  (278) 
2.0

>  <maj>  (278) 
2.0

>  <min>  (278) 
0.0

>  <hyb>  (278) 
2.0

>  <sub>  (278) 
0.0

>  <query_index>  (278) 
69.0

>  <max_hit_Tanimoto>  (278) 
0.301793

>  <largest_ring>  (278) 
6

>  <N_interactions_kept>  (278) 
3.0

>  <N_interactions_lost>  (278) 
3.0

>  <interaction_uniqueness_metric>  (278) 
0.093417

>  <ad_hoc_penalty>  (278) 
-7.195618

>  <N_rotatable_bonds>  (278) 
4

>  <N_HA>  (278) 
21

>  <cluster>  (278) 
4197

>  <N_interactions>  (278) 
5

>  <Enamine>  (278) 
1

>  <Mcule>  (278) 
0

>  <N_PAINS>  (278) 
0

>  <UFF_Gibbs>  (278) 
94.662842

>  <strain_per_HA>  (278) 
4.507754

>  <intxn_scored>  (278) 
9.0

>  <saltbridge:HIS:51>  (278) 
0

>  <pistack:HIS:51>  (278) 
0

>  <hydroph_interaction:HIS:51>  (278) 
0

>  <hbond:ALA:132>  (278) 
0

>  <hbond:SER:135>  (278) 
0

>  <hydroph_interaction:TYR:150>  (278) 
1

>  <pistack:TYR:161>  (278) 
2

>  <hydroph_interaction:TYR:161>  (278) 
0

>  <hydroph_interaction:ASP:83>  (278) 
0

>  <hbond:TYR:130>  (278) 
0

>  <hydroph_interaction:ALA:132>  (278) 
1

>  <hbond:HIS:51>  (278) 
0

>  <hbond:ASP:129>  (278) 
0

>  <hbond:TYR:150>  (278) 
0

>  <hbond:GLY:151>  (278) 
1

>  <hbond:TYR:161>  (278) 
0

>  <hydroph_interaction:TYR:130>  (278) 
0

>  <hydroph_interaction:PRO:131>  (278) 
0

>  <hydroph_interaction:ASP:129>  (278) 
0

>  <saltbridge:ASP:75>  (278) 
0

>  <saltbridge:ASP:83>  (278) 
0

>  <hbond:ASN:152>  (278) 
0

>  <hydroph_interaction:ASN:152>  (278) 
0

>  <halogenbond:TYR:150>  (278) 
0

>  <hbond:ASP:83>  (278) 
0

>  <hydroph_interaction:VAL:155>  (278) 
0

>  <pication:TYR:161>  (278) 
0

>  <hbond:PRO:131>  (278) 
0

>  <saltbridge:ASP:129>  (278) 
0

>  <hbond:THR:134>  (278) 
0

>  <pication:HIS:51>  (278) 
0

>  <hbond:SER:81>  (278) 
0

>  <hydroph_interaction:THR:134>  (278) 
0

>  <hydroph_interaction:MET:49>  (278) 
0

$$$$
Z2761257934
     RDKit          3D

 43 46  0  0  0  0  0  0  0  0999 V2000
  -10.0070    5.3500  -14.5120 O   0  0  0  0  0  0  0  0  0  0  0  0
   -8.8270    5.3350  -14.2060 C   0  0  0  0  0  0  0  0  0  0  0  0
   -8.3330    5.1140  -12.9390 N   0  0  0  0  0  0  0  0  0  0  0  0
   -8.6570    5.9710  -11.9120 C   0  0  0  0  0  0  0  0  0  0  0  0
   -8.7450    5.6930  -10.4440 C   0  0  0  0  0  0  0  0  0  0  0  0
   -8.8770    4.4070   -9.6670 C   0  0  0  0  0  0  0  0  0  0  0  0
   -8.9540    3.0030  -10.1610 C   0  0  0  0  0  0  0  0  0  0  0  0
   -8.7460    2.0960   -9.0290 N   0  0  0  0  0  0  0  0  0  0  0  0
   -9.5430    2.5160   -7.8560 C   0  0  0  0  0  0  0  0  0  0  0  0
   -9.0590    3.7440   -7.2520 C   0  0  0  0  0  0  0  0  0  0  0  0
   -8.9230    4.7100   -8.3190 N   0  0  0  0  0  0  0  0  0  0  0  0
   -8.8280    6.0440   -8.1210 N   0  0  0  0  0  0  0  0  0  0  0  0
   -8.7250    6.6180   -9.3590 C   0  0  0  0  0  0  0  0  0  0  0  0
   -7.8040    5.6000  -15.1930 C   0  0  0  0  0  0  0  0  0  0  0  0
   -6.4660    5.2480  -15.1270 C   0  0  0  0  0  0  0  0  0  0  0  0
   -5.5610    5.6800  -16.1100 C   0  0  0  0  0  0  0  0  0  0  0  0
   -6.0560    5.6660  -17.4620 O   0  0  0  0  0  0  0  0  0  0  0  0
   -7.3670    5.3230  -17.6340 C   0  0  0  0  0  0  0  0  0  0  0  0
   -7.7780    5.0170  -19.0450 C   0  0  0  0  0  0  0  0  0  0  0  0
   -9.2240    4.6300  -19.3320 C   0  0  0  0  0  0  0  0  0  0  0  0
  -10.1590    4.5530  -18.2900 C   0  0  0  0  0  0  0  0  0  0  0  0
   -9.7330    4.8560  -16.8610 C   0  0  0  0  0  0  0  0  0  0  0  0
   -8.2720    5.2610  -16.5790 C   0  0  0  0  0  0  0  0  0  0  0  0
   -7.5140    4.5260  -12.8500 H   0  0  0  0  0  0  0  0  0  0  0  0
   -9.6490    6.3260  -12.2090 H   0  0  0  0  0  0  0  0  0  0  0  0
   -8.0050    6.8430  -12.0200 H   0  0  0  0  0  0  0  0  0  0  0  0
   -9.8640    2.7070  -10.6780 H   0  0  0  0  0  0  0  0  0  0  0  0
   -8.1400    2.8310  -10.8720 H   0  0  0  0  0  0  0  0  0  0  0  0
   -7.7530    2.0990   -8.7910 H   0  0  0  0  0  0  0  0  0  0  0  0
   -9.5480    1.7110   -7.1170 H   0  0  0  0  0  0  0  0  0  0  0  0
  -10.5840    2.6510   -8.1620 H   0  0  0  0  0  0  0  0  0  0  0  0
   -9.6420    4.2190   -6.4690 H   0  0  0  0  0  0  0  0  0  0  0  0
   -8.0460    3.5810   -6.8660 H   0  0  0  0  0  0  0  0  0  0  0  0
   -8.6400    7.7080   -9.4200 H   0  0  0  0  0  0  0  0  0  0  0  0
   -7.7770    6.6940  -15.2280 H   0  0  0  0  0  0  0  0  0  0  0  0
   -6.0840    5.5820  -14.1550 H   0  0  0  0  0  0  0  0  0  0  0  0
   -6.4170    4.1620  -15.0830 H   0  0  0  0  0  0  0  0  0  0  0  0
   -4.6400    5.0830  -16.0750 H   0  0  0  0  0  0  0  0  0  0  0  0
   -5.2700    6.7140  -15.8950 H   0  0  0  0  0  0  0  0  0  0  0  0
   -7.0530    5.0730  -19.8530 H   0  0  0  0  0  0  0  0  0  0  0  0
   -9.4300    4.4330  -20.3890 H   0  0  0  0  0  0  0  0  0  0  0  0
  -11.2140    4.2850  -18.4030 H   0  0  0  0  0  0  0  0  0  0  0  0
  -10.4540    4.7890  -16.0640 H   0  0  0  0  0  0  0  0  0  0  0  0
  1  2  2  0
  2  3  1  0
  3  4  1  0
  4  5  1  0
  5  6  2  0
  6  7  1  0
  7  8  1  0
  8  9  1  0
  9 10  1  0
 10 11  1  0
 11 12  1  0
 12 13  2  0
  2 14  1  0
 14 15  1  0
 15 16  1  0
 16 17  1  0
 17 18  1  0
 18 19  2  0
 19 20  1  0
 20 21  2  0
 21 22  1  0
 22 23  2  0
 13  5  1  0
 11  6  1  0
 23 14  1  0
 23 18  1  0
  3 24  1  0
  4 25  1  0
  4 26  1  0
  7 27  1  0
  7 28  1  0
  8 29  1  0
  9 30  1  0
  9 31  1  0
 10 32  1  0
 10 33  1  0
 13 34  1  0
 14 35  1  0
 15 36  1  0
 15 37  1  0
 16 38  1  0
 16 39  1  0
 19 40  1  0
 20 41  1  0
 21 42  1  0
 22 43  1  0
A    1
 O1 
A    2
 C1 
A    3
 N1 
A    4
 C2 
A    5
 C3 
A    6
 C4 
A    7
 C5 
A    8
 N2 
A    9
 C6 
A   10
 C7 
A   11
 N3 
A   12
 N4 
A   13
 C8 
A   14
 C9 
A   15
 C10
A   16
 C11
A   17
 O2 
A   18
 C12
A   19
 C13
A   20
 C14
A   21
 C15
A   22
 C16
A   23
 C17
A   24
 H1 
A   25
 H2 
A   26
 H3 
A   27
 H4 
A   28
 H5 
A   29
 H6 
A   30
 H7 
A   31
 H8 
A   32
 H9 
A   33
 H10
A   34
 H11
A   35
 H12
A   36
 H13
A   37
 H14
A   38
 H15
A   39
 H16
A   40
 H17
A   41
 H18
A   42
 H19
A   43
 H20
M  END
>  <ref_pdb>  (279) 
x0051_0B

>  <ref_mols>  (279) 
x0969_1B,x0455_0B

>  <original SMILES>  (279) 
[H]c1nn2c(c1C([H])([H])N([H])C(=O)C1([H])c3c([H])c([H])c([H])c([H])c3OC([H])([H])C1([H])[H])C([H])([H])N([H])C([H])([H])C2([H])[H]

>  <index>  (279) 
859

>  <∆∆G>  (279) 
-6.241637

>  <∆G_bound>  (279) 
-5.230667

>  <∆G_unbound>  (279) 
1.010971

>  <comRMSD>  (279) 
0.332706

>  <N_constrained_atoms>  (279) 
20.0

>  <N_unconstrained_atoms>  (279) 
3.0

>  <runtime>  (279) 
62.953388

>  <LE>  (279) 
0.271376

>  <percent_hybrid>  (279) 
50.0

>  <dist>  (279) 
5.0

>  <ecfp4>  (279) 
0.407895

>  <daylight>  (279) 
0.44

>  <topodist>  (279) 
1.0

>  <mces>  (279) 
25.0

>  <tdn>  (279) 
0.0

>  <tup>  (279) 
1.0

>  <rdn>  (279) 
0.0

>  <rup>  (279) 
0.0

>  <ldn>  (279) 
0.0

>  <lup>  (279) 
0.0

>  <mut>  (279) 
3.0

>  <maj>  (279) 
3.0

>  <min>  (279) 
0.0

>  <hyb>  (279) 
1.0

>  <sub>  (279) 
0.0

>  <query_index>  (279) 
204.0

>  <max_hit_Tanimoto>  (279) 
0.458171

>  <largest_ring>  (279) 
6

>  <N_interactions_kept>  (279) 
0.0

>  <N_interactions_lost>  (279) 
2.5

>  <interaction_uniqueness_metric>  (279) 
0.249218

>  <ad_hoc_penalty>  (279) 
-12.582413

>  <N_rotatable_bonds>  (279) 
3

>  <N_HA>  (279) 
23

>  <cluster>  (279) 
5432

>  <N_interactions>  (279) 
6

>  <Enamine>  (279) 
1

>  <Mcule>  (279) 
0

>  <N_PAINS>  (279) 
0

>  <UFF_Gibbs>  (279) 
231.955728

>  <strain_per_HA>  (279) 
10.085032

>  <intxn_scored>  (279) 
9.0

>  <saltbridge:HIS:51>  (279) 
0

>  <pistack:HIS:51>  (279) 
0

>  <hydroph_interaction:HIS:51>  (279) 
1

>  <hbond:ALA:132>  (279) 
0

>  <hbond:SER:135>  (279) 
1

>  <hydroph_interaction:TYR:150>  (279) 
1

>  <pistack:TYR:161>  (279) 
1

>  <hydroph_interaction:TYR:161>  (279) 
1

>  <hydroph_interaction:ASP:83>  (279) 
0

>  <hbond:TYR:130>  (279) 
0

>  <hydroph_interaction:ALA:132>  (279) 
0

>  <hbond:HIS:51>  (279) 
0

>  <hbond:ASP:129>  (279) 
0

>  <hbond:TYR:150>  (279) 
0

>  <hbond:GLY:151>  (279) 
0

>  <hbond:TYR:161>  (279) 
0

>  <hydroph_interaction:TYR:130>  (279) 
0

>  <hydroph_interaction:PRO:131>  (279) 
0

>  <hydroph_interaction:ASP:129>  (279) 
0

>  <saltbridge:ASP:75>  (279) 
0

>  <saltbridge:ASP:83>  (279) 
0

>  <hbond:ASN:152>  (279) 
0

>  <hydroph_interaction:ASN:152>  (279) 
0

>  <halogenbond:TYR:150>  (279) 
0

>  <hbond:ASP:83>  (279) 
1

>  <hydroph_interaction:VAL:155>  (279) 
0

>  <pication:TYR:161>  (279) 
0

>  <hbond:PRO:131>  (279) 
0

>  <saltbridge:ASP:129>  (279) 
0

>  <hbond:THR:134>  (279) 
0

>  <pication:HIS:51>  (279) 
0

>  <hbond:SER:81>  (279) 
0

>  <hydroph_interaction:THR:134>  (279) 
0

>  <hydroph_interaction:MET:49>  (279) 
0

$$$$
PV-002715857403
     RDKit          3D

 25 26  0  0  0  0  0  0  0  0999 V2000
   -9.9360    7.2700  -13.7590 C   0  0  0  0  0  0  0  0  0  0  0  0
   -8.8190    6.7340  -13.1650 N   0  0  0  0  0  0  0  0  0  0  0  0
   -8.3040    5.4280  -13.5600 C   0  0  0  0  0  0  0  0  0  0  0  0
   -8.4130    4.4250  -12.8650 O   0  0  0  0  0  0  0  0  0  0  0  0
   -7.6500    5.4380  -14.7870 C   0  0  0  0  0  0  0  0  0  0  0  0
   -6.3150    5.6590  -14.7930 N   0  0  0  0  0  0  0  0  0  0  0  0
   -5.9940    5.6110  -16.0850 N   0  0  0  0  0  0  0  0  0  0  0  0
   -7.0240    5.3740  -16.9590 C   0  0  0  0  0  0  0  0  0  0  0  0
   -8.1150    5.2600  -16.1130 C   0  0  0  0  0  0  0  0  0  0  0  0
   -9.4210    5.0050  -16.7050 C   0  0  0  0  0  0  0  0  0  0  0  0
   -9.5250    4.8900  -18.1810 C   0  0  0  0  0  0  0  0  0  0  0  0
  -11.1630    4.6200  -19.0130 Br  0  0  0  0  0  0  0  0  0  0  0  0
   -8.2470    5.0280  -18.9980 C   0  0  0  0  0  0  0  0  0  0  0  0
   -7.0240    5.2680  -18.3660 C   0  0  0  0  0  0  0  0  0  0  0  0
   -5.8290    5.4130  -19.0250 C   0  0  0  0  0  0  0  0  0  0  0  0
  -10.6740    7.5450  -13.0040 H   0  0  0  0  0  0  0  0  0  0  0  0
   -9.7060    8.1480  -14.3590 H   0  0  0  0  0  0  0  0  0  0  0  0
  -10.3840    6.5120  -14.4120 H   0  0  0  0  0  0  0  0  0  0  0  0
   -8.1680    7.3200  -12.6510 H   0  0  0  0  0  0  0  0  0  0  0  0
   -5.0510    5.7400  -16.4270 H   0  0  0  0  0  0  0  0  0  0  0  0
  -10.2920    4.9110  -16.0730 H   0  0  0  0  0  0  0  0  0  0  0  0
   -8.2850    4.9460  -20.0840 H   0  0  0  0  0  0  0  0  0  0  0  0
   -5.9400    4.8340  -19.9490 H   0  0  0  0  0  0  0  0  0  0  0  0
   -4.9590    4.9910  -18.5250 H   0  0  0  0  0  0  0  0  0  0  0  0
   -5.4670    6.3720  -19.3680 H   0  0  0  0  0  0  0  0  0  0  0  0
  1  2  1  0
  2  3  1  0
  3  4  2  0
  3  5  1  0
  5  6  2  0
  6  7  1  0
  7  8  1  0
  8  9  2  0
  9 10  1  0
 10 11  2  0
 11 12  1  0
 11 13  1  0
 13 14  2  0
 14 15  1  0
  9  5  1  0
 14  8  1  0
  1 16  1  0
  1 17  1  0
  1 18  1  0
  2 19  1  0
  7 20  1  0
 10 21  1  0
 13 22  1  0
 15 23  1  0
 15 24  1  0
 15 25  1  0
A    1
 C1 
A    2
 N1 
A    3
 C2 
A    4
 O1 
A    5
 C3 
A    6
 N2 
A    7
 N3 
A    8
 C4 
A    9
 C5 
A   10
 C6 
A   11
 C7 
A   12
BR1 
A   13
 C8 
A   14
 C9 
A   15
 C10
A   16
 H1 
A   17
 H2 
A   18
 H3 
A   19
 H4 
A   20
 H5 
A   21
 H6 
A   22
 H7 
A   23
 H8 
A   24
 H9 
A   25
 H10
M  END
>  <ref_pdb>  (280) 
x0051_0B

>  <ref_mols>  (280) 
x0589_0B,x0951_0B

>  <original SMILES>  (280) 
[H]c1c(Br)c([H])c2c(C(=O)N([H])C([H])([H])[H])nn([H])c2c1C([H])([H])[H]

>  <index>  (280) 
2677

>  <∆∆G>  (280) 
-6.47109

>  <∆G_bound>  (280) 
-6.290172

>  <∆G_unbound>  (280) 
0.180919

>  <comRMSD>  (280) 
0.389114

>  <N_constrained_atoms>  (280) 
14.0

>  <N_unconstrained_atoms>  (280) 
1.0

>  <runtime>  (280) 
45.570493

>  <LE>  (280) 
0.431406

>  <percent_hybrid>  (280) 
25.0

>  <dist>  (280) 
4.0

>  <ecfp4>  (280) 
0.090909

>  <daylight>  (280) 
0.298643

>  <topodist>  (280) 
1.0

>  <mces>  (280) 
15.0

>  <tdn>  (280) 
0.0

>  <tup>  (280) 
1.0

>  <rdn>  (280) 
0.0

>  <rup>  (280) 
0.0

>  <ldn>  (280) 
0.0

>  <lup>  (280) 
0.0

>  <mut>  (280) 
1.0

>  <maj>  (280) 
1.0

>  <min>  (280) 
0.0

>  <hyb>  (280) 
2.0

>  <sub>  (280) 
0.0

>  <query_index>  (280) 
358.0

>  <max_hit_Tanimoto>  (280) 
0.18593

>  <largest_ring>  (280) 
6

>  <N_interactions_kept>  (280) 
0.5

>  <N_interactions_lost>  (280) 
2.0

>  <interaction_uniqueness_metric>  (280) 
0.027887

>  <ad_hoc_penalty>  (280) 
-4.331585

>  <N_rotatable_bonds>  (280) 
3

>  <N_HA>  (280) 
15

>  <cluster>  (280) 
3750

>  <N_interactions>  (280) 
3

>  <Enamine>  (280) 
1

>  <Mcule>  (280) 
0

>  <N_PAINS>  (280) 
0

>  <UFF_Gibbs>  (280) 
61.88043

>  <strain_per_HA>  (280) 
4.125362

>  <intxn_scored>  (280) 
9.0

>  <saltbridge:HIS:51>  (280) 
0

>  <pistack:HIS:51>  (280) 
0

>  <hydroph_interaction:HIS:51>  (280) 
0

>  <hbond:ALA:132>  (280) 
0

>  <hbond:SER:135>  (280) 
0

>  <hydroph_interaction:TYR:150>  (280) 
0

>  <pistack:TYR:161>  (280) 
2

>  <hydroph_interaction:TYR:161>  (280) 
1

>  <hydroph_interaction:ASP:83>  (280) 
0

>  <hbond:TYR:130>  (280) 
0

>  <hydroph_interaction:ALA:132>  (280) 
0

>  <hbond:HIS:51>  (280) 
0

>  <hbond:ASP:129>  (280) 
0

>  <hbond:TYR:150>  (280) 
0

>  <hbond:GLY:151>  (280) 
0

>  <hbond:TYR:161>  (280) 
0

>  <hydroph_interaction:TYR:130>  (280) 
0

>  <hydroph_interaction:PRO:131>  (280) 
0

>  <hydroph_interaction:ASP:129>  (280) 
0

>  <saltbridge:ASP:75>  (280) 
0

>  <saltbridge:ASP:83>  (280) 
0

>  <hbond:ASN:152>  (280) 
0

>  <hydroph_interaction:ASN:152>  (280) 
0

>  <halogenbond:TYR:150>  (280) 
0

>  <hbond:ASP:83>  (280) 
0

>  <hydroph_interaction:VAL:155>  (280) 
0

>  <pication:TYR:161>  (280) 
0

>  <hbond:PRO:131>  (280) 
0

>  <saltbridge:ASP:129>  (280) 
0

>  <hbond:THR:134>  (280) 
0

>  <pication:HIS:51>  (280) 
0

>  <hbond:SER:81>  (280) 
0

>  <hydroph_interaction:THR:134>  (280) 
0

>  <hydroph_interaction:MET:49>  (280) 
0

$$$$
CSSB00037725915
     RDKit          3D

 34 36  0  0  0  0  0  0  0  0999 V2000
  -10.8330    8.5420  -11.8650 O   0  0  0  0  0  0  0  0  0  0  0  0
  -10.5200    8.4930  -13.0460 C   0  0  0  0  0  0  0  0  0  0  0  0
  -10.0750    7.3430  -13.6650 N   0  0  0  0  0  0  0  0  0  0  0  0
   -8.8460    6.6170  -13.2420 C   0  0  0  0  0  0  0  0  0  0  0  0
   -8.8390    5.3980  -13.8200 C   0  0  0  0  0  0  0  0  0  0  0  0
   -7.9170    5.5060  -15.0440 C   0  0  0  0  0  0  0  0  0  0  0  0
   -6.6460    5.8650  -15.0470 N   0  0  0  0  0  0  0  0  0  0  0  0
   -6.1900    5.8370  -16.3420 N   0  0  0  0  0  0  0  0  0  0  0  0
   -7.1810    5.4650  -17.1190 C   0  0  0  0  0  0  0  0  0  0  0  0
   -7.2840    5.2790  -18.5000 C   0  0  0  0  0  0  0  0  0  0  0  0
   -8.6230    4.8280  -19.0850 C   0  0  0  0  0  0  0  0  0  0  0  0
   -9.6960    4.6260  -18.1500 C   0  0  0  0  0  0  0  0  0  0  0  0
   -9.5270    4.8220  -16.8450 C   0  0  0  0  0  0  0  0  0  0  0  0
   -8.3110    5.2350  -16.3300 N   0  0  0  0  0  0  0  0  0  0  0  0
  -10.5990    9.7270  -13.8760 C   0  0  0  0  0  0  0  0  0  0  0  0
  -11.7740   10.1370  -14.4950 C   0  0  0  0  0  0  0  0  0  0  0  0
  -11.7920   11.3090  -15.2580 C   0  0  0  0  0  0  0  0  0  0  0  0
  -10.6350   12.0730  -15.4060 C   0  0  0  0  0  0  0  0  0  0  0  0
   -9.4520   11.6680  -14.7910 C   0  0  0  0  0  0  0  0  0  0  0  0
   -9.4370   10.4950  -14.0270 C   0  0  0  0  0  0  0  0  0  0  0  0
  -10.2490    7.3970  -14.6700 H   0  0  0  0  0  0  0  0  0  0  0  0
   -8.8420    6.5500  -12.1490 H   0  0  0  0  0  0  0  0  0  0  0  0
   -7.9760    7.2060  -13.5540 H   0  0  0  0  0  0  0  0  0  0  0  0
   -8.5250    4.6090  -13.1450 H   0  0  0  0  0  0  0  0  0  0  0  0
   -9.7880    5.1180  -14.2680 H   0  0  0  0  0  0  0  0  0  0  0  0
   -6.4140    5.4560  -19.1200 H   0  0  0  0  0  0  0  0  0  0  0  0
   -8.7820    4.6580  -20.1460 H   0  0  0  0  0  0  0  0  0  0  0  0
  -10.6760    4.3080  -18.5100 H   0  0  0  0  0  0  0  0  0  0  0  0
  -10.4070    4.6350  -16.2290 H   0  0  0  0  0  0  0  0  0  0  0  0
  -12.6810    9.5460  -14.3840 H   0  0  0  0  0  0  0  0  0  0  0  0
  -12.7110   11.6250  -15.7360 H   0  0  0  0  0  0  0  0  0  0  0  0
  -10.6590   12.9820  -16.0010 H   0  0  0  0  0  0  0  0  0  0  0  0
   -8.5460   12.2600  -14.9050 H   0  0  0  0  0  0  0  0  0  0  0  0
   -8.5130   10.1850  -13.5500 H   0  0  0  0  0  0  0  0  0  0  0  0
  1  2  2  0
  2  3  1  0
  3  4  1  0
  4  5  1  0
  5  6  1  0
  6  7  2  0
  7  8  1  0
  8  9  2  0
  9 10  1  0
 10 11  2  0
 11 12  1  0
 12 13  2  0
 13 14  1  0
  2 15  1  0
 15 16  2  0
 16 17  1  0
 17 18  2  0
 18 19  1  0
 19 20  2  0
 14  6  1  0
 14  9  1  0
 20 15  1  0
  3 21  1  0
  4 22  1  0
  4 23  1  0
  5 24  1  0
  5 25  1  0
 10 26  1  0
 11 27  1  0
 12 28  1  0
 13 29  1  0
 16 30  1  0
 17 31  1  0
 18 32  1  0
 19 33  1  0
 20 34  1  0
A    1
 O1 
A    2
 C1 
A    3
 N1 
A    4
 C2 
A    5
 C3 
A    6
 C4 
A    7
 N2 
A    8
 N3 
A    9
 C5 
A   10
 C6 
A   11
 C7 
A   12
 C8 
A   13
 C9 
A   14
 N4 
A   15
 C10
A   16
 C11
A   17
 C12
A   18
 C13
A   19
 C14
A   20
 C15
A   21
 H1 
A   22
 H2 
A   23
 H3 
A   24
 H4 
A   25
 H5 
A   26
 H6 
A   27
 H7 
A   28
 H8 
A   29
 H9 
A   30
 H10
A   31
 H11
A   32
 H12
A   33
 H13
A   34
 H14
M  END
>  <ref_pdb>  (281) 
x0051_0B

>  <ref_mols>  (281) 
x0951_0B,x0969_1B

>  <original SMILES>  (281) 
[H]c1c([H])c([H])c(C(=O)N([H])C([H])([H])C([H])([H])c2nnc3c([H])c([H])c([H])c([H])n23)c([H])c1[H]

>  <index>  (281) 
2592

>  <∆∆G>  (281) 
-5.328601

>  <∆G_bound>  (281) 
-4.353919

>  <∆G_unbound>  (281) 
0.974682

>  <comRMSD>  (281) 
0.355637

>  <N_constrained_atoms>  (281) 
13.0

>  <N_unconstrained_atoms>  (281) 
8.0

>  <runtime>  (281) 
73.033337

>  <LE>  (281) 
0.253743

>  <percent_hybrid>  (281) 
8.0

>  <dist>  (281) 
11.0

>  <ecfp4>  (281) 
0.328358

>  <daylight>  (281) 
0.348

>  <topodist>  (281) 
4.0

>  <mces>  (281) 
21.0

>  <tdn>  (281) 
1.0

>  <tup>  (281) 
1.0

>  <rdn>  (281) 
1.0

>  <rup>  (281) 
0.0

>  <ldn>  (281) 
1.0

>  <lup>  (281) 
0.0

>  <mut>  (281) 
4.0

>  <maj>  (281) 
4.0

>  <min>  (281) 
0.0

>  <hyb>  (281) 
3.0

>  <sub>  (281) 
2.0

>  <query_index>  (281) 
201.0

>  <max_hit_Tanimoto>  (281) 
0.530435

>  <largest_ring>  (281) 
6

>  <N_interactions_kept>  (281) 
1.5

>  <N_interactions_lost>  (281) 
1.5

>  <interaction_uniqueness_metric>  (281) 
0.055993

>  <ad_hoc_penalty>  (281) 
-5.957288

>  <N_rotatable_bonds>  (281) 
4

>  <N_HA>  (281) 
20

>  <cluster>  (281) 
3831

>  <N_interactions>  (281) 
4

>  <Enamine>  (281) 
1

>  <Mcule>  (281) 
0

>  <N_PAINS>  (281) 
0

>  <UFF_Gibbs>  (281) 
65.576335

>  <strain_per_HA>  (281) 
3.278817

>  <intxn_scored>  (281) 
9.0

>  <saltbridge:HIS:51>  (281) 
0

>  <pistack:HIS:51>  (281) 
0

>  <hydroph_interaction:HIS:51>  (281) 
0

>  <hbond:ALA:132>  (281) 
0

>  <hbond:SER:135>  (281) 
0

>  <hydroph_interaction:TYR:150>  (281) 
1

>  <pistack:TYR:161>  (281) 
2

>  <hydroph_interaction:TYR:161>  (281) 
0

>  <hydroph_interaction:ASP:83>  (281) 
0

>  <hbond:TYR:130>  (281) 
0

>  <hydroph_interaction:ALA:132>  (281) 
1

>  <hbond:HIS:51>  (281) 
0

>  <hbond:ASP:129>  (281) 
0

>  <hbond:TYR:150>  (281) 
0

>  <hbond:GLY:151>  (281) 
0

>  <hbond:TYR:161>  (281) 
0

>  <hydroph_interaction:TYR:130>  (281) 
0

>  <hydroph_interaction:PRO:131>  (281) 
0

>  <hydroph_interaction:ASP:129>  (281) 
0

>  <saltbridge:ASP:75>  (281) 
0

>  <saltbridge:ASP:83>  (281) 
0

>  <hbond:ASN:152>  (281) 
0

>  <hydroph_interaction:ASN:152>  (281) 
0

>  <halogenbond:TYR:150>  (281) 
0

>  <hbond:ASP:83>  (281) 
0

>  <hydroph_interaction:VAL:155>  (281) 
0

>  <pication:TYR:161>  (281) 
0

>  <hbond:PRO:131>  (281) 
0

>  <saltbridge:ASP:129>  (281) 
0

>  <hbond:THR:134>  (281) 
0

>  <pication:HIS:51>  (281) 
0

>  <hbond:SER:81>  (281) 
0

>  <hydroph_interaction:THR:134>  (281) 
0

>  <hydroph_interaction:MET:49>  (281) 
0

$$$$
Z1252331689
     RDKit          3D

 36 38  0  0  0  0  0  0  0  0999 V2000
   -5.7210    5.5500  -22.3300 C   0  0  0  0  0  0  0  0  0  0  0  0
   -4.5640    5.7430  -22.0610 O   0  0  0  0  0  0  0  0  0  0  0  0
   -4.2530    5.3150  -20.8240 C   0  0  0  0  0  0  0  0  0  0  0  0
   -3.1270    4.9500  -20.5330 O   0  0  0  0  0  0  0  0  0  0  0  0
   -5.3570    5.3050  -19.7190 C   0  0  0  0  0  0  0  0  0  0  0  0
   -4.6510    5.5740  -18.4350 C   0  0  0  0  0  0  0  0  0  0  0  0
   -5.5480    5.5900  -17.2580 C   0  0  0  0  0  0  0  0  0  0  0  0
   -5.0010    5.8180  -16.0000 N   0  0  0  0  0  0  0  0  0  0  0  0
   -4.9700    7.2150  -15.5370 C   0  0  0  0  0  0  0  0  0  0  0  0
   -4.1650    7.2880  -14.2460 C   0  0  0  0  0  0  0  0  0  0  0  0
   -3.7750    5.9670  -13.7750 N   0  0  0  0  0  0  0  0  0  0  0  0
   -3.3290    5.0110  -14.6580 C   0  0  0  0  0  0  0  0  0  0  0  0
   -2.6190    4.0820  -14.2760 O   0  0  0  0  0  0  0  0  0  0  0  0
   -3.7300    5.1790  -15.9680 C   0  0  0  0  0  0  0  0  0  0  0  0
   -6.9210    5.3680  -17.4300 C   0  0  0  0  0  0  0  0  0  0  0  0
   -7.7150    5.4020  -16.3230 C   0  0  0  0  0  0  0  0  0  0  0  0
   -9.0550    5.1980  -16.3960 C   0  0  0  0  0  0  0  0  0  0  0  0
   -9.9420    5.3310  -14.7400 Br  0  0  0  0  0  0  0  0  0  0  0  0
   -9.6610    4.9250  -17.6390 C   0  0  0  0  0  0  0  0  0  0  0  0
   -8.8480    4.8890  -18.7980 C   0  0  0  0  0  0  0  0  0  0  0  0
   -7.4640    5.1160  -18.7230 C   0  0  0  0  0  0  0  0  0  0  0  0
   -6.7020    5.0840  -19.8590 N   0  0  0  0  0  0  0  0  0  0  0  0
   -6.3330    6.0700  -21.5920 H   0  0  0  0  0  0  0  0  0  0  0  0
   -5.9490    4.4810  -22.3420 H   0  0  0  0  0  0  0  0  0  0  0  0
   -5.9840    5.9800  -23.2900 H   0  0  0  0  0  0  0  0  0  0  0  0
   -3.5690    5.7330  -18.4390 H   0  0  0  0  0  0  0  0  0  0  0  0
   -4.4990    7.8590  -16.2900 H   0  0  0  0  0  0  0  0  0  0  0  0
   -5.9880    7.5840  -15.3500 H   0  0  0  0  0  0  0  0  0  0  0  0
   -4.7960    7.7160  -13.4610 H   0  0  0  0  0  0  0  0  0  0  0  0
   -3.2450    7.8680  -14.2550 H   0  0  0  0  0  0  0  0  0  0  0  0
   -3.3950    5.8650  -12.8410 H   0  0  0  0  0  0  0  0  0  0  0  0
   -3.0530    5.7130  -16.6270 H   0  0  0  0  0  0  0  0  0  0  0  0
   -3.8420    4.1700  -16.3680 H   0  0  0  0  0  0  0  0  0  0  0  0
   -7.2630    5.6030  -15.3540 H   0  0  0  0  0  0  0  0  0  0  0  0
  -10.7280    4.7520  -17.7280 H   0  0  0  0  0  0  0  0  0  0  0  0
   -9.2990    4.6860  -19.7680 H   0  0  0  0  0  0  0  0  0  0  0  0
  1  2  1  0
  2  3  1  0
  3  4  2  0
  3  5  1  0
  5  6  2  0
  6  7  1  0
  7  8  1  0
  8  9  1  0
  9 10  1  0
 10 11  1  0
 11 12  1  0
 12 13  2  0
 12 14  1  0
  7 15  2  0
 15 16  1  0
 16 17  2  0
 17 18  1  0
 17 19  1  0
 19 20  2  0
 20 21  1  0
 21 22  2  0
 22  5  1  0
 14  8  1  0
 21 15  1  0
  1 23  1  0
  1 24  1  0
  1 25  1  0
  6 26  1  0
  9 27  1  0
  9 28  1  0
 10 29  1  0
 10 30  1  0
 11 31  1  0
 14 32  1  0
 14 33  1  0
 16 34  1  0
 19 35  1  0
 20 36  1  0
A    1
 C1 
A    2
 O1 
A    3
 C2 
A    4
 O2 
A    5
 C3 
A    6
 C4 
A    7
 C5 
A    8
 N1 
A    9
 C6 
A   10
 C7 
A   11
 N2 
A   12
 C8 
A   13
 O3 
A   14
 C9 
A   15
 C10
A   16
 C11
A   17
 C12
A   18
BR1 
A   19
 C13
A   20
 C14
A   21
 C15
A   22
 N3 
A   23
 H1 
A   24
 H2 
A   25
 H3 
A   26
 H4 
A   27
 H5 
A   28
 H6 
A   29
 H7 
A   30
 H8 
A   31
 H9 
A   32
 H10
A   33
 H11
A   34
 H12
A   35
 H13
A   36
 H14
M  END
>  <ref_pdb>  (282) 
x0051_0B

>  <ref_mols>  (282) 
x0429_0B,x0904_0B

>  <original SMILES>  (282) 
[H]c1c(Br)c([H])c2c(N3C([H])([H])C(=O)N([H])C([H])([H])C3([H])[H])c([H])c(C(=O)OC([H])([H])[H])nc2c1[H]

>  <index>  (282) 
2947

>  <∆∆G>  (282) 
-5.444664

>  <∆G_bound>  (282) 
-4.731941

>  <∆G_unbound>  (282) 
0.712723

>  <comRMSD>  (282) 
0.741249

>  <N_constrained_atoms>  (282) 
21.0

>  <N_unconstrained_atoms>  (282) 
1.0

>  <runtime>  (282) 
25.85798

>  <LE>  (282) 
0.247485

>  <percent_hybrid>  (282) 
39.0

>  <dist>  (282) 
5.0

>  <ecfp4>  (282) 
0.380282

>  <daylight>  (282) 
0.551546

>  <topodist>  (282) 
2.0

>  <mces>  (282) 
23.0

>  <tdn>  (282) 
1.0

>  <tup>  (282) 
1.0

>  <rdn>  (282) 
0.0

>  <rup>  (282) 
0.0

>  <ldn>  (282) 
0.0

>  <lup>  (282) 
0.0

>  <mut>  (282) 
2.0

>  <maj>  (282) 
1.0

>  <min>  (282) 
1.0

>  <hyb>  (282) 
1.0

>  <sub>  (282) 
0.0

>  <query_index>  (282) 
153.0

>  <max_hit_Tanimoto>  (282) 
0.508571

>  <largest_ring>  (282) 
6

>  <N_interactions_kept>  (282) 
1.5

>  <N_interactions_lost>  (282) 
2.0

>  <interaction_uniqueness_metric>  (282) 
0.027887

>  <ad_hoc_penalty>  (282) 
-0.325603

>  <N_rotatable_bonds>  (282) 
3

>  <N_HA>  (282) 
22

>  <cluster>  (282) 
3496

>  <N_interactions>  (282) 
3

>  <Enamine>  (282) 
1

>  <Mcule>  (282) 
0

>  <N_PAINS>  (282) 
0

>  <UFF_Gibbs>  (282) 
149.043559

>  <strain_per_HA>  (282) 
6.774707

>  <intxn_scored>  (282) 
9.0

>  <saltbridge:HIS:51>  (282) 
0

>  <pistack:HIS:51>  (282) 
0

>  <hydroph_interaction:HIS:51>  (282) 
0

>  <hbond:ALA:132>  (282) 
0

>  <hbond:SER:135>  (282) 
0

>  <hydroph_interaction:TYR:150>  (282) 
0

>  <pistack:TYR:161>  (282) 
2

>  <hydroph_interaction:TYR:161>  (282) 
1

>  <hydroph_interaction:ASP:83>  (282) 
0

>  <hbond:TYR:130>  (282) 
0

>  <hydroph_interaction:ALA:132>  (282) 
0

>  <hbond:HIS:51>  (282) 
0

>  <hbond:ASP:129>  (282) 
0

>  <hbond:TYR:150>  (282) 
0

>  <hbond:GLY:151>  (282) 
0

>  <hbond:TYR:161>  (282) 
0

>  <hydroph_interaction:TYR:130>  (282) 
0

>  <hydroph_interaction:PRO:131>  (282) 
0

>  <hydroph_interaction:ASP:129>  (282) 
0

>  <saltbridge:ASP:75>  (282) 
0

>  <saltbridge:ASP:83>  (282) 
0

>  <hbond:ASN:152>  (282) 
0

>  <hydroph_interaction:ASN:152>  (282) 
0

>  <halogenbond:TYR:150>  (282) 
0

>  <hbond:ASP:83>  (282) 
0

>  <hydroph_interaction:VAL:155>  (282) 
0

>  <pication:TYR:161>  (282) 
0

>  <hbond:PRO:131>  (282) 
0

>  <saltbridge:ASP:129>  (282) 
0

>  <hbond:THR:134>  (282) 
0

>  <pication:HIS:51>  (282) 
0

>  <hbond:SER:81>  (282) 
0

>  <hydroph_interaction:THR:134>  (282) 
0

>  <hydroph_interaction:MET:49>  (282) 
0

$$$$
Z5316760219
     RDKit          3D

 50 53  0  0  0  0  0  0  0  0999 V2000
   -6.4200    5.0680  -20.7130 C   0  0  0  0  0  0  0  0  0  0  0  0
   -6.3470    5.2360  -19.1810 C   0  0  0  0  0  0  0  0  0  0  0  0
   -5.2690    5.4780  -18.4550 N   0  0  0  0  0  0  0  0  0  0  0  0
   -5.6360    5.5510  -17.1300 N   0  0  0  0  0  0  0  0  0  0  0  0
   -6.9840    5.3440  -17.0900 C   0  0  0  0  0  0  0  0  0  0  0  0
   -7.9400    5.3140  -15.9090 C   0  0  0  0  0  0  0  0  0  0  0  0
   -7.6210    6.5440  -15.1380 N   0  0  0  0  0  0  0  0  0  0  0  0
   -8.7690    7.3250  -14.1720 S   0  0  0  0  0  6  0  0  0  0  0  0
   -8.2790    8.6530  -13.8600 O   0  0  0  0  0  0  0  0  0  0  0  0
  -10.0330    7.1270  -14.8090 O   0  0  0  0  0  0  0  0  0  0  0  0
   -8.8060    6.4180  -12.6720 C   0  0  0  0  0  0  0  0  0  0  0  0
   -8.6980    7.0920  -11.4480 C   0  0  0  0  0  0  0  0  0  0  0  0
   -8.7320    6.3560  -10.2820 C   0  0  0  0  0  0  0  0  0  0  0  0
   -8.8680    4.9740  -10.2790 C   0  0  0  0  0  0  0  0  0  0  0  0
   -8.8980    4.2740   -8.9930 N   0  0  0  0  0  0  0  0  0  0  0  0
   -9.0430    2.8200   -9.1920 C   0  0  0  0  0  0  0  0  0  0  0  0
   -9.5960    2.3480   -8.0060 C   0  0  0  0  0  0  0  0  0  0  0  0
   -8.7940    2.7200   -6.8320 N   0  0  0  0  0  0  0  0  0  0  0  0
   -8.7500    4.1760   -6.6770 C   0  0  0  0  0  0  0  0  0  0  0  0
   -8.1760    4.7570   -7.8070 C   0  0  0  0  0  0  0  0  0  0  0  0
   -8.9740    4.3250  -11.5200 C   0  0  0  0  0  0  0  0  0  0  0  0
   -8.9450    5.0360  -12.7150 C   0  0  0  0  0  0  0  0  0  0  0  0
   -9.2710    5.3800  -16.3220 C   0  0  0  0  0  0  0  0  0  0  0  0
   -9.6260    4.8320  -17.5670 C   0  0  0  0  0  0  0  0  0  0  0  0
   -8.8020    4.8830  -18.7030 C   0  0  0  0  0  0  0  0  0  0  0  0
   -7.4260    5.1450  -18.3600 N   0  0  0  0  0  0  0  0  0  0  0  0
   -7.3190    4.5120  -21.0050 H   0  0  0  0  0  0  0  0  0  0  0  0
   -5.5580    4.5200  -21.1010 H   0  0  0  0  0  0  0  0  0  0  0  0
   -6.4350    6.0600  -21.1780 H   0  0  0  0  0  0  0  0  0  0  0  0
   -7.8740    4.4500  -15.2460 H   0  0  0  0  0  0  0  0  0  0  0  0
   -6.6780    6.5840  -14.7450 H   0  0  0  0  0  0  0  0  0  0  0  0
   -8.5920    8.1750  -11.4390 H   0  0  0  0  0  0  0  0  0  0  0  0
   -8.6560    6.8000   -9.2820 H   0  0  0  0  0  0  0  0  0  0  0  0
   -8.0660    2.4200   -9.4580 H   0  0  0  0  0  0  0  0  0  0  0  0
   -9.6540    2.6790  -10.0820 H   0  0  0  0  0  0  0  0  0  0  0  0
   -9.8260    1.2990   -7.9090 H   0  0  0  0  0  0  0  0  0  0  0  0
  -10.5630    2.8490   -7.8940 H   0  0  0  0  0  0  0  0  0  0  0  0
   -9.2090    2.2870   -6.0070 H   0  0  0  0  0  0  0  0  0  0  0  0
   -8.2410    4.3510   -5.7320 H   0  0  0  0  0  0  0  0  0  0  0  0
   -9.7770    4.4570   -6.4550 H   0  0  0  0  0  0  0  0  0  0  0  0
   -8.1110    5.8430   -7.8470 H   0  0  0  0  0  0  0  0  0  0  0  0
   -7.1460    4.3860   -7.8820 H   0  0  0  0  0  0  0  0  0  0  0  0
   -9.0830    3.2440  -11.5770 H   0  0  0  0  0  0  0  0  0  0  0  0
   -9.0320    4.5050  -13.6610 H   0  0  0  0  0  0  0  0  0  0  0  0
   -9.5930    6.4220  -16.3280 H   0  0  0  0  0  0  0  0  0  0  0  0
   -9.8890    4.8980  -15.5560 H   0  0  0  0  0  0  0  0  0  0  0  0
   -9.7690    3.7930  -17.3810 H   0  0  0  0  0  0  0  0  0  0  0  0
  -10.6130    5.2240  -17.8420 H   0  0  0  0  0  0  0  0  0  0  0  0
   -8.8470    3.9260  -19.2270 H   0  0  0  0  0  0  0  0  0  0  0  0
   -9.1170    5.6560  -19.4110 H   0  0  0  0  0  0  0  0  0  0  0  0
  1  2  1  0
  2  3  2  0
  3  4  1  0
  4  5  2  0
  5  6  1  0
  6  7  1  0
  7  8  1  0
  8  9  2  0
  8 10  2  0
  8 11  1  0
 11 12  2  0
 12 13  1  0
 13 14  2  0
 14 15  1  0
 15 16  1  0
 16 17  1  0
 17 18  1  0
 18 19  1  0
 19 20  1  0
 14 21  1  0
 21 22  2  0
  6 23  1  0
 23 24  1  0
 24 25  1  0
 25 26  1  0
 26  2  1  0
 26  5  1  0
 22 11  1  0
 20 15  1  0
  1 27  1  0
  1 28  1  0
  1 29  1  0
  6 30  1  0
  7 31  1  0
 12 32  1  0
 13 33  1  0
 16 34  1  0
 16 35  1  0
 17 36  1  0
 17 37  1  0
 18 38  1  0
 19 39  1  0
 19 40  1  0
 20 41  1  0
 20 42  1  0
 21 43  1  0
 22 44  1  0
 23 45  1  0
 23 46  1  0
 24 47  1  0
 24 48  1  0
 25 49  1  0
 25 50  1  0
A    1
 C1 
A    2
 C2 
A    3
 N1 
A    4
 N2 
A    5
 C3 
A    6
 C4 
A    7
 N3 
A    8
 S1 
A    9
 O1 
A   10
 O2 
A   11
 C5 
A   12
 C6 
A   13
 C7 
A   14
 C8 
A   15
 N4 
A   16
 C9 
A   17
 C10
A   18
 N5 
A   19
 C11
A   20
 C12
A   21
 C13
A   22
 C14
A   23
 C15
A   24
 C16
A   25
 C17
A   26
 N6 
A   27
 H1 
A   28
 H2 
A   29
 H3 
A   30
 H4 
A   31
 H5 
A   32
 H6 
A   33
 H7 
A   34
 H8 
A   35
 H9 
A   36
 H10
A   37
 H11
A   38
 H12
A   39
 H13
A   40
 H14
A   41
 H15
A   42
 H16
A   43
 H17
A   44
 H18
A   45
 H19
A   46
 H20
A   47
 H21
A   48
 H22
A   49
 H23
A   50
 H24
M  END
>  <ref_pdb>  (283) 
x0051_0B

>  <ref_mols>  (283) 
x0435_0B,x0404_0B

>  <original SMILES>  (283) 
[H]c1c([H])c(S(=O)(=O)N([H])C2([H])c3nnc(C([H])([H])[H])n3C([H])([H])C([H])([H])C2([H])[H])c([H])c([H])c1N1C([H])([H])C([H])([H])N([H])C([H])([H])C1([H])[H]

>  <index>  (283) 
1818

>  <∆∆G>  (283) 
-6.967812

>  <∆G_bound>  (283) 
-6.113557

>  <∆G_unbound>  (283) 
0.854256

>  <comRMSD>  (283) 
0.406936

>  <N_constrained_atoms>  (283) 
25.0

>  <N_unconstrained_atoms>  (283) 
1.0

>  <runtime>  (283) 
54.684912

>  <LE>  (283) 
0.267993

>  <percent_hybrid>  (283) 
40.0

>  <dist>  (283) 
8.0

>  <ecfp4>  (283) 
0.320988

>  <daylight>  (283) 
0.268852

>  <topodist>  (283) 
1.0

>  <mces>  (283) 
29.0

>  <tdn>  (283) 
0.0

>  <tup>  (283) 
0.0

>  <rdn>  (283) 
0.0

>  <rup>  (283) 
0.0

>  <ldn>  (283) 
1.0

>  <lup>  (283) 
0.0

>  <mut>  (283) 
2.0

>  <maj>  (283) 
2.0

>  <min>  (283) 
0.0

>  <hyb>  (283) 
5.0

>  <sub>  (283) 
0.0

>  <query_index>  (283) 
26.0

>  <max_hit_Tanimoto>  (283) 
0.268545

>  <largest_ring>  (283) 
6

>  <N_interactions_kept>  (283) 
1.0

>  <N_interactions_lost>  (283) 
3.5

>  <interaction_uniqueness_metric>  (283) 
0.239101

>  <ad_hoc_penalty>  (283) 
-6.107466

>  <N_rotatable_bonds>  (283) 
5

>  <N_HA>  (283) 
26

>  <cluster>  (283) 
4550

>  <N_interactions>  (283) 
7

>  <Enamine>  (283) 
1

>  <Mcule>  (283) 
0

>  <N_PAINS>  (283) 
0

>  <UFF_Gibbs>  (283) 
243.009674

>  <strain_per_HA>  (283) 
9.346526

>  <intxn_scored>  (283) 
9.0

>  <saltbridge:HIS:51>  (283) 
0

>  <pistack:HIS:51>  (283) 
1

>  <hydroph_interaction:HIS:51>  (283) 
1

>  <hbond:ALA:132>  (283) 
0

>  <hbond:SER:135>  (283) 
0

>  <hydroph_interaction:TYR:150>  (283) 
0

>  <pistack:TYR:161>  (283) 
1

>  <hydroph_interaction:TYR:161>  (283) 
2

>  <hydroph_interaction:ASP:83>  (283) 
0

>  <hbond:TYR:130>  (283) 
0

>  <hydroph_interaction:ALA:132>  (283) 
1

>  <hbond:HIS:51>  (283) 
0

>  <hbond:ASP:129>  (283) 
0

>  <hbond:TYR:150>  (283) 
0

>  <hbond:GLY:151>  (283) 
0

>  <hbond:TYR:161>  (283) 
0

>  <hydroph_interaction:TYR:130>  (283) 
0

>  <hydroph_interaction:PRO:131>  (283) 
0

>  <hydroph_interaction:ASP:129>  (283) 
0

>  <saltbridge:ASP:75>  (283) 
0

>  <saltbridge:ASP:83>  (283) 
0

>  <hbond:ASN:152>  (283) 
0

>  <hydroph_interaction:ASN:152>  (283) 
0

>  <halogenbond:TYR:150>  (283) 
0

>  <hbond:ASP:83>  (283) 
0

>  <hydroph_interaction:VAL:155>  (283) 
0

>  <pication:TYR:161>  (283) 
0

>  <hbond:PRO:131>  (283) 
0

>  <saltbridge:ASP:129>  (283) 
0

>  <hbond:THR:134>  (283) 
0

>  <pication:HIS:51>  (283) 
0

>  <hbond:SER:81>  (283) 
1

>  <hydroph_interaction:THR:134>  (283) 
0

>  <hydroph_interaction:MET:49>  (283) 
0

$$$$
CSSB00025751347
     RDKit          3D

 41 43  0  0  0  0  0  0  0  0999 V2000
   -8.7120    7.2880   -8.1260 C   0  0  0  0  0  0  0  0  0  0  0  0
   -8.7990    6.1210   -8.9870 N   0  0  0  0  0  0  0  0  0  0  0  0
   -8.6010    6.4390  -10.3310 N   0  0  0  0  0  0  0  0  0  0  0  0
   -8.6920    5.3120  -11.0590 C   0  0  0  0  0  0  0  0  0  0  0  0
   -8.5170    5.1480  -12.5800 C   0  0  0  0  0  0  0  0  0  0  0  0
   -9.1490    6.1160  -13.4520 O   0  0  0  0  0  0  0  0  0  0  0  0
   -9.8010    5.4940  -14.6010 C   0  0  0  0  0  0  0  0  0  0  0  0
   -8.9940    5.4210  -15.7790 C   0  0  0  0  0  0  0  0  0  0  0  0
   -7.6480    5.7720  -15.7070 C   0  0  0  0  0  0  0  0  0  0  0  0
   -6.8290    5.7340  -16.8410 C   0  0  0  0  0  0  0  0  0  0  0  0
   -7.3180    5.3450  -18.0800 C   0  0  0  0  0  0  0  0  0  0  0  0
   -6.3970    5.3340  -19.2980 C   0  0  0  0  0  0  0  0  0  0  0  0
   -8.6610    4.9760  -18.1670 C   0  0  0  0  0  0  0  0  0  0  0  0
   -9.4800    5.0120  -17.0500 C   0  0  0  0  0  0  0  0  0  0  0  0
   -8.9940    4.1510  -10.1090 C   0  0  0  0  0  0  0  0  0  0  0  0
   -9.0330    4.8020   -8.7480 C   0  0  0  0  0  0  0  0  0  0  0  0
   -9.2780    4.0220   -7.6120 C   0  0  0  0  0  0  0  0  0  0  0  0
   -9.7210    2.7130   -7.8580 C   0  0  0  0  0  0  0  0  0  0  0  0
   -9.0550    2.0300   -9.0060 N   0  0  0  0  0  0  0  0  0  0  0  0
   -9.2110    2.7060  -10.3150 C   0  0  0  0  0  0  0  0  0  0  0  0
   -9.1060    7.0420   -7.1360 H   0  0  0  0  0  0  0  0  0  0  0  0
   -7.6720    7.6040   -7.9980 H   0  0  0  0  0  0  0  0  0  0  0  0
   -9.2940    8.1230   -8.5250 H   0  0  0  0  0  0  0  0  0  0  0  0
   -8.8060    4.1780  -12.9820 H   0  0  0  0  0  0  0  0  0  0  0  0
   -7.4480    5.2200  -12.8050 H   0  0  0  0  0  0  0  0  0  0  0  0
  -10.6590    6.1260  -14.8430 H   0  0  0  0  0  0  0  0  0  0  0  0
  -10.2020    4.5660  -14.2100 H   0  0  0  0  0  0  0  0  0  0  0  0
   -7.2310    6.0870  -14.7560 H   0  0  0  0  0  0  0  0  0  0  0  0
   -5.7810    6.0170  -16.7590 H   0  0  0  0  0  0  0  0  0  0  0  0
   -6.6760    4.6780  -20.1090 H   0  0  0  0  0  0  0  0  0  0  0  0
   -5.3850    5.0180  -19.0120 H   0  0  0  0  0  0  0  0  0  0  0  0
   -6.3310    6.3380  -19.7250 H   0  0  0  0  0  0  0  0  0  0  0  0
   -9.1610    4.6460  -19.0860 H   0  0  0  0  0  0  0  0  0  0  0  0
  -10.5100    4.7060  -17.2470 H   0  0  0  0  0  0  0  0  0  0  0  0
   -9.9970    4.5180   -6.9560 H   0  0  0  0  0  0  0  0  0  0  0  0
   -8.3380    3.9530   -7.0550 H   0  0  0  0  0  0  0  0  0  0  0  0
   -9.5450    2.1160   -6.9590 H   0  0  0  0  0  0  0  0  0  0  0  0
  -10.8040    2.7060   -8.0180 H   0  0  0  0  0  0  0  0  0  0  0  0
   -8.0600    2.0600   -8.8340 H   0  0  0  0  0  0  0  0  0  0  0  0
   -8.4630    2.2940  -11.0000 H   0  0  0  0  0  0  0  0  0  0  0  0
  -10.1980    2.4990  -10.7300 H   0  0  0  0  0  0  0  0  0  0  0  0
  1  2  1  0
  2  3  1  0
  3  4  2  0
  4  5  1  0
  5  6  1  0
  6  7  1  0
  7  8  1  0
  8  9  2  0
  9 10  1  0
 10 11  2  0
 11 12  1  0
 11 13  1  0
 13 14  2  0
  4 15  1  0
 15 16  2  0
 16 17  1  0
 17 18  1  0
 18 19  1  0
 19 20  1  0
 16  2  1  0
 14  8  1  0
 20 15  1  0
  1 21  1  0
  1 22  1  0
  1 23  1  0
  5 24  1  0
  5 25  1  0
  7 26  1  0
  7 27  1  0
  9 28  1  0
 10 29  1  0
 12 30  1  0
 12 31  1  0
 12 32  1  0
 13 33  1  0
 14 34  1  0
 17 35  1  0
 17 36  1  0
 18 37  1  0
 18 38  1  0
 19 39  1  0
 20 40  1  0
 20 41  1  0
A    1
 C1 
A    2
 N1 
A    3
 N2 
A    4
 C2 
A    5
 C3 
A    6
 O1 
A    7
 C4 
A    8
 C5 
A    9
 C6 
A   10
 C7 
A   11
 C8 
A   12
 C9 
A   13
 C10
A   14
 C11
A   15
 C12
A   16
 C13
A   17
 C14
A   18
 C15
A   19
 N3 
A   20
 C16
A   21
 H1 
A   22
 H2 
A   23
 H3 
A   24
 H4 
A   25
 H5 
A   26
 H6 
A   27
 H7 
A   28
 H8 
A   29
 H9 
A   30
 H10
A   31
 H11
A   32
 H12
A   33
 H13
A   34
 H14
A   35
 H15
A   36
 H16
A   37
 H17
A   38
 H18
A   39
 H19
A   40
 H20
A   41
 H21
M  END
>  <ref_pdb>  (284) 
x0051_0B

>  <ref_mols>  (284) 
x0969_1B,x0589_0B

>  <original SMILES>  (284) 
[H]c1c([H])c(C([H])([H])OC([H])([H])c2nn(C([H])([H])[H])c3c2C([H])([H])N([H])C([H])([H])C3([H])[H])c([H])c([H])c1C([H])([H])[H]

>  <index>  (284) 
3380

>  <∆∆G>  (284) 
-6.23683

>  <∆G_bound>  (284) 
-5.840724

>  <∆G_unbound>  (284) 
0.396106

>  <comRMSD>  (284) 
0.735551

>  <N_constrained_atoms>  (284) 
18.0

>  <N_unconstrained_atoms>  (284) 
3.0

>  <runtime>  (284) 
43.283898

>  <LE>  (284) 
0.296992

>  <percent_hybrid>  (284) 
45.0

>  <dist>  (284) 
7.0

>  <ecfp4>  (284) 
0.367647

>  <daylight>  (284) 
0.419753

>  <topodist>  (284) 
4.0

>  <mces>  (284) 
20.0

>  <tdn>  (284) 
2.0

>  <tup>  (284) 
2.0

>  <rdn>  (284) 
0.0

>  <rup>  (284) 
0.0

>  <ldn>  (284) 
0.0

>  <lup>  (284) 
0.0

>  <mut>  (284) 
2.0

>  <maj>  (284) 
2.0

>  <min>  (284) 
0.0

>  <hyb>  (284) 
1.0

>  <sub>  (284) 
3.0

>  <query_index>  (284) 
380.0

>  <max_hit_Tanimoto>  (284) 
0.311907

>  <largest_ring>  (284) 
6

>  <N_interactions_kept>  (284) 
0.5

>  <N_interactions_lost>  (284) 
2.0

>  <interaction_uniqueness_metric>  (284) 
0.176879

>  <ad_hoc_penalty>  (284) 
-2.219306

>  <N_rotatable_bonds>  (284) 
6

>  <N_HA>  (284) 
20

>  <cluster>  (284) 
3084

>  <N_interactions>  (284) 
4

>  <Enamine>  (284) 
1

>  <Mcule>  (284) 
0

>  <N_PAINS>  (284) 
0

>  <UFF_Gibbs>  (284) 
88.813445

>  <strain_per_HA>  (284) 
4.440672

>  <intxn_scored>  (284) 
9.0

>  <saltbridge:HIS:51>  (284) 
0

>  <pistack:HIS:51>  (284) 
1

>  <hydroph_interaction:HIS:51>  (284) 
0

>  <hbond:ALA:132>  (284) 
0

>  <hbond:SER:135>  (284) 
0

>  <hydroph_interaction:TYR:150>  (284) 
0

>  <pistack:TYR:161>  (284) 
1

>  <hydroph_interaction:TYR:161>  (284) 
1

>  <hydroph_interaction:ASP:83>  (284) 
0

>  <hbond:TYR:130>  (284) 
0

>  <hydroph_interaction:ALA:132>  (284) 
0

>  <hbond:HIS:51>  (284) 
0

>  <hbond:ASP:129>  (284) 
0

>  <hbond:TYR:150>  (284) 
0

>  <hbond:GLY:151>  (284) 
0

>  <hbond:TYR:161>  (284) 
0

>  <hydroph_interaction:TYR:130>  (284) 
0

>  <hydroph_interaction:PRO:131>  (284) 
0

>  <hydroph_interaction:ASP:129>  (284) 
0

>  <saltbridge:ASP:75>  (284) 
0

>  <saltbridge:ASP:83>  (284) 
0

>  <hbond:ASN:152>  (284) 
0

>  <hydroph_interaction:ASN:152>  (284) 
0

>  <halogenbond:TYR:150>  (284) 
0

>  <hbond:ASP:83>  (284) 
1

>  <hydroph_interaction:VAL:155>  (284) 
0

>  <pication:TYR:161>  (284) 
0

>  <hbond:PRO:131>  (284) 
0

>  <saltbridge:ASP:129>  (284) 
0

>  <hbond:THR:134>  (284) 
0

>  <pication:HIS:51>  (284) 
0

>  <hbond:SER:81>  (284) 
0

>  <hydroph_interaction:THR:134>  (284) 
0

>  <hydroph_interaction:MET:49>  (284) 
0

$$$$
CSSS00038041913
     RDKit          3D

 29 30  0  0  0  0  0  0  0  0999 V2000
   -2.7970    5.1690  -16.6060 C   0  0  0  0  0  0  0  0  0  0  0  0
   -3.8680    5.1960  -17.6790 C   0  0  0  0  0  0  0  0  0  0  0  0
   -3.3340    5.9970  -18.8430 C   0  0  0  0  0  0  0  0  0  0  0  0
   -5.0730    5.6690  -17.4280 N   0  0  0  0  0  0  0  0  0  0  0  0
   -5.4170    5.9770  -16.1170 C   0  0  0  0  0  0  0  0  0  0  0  0
   -6.6070    5.9660  -15.6040 N   0  0  0  0  0  0  0  0  0  0  0  0
   -7.5470    5.6150  -16.4970 C   0  0  0  0  0  0  0  0  0  0  0  0
   -7.3680    5.3880  -17.8360 C   0  0  0  0  0  0  0  0  0  0  0  0
   -8.4780    5.0460  -18.5180 C   0  0  0  0  0  0  0  0  0  0  0  0
   -8.5150    4.7730  -19.8620 C   0  0  0  0  0  0  0  0  0  0  0  0
   -9.5370    5.0180  -17.7030 C   0  0  0  0  0  0  0  0  0  0  0  0
  -10.8830    4.6940  -18.2120 C   0  0  0  0  0  0  0  0  0  0  0  0
   -9.1830    5.3930  -16.0770 S   0  0  0  0  0  0  0  0  0  0  0  0
   -6.0600    5.5320  -18.3910 C   0  0  0  0  0  0  0  0  0  0  0  0
   -5.8840    5.5360  -19.6080 O   0  0  0  0  0  0  0  0  0  0  0  0
   -1.8050    5.1160  -17.0640 H   0  0  0  0  0  0  0  0  0  0  0  0
   -2.8330    6.0630  -15.9780 H   0  0  0  0  0  0  0  0  0  0  0  0
   -2.9180    4.2950  -15.9550 H   0  0  0  0  0  0  0  0  0  0  0  0
   -3.8380    4.1720  -18.0410 H   0  0  0  0  0  0  0  0  0  0  0  0
   -2.3910    6.5250  -18.7990 H   0  0  0  0  0  0  0  0  0  0  0  0
   -4.0790    6.7560  -19.1060 H   0  0  0  0  0  0  0  0  0  0  0  0
   -3.2510    5.3510  -19.7230 H   0  0  0  0  0  0  0  0  0  0  0  0
   -4.5690    6.2550  -15.4760 H   0  0  0  0  0  0  0  0  0  0  0  0
   -8.5600    3.7070  -20.0310 H   0  0  0  0  0  0  0  0  0  0  0  0
   -7.6350    5.1770  -20.3640 H   0  0  0  0  0  0  0  0  0  0  0  0
   -9.4140    5.1990  -20.3140 H   0  0  0  0  0  0  0  0  0  0  0  0
  -11.5210    4.3810  -17.4280 H   0  0  0  0  0  0  0  0  0  0  0  0
  -11.3620    5.4920  -18.7870 H   0  0  0  0  0  0  0  0  0  0  0  0
  -10.7200    3.8580  -18.8370 H   0  0  0  0  0  0  0  0  0  0  0  0
  1  2  1  0
  2  3  1  0
  2  4  1  0
  4  5  1  0
  5  6  2  0
  6  7  1  0
  7  8  2  0
  8  9  1  0
  9 10  1  0
  9 11  2  0
 11 12  1  0
 11 13  1  0
  8 14  1  0
 14 15  2  0
 14  4  1  0
 13  7  1  0
  1 16  1  0
  1 17  1  0
  1 18  1  0
  2 19  1  0
  3 20  1  0
  3 21  1  0
  3 22  1  0
  5 23  1  0
 10 24  1  0
 10 25  1  0
 10 26  1  0
 12 27  1  0
 12 28  1  0
 12 29  1  0
A    1
 C1 
A    2
 C2 
A    3
 C3 
A    4
 N1 
A    5
 C4 
A    6
 N2 
A    7
 C5 
A    8
 C6 
A    9
 C7 
A   10
 C8 
A   11
 C9 
A   12
 C10
A   13
 S1 
A   14
 C11
A   15
 O1 
A   16
 H1 
A   17
 H2 
A   18
 H3 
A   19
 H4 
A   20
 H5 
A   21
 H6 
A   22
 H7 
A   23
 H8 
A   24
 H9 
A   25
 H10
A   26
 H11
A   27
 H12
A   28
 H13
A   29
 H14
M  END
>  <ref_pdb>  (285) 
x0051_0B

>  <ref_mols>  (285) 
x0472_0B,x0386_0B

>  <original SMILES>  (285) 
[H]c1nc2sc(C([H])([H])[H])c(C([H])([H])[H])c2c(=O)n1C([H])(C([H])([H])[H])C([H])([H])[H]

>  <index>  (285) 
708

>  <∆∆G>  (285) 
-7.86626

>  <∆G_bound>  (285) 
-7.818689

>  <∆G_unbound>  (285) 
0.047571

>  <comRMSD>  (285) 
0.902036

>  <N_constrained_atoms>  (285) 
14.0

>  <N_unconstrained_atoms>  (285) 
2.0

>  <runtime>  (285) 
29.040306

>  <LE>  (285) 
0.491641

>  <percent_hybrid>  (285) 
13.0

>  <dist>  (285) 
7.0

>  <ecfp4>  (285) 
0.109375

>  <daylight>  (285) 
0.301887

>  <topodist>  (285) 
3.0

>  <mces>  (285) 
14.0

>  <tdn>  (285) 
1.0

>  <tup>  (285) 
2.0

>  <rdn>  (285) 
0.0

>  <rup>  (285) 
0.0

>  <ldn>  (285) 
0.0

>  <lup>  (285) 
0.0

>  <mut>  (285) 
2.0

>  <maj>  (285) 
2.0

>  <min>  (285) 
0.0

>  <hyb>  (285) 
2.0

>  <sub>  (285) 
3.0

>  <query_index>  (285) 
75.0

>  <max_hit_Tanimoto>  (285) 
0.236099

>  <largest_ring>  (285) 
6

>  <N_interactions_kept>  (285) 
2.0

>  <N_interactions_lost>  (285) 
1.0

>  <interaction_uniqueness_metric>  (285) 
0.061055

>  <ad_hoc_penalty>  (285) 
-14.091247

>  <N_rotatable_bonds>  (285) 
5

>  <N_HA>  (285) 
15

>  <cluster>  (285) 
5571

>  <N_interactions>  (285) 
4

>  <Enamine>  (285) 
1

>  <Mcule>  (285) 
0

>  <N_PAINS>  (285) 
0

>  <UFF_Gibbs>  (285) 
116.471067

>  <strain_per_HA>  (285) 
7.764738

>  <intxn_scored>  (285) 
9.0

>  <saltbridge:HIS:51>  (285) 
0

>  <pistack:HIS:51>  (285) 
0

>  <hydroph_interaction:HIS:51>  (285) 
0

>  <hbond:ALA:132>  (285) 
0

>  <hbond:SER:135>  (285) 
0

>  <hydroph_interaction:TYR:150>  (285) 
0

>  <pistack:TYR:161>  (285) 
2

>  <hydroph_interaction:TYR:161>  (285) 
1

>  <hydroph_interaction:ASP:83>  (285) 
0

>  <hbond:TYR:130>  (285) 
0

>  <hydroph_interaction:ALA:132>  (285) 
0

>  <hbond:HIS:51>  (285) 
0

>  <hbond:ASP:129>  (285) 
0

>  <hbond:TYR:150>  (285) 
0

>  <hbond:GLY:151>  (285) 
0

>  <hbond:TYR:161>  (285) 
0

>  <hydroph_interaction:TYR:130>  (285) 
0

>  <hydroph_interaction:PRO:131>  (285) 
0

>  <hydroph_interaction:ASP:129>  (285) 
0

>  <saltbridge:ASP:75>  (285) 
0

>  <saltbridge:ASP:83>  (285) 
0

>  <hbond:ASN:152>  (285) 
0

>  <hydroph_interaction:ASN:152>  (285) 
0

>  <halogenbond:TYR:150>  (285) 
0

>  <hbond:ASP:83>  (285) 
0

>  <hydroph_interaction:VAL:155>  (285) 
1

>  <pication:TYR:161>  (285) 
0

>  <hbond:PRO:131>  (285) 
0

>  <saltbridge:ASP:129>  (285) 
0

>  <hbond:THR:134>  (285) 
0

>  <pication:HIS:51>  (285) 
0

>  <hbond:SER:81>  (285) 
0

>  <hydroph_interaction:THR:134>  (285) 
0

>  <hydroph_interaction:MET:49>  (285) 
0

$$$$
PV-006665447670
     RDKit          3D

 25 26  0  0  0  0  0  0  0  0999 V2000
   -9.4270    6.0940  -13.4830 C   0  0  0  0  0  0  0  0  0  0  0  0
   -8.5900    5.0950  -14.1230 N   0  0  0  0  0  0  0  0  0  0  0  0
   -7.7200    5.6560  -15.1690 C   0  0  0  0  0  0  0  0  0  0  0  0
   -6.2660    5.3180  -15.0550 C   0  0  0  0  0  0  0  0  0  0  0  0
   -5.3880    5.9920  -15.8220 C   0  0  0  0  0  0  0  0  0  0  0  0
   -5.6700    5.7930  -17.6040 S   0  0  0  0  0  0  0  0  0  0  0  0
   -7.3930    5.3890  -17.6650 C   0  0  0  0  0  0  0  0  0  0  0  0
   -7.9850    5.0790  -19.0230 C   0  0  0  0  0  0  0  0  0  0  0  0
   -9.3150    4.7500  -19.1720 C   0  0  0  0  0  0  0  0  0  0  0  0
  -10.1280    4.7030  -18.0400 C   0  0  0  0  0  0  0  0  0  0  0  0
   -9.5800    4.9910  -16.7800 C   0  0  0  0  0  0  0  0  0  0  0  0
   -8.2320    5.3390  -16.5610 C   0  0  0  0  0  0  0  0  0  0  0  0
   -8.9680    7.0860  -13.5010 H   0  0  0  0  0  0  0  0  0  0  0  0
   -9.6330    5.8340  -12.4400 H   0  0  0  0  0  0  0  0  0  0  0  0
  -10.3830    6.1560  -14.0160 H   0  0  0  0  0  0  0  0  0  0  0  0
   -9.1260    4.2810  -14.4750 H   0  0  0  0  0  0  0  0  0  0  0  0
   -7.8360    6.7430  -15.0830 H   0  0  0  0  0  0  0  0  0  0  0  0
   -5.9720    5.2240  -14.0110 H   0  0  0  0  0  0  0  0  0  0  0  0
   -6.2070    4.2930  -15.4110 H   0  0  0  0  0  0  0  0  0  0  0  0
   -5.4640    7.0560  -15.5520 H   0  0  0  0  0  0  0  0  0  0  0  0
   -4.3660    5.6680  -15.6040 H   0  0  0  0  0  0  0  0  0  0  0  0
   -7.2900    5.1330  -19.8700 H   0  0  0  0  0  0  0  0  0  0  0  0
   -9.7060    4.5370  -20.1590 H   0  0  0  0  0  0  0  0  0  0  0  0
  -11.1760    4.4470  -18.1340 H   0  0  0  0  0  0  0  0  0  0  0  0
  -10.3100    4.9220  -15.9700 H   0  0  0  0  0  0  0  0  0  0  0  0
  1  2  1  0
  2  3  1  0
  3  4  1  0
  4  5  1  0
  5  6  1  0
  6  7  1  0
  7  8  2  0
  8  9  1  0
  9 10  2  0
 10 11  1  0
 11 12  2  0
 12  3  1  0
 12  7  1  0
  1 13  1  0
  1 14  1  0
  1 15  1  0
  2 16  1  0
  3 17  1  0
  4 18  1  0
  4 19  1  0
  5 20  1  0
  5 21  1  0
  8 22  1  0
  9 23  1  0
 10 24  1  0
 11 25  1  0
A    1
 C1 
A    2
 N1 
A    3
 C2 
A    4
 C3 
A    5
 C4 
A    6
 S1 
A    7
 C5 
A    8
 C6 
A    9
 C7 
A   10
 C8 
A   11
 C9 
A   12
 C10
A   13
 H1 
A   14
 H2 
A   15
 H3 
A   16
 H4 
A   17
 H5 
A   18
 H6 
A   19
 H7 
A   20
 H8 
A   21
 H9 
A   22
 H10
A   23
 H11
A   24
 H12
A   25
 H13
M  END
>  <ref_pdb>  (286) 
x0051_0B

>  <ref_mols>  (286) 
x0455_0B,x0951_0B

>  <original SMILES>  (286) 
[H]c1c([H])c([H])c2c(c1[H])SC([H])([H])C([H])([H])C2([H])N([H])C([H])([H])[H]

>  <index>  (286) 
562

>  <∆∆G>  (286) 
-6.698534

>  <∆G_bound>  (286) 
-6.635048

>  <∆G_unbound>  (286) 
0.063485

>  <comRMSD>  (286) 
0.732975

>  <N_constrained_atoms>  (286) 
14.0

>  <N_unconstrained_atoms>  (286) 
0.0

>  <runtime>  (286) 
21.708365

>  <LE>  (286) 
0.478467

>  <percent_hybrid>  (286) 
34.0

>  <dist>  (286) 
3.0

>  <ecfp4>  (286) 
0.196078

>  <daylight>  (286) 
0.194444

>  <topodist>  (286) 
1.0

>  <mces>  (286) 
13.0

>  <tdn>  (286) 
0.0

>  <tup>  (286) 
0.0

>  <rdn>  (286) 
0.0

>  <rup>  (286) 
0.0

>  <ldn>  (286) 
1.0

>  <lup>  (286) 
0.0

>  <mut>  (286) 
2.0

>  <maj>  (286) 
2.0

>  <min>  (286) 
0.0

>  <hyb>  (286) 
0.0

>  <sub>  (286) 
0.0

>  <query_index>  (286) 
288.0

>  <max_hit_Tanimoto>  (286) 
0.181564

>  <largest_ring>  (286) 
6

>  <N_interactions_kept>  (286) 
0.5

>  <N_interactions_lost>  (286) 
2.0

>  <interaction_uniqueness_metric>  (286) 
0.110284

>  <ad_hoc_penalty>  (286) 
-20.293223

>  <N_rotatable_bonds>  (286) 
2

>  <N_HA>  (286) 
12

>  <cluster>  (286) 
5704

>  <N_interactions>  (286) 
5

>  <Enamine>  (286) 
1

>  <Mcule>  (286) 
0

>  <N_PAINS>  (286) 
0

>  <UFF_Gibbs>  (286) 
47.875479

>  <strain_per_HA>  (286) 
3.989623

>  <intxn_scored>  (286) 
9.0

>  <saltbridge:HIS:51>  (286) 
0

>  <pistack:HIS:51>  (286) 
0

>  <hydroph_interaction:HIS:51>  (286) 
0

>  <hbond:ALA:132>  (286) 
0

>  <hbond:SER:135>  (286) 
0

>  <hydroph_interaction:TYR:150>  (286) 
1

>  <pistack:TYR:161>  (286) 
1

>  <hydroph_interaction:TYR:161>  (286) 
0

>  <hydroph_interaction:ASP:83>  (286) 
0

>  <hbond:TYR:130>  (286) 
0

>  <hydroph_interaction:ALA:132>  (286) 
1

>  <hbond:HIS:51>  (286) 
0

>  <hbond:ASP:129>  (286) 
0

>  <hbond:TYR:150>  (286) 
0

>  <hbond:GLY:151>  (286) 
0

>  <hbond:TYR:161>  (286) 
2

>  <hydroph_interaction:TYR:130>  (286) 
0

>  <hydroph_interaction:PRO:131>  (286) 
0

>  <hydroph_interaction:ASP:129>  (286) 
0

>  <saltbridge:ASP:75>  (286) 
0

>  <saltbridge:ASP:83>  (286) 
0

>  <hbond:ASN:152>  (286) 
0

>  <hydroph_interaction:ASN:152>  (286) 
0

>  <halogenbond:TYR:150>  (286) 
0

>  <hbond:ASP:83>  (286) 
0

>  <hydroph_interaction:VAL:155>  (286) 
0

>  <pication:TYR:161>  (286) 
0

>  <hbond:PRO:131>  (286) 
0

>  <saltbridge:ASP:129>  (286) 
0

>  <hbond:THR:134>  (286) 
0

>  <pication:HIS:51>  (286) 
0

>  <hbond:SER:81>  (286) 
0

>  <hydroph_interaction:THR:134>  (286) 
0

>  <hydroph_interaction:MET:49>  (286) 
0

$$$$
Z2784708540
     RDKit          3D

 41 43  0  0  0  0  0  0  0  0999 V2000
   -8.6890    4.3540   -9.0820 C   0  0  0  0  0  0  0  0  0  0  0  0
   -8.7550    4.9140  -10.3450 C   0  0  0  0  0  0  0  0  0  0  0  0
   -8.6850    4.2180  -11.5390 C   0  0  0  0  0  0  0  0  0  0  0  0
   -8.7730    5.0060  -12.6840 C   0  0  0  0  0  0  0  0  0  0  0  0
   -8.7320    4.6850  -14.0230 N   0  0  0  0  0  0  0  0  0  0  0  0
   -8.2630    5.5730  -14.9530 C   0  0  0  0  0  0  0  0  0  0  0  0
   -7.6680    6.6090  -14.6860 O   0  0  0  0  0  0  0  0  0  0  0  0
   -8.4910    5.2890  -16.4270 C   0  0  0  0  0  0  0  0  0  0  0  0
   -9.8630    4.8340  -16.8190 C   0  0  0  0  0  0  0  0  0  0  0  0
  -10.1790    4.5570  -18.2810 C   0  0  0  0  0  0  0  0  0  0  0  0
   -9.0470    4.7520  -19.2950 C   0  0  0  0  0  0  0  0  0  0  0  0
   -7.7870    5.1670  -18.8660 C   0  0  0  0  0  0  0  0  0  0  0  0
   -7.5190    5.4400  -17.3820 C   0  0  0  0  0  0  0  0  0  0  0  0
   -5.9480    5.9470  -16.9390 S   0  0  0  0  0  0  0  0  0  0  0  0
   -5.0190    5.3090  -18.3610 C   0  0  0  0  0  0  0  0  0  0  0  0
   -4.6480    6.4440  -19.2820 C   0  0  0  0  0  0  0  0  0  0  0  0
   -5.7420    7.5010  -19.4270 C   0  0  0  0  0  0  0  0  0  0  0  0
   -5.6710    7.9020  -20.7490 C   0  0  0  0  0  0  0  0  0  0  0  0
   -4.7440    7.0180  -21.5460 C   0  0  0  0  0  0  0  0  0  0  0  0
   -4.3410    5.9920  -20.6210 O   0  0  0  0  0  0  0  0  0  0  0  0
   -8.9190    6.3340  -12.3110 C   0  0  0  0  0  0  0  0  0  0  0  0
   -8.9370    6.5800  -10.6160 S   0  0  0  0  0  0  0  0  0  0  0  0
   -9.4280    4.7970   -8.4120 H   0  0  0  0  0  0  0  0  0  0  0  0
   -8.8980    3.2810   -9.1330 H   0  0  0  0  0  0  0  0  0  0  0  0
   -7.7000    4.4970   -8.6390 H   0  0  0  0  0  0  0  0  0  0  0  0
   -8.5660    3.1370  -11.5980 H   0  0  0  0  0  0  0  0  0  0  0  0
   -9.2520    3.8680  -14.3480 H   0  0  0  0  0  0  0  0  0  0  0  0
  -10.6930    4.6730  -16.1420 H   0  0  0  0  0  0  0  0  0  0  0  0
  -11.1640    4.2340  -18.6010 H   0  0  0  0  0  0  0  0  0  0  0  0
   -9.2210    4.5660  -20.3490 H   0  0  0  0  0  0  0  0  0  0  0  0
   -6.9820    5.3050  -19.5820 H   0  0  0  0  0  0  0  0  0  0  0  0
   -5.6830    4.6210  -18.8930 H   0  0  0  0  0  0  0  0  0  0  0  0
   -4.1290    4.7600  -18.0290 H   0  0  0  0  0  0  0  0  0  0  0  0
   -3.7460    6.9240  -18.8780 H   0  0  0  0  0  0  0  0  0  0  0  0
   -6.7360    7.0890  -19.2180 H   0  0  0  0  0  0  0  0  0  0  0  0
   -5.5660    8.3570  -18.7630 H   0  0  0  0  0  0  0  0  0  0  0  0
   -5.3620    8.9500  -20.8300 H   0  0  0  0  0  0  0  0  0  0  0  0
   -6.6760    7.8160  -21.1860 H   0  0  0  0  0  0  0  0  0  0  0  0
   -3.8760    7.5730  -21.9300 H   0  0  0  0  0  0  0  0  0  0  0  0
   -5.2510    6.5510  -22.4020 H   0  0  0  0  0  0  0  0  0  0  0  0
   -9.0180    7.2060  -12.9720 H   0  0  0  0  0  0  0  0  0  0  0  0
  1  2  1  0
  2  3  2  0
  3  4  1  0
  4  5  1  0
  5  6  1  0
  6  7  2  0
  6  8  1  0
  8  9  2  0
  9 10  1  0
 10 11  2  0
 11 12  1  0
 12 13  2  0
 13 14  1  0
 14 15  1  0
 15 16  1  0
 16 17  1  0
 17 18  1  0
 18 19  1  0
 19 20  1  0
  4 21  2  0
 21 22  1  0
 22  2  1  0
 13  8  1  0
 20 16  1  0
  1 23  1  0
  1 24  1  0
  1 25  1  0
  3 26  1  0
  5 27  1  0
  9 28  1  0
 10 29  1  0
 11 30  1  0
 12 31  1  0
 15 32  1  0
 15 33  1  0
 16 34  1  0
 17 35  1  0
 17 36  1  0
 18 37  1  0
 18 38  1  0
 19 39  1  0
 19 40  1  0
 21 41  1  0
A    1
 C1 
A    2
 C2 
A    3
 C3 
A    4
 C4 
A    5
 N1 
A    6
 C5 
A    7
 O1 
A    8
 C6 
A    9
 C7 
A   10
 C8 
A   11
 C9 
A   12
 C10
A   13
 C11
A   14
 S1 
A   15
 C12
A   16
 C13
A   17
 C14
A   18
 C15
A   19
 C16
A   20
 O2 
A   21
 C17
A   22
 S2 
A   23
 H1 
A   24
 H2 
A   25
 H3 
A   26
 H4 
A   27
 H5 
A   28
 H6 
A   29
 H7 
A   30
 H8 
A   31
 H9 
A   32
 H10
A   33
 H11
A   34
 H12
A   35
 H13
A   36
 H14
A   37
 H15
A   38
 H16
A   39
 H17
A   40
 H18
A   41
 H19
M  END
>  <ref_pdb>  (287) 
x0051_0B

>  <ref_mols>  (287) 
x1098_0B,x0229_0B

>  <original SMILES>  (287) 
[H]c1sc(C([H])([H])[H])c([H])c1N([H])C(=O)c1c([H])c([H])c([H])c([H])c1SC([H])([H])C1([H])OC([H])([H])C([H])([H])C1([H])[H]

>  <index>  (287) 
2665

>  <∆∆G>  (287) 
-9.697878

>  <∆G_bound>  (287) 
-8.328415

>  <∆G_unbound>  (287) 
1.369463

>  <comRMSD>  (287) 
0.703338

>  <N_constrained_atoms>  (287) 
26.0

>  <N_unconstrained_atoms>  (287) 
0.0

>  <runtime>  (287) 
43.740628

>  <LE>  (287) 
0.372995

>  <percent_hybrid>  (287) 
43.0

>  <dist>  (287) 
7.0

>  <ecfp4>  (287) 
0.21978

>  <daylight>  (287) 
0.204969

>  <topodist>  (287) 
3.0

>  <mces>  (287) 
24.0

>  <tdn>  (287) 
2.0

>  <tup>  (287) 
0.0

>  <rdn>  (287) 
1.0

>  <rup>  (287) 
0.0

>  <ldn>  (287) 
0.0

>  <lup>  (287) 
0.0

>  <mut>  (287) 
4.0

>  <maj>  (287) 
4.0

>  <min>  (287) 
0.0

>  <hyb>  (287) 
0.0

>  <sub>  (287) 
2.0

>  <query_index>  (287) 
28.0

>  <max_hit_Tanimoto>  (287) 
0.304762

>  <largest_ring>  (287) 
6

>  <N_interactions_kept>  (287) 
1.5

>  <N_interactions_lost>  (287) 
4.0

>  <interaction_uniqueness_metric>  (287) 
0.174013

>  <ad_hoc_penalty>  (287) 
-2.457473

>  <N_rotatable_bonds>  (287) 
6

>  <N_HA>  (287) 
22

>  <cluster>  (287) 
3760

>  <N_interactions>  (287) 
6

>  <Enamine>  (287) 
1

>  <Mcule>  (287) 
0

>  <N_PAINS>  (287) 
0

>  <UFF_Gibbs>  (287) 
167.66589

>  <strain_per_HA>  (287) 
7.621177

>  <intxn_scored>  (287) 
9.0

>  <saltbridge:HIS:51>  (287) 
0

>  <pistack:HIS:51>  (287) 
1

>  <hydroph_interaction:HIS:51>  (287) 
1

>  <hbond:ALA:132>  (287) 
0

>  <hbond:SER:135>  (287) 
0

>  <hydroph_interaction:TYR:150>  (287) 
1

>  <pistack:TYR:161>  (287) 
1

>  <hydroph_interaction:TYR:161>  (287) 
0

>  <hydroph_interaction:ASP:83>  (287) 
0

>  <hbond:TYR:130>  (287) 
0

>  <hydroph_interaction:ALA:132>  (287) 
0

>  <hbond:HIS:51>  (287) 
0

>  <hbond:ASP:129>  (287) 
0

>  <hbond:TYR:150>  (287) 
0

>  <hbond:GLY:151>  (287) 
1

>  <hbond:TYR:161>  (287) 
1

>  <hydroph_interaction:TYR:130>  (287) 
0

>  <hydroph_interaction:PRO:131>  (287) 
0

>  <hydroph_interaction:ASP:129>  (287) 
0

>  <saltbridge:ASP:75>  (287) 
0

>  <saltbridge:ASP:83>  (287) 
0

>  <hbond:ASN:152>  (287) 
0

>  <hydroph_interaction:ASN:152>  (287) 
0

>  <halogenbond:TYR:150>  (287) 
0

>  <hbond:ASP:83>  (287) 
0

>  <hydroph_interaction:VAL:155>  (287) 
0

>  <pication:TYR:161>  (287) 
0

>  <hbond:PRO:131>  (287) 
0

>  <saltbridge:ASP:129>  (287) 
0

>  <hbond:THR:134>  (287) 
0

>  <pication:HIS:51>  (287) 
0

>  <hbond:SER:81>  (287) 
0

>  <hydroph_interaction:THR:134>  (287) 
0

>  <hydroph_interaction:MET:49>  (287) 
0

$$$$
CSSS00031013804
     RDKit          3D

 28 29  0  0  0  0  0  0  0  0999 V2000
   -1.9640    4.8080  -21.6370 C   0  0  0  0  0  0  0  0  0  0  0  0
   -3.3500    5.3960  -21.7500 C   0  0  0  0  0  0  0  0  0  0  0  0
   -3.8630    5.9760  -23.2840 Cl  0  0  0  0  0  0  0  0  0  0  0  0
   -4.1570    5.4250  -20.4970 C   0  0  0  0  0  0  0  0  0  0  0  0
   -5.5320    5.9580  -20.4270 C   0  0  0  0  0  0  0  0  0  0  0  0
   -6.1570    5.3630  -19.3750 N   0  0  0  0  0  0  0  0  0  0  0  0
   -7.5400    5.0510  -19.2400 C   0  0  0  0  0  0  0  0  0  0  0  0
   -7.8800    5.1730  -17.9220 C   0  0  0  0  0  0  0  0  0  0  0  0
   -9.0540    4.9740  -17.2350 C   0  0  0  0  0  0  0  0  0  0  0  0
   -9.0500    5.2070  -15.8540 C   0  0  0  0  0  0  0  0  0  0  0  0
   -7.8490    5.6360  -15.2050 C   0  0  0  0  0  0  0  0  0  0  0  0
   -6.6490    5.8300  -15.9430 C   0  0  0  0  0  0  0  0  0  0  0  0
   -6.7660    5.5730  -17.2910 C   0  0  0  0  0  0  0  0  0  0  0  0
   -5.6670    5.7200  -18.1170 C   0  0  0  0  0  0  0  0  0  0  0  0
   -1.5170    4.7000  -22.6330 H   0  0  0  0  0  0  0  0  0  0  0  0
   -2.0010    3.8030  -21.2000 H   0  0  0  0  0  0  0  0  0  0  0  0
   -1.3150    5.4380  -21.0230 H   0  0  0  0  0  0  0  0  0  0  0  0
   -3.8620    5.0710  -19.5190 H   0  0  0  0  0  0  0  0  0  0  0  0
   -5.4740    7.0330  -20.2170 H   0  0  0  0  0  0  0  0  0  0  0  0
   -6.1900    5.8670  -21.2850 H   0  0  0  0  0  0  0  0  0  0  0  0
   -7.6770    4.0720  -19.6780 H   0  0  0  0  0  0  0  0  0  0  0  0
   -8.1030    5.6920  -19.9070 H   0  0  0  0  0  0  0  0  0  0  0  0
   -9.9100    4.6450  -17.8330 H   0  0  0  0  0  0  0  0  0  0  0  0
   -9.9600    5.0600  -15.2770 H   0  0  0  0  0  0  0  0  0  0  0  0
   -7.8560    5.8130  -14.1330 H   0  0  0  0  0  0  0  0  0  0  0  0
   -5.7290    6.1530  -15.4600 H   0  0  0  0  0  0  0  0  0  0  0  0
   -5.3190    6.7590  -18.1220 H   0  0  0  0  0  0  0  0  0  0  0  0
   -4.8270    5.1020  -17.7910 H   0  0  0  0  0  0  0  0  0  0  0  0
  1  2  1  0
  2  3  1  0
  2  4  2  0
  4  5  1  0
  5  6  1  0
  6  7  1  0
  7  8  1  0
  8  9  2  0
  9 10  1  0
 10 11  2  0
 11 12  1  0
 12 13  2  0
 13 14  1  0
 14  6  1  0
 13  8  1  0
  1 15  1  0
  1 16  1  0
  1 17  1  0
  4 18  1  0
  5 19  1  0
  5 20  1  0
  7 21  1  0
  7 22  1  0
  9 23  1  0
 10 24  1  0
 11 25  1  0
 12 26  1  0
 14 27  1  0
 14 28  1  0
A    1
 C1 
A    2
 C2 
A    3
CL1 
A    4
 C3 
A    5
 C4 
A    6
 N1 
A    7
 C5 
A    8
 C6 
A    9
 C7 
A   10
 C8 
A   11
 C9 
A   12
 C10
A   13
 C11
A   14
 C12
A   15
 H1 
A   16
 H2 
A   17
 H3 
A   18
 H4 
A   19
 H5 
A   20
 H6 
A   21
 H7 
A   22
 H8 
A   23
 H9 
A   24
 H10
A   25
 H11
A   26
 H12
A   27
 H13
A   28
 H14
M  END
>  <ref_pdb>  (288) 
x0051_0B

>  <ref_mols>  (288) 
x0969_0B,x0904_0B

>  <original SMILES>  (288) 
[H]/C(=C(/Cl)C([H])([H])[H])C([H])([H])N1C([H])([H])c2c([H])c([H])c([H])c([H])c2C1([H])[H]

>  <index>  (288) 
2898

>  <∆∆G>  (288) 
-5.738504

>  <∆G_bound>  (288) 
-5.487939

>  <∆G_unbound>  (288) 
0.250565

>  <comRMSD>  (288) 
0.716605

>  <N_constrained_atoms>  (288) 
17.0

>  <N_unconstrained_atoms>  (288) 
0.0

>  <runtime>  (288) 
27.722838

>  <LE>  (288) 
0.337559

>  <percent_hybrid>  (288) 
30.0

>  <dist>  (288) 
9.0

>  <ecfp4>  (288) 
0.125

>  <daylight>  (288) 
0.16092

>  <topodist>  (288) 
4.0

>  <mces>  (288) 
14.0

>  <tdn>  (288) 
2.0

>  <tup>  (288) 
0.0

>  <rdn>  (288) 
1.0

>  <rup>  (288) 
1.0

>  <ldn>  (288) 
0.0

>  <lup>  (288) 
0.0

>  <mut>  (288) 
4.0

>  <maj>  (288) 
4.0

>  <min>  (288) 
0.0

>  <hyb>  (288) 
1.0

>  <sub>  (288) 
2.0

>  <query_index>  (288) 
119.0

>  <max_hit_Tanimoto>  (288) 
0.142638

>  <largest_ring>  (288) 
6

>  <N_interactions_kept>  (288) 
1.5

>  <N_interactions_lost>  (288) 
2.0

>  <interaction_uniqueness_metric>  (288) 
0.027887

>  <ad_hoc_penalty>  (288) 
-2.019979

>  <N_rotatable_bonds>  (288) 
3

>  <N_HA>  (288) 
14

>  <cluster>  (288) 
3542

>  <N_interactions>  (288) 
3

>  <Enamine>  (288) 
1

>  <Mcule>  (288) 
0

>  <N_PAINS>  (288) 
0

>  <UFF_Gibbs>  (288) 
74.142829

>  <strain_per_HA>  (288) 
5.295916

>  <intxn_scored>  (288) 
9.0

>  <saltbridge:HIS:51>  (288) 
0

>  <pistack:HIS:51>  (288) 
0

>  <hydroph_interaction:HIS:51>  (288) 
0

>  <hbond:ALA:132>  (288) 
0

>  <hbond:SER:135>  (288) 
0

>  <hydroph_interaction:TYR:150>  (288) 
0

>  <pistack:TYR:161>  (288) 
2

>  <hydroph_interaction:TYR:161>  (288) 
1

>  <hydroph_interaction:ASP:83>  (288) 
0

>  <hbond:TYR:130>  (288) 
0

>  <hydroph_interaction:ALA:132>  (288) 
0

>  <hbond:HIS:51>  (288) 
0

>  <hbond:ASP:129>  (288) 
0

>  <hbond:TYR:150>  (288) 
0

>  <hbond:GLY:151>  (288) 
0

>  <hbond:TYR:161>  (288) 
0

>  <hydroph_interaction:TYR:130>  (288) 
0

>  <hydroph_interaction:PRO:131>  (288) 
0

>  <hydroph_interaction:ASP:129>  (288) 
0

>  <saltbridge:ASP:75>  (288) 
0

>  <saltbridge:ASP:83>  (288) 
0

>  <hbond:ASN:152>  (288) 
0

>  <hydroph_interaction:ASN:152>  (288) 
0

>  <halogenbond:TYR:150>  (288) 
0

>  <hbond:ASP:83>  (288) 
0

>  <hydroph_interaction:VAL:155>  (288) 
0

>  <pication:TYR:161>  (288) 
0

>  <hbond:PRO:131>  (288) 
0

>  <saltbridge:ASP:129>  (288) 
0

>  <hbond:THR:134>  (288) 
0

>  <pication:HIS:51>  (288) 
0

>  <hbond:SER:81>  (288) 
0

>  <hydroph_interaction:THR:134>  (288) 
0

>  <hydroph_interaction:MET:49>  (288) 
0

$$$$
PV-007040416179
     RDKit          3D

 30 31  0  0  0  0  0  0  0  0999 V2000
   -2.0090    7.1630  -17.2520 C   0  0  0  0  0  0  0  0  0  0  0  0
   -1.5390    6.1060  -18.1970 C   0  0  0  0  0  0  0  0  0  0  0  0
   -2.2920    5.2410  -18.9700 C   0  0  0  0  0  0  0  0  0  0  0  0
   -3.7480    5.3050  -18.9030 C   0  0  0  0  0  0  0  0  0  0  0  0
   -4.5360    5.4140  -20.0630 C   0  0  0  0  0  0  0  0  0  0  0  0
   -5.9280    5.4780  -19.9520 C   0  0  0  0  0  0  0  0  0  0  0  0
   -6.5430    5.4400  -18.6980 C   0  0  0  0  0  0  0  0  0  0  0  0
   -7.9400    5.5070  -18.6290 N   0  0  0  0  0  0  0  0  0  0  0  0
   -5.7600    5.3330  -17.5380 C   0  0  0  0  0  0  0  0  0  0  0  0
   -6.4270    5.2960  -16.1880 C   0  0  0  0  0  0  0  0  0  0  0  0
   -4.3520    5.2590  -17.6420 C   0  0  0  0  0  0  0  0  0  0  0  0
   -3.4980    5.1300  -16.4030 C   0  0  0  0  0  0  0  0  0  0  0  0
   -1.4670    4.3700  -19.7490 C   0  0  0  0  0  0  0  0  0  0  0  0
   -0.1270    4.6140  -19.5290 C   0  0  0  0  0  0  0  0  0  0  0  0
    0.1400    5.8670  -18.4080 S   0  0  0  0  0  0  0  0  0  0  0  0
   -1.5140    8.1150  -17.4690 H   0  0  0  0  0  0  0  0  0  0  0  0
   -3.0890    7.3080  -17.3490 H   0  0  0  0  0  0  0  0  0  0  0  0
   -1.7910    6.9130  -16.2110 H   0  0  0  0  0  0  0  0  0  0  0  0
   -4.0750    5.4490  -21.0480 H   0  0  0  0  0  0  0  0  0  0  0  0
   -6.5240    5.5600  -20.8540 H   0  0  0  0  0  0  0  0  0  0  0  0
   -8.3090    5.2460  -17.7220 H   0  0  0  0  0  0  0  0  0  0  0  0
   -8.4050    4.9990  -19.3750 H   0  0  0  0  0  0  0  0  0  0  0  0
   -5.8660    4.6850  -15.4750 H   0  0  0  0  0  0  0  0  0  0  0  0
   -6.5250    6.3110  -15.7930 H   0  0  0  0  0  0  0  0  0  0  0  0
   -7.4190    4.8360  -16.2350 H   0  0  0  0  0  0  0  0  0  0  0  0
   -3.4490    6.0760  -15.8550 H   0  0  0  0  0  0  0  0  0  0  0  0
   -3.9080    4.4100  -15.6900 H   0  0  0  0  0  0  0  0  0  0  0  0
   -2.4880    4.8090  -16.6750 H   0  0  0  0  0  0  0  0  0  0  0  0
   -1.8320    3.6080  -20.4290 H   0  0  0  0  0  0  0  0  0  0  0  0
    0.7180    4.1170  -19.9700 H   0  0  0  0  0  0  0  0  0  0  0  0
  1  2  1  0
  2  3  2  0
  3  4  1  0
  4  5  2  0
  5  6  1  0
  6  7  2  0
  7  8  1  0
  7  9  1  0
  9 10  1  0
  9 11  2  0
 11 12  1  0
  3 13  1  0
 13 14  2  0
 14 15  1  0
 15  2  1  0
 11  4  1  0
  1 16  1  0
  1 17  1  0
  1 18  1  0
  5 19  1  0
  6 20  1  0
  8 21  1  0
  8 22  1  0
 10 23  1  0
 10 24  1  0
 10 25  1  0
 12 26  1  0
 12 27  1  0
 12 28  1  0
 13 29  1  0
 14 30  1  0
A    1
 C1 
A    2
 C2 
A    3
 C3 
A    4
 C4 
A    5
 C5 
A    6
 C6 
A    7
 C7 
A    8
 N1 
A    9
 C8 
A   10
 C9 
A   11
 C10
A   12
 C11
A   13
 C12
A   14
 C13
A   15
 S1 
A   16
 H1 
A   17
 H2 
A   18
 H3 
A   19
 H4 
A   20
 H5 
A   21
 H6 
A   22
 H7 
A   23
 H8 
A   24
 H9 
A   25
 H10
A   26
 H11
A   27
 H12
A   28
 H13
A   29
 H14
A   30
 H15
M  END
>  <ref_pdb>  (289) 
x0051_0B

>  <ref_mols>  (289) 
x0680_0B,x0472_0B

>  <original SMILES>  (289) 
[H]c1sc(C([H])([H])[H])c(-c2c([H])c([H])c(N([H])[H])c(C([H])([H])[H])c2C([H])([H])[H])c1[H]

>  <index>  (289) 
1692

>  <∆∆G>  (289) 
-7.626747

>  <∆G_bound>  (289) 
-8.622777

>  <∆G_unbound>  (289) 
-0.99603

>  <comRMSD>  (289) 
0.85527

>  <N_constrained_atoms>  (289) 
13.0

>  <N_unconstrained_atoms>  (289) 
6.0

>  <runtime>  (289) 
20.746741

>  <LE>  (289) 
0.401408

>  <percent_hybrid>  (289) 
40.0

>  <dist>  (289) 
4.0

>  <ecfp4>  (289) 
0.258621

>  <daylight>  (289) 
0.331754

>  <topodist>  (289) 
2.0

>  <mces>  (289) 
16.0

>  <tdn>  (289) 
1.0

>  <tup>  (289) 
0.0

>  <rdn>  (289) 
1.0

>  <rup>  (289) 
0.0

>  <ldn>  (289) 
0.0

>  <lup>  (289) 
0.0

>  <mut>  (289) 
2.0

>  <maj>  (289) 
2.0

>  <min>  (289) 
0.0

>  <hyb>  (289) 
0.0

>  <sub>  (289) 
3.0

>  <query_index>  (289) 
38.0

>  <max_hit_Tanimoto>  (289) 
0.18583

>  <largest_ring>  (289) 
6

>  <N_interactions_kept>  (289) 
2.5

>  <N_interactions_lost>  (289) 
2.5

>  <interaction_uniqueness_metric>  (289) 
0.086874

>  <ad_hoc_penalty>  (289) 
-9.417224

>  <N_rotatable_bonds>  (289) 
5

>  <N_HA>  (289) 
15

>  <cluster>  (289) 
4669

>  <N_interactions>  (289) 
6

>  <Enamine>  (289) 
1

>  <Mcule>  (289) 
0

>  <N_PAINS>  (289) 
0

>  <UFF_Gibbs>  (289) 
74.794851

>  <strain_per_HA>  (289) 
4.986323

>  <intxn_scored>  (289) 
9.0

>  <saltbridge:HIS:51>  (289) 
0

>  <pistack:HIS:51>  (289) 
0

>  <hydroph_interaction:HIS:51>  (289) 
0

>  <hbond:ALA:132>  (289) 
0

>  <hbond:SER:135>  (289) 
0

>  <hydroph_interaction:TYR:150>  (289) 
0

>  <pistack:TYR:161>  (289) 
1

>  <hydroph_interaction:TYR:161>  (289) 
3

>  <hydroph_interaction:ASP:83>  (289) 
0

>  <hbond:TYR:130>  (289) 
1

>  <hydroph_interaction:ALA:132>  (289) 
0

>  <hbond:HIS:51>  (289) 
0

>  <hbond:ASP:129>  (289) 
0

>  <hbond:TYR:150>  (289) 
0

>  <hbond:GLY:151>  (289) 
0

>  <hbond:TYR:161>  (289) 
0

>  <hydroph_interaction:TYR:130>  (289) 
0

>  <hydroph_interaction:PRO:131>  (289) 
0

>  <hydroph_interaction:ASP:129>  (289) 
0

>  <saltbridge:ASP:75>  (289) 
0

>  <saltbridge:ASP:83>  (289) 
0

>  <hbond:ASN:152>  (289) 
0

>  <hydroph_interaction:ASN:152>  (289) 
0

>  <halogenbond:TYR:150>  (289) 
0

>  <hbond:ASP:83>  (289) 
0

>  <hydroph_interaction:VAL:155>  (289) 
1

>  <pication:TYR:161>  (289) 
0

>  <hbond:PRO:131>  (289) 
0

>  <saltbridge:ASP:129>  (289) 
0

>  <hbond:THR:134>  (289) 
0

>  <pication:HIS:51>  (289) 
0

>  <hbond:SER:81>  (289) 
0

>  <hydroph_interaction:THR:134>  (289) 
0

>  <hydroph_interaction:MET:49>  (289) 
0

$$$$
CSSB00000740695
     RDKit          3D

 33 33  0  0  0  0  0  0  0  0999 V2000
   -5.8480    6.6750  -23.2700 C   0  0  0  0  0  0  0  0  0  0  0  0
   -5.2470    5.5830  -22.3790 C   0  0  0  0  0  0  0  0  0  0  0  0
   -4.9930    6.0770  -20.9640 C   0  0  0  0  0  0  0  0  0  0  0  0
   -4.7880    7.5240  -20.9740 C   0  0  0  0  0  0  0  0  0  0  0  0
   -6.1640    5.8150  -20.1180 N   0  0  0  0  0  0  0  0  0  0  0  0
   -6.0120    5.7150  -18.7550 C   0  0  0  0  0  0  0  0  0  0  0  0
   -4.7610    5.8650  -18.0740 O   0  0  0  0  0  0  0  0  0  0  0  0
   -7.1350    5.4630  -18.0390 C   0  0  0  0  0  0  0  0  0  0  0  0
   -6.9300    5.5680  -16.6630 C   0  0  0  0  0  0  0  0  0  0  0  0
   -8.0160    5.3320  -15.8110 C   0  0  0  0  0  0  0  0  0  0  0  0
   -9.2570    5.0040  -16.3700 C   0  0  0  0  0  0  0  0  0  0  0  0
   -9.4190    4.9090  -17.7530 C   0  0  0  0  0  0  0  0  0  0  0  0
  -10.6250    4.5850  -18.2780 C   0  0  0  0  0  0  0  0  0  0  0  0
  -11.1700    5.5700  -19.1670 N   0  0  0  0  0  0  0  0  0  0  0  0
   -8.3470    5.1390  -18.6020 C   0  0  0  0  0  0  0  0  0  0  0  0
   -5.0780    7.1560  -23.8780 H   0  0  0  0  0  0  0  0  0  0  0  0
   -6.3400    7.4540  -22.6750 H   0  0  0  0  0  0  0  0  0  0  0  0
   -6.5980    6.2700  -23.9540 H   0  0  0  0  0  0  0  0  0  0  0  0
   -4.2990    5.2450  -22.8240 H   0  0  0  0  0  0  0  0  0  0  0  0
   -5.9180    4.7150  -22.3570 H   0  0  0  0  0  0  0  0  0  0  0  0
   -4.0940    5.5960  -20.5550 H   0  0  0  0  0  0  0  0  0  0  0  0
   -5.7350    8.0760  -20.9620 H   0  0  0  0  0  0  0  0  0  0  0  0
   -4.1800    7.8630  -20.1280 H   0  0  0  0  0  0  0  0  0  0  0  0
   -4.2560    7.8230  -21.8850 H   0  0  0  0  0  0  0  0  0  0  0  0
   -7.0800    6.0210  -20.5380 H   0  0  0  0  0  0  0  0  0  0  0  0
   -5.9630    5.8240  -16.2430 H   0  0  0  0  0  0  0  0  0  0  0  0
   -7.9020    5.4010  -14.7330 H   0  0  0  0  0  0  0  0  0  0  0  0
  -10.1220    4.8140  -15.7400 H   0  0  0  0  0  0  0  0  0  0  0  0
  -10.4280    3.6860  -18.8340 H   0  0  0  0  0  0  0  0  0  0  0  0
  -11.4200    4.3400  -17.6160 H   0  0  0  0  0  0  0  0  0  0  0  0
  -11.4720    6.3720  -18.6100 H   0  0  0  0  0  0  0  0  0  0  0  0
  -12.0230    5.1990  -19.5770 H   0  0  0  0  0  0  0  0  0  0  0  0
   -8.4570    5.0680  -19.6830 H   0  0  0  0  0  0  0  0  0  0  0  0
  1  2  1  0
  2  3  1  0
  3  4  1  0
  3  5  1  0
  5  6  1  0
  6  7  2  0
  6  8  1  0
  8  9  2  0
  9 10  1  0
 10 11  2  0
 11 12  1  0
 12 13  1  0
 13 14  1  0
 12 15  2  0
 15  8  1  0
  1 16  1  0
  1 17  1  0
  1 18  1  0
  2 19  1  0
  2 20  1  0
  3 21  1  0
  4 22  1  0
  4 23  1  0
  4 24  1  0
  5 25  1  0
  9 26  1  0
 10 27  1  0
 11 28  1  0
 13 29  1  0
 13 30  1  0
 14 31  1  0
 14 32  1  0
 15 33  1  0
A    1
 C1 
A    2
 C2 
A    3
 C3 
A    4
 C4 
A    5
 N1 
A    6
 C5 
A    7
 O1 
A    8
 C6 
A    9
 C7 
A   10
 C8 
A   11
 C9 
A   12
 C10
A   13
 C11
A   14
 N2 
A   15
 C12
A   16
 H1 
A   17
 H2 
A   18
 H3 
A   19
 H4 
A   20
 H5 
A   21
 H6 
A   22
 H7 
A   23
 H8 
A   24
 H9 
A   25
 H10
A   26
 H11
A   27
 H12
A   28
 H13
A   29
 H14
A   30
 H15
A   31
 H16
A   32
 H17
A   33
 H18
M  END
>  <ref_pdb>  (290) 
x0051_0B

>  <ref_mols>  (290) 
x0101_0B,x0553_0B

>  <original SMILES>  (290) 
[H]c1c([H])c(C(=O)N([H])C([H])(C([H])([H])[H])C([H])([H])C([H])([H])[H])c([H])c(C([H])([H])N([H])[H])c1[H]

>  <index>  (290) 
3377

>  <∆∆G>  (290) 
-6.461617

>  <∆G_bound>  (290) 
-6.251523

>  <∆G_unbound>  (290) 
0.210094

>  <comRMSD>  (290) 
0.540324

>  <N_constrained_atoms>  (290) 
17.0

>  <N_unconstrained_atoms>  (290) 
0.0

>  <runtime>  (290) 
30.417323

>  <LE>  (290) 
0.380095

>  <percent_hybrid>  (290) 
20.0

>  <dist>  (290) 
3.0

>  <ecfp4>  (290) 
0.293103

>  <daylight>  (290) 
0.466667

>  <topodist>  (290) 
1.0

>  <mces>  (290) 
15.0

>  <tdn>  (290) 
1.0

>  <tup>  (290) 
0.0

>  <rdn>  (290) 
0.0

>  <rup>  (290) 
0.0

>  <ldn>  (290) 
0.0

>  <lup>  (290) 
0.0

>  <mut>  (290) 
2.0

>  <maj>  (290) 
2.0

>  <min>  (290) 
0.0

>  <hyb>  (290) 
0.0

>  <sub>  (290) 
1.0

>  <query_index>  (290) 
214.0

>  <max_hit_Tanimoto>  (290) 
0.48139

>  <largest_ring>  (290) 
6

>  <N_interactions_kept>  (290) 
0.5

>  <N_interactions_lost>  (290) 
3.0

>  <interaction_uniqueness_metric>  (290) 
0.290272

>  <ad_hoc_penalty>  (290) 
-1.976246

>  <N_rotatable_bonds>  (290) 
7

>  <N_HA>  (290) 
15

>  <cluster>  (290) 
3087

>  <N_interactions>  (290) 
6

>  <Enamine>  (290) 
1

>  <Mcule>  (290) 
0

>  <N_PAINS>  (290) 
0

>  <UFF_Gibbs>  (290) 
91.431507

>  <strain_per_HA>  (290) 
6.095434

>  <intxn_scored>  (290) 
9.0

>  <saltbridge:HIS:51>  (290) 
0

>  <pistack:HIS:51>  (290) 
0

>  <hydroph_interaction:HIS:51>  (290) 
0

>  <hbond:ALA:132>  (290) 
0

>  <hbond:SER:135>  (290) 
1

>  <hydroph_interaction:TYR:150>  (290) 
0

>  <pistack:TYR:161>  (290) 
1

>  <hydroph_interaction:TYR:161>  (290) 
0

>  <hydroph_interaction:ASP:83>  (290) 
0

>  <hbond:TYR:130>  (290) 
2

>  <hydroph_interaction:ALA:132>  (290) 
0

>  <hbond:HIS:51>  (290) 
0

>  <hbond:ASP:129>  (290) 
0

>  <hbond:TYR:150>  (290) 
0

>  <hbond:GLY:151>  (290) 
0

>  <hbond:TYR:161>  (290) 
0

>  <hydroph_interaction:TYR:130>  (290) 
0

>  <hydroph_interaction:PRO:131>  (290) 
0

>  <hydroph_interaction:ASP:129>  (290) 
1

>  <saltbridge:ASP:75>  (290) 
0

>  <saltbridge:ASP:83>  (290) 
0

>  <hbond:ASN:152>  (290) 
0

>  <hydroph_interaction:ASN:152>  (290) 
0

>  <halogenbond:TYR:150>  (290) 
0

>  <hbond:ASP:83>  (290) 
0

>  <hydroph_interaction:VAL:155>  (290) 
0

>  <pication:TYR:161>  (290) 
0

>  <hbond:PRO:131>  (290) 
0

>  <saltbridge:ASP:129>  (290) 
0

>  <hbond:THR:134>  (290) 
1

>  <pication:HIS:51>  (290) 
0

>  <hbond:SER:81>  (290) 
0

>  <hydroph_interaction:THR:134>  (290) 
0

>  <hydroph_interaction:MET:49>  (290) 
0

$$$$
Z1256048809
     RDKit          3D

 56 60  0  0  0  0  0  0  0  0999 V2000
   -4.5710    5.3250  -22.0830 O   0  0  0  0  0  0  0  0  0  0  0  0
   -5.2680    6.1700  -21.5380 C   0  0  0  0  0  0  0  0  0  0  0  0
   -5.8450    6.0710  -20.2920 N   0  0  0  0  0  0  0  0  0  0  0  0
   -5.1870    5.6120  -19.1360 C   0  0  0  0  0  0  0  0  0  0  0  0
   -3.7290    5.3420  -19.1450 C   0  0  0  0  0  0  0  0  0  0  0  0
   -3.1030    4.8830  -17.9340 C   0  0  0  0  0  0  0  0  0  0  0  0
   -3.8730    4.7030  -16.7910 C   0  0  0  0  0  0  0  0  0  0  0  0
   -5.2530    4.9570  -16.7910 C   0  0  0  0  0  0  0  0  0  0  0  0
   -5.9360    5.4080  -17.9390 C   0  0  0  0  0  0  0  0  0  0  0  0
   -7.3360    5.6570  -17.9150 N   0  0  0  0  0  0  0  0  0  0  0  0
   -7.9960    5.2990  -19.1920 C   0  0  0  0  0  0  0  0  0  0  0  0
   -9.4310    4.7880  -19.0560 C   0  0  0  0  0  0  0  0  0  0  0  0
  -10.1440    5.1070  -17.8490 O   0  0  0  0  0  0  0  0  0  0  0  0
   -9.4060    5.3730  -16.6340 C   0  0  0  0  0  0  0  0  0  0  0  0
   -8.0010    5.2740  -16.6400 C   0  0  0  0  0  0  0  0  0  0  0  0
   -5.5060    7.4200  -22.2730 C   0  0  0  0  0  0  0  0  0  0  0  0
   -6.1730    7.2620  -23.6230 C   0  0  0  0  0  0  0  0  0  0  0  0
   -6.4090    8.5290  -24.3610 C   0  0  0  0  0  0  0  0  0  0  0  0
   -6.0230    9.7410  -23.8100 C   0  0  0  0  0  0  0  0  0  0  0  0
   -6.3450   11.1800  -24.7840 S   0  0  0  0  0  0  0  0  0  0  0  0
   -6.0680   10.3930  -26.4210 C   0  0  0  0  0  0  0  0  0  0  0  0
   -7.2750    9.6730  -26.9280 C   0  0  0  0  0  0  0  0  0  0  0  0
   -7.3610    8.3980  -27.2700 N   0  0  0  0  0  0  0  0  0  0  0  0
   -8.6650    8.2030  -27.6560 C   0  0  0  0  0  0  0  0  0  0  0  0
   -9.3120    7.0420  -28.1010 C   0  0  0  0  0  0  0  0  0  0  0  0
  -10.6760    7.1150  -28.4260 C   0  0  0  0  0  0  0  0  0  0  0  0
  -11.3750    8.3170  -28.3100 C   0  0  0  0  0  0  0  0  0  0  0  0
  -10.7440    9.4860  -27.8730 C   0  0  0  0  0  0  0  0  0  0  0  0
   -9.3860    9.3860  -27.5540 C   0  0  0  0  0  0  0  0  0  0  0  0
   -8.4820   10.3010  -27.0970 N   0  0  0  0  0  0  0  0  0  0  0  0
   -5.4030    9.8340  -22.5480 C   0  0  0  0  0  0  0  0  0  0  0  0
   -5.1450    8.6880  -21.7820 C   0  0  0  0  0  0  0  0  0  0  0  0
   -6.6150    6.6910  -20.0520 H   0  0  0  0  0  0  0  0  0  0  0  0
   -3.1240    5.4830  -20.0360 H   0  0  0  0  0  0  0  0  0  0  0  0
   -2.0360    4.6800  -17.9180 H   0  0  0  0  0  0  0  0  0  0  0  0
   -3.3960    4.3550  -15.8780 H   0  0  0  0  0  0  0  0  0  0  0  0
   -5.7980    4.7950  -15.8670 H   0  0  0  0  0  0  0  0  0  0  0  0
   -7.4090    4.5850  -19.7800 H   0  0  0  0  0  0  0  0  0  0  0  0
   -8.0200    6.2250  -19.7740 H   0  0  0  0  0  0  0  0  0  0  0  0
  -10.0320    5.1850  -19.8840 H   0  0  0  0  0  0  0  0  0  0  0  0
   -9.4390    3.6980  -19.1510 H   0  0  0  0  0  0  0  0  0  0  0  0
   -9.7020    6.3720  -16.2980 H   0  0  0  0  0  0  0  0  0  0  0  0
   -9.8070    4.6800  -15.8900 H   0  0  0  0  0  0  0  0  0  0  0  0
   -7.7360    4.2700  -16.3240 H   0  0  0  0  0  0  0  0  0  0  0  0
   -7.6230    5.9500  -15.8630 H   0  0  0  0  0  0  0  0  0  0  0  0
   -6.4610    6.2880  -24.0200 H   0  0  0  0  0  0  0  0  0  0  0  0
   -6.8860    8.4830  -25.3310 H   0  0  0  0  0  0  0  0  0  0  0  0
   -5.2370    9.6870  -26.3160 H   0  0  0  0  0  0  0  0  0  0  0  0
   -5.7530   11.1550  -27.1410 H   0  0  0  0  0  0  0  0  0  0  0  0
   -8.7660    6.1090  -28.1860 H   0  0  0  0  0  0  0  0  0  0  0  0
  -11.1890    6.2190  -28.7700 H   0  0  0  0  0  0  0  0  0  0  0  0
  -12.4360    8.3490  -28.5680 H   0  0  0  0  0  0  0  0  0  0  0  0
  -11.2900   10.4190  -27.7880 H   0  0  0  0  0  0  0  0  0  0  0  0
   -8.6680   11.2760  -26.9090 H   0  0  0  0  0  0  0  0  0  0  0  0
   -5.1130   10.8040  -22.1500 H   0  0  0  0  0  0  0  0  0  0  0  0
   -4.6670    8.7970  -20.8120 H   0  0  0  0  0  0  0  0  0  0  0  0
  1  2  2  0
  2  3  1  0
  3  4  1  0
  4  5  2  0
  5  6  1  0
  6  7  2  0
  7  8  1  0
  8  9  2  0
  9 10  1  0
 10 11  1  0
 11 12  1  0
 12 13  1  0
 13 14  1  0
 14 15  1  0
  2 16  1  0
 16 17  2  0
 17 18  1  0
 18 19  2  0
 19 20  1  0
 20 21  1  0
 21 22  1  0
 22 23  2  0
 23 24  1  0
 24 25  2  0
 25 26  1  0
 26 27  2  0
 27 28  1  0
 28 29  2  0
 29 30  1  0
 19 31  1  0
 31 32  2  0
  9  4  1  0
 15 10  1  0
 32 16  1  0
 30 22  1  0
 29 24  1  0
  3 33  1  0
  5 34  1  0
  6 35  1  0
  7 36  1  0
  8 37  1  0
 11 38  1  0
 11 39  1  0
 12 40  1  0
 12 41  1  0
 14 42  1  0
 14 43  1  0
 15 44  1  0
 15 45  1  0
 17 46  1  0
 18 47  1  0
 21 48  1  0
 21 49  1  0
 25 50  1  0
 26 51  1  0
 27 52  1  0
 28 53  1  0
 30 54  1  0
 31 55  1  0
 32 56  1  0
A    1
 O1 
A    2
 C1 
A    3
 N1 
A    4
 C2 
A    5
 C3 
A    6
 C4 
A    7
 C5 
A    8
 C6 
A    9
 C7 
A   10
 N2 
A   11
 C8 
A   12
 C9 
A   13
 O2 
A   14
 C10
A   15
 C11
A   16
 C12
A   17
 C13
A   18
 C14
A   19
 C15
A   20
 S1 
A   21
 C16
A   22
 C17
A   23
 N3 
A   24
 C18
A   25
 C19
A   26
 C20
A   27
 C21
A   28
 C22
A   29
 C23
A   30
 N4 
A   31
 C24
A   32
 C25
A   33
 H1 
A   34
 H2 
A   35
 H3 
A   36
 H4 
A   37
 H5 
A   38
 H6 
A   39
 H7 
A   40
 H8 
A   41
 H9 
A   42
 H10
A   43
 H11
A   44
 H12
A   45
 H13
A   46
 H14
A   47
 H15
A   48
 H16
A   49
 H17
A   50
 H18
A   51
 H19
A   52
 H20
A   53
 H21
A   54
 H22
A   55
 H23
A   56
 H24
M  END
>  <ref_pdb>  (291) 
x0051_0B

>  <ref_mols>  (291) 
x0465_0B,x0846_1B

>  <original SMILES>  (291) 
[H]c1c([H])c([H])c(N2C([H])([H])C([H])([H])OC([H])([H])C2([H])[H])c(N([H])C(=O)c2c([H])c([H])c(SC([H])([H])c3nc4c([H])c([H])c([H])c([H])c4n3[H])c([H])c2[H])c1[H]

>  <index>  (291) 
290

>  <∆∆G>  (291) 
-9.135278

>  <∆G_bound>  (291) 
-7.478973

>  <∆G_unbound>  (291) 
1.656305

>  <comRMSD>  (291) 
0.635951

>  <N_constrained_atoms>  (291) 
30.0

>  <N_unconstrained_atoms>  (291) 
2.0

>  <runtime>  (291) 
49.305494

>  <LE>  (291) 
0.285477

>  <percent_hybrid>  (291) 
40.0

>  <dist>  (291) 
8.0

>  <ecfp4>  (291) 
0.301205

>  <daylight>  (291) 
0.35865

>  <topodist>  (291) 
3.0

>  <mces>  (291) 
35.0

>  <tdn>  (291) 
2.0

>  <tup>  (291) 
1.0

>  <rdn>  (291) 
0.0

>  <rup>  (291) 
0.0

>  <ldn>  (291) 
0.0

>  <lup>  (291) 
0.0

>  <mut>  (291) 
4.0

>  <maj>  (291) 
4.0

>  <min>  (291) 
0.0

>  <hyb>  (291) 
1.0

>  <sub>  (291) 
1.0

>  <query_index>  (291) 
127.0

>  <max_hit_Tanimoto>  (291) 
0.290828

>  <largest_ring>  (291) 
0

>  <N_interactions_kept>  (291) 
1.0

>  <N_interactions_lost>  (291) 
3.0

>  <interaction_uniqueness_metric>  (291) 
0.272101

>  <ad_hoc_penalty>  (291) 
-21.724058

>  <N_rotatable_bonds>  (291) 
6

>  <N_HA>  (291) 
32

>  <cluster>  (291) 
5952

>  <N_interactions>  (291) 
8

>  <Enamine>  (291) 
1

>  <Mcule>  (291) 
0

>  <N_PAINS>  (291) 
0

>  <UFF_Gibbs>  (291) 
269.267788

>  <strain_per_HA>  (291) 
8.414618

>  <intxn_scored>  (291) 
9.0

>  <saltbridge:HIS:51>  (291) 
0

>  <pistack:HIS:51>  (291) 
0

>  <hydroph_interaction:HIS:51>  (291) 
0

>  <hbond:ALA:132>  (291) 
0

>  <hbond:SER:135>  (291) 
1

>  <hydroph_interaction:TYR:150>  (291) 
0

>  <pistack:TYR:161>  (291) 
1

>  <hydroph_interaction:TYR:161>  (291) 
1

>  <hydroph_interaction:ASP:83>  (291) 
0

>  <hbond:TYR:130>  (291) 
1

>  <hydroph_interaction:ALA:132>  (291) 
0

>  <hbond:HIS:51>  (291) 
0

>  <hbond:ASP:129>  (291) 
1

>  <hbond:TYR:150>  (291) 
0

>  <hbond:GLY:151>  (291) 
0

>  <hbond:TYR:161>  (291) 
0

>  <hydroph_interaction:TYR:130>  (291) 
1

>  <hydroph_interaction:PRO:131>  (291) 
1

>  <hydroph_interaction:ASP:129>  (291) 
0

>  <saltbridge:ASP:75>  (291) 
0

>  <saltbridge:ASP:83>  (291) 
0

>  <hbond:ASN:152>  (291) 
0

>  <hydroph_interaction:ASN:152>  (291) 
0

>  <halogenbond:TYR:150>  (291) 
0

>  <hbond:ASP:83>  (291) 
0

>  <hydroph_interaction:VAL:155>  (291) 
1

>  <pication:TYR:161>  (291) 
0

>  <hbond:PRO:131>  (291) 
0

>  <saltbridge:ASP:129>  (291) 
0

>  <hbond:THR:134>  (291) 
0

>  <pication:HIS:51>  (291) 
0

>  <hbond:SER:81>  (291) 
0

>  <hydroph_interaction:THR:134>  (291) 
0

>  <hydroph_interaction:MET:49>  (291) 
0

$$$$
CSSB02125399504
     RDKit          3D

 24 25  0  0  0  0  0  0  0  0999 V2000
   -5.0530    5.4330  -20.5050 C   0  0  0  0  0  0  0  0  0  0  0  0
   -5.8820    5.9990  -19.3780 C   0  0  2  0  0  0  0  0  0  0  0  0
   -5.2420    5.7200  -18.0200 C   0  0  0  0  0  0  0  0  0  0  0  0
   -6.1350    6.0300  -16.8810 C   0  0  2  0  0  0  0  0  0  0  0  0
   -5.8050    5.7350  -15.6170 C   0  0  0  0  0  0  0  0  0  0  0  0
   -7.4060    5.5420  -17.1040 N   0  0  0  0  0  0  0  0  0  0  0  0
   -8.2630    5.3190  -16.0880 N   0  0  0  0  0  0  0  0  0  0  0  0
   -9.3490    4.8580  -16.7030 C   0  0  0  0  0  0  0  0  0  0  0  0
   -9.2010    4.7800  -18.1010 C   0  0  0  0  0  0  0  0  0  0  0  0
   -7.9260    5.2370  -18.3370 C   0  0  0  0  0  0  0  0  0  0  0  0
   -7.2140    5.4070  -19.4720 N   0  0  0  0  0  0  0  0  0  0  0  0
   -5.5610    4.5890  -20.9790 H   0  0  0  0  0  0  0  0  0  0  0  0
   -4.9040    6.1840  -21.2890 H   0  0  0  0  0  0  0  0  0  0  0  0
   -4.0750    5.1060  -20.1470 H   0  0  0  0  0  0  0  0  0  0  0  0
   -5.9750    7.0850  -19.5060 H   0  0  0  0  0  0  0  0  0  0  0  0
   -4.9420    4.6720  -17.9660 H   0  0  0  0  0  0  0  0  0  0  0  0
   -4.3240    6.3040  -17.8960 H   0  0  0  0  0  0  0  0  0  0  0  0
   -6.2850    7.1150  -16.9060 H   0  0  0  0  0  0  0  0  0  0  0  0
   -6.1910    4.7470  -15.3370 H   0  0  0  0  0  0  0  0  0  0  0  0
   -4.7170    5.7260  -15.4770 H   0  0  0  0  0  0  0  0  0  0  0  0
   -6.2250    6.4630  -14.9200 H   0  0  0  0  0  0  0  0  0  0  0  0
  -10.2090    4.5940  -16.1060 H   0  0  0  0  0  0  0  0  0  0  0  0
   -9.9230    4.4440  -18.8290 H   0  0  0  0  0  0  0  0  0  0  0  0
   -7.7320    5.6780  -20.3270 H   0  0  0  0  0  0  0  0  0  0  0  0
  1  2  1  0
  2  3  1  0
  3  4  1  0
  4  5  1  0
  4  6  1  0
  6  7  1  0
  7  8  2  0
  8  9  1  0
  9 10  2  0
 10 11  1  0
 11  2  1  0
 10  6  1  0
  1 12  1  0
  1 13  1  0
  1 14  1  0
  2 15  1  6
  3 16  1  0
  3 17  1  0
  4 18  1  1
  5 19  1  0
  5 20  1  0
  5 21  1  0
  8 22  1  0
  9 23  1  0
 11 24  1  0
A    1
 C1 
A    2
 C2 
A    3
 C3 
A    4
 C4 
A    5
 C5 
A    6
 N1 
A    7
 N2 
A    8
 C6 
A    9
 C7 
A   10
 C8 
A   11
 N3 
A   12
 H1 
A   13
 H2 
A   14
 H3 
A   15
 H4 
A   16
 H5 
A   17
 H6 
A   18
 H7 
A   19
 H8 
A   20
 H9 
A   21
 H10
A   22
 H11
A   23
 H12
A   24
 H13
M  END
>  <ref_pdb>  (292) 
x0051_0B

>  <ref_mols>  (292) 
x0969_0B,x0443_0B

>  <original SMILES>  (292) 
[H]c1nn2c(c1[H])N([H])[C@]([H])(C([H])([H])[H])C([H])([H])[C@]2([H])C([H])([H])[H]

>  <index>  (292) 
1929

>  <∆∆G>  (292) 
-5.186939

>  <∆G_bound>  (292) 
-5.221695

>  <∆G_unbound>  (292) 
-0.034756

>  <comRMSD>  (292) 
0.57645

>  <N_constrained_atoms>  (292) 
12.0

>  <N_unconstrained_atoms>  (292) 
1.0

>  <runtime>  (292) 
21.834853

>  <LE>  (292) 
0.398995

>  <percent_hybrid>  (292) 
34.0

>  <dist>  (292) 
4.0

>  <ecfp4>  (292) 
0.25

>  <daylight>  (292) 
0.230392

>  <topodist>  (292) 
1.0

>  <mces>  (292) 
12.0

>  <tdn>  (292) 
1.0

>  <tup>  (292) 
0.0

>  <rdn>  (292) 
0.0

>  <rup>  (292) 
0.0

>  <ldn>  (292) 
0.0

>  <lup>  (292) 
0.0

>  <mut>  (292) 
3.0

>  <maj>  (292) 
3.0

>  <min>  (292) 
0.0

>  <hyb>  (292) 
0.0

>  <sub>  (292) 
1.0

>  <query_index>  (292) 
183.0

>  <max_hit_Tanimoto>  (292) 
0.227662

>  <largest_ring>  (292) 
6

>  <N_interactions_kept>  (292) 
1.0

>  <N_interactions_lost>  (292) 
2.5

>  <interaction_uniqueness_metric>  (292) 
0.053706

>  <ad_hoc_penalty>  (292) 
-7.602616

>  <N_rotatable_bonds>  (292) 
2

>  <N_HA>  (292) 
11

>  <cluster>  (292) 
4447

>  <N_interactions>  (292) 
5

>  <Enamine>  (292) 
1

>  <Mcule>  (292) 
0

>  <N_PAINS>  (292) 
0

>  <UFF_Gibbs>  (292) 
56.759796

>  <strain_per_HA>  (292) 
5.159981

>  <intxn_scored>  (292) 
9.0

>  <saltbridge:HIS:51>  (292) 
0

>  <pistack:HIS:51>  (292) 
0

>  <hydroph_interaction:HIS:51>  (292) 
0

>  <hbond:ALA:132>  (292) 
0

>  <hbond:SER:135>  (292) 
0

>  <hydroph_interaction:TYR:150>  (292) 
0

>  <pistack:TYR:161>  (292) 
1

>  <hydroph_interaction:TYR:161>  (292) 
3

>  <hydroph_interaction:ASP:83>  (292) 
0

>  <hbond:TYR:130>  (292) 
1

>  <hydroph_interaction:ALA:132>  (292) 
0

>  <hbond:HIS:51>  (292) 
0

>  <hbond:ASP:129>  (292) 
0

>  <hbond:TYR:150>  (292) 
0

>  <hbond:GLY:151>  (292) 
0

>  <hbond:TYR:161>  (292) 
0

>  <hydroph_interaction:TYR:130>  (292) 
0

>  <hydroph_interaction:PRO:131>  (292) 
0

>  <hydroph_interaction:ASP:129>  (292) 
0

>  <saltbridge:ASP:75>  (292) 
0

>  <saltbridge:ASP:83>  (292) 
0

>  <hbond:ASN:152>  (292) 
0

>  <hydroph_interaction:ASN:152>  (292) 
0

>  <halogenbond:TYR:150>  (292) 
0

>  <hbond:ASP:83>  (292) 
0

>  <hydroph_interaction:VAL:155>  (292) 
0

>  <pication:TYR:161>  (292) 
0

>  <hbond:PRO:131>  (292) 
0

>  <saltbridge:ASP:129>  (292) 
0

>  <hbond:THR:134>  (292) 
0

>  <pication:HIS:51>  (292) 
0

>  <hbond:SER:81>  (292) 
0

>  <hydroph_interaction:THR:134>  (292) 
0

>  <hydroph_interaction:MET:49>  (292) 
0

$$$$
Z739150138
     RDKit          3D

 55 58  0  0  0  0  0  0  0  0999 V2000
   -6.6660    6.7880  -16.1900 C   0  0  0  0  0  0  0  0  0  0  0  0
   -7.8170    6.0030  -16.7770 C   0  0  0  0  0  0  0  0  0  0  0  0
   -7.6090    5.4580  -18.2000 C   0  0  0  0  0  0  0  0  0  0  0  0
   -6.4610    5.6640  -18.9520 N   0  0  0  0  0  0  0  0  0  0  0  0
   -6.3370    5.1180  -20.2070 C   0  0  0  0  0  0  0  0  0  0  0  0
   -7.1710    4.4790  -20.8360 O   0  0  0  0  0  0  0  0  0  0  0  0
   -4.9960    5.3330  -20.8540 C   0  0  0  0  0  0  0  0  0  0  0  0
   -3.8100    5.3160  -19.8910 C   0  0  0  0  0  0  0  0  0  0  0  0
   -2.5120    5.5110  -20.5970 C   0  0  0  0  0  0  0  0  0  0  0  0
   -2.4340    5.6860  -21.9230 C   0  0  0  0  0  0  0  0  0  0  0  0
   -3.5660    5.7030  -22.7650 C   0  0  0  0  0  0  0  0  0  0  0  0
   -4.8430    5.5260  -22.2270 C   0  0  0  0  0  0  0  0  0  0  0  0
   -8.5880    4.7210  -18.8120 C   0  0  0  0  0  0  0  0  0  0  0  0
   -9.8600    4.3970  -18.1430 C   0  0  0  0  0  0  0  0  0  0  0  0
  -10.0410    4.8760  -16.8860 C   0  0  0  0  0  0  0  0  0  0  0  0
   -9.0590    5.7460  -16.1160 C   0  0  0  0  0  0  0  0  0  0  0  0
   -9.4740    6.2080  -14.8490 N   0  0  0  0  0  0  0  0  0  0  0  0
   -8.8150    7.1710  -13.9460 C   0  0  0  0  0  0  0  0  0  0  0  0
   -8.3630    8.3060  -14.0950 O   0  0  0  0  0  0  0  0  0  0  0  0
   -8.7870    6.4830  -12.6050 C   0  0  0  0  0  0  0  0  0  0  0  0
   -8.9620    4.9870  -12.7290 C   0  0  0  0  0  0  0  0  0  0  0  0
   -8.9540    4.2740  -11.4120 C   0  0  0  0  0  0  0  0  0  0  0  0
   -8.7940    4.9920  -10.2290 C   0  0  0  0  0  0  0  0  0  0  0  0
   -8.8050    4.2840   -9.0500 N   0  0  0  0  0  0  0  0  0  0  0  0
   -8.1390    4.7650   -7.8300 C   0  0  0  0  0  0  0  0  0  0  0  0
   -8.7680    4.2590   -6.6900 C   0  0  0  0  0  0  0  0  0  0  0  0
   -8.9170    2.8390   -6.7090 O   0  0  0  0  0  0  0  0  0  0  0  0
   -9.6820    2.3900   -7.8320 C   0  0  0  0  0  0  0  0  0  0  0  0
   -9.0800    2.8400   -9.1550 C   0  0  0  0  0  0  0  0  0  0  0  0
   -8.6360    6.3490  -10.2060 N   0  0  0  0  0  0  0  0  0  0  0  0
   -8.6340    7.0670  -11.3670 C   0  0  0  0  0  0  0  0  0  0  0  0
   -6.0880    7.2880  -16.9730 H   0  0  0  0  0  0  0  0  0  0  0  0
   -5.9910    6.1420  -15.6210 H   0  0  0  0  0  0  0  0  0  0  0  0
   -7.0410    7.5540  -15.5060 H   0  0  0  0  0  0  0  0  0  0  0  0
   -5.5990    5.7460  -18.4380 H   0  0  0  0  0  0  0  0  0  0  0  0
   -3.9020    5.1710  -18.8170 H   0  0  0  0  0  0  0  0  0  0  0  0
   -1.5940    5.5110  -20.0130 H   0  0  0  0  0  0  0  0  0  0  0  0
   -1.4540    5.8230  -22.3750 H   0  0  0  0  0  0  0  0  0  0  0  0
   -3.4090    5.8530  -23.8310 H   0  0  0  0  0  0  0  0  0  0  0  0
   -5.7090    5.5390  -22.8850 H   0  0  0  0  0  0  0  0  0  0  0  0
   -8.5330    4.3000  -19.8210 H   0  0  0  0  0  0  0  0  0  0  0  0
  -10.5590    3.7940  -18.7100 H   0  0  0  0  0  0  0  0  0  0  0  0
  -10.9510    4.5880  -16.4660 H   0  0  0  0  0  0  0  0  0  0  0  0
  -10.4730    6.1500  -14.7130 H   0  0  0  0  0  0  0  0  0  0  0  0
   -9.0880    4.4540  -13.6660 H   0  0  0  0  0  0  0  0  0  0  0  0
   -9.0760    3.1950  -11.3950 H   0  0  0  0  0  0  0  0  0  0  0  0
   -8.2000    5.8600   -7.8240 H   0  0  0  0  0  0  0  0  0  0  0  0
   -7.0800    4.4810   -7.7890 H   0  0  0  0  0  0  0  0  0  0  0  0
   -9.7650    4.7020   -6.5710 H   0  0  0  0  0  0  0  0  0  0  0  0
   -8.1900    4.5150   -5.7960 H   0  0  0  0  0  0  0  0  0  0  0  0
   -9.7520    1.3080   -7.7900 H   0  0  0  0  0  0  0  0  0  0  0  0
  -10.6980    2.7810   -7.7160 H   0  0  0  0  0  0  0  0  0  0  0  0
   -8.1580    2.2740   -9.3420 H   0  0  0  0  0  0  0  0  0  0  0  0
   -9.7910    2.6400   -9.9530 H   0  0  0  0  0  0  0  0  0  0  0  0
   -8.5050    8.1390  -11.2500 H   0  0  0  0  0  0  0  0  0  0  0  0
  1  2  1  0
  2  3  2  0
  3  4  1  0
  4  5  1  0
  5  6  2  0
  5  7  1  0
  7  8  2  0
  8  9  1  0
  9 10  2  0
 10 11  1  0
 11 12  2  0
  3 13  1  0
 13 14  2  0
 14 15  1  0
 15 16  2  0
 16 17  1  0
 17 18  1  0
 18 19  2  0
 18 20  1  0
 20 21  2  0
 21 22  1  0
 22 23  2  0
 23 24  1  0
 24 25  1  0
 25 26  1  0
 26 27  1  0
 27 28  1  0
 28 29  1  0
 23 30  1  0
 30 31  2  0
 16  2  1  0
 12  7  1  0
 31 20  1  0
 29 24  1  0
  1 32  1  0
  1 33  1  0
  1 34  1  0
  4 35  1  0
  8 36  1  0
  9 37  1  0
 10 38  1  0
 11 39  1  0
 12 40  1  0
 13 41  1  0
 14 42  1  0
 15 43  1  0
 17 44  1  0
 21 45  1  0
 22 46  1  0
 25 47  1  0
 25 48  1  0
 26 49  1  0
 26 50  1  0
 28 51  1  0
 28 52  1  0
 29 53  1  0
 29 54  1  0
 31 55  1  0
A    1
 C1 
A    2
 C2 
A    3
 C3 
A    4
 N1 
A    5
 C4 
A    6
 O1 
A    7
 C5 
A    8
 C6 
A    9
 C7 
A   10
 C8 
A   11
 C9 
A   12
 C10
A   13
 C11
A   14
 C12
A   15
 C13
A   16
 C14
A   17
 N2 
A   18
 C15
A   19
 O2 
A   20
 C16
A   21
 C17
A   22
 C18
A   23
 C19
A   24
 N3 
A   25
 C20
A   26
 C21
A   27
 O3 
A   28
 C22
A   29
 C23
A   30
 N4 
A   31
 C24
A   32
 H1 
A   33
 H2 
A   34
 H3 
A   35
 H4 
A   36
 H5 
A   37
 H6 
A   38
 H7 
A   39
 H8 
A   40
 H9 
A   41
 H10
A   42
 H11
A   43
 H12
A   44
 H13
A   45
 H14
A   46
 H15
A   47
 H16
A   48
 H17
A   49
 H18
A   50
 H19
A   51
 H20
A   52
 H21
A   53
 H22
A   54
 H23
A   55
 H24
M  END
>  <ref_pdb>  (293) 
x0051_0B

>  <ref_mols>  (293) 
x0852_0B,x0404_0B

>  <original SMILES>  (293) 
[H]c1nc(N2C([H])([H])C([H])([H])OC([H])([H])C2([H])[H])c([H])c([H])c1C(=O)N([H])c1c([H])c([H])c([H])c(N([H])C(=O)c2c([H])c([H])c([H])c([H])c2[H])c1C([H])([H])[H]

>  <index>  (293) 
607

>  <∆∆G>  (293) 
-7.021015

>  <∆G_bound>  (293) 
-6.786745

>  <∆G_unbound>  (293) 
0.234269

>  <comRMSD>  (293) 
0.778298

>  <N_constrained_atoms>  (293) 
34.0

>  <N_unconstrained_atoms>  (293) 
0.0

>  <runtime>  (293) 
120.688522

>  <LE>  (293) 
0.2065

>  <percent_hybrid>  (293) 
48.0

>  <dist>  (293) 
9.0

>  <ecfp4>  (293) 
0.216495

>  <daylight>  (293) 
0.311355

>  <topodist>  (293) 
4.0

>  <mces>  (293) 
34.0

>  <tdn>  (293) 
3.0

>  <tup>  (293) 
0.0

>  <rdn>  (293) 
0.0

>  <rup>  (293) 
0.0

>  <ldn>  (293) 
1.0

>  <lup>  (293) 
0.0

>  <mut>  (293) 
4.0

>  <maj>  (293) 
4.0

>  <min>  (293) 
0.0

>  <hyb>  (293) 
1.0

>  <sub>  (293) 
2.0

>  <query_index>  (293) 
6.0

>  <max_hit_Tanimoto>  (293) 
0.425847

>  <largest_ring>  (293) 
6

>  <N_interactions_kept>  (293) 
3.5

>  <N_interactions_lost>  (293) 
3.5

>  <interaction_uniqueness_metric>  (293) 
0.217002

>  <ad_hoc_penalty>  (293) 
-15.375461

>  <N_rotatable_bonds>  (293) 
6

>  <N_HA>  (293) 
31

>  <cluster>  (293) 
5663

>  <N_interactions>  (293) 
9

>  <Enamine>  (293) 
1

>  <Mcule>  (293) 
0

>  <N_PAINS>  (293) 
0

>  <UFF_Gibbs>  (293) 
286.857563

>  <strain_per_HA>  (293) 
9.25347

>  <intxn_scored>  (293) 
9.0

>  <saltbridge:HIS:51>  (293) 
0

>  <pistack:HIS:51>  (293) 
1

>  <hydroph_interaction:HIS:51>  (293) 
0

>  <hbond:ALA:132>  (293) 
0

>  <hbond:SER:135>  (293) 
0

>  <hydroph_interaction:TYR:150>  (293) 
1

>  <pistack:TYR:161>  (293) 
0

>  <hydroph_interaction:TYR:161>  (293) 
3

>  <hydroph_interaction:ASP:83>  (293) 
0

>  <hbond:TYR:130>  (293) 
1

>  <hydroph_interaction:ALA:132>  (293) 
1

>  <hbond:HIS:51>  (293) 
1

>  <hbond:ASP:129>  (293) 
0

>  <hbond:TYR:150>  (293) 
0

>  <hbond:GLY:151>  (293) 
0

>  <hbond:TYR:161>  (293) 
0

>  <hydroph_interaction:TYR:130>  (293) 
0

>  <hydroph_interaction:PRO:131>  (293) 
0

>  <hydroph_interaction:ASP:129>  (293) 
1

>  <saltbridge:ASP:75>  (293) 
0

>  <saltbridge:ASP:83>  (293) 
0

>  <hbond:ASN:152>  (293) 
0

>  <hydroph_interaction:ASN:152>  (293) 
0

>  <halogenbond:TYR:150>  (293) 
0

>  <hbond:ASP:83>  (293) 
0

>  <hydroph_interaction:VAL:155>  (293) 
0

>  <pication:TYR:161>  (293) 
0

>  <hbond:PRO:131>  (293) 
0

>  <saltbridge:ASP:129>  (293) 
0

>  <hbond:THR:134>  (293) 
0

>  <pication:HIS:51>  (293) 
0

>  <hbond:SER:81>  (293) 
0

>  <hydroph_interaction:THR:134>  (293) 
0

>  <hydroph_interaction:MET:49>  (293) 
0

$$$$
CSSB00025761979
     RDKit          3D

 31 34  0  0  0  0  0  0  0  0999 V2000
   -7.7300    5.5290  -15.9770 O   0  0  0  0  0  0  0  0  0  0  0  0
   -8.4400    5.1750  -17.0830 C   0  0  0  0  0  0  0  0  0  0  0  0
   -9.8710    4.9960  -16.8630 C   0  0  0  0  0  0  0  0  0  0  0  0
  -10.6760    4.6320  -17.9770 C   0  0  0  0  0  0  0  0  0  0  0  0
  -10.0730    4.4580  -19.1350 C   0  0  0  0  0  0  0  0  0  0  0  0
   -8.7380    4.6120  -19.3520 C   0  0  0  0  0  0  0  0  0  0  0  0
   -7.8250    5.0030  -18.3430 C   0  0  0  0  0  0  0  0  0  0  0  0
   -6.3720    5.1920  -18.6890 C   0  0  0  0  0  0  0  0  0  0  0  0
   -6.0900    4.9390  -20.1330 C   0  0  0  0  0  0  0  0  0  0  0  0
   -7.0460    4.5350  -21.0220 C   0  0  0  0  0  0  0  0  0  0  0  0
   -8.3400    4.3690  -20.6290 C   0  0  0  0  0  0  0  0  0  0  0  0
   -4.7930    5.1110  -20.6360 C   0  0  0  0  0  0  0  0  0  0  0  0
   -3.7160    5.4980  -19.7350 C   0  0  0  0  0  0  0  0  0  0  0  0
   -2.4220    5.6510  -20.2530 C   0  0  0  0  0  0  0  0  0  0  0  0
   -2.1630    5.4470  -21.6110 C   0  0  0  0  0  0  0  0  0  0  0  0
   -3.1830    5.0890  -22.4720 C   0  0  0  0  0  0  0  0  0  0  0  0
   -4.4710    4.9250  -21.9830 C   0  0  0  0  0  0  0  0  0  0  0  0
   -3.9870    5.7080  -18.3820 C   0  0  0  0  0  0  0  0  0  0  0  0
   -5.2880    5.5650  -17.8720 C   0  0  0  0  0  0  0  0  0  0  0  0
   -7.5780    4.7470  -15.4230 H   0  0  0  0  0  0  0  0  0  0  0  0
  -10.3110    5.1370  -15.8850 H   0  0  0  0  0  0  0  0  0  0  0  0
  -11.7320    4.4900  -17.9060 H   0  0  0  0  0  0  0  0  0  0  0  0
  -10.7090    4.1800  -19.9490 H   0  0  0  0  0  0  0  0  0  0  0  0
   -6.8100    4.3430  -22.0580 H   0  0  0  0  0  0  0  0  0  0  0  0
   -9.0620    4.0500  -21.3690 H   0  0  0  0  0  0  0  0  0  0  0  0
   -1.5990    5.9340  -19.6010 H   0  0  0  0  0  0  0  0  0  0  0  0
   -1.1510    5.5710  -21.9920 H   0  0  0  0  0  0  0  0  0  0  0  0
   -2.9830    4.9310  -23.5300 H   0  0  0  0  0  0  0  0  0  0  0  0
   -5.2310    4.6410  -22.6880 H   0  0  0  0  0  0  0  0  0  0  0  0
   -3.1940    5.9960  -17.6930 H   0  0  0  0  0  0  0  0  0  0  0  0
   -5.4110    5.7590  -16.8150 H   0  0  0  0  0  0  0  0  0  0  0  0
  1  2  1  0
  2  3  2  0
  3  4  1  0
  4  5  2  0
  5  6  1  0
  6  7  2  0
  7  8  1  0
  8  9  2  0
  9 10  1  0
 10 11  2  0
  9 12  1  0
 12 13  2  0
 13 14  1  0
 14 15  2  0
 15 16  1  0
 16 17  2  0
 13 18  1  0
 18 19  2  0
  7  2  1  0
 11  6  1  0
 19  8  1  0
 17 12  1  0
  1 20  1  0
  3 21  1  0
  4 22  1  0
  5 23  1  0
 10 24  1  0
 11 25  1  0
 14 26  1  0
 15 27  1  0
 16 28  1  0
 17 29  1  0
 18 30  1  0
 19 31  1  0
A    1
 O1 
A    2
 C1 
A    3
 C2 
A    4
 C3 
A    5
 C4 
A    6
 C5 
A    7
 C6 
A    8
 C7 
A    9
 C8 
A   10
 C9 
A   11
 C10
A   12
 C11
A   13
 C12
A   14
 C13
A   15
 C14
A   16
 C15
A   17
 C16
A   18
 C17
A   19
 C18
A   20
 H1 
A   21
 H2 
A   22
 H3 
A   23
 H4 
A   24
 H5 
A   25
 H6 
A   26
 H7 
A   27
 H8 
A   28
 H9 
A   29
 H10
A   30
 H11
A   31
 H12
M  END
>  <ref_pdb>  (294) 
x0051_0B

>  <ref_mols>  (294) 
x0852_0B,x0680_0B

>  <original SMILES>  (294) 
[H]Oc1c([H])c([H])c([H])c2c([H])c([H])c3c4c([H])c([H])c([H])c([H])c4c([H])c([H])c3c12

>  <index>  (294) 
3220

>  <∆∆G>  (294) 
-6.645281

>  <∆G_bound>  (294) 
-6.747198

>  <∆G_unbound>  (294) 
-0.101916

>  <comRMSD>  (294) 
0.999368

>  <N_constrained_atoms>  (294) 
19.0

>  <N_unconstrained_atoms>  (294) 
2.0

>  <runtime>  (294) 
34.86586

>  <LE>  (294) 
0.316442

>  <percent_hybrid>  (294) 
12.0

>  <dist>  (294) 
5.0

>  <ecfp4>  (294) 
0.26087

>  <daylight>  (294) 
0.148148

>  <topodist>  (294) 
2.0

>  <mces>  (294) 
21.0

>  <tdn>  (294) 
0.0

>  <tup>  (294) 
0.0

>  <rdn>  (294) 
1.0

>  <rup>  (294) 
1.0

>  <ldn>  (294) 
0.0

>  <lup>  (294) 
0.0

>  <mut>  (294) 
2.0

>  <maj>  (294) 
2.0

>  <min>  (294) 
0.0

>  <hyb>  (294) 
1.0

>  <sub>  (294) 
1.0

>  <query_index>  (294) 
135.0

>  <max_hit_Tanimoto>  (294) 
0.099398

>  <largest_ring>  (294) 
6

>  <N_interactions_kept>  (294) 
4.0

>  <N_interactions_lost>  (294) 
3.5

>  <interaction_uniqueness_metric>  (294) 
0.064623

>  <ad_hoc_penalty>  (294) 
-3.089696

>  <N_rotatable_bonds>  (294) 
1

>  <N_HA>  (294) 
19

>  <cluster>  (294) 
3236

>  <N_interactions>  (294) 
4

>  <Enamine>  (294) 
1

>  <Mcule>  (294) 
0

>  <N_PAINS>  (294) 
0

>  <UFF_Gibbs>  (294) 
57.722222

>  <strain_per_HA>  (294) 
3.038012

>  <intxn_scored>  (294) 
9.0

>  <saltbridge:HIS:51>  (294) 
0

>  <pistack:HIS:51>  (294) 
0

>  <hydroph_interaction:HIS:51>  (294) 
0

>  <hbond:ALA:132>  (294) 
0

>  <hbond:SER:135>  (294) 
0

>  <hydroph_interaction:TYR:150>  (294) 
0

>  <pistack:TYR:161>  (294) 
2

>  <hydroph_interaction:TYR:161>  (294) 
1

>  <hydroph_interaction:ASP:83>  (294) 
0

>  <hbond:TYR:130>  (294) 
0

>  <hydroph_interaction:ALA:132>  (294) 
0

>  <hbond:HIS:51>  (294) 
0

>  <hbond:ASP:129>  (294) 
0

>  <hbond:TYR:150>  (294) 
0

>  <hbond:GLY:151>  (294) 
0

>  <hbond:TYR:161>  (294) 
0

>  <hydroph_interaction:TYR:130>  (294) 
0

>  <hydroph_interaction:PRO:131>  (294) 
0

>  <hydroph_interaction:ASP:129>  (294) 
1

>  <saltbridge:ASP:75>  (294) 
0

>  <saltbridge:ASP:83>  (294) 
0

>  <hbond:ASN:152>  (294) 
0

>  <hydroph_interaction:ASN:152>  (294) 
0

>  <halogenbond:TYR:150>  (294) 
0

>  <hbond:ASP:83>  (294) 
0

>  <hydroph_interaction:VAL:155>  (294) 
0

>  <pication:TYR:161>  (294) 
0

>  <hbond:PRO:131>  (294) 
0

>  <saltbridge:ASP:129>  (294) 
0

>  <hbond:THR:134>  (294) 
0

>  <pication:HIS:51>  (294) 
0

>  <hbond:SER:81>  (294) 
0

>  <hydroph_interaction:THR:134>  (294) 
0

>  <hydroph_interaction:MET:49>  (294) 
0

$$$$
Z3205064790
     RDKit          3D

 50 52  0  0  0  0  0  0  0  0999 V2000
   -2.4710    4.9880  -21.6600 C   0  0  0  0  0  0  0  0  0  0  0  0
   -3.8020    5.2880  -21.4050 N   0  0  0  0  0  0  0  0  0  0  0  0
   -4.6360    5.3690  -22.4900 C   0  0  0  0  0  0  0  0  0  0  0  0
   -4.3090    5.3490  -20.0910 C   0  0  0  0  0  0  0  0  0  0  0  0
   -3.5350    5.1470  -19.1480 O   0  0  0  0  0  0  0  0  0  0  0  0
   -5.6730    5.6090  -19.8110 C   0  0  0  0  0  0  0  0  0  0  0  0
   -5.8180    5.6730  -18.5910 O   0  0  0  0  0  0  0  0  0  0  0  0
   -7.0500    5.4220  -18.0470 C   0  0  0  0  0  0  0  0  0  0  0  0
   -8.0360    4.7610  -19.0250 C   0  0  0  0  0  0  0  0  0  0  0  0
   -9.4140    4.4590  -18.4740 C   0  0  0  0  0  0  0  0  0  0  0  0
   -9.7260    4.7820  -17.1520 C   0  0  0  0  0  0  0  0  0  0  0  0
   -8.7130    5.4470  -16.2140 C   0  0  0  0  0  0  0  0  0  0  0  0
   -9.0930    5.7900  -14.8570 C   0  0  0  0  0  0  0  0  0  0  0  0
  -10.2810    6.4600  -14.8000 O   0  0  0  0  0  0  0  0  0  0  0  0
   -8.3420    5.5260  -13.6800 N   0  0  0  0  0  0  0  0  0  0  0  0
   -8.9150    4.6750  -12.6160 C   0  0  0  0  0  0  0  0  0  0  0  0
   -8.8640    5.1560  -11.2500 C   0  0  0  0  0  0  0  0  0  0  0  0
   -8.9070    4.2700  -10.1760 C   0  0  0  0  0  0  0  0  0  0  0  0
   -8.9920    2.7660  -10.2460 C   0  0  0  0  0  0  0  0  0  0  0  0
   -8.7030    2.2370   -8.8450 C   0  0  0  0  0  0  0  0  0  0  0  0
   -9.3350    2.9030   -7.7250 C   0  0  0  0  0  0  0  0  0  0  0  0
   -8.9000    4.3780   -7.6780 C   0  0  0  0  0  0  0  0  0  0  0  0
   -8.8620    4.9700   -9.0120 N   0  0  0  0  0  0  0  0  0  0  0  0
   -8.7790    6.2960   -9.2210 N   0  0  0  0  0  0  0  0  0  0  0  0
   -8.7810    6.4200  -10.5810 C   0  0  0  0  0  0  0  0  0  0  0  0
   -7.4250    5.7280  -16.7150 C   0  0  0  0  0  0  0  0  0  0  0  0
   -1.8620    5.0810  -20.7550 H   0  0  0  0  0  0  0  0  0  0  0  0
   -2.3610    3.9720  -22.0590 H   0  0  0  0  0  0  0  0  0  0  0  0
   -2.0730    5.6860  -22.4020 H   0  0  0  0  0  0  0  0  0  0  0  0
   -5.1770    6.3220  -22.5390 H   0  0  0  0  0  0  0  0  0  0  0  0
   -5.3930    4.5770  -22.4380 H   0  0  0  0  0  0  0  0  0  0  0  0
   -4.0530    5.2300  -23.4090 H   0  0  0  0  0  0  0  0  0  0  0  0
   -5.9400    6.5660  -20.2790 H   0  0  0  0  0  0  0  0  0  0  0  0
   -6.2700    4.8070  -20.2640 H   0  0  0  0  0  0  0  0  0  0  0  0
   -7.7510    4.5270  -20.0490 H   0  0  0  0  0  0  0  0  0  0  0  0
  -10.1520    3.9920  -19.1070 H   0  0  0  0  0  0  0  0  0  0  0  0
  -10.7130    4.5500  -16.7990 H   0  0  0  0  0  0  0  0  0  0  0  0
   -7.3390    5.6430  -13.6830 H   0  0  0  0  0  0  0  0  0  0  0  0
   -9.9120    4.4160  -12.9630 H   0  0  0  0  0  0  0  0  0  0  0  0
   -8.3930    3.7330  -12.7600 H   0  0  0  0  0  0  0  0  0  0  0  0
   -9.9760    2.4210  -10.5770 H   0  0  0  0  0  0  0  0  0  0  0  0
   -8.2510    2.3630  -10.9480 H   0  0  0  0  0  0  0  0  0  0  0  0
   -7.6250    2.3030   -8.6920 H   0  0  0  0  0  0  0  0  0  0  0  0
   -8.9510    1.1880   -8.7840 H   0  0  0  0  0  0  0  0  0  0  0  0
   -9.0380    2.3990   -6.8020 H   0  0  0  0  0  0  0  0  0  0  0  0
  -10.4240    2.8140   -7.8080 H   0  0  0  0  0  0  0  0  0  0  0  0
   -9.5740    4.9720   -7.0470 H   0  0  0  0  0  0  0  0  0  0  0  0
   -7.8840    4.4300   -7.2750 H   0  0  0  0  0  0  0  0  0  0  0  0
   -8.7240    7.4220  -11.0240 H   0  0  0  0  0  0  0  0  0  0  0  0
   -6.7190    6.2000  -16.0350 H   0  0  0  0  0  0  0  0  0  0  0  0
  1  2  1  0
  2  3  1  0
  2  4  1  0
  4  5  2  0
  4  6  1  0
  6  7  1  0
  7  8  1  0
  8  9  2  0
  9 10  1  0
 10 11  2  0
 11 12  1  0
 12 13  1  0
 13 14  2  0
 13 15  1  0
 15 16  1  0
 16 17  1  0
 17 18  2  0
 18 19  1  0
 19 20  1  0
 20 21  1  0
 21 22  1  0
 22 23  1  0
 23 24  1  0
 24 25  2  0
 12 26  2  0
 26  8  1  0
 25 17  1  0
 23 18  1  0
  1 27  1  0
  1 28  1  0
  1 29  1  0
  3 30  1  0
  3 31  1  0
  3 32  1  0
  6 33  1  0
  6 34  1  0
  9 35  1  0
 10 36  1  0
 11 37  1  0
 15 38  1  0
 16 39  1  0
 16 40  1  0
 19 41  1  0
 19 42  1  0
 20 43  1  0
 20 44  1  0
 21 45  1  0
 21 46  1  0
 22 47  1  0
 22 48  1  0
 25 49  1  0
 26 50  1  0
A    1
 C1 
A    2
 N1 
A    3
 C2 
A    4
 C3 
A    5
 O1 
A    6
 C4 
A    7
 O2 
A    8
 C5 
A    9
 C6 
A   10
 C7 
A   11
 C8 
A   12
 C9 
A   13
 C10
A   14
 O3 
A   15
 N2 
A   16
 C11
A   17
 C12
A   18
 C13
A   19
 C14
A   20
 C15
A   21
 C16
A   22
 C17
A   23
 N3 
A   24
 N4 
A   25
 C18
A   26
 C19
A   27
 H1 
A   28
 H2 
A   29
 H3 
A   30
 H4 
A   31
 H5 
A   32
 H6 
A   33
 H7 
A   34
 H8 
A   35
 H9 
A   36
 H10
A   37
 H11
A   38
 H12
A   39
 H13
A   40
 H14
A   41
 H15
A   42
 H16
A   43
 H17
A   44
 H18
A   45
 H19
A   46
 H20
A   47
 H21
A   48
 H22
A   49
 H23
A   50
 H24
M  END
>  <ref_pdb>  (295) 
x0051_0B

>  <ref_mols>  (295) 
x0969_1B,x0904_0B

>  <original SMILES>  (295) 
[H]c1nn2c(c1C([H])([H])N([H])C(=O)c1c([H])c([H])c([H])c(OC([H])([H])C(=O)N(C([H])([H])[H])C([H])([H])[H])c1[H])C([H])([H])C([H])([H])C([H])([H])C2([H])[H]

>  <index>  (295) 
837

>  <∆∆G>  (295) 
-9.269119

>  <∆G_bound>  (295) 
-9.106901

>  <∆G_unbound>  (295) 
0.162218

>  <comRMSD>  (295) 
0.657349

>  <N_constrained_atoms>  (295) 
24.0

>  <N_unconstrained_atoms>  (295) 
2.0

>  <runtime>  (295) 
86.649224

>  <LE>  (295) 
0.356505

>  <percent_hybrid>  (295) 
42.0

>  <dist>  (295) 
5.0

>  <ecfp4>  (295) 
0.571429

>  <daylight>  (295) 
0.384354

>  <topodist>  (295) 
2.0

>  <mces>  (295) 
27.0

>  <tdn>  (295) 
0.0

>  <tup>  (295) 
1.0

>  <rdn>  (295) 
0.0

>  <rup>  (295) 
0.0

>  <ldn>  (295) 
1.0

>  <lup>  (295) 
0.0

>  <mut>  (295) 
2.0

>  <maj>  (295) 
2.0

>  <min>  (295) 
0.0

>  <hyb>  (295) 
1.0

>  <sub>  (295) 
0.0

>  <query_index>  (295) 
111.0

>  <max_hit_Tanimoto>  (295) 
0.342602

>  <largest_ring>  (295) 
6

>  <N_interactions_kept>  (295) 
1.5

>  <N_interactions_lost>  (295) 
2.0

>  <interaction_uniqueness_metric>  (295) 
0.211103

>  <ad_hoc_penalty>  (295) 
-13.553122

>  <N_rotatable_bonds>  (295) 
8

>  <N_HA>  (295) 
26

>  <cluster>  (295) 
5452

>  <N_interactions>  (295) 
6

>  <Enamine>  (295) 
1

>  <Mcule>  (295) 
0

>  <N_PAINS>  (295) 
0

>  <UFF_Gibbs>  (295) 
224.091588

>  <strain_per_HA>  (295) 
8.618907

>  <intxn_scored>  (295) 
9.0

>  <saltbridge:HIS:51>  (295) 
0

>  <pistack:HIS:51>  (295) 
1

>  <hydroph_interaction:HIS:51>  (295) 
0

>  <hbond:ALA:132>  (295) 
0

>  <hbond:SER:135>  (295) 
1

>  <hydroph_interaction:TYR:150>  (295) 
1

>  <pistack:TYR:161>  (295) 
1

>  <hydroph_interaction:TYR:161>  (295) 
0

>  <hydroph_interaction:ASP:83>  (295) 
1

>  <hbond:TYR:130>  (295) 
0

>  <hydroph_interaction:ALA:132>  (295) 
1

>  <hbond:HIS:51>  (295) 
0

>  <hbond:ASP:129>  (295) 
0

>  <hbond:TYR:150>  (295) 
0

>  <hbond:GLY:151>  (295) 
0

>  <hbond:TYR:161>  (295) 
0

>  <hydroph_interaction:TYR:130>  (295) 
0

>  <hydroph_interaction:PRO:131>  (295) 
0

>  <hydroph_interaction:ASP:129>  (295) 
0

>  <saltbridge:ASP:75>  (295) 
0

>  <saltbridge:ASP:83>  (295) 
0

>  <hbond:ASN:152>  (295) 
0

>  <hydroph_interaction:ASN:152>  (295) 
0

>  <halogenbond:TYR:150>  (295) 
0

>  <hbond:ASP:83>  (295) 
0

>  <hydroph_interaction:VAL:155>  (295) 
0

>  <pication:TYR:161>  (295) 
0

>  <hbond:PRO:131>  (295) 
0

>  <saltbridge:ASP:129>  (295) 
0

>  <hbond:THR:134>  (295) 
0

>  <pication:HIS:51>  (295) 
0

>  <hbond:SER:81>  (295) 
0

>  <hydroph_interaction:THR:134>  (295) 
0

>  <hydroph_interaction:MET:49>  (295) 
0

$$$$
Z1494875761
     RDKit          3D

 50 52  0  0  0  0  0  0  0  0999 V2000
   -2.3840    4.8070  -21.8190 C   0  0  0  0  0  0  0  0  0  0  0  0
   -3.6810    5.3610  -21.4240 N   0  0  0  0  0  0  0  0  0  0  0  0
   -4.6820    5.3870  -22.4630 C   0  0  0  0  0  0  0  0  0  0  0  0
   -4.1470    5.3760  -20.1140 C   0  0  0  0  0  0  0  0  0  0  0  0
   -3.2950    5.0610  -19.0200 O   0  0  0  0  0  0  0  0  0  0  0  0
   -5.6150    5.7180  -19.8850 C   0  0  0  0  0  0  0  0  0  0  0  0
   -5.9510    5.7770  -18.5070 O   0  0  0  0  0  0  0  0  0  0  0  0
   -7.2120    5.3980  -18.1500 C   0  0  0  0  0  0  0  0  0  0  0  0
   -8.0810    4.7030  -18.9550 C   0  0  0  0  0  0  0  0  0  0  0  0
   -9.4390    4.3620  -18.4050 C   0  0  0  0  0  0  0  0  0  0  0  0
   -9.7710    4.7560  -17.1230 C   0  0  0  0  0  0  0  0  0  0  0  0
   -8.8710    5.4840  -16.2930 C   0  0  0  0  0  0  0  0  0  0  0  0
   -9.2780    5.9420  -14.8920 C   0  0  0  0  0  0  0  0  0  0  0  0
   -9.1560    5.0230  -13.7400 N   0  0  0  0  0  0  0  0  0  0  0  0
   -8.2010    5.2720  -12.7230 C   0  0  0  0  0  0  0  0  0  0  0  0
   -7.0150    5.2660  -13.0330 O   0  0  0  0  0  0  0  0  0  0  0  0
   -8.5240    5.5890  -11.2120 C   0  0  0  0  0  0  0  0  0  0  0  0
   -8.6730    4.4830  -10.2220 C   0  0  0  0  0  0  0  0  0  0  0  0
   -8.5650    3.0510  -10.6130 C   0  0  0  0  0  0  0  0  0  0  0  0
   -9.1490    2.1700   -9.5090 C   0  0  0  0  0  0  0  0  0  0  0  0
   -9.3650    2.7520   -8.0630 C   0  0  0  0  0  0  0  0  0  0  0  0
   -9.0540    4.2360   -7.8110 C   0  0  0  0  0  0  0  0  0  0  0  0
   -8.8930    5.0140   -9.0160 N   0  0  0  0  0  0  0  0  0  0  0  0
   -8.9360    6.3720   -9.0550 N   0  0  0  0  0  0  0  0  0  0  0  0
   -8.7230    6.7190  -10.3680 C   0  0  0  0  0  0  0  0  0  0  0  0
   -7.5970    5.7820  -16.8430 C   0  0  0  0  0  0  0  0  0  0  0  0
   -1.6730    5.5870  -22.1030 H   0  0  0  0  0  0  0  0  0  0  0  0
   -2.5380    4.1410  -22.6760 H   0  0  0  0  0  0  0  0  0  0  0  0
   -1.9450    4.2150  -21.0080 H   0  0  0  0  0  0  0  0  0  0  0  0
   -5.2820    6.2980  -22.3630 H   0  0  0  0  0  0  0  0  0  0  0  0
   -4.1760    5.3790  -23.4280 H   0  0  0  0  0  0  0  0  0  0  0  0
   -5.3380    4.5160  -22.3980 H   0  0  0  0  0  0  0  0  0  0  0  0
   -6.2590    4.9410  -20.3120 H   0  0  0  0  0  0  0  0  0  0  0  0
   -5.8750    6.6570  -20.3960 H   0  0  0  0  0  0  0  0  0  0  0  0
   -7.7990    4.4020  -19.9690 H   0  0  0  0  0  0  0  0  0  0  0  0
  -10.1430    3.8170  -19.0050 H   0  0  0  0  0  0  0  0  0  0  0  0
  -10.7450    4.5010  -16.7510 H   0  0  0  0  0  0  0  0  0  0  0  0
   -8.6950    6.8430  -14.6620 H   0  0  0  0  0  0  0  0  0  0  0  0
  -10.3170    6.2810  -14.9360 H   0  0  0  0  0  0  0  0  0  0  0  0
   -9.3560    4.0490  -13.9710 H   0  0  0  0  0  0  0  0  0  0  0  0
   -9.1450    2.8860  -11.5330 H   0  0  0  0  0  0  0  0  0  0  0  0
   -7.5280    2.7890  -10.8310 H   0  0  0  0  0  0  0  0  0  0  0  0
   -8.5370    1.2770   -9.4340 H   0  0  0  0  0  0  0  0  0  0  0  0
  -10.0900    1.8380   -9.8960 H   0  0  0  0  0  0  0  0  0  0  0  0
   -8.7630    2.1670   -7.3860 H   0  0  0  0  0  0  0  0  0  0  0  0
  -10.3800    2.5810   -7.7230 H   0  0  0  0  0  0  0  0  0  0  0  0
   -9.8380    4.6960   -7.2050 H   0  0  0  0  0  0  0  0  0  0  0  0
   -8.0980    4.3170   -7.2760 H   0  0  0  0  0  0  0  0  0  0  0  0
   -8.7110    7.7630  -10.6440 H   0  0  0  0  0  0  0  0  0  0  0  0
   -6.8800    6.3360  -16.2430 H   0  0  0  0  0  0  0  0  0  0  0  0
  1  2  1  0
  2  3  1  0
  2  4  1  0
  4  5  2  0
  4  6  1  0
  6  7  1  0
  7  8  1  0
  8  9  2  0
  9 10  1  0
 10 11  2  0
 11 12  1  0
 12 13  1  0
 13 14  1  0
 14 15  1  0
 15 16  2  0
 15 17  1  0
 17 18  2  0
 18 19  1  0
 19 20  1  0
 20 21  1  0
 21 22  1  0
 22 23  1  0
 23 24  1  0
 24 25  2  0
 12 26  2  0
 26  8  1  0
 25 17  1  0
 23 18  1  0
  1 27  1  0
  1 28  1  0
  1 29  1  0
  3 30  1  0
  3 31  1  0
  3 32  1  0
  6 33  1  0
  6 34  1  0
  9 35  1  0
 10 36  1  0
 11 37  1  0
 13 38  1  0
 13 39  1  0
 14 40  1  0
 19 41  1  0
 19 42  1  0
 20 43  1  0
 20 44  1  0
 21 45  1  0
 21 46  1  0
 22 47  1  0
 22 48  1  0
 25 49  1  0
 26 50  1  0
A    1
 C1 
A    2
 N1 
A    3
 C2 
A    4
 C3 
A    5
 O1 
A    6
 C4 
A    7
 O2 
A    8
 C5 
A    9
 C6 
A   10
 C7 
A   11
 C8 
A   12
 C9 
A   13
 C10
A   14
 N2 
A   15
 C11
A   16
 O3 
A   17
 C12
A   18
 C13
A   19
 C14
A   20
 C15
A   21
 C16
A   22
 C17
A   23
 N3 
A   24
 N4 
A   25
 C18
A   26
 C19
A   27
 H1 
A   28
 H2 
A   29
 H3 
A   30
 H4 
A   31
 H5 
A   32
 H6 
A   33
 H7 
A   34
 H8 
A   35
 H9 
A   36
 H10
A   37
 H11
A   38
 H12
A   39
 H13
A   40
 H14
A   41
 H15
A   42
 H16
A   43
 H17
A   44
 H18
A   45
 H19
A   46
 H20
A   47
 H21
A   48
 H22
A   49
 H23
A   50
 H24
M  END
>  <ref_pdb>  (296) 
x0051_0B

>  <ref_mols>  (296) 
x0969_1B,x0904_0B

>  <original SMILES>  (296) 
[H]c1nn2c(c1C(=O)N([H])C([H])([H])c1c([H])c([H])c([H])c(OC([H])([H])C(=O)N(C([H])([H])[H])C([H])([H])[H])c1[H])C([H])([H])C([H])([H])C([H])([H])C2([H])[H]

>  <index>  (296) 
1893

>  <∆∆G>  (296) 
-7.036333

>  <∆G_bound>  (296) 
-6.348569

>  <∆G_unbound>  (296) 
0.687763

>  <comRMSD>  (296) 
0.65243

>  <N_constrained_atoms>  (296) 
24.0

>  <N_unconstrained_atoms>  (296) 
2.0

>  <runtime>  (296) 
74.399909

>  <LE>  (296) 
0.270628

>  <percent_hybrid>  (296) 
42.0

>  <dist>  (296) 
5.0

>  <ecfp4>  (296) 
0.506849

>  <daylight>  (296) 
0.385135

>  <topodist>  (296) 
2.0

>  <mces>  (296) 
27.0

>  <tdn>  (296) 
0.0

>  <tup>  (296) 
1.0

>  <rdn>  (296) 
0.0

>  <rup>  (296) 
0.0

>  <ldn>  (296) 
1.0

>  <lup>  (296) 
0.0

>  <mut>  (296) 
2.0

>  <maj>  (296) 
2.0

>  <min>  (296) 
0.0

>  <hyb>  (296) 
1.0

>  <sub>  (296) 
0.0

>  <query_index>  (296) 
111.0

>  <max_hit_Tanimoto>  (296) 
0.338803

>  <largest_ring>  (296) 
6

>  <N_interactions_kept>  (296) 
1.5

>  <N_interactions_lost>  (296) 
2.0

>  <interaction_uniqueness_metric>  (296) 
0.128193

>  <ad_hoc_penalty>  (296) 
-8.132896

>  <N_rotatable_bonds>  (296) 
8

>  <N_HA>  (296) 
26

>  <cluster>  (296) 
4482

>  <N_interactions>  (296) 
6

>  <Enamine>  (296) 
1

>  <Mcule>  (296) 
0

>  <N_PAINS>  (296) 
0

>  <UFF_Gibbs>  (296) 
147.648087

>  <strain_per_HA>  (296) 
5.678773

>  <intxn_scored>  (296) 
9.0

>  <saltbridge:HIS:51>  (296) 
0

>  <pistack:HIS:51>  (296) 
2

>  <hydroph_interaction:HIS:51>  (296) 
0

>  <hbond:ALA:132>  (296) 
0

>  <hbond:SER:135>  (296) 
0

>  <hydroph_interaction:TYR:150>  (296) 
1

>  <pistack:TYR:161>  (296) 
1

>  <hydroph_interaction:TYR:161>  (296) 
0

>  <hydroph_interaction:ASP:83>  (296) 
0

>  <hbond:TYR:130>  (296) 
0

>  <hydroph_interaction:ALA:132>  (296) 
1

>  <hbond:HIS:51>  (296) 
0

>  <hbond:ASP:129>  (296) 
0

>  <hbond:TYR:150>  (296) 
0

>  <hbond:GLY:151>  (296) 
1

>  <hbond:TYR:161>  (296) 
0

>  <hydroph_interaction:TYR:130>  (296) 
0

>  <hydroph_interaction:PRO:131>  (296) 
0

>  <hydroph_interaction:ASP:129>  (296) 
0

>  <saltbridge:ASP:75>  (296) 
0

>  <saltbridge:ASP:83>  (296) 
0

>  <hbond:ASN:152>  (296) 
0

>  <hydroph_interaction:ASN:152>  (296) 
0

>  <halogenbond:TYR:150>  (296) 
0

>  <hbond:ASP:83>  (296) 
0

>  <hydroph_interaction:VAL:155>  (296) 
0

>  <pication:TYR:161>  (296) 
0

>  <hbond:PRO:131>  (296) 
0

>  <saltbridge:ASP:129>  (296) 
0

>  <hbond:THR:134>  (296) 
0

>  <pication:HIS:51>  (296) 
0

>  <hbond:SER:81>  (296) 
0

>  <hydroph_interaction:THR:134>  (296) 
0

>  <hydroph_interaction:MET:49>  (296) 
0

$$$$
Z2853439850
     RDKit          3D

 51 54  0  0  0  0  0  0  0  0999 V2000
   -6.3620    5.1020  -20.5830 C   0  0  0  0  0  0  0  0  0  0  0  0
   -7.5340    4.5750  -19.9130 N   0  0  0  0  0  0  0  0  0  0  0  0
   -8.6100    4.2180  -20.6610 C   0  0  0  0  0  0  0  0  0  0  0  0
   -8.5650    3.4500  -21.5930 O   0  0  0  0  0  0  0  0  0  0  0  0
   -9.8940    4.8870  -20.1920 C   0  0  0  0  0  0  0  0  0  0  0  0
  -10.2110    4.2620  -18.9020 C   0  0  0  0  0  0  0  0  0  0  0  0
   -9.0990    4.7010  -18.0830 C   0  0  0  0  0  0  0  0  0  0  0  0
   -9.4590    4.9650  -16.7050 C   0  0  0  0  0  0  0  0  0  0  0  0
   -8.4810    5.4020  -15.8670 C   0  0  0  0  0  0  0  0  0  0  0  0
   -8.8030    5.6590  -14.5560 C   0  0  0  0  0  0  0  0  0  0  0  0
   -8.2000    6.9090  -14.0840 N   0  0  0  0  0  0  0  0  0  0  0  0
   -8.5680    7.1270  -12.6870 C   0  0  0  0  0  0  0  0  0  0  0  0
   -8.6440    5.7790  -11.9760 C   0  0  0  0  0  0  0  0  0  0  0  0
   -8.7410    5.7710  -10.4700 C   0  0  0  0  0  0  0  0  0  0  0  0
   -8.9270    4.4530   -9.7370 C   0  0  0  0  0  0  0  0  0  0  0  0
   -9.0460    3.0370  -10.1510 C   0  0  0  0  0  0  0  0  0  0  0  0
   -8.6740    2.1860   -8.9590 C   0  0  0  0  0  0  0  0  0  0  0  0
   -9.5460    2.5580   -7.7710 C   0  0  0  0  0  0  0  0  0  0  0  0
   -9.1470    3.9490   -7.2920 C   0  0  0  0  0  0  0  0  0  0  0  0
   -8.9720    4.8470   -8.4230 N   0  0  0  0  0  0  0  0  0  0  0  0
   -8.8390    6.1890   -8.2340 N   0  0  0  0  0  0  0  0  0  0  0  0
   -8.7040    6.7390   -9.4580 C   0  0  0  0  0  0  0  0  0  0  0  0
   -7.1750    5.5760  -16.3590 C   0  0  0  0  0  0  0  0  0  0  0  0
   -6.8390    5.3110  -17.6870 C   0  0  0  0  0  0  0  0  0  0  0  0
   -7.8010    4.8660  -18.5680 C   0  0  0  0  0  0  0  0  0  0  0  0
   -5.4750    4.9580  -19.9600 H   0  0  0  0  0  0  0  0  0  0  0  0
   -6.1870    4.6090  -21.5460 H   0  0  0  0  0  0  0  0  0  0  0  0
   -6.4930    6.1750  -20.7590 H   0  0  0  0  0  0  0  0  0  0  0  0
  -10.7260    4.8510  -20.8820 H   0  0  0  0  0  0  0  0  0  0  0  0
   -9.6840    5.9340  -20.0160 H   0  0  0  0  0  0  0  0  0  0  0  0
  -11.1870    4.5710  -18.5070 H   0  0  0  0  0  0  0  0  0  0  0  0
  -10.1890    3.1780  -18.9780 H   0  0  0  0  0  0  0  0  0  0  0  0
  -10.4670    4.8210  -16.3530 H   0  0  0  0  0  0  0  0  0  0  0  0
   -9.8980    5.7050  -14.4780 H   0  0  0  0  0  0  0  0  0  0  0  0
   -8.4670    4.8200  -13.9370 H   0  0  0  0  0  0  0  0  0  0  0  0
   -7.1860    6.8300  -14.1620 H   0  0  0  0  0  0  0  0  0  0  0  0
   -7.8340    7.7800  -12.2020 H   0  0  0  0  0  0  0  0  0  0  0  0
   -9.5440    7.6270  -12.6310 H   0  0  0  0  0  0  0  0  0  0  0  0
   -7.7830    5.1550  -12.2480 H   0  0  0  0  0  0  0  0  0  0  0  0
   -9.5180    5.2340  -12.3630 H   0  0  0  0  0  0  0  0  0  0  0  0
   -8.3660    2.8390  -10.9890 H   0  0  0  0  0  0  0  0  0  0  0  0
  -10.0620    2.7970  -10.4780 H   0  0  0  0  0  0  0  0  0  0  0  0
   -8.7710    1.1400   -9.1990 H   0  0  0  0  0  0  0  0  0  0  0  0
   -7.6260    2.3640   -8.7030 H   0  0  0  0  0  0  0  0  0  0  0  0
  -10.6000    2.5470   -8.0730 H   0  0  0  0  0  0  0  0  0  0  0  0
   -9.4280    1.8310   -6.9680 H   0  0  0  0  0  0  0  0  0  0  0  0
   -9.9300    4.3830   -6.6580 H   0  0  0  0  0  0  0  0  0  0  0  0
   -8.2080    3.9110   -6.7330 H   0  0  0  0  0  0  0  0  0  0  0  0
   -8.5860    7.8110   -9.5460 H   0  0  0  0  0  0  0  0  0  0  0  0
   -6.3990    5.9250  -15.6830 H   0  0  0  0  0  0  0  0  0  0  0  0
   -5.8080    5.4660  -17.9910 H   0  0  0  0  0  0  0  0  0  0  0  0
  1  2  1  0
  2  3  1  0
  3  4  2  0
  3  5  1  0
  5  6  1  0
  6  7  1  0
  7  8  2  0
  8  9  1  0
  9 10  1  0
 10 11  1  0
 11 12  1  0
 12 13  1  0
 13 14  1  0
 14 15  2  0
 15 16  1  0
 16 17  1  0
 17 18  1  0
 18 19  1  0
 19 20  1  0
 20 21  1  0
 21 22  2  0
  9 23  2  0
 23 24  1  0
 24 25  2  0
 25  2  1  0
 25  7  1  0
 22 14  1  0
 20 15  1  0
  1 26  1  0
  1 27  1  0
  1 28  1  0
  5 29  1  0
  5 30  1  0
  6 31  1  0
  6 32  1  0
  8 33  1  0
 10 34  1  0
 10 35  1  0
 11 36  1  0
 12 37  1  0
 12 38  1  0
 13 39  1  0
 13 40  1  0
 16 41  1  0
 16 42  1  0
 17 43  1  0
 17 44  1  0
 18 45  1  0
 18 46  1  0
 19 47  1  0
 19 48  1  0
 22 49  1  0
 23 50  1  0
 24 51  1  0
A    1
 C1 
A    2
 N1 
A    3
 C2 
A    4
 O1 
A    5
 C3 
A    6
 C4 
A    7
 C5 
A    8
 C6 
A    9
 C7 
A   10
 C8 
A   11
 N2 
A   12
 C9 
A   13
 C10
A   14
 C11
A   15
 C12
A   16
 C13
A   17
 C14
A   18
 C15
A   19
 C16
A   20
 N3 
A   21
 N4 
A   22
 C17
A   23
 C18
A   24
 C19
A   25
 C20
A   26
 H1 
A   27
 H2 
A   28
 H3 
A   29
 H4 
A   30
 H5 
A   31
 H6 
A   32
 H7 
A   33
 H8 
A   34
 H9 
A   35
 H10
A   36
 H11
A   37
 H12
A   38
 H13
A   39
 H14
A   40
 H15
A   41
 H16
A   42
 H17
A   43
 H18
A   44
 H19
A   45
 H20
A   46
 H21
A   47
 H22
A   48
 H23
A   49
 H24
A   50
 H25
A   51
 H26
M  END
>  <ref_pdb>  (297) 
x0051_0B

>  <ref_mols>  (297) 
x0904_0B,x0969_1B

>  <original SMILES>  (297) 
[H]c1nn2c(c1C([H])([H])C([H])([H])N([H])C([H])([H])c1c([H])c([H])c3c(c1[H])C([H])([H])C([H])([H])C(=O)N3C([H])([H])[H])C([H])([H])C([H])([H])C([H])([H])C2([H])[H]

>  <index>  (297) 
1150

>  <∆∆G>  (297) 
-7.620908

>  <∆G_bound>  (297) 
-7.380388

>  <∆G_unbound>  (297) 
0.24052

>  <comRMSD>  (297) 
0.755757

>  <N_constrained_atoms>  (297) 
20.0

>  <N_unconstrained_atoms>  (297) 
8.0

>  <runtime>  (297) 
62.127933

>  <LE>  (297) 
0.272175

>  <percent_hybrid>  (297) 
50.0

>  <dist>  (297) 
6.0

>  <ecfp4>  (297) 
0.375

>  <daylight>  (297) 
0.29321

>  <topodist>  (297) 
2.0

>  <mces>  (297) 
27.0

>  <tdn>  (297) 
1.0

>  <tup>  (297) 
0.0

>  <rdn>  (297) 
0.0

>  <rup>  (297) 
1.0

>  <ldn>  (297) 
0.0

>  <lup>  (297) 
0.0

>  <mut>  (297) 
4.0

>  <maj>  (297) 
4.0

>  <min>  (297) 
0.0

>  <hyb>  (297) 
0.0

>  <sub>  (297) 
1.0

>  <query_index>  (297) 
266.0

>  <max_hit_Tanimoto>  (297) 
0.317403

>  <largest_ring>  (297) 
6

>  <N_interactions_kept>  (297) 
1.5

>  <N_interactions_lost>  (297) 
2.0

>  <interaction_uniqueness_metric>  (297) 
0.225823

>  <ad_hoc_penalty>  (297) 
-14.983065

>  <N_rotatable_bonds>  (297) 
6

>  <N_HA>  (297) 
25

>  <cluster>  (297) 
5162

>  <N_interactions>  (297) 
6

>  <Enamine>  (297) 
1

>  <Mcule>  (297) 
0

>  <N_PAINS>  (297) 
0

>  <UFF_Gibbs>  (297) 
117.838036

>  <strain_per_HA>  (297) 
4.713521

>  <intxn_scored>  (297) 
9.0

>  <saltbridge:HIS:51>  (297) 
0

>  <pistack:HIS:51>  (297) 
0

>  <hydroph_interaction:HIS:51>  (297) 
1

>  <hbond:ALA:132>  (297) 
0

>  <hbond:SER:135>  (297) 
0

>  <hydroph_interaction:TYR:150>  (297) 
1

>  <pistack:TYR:161>  (297) 
1

>  <hydroph_interaction:TYR:161>  (297) 
0

>  <hydroph_interaction:ASP:83>  (297) 
1

>  <hbond:TYR:130>  (297) 
1

>  <hydroph_interaction:ALA:132>  (297) 
0

>  <hbond:HIS:51>  (297) 
0

>  <hbond:ASP:129>  (297) 
0

>  <hbond:TYR:150>  (297) 
0

>  <hbond:GLY:151>  (297) 
0

>  <hbond:TYR:161>  (297) 
0

>  <hydroph_interaction:TYR:130>  (297) 
1

>  <hydroph_interaction:PRO:131>  (297) 
0

>  <hydroph_interaction:ASP:129>  (297) 
0

>  <saltbridge:ASP:75>  (297) 
0

>  <saltbridge:ASP:83>  (297) 
0

>  <hbond:ASN:152>  (297) 
0

>  <hydroph_interaction:ASN:152>  (297) 
0

>  <halogenbond:TYR:150>  (297) 
0

>  <hbond:ASP:83>  (297) 
0

>  <hydroph_interaction:VAL:155>  (297) 
0

>  <pication:TYR:161>  (297) 
0

>  <hbond:PRO:131>  (297) 
0

>  <saltbridge:ASP:129>  (297) 
0

>  <hbond:THR:134>  (297) 
0

>  <pication:HIS:51>  (297) 
0

>  <hbond:SER:81>  (297) 
0

>  <hydroph_interaction:THR:134>  (297) 
0

>  <hydroph_interaction:MET:49>  (297) 
0

$$$$
Z4398683327
     RDKit          3D

 40 43  0  0  0  0  0  0  0  0999 V2000
   -6.5780    5.0020  -20.4490 C   0  0  0  0  0  0  0  0  0  0  0  0
   -6.4660    5.1790  -18.9420 C   0  0  0  0  0  0  0  0  0  0  0  0
   -5.3520    5.4550  -18.2620 N   0  0  0  0  0  0  0  0  0  0  0  0
   -5.6470    5.5460  -16.9130 N   0  0  0  0  0  0  0  0  0  0  0  0
   -7.0170    5.3070  -16.8280 C   0  0  0  0  0  0  0  0  0  0  0  0
   -7.8160    5.3020  -15.6580 C   0  0  0  0  0  0  0  0  0  0  0  0
   -7.2930    5.5950  -14.3440 C   0  0  0  0  0  0  0  0  0  0  0  0
   -6.4910    6.5100  -14.1980 O   0  0  0  0  0  0  0  0  0  0  0  0
   -7.7330    4.8170  -13.2810 O   0  0  0  0  0  0  0  0  0  0  0  0
   -8.8710    5.2860  -12.4940 C   0  0  0  0  0  0  0  0  0  0  0  0
   -8.7720    5.3950  -11.0620 C   0  0  0  0  0  0  0  0  0  0  0  0
   -8.9230    4.3500  -10.0340 C   0  0  0  0  0  0  0  0  0  0  0  0
   -9.2080    2.9030  -10.2840 C   0  0  0  0  0  0  0  0  0  0  0  0
   -9.4870    2.1550   -9.1730 C   0  0  0  0  0  0  0  0  0  0  0  0
   -9.4760    2.6510   -7.7310 C   0  0  0  0  0  0  0  0  0  0  0  0
   -8.8940    4.0720   -7.5470 C   0  0  0  0  0  0  0  0  0  0  0  0
   -8.7870    4.8450   -8.7870 N   0  0  0  0  0  0  0  0  0  0  0  0
   -8.5300    6.2320   -8.8340 N   0  0  0  0  0  0  0  0  0  0  0  0
   -8.5270    6.5230  -10.1850 C   0  0  0  0  0  0  0  0  0  0  0  0
   -9.1320    5.0380  -15.8630 C   0  0  0  0  0  0  0  0  0  0  0  0
   -9.6800    4.7730  -17.2100 C   0  0  0  0  0  0  0  0  0  0  0  0
   -8.8750    4.7960  -18.2850 C   0  0  0  0  0  0  0  0  0  0  0  0
   -7.5360    5.0710  -18.0790 N   0  0  0  0  0  0  0  0  0  0  0  0
   -6.6160    5.9880  -20.9160 H   0  0  0  0  0  0  0  0  0  0  0  0
   -5.7120    4.4720  -20.8440 H   0  0  0  0  0  0  0  0  0  0  0  0
   -7.4860    4.4450  -20.7060 H   0  0  0  0  0  0  0  0  0  0  0  0
   -9.2430    6.2310  -12.9090 H   0  0  0  0  0  0  0  0  0  0  0  0
   -9.6570    4.5490  -12.7050 H   0  0  0  0  0  0  0  0  0  0  0  0
  -10.0460    2.8060  -10.9850 H   0  0  0  0  0  0  0  0  0  0  0  0
   -8.3320    2.4660  -10.7830 H   0  0  0  0  0  0  0  0  0  0  0  0
   -8.8310    1.2820   -9.2130 H   0  0  0  0  0  0  0  0  0  0  0  0
  -10.4990    1.7690   -9.3260 H   0  0  0  0  0  0  0  0  0  0  0  0
   -8.9100    1.9410   -7.1190 H   0  0  0  0  0  0  0  0  0  0  0  0
  -10.5010    2.6170   -7.3410 H   0  0  0  0  0  0  0  0  0  0  0  0
   -7.8980    4.0170   -7.0960 H   0  0  0  0  0  0  0  0  0  0  0  0
   -9.5480    4.6470   -6.8820 H   0  0  0  0  0  0  0  0  0  0  0  0
   -8.3510    7.5500  -10.4800 H   0  0  0  0  0  0  0  0  0  0  0  0
   -9.8410    5.0210  -15.0350 H   0  0  0  0  0  0  0  0  0  0  0  0
  -10.7330    4.5650  -17.3120 H   0  0  0  0  0  0  0  0  0  0  0  0
   -9.2190    4.6130  -19.2980 H   0  0  0  0  0  0  0  0  0  0  0  0
  1  2  1  0
  2  3  2  0
  3  4  1  0
  4  5  2  0
  5  6  1  0
  6  7  1  0
  7  8  2  0
  7  9  1  0
  9 10  1  0
 10 11  1  0
 11 12  2  0
 12 13  1  0
 13 14  1  0
 14 15  1  0
 15 16  1  0
 16 17  1  0
 17 18  1  0
 18 19  2  0
  6 20  2  0
 20 21  1  0
 21 22  2  0
 22 23  1  0
 23  2  1  0
 23  5  1  0
 19 11  1  0
 17 12  1  0
  1 24  1  0
  1 25  1  0
  1 26  1  0
 10 27  1  0
 10 28  1  0
 13 29  1  0
 13 30  1  0
 14 31  1  0
 14 32  1  0
 15 33  1  0
 15 34  1  0
 16 35  1  0
 16 36  1  0
 19 37  1  0
 20 38  1  0
 21 39  1  0
 22 40  1  0
A    1
 C1 
A    2
 C2 
A    3
 N1 
A    4
 N2 
A    5
 C3 
A    6
 C4 
A    7
 C5 
A    8
 O1 
A    9
 O2 
A   10
 C6 
A   11
 C7 
A   12
 C8 
A   13
 C9 
A   14
 C10
A   15
 C11
A   16
 C12
A   17
 N3 
A   18
 N4 
A   19
 C13
A   20
 C14
A   21
 C15
A   22
 C16
A   23
 N5 
A   24
 H1 
A   25
 H2 
A   26
 H3 
A   27
 H4 
A   28
 H5 
A   29
 H6 
A   30
 H7 
A   31
 H8 
A   32
 H9 
A   33
 H10
A   34
 H11
A   35
 H12
A   36
 H13
A   37
 H14
A   38
 H15
A   39
 H16
A   40
 H17
M  END
>  <ref_pdb>  (298) 
x0051_0B

>  <ref_mols>  (298) 
x0435_0B,x0969_1B

>  <original SMILES>  (298) 
[H]c1nn2c(c1C([H])([H])OC(=O)c1c([H])c([H])c([H])n3c(C([H])([H])[H])nnc13)C([H])([H])C([H])([H])C([H])([H])C2([H])[H]

>  <index>  (298) 
1025

>  <∆∆G>  (298) 
-7.455157

>  <∆G_bound>  (298) 
-5.979945

>  <∆G_unbound>  (298) 
1.475211

>  <comRMSD>  (298) 
0.466669

>  <N_constrained_atoms>  (298) 
20.0

>  <N_unconstrained_atoms>  (298) 
3.0

>  <runtime>  (298) 
43.365921

>  <LE>  (298) 
0.324137

>  <percent_hybrid>  (298) 
50.0

>  <dist>  (298) 
5.0

>  <ecfp4>  (298) 
0.342105

>  <daylight>  (298) 
0.303977

>  <topodist>  (298) 
1.0

>  <mces>  (298) 
25.0

>  <tdn>  (298) 
0.0

>  <tup>  (298) 
1.0

>  <rdn>  (298) 
0.0

>  <rup>  (298) 
0.0

>  <ldn>  (298) 
0.0

>  <lup>  (298) 
0.0

>  <mut>  (298) 
4.0

>  <maj>  (298) 
4.0

>  <min>  (298) 
0.0

>  <hyb>  (298) 
0.0

>  <sub>  (298) 
0.0

>  <query_index>  (298) 
311.0

>  <max_hit_Tanimoto>  (298) 
0.278783

>  <largest_ring>  (298) 
6

>  <N_interactions_kept>  (298) 
2.5

>  <N_interactions_lost>  (298) 
1.0

>  <interaction_uniqueness_metric>  (298) 
0.027887

>  <ad_hoc_penalty>  (298) 
-15.03584

>  <N_rotatable_bonds>  (298) 
4

>  <N_HA>  (298) 
23

>  <cluster>  (298) 
5276

>  <N_interactions>  (298) 
3

>  <Enamine>  (298) 
1

>  <Mcule>  (298) 
0

>  <N_PAINS>  (298) 
0

>  <UFF_Gibbs>  (298) 
84.32167

>  <strain_per_HA>  (298) 
3.66616

>  <intxn_scored>  (298) 
9.0

>  <saltbridge:HIS:51>  (298) 
0

>  <pistack:HIS:51>  (298) 
0

>  <hydroph_interaction:HIS:51>  (298) 
0

>  <hbond:ALA:132>  (298) 
0

>  <hbond:SER:135>  (298) 
0

>  <hydroph_interaction:TYR:150>  (298) 
0

>  <pistack:TYR:161>  (298) 
2

>  <hydroph_interaction:TYR:161>  (298) 
1

>  <hydroph_interaction:ASP:83>  (298) 
0

>  <hbond:TYR:130>  (298) 
0

>  <hydroph_interaction:ALA:132>  (298) 
0

>  <hbond:HIS:51>  (298) 
0

>  <hbond:ASP:129>  (298) 
0

>  <hbond:TYR:150>  (298) 
0

>  <hbond:GLY:151>  (298) 
0

>  <hbond:TYR:161>  (298) 
0

>  <hydroph_interaction:TYR:130>  (298) 
0

>  <hydroph_interaction:PRO:131>  (298) 
0

>  <hydroph_interaction:ASP:129>  (298) 
0

>  <saltbridge:ASP:75>  (298) 
0

>  <saltbridge:ASP:83>  (298) 
0

>  <hbond:ASN:152>  (298) 
0

>  <hydroph_interaction:ASN:152>  (298) 
0

>  <halogenbond:TYR:150>  (298) 
0

>  <hbond:ASP:83>  (298) 
0

>  <hydroph_interaction:VAL:155>  (298) 
0

>  <pication:TYR:161>  (298) 
0

>  <hbond:PRO:131>  (298) 
0

>  <saltbridge:ASP:129>  (298) 
0

>  <hbond:THR:134>  (298) 
0

>  <pication:HIS:51>  (298) 
0

>  <hbond:SER:81>  (298) 
0

>  <hydroph_interaction:THR:134>  (298) 
0

>  <hydroph_interaction:MET:49>  (298) 
0

$$$$
CSSB00014066589
     RDKit          3D

 19 20  0  0  0  0  0  0  0  0999 V2000
  -11.0780    4.6280  -18.2580 O   0  0  0  0  0  0  0  0  0  0  0  0
   -9.7960    4.8410  -17.9160 C   0  0  0  0  0  0  0  0  0  0  0  0
   -8.8110    4.9600  -19.0630 C   0  0  0  0  0  0  0  0  0  0  0  0
   -7.4970    5.1880  -18.6870 C   0  0  0  0  0  0  0  0  0  0  0  0
   -6.5250    5.3110  -19.6830 C   0  0  0  0  0  0  0  0  0  0  0  0
   -5.2010    5.5310  -19.3340 C   0  0  0  0  0  0  0  0  0  0  0  0
   -4.8380    5.6330  -17.9860 C   0  0  0  0  0  0  0  0  0  0  0  0
   -5.8020    5.5170  -16.9830 C   0  0  0  0  0  0  0  0  0  0  0  0
   -7.1280    5.2950  -17.3150 C   0  0  0  0  0  0  0  0  0  0  0  0
   -8.0670    5.1790  -16.2860 C   0  0  0  0  0  0  0  0  0  0  0  0
   -9.4050    4.9510  -16.5940 C   0  0  0  0  0  0  0  0  0  0  0  0
  -11.2980    5.2250  -18.9900 H   0  0  0  0  0  0  0  0  0  0  0  0
   -9.1290    4.8730  -20.1010 H   0  0  0  0  0  0  0  0  0  0  0  0
   -6.7980    5.2320  -20.7330 H   0  0  0  0  0  0  0  0  0  0  0  0
   -4.4490    5.6240  -20.1140 H   0  0  0  0  0  0  0  0  0  0  0  0
   -3.7990    5.8040  -17.7210 H   0  0  0  0  0  0  0  0  0  0  0  0
   -5.5080    5.5980  -15.9390 H   0  0  0  0  0  0  0  0  0  0  0  0
   -7.8410    5.2520  -15.2310 H   0  0  0  0  0  0  0  0  0  0  0  0
  -10.1200    4.8630  -15.7870 H   0  0  0  0  0  0  0  0  0  0  0  0
  1  2  1  0
  2  3  2  0
  3  4  1  0
  4  5  2  0
  5  6  1  0
  6  7  2  0
  7  8  1  0
  8  9  2  0
  9 10  1  0
 10 11  2  0
 11  2  1  0
  9  4  1  0
  1 12  1  0
  3 13  1  0
  5 14  1  0
  6 15  1  0
  7 16  1  0
  8 17  1  0
 10 18  1  0
 11 19  1  0
M  ISO  1   5  14
A    1
 O1 
A    2
 C1 
A    3
 C2 
A    4
 C3 
A    5
 C4 
A    6
 C5 
A    7
 C6 
A    8
 C7 
A    9
 C8 
A   10
 C9 
A   11
 C10
A   12
 H1 
A   13
 H2 
A   14
 H3 
A   15
 H4 
A   16
 H5 
A   17
 H6 
A   18
 H7 
A   19
 H8 
M  END
>  <ref_pdb>  (299) 
x0051_0B

>  <ref_mols>  (299) 
x0727_0B,x0800_0B

>  <original SMILES>  (299) 
[H]Oc1c([H])c([H])c2c([H])c([H])c([H])[14c]([H])c2c1[H]

>  <index>  (299) 
3757

>  <∆∆G>  (299) 
-5.87188

>  <∆G_bound>  (299) 
-5.911444

>  <∆G_unbound>  (299) 
-0.039564

>  <comRMSD>  (299) 
0.617836

>  <N_constrained_atoms>  (299) 
14.0

>  <N_unconstrained_atoms>  (299) 
0.0

>  <runtime>  (299) 
27.703709

>  <LE>  (299) 
0.41942

>  <percent_hybrid>  (299) 
43.0

>  <dist>  (299) 
2.0

>  <ecfp4>  (299) 
0.354839

>  <daylight>  (299) 
0.5

>  <topodist>  (299) 
2.0

>  <mces>  (299) 
12.0

>  <tdn>  (299) 
2.0

>  <tup>  (299) 
0.0

>  <rdn>  (299) 
0.0

>  <rup>  (299) 
0.0

>  <ldn>  (299) 
0.0

>  <lup>  (299) 
0.0

>  <mut>  (299) 
0.0

>  <maj>  (299) 
0.0

>  <min>  (299) 
0.0

>  <hyb>  (299) 
0.0

>  <sub>  (299) 
1.0

>  <query_index>  (299) 
67.0

>  <max_hit_Tanimoto>  (299) 
0.150943

>  <largest_ring>  (299) 
6

>  <N_interactions_kept>  (299) 
1.0

>  <N_interactions_lost>  (299) 
3.0

>  <interaction_uniqueness_metric>  (299) 
0.027887

>  <ad_hoc_penalty>  (299) 
-1.157999

>  <N_rotatable_bonds>  (299) 
1

>  <N_HA>  (299) 
11

>  <cluster>  (299) 
2728

>  <N_interactions>  (299) 
3

>  <Enamine>  (299) 
1

>  <Mcule>  (299) 
0

>  <N_PAINS>  (299) 
0

>  <UFF_Gibbs>  (299) 
21.629629

>  <strain_per_HA>  (299) 
1.96633

>  <intxn_scored>  (299) 
9.0

>  <saltbridge:HIS:51>  (299) 
0

>  <pistack:HIS:51>  (299) 
0

>  <hydroph_interaction:HIS:51>  (299) 
0

>  <hbond:ALA:132>  (299) 
0

>  <hbond:SER:135>  (299) 
0

>  <hydroph_interaction:TYR:150>  (299) 
0

>  <pistack:TYR:161>  (299) 
2

>  <hydroph_interaction:TYR:161>  (299) 
1

>  <hydroph_interaction:ASP:83>  (299) 
0

>  <hbond:TYR:130>  (299) 
0

>  <hydroph_interaction:ALA:132>  (299) 
0

>  <hbond:HIS:51>  (299) 
0

>  <hbond:ASP:129>  (299) 
0

>  <hbond:TYR:150>  (299) 
0

>  <hbond:GLY:151>  (299) 
0

>  <hbond:TYR:161>  (299) 
0

>  <hydroph_interaction:TYR:130>  (299) 
0

>  <hydroph_interaction:PRO:131>  (299) 
0

>  <hydroph_interaction:ASP:129>  (299) 
0

>  <saltbridge:ASP:75>  (299) 
0

>  <saltbridge:ASP:83>  (299) 
0

>  <hbond:ASN:152>  (299) 
0

>  <hydroph_interaction:ASN:152>  (299) 
0

>  <halogenbond:TYR:150>  (299) 
0

>  <hbond:ASP:83>  (299) 
0

>  <hydroph_interaction:VAL:155>  (299) 
0

>  <pication:TYR:161>  (299) 
0

>  <hbond:PRO:131>  (299) 
0

>  <saltbridge:ASP:129>  (299) 
0

>  <hbond:THR:134>  (299) 
0

>  <pication:HIS:51>  (299) 
0

>  <hbond:SER:81>  (299) 
0

>  <hydroph_interaction:THR:134>  (299) 
0

>  <hydroph_interaction:MET:49>  (299) 
0

$$$$
Z4126374253
     RDKit          3D

 33 34  0  0  0  0  0  0  0  0999 V2000
   -8.0130    6.8750  -14.9260 C   0  0  0  0  0  0  0  0  0  0  0  0
   -7.5660    5.6630  -14.1880 C   0  0  0  0  0  0  0  0  0  0  0  0
   -8.4670    4.7280  -13.8570 C   0  0  0  0  0  0  0  0  0  0  0  0
   -6.6100    4.9930  -15.0720 N   0  0  0  0  0  0  0  0  0  0  0  0
   -5.7880    5.7130  -15.9730 C   0  0  0  0  0  0  0  0  0  0  0  0
   -4.8110    6.2980  -15.5190 O   0  0  0  0  0  0  0  0  0  0  0  0
   -6.1410    5.7040  -17.2810 N   0  0  0  0  0  0  0  0  0  0  0  0
   -5.1450    5.5310  -18.1830 C   0  0  0  0  0  0  0  0  0  0  0  0
   -5.4390    5.5690  -19.6660 C   0  0  0  0  0  0  0  0  0  0  0  0
   -6.9050    5.4980  -19.9950 C   0  0  0  0  0  0  0  0  0  0  0  0
   -7.8480    5.2490  -18.9930 C   0  0  0  0  0  0  0  0  0  0  0  0
   -9.1660    4.9040  -19.3060 C   0  0  0  0  0  0  0  0  0  0  0  0
  -10.1320    4.6640  -18.2030 C   0  0  0  0  0  0  0  0  0  0  0  0
   -9.6460    4.7980  -16.9160 C   0  0  0  0  0  0  0  0  0  0  0  0
   -8.3680    5.1280  -16.6450 N   0  0  0  0  0  0  0  0  0  0  0  0
   -7.4800    5.3520  -17.6440 C   0  0  0  0  0  0  0  0  0  0  0  0
   -7.4300    6.9910  -15.8430 H   0  0  0  0  0  0  0  0  0  0  0  0
   -9.0670    6.7670  -15.2000 H   0  0  0  0  0  0  0  0  0  0  0  0
   -7.9000    7.7980  -14.3490 H   0  0  0  0  0  0  0  0  0  0  0  0
   -6.9930    5.9800  -13.3190 H   0  0  0  0  0  0  0  0  0  0  0  0
   -8.1160    3.7060  -13.7340 H   0  0  0  0  0  0  0  0  0  0  0  0
   -9.2630    4.7110  -14.6100 H   0  0  0  0  0  0  0  0  0  0  0  0
   -8.9360    5.0360  -12.9130 H   0  0  0  0  0  0  0  0  0  0  0  0
   -6.8240    4.0190  -15.2650 H   0  0  0  0  0  0  0  0  0  0  0  0
   -4.2980    6.1370  -17.8800 H   0  0  0  0  0  0  0  0  0  0  0  0
   -4.7610    4.5210  -18.0340 H   0  0  0  0  0  0  0  0  0  0  0  0
   -4.9080    4.7740  -20.1860 H   0  0  0  0  0  0  0  0  0  0  0  0
   -5.0400    6.5070  -20.0700 H   0  0  0  0  0  0  0  0  0  0  0  0
   -7.1520    6.4770  -20.4060 H   0  0  0  0  0  0  0  0  0  0  0  0
   -7.0370    4.7790  -20.8130 H   0  0  0  0  0  0  0  0  0  0  0  0
   -9.4920    4.8130  -20.3380 H   0  0  0  0  0  0  0  0  0  0  0  0
  -11.1640    4.3980  -18.3910 H   0  0  0  0  0  0  0  0  0  0  0  0
  -10.2830    4.6400  -16.0430 H   0  0  0  0  0  0  0  0  0  0  0  0
  1  2  1  0
  2  3  1  0
  2  4  1  0
  4  5  1  0
  5  6  2  0
  5  7  1  0
  7  8  1  0
  8  9  1  0
  9 10  1  0
 10 11  1  0
 11 12  2  0
 12 13  1  0
 13 14  2  0
 14 15  1  0
 15 16  2  0
 16  7  1  0
 16 11  1  0
  1 17  1  0
  1 18  1  0
  1 19  1  0
  2 20  1  0
  3 21  1  0
  3 22  1  0
  3 23  1  0
  4 24  1  0
  8 25  1  0
  8 26  1  0
  9 27  1  0
  9 28  1  0
 10 29  1  0
 10 30  1  0
 12 31  1  0
 13 32  1  0
 14 33  1  0
A    1
 C1 
A    2
 C2 
A    3
 C3 
A    4
 N1 
A    5
 C4 
A    6
 O1 
A    7
 N2 
A    8
 C5 
A    9
 C6 
A   10
 C7 
A   11
 C8 
A   12
 C9 
A   13
 C10
A   14
 C11
A   15
 N3 
A   16
 C12
A   17
 H1 
A   18
 H2 
A   19
 H3 
A   20
 H4 
A   21
 H5 
A   22
 H6 
A   23
 H7 
A   24
 H8 
A   25
 H9 
A   26
 H10
A   27
 H11
A   28
 H12
A   29
 H13
A   30
 H14
A   31
 H15
A   32
 H16
A   33
 H17
M  END
>  <ref_pdb>  (300) 
x0051_0B

>  <ref_mols>  (300) 
x0089_0B,x0455_0B

>  <original SMILES>  (300) 
[H]c1nc2c(c([H])c1[H])C([H])([H])C([H])([H])C([H])([H])N2C(=O)N([H])C([H])(C([H])([H])[H])C([H])([H])[H]

>  <index>  (300) 
2180

>  <∆∆G>  (300) 
-5.756919

>  <∆G_bound>  (300) 
-5.168418

>  <∆G_unbound>  (300) 
0.588501

>  <comRMSD>  (300) 
0.838487

>  <N_constrained_atoms>  (300) 
14.0

>  <N_unconstrained_atoms>  (300) 
3.0

>  <runtime>  (300) 
28.597988

>  <LE>  (300) 
0.338642

>  <percent_hybrid>  (300) 
43.0

>  <dist>  (300) 
3.0

>  <ecfp4>  (300) 
0.444444

>  <daylight>  (300) 
0.255144

>  <topodist>  (300) 
1.0

>  <mces>  (300) 
17.0

>  <tdn>  (300) 
0.0

>  <tup>  (300) 
0.0

>  <rdn>  (300) 
1.0

>  <rup>  (300) 
0.0

>  <ldn>  (300) 
0.0

>  <lup>  (300) 
0.0

>  <mut>  (300) 
2.0

>  <maj>  (300) 
2.0

>  <min>  (300) 
0.0

>  <hyb>  (300) 
0.0

>  <sub>  (300) 
0.0

>  <query_index>  (300) 
166.0

>  <max_hit_Tanimoto>  (300) 
0.254605

>  <largest_ring>  (300) 
6

>  <N_interactions_kept>  (300) 
0.0

>  <N_interactions_lost>  (300) 
3.0

>  <interaction_uniqueness_metric>  (300) 
0.106077

>  <ad_hoc_penalty>  (300) 
-1.472823

>  <N_rotatable_bonds>  (300) 
3

>  <N_HA>  (300) 
16

>  <cluster>  (300) 
4217

>  <N_interactions>  (300) 
6

>  <Enamine>  (300) 
1

>  <Mcule>  (300) 
0

>  <N_PAINS>  (300) 
0

>  <UFF_Gibbs>  (300) 
167.585216

>  <strain_per_HA>  (300) 
10.474076

>  <intxn_scored>  (300) 
9.0

>  <saltbridge:HIS:51>  (300) 
0

>  <pistack:HIS:51>  (300) 
0

>  <hydroph_interaction:HIS:51>  (300) 
0

>  <hbond:ALA:132>  (300) 
0

>  <hbond:SER:135>  (300) 
0

>  <hydroph_interaction:TYR:150>  (300) 
1

>  <pistack:TYR:161>  (300) 
1

>  <hydroph_interaction:TYR:161>  (300) 
2

>  <hydroph_interaction:ASP:83>  (300) 
0

>  <hbond:TYR:130>  (300) 
0

>  <hydroph_interaction:ALA:132>  (300) 
1

>  <hbond:HIS:51>  (300) 
0

>  <hbond:ASP:129>  (300) 
0

>  <hbond:TYR:150>  (300) 
0

>  <hbond:GLY:151>  (300) 
0

>  <hbond:TYR:161>  (300) 
1

>  <hydroph_interaction:TYR:130>  (300) 
0

>  <hydroph_interaction:PRO:131>  (300) 
0

>  <hydroph_interaction:ASP:129>  (300) 
0

>  <saltbridge:ASP:75>  (300) 
0

>  <saltbridge:ASP:83>  (300) 
0

>  <hbond:ASN:152>  (300) 
0

>  <hydroph_interaction:ASN:152>  (300) 
0

>  <halogenbond:TYR:150>  (300) 
0

>  <hbond:ASP:83>  (300) 
0

>  <hydroph_interaction:VAL:155>  (300) 
0

>  <pication:TYR:161>  (300) 
0

>  <hbond:PRO:131>  (300) 
0

>  <saltbridge:ASP:129>  (300) 
0

>  <hbond:THR:134>  (300) 
0

>  <pication:HIS:51>  (300) 
0

>  <hbond:SER:81>  (300) 
0

>  <hydroph_interaction:THR:134>  (300) 
0

>  <hydroph_interaction:MET:49>  (300) 
0

$$$$
Z1159131712
     RDKit          3D

 42 46  0  0  0  0  0  0  0  0999 V2000
   -9.3080    4.4510  -17.1750 C   0  0  0  0  0  0  0  0  0  0  0  0
   -8.2290    4.6180  -16.1730 C   0  0  0  0  0  0  0  0  0  0  0  0
   -7.0280    5.2270  -16.5390 C   0  0  0  0  0  0  0  0  0  0  0  0
   -6.8740    5.6930  -17.8480 C   0  0  0  0  0  0  0  0  0  0  0  0
   -5.8650    6.3860  -18.5690 N   0  0  0  0  0  0  0  0  0  0  0  0
   -6.3810    6.6230  -19.8540 C   0  0  0  0  0  0  0  0  0  0  0  0
   -6.0310    7.3850  -21.1290 C   0  0  0  0  0  0  0  0  0  0  0  0
   -5.9530    6.7400  -22.5510 C   0  0  0  0  0  0  0  0  0  0  0  0
   -5.7480    7.6740  -23.7830 C   0  0  0  0  0  0  0  0  0  0  0  0
   -5.6370    9.1540  -23.4150 C   0  0  0  0  0  0  0  0  0  0  0  0
   -5.5030   10.0650  -24.6510 C   0  0  0  0  0  0  0  0  0  0  0  0
   -5.7450    9.4060  -25.9460 N   0  0  0  0  0  0  0  0  0  0  0  0
   -6.9490    9.1270  -26.5330 C   0  0  0  0  0  0  0  0  0  0  0  0
   -7.3500    7.8760  -27.0660 N   0  0  0  0  0  0  0  0  0  0  0  0
   -8.5940    8.0210  -27.5430 C   0  0  0  0  0  0  0  0  0  0  0  0
   -9.3610    7.0070  -28.1400 C   0  0  0  0  0  0  0  0  0  0  0  0
  -10.6440    7.3610  -28.5590 C   0  0  0  0  0  0  0  0  0  0  0  0
  -11.0680    8.6760  -28.3650 C   0  0  0  0  0  0  0  0  0  0  0  0
  -10.3110    9.7030  -27.7740 C   0  0  0  0  0  0  0  0  0  0  0  0
   -9.0170    9.3320  -27.3490 C   0  0  0  0  0  0  0  0  0  0  0  0
   -7.9840   10.0520  -26.7120 O   0  0  0  0  0  0  0  0  0  0  0  0
   -5.6670    9.6290  -22.0950 C   0  0  0  0  0  0  0  0  0  0  0  0
   -5.8570    8.7780  -20.9930 C   0  0  0  0  0  0  0  0  0  0  0  0
   -7.5300    6.0470  -19.9020 N   0  0  0  0  0  0  0  0  0  0  0  0
   -7.8790    5.5220  -18.7660 C   0  0  0  0  0  0  0  0  0  0  0  0
   -9.1620    4.8640  -18.4640 C   0  0  0  0  0  0  0  0  0  0  0  0
  -10.1910    3.9870  -16.7930 H   0  0  0  0  0  0  0  0  0  0  0  0
   -8.3670    4.2720  -15.1520 H   0  0  0  0  0  0  0  0  0  0  0  0
   -6.2360    5.3490  -15.8090 H   0  0  0  0  0  0  0  0  0  0  0  0
   -4.9750    6.6890  -18.2090 H   0  0  0  0  0  0  0  0  0  0  0  0
   -6.0720    5.6640  -22.6890 H   0  0  0  0  0  0  0  0  0  0  0  0
   -5.7090    7.2930  -24.8010 H   0  0  0  0  0  0  0  0  0  0  0  0
   -6.2090   10.8950  -24.5430 H   0  0  0  0  0  0  0  0  0  0  0  0
   -4.5050   10.5130  -24.6490 H   0  0  0  0  0  0  0  0  0  0  0  0
   -4.9730    9.4740  -26.6020 H   0  0  0  0  0  0  0  0  0  0  0  0
   -8.9690    6.0020  -28.2600 H   0  0  0  0  0  0  0  0  0  0  0  0
  -11.2960    6.6260  -29.0260 H   0  0  0  0  0  0  0  0  0  0  0  0
  -12.0750    8.9520  -28.6940 H   0  0  0  0  0  0  0  0  0  0  0  0
  -10.6940   10.7090  -27.6480 H   0  0  0  0  0  0  0  0  0  0  0  0
   -5.5610   10.6980  -21.9140 H   0  0  0  0  0  0  0  0  0  0  0  0
   -5.8950    9.2440  -20.0160 H   0  0  0  0  0  0  0  0  0  0  0  0
   -9.9340    4.7460  -19.2160 H   0  0  0  0  0  0  0  0  0  0  0  0
  1  2  2  0
  2  3  1  0
  3  4  2  0
  4  5  1  0
  5  6  1  0
  6  7  1  0
  7  8  2  0
  8  9  1  0
  9 10  2  0
 10 11  1  0
 11 12  1  0
 12 13  1  0
 13 14  2  0
 14 15  1  0
 15 16  2  0
 16 17  1  0
 17 18  2  0
 18 19  1  0
 19 20  2  0
 20 21  1  0
 10 22  1  0
 22 23  2  0
  6 24  2  0
 24 25  1  0
 25 26  2  0
 26  1  1  0
 25  4  1  0
 23  7  1  0
 21 13  1  0
 20 15  1  0
  1 27  1  0
  2 28  1  0
  3 29  1  0
  5 30  1  0
  8 31  1  0
  9 32  1  0
 11 33  1  0
 11 34  1  0
 12 35  1  0
 16 36  1  0
 17 37  1  0
 18 38  1  0
 19 39  1  0
 22 40  1  0
 23 41  1  0
 26 42  1  0
A    1
 C1 
A    2
 C2 
A    3
 C3 
A    4
 C4 
A    5
 N1 
A    6
 C5 
A    7
 C6 
A    8
 C7 
A    9
 C8 
A   10
 C9 
A   11
 C10
A   12
 N2 
A   13
 C11
A   14
 N3 
A   15
 C12
A   16
 C13
A   17
 C14
A   18
 C15
A   19
 C16
A   20
 C17
A   21
 O1 
A   22
 C18
A   23
 C19
A   24
 N4 
A   25
 C20
A   26
 C21
A   27
 H1 
A   28
 H2 
A   29
 H3 
A   30
 H4 
A   31
 H5 
A   32
 H6 
A   33
 H7 
A   34
 H8 
A   35
 H9 
A   36
 H10
A   37
 H11
A   38
 H12
A   39
 H13
A   40
 H14
A   41
 H15
A   42
 H16
M  END
>  <ref_pdb>  (301) 
x0051_0B

>  <ref_mols>  (301) 
x0846_1B,x0490_0B

>  <original SMILES>  (301) 
[H]c1c([H])c(C([H])([H])N([H])c2nc3c([H])c([H])c([H])c([H])c3o2)c([H])c([H])c1-c1nc2c([H])c([H])c([H])c([H])c2n1[H]

>  <index>  (301) 
1797

>  <∆∆G>  (301) 
-5.944625

>  <∆G_bound>  (301) 
-5.644277

>  <∆G_unbound>  (301) 
0.300348

>  <comRMSD>  (301) 
0.909047

>  <N_constrained_atoms>  (301) 
28.0

>  <N_unconstrained_atoms>  (301) 
0.0

>  <runtime>  (301) 
53.525103

>  <LE>  (301) 
0.212308

>  <percent_hybrid>  (301) 
36.0

>  <dist>  (301) 
6.0

>  <ecfp4>  (301) 
0.272727

>  <daylight>  (301) 
0.353712

>  <topodist>  (301) 
5.0

>  <mces>  (301) 
30.0

>  <tdn>  (301) 
3.0

>  <tup>  (301) 
0.0

>  <rdn>  (301) 
0.0

>  <rup>  (301) 
0.0

>  <ldn>  (301) 
2.0

>  <lup>  (301) 
0.0

>  <mut>  (301) 
1.0

>  <maj>  (301) 
1.0

>  <min>  (301) 
0.0

>  <hyb>  (301) 
0.0

>  <sub>  (301) 
2.0

>  <query_index>  (301) 
51.0

>  <max_hit_Tanimoto>  (301) 
0.357317

>  <largest_ring>  (301) 
6

>  <N_interactions_kept>  (301) 
1.0

>  <N_interactions_lost>  (301) 
2.0

>  <interaction_uniqueness_metric>  (301) 
0.123633

>  <ad_hoc_penalty>  (301) 
-9.182045

>  <N_rotatable_bonds>  (301) 
4

>  <N_HA>  (301) 
26

>  <cluster>  (301) 
4569

>  <N_interactions>  (301) 
4

>  <Enamine>  (301) 
1

>  <Mcule>  (301) 
0

>  <N_PAINS>  (301) 
0

>  <UFF_Gibbs>  (301) 
132.127249

>  <strain_per_HA>  (301) 
5.081817

>  <intxn_scored>  (301) 
9.0

>  <saltbridge:HIS:51>  (301) 
0

>  <pistack:HIS:51>  (301) 
0

>  <hydroph_interaction:HIS:51>  (301) 
0

>  <hbond:ALA:132>  (301) 
0

>  <hbond:SER:135>  (301) 
0

>  <hydroph_interaction:TYR:150>  (301) 
0

>  <pistack:TYR:161>  (301) 
2

>  <hydroph_interaction:TYR:161>  (301) 
0

>  <hydroph_interaction:ASP:83>  (301) 
0

>  <hbond:TYR:130>  (301) 
0

>  <hydroph_interaction:ALA:132>  (301) 
0

>  <hbond:HIS:51>  (301) 
0

>  <hbond:ASP:129>  (301) 
0

>  <hbond:TYR:150>  (301) 
0

>  <hbond:GLY:151>  (301) 
0

>  <hbond:TYR:161>  (301) 
0

>  <hydroph_interaction:TYR:130>  (301) 
1

>  <hydroph_interaction:PRO:131>  (301) 
1

>  <hydroph_interaction:ASP:129>  (301) 
0

>  <saltbridge:ASP:75>  (301) 
0

>  <saltbridge:ASP:83>  (301) 
0

>  <hbond:ASN:152>  (301) 
0

>  <hydroph_interaction:ASN:152>  (301) 
0

>  <halogenbond:TYR:150>  (301) 
0

>  <hbond:ASP:83>  (301) 
0

>  <hydroph_interaction:VAL:155>  (301) 
0

>  <pication:TYR:161>  (301) 
0

>  <hbond:PRO:131>  (301) 
0

>  <saltbridge:ASP:129>  (301) 
0

>  <hbond:THR:134>  (301) 
0

>  <pication:HIS:51>  (301) 
0

>  <hbond:SER:81>  (301) 
0

>  <hydroph_interaction:THR:134>  (301) 
0

>  <hydroph_interaction:MET:49>  (301) 
0

$$$$
CSSB00055618768
     RDKit          3D

 37 38  0  0  0  0  0  0  0  0999 V2000
   -5.0260    5.4730  -21.2220 C   0  0  0  0  0  0  0  0  0  0  0  0
   -6.1450    5.1410  -20.4150 O   0  0  0  0  0  0  0  0  0  0  0  0
   -6.0810    5.4540  -19.0930 C   0  0  0  0  0  0  0  0  0  0  0  0
   -5.0740    5.9070  -18.5980 O   0  0  0  0  0  0  0  0  0  0  0  0
   -7.2050    5.2550  -18.2900 C   0  0  0  0  0  0  0  0  0  0  0  0
   -7.1530    5.4080  -16.9010 C   0  0  0  0  0  0  0  0  0  0  0  0
   -6.0810    5.7450  -16.0860 C   0  0  0  0  0  0  0  0  0  0  0  0
   -4.0860    6.1670  -16.4480 I   0  0  0  0  0  0  0  0  0  0  0  0
   -6.6070    5.7690  -14.7150 C   0  0  0  0  0  0  0  0  0  0  0  0
   -7.9240    5.4590  -14.6940 N   0  0  0  0  0  0  0  0  0  0  0  0
   -8.6470    5.4250  -13.4780 C   0  0  0  0  0  0  0  0  0  0  0  0
   -8.7970    4.4030  -12.8310 O   0  0  0  0  0  0  0  0  0  0  0  0
   -9.0960    6.6730  -13.1800 O   0  0  0  0  0  0  0  0  0  0  0  0
  -10.5230    6.9360  -13.1670 C   0  0  0  0  0  0  0  0  0  0  0  0
  -10.8070    7.4330  -14.3770 C   0  0  0  0  0  0  0  0  0  0  0  0
  -11.3110    5.6410  -12.9470 C   0  0  0  0  0  0  0  0  0  0  0  0
  -10.8970    7.9790  -12.1120 C   0  0  0  0  0  0  0  0  0  0  0  0
   -8.2970    5.2220  -16.0530 C   0  0  0  0  0  0  0  0  0  0  0  0
   -9.5160    4.8650  -16.6120 C   0  0  0  0  0  0  0  0  0  0  0  0
   -9.6520    4.6740  -18.1110 C   0  0  0  0  0  0  0  0  0  0  0  0
   -8.4030    4.8940  -18.9420 C   0  0  0  0  0  0  0  0  0  0  0  0
   -4.8760    4.7300  -22.0170 H   0  0  0  0  0  0  0  0  0  0  0  0
   -5.1540    6.4470  -21.7070 H   0  0  0  0  0  0  0  0  0  0  0  0
   -4.1420    5.5350  -20.5820 H   0  0  0  0  0  0  0  0  0  0  0  0
   -5.9280    6.0190  -13.8920 H   0  0  0  0  0  0  0  0  0  0  0  0
  -10.3470    8.4200  -14.4820 H   0  0  0  0  0  0  0  0  0  0  0  0
  -11.8890    7.5750  -14.4810 H   0  0  0  0  0  0  0  0  0  0  0  0
  -10.4760    6.8730  -15.2490 H   0  0  0  0  0  0  0  0  0  0  0  0
  -11.0040    5.1470  -12.0290 H   0  0  0  0  0  0  0  0  0  0  0  0
  -12.3760    5.8440  -12.8900 H   0  0  0  0  0  0  0  0  0  0  0  0
  -11.1670    4.9250  -13.7690 H   0  0  0  0  0  0  0  0  0  0  0  0
  -11.9550    8.2530  -12.1650 H   0  0  0  0  0  0  0  0  0  0  0  0
  -10.3240    8.9010  -12.2540 H   0  0  0  0  0  0  0  0  0  0  0  0
  -10.7040    7.6100  -11.0990 H   0  0  0  0  0  0  0  0  0  0  0  0
  -10.4420    4.6960  -16.0620 H   0  0  0  0  0  0  0  0  0  0  0  0
  -10.5940    4.3940  -18.5760 H   0  0  0  0  0  0  0  0  0  0  0  0
   -8.4320    4.7760  -20.0230 H   0  0  0  0  0  0  0  0  0  0  0  0
  1  2  1  0
  2  3  1  0
  3  4  2  0
  3  5  1  0
  5  6  2  0
  6  7  1  0
  7  8  1  0
  7  9  2  0
  9 10  1  0
 10 11  1  0
 11 12  2  0
 11 13  1  0
 13 14  1  0
 14 15  1  0
 14 16  1  0
 14 17  1  0
 10 18  1  0
 18 19  2  0
 19 20  1  0
 20 21  2  0
 21  5  1  0
 18  6  1  0
  1 22  1  0
  1 23  1  0
  1 24  1  0
  9 25  1  0
 15 26  1  0
 15 27  1  0
 15 28  1  0
 16 29  1  0
 16 30  1  0
 16 31  1  0
 17 32  1  0
 17 33  1  0
 17 34  1  0
 19 35  1  0
 20 36  1  0
 21 37  1  0
A    1
 C1 
A    2
 O1 
A    3
 C2 
A    4
 O2 
A    5
 C3 
A    6
 C4 
A    7
 C5 
A    8
 I1 
A    9
 C6 
A   10
 N1 
A   11
 C7 
A   12
 O3 
A   13
 O4 
A   14
 C8 
A   15
 C9 
A   16
 C10
A   17
 C11
A   18
 C12
A   19
 C13
A   20
 C14
A   21
 C15
A   22
 H1 
A   23
 H2 
A   24
 H3 
A   25
 H4 
A   26
 H5 
A   27
 H6 
A   28
 H7 
A   29
 H8 
A   30
 H9 
A   31
 H10
A   32
 H11
A   33
 H12
A   34
 H13
A   35
 H14
A   36
 H15
A   37
 H16
M  END
>  <ref_pdb>  (302) 
x0051_0B

>  <ref_mols>  (302) 
x0101_0B,x0951_0B

>  <original SMILES>  (302) 
[H]c1c([H])c([H])c2c(c(I)c([H])n2C(=O)OC(C([H])([H])[H])(C([H])([H])[H])C([H])([H])[H])c1C(=O)OC([H])([H])[H]

>  <index>  (302) 
1010

>  <∆∆G>  (302) 
-9.107876

>  <∆G_bound>  (302) 
-8.407805

>  <∆G_unbound>  (302) 
0.700071

>  <comRMSD>  (302) 
0.999598

>  <N_constrained_atoms>  (302) 
20.0

>  <N_unconstrained_atoms>  (302) 
5.0

>  <runtime>  (302) 
51.970991

>  <LE>  (302) 
0.364315

>  <percent_hybrid>  (302) 
43.0

>  <dist>  (302) 
11.0

>  <ecfp4>  (302) 
0.13253

>  <daylight>  (302) 
0.188285

>  <topodist>  (302) 
4.0

>  <mces>  (302) 
20.0

>  <tdn>  (302) 
1.0

>  <tup>  (302) 
1.0

>  <rdn>  (302) 
0.0

>  <rup>  (302) 
0.0

>  <ldn>  (302) 
1.0

>  <lup>  (302) 
1.0

>  <mut>  (302) 
6.0

>  <maj>  (302) 
5.0

>  <min>  (302) 
1.0

>  <hyb>  (302) 
1.0

>  <sub>  (302) 
1.0

>  <query_index>  (302) 
30.0

>  <max_hit_Tanimoto>  (302) 
0.192699

>  <largest_ring>  (302) 
6

>  <N_interactions_kept>  (302) 
1.5

>  <N_interactions_lost>  (302) 
2.5

>  <interaction_uniqueness_metric>  (302) 
0.055993

>  <ad_hoc_penalty>  (302) 
-11.954177

>  <N_rotatable_bonds>  (302) 
2

>  <N_HA>  (302) 
21

>  <cluster>  (302) 
5291

>  <N_interactions>  (302) 
4

>  <Enamine>  (302) 
1

>  <Mcule>  (302) 
0

>  <N_PAINS>  (302) 
0

>  <UFF_Gibbs>  (302) 
150.822365

>  <strain_per_HA>  (302) 
7.182017

>  <intxn_scored>  (302) 
9.0

>  <saltbridge:HIS:51>  (302) 
0

>  <pistack:HIS:51>  (302) 
0

>  <hydroph_interaction:HIS:51>  (302) 
0

>  <hbond:ALA:132>  (302) 
0

>  <hbond:SER:135>  (302) 
0

>  <hydroph_interaction:TYR:150>  (302) 
1

>  <pistack:TYR:161>  (302) 
2

>  <hydroph_interaction:TYR:161>  (302) 
0

>  <hydroph_interaction:ASP:83>  (302) 
0

>  <hbond:TYR:130>  (302) 
0

>  <hydroph_interaction:ALA:132>  (302) 
1

>  <hbond:HIS:51>  (302) 
0

>  <hbond:ASP:129>  (302) 
0

>  <hbond:TYR:150>  (302) 
0

>  <hbond:GLY:151>  (302) 
0

>  <hbond:TYR:161>  (302) 
0

>  <hydroph_interaction:TYR:130>  (302) 
0

>  <hydroph_interaction:PRO:131>  (302) 
0

>  <hydroph_interaction:ASP:129>  (302) 
0

>  <saltbridge:ASP:75>  (302) 
0

>  <saltbridge:ASP:83>  (302) 
0

>  <hbond:ASN:152>  (302) 
0

>  <hydroph_interaction:ASN:152>  (302) 
0

>  <halogenbond:TYR:150>  (302) 
0

>  <hbond:ASP:83>  (302) 
0

>  <hydroph_interaction:VAL:155>  (302) 
0

>  <pication:TYR:161>  (302) 
0

>  <hbond:PRO:131>  (302) 
0

>  <saltbridge:ASP:129>  (302) 
0

>  <hbond:THR:134>  (302) 
0

>  <pication:HIS:51>  (302) 
0

>  <hbond:SER:81>  (302) 
0

>  <hydroph_interaction:THR:134>  (302) 
0

>  <hydroph_interaction:MET:49>  (302) 
0

$$$$
CSSB00015186498
     RDKit          3D

 32 34  0  0  0  0  0  0  0  0999 V2000
   -5.3510    5.3980  -15.6140 C   0  0  0  0  0  0  0  0  0  0  0  0
   -5.9110    5.5920  -16.9160 N   0  0  0  0  0  0  0  0  0  0  0  0
   -5.1580    5.3930  -18.0710 C   0  0  0  0  0  0  0  0  0  0  0  0
   -3.9900    5.0380  -18.1410 O   0  0  0  0  0  0  0  0  0  0  0  0
   -6.1390    5.7490  -19.2080 C   0  0  0  0  0  0  0  0  0  0  0  0
   -6.3030    7.2330  -19.1310 C   0  0  0  0  0  0  0  0  0  0  0  0
   -5.1960    8.0300  -19.7640 C   0  0  0  0  0  0  0  0  0  0  0  0
   -4.9580    7.6310  -21.1320 N   0  0  0  0  0  0  0  0  0  0  0  0
   -4.6430    6.2170  -21.2250 C   0  0  0  0  0  0  0  0  0  0  0  0
   -5.7400    5.3220  -20.6340 C   0  0  0  0  0  0  0  0  0  0  0  0
   -7.4570    5.3180  -18.5850 C   0  0  0  0  0  0  0  0  0  0  0  0
   -8.7060    5.0130  -19.1190 C   0  0  0  0  0  0  0  0  0  0  0  0
   -9.7380    4.6990  -18.2310 C   0  0  0  0  0  0  0  0  0  0  0  0
   -9.5120    4.6920  -16.8480 C   0  0  0  0  0  0  0  0  0  0  0  0
   -8.2590    4.9790  -16.3190 C   0  0  0  0  0  0  0  0  0  0  0  0
   -7.2480    5.2840  -17.2010 C   0  0  0  0  0  0  0  0  0  0  0  0
   -5.2260    6.3680  -15.1240 H   0  0  0  0  0  0  0  0  0  0  0  0
   -4.3750    4.9090  -15.6850 H   0  0  0  0  0  0  0  0  0  0  0  0
   -6.0190    4.7640  -15.0240 H   0  0  0  0  0  0  0  0  0  0  0  0
   -6.3420    7.5240  -18.0790 H   0  0  0  0  0  0  0  0  0  0  0  0
   -7.2530    7.5310  -19.5800 H   0  0  0  0  0  0  0  0  0  0  0  0
   -5.4440    9.0970  -19.7380 H   0  0  0  0  0  0  0  0  0  0  0  0
   -4.2680    7.9150  -19.1930 H   0  0  0  0  0  0  0  0  0  0  0  0
   -5.7740    7.8370  -21.7080 H   0  0  0  0  0  0  0  0  0  0  0  0
   -4.4770    5.9470  -22.2750 H   0  0  0  0  0  0  0  0  0  0  0  0
   -3.7000    6.0300  -20.7020 H   0  0  0  0  0  0  0  0  0  0  0  0
   -6.6090    5.3750  -21.3010 H   0  0  0  0  0  0  0  0  0  0  0  0
   -5.4250    4.3000  -20.6820 H   0  0  0  0  0  0  0  0  0  0  0  0
   -8.8900    5.0250  -20.1860 H   0  0  0  0  0  0  0  0  0  0  0  0
  -10.7280    4.4630  -18.6120 H   0  0  0  0  0  0  0  0  0  0  0  0
  -10.3310    4.4530  -16.1770 H   0  0  0  0  0  0  0  0  0  0  0  0
   -8.1010    4.9590  -15.2470 H   0  0  0  0  0  0  0  0  0  0  0  0
  1  2  1  0
  2  3  1  0
  3  4  2  0
  3  5  1  0
  5  6  1  0
  6  7  1  0
  7  8  1  0
  8  9  1  0
  9 10  1  0
  5 11  1  0
 11 12  2  0
 12 13  1  0
 13 14  2  0
 14 15  1  0
 15 16  2  0
 16  2  1  0
 10  5  1  0
 16 11  1  0
  1 17  1  0
  1 18  1  0
  1 19  1  0
  6 20  1  0
  6 21  1  0
  7 22  1  0
  7 23  1  0
  8 24  1  0
  9 25  1  0
  9 26  1  0
 10 27  1  0
 10 28  1  0
 12 29  1  0
 13 30  1  0
 14 31  1  0
 15 32  1  0
A    1
 C1 
A    2
 N1 
A    3
 C2 
A    4
 O1 
A    5
 C3 
A    6
 C4 
A    7
 C5 
A    8
 N2 
A    9
 C6 
A   10
 C7 
A   11
 C8 
A   12
 C9 
A   13
 C10
A   14
 C11
A   15
 C12
A   16
 C13
A   17
 H1 
A   18
 H2 
A   19
 H3 
A   20
 H4 
A   21
 H5 
A   22
 H6 
A   23
 H7 
A   24
 H8 
A   25
 H9 
A   26
 H10
A   27
 H11
A   28
 H12
A   29
 H13
A   30
 H14
A   31
 H15
A   32
 H16
M  END
>  <ref_pdb>  (303) 
x0051_0B

>  <ref_mols>  (303) 
x0229_0B,x0727_0B

>  <original SMILES>  (303) 
[H]c1c([H])c([H])c2c(c1[H])N(C([H])([H])[H])C(=O)C21C([H])([H])C([H])([H])N([H])C([H])([H])C1([H])[H]

>  <index>  (303) 
1347

>  <∆∆G>  (303) 
-6.444693

>  <∆G_bound>  (303) 
-5.994041

>  <∆G_unbound>  (303) 
0.450652

>  <comRMSD>  (303) 
0.841459

>  <N_constrained_atoms>  (303) 
17.0

>  <N_unconstrained_atoms>  (303) 
0.0

>  <runtime>  (303) 
29.575301

>  <LE>  (303) 
0.3791

>  <percent_hybrid>  (303) 
29.0

>  <dist>  (303) 
4.0

>  <ecfp4>  (303) 
0.345455

>  <daylight>  (303) 
0.448454

>  <topodist>  (303) 
3.0

>  <mces>  (303) 
17.0

>  <tdn>  (303) 
0.0

>  <tup>  (303) 
0.0

>  <rdn>  (303) 
0.0

>  <rup>  (303) 
0.0

>  <ldn>  (303) 
2.0

>  <lup>  (303) 
1.0

>  <mut>  (303) 
1.0

>  <maj>  (303) 
1.0

>  <min>  (303) 
0.0

>  <hyb>  (303) 
0.0

>  <sub>  (303) 
0.0

>  <query_index>  (303) 
150.0

>  <max_hit_Tanimoto>  (303) 
0.435334

>  <largest_ring>  (303) 
6

>  <N_interactions_kept>  (303) 
0.0

>  <N_interactions_lost>  (303) 
3.5

>  <interaction_uniqueness_metric>  (303) 
0.088218

>  <ad_hoc_penalty>  (303) 
-13.697958

>  <N_rotatable_bonds>  (303) 
1

>  <N_HA>  (303) 
16

>  <cluster>  (303) 
4983

>  <N_interactions>  (303) 
6

>  <Enamine>  (303) 
1

>  <Mcule>  (303) 
0

>  <N_PAINS>  (303) 
0

>  <UFF_Gibbs>  (303) 
51.773082

>  <strain_per_HA>  (303) 
3.235818

>  <intxn_scored>  (303) 
9.0

>  <saltbridge:HIS:51>  (303) 
0

>  <pistack:HIS:51>  (303) 
0

>  <hydroph_interaction:HIS:51>  (303) 
0

>  <hbond:ALA:132>  (303) 
0

>  <hbond:SER:135>  (303) 
0

>  <hydroph_interaction:TYR:150>  (303) 
1

>  <pistack:TYR:161>  (303) 
1

>  <hydroph_interaction:TYR:161>  (303) 
2

>  <hydroph_interaction:ASP:83>  (303) 
0

>  <hbond:TYR:130>  (303) 
1

>  <hydroph_interaction:ALA:132>  (303) 
1

>  <hbond:HIS:51>  (303) 
0

>  <hbond:ASP:129>  (303) 
0

>  <hbond:TYR:150>  (303) 
0

>  <hbond:GLY:151>  (303) 
0

>  <hbond:TYR:161>  (303) 
0

>  <hydroph_interaction:TYR:130>  (303) 
0

>  <hydroph_interaction:PRO:131>  (303) 
0

>  <hydroph_interaction:ASP:129>  (303) 
0

>  <saltbridge:ASP:75>  (303) 
0

>  <saltbridge:ASP:83>  (303) 
0

>  <hbond:ASN:152>  (303) 
0

>  <hydroph_interaction:ASN:152>  (303) 
0

>  <halogenbond:TYR:150>  (303) 
0

>  <hbond:ASP:83>  (303) 
0

>  <hydroph_interaction:VAL:155>  (303) 
0

>  <pication:TYR:161>  (303) 
0

>  <hbond:PRO:131>  (303) 
0

>  <saltbridge:ASP:129>  (303) 
0

>  <hbond:THR:134>  (303) 
0

>  <pication:HIS:51>  (303) 
0

>  <hbond:SER:81>  (303) 
0

>  <hydroph_interaction:THR:134>  (303) 
0

>  <hydroph_interaction:MET:49>  (303) 
0

$$$$
CSSS00121641983
     RDKit          3D

 44 46  0  0  0  0  0  0  0  0999 V2000
   -6.0730    5.7360  -15.3370 C   0  0  0  0  0  0  0  0  0  0  0  0
   -6.9820    5.4350  -16.5300 C   0  0  0  0  0  0  0  0  0  0  0  0
   -6.1560    5.2480  -17.8010 C   0  0  0  0  0  0  0  0  0  0  0  0
   -6.8610    4.9320  -19.1100 C   0  0  0  0  0  0  0  0  0  0  0  0
   -8.2440    4.8100  -19.0680 C   0  0  0  0  0  0  0  0  0  0  0  0
   -9.0560    4.9980  -17.7770 C   0  0  0  0  0  0  0  0  0  0  0  0
  -10.4140    4.8360  -17.8690 C   0  0  0  0  0  0  0  0  0  0  0  0
   -8.3920    5.3250  -16.5550 C   0  0  0  0  0  0  0  0  0  0  0  0
   -9.1500    5.5490  -15.3490 N   0  0  0  0  0  0  0  0  0  0  0  0
   -8.8600    6.9220  -14.3610 S   0  0  0  0  0  6  0  0  0  0  0  0
   -9.9070    7.9180  -14.3200 O   0  0  0  0  0  0  0  0  0  0  0  0
   -7.5350    7.3380  -14.7130 O   0  0  0  0  0  0  0  0  0  0  0  0
   -8.8330    6.2520  -12.8040 C   0  0  0  0  0  0  0  0  0  0  0  0
   -8.6660    7.0410  -11.6590 C   0  0  0  0  0  0  0  0  0  0  0  0
   -8.6660    6.4270  -10.4150 C   0  0  0  0  0  0  0  0  0  0  0  0
   -8.8320    5.0410  -10.3280 C   0  0  0  0  0  0  0  0  0  0  0  0
   -8.9900    4.2780  -11.4860 C   0  0  0  0  0  0  0  0  0  0  0  0
   -8.9920    4.8820  -12.7210 C   0  0  0  0  0  0  0  0  0  0  0  0
   -8.8660    4.3190   -9.0330 C   0  0  0  0  0  0  0  0  0  0  0  0
   -7.8400    4.5700   -7.9480 C   0  0  0  0  0  0  0  0  0  0  0  0
   -8.3220    3.5970   -6.9980 N   0  0  0  0  0  0  0  0  0  0  0  0
   -9.1250    2.6610   -7.6460 C   0  0  0  0  0  0  0  0  0  0  0  0
   -9.8940    1.9110   -7.1300 O   0  0  0  0  0  0  0  0  0  0  0  0
   -8.8670    2.8080   -9.1010 C   0  0  0  0  0  0  0  0  0  0  0  0
   -5.7290    6.7730  -15.3470 H   0  0  0  0  0  0  0  0  0  0  0  0
   -5.2050    5.0710  -15.3590 H   0  0  0  0  0  0  0  0  0  0  0  0
   -6.5960    5.5600  -14.3950 H   0  0  0  0  0  0  0  0  0  0  0  0
   -5.0740    5.3570  -17.6950 H   0  0  0  0  0  0  0  0  0  0  0  0
   -6.2770    4.8020  -20.0300 H   0  0  0  0  0  0  0  0  0  0  0  0
   -8.8580    4.5690  -19.9460 H   0  0  0  0  0  0  0  0  0  0  0  0
  -10.9240    5.7420  -18.1800 H   0  0  0  0  0  0  0  0  0  0  0  0
  -10.6170    4.0650  -18.6050 H   0  0  0  0  0  0  0  0  0  0  0  0
  -10.8350    4.4920  -16.9330 H   0  0  0  0  0  0  0  0  0  0  0  0
  -10.1120    5.2190  -15.3070 H   0  0  0  0  0  0  0  0  0  0  0  0
   -8.5410    8.1180  -11.7330 H   0  0  0  0  0  0  0  0  0  0  0  0
   -8.5390    7.0360   -9.5200 H   0  0  0  0  0  0  0  0  0  0  0  0
   -9.1190    3.1960  -11.4300 H   0  0  0  0  0  0  0  0  0  0  0  0
   -9.1210    4.2770  -13.6170 H   0  0  0  0  0  0  0  0  0  0  0  0
   -9.8090    4.5680   -8.5540 H   0  0  0  0  0  0  0  0  0  0  0  0
   -6.8120    4.3380   -8.2530 H   0  0  0  0  0  0  0  0  0  0  0  0
   -7.8850    5.5680   -7.4940 H   0  0  0  0  0  0  0  0  0  0  0  0
   -8.3880    3.7190   -5.9940 H   0  0  0  0  0  0  0  0  0  0  0  0
   -9.6890    2.4110   -9.7090 H   0  0  0  0  0  0  0  0  0  0  0  0
   -7.9090    2.3450   -9.3640 H   0  0  0  0  0  0  0  0  0  0  0  0
  1  2  1  0
  2  3  2  0
  3  4  1  0
  4  5  2  0
  5  6  1  0
  6  7  1  0
  6  8  2  0
  8  9  1  0
  9 10  1  0
 10 11  2  0
 10 12  2  0
 10 13  1  0
 13 14  2  0
 14 15  1  0
 15 16  2  0
 16 17  1  0
 17 18  2  0
 16 19  1  0
 19 20  1  0
 20 21  1  0
 21 22  1  0
 22 23  2  0
 22 24  1  0
  8  2  1  0
 18 13  1  0
 24 19  1  0
  1 25  1  0
  1 26  1  0
  1 27  1  0
  3 28  1  0
  4 29  1  0
  5 30  1  0
  7 31  1  0
  7 32  1  0
  7 33  1  0
  9 34  1  0
 14 35  1  0
 15 36  1  0
 17 37  1  0
 18 38  1  0
 19 39  1  0
 20 40  1  0
 20 41  1  0
 21 42  1  0
 24 43  1  0
 24 44  1  0
A    1
 C1 
A    2
 C2 
A    3
 C3 
A    4
 C4 
A    5
 C5 
A    6
 C6 
A    7
 C7 
A    8
 C8 
A    9
 N1 
A   10
 S1 
A   11
 O1 
A   12
 O2 
A   13
 C9 
A   14
 C10
A   15
 C11
A   16
 C12
A   17
 C13
A   18
 C14
A   19
 C15
A   20
 C16
A   21
 N2 
A   22
 C17
A   23
 O3 
A   24
 C18
A   25
 H1 
A   26
 H2 
A   27
 H3 
A   28
 H4 
A   29
 H5 
A   30
 H6 
A   31
 H7 
A   32
 H8 
A   33
 H9 
A   34
 H10
A   35
 H11
A   36
 H12
A   37
 H13
A   38
 H14
A   39
 H15
A   40
 H16
A   41
 H17
A   42
 H18
A   43
 H19
A   44
 H20
M  END
>  <ref_pdb>  (304) 
x0051_0B

>  <ref_mols>  (304) 
x0404_0B,x0605_0B

>  <original SMILES>  (304) 
[H]c1c([H])c(C([H])([H])[H])c(N([H])S(=O)(=O)c2c([H])c([H])c(C3([H])C([H])([H])C(=O)N([H])C3([H])[H])c([H])c2[H])c(C([H])([H])[H])c1[H]

>  <index>  (304) 
1988

>  <∆∆G>  (304) 
-6.623332

>  <∆G_bound>  (304) 
-8.152482

>  <∆G_unbound>  (304) 
-1.52915

>  <comRMSD>  (304) 
0.765316

>  <N_constrained_atoms>  (304) 
24.0

>  <N_unconstrained_atoms>  (304) 
1.0

>  <runtime>  (304) 
61.516952

>  <LE>  (304) 
0.264933

>  <percent_hybrid>  (304) 
38.0

>  <dist>  (304) 
9.0

>  <ecfp4>  (304) 
0.217949

>  <daylight>  (304) 
0.199052

>  <topodist>  (304) 
4.0

>  <mces>  (304) 
25.0

>  <tdn>  (304) 
1.0

>  <tup>  (304) 
1.0

>  <rdn>  (304) 
0.0

>  <rup>  (304) 
0.0

>  <ldn>  (304) 
2.0

>  <lup>  (304) 
0.0

>  <mut>  (304) 
2.0

>  <maj>  (304) 
2.0

>  <min>  (304) 
0.0

>  <hyb>  (304) 
3.0

>  <sub>  (304) 
0.0

>  <query_index>  (304) 
352.0

>  <max_hit_Tanimoto>  (304) 
0.215613

>  <largest_ring>  (304) 
6

>  <N_interactions_kept>  (304) 
0.0

>  <N_interactions_lost>  (304) 
4.0

>  <interaction_uniqueness_metric>  (304) 
0.524383

>  <ad_hoc_penalty>  (304) 
-9.782945

>  <N_rotatable_bonds>  (304) 
6

>  <N_HA>  (304) 
24

>  <cluster>  (304) 
4395

>  <N_interactions>  (304) 
8

>  <Enamine>  (304) 
1

>  <Mcule>  (304) 
0

>  <N_PAINS>  (304) 
0

>  <UFF_Gibbs>  (304) 
170.167555

>  <strain_per_HA>  (304) 
7.090315

>  <intxn_scored>  (304) 
9.0

>  <saltbridge:HIS:51>  (304) 
0

>  <pistack:HIS:51>  (304) 
1

>  <hydroph_interaction:HIS:51>  (304) 
1

>  <hbond:ALA:132>  (304) 
0

>  <hbond:SER:135>  (304) 
0

>  <hydroph_interaction:TYR:150>  (304) 
1

>  <pistack:TYR:161>  (304) 
1

>  <hydroph_interaction:TYR:161>  (304) 
1

>  <hydroph_interaction:ASP:83>  (304) 
0

>  <hbond:TYR:130>  (304) 
0

>  <hydroph_interaction:ALA:132>  (304) 
0

>  <hbond:HIS:51>  (304) 
0

>  <hbond:ASP:129>  (304) 
0

>  <hbond:TYR:150>  (304) 
0

>  <hbond:GLY:151>  (304) 
1

>  <hbond:TYR:161>  (304) 
0

>  <hydroph_interaction:TYR:130>  (304) 
0

>  <hydroph_interaction:PRO:131>  (304) 
0

>  <hydroph_interaction:ASP:129>  (304) 
0

>  <saltbridge:ASP:75>  (304) 
0

>  <saltbridge:ASP:83>  (304) 
0

>  <hbond:ASN:152>  (304) 
1

>  <hydroph_interaction:ASN:152>  (304) 
0

>  <halogenbond:TYR:150>  (304) 
0

>  <hbond:ASP:83>  (304) 
0

>  <hydroph_interaction:VAL:155>  (304) 
0

>  <pication:TYR:161>  (304) 
0

>  <hbond:PRO:131>  (304) 
0

>  <saltbridge:ASP:129>  (304) 
0

>  <hbond:THR:134>  (304) 
0

>  <pication:HIS:51>  (304) 
0

>  <hbond:SER:81>  (304) 
1

>  <hydroph_interaction:THR:134>  (304) 
0

>  <hydroph_interaction:MET:49>  (304) 
0

$$$$
Z3520894948
     RDKit          3D

 45 48  0  0  0  0  0  0  0  0999 V2000
   -9.5150    7.3080  -13.7250 O   0  0  0  0  0  0  0  0  0  0  0  0
   -9.4510    6.1110  -13.4500 C   0  0  0  0  0  0  0  0  0  0  0  0
  -10.1630    5.6060  -12.1890 C   0  0  0  0  0  0  0  0  0  0  0  0
   -9.2850    5.7460  -10.8910 C   0  0  0  0  0  0  0  0  0  0  0  0
   -8.8550    4.4530  -10.2370 C   0  0  0  0  0  0  0  0  0  0  0  0
   -9.1460    3.1580  -10.6320 C   0  0  0  0  0  0  0  0  0  0  0  0
   -9.0230    2.2590   -9.5870 C   0  0  0  0  0  0  0  0  0  0  0  0
   -8.1130    2.5620   -8.5760 C   0  0  0  0  0  0  0  0  0  0  0  0
   -7.5210    3.8030   -8.3420 C   0  0  0  0  0  0  0  0  0  0  0  0
   -8.1110    4.7940   -9.1710 N   0  0  0  0  0  0  0  0  0  0  0  0
   -7.9700    6.1370   -8.9710 N   0  0  0  0  0  0  0  0  0  0  0  0
   -8.7330    6.7550  -10.0840 C   0  0  0  0  0  0  0  0  0  0  0  0
   -8.7730    5.1710  -14.2110 N   0  0  0  0  0  0  0  0  0  0  0  0
   -7.8220    5.6550  -15.1930 C   0  0  0  0  0  0  0  0  0  0  0  0
   -6.5370    5.1370  -15.0080 C   0  0  0  0  0  0  0  0  0  0  0  0
   -5.5470    5.6110  -16.0770 C   0  0  0  0  0  0  0  0  0  0  0  0
   -6.1050    5.6150  -17.4370 N   0  0  0  0  0  0  0  0  0  0  0  0
   -7.3850    5.3050  -17.6290 C   0  0  0  0  0  0  0  0  0  0  0  0
   -7.8350    4.9740  -19.0150 C   0  0  0  0  0  0  0  0  0  0  0  0
   -9.2950    4.6180  -19.2930 C   0  0  0  0  0  0  0  0  0  0  0  0
  -10.1150    4.6250  -18.1850 C   0  0  0  0  0  0  0  0  0  0  0  0
   -9.6280    4.9610  -16.7920 C   0  0  0  0  0  0  0  0  0  0  0  0
   -8.2970    5.2940  -16.5670 C   0  0  0  0  0  0  0  0  0  0  0  0
  -10.3550    4.5460  -12.3720 H   0  0  0  0  0  0  0  0  0  0  0  0
  -11.1450    6.0300  -11.9570 H   0  0  0  0  0  0  0  0  0  0  0  0
   -8.5400    2.8730  -11.4920 H   0  0  0  0  0  0  0  0  0  0  0  0
  -10.1220    3.1030  -11.1130 H   0  0  0  0  0  0  0  0  0  0  0  0
   -8.8520    1.2640   -9.9450 H   0  0  0  0  0  0  0  0  0  0  0  0
  -10.0060    2.1900   -9.1270 H   0  0  0  0  0  0  0  0  0  0  0  0
   -8.4170    2.1150   -7.6260 H   0  0  0  0  0  0  0  0  0  0  0  0
   -7.2780    1.9750   -8.8980 H   0  0  0  0  0  0  0  0  0  0  0  0
   -6.4540    3.8750   -8.5390 H   0  0  0  0  0  0  0  0  0  0  0  0
   -7.6420    4.1170   -7.3100 H   0  0  0  0  0  0  0  0  0  0  0  0
   -8.7940    7.8360  -10.1770 H   0  0  0  0  0  0  0  0  0  0  0  0
   -9.2420    4.2840  -14.4410 H   0  0  0  0  0  0  0  0  0  0  0  0
   -7.9030    6.7380  -15.1290 H   0  0  0  0  0  0  0  0  0  0  0  0
   -6.5030    4.0840  -14.7690 H   0  0  0  0  0  0  0  0  0  0  0  0
   -6.1670    5.5870  -14.0770 H   0  0  0  0  0  0  0  0  0  0  0  0
   -5.1700    6.6120  -15.8380 H   0  0  0  0  0  0  0  0  0  0  0  0
   -4.6800    4.9450  -16.0730 H   0  0  0  0  0  0  0  0  0  0  0  0
   -5.8070    6.4080  -18.0050 H   0  0  0  0  0  0  0  0  0  0  0  0
   -7.0330    5.0190  -19.7650 H   0  0  0  0  0  0  0  0  0  0  0  0
   -9.6370    4.3820  -20.2880 H   0  0  0  0  0  0  0  0  0  0  0  0
  -11.1750    4.3760  -18.3260 H   0  0  0  0  0  0  0  0  0  0  0  0
  -10.3800    4.9270  -16.0050 H   0  0  0  0  0  0  0  0  0  0  0  0
  1  2  2  0
  2  3  1  0
  3  4  1  0
  4  5  2  0
  5  6  1  0
  6  7  1  0
  7  8  1  0
  8  9  1  0
  9 10  1  0
 10 11  1  0
 11 12  2  0
  2 13  1  0
 13 14  1  0
 14 15  1  0
 15 16  1  0
 16 17  1  0
 17 18  1  0
 18 19  2  0
 19 20  1  0
 20 21  2  0
 21 22  1  0
 22 23  2  0
 12  4  1  0
 10  5  1  0
 23 14  1  0
 23 18  1  0
  3 24  1  0
  3 25  1  0
  6 26  1  0
  6 27  1  0
  7 28  1  0
  7 29  1  0
  8 30  1  0
  8 31  1  0
  9 32  1  0
  9 33  1  0
 12 34  1  0
 13 35  1  0
 14 36  1  0
 15 37  1  0
 15 38  1  0
 16 39  1  0
 16 40  1  0
 17 41  1  0
 19 42  1  0
 20 43  1  0
 21 44  1  0
 22 45  1  0
A    1
 O1 
A    2
 C1 
A    3
 C2 
A    4
 C3 
A    5
 C4 
A    6
 C5 
A    7
 C6 
A    8
 C7 
A    9
 C8 
A   10
 N1 
A   11
 N2 
A   12
 C9 
A   13
 N3 
A   14
 C10
A   15
 C11
A   16
 C12
A   17
 N4 
A   18
 C13
A   19
 C14
A   20
 C15
A   21
 C16
A   22
 C17
A   23
 C18
A   24
 H1 
A   25
 H2 
A   26
 H3 
A   27
 H4 
A   28
 H5 
A   29
 H6 
A   30
 H7 
A   31
 H8 
A   32
 H9 
A   33
 H10
A   34
 H11
A   35
 H12
A   36
 H13
A   37
 H14
A   38
 H15
A   39
 H16
A   40
 H17
A   41
 H18
A   42
 H19
A   43
 H20
A   44
 H21
A   45
 H22
M  END
>  <ref_pdb>  (305) 
x0051_0B

>  <ref_mols>  (305) 
x0969_1B,x0455_0B

>  <original SMILES>  (305) 
[H]c1nn2c(c1C([H])([H])C(=O)N([H])C1([H])c3c([H])c([H])c([H])c([H])c3N([H])C([H])([H])C1([H])[H])C([H])([H])C([H])([H])C([H])([H])C2([H])[H]

>  <index>  (305) 
52

>  <∆∆G>  (305) 
-6.916073

>  <∆G_bound>  (305) 
-5.647135

>  <∆G_unbound>  (305) 
1.268938

>  <comRMSD>  (305) 
0.891182

>  <N_constrained_atoms>  (305) 
20.0

>  <N_unconstrained_atoms>  (305) 
3.0

>  <runtime>  (305) 
51.923284

>  <LE>  (305) 
0.300699

>  <percent_hybrid>  (305) 
50.0

>  <dist>  (305) 
5.0

>  <ecfp4>  (305) 
0.346154

>  <daylight>  (305) 
0.325967

>  <topodist>  (305) 
1.0

>  <mces>  (305) 
25.0

>  <tdn>  (305) 
0.0

>  <tup>  (305) 
1.0

>  <rdn>  (305) 
0.0

>  <rup>  (305) 
0.0

>  <ldn>  (305) 
0.0

>  <lup>  (305) 
0.0

>  <mut>  (305) 
4.0

>  <maj>  (305) 
4.0

>  <min>  (305) 
0.0

>  <hyb>  (305) 
0.0

>  <sub>  (305) 
0.0

>  <query_index>  (305) 
204.0

>  <max_hit_Tanimoto>  (305) 
0.298366

>  <largest_ring>  (305) 
0

>  <N_interactions_kept>  (305) 
1.0

>  <N_interactions_lost>  (305) 
1.5

>  <interaction_uniqueness_metric>  (305) 
0.225399

>  <ad_hoc_penalty>  (305) 
-31.49862

>  <N_rotatable_bonds>  (305) 
3

>  <N_HA>  (305) 
23

>  <cluster>  (305) 
6170

>  <N_interactions>  (305) 
7

>  <Enamine>  (305) 
1

>  <Mcule>  (305) 
0

>  <N_PAINS>  (305) 
0

>  <UFF_Gibbs>  (305) 
173.786661

>  <strain_per_HA>  (305) 
7.555942

>  <intxn_scored>  (305) 
9.0

>  <saltbridge:HIS:51>  (305) 
0

>  <pistack:HIS:51>  (305) 
1

>  <hydroph_interaction:HIS:51>  (305) 
1

>  <hbond:ALA:132>  (305) 
0

>  <hbond:SER:135>  (305) 
0

>  <hydroph_interaction:TYR:150>  (305) 
1

>  <pistack:TYR:161>  (305) 
1

>  <hydroph_interaction:TYR:161>  (305) 
1

>  <hydroph_interaction:ASP:83>  (305) 
1

>  <hbond:TYR:130>  (305) 
0

>  <hydroph_interaction:ALA:132>  (305) 
0

>  <hbond:HIS:51>  (305) 
0

>  <hbond:ASP:129>  (305) 
0

>  <hbond:TYR:150>  (305) 
0

>  <hbond:GLY:151>  (305) 
1

>  <hbond:TYR:161>  (305) 
0

>  <hydroph_interaction:TYR:130>  (305) 
0

>  <hydroph_interaction:PRO:131>  (305) 
0

>  <hydroph_interaction:ASP:129>  (305) 
0

>  <saltbridge:ASP:75>  (305) 
0

>  <saltbridge:ASP:83>  (305) 
0

>  <hbond:ASN:152>  (305) 
0

>  <hydroph_interaction:ASN:152>  (305) 
0

>  <halogenbond:TYR:150>  (305) 
0

>  <hbond:ASP:83>  (305) 
0

>  <hydroph_interaction:VAL:155>  (305) 
0

>  <pication:TYR:161>  (305) 
0

>  <hbond:PRO:131>  (305) 
0

>  <saltbridge:ASP:129>  (305) 
0

>  <hbond:THR:134>  (305) 
0

>  <pication:HIS:51>  (305) 
0

>  <hbond:SER:81>  (305) 
0

>  <hydroph_interaction:THR:134>  (305) 
0

>  <hydroph_interaction:MET:49>  (305) 
0

$$$$
Z3363936794
     RDKit          3D

 42 44  0  0  0  0  0  0  0  0999 V2000
   -5.7360    5.6030  -19.0500 C   0  0  0  0  0  0  0  0  0  0  0  0
   -6.8500    5.4150  -18.0460 C   0  0  0  0  0  0  0  0  0  0  0  0
   -8.1940    5.1890  -18.6560 C   0  0  0  0  0  0  0  0  0  0  0  0
   -9.3030    5.0030  -17.7000 C   0  0  0  0  0  0  0  0  0  0  0  0
  -10.8450    4.7680  -18.3650 Cl  0  0  0  0  0  0  0  0  0  0  0  0
   -9.0930    5.0310  -16.3040 C   0  0  0  0  0  0  0  0  0  0  0  0
   -7.7900    5.2490  -15.7680 C   0  0  0  0  0  0  0  0  0  0  0  0
   -7.5070    5.2800  -14.3720 C   0  0  0  0  0  0  0  0  0  0  0  0
   -8.4370    5.9700  -13.4200 N   0  0  0  0  0  0  0  0  0  0  0  0
   -9.6210    6.5020  -14.1180 C   0  0  0  0  0  0  0  0  0  0  0  0
   -8.8410    4.9600  -12.4060 C   0  0  0  0  0  0  0  0  0  0  0  0
   -8.8330    5.3350  -10.9380 C   0  0  0  0  0  0  0  0  0  0  0  0
   -8.9560    4.2330   -9.9790 C   0  0  0  0  0  0  0  0  0  0  0  0
   -9.0790    2.8650  -10.1590 C   0  0  0  0  0  0  0  0  0  0  0  0
   -8.7670    2.1360   -8.9330 N   0  0  0  0  0  0  0  0  0  0  0  0
   -9.4980    2.6560   -7.8080 C   0  0  0  0  0  0  0  0  0  0  0  0
   -9.0400    4.0790   -7.4850 C   0  0  0  0  0  0  0  0  0  0  0  0
   -8.9300    4.8280   -8.7520 N   0  0  0  0  0  0  0  0  0  0  0  0
   -8.7970    6.1810   -8.7970 N   0  0  0  0  0  0  0  0  0  0  0  0
   -8.7410    6.4920  -10.1210 C   0  0  0  0  0  0  0  0  0  0  0  0
   -6.6990    5.4370  -16.6560 C   0  0  0  0  0  0  0  0  0  0  0  0
   -5.9680    5.0620  -19.9730 H   0  0  0  0  0  0  0  0  0  0  0  0
   -4.7860    5.2220  -18.6620 H   0  0  0  0  0  0  0  0  0  0  0  0
   -5.5930    6.6580  -19.2980 H   0  0  0  0  0  0  0  0  0  0  0  0
   -8.3620    5.1640  -19.7330 H   0  0  0  0  0  0  0  0  0  0  0  0
   -9.9390    4.8850  -15.6380 H   0  0  0  0  0  0  0  0  0  0  0  0
   -6.5100    5.6970  -14.2360 H   0  0  0  0  0  0  0  0  0  0  0  0
   -7.4040    4.2380  -14.0460 H   0  0  0  0  0  0  0  0  0  0  0  0
   -9.3860    6.8230  -15.1370 H   0  0  0  0  0  0  0  0  0  0  0  0
  -10.0690    7.3480  -13.5870 H   0  0  0  0  0  0  0  0  0  0  0  0
  -10.4010    5.7410  -14.2240 H   0  0  0  0  0  0  0  0  0  0  0  0
   -8.2450    4.0480  -12.5440 H   0  0  0  0  0  0  0  0  0  0  0  0
   -9.8700    4.6510  -12.6200 H   0  0  0  0  0  0  0  0  0  0  0  0
   -8.4070    2.5400  -10.9630 H   0  0  0  0  0  0  0  0  0  0  0  0
  -10.0960    2.6080  -10.4630 H   0  0  0  0  0  0  0  0  0  0  0  0
   -8.9970    1.1530   -9.0660 H   0  0  0  0  0  0  0  0  0  0  0  0
  -10.5760    2.6300   -8.0180 H   0  0  0  0  0  0  0  0  0  0  0  0
   -9.3270    2.0150   -6.9420 H   0  0  0  0  0  0  0  0  0  0  0  0
   -9.7720    4.6030   -6.8600 H   0  0  0  0  0  0  0  0  0  0  0  0
   -8.0640    4.0760   -6.9900 H   0  0  0  0  0  0  0  0  0  0  0  0
   -8.6370    7.5250  -10.4250 H   0  0  0  0  0  0  0  0  0  0  0  0
   -5.7080    5.6020  -16.2360 H   0  0  0  0  0  0  0  0  0  0  0  0
  1  2  1  0
  2  3  2  0
  3  4  1  0
  4  5  1  0
  4  6  2  0
  6  7  1  0
  7  8  1  0
  8  9  1  0
  9 10  1  0
  9 11  1  0
 11 12  1  0
 12 13  2  0
 13 14  1  0
 14 15  1  0
 15 16  1  0
 16 17  1  0
 17 18  1  0
 18 19  1  0
 19 20  2  0
  7 21  2  0
 21  2  1  0
 20 12  1  0
 18 13  1  0
  1 22  1  0
  1 23  1  0
  1 24  1  0
  3 25  1  0
  6 26  1  0
  8 27  1  0
  8 28  1  0
 10 29  1  0
 10 30  1  0
 10 31  1  0
 11 32  1  0
 11 33  1  0
 14 34  1  0
 14 35  1  0
 15 36  1  0
 16 37  1  0
 16 38  1  0
 17 39  1  0
 17 40  1  0
 20 41  1  0
 21 42  1  0
A    1
 C1 
A    2
 C2 
A    3
 C3 
A    4
 C4 
A    5
CL1 
A    6
 C5 
A    7
 C6 
A    8
 C7 
A    9
 N1 
A   10
 C8 
A   11
 C9 
A   12
 C10
A   13
 C11
A   14
 C12
A   15
 N2 
A   16
 C13
A   17
 C14
A   18
 N3 
A   19
 N4 
A   20
 C15
A   21
 C16
A   22
 H1 
A   23
 H2 
A   24
 H3 
A   25
 H4 
A   26
 H5 
A   27
 H6 
A   28
 H7 
A   29
 H8 
A   30
 H9 
A   31
 H10
A   32
 H11
A   33
 H12
A   34
 H13
A   35
 H14
A   36
 H15
A   37
 H16
A   38
 H17
A   39
 H18
A   40
 H19
A   41
 H20
A   42
 H21
M  END
>  <ref_pdb>  (306) 
x0051_0B

>  <ref_mols>  (306) 
x0589_0B,x0969_1B

>  <original SMILES>  (306) 
[H]c1nn2c(c1C([H])([H])N(C([H])([H])[H])C([H])([H])c1c([H])c(Cl)c([H])c(C([H])([H])[H])c1[H])C([H])([H])N([H])C([H])([H])C2([H])[H]

>  <index>  (306) 
2900

>  <∆∆G>  (306) 
-6.906236

>  <∆G_bound>  (306) 
-6.953269

>  <∆G_unbound>  (306) 
-0.047033

>  <comRMSD>  (306) 
0.475438

>  <N_constrained_atoms>  (306) 
18.0

>  <N_unconstrained_atoms>  (306) 
3.0

>  <runtime>  (306) 
55.683528

>  <LE>  (306) 
0.328868

>  <percent_hybrid>  (306) 
45.0

>  <dist>  (306) 
4.0

>  <ecfp4>  (306) 
0.455882

>  <daylight>  (306) 
0.550459

>  <topodist>  (306) 
1.0

>  <mces>  (306) 
22.0

>  <tdn>  (306) 
0.0

>  <tup>  (306) 
1.0

>  <rdn>  (306) 
0.0

>  <rup>  (306) 
0.0

>  <ldn>  (306) 
0.0

>  <lup>  (306) 
0.0

>  <mut>  (306) 
3.0

>  <maj>  (306) 
2.0

>  <min>  (306) 
1.0

>  <hyb>  (306) 
0.0

>  <sub>  (306) 
0.0

>  <query_index>  (306) 
379.0

>  <max_hit_Tanimoto>  (306) 
0.633917

>  <largest_ring>  (306) 
6

>  <N_interactions_kept>  (306) 
0.5

>  <N_interactions_lost>  (306) 
2.0

>  <interaction_uniqueness_metric>  (306) 
0.176879

>  <ad_hoc_penalty>  (306) 
-2.627503

>  <N_rotatable_bonds>  (306) 
6

>  <N_HA>  (306) 
21

>  <cluster>  (306) 
3540

>  <N_interactions>  (306) 
4

>  <Enamine>  (306) 
1

>  <Mcule>  (306) 
0

>  <N_PAINS>  (306) 
0

>  <UFF_Gibbs>  (306) 
133.616776

>  <strain_per_HA>  (306) 
6.362704

>  <intxn_scored>  (306) 
9.0

>  <saltbridge:HIS:51>  (306) 
0

>  <pistack:HIS:51>  (306) 
1

>  <hydroph_interaction:HIS:51>  (306) 
0

>  <hbond:ALA:132>  (306) 
0

>  <hbond:SER:135>  (306) 
0

>  <hydroph_interaction:TYR:150>  (306) 
0

>  <pistack:TYR:161>  (306) 
1

>  <hydroph_interaction:TYR:161>  (306) 
1

>  <hydroph_interaction:ASP:83>  (306) 
0

>  <hbond:TYR:130>  (306) 
0

>  <hydroph_interaction:ALA:132>  (306) 
0

>  <hbond:HIS:51>  (306) 
0

>  <hbond:ASP:129>  (306) 
0

>  <hbond:TYR:150>  (306) 
0

>  <hbond:GLY:151>  (306) 
0

>  <hbond:TYR:161>  (306) 
0

>  <hydroph_interaction:TYR:130>  (306) 
0

>  <hydroph_interaction:PRO:131>  (306) 
0

>  <hydroph_interaction:ASP:129>  (306) 
0

>  <saltbridge:ASP:75>  (306) 
0

>  <saltbridge:ASP:83>  (306) 
0

>  <hbond:ASN:152>  (306) 
0

>  <hydroph_interaction:ASN:152>  (306) 
0

>  <halogenbond:TYR:150>  (306) 
0

>  <hbond:ASP:83>  (306) 
1

>  <hydroph_interaction:VAL:155>  (306) 
0

>  <pication:TYR:161>  (306) 
0

>  <hbond:PRO:131>  (306) 
0

>  <saltbridge:ASP:129>  (306) 
0

>  <hbond:THR:134>  (306) 
0

>  <pication:HIS:51>  (306) 
0

>  <hbond:SER:81>  (306) 
0

>  <hydroph_interaction:THR:134>  (306) 
0

>  <hydroph_interaction:MET:49>  (306) 
0

$$$$
CSSS00011934857
     RDKit          3D

 24 25  0  0  0  0  0  0  0  0999 V2000
  -10.4490    4.8010  -18.2020 C   0  0  0  0  0  0  0  0  0  0  0  0
   -9.2160    4.9580  -17.4750 N   0  0  0  0  0  0  0  0  0  0  0  0
   -9.0220    5.0060  -16.1230 C   0  0  0  0  0  0  0  0  0  0  0  0
   -7.6570    5.1500  -15.9040 C   0  0  0  0  0  0  0  0  0  0  0  0
   -7.0000    5.1950  -17.1150 C   0  0  0  0  0  0  0  0  0  0  0  0
   -5.6350    5.3250  -17.4170 C   0  0  0  0  0  0  0  0  0  0  0  0
   -4.6160    5.4350  -16.4760 C   0  0  0  0  0  0  0  0  0  0  0  0
   -3.3270    5.1550  -17.1180 N   0  0  0  0  0  0  0  0  0  0  0  0
   -5.3000    5.3380  -18.8710 C   0  0  0  0  0  0  0  0  0  0  0  0
   -6.2380    5.2280  -19.9060 C   0  0  0  0  0  0  0  0  0  0  0  0
   -7.6780    5.0850  -19.4570 C   0  0  0  0  0  0  0  0  0  0  0  0
   -7.9920    5.0760  -18.0990 C   0  0  0  0  0  0  0  0  0  0  0  0
  -10.8210    5.7220  -18.6550 H   0  0  0  0  0  0  0  0  0  0  0  0
  -10.2560    4.0850  -18.9980 H   0  0  0  0  0  0  0  0  0  0  0  0
  -11.1890    4.4320  -17.5150 H   0  0  0  0  0  0  0  0  0  0  0  0
   -9.7190    4.9490  -15.2730 H   0  0  0  0  0  0  0  0  0  0  0  0
   -7.2330    5.2100  -14.9070 H   0  0  0  0  0  0  0  0  0  0  0  0
   -4.6050    6.4720  -16.1260 H   0  0  0  0  0  0  0  0  0  0  0  0
   -4.6730    4.7960  -15.5990 H   0  0  0  0  0  0  0  0  0  0  0  0
   -2.7310    5.9750  -17.0390 H   0  0  0  0  0  0  0  0  0  0  0  0
   -2.8660    4.4110  -16.5930 H   0  0  0  0  0  0  0  0  0  0  0  0
   -4.2370    5.4410  -19.1050 H   0  0  0  0  0  0  0  0  0  0  0  0
   -5.8620    5.2520  -20.9340 H   0  0  0  0  0  0  0  0  0  0  0  0
   -8.4050    4.9940  -20.2680 H   0  0  0  0  0  0  0  0  0  0  0  0
  1  2  1  0
  2  3  1  0
  3  4  2  0
  4  5  1  0
  5  6  2  0
  6  7  1  0
  7  8  1  0
  6  9  1  0
  9 10  2  0
 10 11  1  0
 11 12  2  0
 12  2  1  0
 12  5  1  0
  1 13  1  0
  1 14  1  0
  1 15  1  0
  3 16  1  0
  4 17  1  0
  7 18  1  0
  7 19  1  0
  8 20  1  0
  8 21  1  0
  9 22  1  0
 10 23  1  0
 11 24  1  0
A    1
 C1 
A    2
 N1 
A    3
 C2 
A    4
 C3 
A    5
 C4 
A    6
 C5 
A    7
 C6 
A    8
 N2 
A    9
 C7 
A   10
 C8 
A   11
 C9 
A   12
 C10
A   13
 H1 
A   14
 H2 
A   15
 H3 
A   16
 H4 
A   17
 H5 
A   18
 H6 
A   19
 H7 
A   20
 H8 
A   21
 H9 
A   22
 H10
A   23
 H11
A   24
 H12
M  END
>  <ref_pdb>  (307) 
x0051_0B

>  <ref_mols>  (307) 
x0425_0B,x0435_0B

>  <original SMILES>  (307) 
[H]c1c([H])c([H])c2c(c([H])c([H])n2C([H])([H])[H])c1C([H])([H])N([H])[H]

>  <index>  (307) 
3500

>  <∆∆G>  (307) 
-6.916464

>  <∆G_bound>  (307) 
-6.956578

>  <∆G_unbound>  (307) 
-0.040114

>  <comRMSD>  (307) 
0.813148

>  <N_constrained_atoms>  (307) 
12.0

>  <N_unconstrained_atoms>  (307) 
1.0

>  <runtime>  (307) 
19.682491

>  <LE>  (307) 
0.532036

>  <percent_hybrid>  (307) 
34.0

>  <dist>  (307) 
3.0

>  <ecfp4>  (307) 
0.276596

>  <daylight>  (307) 
0.631579

>  <topodist>  (307) 
1.0

>  <mces>  (307) 
13.0

>  <tdn>  (307) 
0.0

>  <tup>  (307) 
0.0

>  <rdn>  (307) 
0.0

>  <rup>  (307) 
0.0

>  <ldn>  (307) 
1.0

>  <lup>  (307) 
0.0

>  <mut>  (307) 
2.0

>  <maj>  (307) 
2.0

>  <min>  (307) 
0.0

>  <hyb>  (307) 
0.0

>  <sub>  (307) 
0.0

>  <query_index>  (307) 
107.0

>  <max_hit_Tanimoto>  (307) 
0.178082

>  <largest_ring>  (307) 
6

>  <N_interactions_kept>  (307) 
1.0

>  <N_interactions_lost>  (307) 
2.5

>  <interaction_uniqueness_metric>  (307) 
0.027887

>  <ad_hoc_penalty>  (307) 
-1.088208

>  <N_rotatable_bonds>  (307) 
3

>  <N_HA>  (307) 
12

>  <cluster>  (307) 
2973

>  <N_interactions>  (307) 
3

>  <Enamine>  (307) 
1

>  <Mcule>  (307) 
0

>  <N_PAINS>  (307) 
0

>  <UFF_Gibbs>  (307) 
39.564177

>  <strain_per_HA>  (307) 
3.297015

>  <intxn_scored>  (307) 
9.0

>  <saltbridge:HIS:51>  (307) 
0

>  <pistack:HIS:51>  (307) 
0

>  <hydroph_interaction:HIS:51>  (307) 
0

>  <hbond:ALA:132>  (307) 
0

>  <hbond:SER:135>  (307) 
0

>  <hydroph_interaction:TYR:150>  (307) 
0

>  <pistack:TYR:161>  (307) 
2

>  <hydroph_interaction:TYR:161>  (307) 
1

>  <hydroph_interaction:ASP:83>  (307) 
0

>  <hbond:TYR:130>  (307) 
0

>  <hydroph_interaction:ALA:132>  (307) 
0

>  <hbond:HIS:51>  (307) 
0

>  <hbond:ASP:129>  (307) 
0

>  <hbond:TYR:150>  (307) 
0

>  <hbond:GLY:151>  (307) 
0

>  <hbond:TYR:161>  (307) 
0

>  <hydroph_interaction:TYR:130>  (307) 
0

>  <hydroph_interaction:PRO:131>  (307) 
0

>  <hydroph_interaction:ASP:129>  (307) 
0

>  <saltbridge:ASP:75>  (307) 
0

>  <saltbridge:ASP:83>  (307) 
0

>  <hbond:ASN:152>  (307) 
0

>  <hydroph_interaction:ASN:152>  (307) 
0

>  <halogenbond:TYR:150>  (307) 
0

>  <hbond:ASP:83>  (307) 
0

>  <hydroph_interaction:VAL:155>  (307) 
0

>  <pication:TYR:161>  (307) 
0

>  <hbond:PRO:131>  (307) 
0

>  <saltbridge:ASP:129>  (307) 
0

>  <hbond:THR:134>  (307) 
0

>  <pication:HIS:51>  (307) 
0

>  <hbond:SER:81>  (307) 
0

>  <hydroph_interaction:THR:134>  (307) 
0

>  <hydroph_interaction:MET:49>  (307) 
0

$$$$
PV-003470851358
     RDKit          3D

 28 30  0  0  0  0  0  0  0  0999 V2000
  -10.8760    5.0970  -18.6040 C   0  0  0  0  0  0  0  0  0  0  0  0
   -9.5920    4.5320  -18.4750 O   0  0  0  0  0  0  0  0  0  0  0  0
   -8.9720    4.9910  -17.3690 C   0  0  0  0  0  0  0  0  0  0  0  0
   -9.5570    4.9140  -16.1750 N   0  0  0  0  0  0  0  0  0  0  0  0
   -8.6530    5.4540  -15.3470 N   0  0  0  0  0  0  0  0  0  0  0  0
   -7.5200    5.8710  -15.9760 C   0  0  0  0  0  0  0  0  0  0  0  0
   -7.6980    5.5840  -17.3120 C   0  0  0  0  0  0  0  0  0  0  0  0
   -6.7220    5.8700  -18.3360 C   0  0  0  0  0  0  0  0  0  0  0  0
   -7.1190    6.5040  -19.5020 C   0  0  0  0  0  0  0  0  0  0  0  0
   -6.1920    6.7740  -20.4710 C   0  0  0  0  0  0  0  0  0  0  0  0
   -4.9080    6.4470  -20.3700 N   0  0  0  0  0  0  0  0  0  0  0  0
   -4.5210    5.8330  -19.2460 C   0  0  0  0  0  0  0  0  0  0  0  0
   -3.1990    5.4960  -19.1400 C   0  0  0  0  0  0  0  0  0  0  0  0
   -2.6890    4.8720  -18.0120 C   0  0  0  0  0  0  0  0  0  0  0  0
   -3.5210    4.5660  -16.9510 C   0  0  0  0  0  0  0  0  0  0  0  0
   -4.8650    4.8850  -17.0310 C   0  0  0  0  0  0  0  0  0  0  0  0
   -5.3850    5.5200  -18.1770 C   0  0  0  0  0  0  0  0  0  0  0  0
  -11.6130    4.3050  -18.4990 H   0  0  0  0  0  0  0  0  0  0  0  0
  -11.0170    5.5800  -19.5790 H   0  0  0  0  0  0  0  0  0  0  0  0
  -11.0370    5.7920  -17.8030 H   0  0  0  0  0  0  0  0  0  0  0  0
   -8.8780    5.5050  -14.3590 H   0  0  0  0  0  0  0  0  0  0  0  0
   -6.7060    6.3260  -15.4310 H   0  0  0  0  0  0  0  0  0  0  0  0
   -8.1320    6.7880  -19.6720 H   0  0  0  0  0  0  0  0  0  0  0  0
   -6.4710    7.2730  -21.3930 H   0  0  0  0  0  0  0  0  0  0  0  0
   -2.5300    5.7320  -19.9650 H   0  0  0  0  0  0  0  0  0  0  0  0
   -1.6320    4.6280  -17.9720 H   0  0  0  0  0  0  0  0  0  0  0  0
   -3.1250    4.0780  -16.0630 H   0  0  0  0  0  0  0  0  0  0  0  0
   -5.5060    4.6330  -16.1900 H   0  0  0  0  0  0  0  0  0  0  0  0
  1  2  1  0
  2  3  1  0
  3  4  2  0
  4  5  1  0
  5  6  1  0
  6  7  2  0
  7  8  1  0
  8  9  2  0
  9 10  1  0
 10 11  2  0
 11 12  1  0
 12 13  2  0
 13 14  1  0
 14 15  2  0
 15 16  1  0
 16 17  2  0
  7  3  1  0
 17  8  1  0
 17 12  1  0
  1 18  1  0
  1 19  1  0
  1 20  1  0
  5 21  1  0
  6 22  1  0
  9 23  1  0
 10 24  1  0
 13 25  1  0
 14 26  1  0
 15 27  1  0
 16 28  1  0
A    1
 C1 
A    2
 O1 
A    3
 C2 
A    4
 N1 
A    5
 N2 
A    6
 C3 
A    7
 C4 
A    8
 C5 
A    9
 C6 
A   10
 C7 
A   11
 N3 
A   12
 C8 
A   13
 C9 
A   14
 C10
A   15
 C11
A   16
 C12
A   17
 C13
A   18
 H1 
A   19
 H2 
A   20
 H3 
A   21
 H4 
A   22
 H5 
A   23
 H6 
A   24
 H7 
A   25
 H8 
A   26
 H9 
A   27
 H10
A   28
 H11
M  END
>  <ref_pdb>  (308) 
x0051_0B

>  <ref_mols>  (308) 
x0803_0B,x0465_0B

>  <original SMILES>  (308) 
[H]c1nc2c([H])c([H])c([H])c([H])c2c(-c2c(OC([H])([H])[H])nn([H])c2[H])c1[H]

>  <index>  (308) 
3756

>  <∆∆G>  (308) 
-7.408419

>  <∆G_bound>  (308) 
-7.326561

>  <∆G_unbound>  (308) 
0.081857

>  <comRMSD>  (308) 
0.705545

>  <N_constrained_atoms>  (308) 
17.0

>  <N_unconstrained_atoms>  (308) 
0.0

>  <runtime>  (308) 
32.433849

>  <LE>  (308) 
0.435789

>  <percent_hybrid>  (308) 
46.0

>  <dist>  (308) 
5.0

>  <ecfp4>  (308) 
0.222222

>  <daylight>  (308) 
0.189655

>  <topodist>  (308) 
1.0

>  <mces>  (308) 
18.0

>  <tdn>  (308) 
0.0

>  <tup>  (308) 
0.0

>  <rdn>  (308) 
0.0

>  <rup>  (308) 
0.0

>  <ldn>  (308) 
0.0

>  <lup>  (308) 
1.0

>  <mut>  (308) 
0.0

>  <maj>  (308) 
0.0

>  <min>  (308) 
0.0

>  <hyb>  (308) 
4.0

>  <sub>  (308) 
0.0

>  <query_index>  (308) 
163.0

>  <max_hit_Tanimoto>  (308) 
0.143396

>  <largest_ring>  (308) 
6

>  <N_interactions_kept>  (308) 
3.0

>  <N_interactions_lost>  (308) 
4.5

>  <interaction_uniqueness_metric>  (308) 
0.104733

>  <ad_hoc_penalty>  (308) 
-1.651624

>  <N_rotatable_bonds>  (308) 
3

>  <N_HA>  (308) 
17

>  <cluster>  (308) 
2729

>  <N_interactions>  (308) 
6

>  <Enamine>  (308) 
1

>  <Mcule>  (308) 
0

>  <N_PAINS>  (308) 
0

>  <UFF_Gibbs>  (308) 
37.598532

>  <strain_per_HA>  (308) 
2.211678

>  <intxn_scored>  (308) 
9.0

>  <saltbridge:HIS:51>  (308) 
0

>  <pistack:HIS:51>  (308) 
0

>  <hydroph_interaction:HIS:51>  (308) 
0

>  <hbond:ALA:132>  (308) 
0

>  <hbond:SER:135>  (308) 
0

>  <hydroph_interaction:TYR:150>  (308) 
0

>  <pistack:TYR:161>  (308) 
1

>  <hydroph_interaction:TYR:161>  (308) 
3

>  <hydroph_interaction:ASP:83>  (308) 
0

>  <hbond:TYR:130>  (308) 
0

>  <hydroph_interaction:ALA:132>  (308) 
0

>  <hbond:HIS:51>  (308) 
0

>  <hbond:ASP:129>  (308) 
0

>  <hbond:TYR:150>  (308) 
0

>  <hbond:GLY:151>  (308) 
0

>  <hbond:TYR:161>  (308) 
1

>  <hydroph_interaction:TYR:130>  (308) 
0

>  <hydroph_interaction:PRO:131>  (308) 
0

>  <hydroph_interaction:ASP:129>  (308) 
0

>  <saltbridge:ASP:75>  (308) 
0

>  <saltbridge:ASP:83>  (308) 
0

>  <hbond:ASN:152>  (308) 
0

>  <hydroph_interaction:ASN:152>  (308) 
0

>  <halogenbond:TYR:150>  (308) 
0

>  <hbond:ASP:83>  (308) 
0

>  <hydroph_interaction:VAL:155>  (308) 
1

>  <pication:TYR:161>  (308) 
0

>  <hbond:PRO:131>  (308) 
0

>  <saltbridge:ASP:129>  (308) 
0

>  <hbond:THR:134>  (308) 
0

>  <pication:HIS:51>  (308) 
0

>  <hbond:SER:81>  (308) 
0

>  <hydroph_interaction:THR:134>  (308) 
0

>  <hydroph_interaction:MET:49>  (308) 
0

$$$$
Z3186165800
     RDKit          3D

 49 51  0  0  0  0  0  0  0  0999 V2000
   -2.3940    4.8830  -21.7780 C   0  0  0  0  0  0  0  0  0  0  0  0
   -3.7200    5.3560  -21.3940 N   0  0  0  0  0  0  0  0  0  0  0  0
   -4.7150    5.3630  -22.4350 C   0  0  0  0  0  0  0  0  0  0  0  0
   -4.1820    5.3590  -20.0860 C   0  0  0  0  0  0  0  0  0  0  0  0
   -3.4280    5.1480  -19.1340 O   0  0  0  0  0  0  0  0  0  0  0  0
   -5.6700    5.6070  -19.8260 C   0  0  0  0  0  0  0  0  0  0  0  0
   -5.8840    5.6480  -18.4170 O   0  0  0  0  0  0  0  0  0  0  0  0
   -7.1350    5.3740  -17.9290 C   0  0  0  0  0  0  0  0  0  0  0  0
   -8.0320    4.9010  -18.8890 C   0  0  0  0  0  0  0  0  0  0  0  0
   -9.3250    4.5890  -18.5180 C   0  0  0  0  0  0  0  0  0  0  0  0
   -9.7350    4.7460  -17.1980 C   0  0  0  0  0  0  0  0  0  0  0  0
   -8.8720    5.2230  -16.1860 C   0  0  0  0  0  0  0  0  0  0  0  0
   -9.4300    5.3860  -14.7410 C   0  0  0  0  0  0  0  0  0  0  0  0
   -8.6730    4.9780  -13.5880 N   0  0  0  0  0  0  0  0  0  0  0  0
   -8.5870    5.9580  -12.4620 C   0  0  0  0  0  0  0  0  0  0  0  0
   -8.3880    7.1320  -12.7660 O   0  0  0  0  0  0  0  0  0  0  0  0
   -8.7180    5.6560  -10.9880 C   0  0  0  0  0  0  0  0  0  0  0  0
   -8.8500    4.4770  -10.2210 C   0  0  0  0  0  0  0  0  0  0  0  0
   -8.9100    3.1540  -10.4900 N   0  0  0  0  0  0  0  0  0  0  0  0
   -8.5020    2.2880   -9.3980 C   0  0  0  0  0  0  0  0  0  0  0  0
   -9.3870    2.5630   -8.1890 C   0  0  0  0  0  0  0  0  0  0  0  0
   -9.0710    3.9770   -7.7330 C   0  0  0  0  0  0  0  0  0  0  0  0
   -8.9230    4.8680   -8.8840 N   0  0  0  0  0  0  0  0  0  0  0  0
   -8.8460    6.1860   -8.7070 N   0  0  0  0  0  0  0  0  0  0  0  0
   -8.7270    6.6480   -9.9600 C   0  0  0  0  0  0  0  0  0  0  0  0
   -7.5500    5.5330  -16.5850 C   0  0  0  0  0  0  0  0  0  0  0  0
   -1.6080    5.6100  -21.5530 H   0  0  0  0  0  0  0  0  0  0  0  0
   -2.3800    4.6580  -22.8530 H   0  0  0  0  0  0  0  0  0  0  0  0
   -2.1670    3.9440  -21.2580 H   0  0  0  0  0  0  0  0  0  0  0  0
   -4.2020    5.4070  -23.4020 H   0  0  0  0  0  0  0  0  0  0  0  0
   -5.3540    6.2440  -22.3140 H   0  0  0  0  0  0  0  0  0  0  0  0
   -5.3370    4.4630  -22.3980 H   0  0  0  0  0  0  0  0  0  0  0  0
   -5.9430    6.5680  -20.2790 H   0  0  0  0  0  0  0  0  0  0  0  0
   -6.2320    4.8020  -20.3170 H   0  0  0  0  0  0  0  0  0  0  0  0
   -7.7220    4.7780  -19.9220 H   0  0  0  0  0  0  0  0  0  0  0  0
  -10.0170    4.2230  -19.2640 H   0  0  0  0  0  0  0  0  0  0  0  0
  -10.7520    4.4930  -16.9480 H   0  0  0  0  0  0  0  0  0  0  0  0
   -9.6750    6.4440  -14.5790 H   0  0  0  0  0  0  0  0  0  0  0  0
  -10.3950    4.8670  -14.6900 H   0  0  0  0  0  0  0  0  0  0  0  0
   -8.6370    3.9870  -13.3860 H   0  0  0  0  0  0  0  0  0  0  0  0
   -8.5990    2.8620  -11.4220 H   0  0  0  0  0  0  0  0  0  0  0  0
   -7.4550    2.4940   -9.1480 H   0  0  0  0  0  0  0  0  0  0  0  0
   -8.5530    1.2520   -9.7010 H   0  0  0  0  0  0  0  0  0  0  0  0
   -9.2050    1.8450   -7.3860 H   0  0  0  0  0  0  0  0  0  0  0  0
  -10.4440    2.4910   -8.4770 H   0  0  0  0  0  0  0  0  0  0  0  0
   -8.1180    4.0030   -7.1910 H   0  0  0  0  0  0  0  0  0  0  0  0
   -9.8660    4.3670   -7.0920 H   0  0  0  0  0  0  0  0  0  0  0  0
   -8.6490    7.7210  -10.0810 H   0  0  0  0  0  0  0  0  0  0  0  0
   -6.8640    5.9010  -15.8280 H   0  0  0  0  0  0  0  0  0  0  0  0
  1  2  1  0
  2  3  1  0
  2  4  1  0
  4  5  2  0
  4  6  1  0
  6  7  1  0
  7  8  1  0
  8  9  2  0
  9 10  1  0
 10 11  2  0
 11 12  1  0
 12 13  1  0
 13 14  1  0
 14 15  1  0
 15 16  2  0
 15 17  1  0
 17 18  2  0
 18 19  1  0
 19 20  1  0
 20 21  1  0
 21 22  1  0
 22 23  1  0
 23 24  1  0
 24 25  2  0
 12 26  2  0
 26  8  1  0
 25 17  1  0
 23 18  1  0
  1 27  1  0
  1 28  1  0
  1 29  1  0
  3 30  1  0
  3 31  1  0
  3 32  1  0
  6 33  1  0
  6 34  1  0
  9 35  1  0
 10 36  1  0
 11 37  1  0
 13 38  1  0
 13 39  1  0
 14 40  1  0
 19 41  1  0
 20 42  1  0
 20 43  1  0
 21 44  1  0
 21 45  1  0
 22 46  1  0
 22 47  1  0
 25 48  1  0
 26 49  1  0
A    1
 C1 
A    2
 N1 
A    3
 C2 
A    4
 C3 
A    5
 O1 
A    6
 C4 
A    7
 O2 
A    8
 C5 
A    9
 C6 
A   10
 C7 
A   11
 C8 
A   12
 C9 
A   13
 C10
A   14
 N2 
A   15
 C11
A   16
 O3 
A   17
 C12
A   18
 C13
A   19
 N3 
A   20
 C14
A   21
 C15
A   22
 C16
A   23
 N4 
A   24
 N5 
A   25
 C17
A   26
 C18
A   27
 H1 
A   28
 H2 
A   29
 H3 
A   30
 H4 
A   31
 H5 
A   32
 H6 
A   33
 H7 
A   34
 H8 
A   35
 H9 
A   36
 H10
A   37
 H11
A   38
 H12
A   39
 H13
A   40
 H14
A   41
 H15
A   42
 H16
A   43
 H17
A   44
 H18
A   45
 H19
A   46
 H20
A   47
 H21
A   48
 H22
A   49
 H23
M  END
>  <ref_pdb>  (309) 
x0051_0B

>  <ref_mols>  (309) 
x0969_1B,x0904_0B

>  <original SMILES>  (309) 
[H]c1nn2c(c1C(=O)N([H])C([H])([H])c1c([H])c([H])c([H])c(OC([H])([H])C(=O)N(C([H])([H])[H])C([H])([H])[H])c1[H])N([H])C([H])([H])C([H])([H])C2([H])[H]

>  <index>  (309) 
1864

>  <∆∆G>  (309) 
-8.813697

>  <∆G_bound>  (309) 
-8.608557

>  <∆G_unbound>  (309) 
0.20514

>  <comRMSD>  (309) 
0.555119

>  <N_constrained_atoms>  (309) 
24.0

>  <N_unconstrained_atoms>  (309) 
2.0

>  <runtime>  (309) 
109.891189

>  <LE>  (309) 
0.338988

>  <percent_hybrid>  (309) 
42.0

>  <dist>  (309) 
6.0

>  <ecfp4>  (309) 
0.486486

>  <daylight>  (309) 
0.344051

>  <topodist>  (309) 
2.0

>  <mces>  (309) 
27.0

>  <tdn>  (309) 
0.0

>  <tup>  (309) 
1.0

>  <rdn>  (309) 
0.0

>  <rup>  (309) 
0.0

>  <ldn>  (309) 
1.0

>  <lup>  (309) 
0.0

>  <mut>  (309) 
3.0

>  <maj>  (309) 
3.0

>  <min>  (309) 
0.0

>  <hyb>  (309) 
1.0

>  <sub>  (309) 
0.0

>  <query_index>  (309) 
111.0

>  <max_hit_Tanimoto>  (309) 
0.262923

>  <largest_ring>  (309) 
6

>  <N_interactions_kept>  (309) 
1.5

>  <N_interactions_lost>  (309) 
2.0

>  <interaction_uniqueness_metric>  (309) 
0.121217

>  <ad_hoc_penalty>  (309) 
-7.693166

>  <N_rotatable_bonds>  (309) 
8

>  <N_HA>  (309) 
26

>  <cluster>  (309) 
4509

>  <N_interactions>  (309) 
5

>  <Enamine>  (309) 
1

>  <Mcule>  (309) 
0

>  <N_PAINS>  (309) 
0

>  <UFF_Gibbs>  (309) 
162.114903

>  <strain_per_HA>  (309) 
6.235189

>  <intxn_scored>  (309) 
9.0

>  <saltbridge:HIS:51>  (309) 
0

>  <pistack:HIS:51>  (309) 
1

>  <hydroph_interaction:HIS:51>  (309) 
0

>  <hbond:ALA:132>  (309) 
0

>  <hbond:SER:135>  (309) 
0

>  <hydroph_interaction:TYR:150>  (309) 
1

>  <pistack:TYR:161>  (309) 
1

>  <hydroph_interaction:TYR:161>  (309) 
0

>  <hydroph_interaction:ASP:83>  (309) 
0

>  <hbond:TYR:130>  (309) 
0

>  <hydroph_interaction:ALA:132>  (309) 
1

>  <hbond:HIS:51>  (309) 
0

>  <hbond:ASP:129>  (309) 
0

>  <hbond:TYR:150>  (309) 
0

>  <hbond:GLY:151>  (309) 
0

>  <hbond:TYR:161>  (309) 
1

>  <hydroph_interaction:TYR:130>  (309) 
0

>  <hydroph_interaction:PRO:131>  (309) 
0

>  <hydroph_interaction:ASP:129>  (309) 
0

>  <saltbridge:ASP:75>  (309) 
0

>  <saltbridge:ASP:83>  (309) 
0

>  <hbond:ASN:152>  (309) 
0

>  <hydroph_interaction:ASN:152>  (309) 
0

>  <halogenbond:TYR:150>  (309) 
0

>  <hbond:ASP:83>  (309) 
0

>  <hydroph_interaction:VAL:155>  (309) 
0

>  <pication:TYR:161>  (309) 
0

>  <hbond:PRO:131>  (309) 
0

>  <saltbridge:ASP:129>  (309) 
0

>  <hbond:THR:134>  (309) 
0

>  <pication:HIS:51>  (309) 
0

>  <hbond:SER:81>  (309) 
0

>  <hydroph_interaction:THR:134>  (309) 
0

>  <hydroph_interaction:MET:49>  (309) 
0

$$$$
CSSB03437109719
     RDKit          3D

 41 42  0  0  0  0  0  0  0  0999 V2000
   -5.7160    8.5260  -22.5660 C   0  0  0  0  0  0  0  0  0  0  0  0
   -5.5130    7.2990  -23.2870 C   0  0  0  0  0  0  0  0  0  0  0  0
   -6.2270    7.0610  -24.5800 C   0  0  0  0  0  0  0  0  0  0  0  0
   -4.0350    7.3820  -23.6970 C   0  0  0  0  0  0  0  0  0  0  0  0
   -5.6320    6.1270  -22.5710 N   0  0  0  0  0  0  0  0  0  0  0  0
   -5.1910    6.1250  -21.2760 C   0  0  0  0  0  0  0  0  0  0  0  0
   -4.2830    7.0130  -20.7740 O   0  0  0  0  0  0  0  0  0  0  0  0
   -5.7690    5.1520  -20.5190 N   0  0  0  0  0  0  0  0  0  0  0  0
   -5.9480    5.3390  -19.0880 C   0  0  0  0  0  0  0  0  0  0  0  0
   -7.2230    5.6530  -18.6770 C   0  0  0  0  0  0  0  0  0  0  0  0
   -7.4530    6.9560  -19.1970 O   0  0  0  0  0  0  0  0  0  0  0  0
   -8.3460    4.7650  -19.2500 C   0  0  0  0  0  0  0  0  0  0  0  0
   -9.5020    4.3600  -18.3580 C   0  0  0  0  0  0  0  0  0  0  0  0
   -9.6230    5.0110  -16.9700 C   0  0  0  0  0  0  0  0  0  0  0  0
   -8.3000    5.3100  -16.3990 C   0  0  0  0  0  0  0  0  0  0  0  0
   -7.1910    5.6080  -17.1620 C   0  0  0  0  0  0  0  0  0  0  0  0
   -6.1060    5.8380  -16.3220 C   0  0  0  0  0  0  0  0  0  0  0  0
   -6.3990    5.7190  -15.0020 C   0  0  0  0  0  0  0  0  0  0  0  0
   -8.0230    5.3160  -14.7090 S   0  0  0  0  0  0  0  0  0  0  0  0
   -6.2120    9.3140  -23.1430 H   0  0  0  0  0  0  0  0  0  0  0  0
   -6.3260    8.3510  -21.6730 H   0  0  0  0  0  0  0  0  0  0  0  0
   -4.7520    8.9100  -22.2180 H   0  0  0  0  0  0  0  0  0  0  0  0
   -5.6410    6.8670  -25.4760 H   0  0  0  0  0  0  0  0  0  0  0  0
   -6.8660    7.9230  -24.8090 H   0  0  0  0  0  0  0  0  0  0  0  0
   -6.8880    6.2290  -24.4750 H   0  0  0  0  0  0  0  0  0  0  0  0
   -3.6940    6.4380  -24.1170 H   0  0  0  0  0  0  0  0  0  0  0  0
   -3.3820    7.6190  -22.8520 H   0  0  0  0  0  0  0  0  0  0  0  0
   -3.8790    8.1610  -24.4540 H   0  0  0  0  0  0  0  0  0  0  0  0
   -6.5330    5.6730  -22.6600 H   0  0  0  0  0  0  0  0  0  0  0  0
   -5.6360    4.2080  -20.8500 H   0  0  0  0  0  0  0  0  0  0  0  0
   -5.2780    6.1580  -18.8060 H   0  0  0  0  0  0  0  0  0  0  0  0
   -5.5820    4.4450  -18.6010 H   0  0  0  0  0  0  0  0  0  0  0  0
   -7.8690    6.8490  -20.1030 H   0  0  0  0  0  0  0  0  0  0  0  0
   -7.9230    3.8760  -19.7230 H   0  0  0  0  0  0  0  0  0  0  0  0
   -8.7960    5.3000  -20.0860 H   0  0  0  0  0  0  0  0  0  0  0  0
   -9.4590    3.2820  -18.2330 H   0  0  0  0  0  0  0  0  0  0  0  0
  -10.4350    4.5620  -18.8970 H   0  0  0  0  0  0  0  0  0  0  0  0
  -10.2350    5.9050  -17.0380 H   0  0  0  0  0  0  0  0  0  0  0  0
  -10.1510    4.3380  -16.3010 H   0  0  0  0  0  0  0  0  0  0  0  0
   -5.0690    6.0980  -16.5750 H   0  0  0  0  0  0  0  0  0  0  0  0
   -5.5870    5.8880  -14.2860 H   0  0  0  0  0  0  0  0  0  0  0  0
  1  2  1  0
  2  3  1  0
  2  4  1  0
  2  5  1  0
  5  6  1  0
  6  7  2  0
  6  8  1  0
  8  9  1  0
  9 10  1  0
 10 11  1  0
 10 12  1  0
 12 13  1  0
 13 14  1  0
 14 15  1  0
 15 16  2  0
 16 17  1  0
 17 18  2  0
 18 19  1  0
 16 10  1  0
 19 15  1  0
  1 20  1  0
  1 21  1  0
  1 22  1  0
  3 23  1  0
  3 24  1  0
  3 25  1  0
  4 26  1  0
  4 27  1  0
  4 28  1  0
  5 29  1  0
  8 30  1  0
  9 31  1  0
  9 32  1  0
 11 33  1  0
 12 34  1  0
 12 35  1  0
 13 36  1  0
 13 37  1  0
 14 38  1  0
 14 39  1  0
 17 40  1  0
 18 41  1  0
A    1
 C1 
A    2
 C2 
A    3
 C3 
A    4
 C4 
A    5
 N1 
A    6
 C5 
A    7
 O1 
A    8
 N2 
A    9
 C6 
A   10
 C7 
A   11
 O2 
A   12
 C8 
A   13
 C9 
A   14
 C10
A   15
 C11
A   16
 C12
A   17
 C13
A   18
 C14
A   19
 S1 
A   20
 H1 
A   21
 H2 
A   22
 H3 
A   23
 H4 
A   24
 H5 
A   25
 H6 
A   26
 H7 
A   27
 H8 
A   28
 H9 
A   29
 H10
A   30
 H11
A   31
 H12
A   32
 H13
A   33
 H14
A   34
 H15
A   35
 H16
A   36
 H17
A   37
 H18
A   38
 H19
A   39
 H20
A   40
 H21
A   41
 H22
M  END
>  <ref_pdb>  (310) 
x0051_0B

>  <ref_mols>  (310) 
x0101_0B,x0951_0B

>  <original SMILES>  (310) 
[H]OC1(C([H])([H])N([H])C(=O)N([H])C(C([H])([H])[H])(C([H])([H])[H])C([H])([H])[H])c2c(sc([H])c2[H])C([H])([H])C([H])([H])C1([H])[H]

>  <index>  (310) 
760

>  <∆∆G>  (310) 
-7.126851

>  <∆G_bound>  (310) 
-5.532119

>  <∆G_unbound>  (310) 
1.594731

>  <comRMSD>  (310) 
0.77947

>  <N_constrained_atoms>  (310) 
17.0

>  <N_unconstrained_atoms>  (310) 
4.0

>  <runtime>  (310) 
37.480958

>  <LE>  (310) 
0.339374

>  <percent_hybrid>  (310) 
28.0

>  <dist>  (310) 
11.0

>  <ecfp4>  (310) 
0.123457

>  <daylight>  (310) 
0.130268

>  <topodist>  (310) 
4.0

>  <mces>  (310) 
19.0

>  <tdn>  (310) 
1.0

>  <tup>  (310) 
0.0

>  <rdn>  (310) 
1.0

>  <rup>  (310) 
1.0

>  <ldn>  (310) 
1.0

>  <lup>  (310) 
0.0

>  <mut>  (310) 
5.0

>  <maj>  (310) 
5.0

>  <min>  (310) 
0.0

>  <hyb>  (310) 
2.0

>  <sub>  (310) 
3.0

>  <query_index>  (310) 
30.0

>  <max_hit_Tanimoto>  (310) 
0.179817

>  <largest_ring>  (310) 
6

>  <N_interactions_kept>  (310) 
0.0

>  <N_interactions_lost>  (310) 
4.0

>  <interaction_uniqueness_metric>  (310) 
0.180212

>  <ad_hoc_penalty>  (310) 
-15.335019

>  <N_rotatable_bonds>  (310) 
3

>  <N_HA>  (310) 
19

>  <cluster>  (310) 
5523

>  <N_interactions>  (310) 
9

>  <Enamine>  (310) 
1

>  <Mcule>  (310) 
0

>  <N_PAINS>  (310) 
0

>  <UFF_Gibbs>  (310) 
137.362167

>  <strain_per_HA>  (310) 
7.229588

>  <intxn_scored>  (310) 
9.0

>  <saltbridge:HIS:51>  (310) 
0

>  <pistack:HIS:51>  (310) 
0

>  <hydroph_interaction:HIS:51>  (310) 
0

>  <hbond:ALA:132>  (310) 
0

>  <hbond:SER:135>  (310) 
0

>  <hydroph_interaction:TYR:150>  (310) 
1

>  <pistack:TYR:161>  (310) 
1

>  <hydroph_interaction:TYR:161>  (310) 
2

>  <hydroph_interaction:ASP:83>  (310) 
0

>  <hbond:TYR:130>  (310) 
1

>  <hydroph_interaction:ALA:132>  (310) 
1

>  <hbond:HIS:51>  (310) 
0

>  <hbond:ASP:129>  (310) 
2

>  <hbond:TYR:150>  (310) 
0

>  <hbond:GLY:151>  (310) 
0

>  <hbond:TYR:161>  (310) 
0

>  <hydroph_interaction:TYR:130>  (310) 
0

>  <hydroph_interaction:PRO:131>  (310) 
0

>  <hydroph_interaction:ASP:129>  (310) 
1

>  <saltbridge:ASP:75>  (310) 
0

>  <saltbridge:ASP:83>  (310) 
0

>  <hbond:ASN:152>  (310) 
0

>  <hydroph_interaction:ASN:152>  (310) 
0

>  <halogenbond:TYR:150>  (310) 
0

>  <hbond:ASP:83>  (310) 
0

>  <hydroph_interaction:VAL:155>  (310) 
0

>  <pication:TYR:161>  (310) 
0

>  <hbond:PRO:131>  (310) 
0

>  <saltbridge:ASP:129>  (310) 
0

>  <hbond:THR:134>  (310) 
0

>  <pication:HIS:51>  (310) 
0

>  <hbond:SER:81>  (310) 
0

>  <hydroph_interaction:THR:134>  (310) 
0

>  <hydroph_interaction:MET:49>  (310) 
0

$$$$
Z4346838533
     RDKit          3D

 39 42  0  0  0  0  0  0  0  0999 V2000
   -6.3690    5.2180  -20.1030 C   0  0  0  0  0  0  0  0  0  0  0  0
   -6.4800    5.2850  -18.6510 N   0  0  0  0  0  0  0  0  0  0  0  0
   -5.3350    5.5100  -17.8740 N   0  0  0  0  0  0  0  0  0  0  0  0
   -5.7590    5.5200  -16.5850 N   0  0  0  0  0  0  0  0  0  0  0  0
   -7.1270    5.3120  -16.5220 C   0  0  0  0  0  0  0  0  0  0  0  0
   -8.0380    5.2430  -15.3680 C   0  0  0  0  0  0  0  0  0  0  0  0
   -7.5980    5.3920  -13.9560 C   0  0  0  0  0  0  0  0  0  0  0  0
   -8.7360    5.3180  -12.9410 N   0  0  0  0  0  0  0  0  0  0  0  0
   -8.7570    5.3750  -11.5020 C   0  0  0  0  0  0  0  0  0  0  0  0
   -8.8820    4.3300  -10.3880 C   0  0  0  0  0  0  0  0  0  0  0  0
   -9.0140    2.8480  -10.4970 C   0  0  0  0  0  0  0  0  0  0  0  0
   -8.6150    2.2000   -9.1620 C   0  0  0  0  0  0  0  0  0  0  0  0
   -9.2100    2.9150   -8.0130 C   0  0  0  0  0  0  0  0  0  0  0  0
   -8.9550    4.3940   -7.8540 C   0  0  0  0  0  0  0  0  0  0  0  0
   -8.8570    5.0030   -9.1840 N   0  0  0  0  0  0  0  0  0  0  0  0
   -8.7300    6.3300   -9.3310 N   0  0  0  0  0  0  0  0  0  0  0  0
   -8.6730    6.5520  -10.6800 C   0  0  0  0  0  0  0  0  0  0  0  0
   -9.4090    5.0120  -15.6960 C   0  0  0  0  0  0  0  0  0  0  0  0
   -9.8340    4.8540  -17.0250 C   0  0  0  0  0  0  0  0  0  0  0  0
   -8.9410    4.9170  -18.2070 C   0  0  0  0  0  0  0  0  0  0  0  0
   -7.5820    5.1570  -17.8740 C   0  0  0  0  0  0  0  0  0  0  0  0
   -5.3510    4.9260  -20.3740 H   0  0  0  0  0  0  0  0  0  0  0  0
   -7.0460    4.4690  -20.5300 H   0  0  0  0  0  0  0  0  0  0  0  0
   -6.5620    6.1940  -20.5610 H   0  0  0  0  0  0  0  0  0  0  0  0
   -6.9000    4.6180  -13.6430 H   0  0  0  0  0  0  0  0  0  0  0  0
   -7.0650    6.3140  -13.7360 H   0  0  0  0  0  0  0  0  0  0  0  0
   -9.6260    5.4580  -13.4190 H   0  0  0  0  0  0  0  0  0  0  0  0
   -8.3670    2.4960  -11.3070 H   0  0  0  0  0  0  0  0  0  0  0  0
  -10.0420    2.5680  -10.7610 H   0  0  0  0  0  0  0  0  0  0  0  0
   -7.5270    2.2290   -9.0750 H   0  0  0  0  0  0  0  0  0  0  0  0
   -8.9000    1.1610   -9.1060 H   0  0  0  0  0  0  0  0  0  0  0  0
  -10.2960    2.7690   -8.0580 H   0  0  0  0  0  0  0  0  0  0  0  0
   -8.8960    2.4250   -7.0840 H   0  0  0  0  0  0  0  0  0  0  0  0
   -8.0140    4.5700   -7.3240 H   0  0  0  0  0  0  0  0  0  0  0  0
   -9.7680    4.8940   -7.3180 H   0  0  0  0  0  0  0  0  0  0  0  0
   -8.5740    7.5740  -11.0140 H   0  0  0  0  0  0  0  0  0  0  0  0
  -10.1470    4.9510  -14.8950 H   0  0  0  0  0  0  0  0  0  0  0  0
  -10.8840    4.6720  -17.2230 H   0  0  0  0  0  0  0  0  0  0  0  0
   -9.3990    4.7790  -19.1940 H   0  0  0  0  0  0  0  0  0  0  0  0
  1  2  1  0
  2  3  1  0
  3  4  2  0
  4  5  1  0
  5  6  2  0
  6  7  1  0
  7  8  1  0
  8  9  1  0
  9 10  2  0
 10 11  1  0
 11 12  1  0
 12 13  1  0
 13 14  1  0
 14 15  1  0
 15 16  1  0
 16 17  2  0
  6 18  1  0
 18 19  2  0
 19 20  1  0
 20 21  2  0
 21  2  1  0
 21  5  1  0
 17  9  1  0
 15 10  1  0
  1 22  1  0
  1 23  1  0
  1 24  1  0
  7 25  1  0
  7 26  1  0
  8 27  1  0
 11 28  1  0
 11 29  1  0
 12 30  1  0
 12 31  1  0
 13 32  1  0
 13 33  1  0
 14 34  1  0
 14 35  1  0
 17 36  1  0
 18 37  1  0
 19 38  1  0
 20 39  1  0
A    1
 C1 
A    2
 N1 
A    3
 N2 
A    4
 N3 
A    5
 C2 
A    6
 C3 
A    7
 C4 
A    8
 N4 
A    9
 C5 
A   10
 C6 
A   11
 C7 
A   12
 C8 
A   13
 C9 
A   14
 C10
A   15
 N5 
A   16
 N6 
A   17
 C11
A   18
 C12
A   19
 C13
A   20
 C14
A   21
 C15
A   22
 H1 
A   23
 H2 
A   24
 H3 
A   25
 H4 
A   26
 H5 
A   27
 H6 
A   28
 H7 
A   29
 H8 
A   30
 H9 
A   31
 H10
A   32
 H11
A   33
 H12
A   34
 H13
A   35
 H14
A   36
 H15
A   37
 H16
A   38
 H17
A   39
 H18
M  END
>  <ref_pdb>  (311) 
x0051_0B

>  <ref_mols>  (311) 
x0435_0B,x0969_1B

>  <original SMILES>  (311) 
[H]c1nn2c(c1N([H])C([H])([H])c1c([H])c([H])c([H])c3c1nnn3C([H])([H])[H])C([H])([H])C([H])([H])C([H])([H])C2([H])[H]

>  <index>  (311) 
170

>  <∆∆G>  (311) 
-7.220864

>  <∆G_bound>  (311) 
-6.936316

>  <∆G_unbound>  (311) 
0.284548

>  <comRMSD>  (311) 
0.731591

>  <N_constrained_atoms>  (311) 
20.0

>  <N_unconstrained_atoms>  (311) 
1.0

>  <runtime>  (311) 
47.411295

>  <LE>  (311) 
0.343851

>  <percent_hybrid>  (311) 
50.0

>  <dist>  (311) 
6.0

>  <ecfp4>  (311) 
0.162791

>  <daylight>  (311) 
0.255132

>  <topodist>  (311) 
1.0

>  <mces>  (311) 
24.0

>  <tdn>  (311) 
0.0

>  <tup>  (311) 
0.0

>  <rdn>  (311) 
0.0

>  <rup>  (311) 
0.0

>  <ldn>  (311) 
1.0

>  <lup>  (311) 
0.0

>  <mut>  (311) 
5.0

>  <maj>  (311) 
5.0

>  <min>  (311) 
0.0

>  <hyb>  (311) 
0.0

>  <sub>  (311) 
0.0

>  <query_index>  (311) 
311.0

>  <max_hit_Tanimoto>  (311) 
0.265957

>  <largest_ring>  (311) 
0

>  <N_interactions_kept>  (311) 
2.5

>  <N_interactions_lost>  (311) 
1.0

>  <interaction_uniqueness_metric>  (311) 
0.208827

>  <ad_hoc_penalty>  (311) 
-27.339967

>  <N_rotatable_bonds>  (311) 
4

>  <N_HA>  (311) 
21

>  <cluster>  (311) 
6065

>  <N_interactions>  (311) 
5

>  <Enamine>  (311) 
1

>  <Mcule>  (311) 
0

>  <N_PAINS>  (311) 
0

>  <UFF_Gibbs>  (311) 
110.567584

>  <strain_per_HA>  (311) 
5.265123

>  <intxn_scored>  (311) 
9.0

>  <saltbridge:HIS:51>  (311) 
0

>  <pistack:HIS:51>  (311) 
1

>  <hydroph_interaction:HIS:51>  (311) 
0

>  <hbond:ALA:132>  (311) 
0

>  <hbond:SER:135>  (311) 
0

>  <hydroph_interaction:TYR:150>  (311) 
0

>  <pistack:TYR:161>  (311) 
1

>  <hydroph_interaction:TYR:161>  (311) 
1

>  <hydroph_interaction:ASP:83>  (311) 
1

>  <hbond:TYR:130>  (311) 
0

>  <hydroph_interaction:ALA:132>  (311) 
0

>  <hbond:HIS:51>  (311) 
1

>  <hbond:ASP:129>  (311) 
0

>  <hbond:TYR:150>  (311) 
0

>  <hbond:GLY:151>  (311) 
0

>  <hbond:TYR:161>  (311) 
0

>  <hydroph_interaction:TYR:130>  (311) 
0

>  <hydroph_interaction:PRO:131>  (311) 
0

>  <hydroph_interaction:ASP:129>  (311) 
0

>  <saltbridge:ASP:75>  (311) 
0

>  <saltbridge:ASP:83>  (311) 
0

>  <hbond:ASN:152>  (311) 
0

>  <hydroph_interaction:ASN:152>  (311) 
0

>  <halogenbond:TYR:150>  (311) 
0

>  <hbond:ASP:83>  (311) 
0

>  <hydroph_interaction:VAL:155>  (311) 
0

>  <pication:TYR:161>  (311) 
0

>  <hbond:PRO:131>  (311) 
0

>  <saltbridge:ASP:129>  (311) 
0

>  <hbond:THR:134>  (311) 
0

>  <pication:HIS:51>  (311) 
0

>  <hbond:SER:81>  (311) 
0

>  <hydroph_interaction:THR:134>  (311) 
0

>  <hydroph_interaction:MET:49>  (311) 
0

$$$$
Z1689058421
     RDKit          3D

 44 48  0  0  0  0  0  0  0  0999 V2000
  -11.3370    8.4340  -28.4900 C   0  0  0  0  0  0  0  0  0  0  0  0
  -10.7040    7.0410  -28.5970 C   0  0  0  0  0  0  0  0  0  0  0  0
   -9.2430    6.9620  -28.0930 C   0  0  0  0  0  0  0  0  0  0  0  0
   -8.6210    8.1150  -27.5900 C   0  0  0  0  0  0  0  0  0  0  0  0
   -7.3670    8.3180  -27.0700 N   0  0  0  0  0  0  0  0  0  0  0  0
   -7.2650    9.6390  -26.7010 C   0  0  0  0  0  0  0  0  0  0  0  0
   -6.0150   10.1490  -26.0660 C   0  0  0  0  0  0  0  0  0  0  0  0
   -5.9360   10.4120  -24.6720 C   0  0  0  0  0  0  0  0  0  0  0  0
   -5.8370    9.3510  -23.7540 C   0  0  0  0  0  0  0  0  0  0  0  0
   -5.4550    9.2980  -22.4630 N   0  0  0  0  0  0  0  0  0  0  0  0
   -5.6050    7.9420  -22.1990 C   0  0  0  0  0  0  0  0  0  0  0  0
   -5.3110    7.2730  -20.8290 C   0  0  0  0  0  0  0  0  0  0  0  0
   -5.8310    5.9430  -20.6350 C   0  0  0  0  0  0  0  0  0  0  0  0
   -6.1680    5.7050  -19.2200 N   0  0  0  0  0  0  0  0  0  0  0  0
   -5.1850    5.8270  -18.3360 N   0  0  0  0  0  0  0  0  0  0  0  0
   -5.6690    5.6030  -17.1230 N   0  0  0  0  0  0  0  0  0  0  0  0
   -6.9940    5.3300  -17.2460 C   0  0  0  0  0  0  0  0  0  0  0  0
   -8.0650    5.0100  -16.1830 C   0  0  0  0  0  0  0  0  0  0  0  0
   -9.3550    4.7700  -16.6360 C   0  0  0  0  0  0  0  0  0  0  0  0
   -9.6260    4.8160  -18.0050 C   0  0  0  0  0  0  0  0  0  0  0  0
   -8.6920    5.1010  -18.9930 C   0  0  0  0  0  0  0  0  0  0  0  0
   -7.3680    5.3670  -18.5910 C   0  0  0  0  0  0  0  0  0  0  0  0
   -6.0400    7.2180  -23.2460 N   0  0  0  0  0  0  0  0  0  0  0  0
   -6.1920    8.1450  -24.2580 O   0  0  0  0  0  0  0  0  0  0  0  0
   -8.3620   10.2960  -26.9740 N   0  0  0  0  0  0  0  0  0  0  0  0
   -9.2180    9.3710  -27.5100 C   0  0  0  0  0  0  0  0  0  0  0  0
  -10.6720    9.5500  -27.9890 C   0  0  0  0  0  0  0  0  0  0  0  0
  -12.3720    8.4880  -28.8450 H   0  0  0  0  0  0  0  0  0  0  0  0
  -11.2390    6.1800  -28.9930 H   0  0  0  0  0  0  0  0  0  0  0  0
   -8.7140    6.0160  -28.1260 H   0  0  0  0  0  0  0  0  0  0  0  0
   -6.6520    7.6120  -26.9690 H   0  0  0  0  0  0  0  0  0  0  0  0
   -5.2260    9.4180  -26.2840 H   0  0  0  0  0  0  0  0  0  0  0  0
   -5.7260   11.0510  -26.6170 H   0  0  0  0  0  0  0  0  0  0  0  0
   -6.8530   10.9510  -24.3930 H   0  0  0  0  0  0  0  0  0  0  0  0
   -5.0960   11.0930  -24.4860 H   0  0  0  0  0  0  0  0  0  0  0  0
   -5.7080    7.9290  -20.0440 H   0  0  0  0  0  0  0  0  0  0  0  0
   -4.2250    7.2610  -20.6750 H   0  0  0  0  0  0  0  0  0  0  0  0
   -5.0400    5.2170  -20.8640 H   0  0  0  0  0  0  0  0  0  0  0  0
   -6.6820    5.6050  -21.2120 H   0  0  0  0  0  0  0  0  0  0  0  0
   -7.8120    4.9760  -15.1280 H   0  0  0  0  0  0  0  0  0  0  0  0
  -10.1490    4.5460  -15.9290 H   0  0  0  0  0  0  0  0  0  0  0  0
  -10.6210    4.6310  -18.4250 H   0  0  0  0  0  0  0  0  0  0  0  0
   -8.9880    5.1230  -20.0380 H   0  0  0  0  0  0  0  0  0  0  0  0
  -11.1570   10.5190  -27.9320 H   0  0  0  0  0  0  0  0  0  0  0  0
  1  2  2  0
  2  3  1  0
  3  4  2  0
  4  5  1  0
  5  6  1  0
  6  7  1  0
  7  8  1  0
  8  9  1  0
  9 10  2  0
 10 11  1  0
 11 12  1  0
 12 13  1  0
 13 14  1  0
 14 15  1  0
 15 16  2  0
 16 17  1  0
 17 18  2  0
 18 19  1  0
 19 20  2  0
 20 21  1  0
 21 22  2  0
 11 23  2  0
 23 24  1  0
  6 25  2  0
 25 26  1  0
 26 27  2  0
 27  1  1  0
 26  4  1  0
 24  9  1  0
 22 14  1  0
 22 17  1  0
  1 28  1  0
  2 29  1  0
  3 30  1  0
  5 31  1  0
  7 32  1  0
  7 33  1  0
  8 34  1  0
  8 35  1  0
 12 36  1  0
 12 37  1  0
 13 38  1  0
 13 39  1  0
 18 40  1  0
 19 41  1  0
 20 42  1  0
 21 43  1  0
 27 44  1  0
A    1
 C1 
A    2
 C2 
A    3
 C3 
A    4
 C4 
A    5
 N1 
A    6
 C5 
A    7
 C6 
A    8
 C7 
A    9
 C8 
A   10
 N2 
A   11
 C9 
A   12
 C10
A   13
 C11
A   14
 N3 
A   15
 N4 
A   16
 N5 
A   17
 C12
A   18
 C13
A   19
 C14
A   20
 C15
A   21
 C16
A   22
 C17
A   23
 N6 
A   24
 O1 
A   25
 N7 
A   26
 C18
A   27
 C19
A   28
 H1 
A   29
 H2 
A   30
 H3 
A   31
 H4 
A   32
 H5 
A   33
 H6 
A   34
 H7 
A   35
 H8 
A   36
 H9 
A   37
 H10
A   38
 H11
A   39
 H12
A   40
 H13
A   41
 H14
A   42
 H15
A   43
 H16
A   44
 H17
M  END
>  <ref_pdb>  (312) 
x0051_0B

>  <ref_mols>  (312) 
x0435_0B,x0846_1B

>  <original SMILES>  (312) 
[H]c1c([H])c([H])c2c(nnn2C([H])([H])C([H])([H])c2noc(C([H])([H])C([H])([H])c3nc4c([H])c([H])c([H])c([H])c4n3[H])n2)c1[H]

>  <index>  (312) 
2205

>  <∆∆G>  (312) 
-7.461584

>  <∆G_bound>  (312) 
-5.981057

>  <∆G_unbound>  (312) 
1.480527

>  <comRMSD>  (312) 
0.816042

>  <N_constrained_atoms>  (312) 
27.0

>  <N_unconstrained_atoms>  (312) 
1.0

>  <runtime>  (312) 
54.553926

>  <LE>  (312) 
0.266485

>  <percent_hybrid>  (312) 
34.0

>  <dist>  (312) 
9.0

>  <ecfp4>  (312) 
0.202247

>  <daylight>  (312) 
0.222973

>  <topodist>  (312) 
3.0

>  <mces>  (312) 
31.0

>  <tdn>  (312) 
1.0

>  <tup>  (312) 
0.0

>  <rdn>  (312) 
0.0

>  <rup>  (312) 
0.0

>  <ldn>  (312) 
2.0

>  <lup>  (312) 
0.0

>  <mut>  (312) 
6.0

>  <maj>  (312) 
6.0

>  <min>  (312) 
0.0

>  <hyb>  (312) 
0.0

>  <sub>  (312) 
0.0

>  <query_index>  (312) 
36.0

>  <max_hit_Tanimoto>  (312) 
0.23774

>  <largest_ring>  (312) 
6

>  <N_interactions_kept>  (312) 
1.0

>  <N_interactions_lost>  (312) 
2.0

>  <interaction_uniqueness_metric>  (312) 
0.123633

>  <ad_hoc_penalty>  (312) 
-7.677907

>  <N_rotatable_bonds>  (312) 
6

>  <N_HA>  (312) 
27

>  <cluster>  (312) 
4193

>  <N_interactions>  (312) 
4

>  <Enamine>  (312) 
1

>  <Mcule>  (312) 
0

>  <N_PAINS>  (312) 
0

>  <UFF_Gibbs>  (312) 
116.565859

>  <strain_per_HA>  (312) 
4.317254

>  <intxn_scored>  (312) 
9.0

>  <saltbridge:HIS:51>  (312) 
0

>  <pistack:HIS:51>  (312) 
0

>  <hydroph_interaction:HIS:51>  (312) 
0

>  <hbond:ALA:132>  (312) 
0

>  <hbond:SER:135>  (312) 
0

>  <hydroph_interaction:TYR:150>  (312) 
0

>  <pistack:TYR:161>  (312) 
2

>  <hydroph_interaction:TYR:161>  (312) 
0

>  <hydroph_interaction:ASP:83>  (312) 
0

>  <hbond:TYR:130>  (312) 
0

>  <hydroph_interaction:ALA:132>  (312) 
0

>  <hbond:HIS:51>  (312) 
0

>  <hbond:ASP:129>  (312) 
0

>  <hbond:TYR:150>  (312) 
0

>  <hbond:GLY:151>  (312) 
0

>  <hbond:TYR:161>  (312) 
0

>  <hydroph_interaction:TYR:130>  (312) 
1

>  <hydroph_interaction:PRO:131>  (312) 
1

>  <hydroph_interaction:ASP:129>  (312) 
0

>  <saltbridge:ASP:75>  (312) 
0

>  <saltbridge:ASP:83>  (312) 
0

>  <hbond:ASN:152>  (312) 
0

>  <hydroph_interaction:ASN:152>  (312) 
0

>  <halogenbond:TYR:150>  (312) 
0

>  <hbond:ASP:83>  (312) 
0

>  <hydroph_interaction:VAL:155>  (312) 
0

>  <pication:TYR:161>  (312) 
0

>  <hbond:PRO:131>  (312) 
0

>  <saltbridge:ASP:129>  (312) 
0

>  <hbond:THR:134>  (312) 
0

>  <pication:HIS:51>  (312) 
0

>  <hbond:SER:81>  (312) 
0

>  <hydroph_interaction:THR:134>  (312) 
0

>  <hydroph_interaction:MET:49>  (312) 
0

$$$$
CSSB00020627006
     RDKit          3D

 30 32  0  0  0  0  0  0  0  0999 V2000
   -5.5320    5.8260  -16.1810 C   0  0  0  0  0  0  0  0  0  0  0  0
   -5.2170    4.6350  -15.3130 C   0  0  0  0  0  0  0  0  0  0  0  0
   -6.2690    4.2030  -14.3670 C   0  0  0  0  0  0  0  0  0  0  0  0
   -6.0120    3.1210  -13.5410 C   0  0  0  0  0  0  0  0  0  0  0  0
   -4.7910    2.4510  -13.5980 C   0  0  0  0  0  0  0  0  0  0  0  0
   -3.6610    2.8580  -14.5670 C   0  0  0  0  0  0  0  0  0  0  0  0
   -3.9810    3.9650  -15.3830 C   0  0  0  0  0  0  0  0  0  0  0  0
   -5.4510    5.6640  -17.6820 C   0  0  0  0  0  0  0  0  0  0  0  0
   -4.2220    5.5430  -18.2440 N   0  0  0  0  0  0  0  0  0  0  0  0
   -4.1300    5.4250  -19.5850 C   0  0  0  0  0  0  0  0  0  0  0  0
   -2.8610    5.3030  -20.1830 C   0  0  0  0  0  0  0  0  0  0  0  0
   -2.7270    5.1870  -21.5710 C   0  0  0  0  0  0  0  0  0  0  0  0
   -3.8590    5.1910  -22.3810 C   0  0  0  0  0  0  0  0  0  0  0  0
   -5.1260    5.3060  -21.8080 C   0  0  0  0  0  0  0  0  0  0  0  0
   -5.2550    5.4220  -20.4200 C   0  0  0  0  0  0  0  0  0  0  0  0
   -6.5090    5.5380  -19.8210 C   0  0  0  0  0  0  0  0  0  0  0  0
   -6.6140    5.6620  -18.4360 C   0  0  0  0  0  0  0  0  0  0  0  0
   -6.5580    6.1410  -15.9670 H   0  0  0  0  0  0  0  0  0  0  0  0
   -4.8490    6.6340  -15.9040 H   0  0  0  0  0  0  0  0  0  0  0  0
   -7.2260    4.7150  -14.3090 H   0  0  0  0  0  0  0  0  0  0  0  0
   -6.7780    2.7930  -12.8410 H   0  0  0  0  0  0  0  0  0  0  0  0
   -4.6230    1.6040  -12.9360 H   0  0  0  0  0  0  0  0  0  0  0  0
   -2.7280    2.3140  -14.5810 H   0  0  0  0  0  0  0  0  0  0  0  0
   -3.2320    4.3120  -16.0930 H   0  0  0  0  0  0  0  0  0  0  0  0
   -1.9650    5.2990  -19.5660 H   0  0  0  0  0  0  0  0  0  0  0  0
   -1.7370    5.0940  -22.0130 H   0  0  0  0  0  0  0  0  0  0  0  0
   -3.7520    5.1020  -23.4670 H   0  0  0  0  0  0  0  0  0  0  0  0
   -6.0170    5.3080  -22.4310 H   0  0  0  0  0  0  0  0  0  0  0  0
   -7.4160    5.5360  -20.4200 H   0  0  0  0  0  0  0  0  0  0  0  0
   -7.5880    5.7580  -17.9660 H   0  0  0  0  0  0  0  0  0  0  0  0
  1  2  1  0
  2  3  2  0
  3  4  1  0
  4  5  2  0
  5  6  1  0
  6  7  2  0
  1  8  1  0
  8  9  2  0
  9 10  1  0
 10 11  2  0
 11 12  1  0
 12 13  2  0
 13 14  1  0
 14 15  2  0
 15 16  1  0
 16 17  2  0
  7  2  1  0
 17  8  1  0
 15 10  1  0
  1 18  1  0
  1 19  1  0
  3 20  1  0
  4 21  1  0
  5 22  1  0
  6 23  1  0
  7 24  1  0
 11 25  1  0
 12 26  1  0
 13 27  1  0
 14 28  1  0
 16 29  1  0
 17 30  1  0
A    1
 C1 
A    2
 C2 
A    3
 C3 
A    4
 C4 
A    5
 C5 
A    6
 C6 
A    7
 C7 
A    8
 C8 
A    9
 N1 
A   10
 C9 
A   11
 C10
A   12
 C11
A   13
 C12
A   14
 C13
A   15
 C14
A   16
 C15
A   17
 C16
A   18
 H1 
A   19
 H2 
A   20
 H3 
A   21
 H4 
A   22
 H5 
A   23
 H6 
A   24
 H7 
A   25
 H8 
A   26
 H9 
A   27
 H10
A   28
 H11
A   29
 H12
A   30
 H13
M  END
>  <ref_pdb>  (313) 
x0051_0B

>  <ref_mols>  (313) 
x0852_0B,x0680_0B

>  <original SMILES>  (313) 
[H]c1c([H])c([H])c(C([H])([H])c2nc3c([H])c([H])c([H])c([H])c3c([H])c2[H])c([H])c1[H]

>  <index>  (313) 
3630

>  <∆∆G>  (313) 
-6.096069

>  <∆G_bound>  (313) 
-6.287759

>  <∆G_unbound>  (313) 
-0.19169

>  <comRMSD>  (313) 
0.858367

>  <N_constrained_atoms>  (313) 
15.0

>  <N_unconstrained_atoms>  (313) 
6.0

>  <runtime>  (313) 
28.626737

>  <LE>  (313) 
0.290289

>  <percent_hybrid>  (313) 
25.0

>  <dist>  (313) 
5.0

>  <ecfp4>  (313) 
0.215686

>  <daylight>  (313) 
0.382812

>  <topodist>  (313) 
3.0

>  <mces>  (313) 
19.0

>  <tdn>  (313) 
2.0

>  <tup>  (313) 
0.0

>  <rdn>  (313) 
1.0

>  <rup>  (313) 
0.0

>  <ldn>  (313) 
0.0

>  <lup>  (313) 
0.0

>  <mut>  (313) 
2.0

>  <maj>  (313) 
2.0

>  <min>  (313) 
0.0

>  <hyb>  (313) 
0.0

>  <sub>  (313) 
4.0

>  <query_index>  (313) 
135.0

>  <max_hit_Tanimoto>  (313) 
0.181707

>  <largest_ring>  (313) 
6

>  <N_interactions_kept>  (313) 
4.0

>  <N_interactions_lost>  (313) 
3.5

>  <interaction_uniqueness_metric>  (313) 
0.097791

>  <ad_hoc_penalty>  (313) 
-2.995877

>  <N_rotatable_bonds>  (313) 
2

>  <N_HA>  (313) 
17

>  <cluster>  (313) 
2847

>  <N_interactions>  (313) 
5

>  <Enamine>  (313) 
1

>  <Mcule>  (313) 
0

>  <N_PAINS>  (313) 
0

>  <UFF_Gibbs>  (313) 
24.307635

>  <strain_per_HA>  (313) 
1.429861

>  <intxn_scored>  (313) 
9.0

>  <saltbridge:HIS:51>  (313) 
0

>  <pistack:HIS:51>  (313) 
0

>  <hydroph_interaction:HIS:51>  (313) 
0

>  <hbond:ALA:132>  (313) 
0

>  <hbond:SER:135>  (313) 
0

>  <hydroph_interaction:TYR:150>  (313) 
0

>  <pistack:TYR:161>  (313) 
2

>  <hydroph_interaction:TYR:161>  (313) 
1

>  <hydroph_interaction:ASP:83>  (313) 
0

>  <hbond:TYR:130>  (313) 
0

>  <hydroph_interaction:ALA:132>  (313) 
0

>  <hbond:HIS:51>  (313) 
0

>  <hbond:ASP:129>  (313) 
0

>  <hbond:TYR:150>  (313) 
0

>  <hbond:GLY:151>  (313) 
0

>  <hbond:TYR:161>  (313) 
0

>  <hydroph_interaction:TYR:130>  (313) 
0

>  <hydroph_interaction:PRO:131>  (313) 
0

>  <hydroph_interaction:ASP:129>  (313) 
1

>  <saltbridge:ASP:75>  (313) 
0

>  <saltbridge:ASP:83>  (313) 
0

>  <hbond:ASN:152>  (313) 
0

>  <hydroph_interaction:ASN:152>  (313) 
0

>  <halogenbond:TYR:150>  (313) 
0

>  <hbond:ASP:83>  (313) 
0

>  <hydroph_interaction:VAL:155>  (313) 
1

>  <pication:TYR:161>  (313) 
0

>  <hbond:PRO:131>  (313) 
0

>  <saltbridge:ASP:129>  (313) 
0

>  <hbond:THR:134>  (313) 
0

>  <pication:HIS:51>  (313) 
0

>  <hbond:SER:81>  (313) 
0

>  <hydroph_interaction:THR:134>  (313) 
0

>  <hydroph_interaction:MET:49>  (313) 
0

$$$$
Z2227283345
     RDKit          3D

 48 52  0  0  0  0  0  0  0  0999 V2000
   -5.4230    5.3590  -21.8440 O   0  0  0  0  0  0  0  0  0  0  0  0
   -5.1860    6.5090  -21.4990 C   0  0  0  0  0  0  0  0  0  0  0  0
   -4.5790    6.8470  -20.2350 N   0  0  0  0  0  0  0  0  0  0  0  0
   -4.4560    5.7060  -19.3670 C   0  0  0  0  0  0  0  0  0  0  0  0
   -5.7430    5.4780  -18.8490 C   0  0  0  0  0  0  0  0  0  0  0  0
   -6.0630    5.4550  -17.5800 N   0  0  0  0  0  0  0  0  0  0  0  0
   -7.4030    5.2120  -17.5870 C   0  0  0  0  0  0  0  0  0  0  0  0
   -8.2570    5.0890  -16.5130 C   0  0  0  0  0  0  0  0  0  0  0  0
   -9.7340    4.8200  -16.7460 C   0  0  0  0  0  0  0  0  0  0  0  0
  -10.1900    4.6980  -18.1440 C   0  0  0  0  0  0  0  0  0  0  0  0
   -9.1880    4.8410  -19.2670 C   0  0  0  0  0  0  0  0  0  0  0  0
   -7.8670    5.0890  -18.8970 C   0  0  0  0  0  0  0  0  0  0  0  0
   -6.7870    5.2600  -19.7200 O   0  0  0  0  0  0  0  0  0  0  0  0
   -5.5090    7.6110  -22.3810 C   0  0  0  0  0  0  0  0  0  0  0  0
   -6.2040    7.2710  -23.6780 C   0  0  0  0  0  0  0  0  0  0  0  0
   -6.5030    8.4590  -24.5340 C   0  0  0  0  0  0  0  0  0  0  0  0
   -6.0780    9.8150  -24.0070 C   0  0  0  0  0  0  0  0  0  0  0  0
   -6.3080   11.0530  -24.7660 C   0  0  0  0  0  0  0  0  0  0  0  0
   -5.9260   10.6660  -26.5040 S   0  0  0  0  0  0  0  0  0  0  0  0
   -7.2960    9.7560  -27.0220 C   0  0  0  0  0  0  0  0  0  0  0  0
   -7.3650    8.4780  -27.3480 N   0  0  0  0  0  0  0  0  0  0  0  0
   -8.6750    8.2510  -27.6820 C   0  0  0  0  0  0  0  0  0  0  0  0
   -9.3120    7.0710  -28.0960 C   0  0  0  0  0  0  0  0  0  0  0  0
  -10.6850    7.1090  -28.3720 C   0  0  0  0  0  0  0  0  0  0  0  0
  -11.4100    8.2950  -28.2400 C   0  0  0  0  0  0  0  0  0  0  0  0
  -10.7930    9.4830  -27.8310 C   0  0  0  0  0  0  0  0  0  0  0  0
   -9.4230    9.4150  -27.5620 C   0  0  0  0  0  0  0  0  0  0  0  0
   -8.5230   10.3580  -27.1440 N   0  0  0  0  0  0  0  0  0  0  0  0
   -5.4350    9.9700  -22.7710 C   0  0  0  0  0  0  0  0  0  0  0  0
   -5.1550    8.8890  -21.9680 C   0  0  0  0  0  0  0  0  0  0  0  0
   -4.9400    7.7060  -19.8140 H   0  0  0  0  0  0  0  0  0  0  0  0
   -3.7390    5.9320  -18.5710 H   0  0  0  0  0  0  0  0  0  0  0  0
   -4.0950    4.8730  -19.9490 H   0  0  0  0  0  0  0  0  0  0  0  0
   -7.8680    5.1880  -15.5080 H   0  0  0  0  0  0  0  0  0  0  0  0
  -10.4240    4.7180  -15.9150 H   0  0  0  0  0  0  0  0  0  0  0  0
  -11.2380    4.5080  -18.3670 H   0  0  0  0  0  0  0  0  0  0  0  0
   -9.4820    4.7590  -20.3100 H   0  0  0  0  0  0  0  0  0  0  0  0
   -6.4710    6.2660  -23.9800 H   0  0  0  0  0  0  0  0  0  0  0  0
   -7.0020    8.3390  -25.4870 H   0  0  0  0  0  0  0  0  0  0  0  0
   -7.2810   11.5310  -24.7150 H   0  0  0  0  0  0  0  0  0  0  0  0
   -5.5870   11.7990  -24.4050 H   0  0  0  0  0  0  0  0  0  0  0  0
   -8.7420    6.1520  -28.1960 H   0  0  0  0  0  0  0  0  0  0  0  0
  -11.1860    6.1990  -28.6930 H   0  0  0  0  0  0  0  0  0  0  0  0
  -12.4770    8.3000  -28.4590 H   0  0  0  0  0  0  0  0  0  0  0  0
  -11.3600   10.4040  -27.7310 H   0  0  0  0  0  0  0  0  0  0  0  0
   -8.7140   11.3290  -26.9530 H   0  0  0  0  0  0  0  0  0  0  0  0
   -5.1460   10.9630  -22.4310 H   0  0  0  0  0  0  0  0  0  0  0  0
   -4.6560    9.0380  -21.0130 H   0  0  0  0  0  0  0  0  0  0  0  0
  1  2  2  0
  2  3  1  0
  3  4  1  0
  4  5  1  0
  5  6  2  0
  6  7  1  0
  7  8  2  0
  8  9  1  0
  9 10  2  0
 10 11  1  0
 11 12  2  0
 12 13  1  0
  2 14  1  0
 14 15  2  0
 15 16  1  0
 16 17  2  0
 17 18  1  0
 18 19  1  0
 19 20  1  0
 20 21  2  0
 21 22  1  0
 22 23  2  0
 23 24  1  0
 24 25  2  0
 25 26  1  0
 26 27  2  0
 27 28  1  0
 17 29  1  0
 29 30  2  0
 13  5  1  0
 12  7  1  0
 30 14  1  0
 28 20  1  0
 27 22  1  0
  3 31  1  0
  4 32  1  0
  4 33  1  0
  8 34  1  0
  9 35  1  0
 10 36  1  0
 11 37  1  0
 15 38  1  0
 16 39  1  0
 18 40  1  0
 18 41  1  0
 23 42  1  0
 24 43  1  0
 25 44  1  0
 26 45  1  0
 28 46  1  0
 29 47  1  0
 30 48  1  0
A    1
 O1 
A    2
 C1 
A    3
 N1 
A    4
 C2 
A    5
 C3 
A    6
 N2 
A    7
 C4 
A    8
 C5 
A    9
 C6 
A   10
 C7 
A   11
 C8 
A   12
 C9 
A   13
 O2 
A   14
 C10
A   15
 C11
A   16
 C12
A   17
 C13
A   18
 C14
A   19
 S1 
A   20
 C15
A   21
 N3 
A   22
 C16
A   23
 C17
A   24
 C18
A   25
 C19
A   26
 C20
A   27
 C21
A   28
 N4 
A   29
 C22
A   30
 C23
A   31
 H1 
A   32
 H2 
A   33
 H3 
A   34
 H4 
A   35
 H5 
A   36
 H6 
A   37
 H7 
A   38
 H8 
A   39
 H9 
A   40
 H10
A   41
 H11
A   42
 H12
A   43
 H13
A   44
 H14
A   45
 H15
A   46
 H16
A   47
 H17
A   48
 H18
M  END
>  <ref_pdb>  (314) 
x0051_0B

>  <ref_mols>  (314) 
x0846_1B,x0490_0B

>  <original SMILES>  (314) 
[H]c1c([H])c(C([H])([H])Sc2nc3c([H])c([H])c([H])c([H])c3n2[H])c([H])c([H])c1C(=O)N([H])C([H])([H])c1nc2c([H])c([H])c([H])c([H])c2o1

>  <index>  (314) 
958

>  <∆∆G>  (314) 
-8.585934

>  <∆G_bound>  (314) 
-8.026547

>  <∆G_unbound>  (314) 
0.559387

>  <comRMSD>  (314) 
0.652579

>  <N_constrained_atoms>  (314) 
27.0

>  <N_unconstrained_atoms>  (314) 
3.0

>  <runtime>  (314) 
66.993561

>  <LE>  (314) 
0.286198

>  <percent_hybrid>  (314) 
34.0

>  <dist>  (314) 
8.0

>  <ecfp4>  (314) 
0.227273

>  <daylight>  (314) 
0.270677

>  <topodist>  (314) 
5.0

>  <mces>  (314) 
32.0

>  <tdn>  (314) 
3.0

>  <tup>  (314) 
1.0

>  <rdn>  (314) 
0.0

>  <rup>  (314) 
0.0

>  <ldn>  (314) 
0.0

>  <lup>  (314) 
1.0

>  <mut>  (314) 
3.0

>  <maj>  (314) 
3.0

>  <min>  (314) 
0.0

>  <hyb>  (314) 
0.0

>  <sub>  (314) 
1.0

>  <query_index>  (314) 
51.0

>  <max_hit_Tanimoto>  (314) 
0.259851

>  <largest_ring>  (314) 
6

>  <N_interactions_kept>  (314) 
0.0

>  <N_interactions_lost>  (314) 
3.0

>  <interaction_uniqueness_metric>  (314) 
0.206565

>  <ad_hoc_penalty>  (314) 
-15.958959

>  <N_rotatable_bonds>  (314) 
6

>  <N_HA>  (314) 
30

>  <cluster>  (314) 
5340

>  <N_interactions>  (314) 
7

>  <Enamine>  (314) 
1

>  <Mcule>  (314) 
0

>  <N_PAINS>  (314) 
0

>  <UFF_Gibbs>  (314) 
152.69954

>  <strain_per_HA>  (314) 
5.089985

>  <intxn_scored>  (314) 
8.5

>  <saltbridge:HIS:51>  (314) 
0

>  <pistack:HIS:51>  (314) 
0

>  <hydroph_interaction:HIS:51>  (314) 
0

>  <hbond:ALA:132>  (314) 
0

>  <hbond:SER:135>  (314) 
0

>  <hydroph_interaction:TYR:150>  (314) 
1

>  <pistack:TYR:161>  (314) 
1

>  <hydroph_interaction:TYR:161>  (314) 
1

>  <hydroph_interaction:ASP:83>  (314) 
0

>  <hbond:TYR:130>  (314) 
1

>  <hydroph_interaction:ALA:132>  (314) 
0

>  <hbond:HIS:51>  (314) 
0

>  <hbond:ASP:129>  (314) 
1

>  <hbond:TYR:150>  (314) 
0

>  <hbond:GLY:151>  (314) 
0

>  <hbond:TYR:161>  (314) 
0

>  <hydroph_interaction:TYR:130>  (314) 
1

>  <hydroph_interaction:PRO:131>  (314) 
1

>  <hydroph_interaction:ASP:129>  (314) 
0

>  <saltbridge:ASP:75>  (314) 
0

>  <saltbridge:ASP:83>  (314) 
0

>  <hbond:ASN:152>  (314) 
0

>  <hydroph_interaction:ASN:152>  (314) 
0

>  <halogenbond:TYR:150>  (314) 
0

>  <hbond:ASP:83>  (314) 
0

>  <hydroph_interaction:VAL:155>  (314) 
0

>  <pication:TYR:161>  (314) 
0

>  <hbond:PRO:131>  (314) 
0

>  <saltbridge:ASP:129>  (314) 
0

>  <hbond:THR:134>  (314) 
0

>  <pication:HIS:51>  (314) 
0

>  <hbond:SER:81>  (314) 
0

>  <hydroph_interaction:THR:134>  (314) 
0

>  <hydroph_interaction:MET:49>  (314) 
0

$$$$
Z645739484
     RDKit          3D

 33 35  0  0  0  0  0  0  0  0999 V2000
   -4.6610    7.1960  -21.3450 F   0  0  0  0  0  0  0  0  0  0  0  0
   -4.8410    5.8660  -21.0770 C   0  0  0  0  0  0  0  0  0  0  0  0
   -5.3430    5.3300  -22.2240 F   0  0  0  0  0  0  0  0  0  0  0  0
   -3.5900    5.3480  -20.9310 F   0  0  0  0  0  0  0  0  0  0  0  0
   -5.7320    5.6560  -19.8580 C   0  0  0  0  0  0  0  0  0  0  0  0
   -5.0590    5.7740  -18.5300 C   0  0  0  0  0  0  0  0  0  0  0  0
   -5.8420    5.5980  -17.3970 C   0  0  0  0  0  0  0  0  0  0  0  0
   -5.1900    5.7030  -16.0870 N   0  0  0  0  0  0  0  0  0  0  0  0
   -5.2530    7.0810  -15.5970 C   0  0  0  0  0  0  0  0  0  0  0  0
   -4.2890    7.3440  -14.6340 C   0  0  0  0  0  0  0  0  0  0  0  0
   -3.9300    5.8580  -13.6310 S   0  0  0  0  0  0  0  0  0  0  0  0
   -3.3370    4.7250  -14.9380 C   0  0  0  0  0  0  0  0  0  0  0  0
   -3.8350    5.1120  -16.1810 C   0  0  0  0  0  0  0  0  0  0  0  0
   -7.2410    5.3200  -17.5430 C   0  0  0  0  0  0  0  0  0  0  0  0
   -8.1390    5.1350  -16.3200 C   0  0  0  0  0  0  0  0  0  0  0  0
   -9.4840    4.8670  -16.5720 C   0  0  0  0  0  0  0  0  0  0  0  0
   -9.9370    4.7760  -17.8710 C   0  0  0  0  0  0  0  0  0  0  0  0
   -9.1600    4.9340  -18.9850 C   0  0  0  0  0  0  0  0  0  0  0  0
   -7.8120    5.2130  -18.8570 C   0  0  0  0  0  0  0  0  0  0  0  0
   -7.1200    5.3670  -19.9980 N   0  0  0  0  0  0  0  0  0  0  0  0
   -3.9980    5.9890  -18.4670 H   0  0  0  0  0  0  0  0  0  0  0  0
   -6.2480    7.3220  -15.1990 H   0  0  0  0  0  0  0  0  0  0  0  0
   -5.1090    7.7520  -16.4540 H   0  0  0  0  0  0  0  0  0  0  0  0
   -4.6850    8.0930  -13.9430 H   0  0  0  0  0  0  0  0  0  0  0  0
   -3.3280    7.7250  -14.9730 H   0  0  0  0  0  0  0  0  0  0  0  0
   -2.2670    4.6240  -14.7860 H   0  0  0  0  0  0  0  0  0  0  0  0
   -3.7610    3.7450  -14.6990 H   0  0  0  0  0  0  0  0  0  0  0  0
   -3.8220    4.2620  -16.8720 H   0  0  0  0  0  0  0  0  0  0  0  0
   -3.1500    5.8640  -16.5980 H   0  0  0  0  0  0  0  0  0  0  0  0
   -7.7570    5.2080  -15.3040 H   0  0  0  0  0  0  0  0  0  0  0  0
  -10.1730    4.7260  -15.7420 H   0  0  0  0  0  0  0  0  0  0  0  0
  -10.9900    4.5640  -18.0310 H   0  0  0  0  0  0  0  0  0  0  0  0
   -9.6000    4.8490  -19.9770 H   0  0  0  0  0  0  0  0  0  0  0  0
  1  2  1  0
  2  3  1  0
  2  4  1  0
  2  5  1  0
  5  6  2  0
  6  7  1  0
  7  8  1  0
  8  9  1  0
  9 10  1  0
 10 11  1  0
 11 12  1  0
 12 13  1  0
  7 14  2  0
 14 15  1  0
 15 16  2  0
 16 17  1  0
 17 18  2  0
 18 19  1  0
 19 20  2  0
 20  5  1  0
 13  8  1  0
 19 14  1  0
  6 21  1  0
  9 22  1  0
  9 23  1  0
 10 24  1  0
 10 25  1  0
 12 26  1  0
 12 27  1  0
 13 28  1  0
 13 29  1  0
 15 30  1  0
 16 31  1  0
 17 32  1  0
 18 33  1  0
A    1
 F1 
A    2
 C1 
A    3
 F2 
A    4
 F3 
A    5
 C2 
A    6
 C3 
A    7
 C4 
A    8
 N1 
A    9
 C5 
A   10
 C6 
A   11
 S1 
A   12
 C7 
A   13
 C8 
A   14
 C9 
A   15
 C10
A   16
 C11
A   17
 C12
A   18
 C13
A   19
 C14
A   20
 N2 
A   21
 H1 
A   22
 H2 
A   23
 H3 
A   24
 H4 
A   25
 H5 
A   26
 H6 
A   27
 H7 
A   28
 H8 
A   29
 H9 
A   30
 H10
A   31
 H11
A   32
 H12
A   33
 H13
M  END
>  <ref_pdb>  (315) 
x0051_0B

>  <ref_mols>  (315) 
x0101_0B,x0429_0B

>  <original SMILES>  (315) 
[H]c1c([H])c([H])c2c(N3C([H])([H])C([H])([H])SC([H])([H])C3([H])[H])c([H])c(C(F)(F)F)nc2c1[H]

>  <index>  (315) 
2479

>  <∆∆G>  (315) 
-5.66366

>  <∆G_bound>  (315) 
-5.082804

>  <∆G_unbound>  (315) 
0.580857

>  <comRMSD>  (315) 
0.473085

>  <N_constrained_atoms>  (315) 
22.0

>  <N_unconstrained_atoms>  (315) 
0.0

>  <runtime>  (315) 
21.256415

>  <LE>  (315) 
0.257439

>  <percent_hybrid>  (315) 
43.0

>  <dist>  (315) 
6.0

>  <ecfp4>  (315) 
0.28125

>  <daylight>  (315) 
0.466667

>  <topodist>  (315) 
2.0

>  <mces>  (315) 
22.0

>  <tdn>  (315) 
2.0

>  <tup>  (315) 
0.0

>  <rdn>  (315) 
0.0

>  <rup>  (315) 
0.0

>  <ldn>  (315) 
0.0

>  <lup>  (315) 
0.0

>  <mut>  (315) 
4.0

>  <maj>  (315) 
4.0

>  <min>  (315) 
0.0

>  <hyb>  (315) 
0.0

>  <sub>  (315) 
1.0

>  <query_index>  (315) 
278.0

>  <max_hit_Tanimoto>  (315) 
0.573239

>  <largest_ring>  (315) 
6

>  <N_interactions_kept>  (315) 
1.5

>  <N_interactions_lost>  (315) 
2.5

>  <interaction_uniqueness_metric>  (315) 
0.034019

>  <ad_hoc_penalty>  (315) 
-6.142172

>  <N_rotatable_bonds>  (315) 
1

>  <N_HA>  (315) 
20

>  <cluster>  (315) 
3938

>  <N_interactions>  (315) 
3

>  <Enamine>  (315) 
1

>  <Mcule>  (315) 
0

>  <N_PAINS>  (315) 
0

>  <UFF_Gibbs>  (315) 
70.048706

>  <strain_per_HA>  (315) 
3.502435

>  <intxn_scored>  (315) 
8.5

>  <saltbridge:HIS:51>  (315) 
0

>  <pistack:HIS:51>  (315) 
0

>  <hydroph_interaction:HIS:51>  (315) 
0

>  <hbond:ALA:132>  (315) 
0

>  <hbond:SER:135>  (315) 
0

>  <hydroph_interaction:TYR:150>  (315) 
1

>  <pistack:TYR:161>  (315) 
2

>  <hydroph_interaction:TYR:161>  (315) 
0

>  <hydroph_interaction:ASP:83>  (315) 
0

>  <hbond:TYR:130>  (315) 
0

>  <hydroph_interaction:ALA:132>  (315) 
0

>  <hbond:HIS:51>  (315) 
0

>  <hbond:ASP:129>  (315) 
0

>  <hbond:TYR:150>  (315) 
0

>  <hbond:GLY:151>  (315) 
0

>  <hbond:TYR:161>  (315) 
0

>  <hydroph_interaction:TYR:130>  (315) 
0

>  <hydroph_interaction:PRO:131>  (315) 
0

>  <hydroph_interaction:ASP:129>  (315) 
0

>  <saltbridge:ASP:75>  (315) 
0

>  <saltbridge:ASP:83>  (315) 
0

>  <hbond:ASN:152>  (315) 
0

>  <hydroph_interaction:ASN:152>  (315) 
0

>  <halogenbond:TYR:150>  (315) 
0

>  <hbond:ASP:83>  (315) 
0

>  <hydroph_interaction:VAL:155>  (315) 
0

>  <pication:TYR:161>  (315) 
0

>  <hbond:PRO:131>  (315) 
0

>  <saltbridge:ASP:129>  (315) 
0

>  <hbond:THR:134>  (315) 
0

>  <pication:HIS:51>  (315) 
0

>  <hbond:SER:81>  (315) 
0

>  <hydroph_interaction:THR:134>  (315) 
0

>  <hydroph_interaction:MET:49>  (315) 
0

$$$$
Z1783740204
     RDKit          3D

 57 60  0  0  0  0  0  0  0  0999 V2000
  -10.4050    4.5300  -18.3120 C   0  0  0  0  0  0  0  0  0  0  0  0
   -9.2050    5.0620  -17.6250 C   0  0  0  0  0  0  0  0  0  0  0  0
   -9.3330    5.6630  -16.2640 C   0  0  0  0  0  0  0  0  0  0  0  0
   -8.0240    6.1920  -15.7840 C   0  0  0  0  0  0  0  0  0  0  0  0
   -7.9570    6.8280  -14.5760 N   0  0  0  0  0  0  0  0  0  0  0  0
   -9.1490    7.7060  -13.9290 S   0  0  0  0  0  6  0  0  0  0  0  0
   -8.7110    9.0610  -13.6790 O   0  0  0  0  0  0  0  0  0  0  0  0
  -10.3220    7.3480  -14.6640 O   0  0  0  0  0  0  0  0  0  0  0  0
   -9.0790    6.7700  -12.4810 C   0  0  0  0  0  0  0  0  0  0  0  0
   -8.9650    7.4990  -11.1460 C   0  0  0  0  0  0  0  0  0  0  0  0
   -8.9020    6.5950   -9.9450 C   0  0  0  0  0  0  0  0  0  0  0  0
   -8.9540    5.1080  -10.1650 C   0  0  0  0  0  0  0  0  0  0  0  0
   -8.9080    4.3560   -8.8850 C   0  0  0  0  0  0  0  0  0  0  0  0
   -9.0620    2.8560   -9.2230 C   0  0  0  0  0  0  0  0  0  0  0  0
   -9.5060    2.3390   -7.8830 C   0  0  0  0  0  0  0  0  0  0  0  0
   -8.4430    2.7950   -6.8960 C   0  0  0  0  0  0  0  0  0  0  0  0
   -8.4730    4.1410   -6.6350 C   0  0  0  0  0  0  0  0  0  0  0  0
   -8.1450    4.7890   -7.8100 C   0  0  0  0  0  0  0  0  0  0  0  0
   -9.0520    4.5020  -11.4080 C   0  0  0  0  0  0  0  0  0  0  0  0
   -9.1180    5.3810  -12.6380 C   0  0  0  0  0  0  0  0  0  0  0  0
   -6.8550    6.1070  -16.4910 N   0  0  0  0  0  0  0  0  0  0  0  0
   -6.9240    5.5160  -17.7050 C   0  0  0  0  0  0  0  0  0  0  0  0
   -5.7170    5.3960  -18.5190 N   0  0  0  0  0  0  0  0  0  0  0  0
   -4.4990    5.8570  -17.8410 C   0  0  0  0  0  0  0  0  0  0  0  0
   -3.7970    6.7210  -18.6920 C   0  0  0  0  0  0  0  0  0  0  0  0
   -4.6190    7.6310  -19.4470 O   0  0  0  0  0  0  0  0  0  0  0  0
   -5.6790    7.0100  -20.2090 C   0  0  0  0  0  0  0  0  0  0  0  0
   -5.8350    5.6440  -19.9590 C   0  0  0  0  0  0  0  0  0  0  0  0
   -8.0420    5.0150  -18.2650 N   0  0  0  0  0  0  0  0  0  0  0  0
  -10.7070    5.2130  -19.1130 H   0  0  0  0  0  0  0  0  0  0  0  0
  -11.2390    4.4330  -17.6270 H   0  0  0  0  0  0  0  0  0  0  0  0
  -10.1890    3.5640  -18.7610 H   0  0  0  0  0  0  0  0  0  0  0  0
  -10.2640    5.7290  -15.7000 H   0  0  0  0  0  0  0  0  0  0  0  0
   -7.3600    6.3560  -13.9000 H   0  0  0  0  0  0  0  0  0  0  0  0
   -8.9360    8.5940  -11.1050 H   0  0  0  0  0  0  0  0  0  0  0  0
   -8.8250    7.0190   -8.9400 H   0  0  0  0  0  0  0  0  0  0  0  0
   -9.8740    4.5580   -8.4650 H   0  0  0  0  0  0  0  0  0  0  0  0
   -8.0970    2.4210   -9.5200 H   0  0  0  0  0  0  0  0  0  0  0  0
   -9.7940    2.6290  -10.0080 H   0  0  0  0  0  0  0  0  0  0  0  0
   -9.5760    1.2580   -7.9070 H   0  0  0  0  0  0  0  0  0  0  0  0
  -10.4970    2.7200   -7.6100 H   0  0  0  0  0  0  0  0  0  0  0  0
   -7.5490    2.7410   -7.4980 H   0  0  0  0  0  0  0  0  0  0  0  0
   -8.1850    2.1530   -6.0790 H   0  0  0  0  0  0  0  0  0  0  0  0
   -7.9440    4.4480   -5.7360 H   0  0  0  0  0  0  0  0  0  0  0  0
   -9.5200    4.3810   -6.4090 H   0  0  0  0  0  0  0  0  0  0  0  0
   -8.2620    5.8730   -7.6660 H   0  0  0  0  0  0  0  0  0  0  0  0
   -7.0790    4.6250   -8.0140 H   0  0  0  0  0  0  0  0  0  0  0  0
   -9.0860    3.4180  -11.5150 H   0  0  0  0  0  0  0  0  0  0  0  0
   -9.1950    4.9290  -13.6250 H   0  0  0  0  0  0  0  0  0  0  0  0
   -4.6840    6.3640  -16.8850 H   0  0  0  0  0  0  0  0  0  0  0  0
   -3.8680    4.9880  -17.6150 H   0  0  0  0  0  0  0  0  0  0  0  0
   -3.0880    7.3180  -18.1030 H   0  0  0  0  0  0  0  0  0  0  0  0
   -3.2090    6.1260  -19.4000 H   0  0  0  0  0  0  0  0  0  0  0  0
   -5.4010    7.1340  -21.2630 H   0  0  0  0  0  0  0  0  0  0  0  0
   -6.5580    7.6360  -20.0540 H   0  0  0  0  0  0  0  0  0  0  0  0
   -6.7510    5.1720  -20.3120 H   0  0  0  0  0  0  0  0  0  0  0  0
   -5.0060    5.1290  -20.4570 H   0  0  0  0  0  0  0  0  0  0  0  0
  1  2  1  0
  2  3  2  0
  3  4  1  0
  4  5  1  0
  5  6  1  0
  6  7  2  0
  6  8  2  0
  6  9  1  0
  9 10  2  0
 10 11  1  0
 11 12  2  0
 12 13  1  0
 13 14  1  0
 14 15  1  0
 15 16  1  0
 16 17  1  0
 17 18  1  0
 12 19  1  0
 19 20  2  0
  4 21  2  0
 21 22  1  0
 22 23  1  0
 23 24  1  0
 24 25  1  0
 25 26  1  0
 26 27  1  0
 27 28  1  0
 22 29  2  0
 29  2  1  0
 20  9  1  0
 18 13  1  0
 28 23  1  0
  1 30  1  0
  1 31  1  0
  1 32  1  0
  3 33  1  0
  5 34  1  0
 10 35  1  0
 11 36  1  0
 13 37  1  0
 14 38  1  0
 14 39  1  0
 15 40  1  0
 15 41  1  0
 16 42  1  0
 16 43  1  0
 17 44  1  0
 17 45  1  0
 18 46  1  0
 18 47  1  0
 19 48  1  0
 20 49  1  0
 24 50  1  0
 24 51  1  0
 25 52  1  0
 25 53  1  0
 27 54  1  0
 27 55  1  0
 28 56  1  0
 28 57  1  0
A    1
 C1 
A    2
 C2 
A    3
 C3 
A    4
 C4 
A    5
 N1 
A    6
 S1 
A    7
 O1 
A    8
 O2 
A    9
 C5 
A   10
 C6 
A   11
 C7 
A   12
 C8 
A   13
 C9 
A   14
 C10
A   15
 C11
A   16
 C12
A   17
 C13
A   18
 C14
A   19
 C15
A   20
 C16
A   21
 N2 
A   22
 C17
A   23
 N3 
A   24
 C18
A   25
 C19
A   26
 O3 
A   27
 C20
A   28
 C21
A   29
 N4 
A   30
 H1 
A   31
 H2 
A   32
 H3 
A   33
 H4 
A   34
 H5 
A   35
 H6 
A   36
 H7 
A   37
 H8 
A   38
 H9 
A   39
 H10
A   40
 H11
A   41
 H12
A   42
 H13
A   43
 H14
A   44
 H15
A   45
 H16
A   46
 H17
A   47
 H18
A   48
 H19
A   49
 H20
A   50
 H21
A   51
 H22
A   52
 H23
A   53
 H24
A   54
 H25
A   55
 H26
A   56
 H27
A   57
 H28
M  END
>  <ref_pdb>  (316) 
x0051_0B

>  <ref_mols>  (316) 
x0945_0B,x0404_0B

>  <original SMILES>  (316) 
[H]c1c(N([H])S(=O)(=O)c2c([H])c([H])c(C3([H])C([H])([H])C([H])([H])C([H])([H])C([H])([H])C3([H])[H])c([H])c2[H])nc(N2C([H])([H])C([H])([H])OC([H])([H])C2([H])[H])nc1C([H])([H])[H]

>  <index>  (316) 
462

>  <∆∆G>  (316) 
-6.40253

>  <∆G_bound>  (316) 
-5.759945

>  <∆G_unbound>  (316) 
0.642585

>  <comRMSD>  (316) 
0.849125

>  <N_constrained_atoms>  (316) 
30.0

>  <N_unconstrained_atoms>  (316) 
0.0

>  <runtime>  (316) 
114.004382

>  <LE>  (316) 
0.213418

>  <percent_hybrid>  (316) 
47.0

>  <dist>  (316) 
7.0

>  <ecfp4>  (316) 
0.272727

>  <daylight>  (316) 
0.222951

>  <topodist>  (316) 
2.0

>  <mces>  (316) 
32.0

>  <tdn>  (316) 
0.0

>  <tup>  (316) 
0.0

>  <rdn>  (316) 
0.0

>  <rup>  (316) 
0.0

>  <ldn>  (316) 
2.0

>  <lup>  (316) 
0.0

>  <mut>  (316) 
4.0

>  <maj>  (316) 
4.0

>  <min>  (316) 
0.0

>  <hyb>  (316) 
1.0

>  <sub>  (316) 
0.0

>  <query_index>  (316) 
9.0

>  <max_hit_Tanimoto>  (316) 
0.237899

>  <largest_ring>  (316) 
0

>  <N_interactions_kept>  (316) 
1.5

>  <N_interactions_lost>  (316) 
1.5

>  <interaction_uniqueness_metric>  (316) 
0.200558

>  <ad_hoc_penalty>  (316) 
-16.093282

>  <N_rotatable_bonds>  (316) 
6

>  <N_HA>  (316) 
29

>  <cluster>  (316) 
5798

>  <N_interactions>  (316) 
6

>  <Enamine>  (316) 
1

>  <Mcule>  (316) 
0

>  <N_PAINS>  (316) 
0

>  <UFF_Gibbs>  (316) 
300.537576

>  <strain_per_HA>  (316) 
10.363365

>  <intxn_scored>  (316) 
8.5

>  <saltbridge:HIS:51>  (316) 
0

>  <pistack:HIS:51>  (316) 
1

>  <hydroph_interaction:HIS:51>  (316) 
1

>  <hbond:ALA:132>  (316) 
0

>  <hbond:SER:135>  (316) 
0

>  <hydroph_interaction:TYR:150>  (316) 
1

>  <pistack:TYR:161>  (316) 
1

>  <hydroph_interaction:TYR:161>  (316) 
0

>  <hydroph_interaction:ASP:83>  (316) 
1

>  <hbond:TYR:130>  (316) 
0

>  <hydroph_interaction:ALA:132>  (316) 
1

>  <hbond:HIS:51>  (316) 
0

>  <hbond:ASP:129>  (316) 
0

>  <hbond:TYR:150>  (316) 
0

>  <hbond:GLY:151>  (316) 
0

>  <hbond:TYR:161>  (316) 
0

>  <hydroph_interaction:TYR:130>  (316) 
0

>  <hydroph_interaction:PRO:131>  (316) 
0

>  <hydroph_interaction:ASP:129>  (316) 
0

>  <saltbridge:ASP:75>  (316) 
0

>  <saltbridge:ASP:83>  (316) 
0

>  <hbond:ASN:152>  (316) 
0

>  <hydroph_interaction:ASN:152>  (316) 
0

>  <halogenbond:TYR:150>  (316) 
0

>  <hbond:ASP:83>  (316) 
0

>  <hydroph_interaction:VAL:155>  (316) 
0

>  <pication:TYR:161>  (316) 
0

>  <hbond:PRO:131>  (316) 
0

>  <saltbridge:ASP:129>  (316) 
0

>  <hbond:THR:134>  (316) 
0

>  <pication:HIS:51>  (316) 
0

>  <hbond:SER:81>  (316) 
0

>  <hydroph_interaction:THR:134>  (316) 
0

>  <hydroph_interaction:MET:49>  (316) 
0

$$$$
CSSB00011996300
     RDKit          3D

 24 26  0  0  0  0  0  0  0  0999 V2000
   -3.7920    6.0100  -17.2020 C   0  0  0  0  0  0  0  0  0  0  0  0
   -3.4080    5.4470  -18.5660 C   0  0  0  0  0  0  0  0  0  0  0  0
   -4.5160    5.6230  -19.4790 N   0  0  0  0  0  0  0  0  0  0  0  0
   -5.7640    5.4390  -19.0190 C   0  0  0  0  0  0  0  0  0  0  0  0
   -6.8450    5.2250  -19.7200 N   0  0  0  0  0  0  0  0  0  0  0  0
   -7.8470    5.1020  -18.7920 C   0  0  0  0  0  0  0  0  0  0  0  0
   -9.2110    4.8630  -18.9440 C   0  0  0  0  0  0  0  0  0  0  0  0
  -10.0970    4.7660  -17.8850 C   0  0  0  0  0  0  0  0  0  0  0  0
   -9.5780    4.9160  -16.6050 C   0  0  0  0  0  0  0  0  0  0  0  0
   -8.2130    5.1570  -16.3880 C   0  0  0  0  0  0  0  0  0  0  0  0
   -7.3570    5.2470  -17.4960 C   0  0  0  0  0  0  0  0  0  0  0  0
   -6.0230    5.4590  -17.6710 N   0  0  0  0  0  0  0  0  0  0  0  0
   -5.0200    5.6670  -16.6510 C   0  0  0  0  0  0  0  0  0  0  0  0
   -3.0170    5.7160  -16.4890 H   0  0  0  0  0  0  0  0  0  0  0  0
   -3.7680    7.1020  -17.2540 H   0  0  0  0  0  0  0  0  0  0  0  0
   -2.5380    5.9990  -18.9380 H   0  0  0  0  0  0  0  0  0  0  0  0
   -3.1130    4.3920  -18.5170 H   0  0  0  0  0  0  0  0  0  0  0  0
   -4.3630    5.3540  -20.4480 H   0  0  0  0  0  0  0  0  0  0  0  0
   -9.6000    4.7490  -19.9640 H   0  0  0  0  0  0  0  0  0  0  0  0
  -11.1560    4.5800  -18.0400 H   0  0  0  0  0  0  0  0  0  0  0  0
  -10.2500    4.8440  -15.7560 H   0  0  0  0  0  0  0  0  0  0  0  0
   -7.8350    5.2680  -15.3790 H   0  0  0  0  0  0  0  0  0  0  0  0
   -5.3910    6.4610  -16.0110 H   0  0  0  0  0  0  0  0  0  0  0  0
   -4.9350    4.7470  -16.0630 H   0  0  0  0  0  0  0  0  0  0  0  0
  1  2  1  0
  2  3  1  0
  3  4  1  0
  4  5  2  0
  5  6  1  0
  6  7  2  0
  7  8  1  0
  8  9  2  0
  9 10  1  0
 10 11  2  0
 11 12  1  0
 12 13  1  0
 13  1  1  0
 12  4  1  0
 11  6  1  0
  1 14  1  0
  1 15  1  0
  2 16  1  0
  2 17  1  0
  3 18  1  0
  7 19  1  0
  8 20  1  0
  9 21  1  0
 10 22  1  0
 13 23  1  0
 13 24  1  0
A    1
 C1 
A    2
 C2 
A    3
 N1 
A    4
 C3 
A    5
 N2 
A    6
 C4 
A    7
 C5 
A    8
 C6 
A    9
 C7 
A   10
 C8 
A   11
 C9 
A   12
 N3 
A   13
 C10
A   14
 H1 
A   15
 H2 
A   16
 H3 
A   17
 H4 
A   18
 H5 
A   19
 H6 
A   20
 H7 
A   21
 H8 
A   22
 H9 
A   23
 H10
A   24
 H11
M  END
>  <ref_pdb>  (317) 
x0051_0B

>  <ref_mols>  (317) 
x0089_0B,x0727_0B

>  <original SMILES>  (317) 
[H]c1c([H])c([H])c2c(nc3n2C([H])([H])C([H])([H])C([H])([H])N3[H])c1[H]

>  <index>  (317) 
3088

>  <∆∆G>  (317) 
-5.619337

>  <∆G_bound>  (317) 
-5.496884

>  <∆G_unbound>  (317) 
0.122453

>  <comRMSD>  (317) 
0.75512

>  <N_constrained_atoms>  (317) 
16.0

>  <N_unconstrained_atoms>  (317) 
0.0

>  <runtime>  (317) 
23.429919

>  <LE>  (317) 
0.351209

>  <percent_hybrid>  (317) 
43.0

>  <dist>  (317) 
3.0

>  <ecfp4>  (317) 
0.369565

>  <daylight>  (317) 
0.402878

>  <topodist>  (317) 
3.0

>  <mces>  (317) 
14.0

>  <tdn>  (317) 
1.0

>  <tup>  (317) 
0.0

>  <rdn>  (317) 
0.0

>  <rup>  (317) 
1.0

>  <ldn>  (317) 
1.0

>  <lup>  (317) 
0.0

>  <mut>  (317) 
0.0

>  <maj>  (317) 
0.0

>  <min>  (317) 
0.0

>  <hyb>  (317) 
0.0

>  <sub>  (317) 
3.0

>  <query_index>  (317) 
85.0

>  <max_hit_Tanimoto>  (317) 
0.417886

>  <largest_ring>  (317) 
6

>  <N_interactions_kept>  (317) 
0.0

>  <N_interactions_lost>  (317) 
4.0

>  <interaction_uniqueness_metric>  (317) 
0.066244

>  <ad_hoc_penalty>  (317) 
-4.341052

>  <N_rotatable_bonds>  (317) 
0

>  <N_HA>  (317) 
13

>  <cluster>  (317) 
3364

>  <N_interactions>  (317) 
5

>  <Enamine>  (317) 
1

>  <Mcule>  (317) 
0

>  <N_PAINS>  (317) 
0

>  <UFF_Gibbs>  (317) 
31.976439

>  <strain_per_HA>  (317) 
2.459726

>  <intxn_scored>  (317) 
8.5

>  <saltbridge:HIS:51>  (317) 
0

>  <pistack:HIS:51>  (317) 
0

>  <hydroph_interaction:HIS:51>  (317) 
0

>  <hbond:ALA:132>  (317) 
0

>  <hbond:SER:135>  (317) 
0

>  <hydroph_interaction:TYR:150>  (317) 
1

>  <pistack:TYR:161>  (317) 
1

>  <hydroph_interaction:TYR:161>  (317) 
2

>  <hydroph_interaction:ASP:83>  (317) 
0

>  <hbond:TYR:130>  (317) 
1

>  <hydroph_interaction:ALA:132>  (317) 
0

>  <hbond:HIS:51>  (317) 
0

>  <hbond:ASP:129>  (317) 
0

>  <hbond:TYR:150>  (317) 
0

>  <hbond:GLY:151>  (317) 
0

>  <hbond:TYR:161>  (317) 
0

>  <hydroph_interaction:TYR:130>  (317) 
0

>  <hydroph_interaction:PRO:131>  (317) 
0

>  <hydroph_interaction:ASP:129>  (317) 
0

>  <saltbridge:ASP:75>  (317) 
0

>  <saltbridge:ASP:83>  (317) 
0

>  <hbond:ASN:152>  (317) 
0

>  <hydroph_interaction:ASN:152>  (317) 
0

>  <halogenbond:TYR:150>  (317) 
0

>  <hbond:ASP:83>  (317) 
0

>  <hydroph_interaction:VAL:155>  (317) 
0

>  <pication:TYR:161>  (317) 
0

>  <hbond:PRO:131>  (317) 
0

>  <saltbridge:ASP:129>  (317) 
0

>  <hbond:THR:134>  (317) 
0

>  <pication:HIS:51>  (317) 
0

>  <hbond:SER:81>  (317) 
0

>  <hydroph_interaction:THR:134>  (317) 
0

>  <hydroph_interaction:MET:49>  (317) 
0

$$$$
CSSS00000075833
     RDKit          3D

 25 26  0  0  0  0  0  0  0  0999 V2000
   -4.4720    6.9120  -21.1630 C   0  0  0  0  0  0  0  0  0  0  0  0
   -4.5020    5.7070  -20.3790 N   0  0  0  0  0  0  0  0  0  0  0  0
   -5.4570    5.5130  -19.4040 C   0  0  0  0  0  0  0  0  0  0  0  0
   -6.7630    5.3710  -19.6890 N   0  0  0  0  0  0  0  0  0  0  0  0
   -7.6610    5.2090  -18.6930 C   0  0  0  0  0  0  0  0  0  0  0  0
   -8.9950    4.9140  -19.0140 C   0  0  0  0  0  0  0  0  0  0  0  0
   -9.9470    4.7530  -18.0250 C   0  0  0  0  0  0  0  0  0  0  0  0
   -9.5490    4.8930  -16.6000 C   0  0  0  0  0  0  0  0  0  0  0  0
   -8.2150    5.1820  -16.3000 C   0  0  0  0  0  0  0  0  0  0  0  0
   -7.2760    5.3380  -17.3280 C   0  0  0  0  0  0  0  0  0  0  0  0
   -5.9220    5.6270  -16.9970 N   0  0  0  0  0  0  0  0  0  0  0  0
   -5.4850    5.4170  -15.6410 C   0  0  0  0  0  0  0  0  0  0  0  0
   -4.9590    5.4710  -17.9640 C   0  0  0  0  0  0  0  0  0  0  0  0
   -3.7560    5.3050  -17.7740 O   0  0  0  0  0  0  0  0  0  0  0  0
   -5.2320    6.8590  -21.9510 H   0  0  0  0  0  0  0  0  0  0  0  0
   -3.4900    7.0490  -21.6240 H   0  0  0  0  0  0  0  0  0  0  0  0
   -4.6670    7.7930  -20.5430 H   0  0  0  0  0  0  0  0  0  0  0  0
   -3.6010    5.2740  -20.1710 H   0  0  0  0  0  0  0  0  0  0  0  0
   -9.2710    4.8140  -20.0630 H   0  0  0  0  0  0  0  0  0  0  0  0
  -10.9780    4.5270  -18.2920 H   0  0  0  0  0  0  0  0  0  0  0  0
  -10.2750    4.7700  -15.8020 H   0  0  0  0  0  0  0  0  0  0  0  0
   -7.9400    5.2770  -15.2540 H   0  0  0  0  0  0  0  0  0  0  0  0
   -6.1150    4.6880  -15.1210 H   0  0  0  0  0  0  0  0  0  0  0  0
   -5.5370    6.3630  -15.0930 H   0  0  0  0  0  0  0  0  0  0  0  0
   -4.4610    5.0320  -15.6450 H   0  0  0  0  0  0  0  0  0  0  0  0
  1  2  1  0
  2  3  1  0
  3  4  2  0
  4  5  1  0
  5  6  2  0
  6  7  1  0
  7  8  2  0
  8  9  1  0
  9 10  2  0
 10 11  1  0
 11 12  1  0
 11 13  1  0
 13 14  2  0
 13  3  1  0
 10  5  1  0
  1 15  1  0
  1 16  1  0
  1 17  1  0
  2 18  1  0
  6 19  1  0
  7 20  1  0
  8 21  1  0
  9 22  1  0
 12 23  1  0
 12 24  1  0
 12 25  1  0
A    1
 C1 
A    2
 N1 
A    3
 C2 
A    4
 N2 
A    5
 C3 
A    6
 C4 
A    7
 C5 
A    8
 C6 
A    9
 C7 
A   10
 C8 
A   11
 N3 
A   12
 C9 
A   13
 C10
A   14
 O1 
A   15
 H1 
A   16
 H2 
A   17
 H3 
A   18
 H4 
A   19
 H5 
A   20
 H6 
A   21
 H7 
A   22
 H8 
A   23
 H9 
A   24
 H10
A   25
 H11
M  END
>  <ref_pdb>  (318) 
x0051_0B

>  <ref_mols>  (318) 
x0229_0B,x0727_0B

>  <original SMILES>  (318) 
[H]c1c([H])c([H])c2c(nc(N([H])C([H])([H])[H])c(=O)n2C([H])([H])[H])c1[H]

>  <index>  (318) 
2254

>  <∆∆G>  (318) 
-5.90146

>  <∆G_bound>  (318) 
-5.991083

>  <∆G_unbound>  (318) 
-0.089623

>  <comRMSD>  (318) 
0.538783

>  <N_constrained_atoms>  (318) 
16.0

>  <N_unconstrained_atoms>  (318) 
0.0

>  <runtime>  (318) 
27.553478

>  <LE>  (318) 
0.368841

>  <percent_hybrid>  (318) 
34.0

>  <dist>  (318) 
6.0

>  <ecfp4>  (318) 
0.237288

>  <daylight>  (318) 
0.219731

>  <topodist>  (318) 
4.0

>  <mces>  (318) 
15.0

>  <tdn>  (318) 
2.0

>  <tup>  (318) 
0.0

>  <rdn>  (318) 
1.0

>  <rup>  (318) 
0.0

>  <ldn>  (318) 
1.0

>  <lup>  (318) 
0.0

>  <mut>  (318) 
1.0

>  <maj>  (318) 
1.0

>  <min>  (318) 
0.0

>  <hyb>  (318) 
1.0

>  <sub>  (318) 
1.0

>  <query_index>  (318) 
150.0

>  <max_hit_Tanimoto>  (318) 
0.205063

>  <largest_ring>  (318) 
6

>  <N_interactions_kept>  (318) 
1.5

>  <N_interactions_lost>  (318) 
2.0

>  <interaction_uniqueness_metric>  (318) 
0.034019

>  <ad_hoc_penalty>  (318) 
-4.358522

>  <N_rotatable_bonds>  (318) 
3

>  <N_HA>  (318) 
14

>  <cluster>  (318) 
4147

>  <N_interactions>  (318) 
3

>  <Enamine>  (318) 
1

>  <Mcule>  (318) 
0

>  <N_PAINS>  (318) 
0

>  <UFF_Gibbs>  (318) 
48.038302

>  <strain_per_HA>  (318) 
3.431307

>  <intxn_scored>  (318) 
8.5

>  <saltbridge:HIS:51>  (318) 
0

>  <pistack:HIS:51>  (318) 
0

>  <hydroph_interaction:HIS:51>  (318) 
0

>  <hbond:ALA:132>  (318) 
0

>  <hbond:SER:135>  (318) 
0

>  <hydroph_interaction:TYR:150>  (318) 
1

>  <pistack:TYR:161>  (318) 
2

>  <hydroph_interaction:TYR:161>  (318) 
0

>  <hydroph_interaction:ASP:83>  (318) 
0

>  <hbond:TYR:130>  (318) 
0

>  <hydroph_interaction:ALA:132>  (318) 
0

>  <hbond:HIS:51>  (318) 
0

>  <hbond:ASP:129>  (318) 
0

>  <hbond:TYR:150>  (318) 
0

>  <hbond:GLY:151>  (318) 
0

>  <hbond:TYR:161>  (318) 
0

>  <hydroph_interaction:TYR:130>  (318) 
0

>  <hydroph_interaction:PRO:131>  (318) 
0

>  <hydroph_interaction:ASP:129>  (318) 
0

>  <saltbridge:ASP:75>  (318) 
0

>  <saltbridge:ASP:83>  (318) 
0

>  <hbond:ASN:152>  (318) 
0

>  <hydroph_interaction:ASN:152>  (318) 
0

>  <halogenbond:TYR:150>  (318) 
0

>  <hbond:ASP:83>  (318) 
0

>  <hydroph_interaction:VAL:155>  (318) 
0

>  <pication:TYR:161>  (318) 
0

>  <hbond:PRO:131>  (318) 
0

>  <saltbridge:ASP:129>  (318) 
0

>  <hbond:THR:134>  (318) 
0

>  <pication:HIS:51>  (318) 
0

>  <hbond:SER:81>  (318) 
0

>  <hydroph_interaction:THR:134>  (318) 
0

>  <hydroph_interaction:MET:49>  (318) 
0

$$$$
Z4898034326
     RDKit          3D

 23 24  0  0  0  0  0  0  0  0999 V2000
   -9.7610    6.2780  -15.0560 C   0  0  0  0  0  0  0  0  0  0  0  0
   -9.3720    4.9780  -15.5540 N   0  0  0  0  0  0  0  0  0  0  0  0
   -8.6870    4.9880  -16.8500 C   0  0  0  0  0  0  0  0  0  0  0  0
   -9.5490    4.7770  -18.0960 C   0  0  0  0  0  0  0  0  0  0  0  0
   -9.0360    4.7670  -19.3930 C   0  0  0  0  0  0  0  0  0  0  0  0
   -7.5110    4.9750  -19.5460 C   0  0  0  0  0  0  0  0  0  0  0  0
   -6.8110    5.1570  -18.3550 C   0  0  0  0  0  0  0  0  0  0  0  0
   -7.3120    5.1730  -17.0680 C   0  0  0  0  0  0  0  0  0  0  0  0
   -6.2890    5.3820  -16.1740 C   0  0  0  0  0  0  0  0  0  0  0  0
   -6.4160    5.4930  -14.3010 Br  0  0  0  0  0  0  0  0  0  0  0  0
   -5.1540    5.4990  -16.8410 N   0  0  0  0  0  0  0  0  0  0  0  0
   -5.4700    5.3580  -18.1850 N   0  0  0  0  0  0  0  0  0  0  0  0
   -4.5010    5.4250  -19.1200 C   0  0  0  0  0  0  0  0  0  0  0  0
   -8.8890    6.8780  -14.7800 H   0  0  0  0  0  0  0  0  0  0  0  0
  -10.3830    6.1500  -14.1650 H   0  0  0  0  0  0  0  0  0  0  0  0
  -10.3330    6.8410  -15.7900 H   0  0  0  0  0  0  0  0  0  0  0  0
   -8.7810    4.5180  -14.8630 H   0  0  0  0  0  0  0  0  0  0  0  0
  -10.6260    4.6310  -17.9490 H   0  0  0  0  0  0  0  0  0  0  0  0
   -9.6700    4.6200  -20.2580 H   0  0  0  0  0  0  0  0  0  0  0  0
   -7.0320    4.9770  -20.5220 H   0  0  0  0  0  0  0  0  0  0  0  0
   -3.6230    4.8450  -18.8210 H   0  0  0  0  0  0  0  0  0  0  0  0
   -4.2220    6.4730  -19.2410 H   0  0  0  0  0  0  0  0  0  0  0  0
   -4.9080    5.0280  -20.0520 H   0  0  0  0  0  0  0  0  0  0  0  0
  1  2  1  0
  2  3  1  0
  3  4  2  0
  4  5  1  0
  5  6  2  0
  6  7  1  0
  7  8  2  0
  8  9  1  0
  9 10  1  0
  9 11  2  0
 11 12  1  0
 12 13  1  0
  8  3  1  0
 12  7  1  0
  1 14  1  0
  1 15  1  0
  1 16  1  0
  2 17  1  0
  4 18  1  0
  5 19  1  0
  6 20  1  0
 13 21  1  0
 13 22  1  0
 13 23  1  0
A    1
 C1 
A    2
 N1 
A    3
 C2 
A    4
 C3 
A    5
 C4 
A    6
 C5 
A    7
 C6 
A    8
 C7 
A    9
 C8 
A   10
BR1 
A   11
 N2 
A   12
 N3 
A   13
 C9 
A   14
 H1 
A   15
 H2 
A   16
 H3 
A   17
 H4 
A   18
 H5 
A   19
 H6 
A   20
 H7 
A   21
 H8 
A   22
 H9 
A   23
 H10
M  END
>  <ref_pdb>  (319) 
x0051_0B

>  <ref_mols>  (319) 
x0435_0B,x0680_0B

>  <original SMILES>  (319) 
[H]c1c([H])c([H])c2c(c(Br)nn2C([H])([H])[H])c1N([H])C([H])([H])[H]

>  <index>  (319) 
2490

>  <∆∆G>  (319) 
-7.150181

>  <∆G_bound>  (319) 
-7.285964

>  <∆G_unbound>  (319) 
-0.135783

>  <comRMSD>  (319) 
0.992513

>  <N_constrained_atoms>  (319) 
12.0

>  <N_unconstrained_atoms>  (319) 
3.0

>  <runtime>  (319) 
22.083006

>  <LE>  (319) 
0.476679

>  <percent_hybrid>  (319) 
40.0

>  <dist>  (319) 
2.0

>  <ecfp4>  (319) 
0.4

>  <daylight>  (319) 
0.477477

>  <topodist>  (319) 
1.0

>  <mces>  (319) 
13.0

>  <tdn>  (319) 
0.0

>  <tup>  (319) 
0.0

>  <rdn>  (319) 
0.0

>  <rup>  (319) 
0.0

>  <ldn>  (319) 
0.0

>  <lup>  (319) 
1.0

>  <mut>  (319) 
1.0

>  <maj>  (319) 
1.0

>  <min>  (319) 
0.0

>  <hyb>  (319) 
0.0

>  <sub>  (319) 
0.0

>  <query_index>  (319) 
141.0

>  <max_hit_Tanimoto>  (319) 
0.155422

>  <largest_ring>  (319) 
6

>  <N_interactions_kept>  (319) 
2.5

>  <N_interactions_lost>  (319) 
2.5

>  <interaction_uniqueness_metric>  (319) 
0.071443

>  <ad_hoc_penalty>  (319) 
-6.088697

>  <N_rotatable_bonds>  (319) 
3

>  <N_HA>  (319) 
13

>  <cluster>  (319) 
3927

>  <N_interactions>  (319) 
4

>  <Enamine>  (319) 
1

>  <Mcule>  (319) 
0

>  <N_PAINS>  (319) 
0

>  <UFF_Gibbs>  (319) 
49.99977

>  <strain_per_HA>  (319) 
3.846136

>  <intxn_scored>  (319) 
8.5

>  <saltbridge:HIS:51>  (319) 
0

>  <pistack:HIS:51>  (319) 
0

>  <hydroph_interaction:HIS:51>  (319) 
0

>  <hbond:ALA:132>  (319) 
0

>  <hbond:SER:135>  (319) 
0

>  <hydroph_interaction:TYR:150>  (319) 
1

>  <pistack:TYR:161>  (319) 
2

>  <hydroph_interaction:TYR:161>  (319) 
0

>  <hydroph_interaction:ASP:83>  (319) 
0

>  <hbond:TYR:130>  (319) 
0

>  <hydroph_interaction:ALA:132>  (319) 
0

>  <hbond:HIS:51>  (319) 
0

>  <hbond:ASP:129>  (319) 
0

>  <hbond:TYR:150>  (319) 
0

>  <hbond:GLY:151>  (319) 
1

>  <hbond:TYR:161>  (319) 
0

>  <hydroph_interaction:TYR:130>  (319) 
0

>  <hydroph_interaction:PRO:131>  (319) 
0

>  <hydroph_interaction:ASP:129>  (319) 
0

>  <saltbridge:ASP:75>  (319) 
0

>  <saltbridge:ASP:83>  (319) 
0

>  <hbond:ASN:152>  (319) 
0

>  <hydroph_interaction:ASN:152>  (319) 
0

>  <halogenbond:TYR:150>  (319) 
0

>  <hbond:ASP:83>  (319) 
0

>  <hydroph_interaction:VAL:155>  (319) 
0

>  <pication:TYR:161>  (319) 
0

>  <hbond:PRO:131>  (319) 
0

>  <saltbridge:ASP:129>  (319) 
0

>  <hbond:THR:134>  (319) 
0

>  <pication:HIS:51>  (319) 
0

>  <hbond:SER:81>  (319) 
0

>  <hydroph_interaction:THR:134>  (319) 
0

>  <hydroph_interaction:MET:49>  (319) 
0

$$$$
CSSS00009816732
     RDKit          3D

 18 19  0  0  0  0  0  0  0  0999 V2000
  -10.9520    4.9340  -18.6330 C   0  0  0  0  0  0  0  0  0  0  0  0
   -9.5410    4.9790  -18.1150 C   0  0  0  0  0  0  0  0  0  0  0  0
   -9.3200    4.9900  -16.5830 C   0  0  0  0  0  0  0  0  0  0  0  0
   -7.8590    5.0890  -16.2090 C   0  0  0  0  0  0  0  0  0  0  0  0
   -7.2920    5.1310  -14.4070 Br  0  0  0  0  0  0  0  0  0  0  0  0
   -6.9900    5.1510  -17.2770 C   0  0  0  0  0  0  0  0  0  0  0  0
   -5.5930    5.2590  -17.0300 N   0  0  0  0  0  0  0  0  0  0  0  0
   -4.9340    5.3030  -18.2100 N   0  0  0  0  0  0  0  0  0  0  0  0
   -5.9120    5.2240  -19.1500 C   0  0  0  0  0  0  0  0  0  0  0  0
   -7.2150    5.1300  -18.6130 C   0  0  0  0  0  0  0  0  0  0  0  0
   -8.5030    5.0380  -19.0530 C   0  0  0  0  0  0  0  0  0  0  0  0
  -11.4290    3.9750  -18.5350 H   0  0  0  0  0  0  0  0  0  0  0  0
  -10.9620    5.2640  -19.6710 H   0  0  0  0  0  0  0  0  0  0  0  0
  -11.5490    5.6720  -18.1390 H   0  0  0  0  0  0  0  0  0  0  0  0
  -10.0910    4.9420  -15.8240 H   0  0  0  0  0  0  0  0  0  0  0  0
   -5.0860    5.3020  -16.1430 H   0  0  0  0  0  0  0  0  0  0  0  0
   -5.6290    5.2400  -20.1940 H   0  0  0  0  0  0  0  0  0  0  0  0
   -8.7230    5.0220  -20.1180 H   0  0  0  0  0  0  0  0  0  0  0  0
  1  2  1  0
  2  3  2  0
  3  4  1  0
  4  5  1  0
  4  6  2  0
  6  7  1  0
  7  8  1  0
  8  9  2  0
  9 10  1  0
 10 11  2  0
 11  2  1  0
 10  6  1  0
  1 12  1  0
  1 13  1  0
  1 14  1  0
  3 15  1  0
  7 16  1  0
  9 17  1  0
 11 18  1  0
A    1
 C1 
A    2
 C2 
A    3
 C3 
A    4
 C4 
A    5
BR1 
A    6
 C5 
A    7
 N1 
A    8
 N2 
A    9
 C6 
A   10
 C7 
A   11
 C8 
A   12
 H1 
A   13
 H2 
A   14
 H3 
A   15
 H4 
A   16
 H5 
A   17
 H6 
A   18
 H7 
M  END
>  <ref_pdb>  (320) 
x0051_0B

>  <ref_mols>  (320) 
x0435_0B,x0605_0B

>  <original SMILES>  (320) 
[H]c1c(C([H])([H])[H])c([H])c2c([H])nn([H])c2c1Br

>  <index>  (320) 
2482

>  <∆∆G>  (320) 
-6.466562

>  <∆G_bound>  (320) 
-6.448459

>  <∆G_unbound>  (320) 
0.018103

>  <comRMSD>  (320) 
0.749426

>  <N_constrained_atoms>  (320) 
12.0

>  <N_unconstrained_atoms>  (320) 
0.0

>  <runtime>  (320) 
30.035154

>  <LE>  (320) 
0.53888

>  <percent_hybrid>  (320) 
40.0

>  <dist>  (320) 
4.0

>  <ecfp4>  (320) 
0.056604

>  <daylight>  (320) 
0.269565

>  <topodist>  (320) 
1.0

>  <mces>  (320) 
12.0

>  <tdn>  (320) 
1.0

>  <tup>  (320) 
0.0

>  <rdn>  (320) 
0.0

>  <rup>  (320) 
0.0

>  <ldn>  (320) 
0.0

>  <lup>  (320) 
0.0

>  <mut>  (320) 
2.0

>  <maj>  (320) 
2.0

>  <min>  (320) 
0.0

>  <hyb>  (320) 
1.0

>  <sub>  (320) 
1.0

>  <query_index>  (320) 
211.0

>  <max_hit_Tanimoto>  (320) 
0.135008

>  <largest_ring>  (320) 
6

>  <N_interactions_kept>  (320) 
1.0

>  <N_interactions_lost>  (320) 
2.5

>  <interaction_uniqueness_metric>  (320) 
0.034019

>  <ad_hoc_penalty>  (320) 
-5.931939

>  <N_rotatable_bonds>  (320) 
1

>  <N_HA>  (320) 
11

>  <cluster>  (320) 
3935

>  <N_interactions>  (320) 
3

>  <Enamine>  (320) 
1

>  <Mcule>  (320) 
0

>  <N_PAINS>  (320) 
0

>  <UFF_Gibbs>  (320) 
40.514572

>  <strain_per_HA>  (320) 
3.683143

>  <intxn_scored>  (320) 
8.5

>  <saltbridge:HIS:51>  (320) 
0

>  <pistack:HIS:51>  (320) 
0

>  <hydroph_interaction:HIS:51>  (320) 
0

>  <hbond:ALA:132>  (320) 
0

>  <hbond:SER:135>  (320) 
0

>  <hydroph_interaction:TYR:150>  (320) 
1

>  <pistack:TYR:161>  (320) 
2

>  <hydroph_interaction:TYR:161>  (320) 
0

>  <hydroph_interaction:ASP:83>  (320) 
0

>  <hbond:TYR:130>  (320) 
0

>  <hydroph_interaction:ALA:132>  (320) 
0

>  <hbond:HIS:51>  (320) 
0

>  <hbond:ASP:129>  (320) 
0

>  <hbond:TYR:150>  (320) 
0

>  <hbond:GLY:151>  (320) 
0

>  <hbond:TYR:161>  (320) 
0

>  <hydroph_interaction:TYR:130>  (320) 
0

>  <hydroph_interaction:PRO:131>  (320) 
0

>  <hydroph_interaction:ASP:129>  (320) 
0

>  <saltbridge:ASP:75>  (320) 
0

>  <saltbridge:ASP:83>  (320) 
0

>  <hbond:ASN:152>  (320) 
0

>  <hydroph_interaction:ASN:152>  (320) 
0

>  <halogenbond:TYR:150>  (320) 
0

>  <hbond:ASP:83>  (320) 
0

>  <hydroph_interaction:VAL:155>  (320) 
0

>  <pication:TYR:161>  (320) 
0

>  <hbond:PRO:131>  (320) 
0

>  <saltbridge:ASP:129>  (320) 
0

>  <hbond:THR:134>  (320) 
0

>  <pication:HIS:51>  (320) 
0

>  <hbond:SER:81>  (320) 
0

>  <hydroph_interaction:THR:134>  (320) 
0

>  <hydroph_interaction:MET:49>  (320) 
0

$$$$
CSSB00010426598
     RDKit          3D

 28 30  0  0  0  0  0  0  0  0999 V2000
   -3.1450    5.4610  -15.4760 O   0  0  0  0  0  0  0  0  0  0  0  0
   -4.1740    6.1350  -15.4480 C   0  0  0  0  0  0  0  0  0  0  0  0
   -4.1010    7.3260  -15.1840 O   0  0  0  0  0  0  0  0  0  0  0  0
   -5.4230    5.2930  -15.7650 C   0  0  0  0  0  0  0  0  0  0  0  0
   -6.5150    5.5950  -14.8180 C   0  0  0  0  0  0  0  0  0  0  0  0
   -7.8120    5.1080  -15.1370 C   0  0  0  0  0  0  0  0  0  0  0  0
   -8.2110    5.0480  -16.4820 C   0  0  0  0  0  0  0  0  0  0  0  0
   -9.5440    4.8940  -16.7040 C   0  0  0  0  0  0  0  0  0  0  0  0
   -9.9320    4.8430  -17.9820 C   0  0  0  0  0  0  0  0  0  0  0  0
   -9.1050    4.9370  -19.0940 C   0  0  0  0  0  0  0  0  0  0  0  0
   -7.7360    5.0970  -18.8520 C   0  0  0  0  0  0  0  0  0  0  0  0
   -6.7930    5.2070  -19.8570 C   0  0  0  0  0  0  0  0  0  0  0  0
   -5.4410    5.3580  -19.5930 C   0  0  0  0  0  0  0  0  0  0  0  0
   -4.9670    5.3980  -18.2860 C   0  0  0  0  0  0  0  0  0  0  0  0
   -5.8860    5.2860  -17.2280 C   0  0  0  0  0  0  0  0  0  0  0  0
   -7.2720    5.1460  -17.5150 C   0  0  0  0  0  0  0  0  0  0  0  0
   -2.4610    6.0620  -15.1070 H   0  0  0  0  0  0  0  0  0  0  0  0
   -5.1120    4.2600  -15.5830 H   0  0  0  0  0  0  0  0  0  0  0  0
   -6.2500    5.1210  -13.8650 H   0  0  0  0  0  0  0  0  0  0  0  0
   -6.4680    6.6630  -14.5830 H   0  0  0  0  0  0  0  0  0  0  0  0
   -8.5570    5.6680  -14.5770 H   0  0  0  0  0  0  0  0  0  0  0  0
   -7.9570    4.1380  -14.6740 H   0  0  0  0  0  0  0  0  0  0  0  0
  -10.2600    4.8160  -15.8920 H   0  0  0  0  0  0  0  0  0  0  0  0
  -11.0060    4.7180  -18.1690 H   0  0  0  0  0  0  0  0  0  0  0  0
   -9.5140    4.8900  -20.1030 H   0  0  0  0  0  0  0  0  0  0  0  0
   -7.1270    5.1710  -20.8970 H   0  0  0  0  0  0  0  0  0  0  0  0
   -4.8110    5.4340  -20.4840 H   0  0  0  0  0  0  0  0  0  0  0  0
   -3.8980    5.5090  -18.1170 H   0  0  0  0  0  0  0  0  0  0  0  0
  1  2  1  0
  2  3  2  0
  2  4  1  0
  4  5  1  0
  5  6  1  0
  6  7  1  0
  7  8  1  0
  8  9  2  0
  9 10  1  0
 10 11  2  0
 11 12  1  0
 12 13  2  0
 13 14  1  0
 14 15  2  0
 15 16  1  0
 15  4  1  0
 16  7  2  0
 16 11  1  0
  1 17  1  0
  4 18  1  0
  5 19  1  0
  5 20  1  0
  6 21  1  0
  6 22  1  0
  8 23  1  0
  9 24  1  0
 10 25  1  0
 12 26  1  0
 13 27  1  0
 14 28  1  0
A    1
 O1 
A    2
 C1 
A    3
 O2 
A    4
 C2 
A    5
 C3 
A    6
 C4 
A    7
 C5 
A    8
 C6 
A    9
 C7 
A   10
 C8 
A   11
 C9 
A   12
 C10
A   13
 C11
A   14
 C12
A   15
 C13
A   16
 C14
A   17
 H1 
A   18
 H2 
A   19
 H3 
A   20
 H4 
A   21
 H5 
A   22
 H6 
A   23
 H7 
A   24
 H8 
A   25
 H9 
A   26
 H10
A   27
 H11
A   28
 H12
M  END
>  <ref_pdb>  (321) 
x0051_0B

>  <ref_mols>  (321) 
x0727_0B,x0455_0B

>  <original SMILES>  (321) 
[H]OC(=O)C1([H])c2c([H])c([H])c([H])c3c([H])c([H])c([H])c(c23)C([H])([H])C1([H])[H]

>  <index>  (321) 
696

>  <∆∆G>  (321) 
-7.320766

>  <∆G_bound>  (321) 
-6.950455

>  <∆G_unbound>  (321) 
0.370312

>  <comRMSD>  (321) 
0.394493

>  <N_constrained_atoms>  (321) 
14.0

>  <N_unconstrained_atoms>  (321) 
2.0

>  <runtime>  (321) 
33.804008

>  <LE>  (321) 
0.457548

>  <percent_hybrid>  (321) 
34.0

>  <dist>  (321) 
4.0

>  <ecfp4>  (321) 
0.340426

>  <daylight>  (321) 
0.330357

>  <topodist>  (321) 
2.0

>  <mces>  (321) 
16.0

>  <tdn>  (321) 
0.0

>  <tup>  (321) 
2.0

>  <rdn>  (321) 
0.0

>  <rup>  (321) 
0.0

>  <ldn>  (321) 
0.0

>  <lup>  (321) 
0.0

>  <mut>  (321) 
1.0

>  <maj>  (321) 
1.0

>  <min>  (321) 
0.0

>  <hyb>  (321) 
1.0

>  <sub>  (321) 
0.0

>  <query_index>  (321) 
57.0

>  <max_hit_Tanimoto>  (321) 
0.166149

>  <largest_ring>  (321) 
6

>  <N_interactions_kept>  (321) 
0.0

>  <N_interactions_lost>  (321) 
3.0

>  <interaction_uniqueness_metric>  (321) 
0.047384

>  <ad_hoc_penalty>  (321) 
-17.674924

>  <N_rotatable_bonds>  (321) 
1

>  <N_HA>  (321) 
16

>  <cluster>  (321) 
5580

>  <N_interactions>  (321) 
6

>  <Enamine>  (321) 
1

>  <Mcule>  (321) 
0

>  <N_PAINS>  (321) 
0

>  <UFF_Gibbs>  (321) 
67.219246

>  <strain_per_HA>  (321) 
4.201203

>  <intxn_scored>  (321) 
8.5

>  <saltbridge:HIS:51>  (321) 
0

>  <pistack:HIS:51>  (321) 
0

>  <hydroph_interaction:HIS:51>  (321) 
0

>  <hbond:ALA:132>  (321) 
0

>  <hbond:SER:135>  (321) 
0

>  <hydroph_interaction:TYR:150>  (321) 
1

>  <pistack:TYR:161>  (321) 
1

>  <hydroph_interaction:TYR:161>  (321) 
4

>  <hydroph_interaction:ASP:83>  (321) 
0

>  <hbond:TYR:130>  (321) 
0

>  <hydroph_interaction:ALA:132>  (321) 
0

>  <hbond:HIS:51>  (321) 
0

>  <hbond:ASP:129>  (321) 
0

>  <hbond:TYR:150>  (321) 
0

>  <hbond:GLY:151>  (321) 
0

>  <hbond:TYR:161>  (321) 
0

>  <hydroph_interaction:TYR:130>  (321) 
0

>  <hydroph_interaction:PRO:131>  (321) 
0

>  <hydroph_interaction:ASP:129>  (321) 
0

>  <saltbridge:ASP:75>  (321) 
0

>  <saltbridge:ASP:83>  (321) 
0

>  <hbond:ASN:152>  (321) 
0

>  <hydroph_interaction:ASN:152>  (321) 
0

>  <halogenbond:TYR:150>  (321) 
0

>  <hbond:ASP:83>  (321) 
0

>  <hydroph_interaction:VAL:155>  (321) 
0

>  <pication:TYR:161>  (321) 
0

>  <hbond:PRO:131>  (321) 
0

>  <saltbridge:ASP:129>  (321) 
0

>  <hbond:THR:134>  (321) 
0

>  <pication:HIS:51>  (321) 
0

>  <hbond:SER:81>  (321) 
0

>  <hydroph_interaction:THR:134>  (321) 
0

>  <hydroph_interaction:MET:49>  (321) 
0

$$$$
Z2691843096
     RDKit          3D

 36 37  0  0  0  0  0  0  0  0999 V2000
   -2.0510    4.6600  -21.4850 C   0  0  0  0  0  0  0  0  0  0  0  0
   -3.3200    5.3640  -21.5150 N   0  0  0  0  0  0  0  0  0  0  0  0
   -4.1230    5.0350  -22.6990 C   0  0  0  0  0  0  0  0  0  0  0  0
   -4.0360    5.4680  -20.3310 C   0  0  0  0  0  0  0  0  0  0  0  0
   -3.5640    5.1630  -19.2360 O   0  0  0  0  0  0  0  0  0  0  0  0
   -5.3710    5.9600  -20.5290 N   0  0  0  0  0  0  0  0  0  0  0  0
   -6.1250    6.3020  -19.4490 C   0  0  0  0  0  0  0  0  0  0  0  0
   -7.0150    5.1930  -18.9360 C   0  0  0  0  0  0  0  0  0  0  0  0
   -8.4220    5.1130  -19.5180 C   0  0  0  0  0  0  0  0  0  0  0  0
   -9.4420    4.5840  -18.7750 C   0  0  0  0  0  0  0  0  0  0  0  0
   -9.3340    4.4540  -17.2790 C   0  0  0  0  0  0  0  0  0  0  0  0
   -8.1210    4.9450  -16.6830 C   0  0  0  0  0  0  0  0  0  0  0  0
   -8.0410    5.0640  -15.2910 C   0  0  0  0  0  0  0  0  0  0  0  0
   -6.8600    5.5290  -14.6980 C   0  0  0  0  0  0  0  0  0  0  0  0
   -5.7670    5.8760  -15.5030 C   0  0  0  0  0  0  0  0  0  0  0  0
   -5.7940    5.7830  -16.8350 N   0  0  0  0  0  0  0  0  0  0  0  0
   -7.0230    5.2950  -17.4420 C   0  0  0  0  0  0  0  0  0  0  0  0
   -1.9260    4.0140  -22.3580 H   0  0  0  0  0  0  0  0  0  0  0  0
   -1.2320    5.3850  -21.4990 H   0  0  0  0  0  0  0  0  0  0  0  0
   -1.9390    4.0580  -20.5760 H   0  0  0  0  0  0  0  0  0  0  0  0
   -4.5680    5.9470  -23.1120 H   0  0  0  0  0  0  0  0  0  0  0  0
   -3.4440    4.6020  -23.4460 H   0  0  0  0  0  0  0  0  0  0  0  0
   -4.9110    4.3260  -22.4230 H   0  0  0  0  0  0  0  0  0  0  0  0
   -5.4350    6.5960  -21.3110 H   0  0  0  0  0  0  0  0  0  0  0  0
   -5.4270    6.5560  -18.6410 H   0  0  0  0  0  0  0  0  0  0  0  0
   -6.7300    7.1890  -19.6810 H   0  0  0  0  0  0  0  0  0  0  0  0
   -6.5350    4.2440  -19.1560 H   0  0  0  0  0  0  0  0  0  0  0  0
   -8.7210    6.1010  -19.8310 H   0  0  0  0  0  0  0  0  0  0  0  0
   -8.3600    4.5280  -20.4500 H   0  0  0  0  0  0  0  0  0  0  0  0
   -9.5580    3.5680  -19.1650 H   0  0  0  0  0  0  0  0  0  0  0  0
  -10.3590    5.1210  -19.0330 H   0  0  0  0  0  0  0  0  0  0  0  0
   -9.3440    3.4010  -17.0700 H   0  0  0  0  0  0  0  0  0  0  0  0
  -10.1900    4.9000  -16.7680 H   0  0  0  0  0  0  0  0  0  0  0  0
   -8.8940    4.7920  -14.6800 H   0  0  0  0  0  0  0  0  0  0  0  0
   -6.7820    5.6240  -13.6220 H   0  0  0  0  0  0  0  0  0  0  0  0
   -4.8190    6.2430  -15.1360 H   0  0  0  0  0  0  0  0  0  0  0  0
  1  2  1  0
  2  3  1  0
  2  4  1  0
  4  5  2  0
  4  6  1  0
  6  7  1  0
  7  8  1  0
  8  9  1  0
  9 10  1  0
 10 11  1  0
 11 12  1  0
 12 13  2  0
 13 14  1  0
 14 15  2  0
 15 16  1  0
 16 17  2  0
 17  8  1  0
 17 12  1  0
  1 18  1  0
  1 19  1  0
  1 20  1  0
  3 21  1  0
  3 22  1  0
  3 23  1  0
  6 24  1  0
  7 25  1  0
  7 26  1  0
  8 27  1  0
  9 28  1  0
  9 29  1  0
 10 30  1  0
 10 31  1  0
 11 32  1  0
 11 33  1  0
 13 34  1  0
 14 35  1  0
 15 36  1  0
A    1
 C1 
A    2
 N1 
A    3
 C2 
A    4
 C3 
A    5
 O1 
A    6
 N2 
A    7
 C4 
A    8
 C5 
A    9
 C6 
A   10
 C7 
A   11
 C8 
A   12
 C9 
A   13
 C10
A   14
 C11
A   15
 C12
A   16
 N3 
A   17
 C13
A   18
 H1 
A   19
 H2 
A   20
 H3 
A   21
 H4 
A   22
 H5 
A   23
 H6 
A   24
 H7 
A   25
 H8 
A   26
 H9 
A   27
 H10
A   28
 H11
A   29
 H12
A   30
 H13
A   31
 H14
A   32
 H15
A   33
 H16
A   34
 H17
A   35
 H18
A   36
 H19
M  END
>  <ref_pdb>  (322) 
x0051_0B

>  <ref_mols>  (322) 
x0904_0B,x0455_0B

>  <original SMILES>  (322) 
[H]c1nc2c(c([H])c1[H])C([H])([H])C([H])([H])C([H])([H])C2([H])C([H])([H])N([H])C(=O)N(C([H])([H])[H])C([H])([H])[H]

>  <index>  (322) 
2350

>  <∆∆G>  (322) 
-5.824533

>  <∆G_bound>  (322) 
-5.448123

>  <∆G_unbound>  (322) 
0.37641

>  <comRMSD>  (322) 
0.719046

>  <N_constrained_atoms>  (322) 
18.0

>  <N_unconstrained_atoms>  (322) 
0.0

>  <runtime>  (322) 
42.685019

>  <LE>  (322) 
0.323585

>  <percent_hybrid>  (322) 
34.0

>  <dist>  (322) 
6.0

>  <ecfp4>  (322) 
0.215385

>  <daylight>  (322) 
0.154867

>  <topodist>  (322) 
0.0

>  <mces>  (322) 
18.0

>  <tdn>  (322) 
0.0

>  <tup>  (322) 
0.0

>  <rdn>  (322) 
0.0

>  <rup>  (322) 
0.0

>  <ldn>  (322) 
0.0

>  <lup>  (322) 
0.0

>  <mut>  (322) 
2.0

>  <maj>  (322) 
2.0

>  <min>  (322) 
0.0

>  <hyb>  (322) 
4.0

>  <sub>  (322) 
0.0

>  <query_index>  (322) 
160.0

>  <max_hit_Tanimoto>  (322) 
0.266338

>  <largest_ring>  (322) 
6

>  <N_interactions_kept>  (322) 
0.5

>  <N_interactions_lost>  (322) 
2.5

>  <interaction_uniqueness_metric>  (322) 
0.066244

>  <ad_hoc_penalty>  (322) 
-4.431285

>  <N_rotatable_bonds>  (322) 
4

>  <N_HA>  (322) 
17

>  <cluster>  (322) 
4059

>  <N_interactions>  (322) 
5

>  <Enamine>  (322) 
1

>  <Mcule>  (322) 
0

>  <N_PAINS>  (322) 
0

>  <UFF_Gibbs>  (322) 
105.970043

>  <strain_per_HA>  (322) 
6.233532

>  <intxn_scored>  (322) 
8.5

>  <saltbridge:HIS:51>  (322) 
0

>  <pistack:HIS:51>  (322) 
0

>  <hydroph_interaction:HIS:51>  (322) 
0

>  <hbond:ALA:132>  (322) 
0

>  <hbond:SER:135>  (322) 
0

>  <hydroph_interaction:TYR:150>  (322) 
1

>  <pistack:TYR:161>  (322) 
1

>  <hydroph_interaction:TYR:161>  (322) 
2

>  <hydroph_interaction:ASP:83>  (322) 
0

>  <hbond:TYR:130>  (322) 
1

>  <hydroph_interaction:ALA:132>  (322) 
0

>  <hbond:HIS:51>  (322) 
0

>  <hbond:ASP:129>  (322) 
0

>  <hbond:TYR:150>  (322) 
0

>  <hbond:GLY:151>  (322) 
0

>  <hbond:TYR:161>  (322) 
0

>  <hydroph_interaction:TYR:130>  (322) 
0

>  <hydroph_interaction:PRO:131>  (322) 
0

>  <hydroph_interaction:ASP:129>  (322) 
0

>  <saltbridge:ASP:75>  (322) 
0

>  <saltbridge:ASP:83>  (322) 
0

>  <hbond:ASN:152>  (322) 
0

>  <hydroph_interaction:ASN:152>  (322) 
0

>  <halogenbond:TYR:150>  (322) 
0

>  <hbond:ASP:83>  (322) 
0

>  <hydroph_interaction:VAL:155>  (322) 
0

>  <pication:TYR:161>  (322) 
0

>  <hbond:PRO:131>  (322) 
0

>  <saltbridge:ASP:129>  (322) 
0

>  <hbond:THR:134>  (322) 
0

>  <pication:HIS:51>  (322) 
0

>  <hbond:SER:81>  (322) 
0

>  <hydroph_interaction:THR:134>  (322) 
0

>  <hydroph_interaction:MET:49>  (322) 
0

$$$$
Z2452621935
     RDKit          3D

 53 56  0  0  0  0  0  0  0  0999 V2000
  -10.3090    8.0340  -13.9700 C   0  0  0  0  0  0  0  0  0  0  0  0
   -9.3080    6.9730  -13.9170 N   0  0  0  0  0  0  0  0  0  0  0  0
   -9.5280    5.9350  -14.8190 C   0  0  0  0  0  0  0  0  0  0  0  0
  -10.3850    5.0910  -14.6140 O   0  0  0  0  0  0  0  0  0  0  0  0
   -8.7460    5.7820  -16.1060 C   0  0  0  0  0  0  0  0  0  0  0  0
   -7.5460    6.3540  -16.4430 N   0  0  0  0  0  0  0  0  0  0  0  0
   -7.2970    5.9110  -17.7120 N   0  0  0  0  0  0  0  0  0  0  0  0
   -6.1040    6.3170  -18.4550 C   0  0  0  0  0  0  0  0  0  0  0  0
   -5.3650    5.2400  -18.9160 C   0  0  0  0  0  0  0  0  0  0  0  0
   -4.1800    5.6120  -19.5620 C   0  0  0  0  0  0  0  0  0  0  0  0
   -4.1370    6.8580  -20.1850 C   0  0  0  0  0  0  0  0  0  0  0  0
   -5.4480    7.2280  -20.6940 N   0  0  0  0  0  0  0  0  0  0  0  0
   -6.4510    7.2550  -19.6260 C   0  0  0  0  0  0  0  0  0  0  0  0
   -8.2820    5.0900  -18.1470 C   0  0  0  0  0  0  0  0  0  0  0  0
   -9.2030    4.9860  -17.1720 C   0  0  0  0  0  0  0  0  0  0  0  0
   -9.0580    6.4550  -12.6090 C   0  0  0  0  0  0  0  0  0  0  0  0
   -8.8840    7.2590  -11.3360 C   0  0  0  0  0  0  0  0  0  0  0  0
   -8.6410    6.4990  -10.0450 C   0  0  0  0  0  0  0  0  0  0  0  0
   -8.5870    4.9770  -10.1290 C   0  0  0  0  0  0  0  0  0  0  0  0
   -8.3780    4.1920   -8.9900 N   0  0  0  0  0  0  0  0  0  0  0  0
   -9.0520    2.8670   -9.1530 C   0  0  0  0  0  0  0  0  0  0  0  0
   -9.5970    2.4030   -7.9630 C   0  0  0  0  0  0  0  0  0  0  0  0
   -8.7460    2.7000   -6.8620 O   0  0  0  0  0  0  0  0  0  0  0  0
   -8.7640    4.1000   -6.5810 C   0  0  0  0  0  0  0  0  0  0  0  0
   -8.5190    4.9200   -7.6950 C   0  0  0  0  0  0  0  0  0  0  0  0
   -8.7450    4.3630  -11.3090 N   0  0  0  0  0  0  0  0  0  0  0  0
   -8.9650    5.0670  -12.4500 C   0  0  0  0  0  0  0  0  0  0  0  0
   -9.8080    8.9970  -14.1100 H   0  0  0  0  0  0  0  0  0  0  0  0
  -10.8860    8.0850  -13.0440 H   0  0  0  0  0  0  0  0  0  0  0  0
  -11.0110    7.8830  -14.7990 H   0  0  0  0  0  0  0  0  0  0  0  0
   -5.4950    6.8710  -17.7500 H   0  0  0  0  0  0  0  0  0  0  0  0
   -6.1310    4.5980  -19.3190 H   0  0  0  0  0  0  0  0  0  0  0  0
   -5.0230    4.6630  -18.0480 H   0  0  0  0  0  0  0  0  0  0  0  0
   -3.9300    4.8770  -20.3390 H   0  0  0  0  0  0  0  0  0  0  0  0
   -3.3620    5.5480  -18.8360 H   0  0  0  0  0  0  0  0  0  0  0  0
   -3.4630    6.7800  -21.0480 H   0  0  0  0  0  0  0  0  0  0  0  0
   -3.7570    7.6870  -19.5950 H   0  0  0  0  0  0  0  0  0  0  0  0
   -5.7490    6.5630  -21.4100 H   0  0  0  0  0  0  0  0  0  0  0  0
   -7.4290    7.0000  -20.0450 H   0  0  0  0  0  0  0  0  0  0  0  0
   -6.5190    8.2890  -19.2800 H   0  0  0  0  0  0  0  0  0  0  0  0
   -8.4370    4.5500  -19.0880 H   0  0  0  0  0  0  0  0  0  0  0  0
  -10.0820    4.3620  -17.3450 H   0  0  0  0  0  0  0  0  0  0  0  0
   -8.9380    8.3540  -11.3520 H   0  0  0  0  0  0  0  0  0  0  0  0
   -8.5140    7.0250   -9.0920 H   0  0  0  0  0  0  0  0  0  0  0  0
   -8.3310    2.1140   -9.5020 H   0  0  0  0  0  0  0  0  0  0  0  0
   -9.8520    2.9500   -9.8980 H   0  0  0  0  0  0  0  0  0  0  0  0
  -10.5800    2.8460   -7.7720 H   0  0  0  0  0  0  0  0  0  0  0  0
   -9.7350    1.3240   -7.9990 H   0  0  0  0  0  0  0  0  0  0  0  0
   -9.7510    4.3240   -6.1580 H   0  0  0  0  0  0  0  0  0  0  0  0
   -8.0240    4.2800   -5.7930 H   0  0  0  0  0  0  0  0  0  0  0  0
   -7.6680    5.5800   -7.4940 H   0  0  0  0  0  0  0  0  0  0  0  0
   -9.3720    5.5970   -7.8110 H   0  0  0  0  0  0  0  0  0  0  0  0
   -9.0720    4.3940  -13.2960 H   0  0  0  0  0  0  0  0  0  0  0  0
  1  2  1  0
  2  3  1  0
  3  4  2  0
  3  5  1  0
  5  6  2  0
  6  7  1  0
  7  8  1  0
  8  9  1  0
  9 10  1  0
 10 11  1  0
 11 12  1  0
 12 13  1  0
  7 14  1  0
 14 15  2  0
  2 16  1  0
 16 17  2  0
 17 18  1  0
 18 19  2  0
 19 20  1  0
 20 21  1  0
 21 22  1  0
 22 23  1  0
 23 24  1  0
 24 25  1  0
 19 26  1  0
 26 27  2  0
 15  5  1  0
 13  8  1  0
 27 16  1  0
 25 20  1  0
  1 28  1  0
  1 29  1  0
  1 30  1  0
  8 31  1  0
  9 32  1  0
  9 33  1  0
 10 34  1  0
 10 35  1  0
 11 36  1  0
 11 37  1  0
 12 38  1  0
 13 39  1  0
 13 40  1  0
 14 41  1  0
 15 42  1  0
 17 43  1  0
 18 44  1  0
 21 45  1  0
 21 46  1  0
 22 47  1  0
 22 48  1  0
 24 49  1  0
 24 50  1  0
 25 51  1  0
 25 52  1  0
 27 53  1  0
A    1
 C1 
A    2
 N1 
A    3
 C2 
A    4
 O1 
A    5
 C3 
A    6
 N2 
A    7
 N3 
A    8
 C4 
A    9
 C5 
A   10
 C6 
A   11
 C7 
A   12
 N4 
A   13
 C8 
A   14
 C9 
A   15
 C10
A   16
 C11
A   17
 C12
A   18
 C13
A   19
 C14
A   20
 N5 
A   21
 C15
A   22
 C16
A   23
 O2 
A   24
 C17
A   25
 C18
A   26
 N6 
A   27
 C19
A   28
 H1 
A   29
 H2 
A   30
 H3 
A   31
 H4 
A   32
 H5 
A   33
 H6 
A   34
 H7 
A   35
 H8 
A   36
 H9 
A   37
 H10
A   38
 H11
A   39
 H12
A   40
 H13
A   41
 H14
A   42
 H15
A   43
 H16
A   44
 H17
A   45
 H18
A   46
 H19
A   47
 H20
A   48
 H21
A   49
 H22
A   50
 H23
A   51
 H24
A   52
 H25
A   53
 H26
M  END
>  <ref_pdb>  (323) 
x0051_0B

>  <ref_mols>  (323) 
x0917_1B,x0404_0B

>  <original SMILES>  (323) 
[H]c1nc(N2C([H])([H])C([H])([H])OC([H])([H])C2([H])[H])c([H])c([H])c1N(C(=O)c1nn(C2([H])C([H])([H])N([H])C([H])([H])C([H])([H])C2([H])[H])c([H])c1[H])C([H])([H])[H]

>  <index>  (323) 
521

>  <∆∆G>  (323) 
-5.620213

>  <∆G_bound>  (323) 
-4.891363

>  <∆G_unbound>  (323) 
0.728849

>  <comRMSD>  (323) 
0.674762

>  <N_constrained_atoms>  (323) 
28.0

>  <N_unconstrained_atoms>  (323) 
1.0

>  <runtime>  (323) 
71.631898

>  <LE>  (323) 
0.1938

>  <percent_hybrid>  (323) 
48.0

>  <dist>  (323) 
10.0

>  <ecfp4>  (323) 
0.247423

>  <daylight>  (323) 
0.191781

>  <topodist>  (323) 
3.0

>  <mces>  (323) 
30.0

>  <tdn>  (323) 
3.0

>  <tup>  (323) 
0.0

>  <rdn>  (323) 
0.0

>  <rup>  (323) 
0.0

>  <ldn>  (323) 
0.0

>  <lup>  (323) 
0.0

>  <mut>  (323) 
6.0

>  <maj>  (323) 
6.0

>  <min>  (323) 
0.0

>  <hyb>  (323) 
1.0

>  <sub>  (323) 
0.0

>  <query_index>  (323) 
310.0

>  <max_hit_Tanimoto>  (323) 
0.244275

>  <largest_ring>  (323) 
6

>  <N_interactions_kept>  (323) 
2.0

>  <N_interactions_lost>  (323) 
2.0

>  <interaction_uniqueness_metric>  (323) 
0.154285

>  <ad_hoc_penalty>  (323) 
-18.94553

>  <N_rotatable_bonds>  (323) 
5

>  <N_HA>  (323) 
27

>  <cluster>  (323) 
5743

>  <N_interactions>  (323) 
7

>  <Enamine>  (323) 
1

>  <Mcule>  (323) 
0

>  <N_PAINS>  (323) 
0

>  <UFF_Gibbs>  (323) 
171.317225

>  <strain_per_HA>  (323) 
6.345082

>  <intxn_scored>  (323) 
8.5

>  <saltbridge:HIS:51>  (323) 
0

>  <pistack:HIS:51>  (323) 
1

>  <hydroph_interaction:HIS:51>  (323) 
1

>  <hbond:ALA:132>  (323) 
0

>  <hbond:SER:135>  (323) 
1

>  <hydroph_interaction:TYR:150>  (323) 
0

>  <pistack:TYR:161>  (323) 
0

>  <hydroph_interaction:TYR:161>  (323) 
3

>  <hydroph_interaction:ASP:83>  (323) 
0

>  <hbond:TYR:130>  (323) 
1

>  <hydroph_interaction:ALA:132>  (323) 
0

>  <hbond:HIS:51>  (323) 
0

>  <hbond:ASP:129>  (323) 
0

>  <hbond:TYR:150>  (323) 
0

>  <hbond:GLY:151>  (323) 
0

>  <hbond:TYR:161>  (323) 
0

>  <hydroph_interaction:TYR:130>  (323) 
0

>  <hydroph_interaction:PRO:131>  (323) 
0

>  <hydroph_interaction:ASP:129>  (323) 
0

>  <saltbridge:ASP:75>  (323) 
0

>  <saltbridge:ASP:83>  (323) 
0

>  <hbond:ASN:152>  (323) 
0

>  <hydroph_interaction:ASN:152>  (323) 
0

>  <halogenbond:TYR:150>  (323) 
0

>  <hbond:ASP:83>  (323) 
0

>  <hydroph_interaction:VAL:155>  (323) 
0

>  <pication:TYR:161>  (323) 
0

>  <hbond:PRO:131>  (323) 
0

>  <saltbridge:ASP:129>  (323) 
0

>  <hbond:THR:134>  (323) 
0

>  <pication:HIS:51>  (323) 
0

>  <hbond:SER:81>  (323) 
0

>  <hydroph_interaction:THR:134>  (323) 
0

>  <hydroph_interaction:MET:49>  (323) 
0

$$$$
Z5316880345
     RDKit          3D

 59 62  0  0  0  0  0  0  0  0999 V2000
   -9.7550    8.6540  -13.8530 O   0  0  0  0  0  0  0  0  0  0  0  0
   -8.8330    7.5570  -13.9930 S   0  0  0  0  0  6  0  0  0  0  0  0
   -7.4920    7.7570  -14.4460 O   0  0  0  0  0  0  0  0  0  0  0  0
   -9.4510    6.3760  -14.9840 N   0  0  0  0  0  0  0  0  0  0  0  0
   -8.4280    5.4400  -15.5590 C   0  0  0  0  0  0  0  0  0  0  0  0
   -8.6030    5.5080  -16.8640 C   0  0  2  0  0  0  0  0  0  0  0  0
   -9.8340    4.9790  -17.4210 C   0  0  0  0  0  0  0  0  0  0  0  0
   -9.6620    4.5000  -18.6940 C   0  0  0  0  0  0  0  0  0  0  0  0
   -8.3800    4.6590  -19.1730 C   0  0  0  0  0  0  0  0  0  0  0  0
   -7.5520    4.9560  -17.8910 C   0  0  1  0  0  0  0  0  0  0  0  0
   -6.3960    5.8100  -18.2800 N   0  0  0  0  0  0  0  0  0  0  0  0
   -5.9860    5.4890  -19.6850 C   0  0  0  0  0  0  0  0  0  0  0  0
   -4.6040    5.6460  -19.7190 C   0  0  0  0  0  0  0  0  0  0  0  0
   -3.9550    5.5060  -18.3830 C   0  0  0  0  0  0  0  0  0  0  0  0
   -5.1680    5.5990  -17.4460 C   0  0  0  0  0  0  0  0  0  0  0  0
   -8.8170    6.6210  -12.5170 C   0  0  0  0  0  0  0  0  0  0  0  0
   -8.6690    7.2230  -11.2820 C   0  0  0  0  0  0  0  0  0  0  0  0
   -8.6580    6.4670  -10.1370 C   0  0  0  0  0  0  0  0  0  0  0  0
   -8.7910    5.0870  -10.1530 C   0  0  0  0  0  0  0  0  0  0  0  0
   -8.7820    4.3180   -9.0160 N   0  0  0  0  0  0  0  0  0  0  0  0
   -9.0660    2.8790   -9.1980 C   0  0  0  0  0  0  0  0  0  0  0  0
   -9.6690    2.3400   -7.9000 C   0  0  0  0  0  0  0  0  0  0  0  0
   -8.9170    2.7550   -6.7050 N   0  0  0  0  0  0  0  0  0  0  0  0
   -8.7420    4.2150   -6.6740 C   0  0  0  0  0  0  0  0  0  0  0  0
   -8.0760    4.7160   -7.7880 C   0  0  0  0  0  0  0  0  0  0  0  0
   -8.9430    4.4810  -11.4160 C   0  0  0  0  0  0  0  0  0  0  0  0
   -8.9580    5.2330  -12.5950 C   0  0  0  0  0  0  0  0  0  0  0  0
  -10.3340    5.9940  -14.6460 H   0  0  0  0  0  0  0  0  0  0  0  0
   -7.4600    5.6850  -15.1310 H   0  0  0  0  0  0  0  0  0  0  0  0
   -8.7070    4.4420  -15.2230 H   0  0  0  0  0  0  0  0  0  0  0  0
   -8.5600    6.5660  -16.9810 H   0  0  0  0  0  0  0  0  0  0  0  0
  -10.2010    4.2030  -16.7620 H   0  0  0  0  0  0  0  0  0  0  0  0
  -10.6040    5.7410  -17.4770 H   0  0  0  0  0  0  0  0  0  0  0  0
  -10.3250    5.0040  -19.4100 H   0  0  0  0  0  0  0  0  0  0  0  0
   -9.8790    3.4300  -18.7180 H   0  0  0  0  0  0  0  0  0  0  0  0
   -8.0420    3.7750  -19.7200 H   0  0  0  0  0  0  0  0  0  0  0  0
   -8.3730    5.5060  -19.8620 H   0  0  0  0  0  0  0  0  0  0  0  0
   -7.2060    4.0180  -17.5150 H   0  0  0  0  0  0  0  0  0  0  0  0
   -6.4450    6.1820  -20.4000 H   0  0  0  0  0  0  0  0  0  0  0  0
   -6.2640    4.4720  -19.9830 H   0  0  0  0  0  0  0  0  0  0  0  0
   -4.3980    6.6480  -20.1150 H   0  0  0  0  0  0  0  0  0  0  0  0
   -4.1610    4.9460  -20.4300 H   0  0  0  0  0  0  0  0  0  0  0  0
   -3.2180    6.2890  -18.1900 H   0  0  0  0  0  0  0  0  0  0  0  0
   -3.4580    4.5330  -18.2990 H   0  0  0  0  0  0  0  0  0  0  0  0
   -5.2350    4.7390  -16.7820 H   0  0  0  0  0  0  0  0  0  0  0  0
   -5.0450    6.5080  -16.8420 H   0  0  0  0  0  0  0  0  0  0  0  0
   -8.5590    8.3130  -11.2150 H   0  0  0  0  0  0  0  0  0  0  0  0
   -8.5400    6.9720   -9.1720 H   0  0  0  0  0  0  0  0  0  0  0  0
   -9.7880    2.7140  -10.0110 H   0  0  0  0  0  0  0  0  0  0  0  0
   -8.1440    2.3260   -9.4250 H   0  0  0  0  0  0  0  0  0  0  0  0
  -10.7050    2.6800   -7.8030 H   0  0  0  0  0  0  0  0  0  0  0  0
   -9.7140    1.2540   -7.9390 H   0  0  0  0  0  0  0  0  0  0  0  0
   -7.9950    2.3210   -6.7140 H   0  0  0  0  0  0  0  0  0  0  0  0
   -8.1780    4.4760   -5.7700 H   0  0  0  0  0  0  0  0  0  0  0  0
   -9.7290    4.6790   -6.5870 H   0  0  0  0  0  0  0  0  0  0  0  0
   -7.0620    4.2920   -7.8240 H   0  0  0  0  0  0  0  0  0  0  0  0
   -7.9320    5.7990   -7.7110 H   0  0  0  0  0  0  0  0  0  0  0  0
   -9.0540    3.4000  -11.4910 H   0  0  0  0  0  0  0  0  0  0  0  0
   -9.0790    4.7290  -13.5500 H   0  0  0  0  0  0  0  0  0  0  0  0
  1  2  2  0
  2  3  2  0
  2  4  1  0
  4  5  1  0
  5  6  1  0
  6  7  1  0
  7  8  1  0
  8  9  1  0
  9 10  1  0
 10 11  1  0
 11 12  1  0
 12 13  1  0
 13 14  1  0
 14 15  1  0
  2 16  1  0
 16 17  2  0
 17 18  1  0
 18 19  2  0
 19 20  1  0
 20 21  1  0
 21 22  1  0
 22 23  1  0
 23 24  1  0
 24 25  1  0
 19 26  1  0
 26 27  2  0
 10  6  1  0
 15 11  1  0
 27 16  1  0
 25 20  1  0
  4 28  1  0
  5 29  1  0
  5 30  1  0
  6 31  1  6
  7 32  1  0
  7 33  1  0
  8 34  1  0
  8 35  1  0
  9 36  1  0
  9 37  1  0
 10 38  1  1
 12 39  1  0
 12 40  1  0
 13 41  1  0
 13 42  1  0
 14 43  1  0
 14 44  1  0
 15 45  1  0
 15 46  1  0
 17 47  1  0
 18 48  1  0
 21 49  1  0
 21 50  1  0
 22 51  1  0
 22 52  1  0
 23 53  1  0
 24 54  1  0
 24 55  1  0
 25 56  1  0
 25 57  1  0
 26 58  1  0
 27 59  1  0
A    1
 O1 
A    2
 S1 
A    3
 O2 
A    4
 N1 
A    5
 C1 
A    6
 C2 
A    7
 C3 
A    8
 C4 
A    9
 C5 
A   10
 C6 
A   11
 N2 
A   12
 C7 
A   13
 C8 
A   14
 C9 
A   15
 C10
A   16
 C11
A   17
 C12
A   18
 C13
A   19
 C14
A   20
 N3 
A   21
 C15
A   22
 C16
A   23
 N4 
A   24
 C17
A   25
 C18
A   26
 C19
A   27
 C20
A   28
 H1 
A   29
 H2 
A   30
 H3 
A   31
 H4 
A   32
 H5 
A   33
 H6 
A   34
 H7 
A   35
 H8 
A   36
 H9 
A   37
 H10
A   38
 H11
A   39
 H12
A   40
 H13
A   41
 H14
A   42
 H15
A   43
 H16
A   44
 H17
A   45
 H18
A   46
 H19
A   47
 H20
A   48
 H21
A   49
 H22
A   50
 H23
A   51
 H24
A   52
 H25
A   53
 H26
A   54
 H27
A   55
 H28
A   56
 H29
A   57
 H30
A   58
 H31
A   59
 H32
M  END
>  <ref_pdb>  (324) 
x0051_0B

>  <ref_mols>  (324) 
x0404_0B,x0422_0B

>  <original SMILES>  (324) 
[H]c1c([H])c(S(=O)(=O)N([H])C([H])([H])[C@]2([H])C([H])([H])C([H])([H])C([H])([H])[C@@]2([H])N2C([H])([H])C([H])([H])C([H])([H])C2([H])[H])c([H])c([H])c1N1C([H])([H])C([H])([H])N([H])C([H])([H])C1([H])[H]

>  <index>  (324) 
704

>  <∆∆G>  (324) 
-5.251648

>  <∆G_bound>  (324) 
-4.178003

>  <∆G_unbound>  (324) 
1.073646

>  <comRMSD>  (324) 
0.724959

>  <N_constrained_atoms>  (324) 
27.0

>  <N_unconstrained_atoms>  (324) 
1.0

>  <runtime>  (324) 
110.062266

>  <LE>  (324) 
0.187559

>  <percent_hybrid>  (324) 
41.0

>  <dist>  (324) 
8.0

>  <ecfp4>  (324) 
0.388889

>  <daylight>  (324) 
0.331731

>  <topodist>  (324) 
1.0

>  <mces>  (324) 
30.0

>  <tdn>  (324) 
1.0

>  <tup>  (324) 
0.0

>  <rdn>  (324) 
0.0

>  <rup>  (324) 
0.0

>  <ldn>  (324) 
0.0

>  <lup>  (324) 
0.0

>  <mut>  (324) 
5.0

>  <maj>  (324) 
5.0

>  <min>  (324) 
0.0

>  <hyb>  (324) 
2.0

>  <sub>  (324) 
0.0

>  <query_index>  (324) 
324.0

>  <max_hit_Tanimoto>  (324) 
0.410795

>  <largest_ring>  (324) 
6

>  <N_interactions_kept>  (324) 
2.0

>  <N_interactions_lost>  (324) 
3.5

>  <interaction_uniqueness_metric>  (324) 
0.366772

>  <ad_hoc_penalty>  (324) 
-17.808451

>  <N_rotatable_bonds>  (324) 
6

>  <N_HA>  (324) 
27

>  <cluster>  (324) 
5573

>  <N_interactions>  (324) 
10

>  <Enamine>  (324) 
1

>  <Mcule>  (324) 
0

>  <N_PAINS>  (324) 
0

>  <UFF_Gibbs>  (324) 
205.003908

>  <strain_per_HA>  (324) 
7.592737

>  <intxn_scored>  (324) 
8.5

>  <saltbridge:HIS:51>  (324) 
0

>  <pistack:HIS:51>  (324) 
1

>  <hydroph_interaction:HIS:51>  (324) 
1

>  <hbond:ALA:132>  (324) 
0

>  <hbond:SER:135>  (324) 
0

>  <hydroph_interaction:TYR:150>  (324) 
1

>  <pistack:TYR:161>  (324) 
0

>  <hydroph_interaction:TYR:161>  (324) 
3

>  <hydroph_interaction:ASP:83>  (324) 
0

>  <hbond:TYR:130>  (324) 
0

>  <hydroph_interaction:ALA:132>  (324) 
1

>  <hbond:HIS:51>  (324) 
0

>  <hbond:ASP:129>  (324) 
0

>  <hbond:TYR:150>  (324) 
0

>  <hbond:GLY:151>  (324) 
1

>  <hbond:TYR:161>  (324) 
0

>  <hydroph_interaction:TYR:130>  (324) 
0

>  <hydroph_interaction:PRO:131>  (324) 
0

>  <hydroph_interaction:ASP:129>  (324) 
0

>  <saltbridge:ASP:75>  (324) 
0

>  <saltbridge:ASP:83>  (324) 
0

>  <hbond:ASN:152>  (324) 
0

>  <hydroph_interaction:ASN:152>  (324) 
0

>  <halogenbond:TYR:150>  (324) 
0

>  <hbond:ASP:83>  (324) 
0

>  <hydroph_interaction:VAL:155>  (324) 
0

>  <pication:TYR:161>  (324) 
1

>  <hbond:PRO:131>  (324) 
0

>  <saltbridge:ASP:129>  (324) 
0

>  <hbond:THR:134>  (324) 
0

>  <pication:HIS:51>  (324) 
0

>  <hbond:SER:81>  (324) 
1

>  <hydroph_interaction:THR:134>  (324) 
0

>  <hydroph_interaction:MET:49>  (324) 
0

$$$$
CSSB00000002055
     RDKit          3D

 26 27  0  0  0  0  0  0  0  0999 V2000
   -3.7050    4.1430  -14.7230 C   0  0  0  0  0  0  0  0  0  0  0  0
   -4.0680    5.4250  -15.4130 C   0  0  0  0  0  0  0  0  0  0  0  0
   -3.2440    6.3240  -15.5360 O   0  0  0  0  0  0  0  0  0  0  0  0
   -5.3730    5.4490  -15.8530 N   0  0  0  0  0  0  0  0  0  0  0  0
   -5.8770    5.3640  -17.1840 C   0  0  0  0  0  0  0  0  0  0  0  0
   -5.0720    5.4320  -18.3270 C   0  0  0  0  0  0  0  0  0  0  0  0
   -3.7250    5.5880  -18.3360 O   0  0  0  0  0  0  0  0  0  0  0  0
   -5.6110    5.3380  -19.6030 C   0  0  0  0  0  0  0  0  0  0  0  0
   -6.9720    5.1680  -19.7790 C   0  0  0  0  0  0  0  0  0  0  0  0
   -7.8230    5.0920  -18.6810 C   0  0  0  0  0  0  0  0  0  0  0  0
   -9.1920    4.9120  -18.9170 C   0  0  0  0  0  0  0  0  0  0  0  0
  -10.0870    4.8280  -17.8650 C   0  0  0  0  0  0  0  0  0  0  0  0
   -9.6140    4.9210  -16.5640 C   0  0  0  0  0  0  0  0  0  0  0  0
   -8.2540    5.0980  -16.3160 C   0  0  0  0  0  0  0  0  0  0  0  0
   -7.2990    5.1900  -17.3600 C   0  0  0  0  0  0  0  0  0  0  0  0
   -3.1860    3.4910  -15.4260 H   0  0  0  0  0  0  0  0  0  0  0  0
   -3.0480    4.3560  -13.8800 H   0  0  0  0  0  0  0  0  0  0  0  0
   -4.5960    3.6440  -14.3350 H   0  0  0  0  0  0  0  0  0  0  0  0
   -6.0380    5.1740  -15.1470 H   0  0  0  0  0  0  0  0  0  0  0  0
   -3.3540    5.2010  -17.5180 H   0  0  0  0  0  0  0  0  0  0  0  0
   -4.9580    5.3950  -20.4710 H   0  0  0  0  0  0  0  0  0  0  0  0
   -7.3540    5.0910  -20.7910 H   0  0  0  0  0  0  0  0  0  0  0  0
   -9.5720    4.8380  -19.9350 H   0  0  0  0  0  0  0  0  0  0  0  0
  -11.1450    4.6910  -18.0620 H   0  0  0  0  0  0  0  0  0  0  0  0
  -10.3050    4.8540  -15.7260 H   0  0  0  0  0  0  0  0  0  0  0  0
   -7.9700    5.1570  -15.2700 H   0  0  0  0  0  0  0  0  0  0  0  0
  1  2  1  0
  2  3  2  0
  2  4  1  0
  4  5  1  0
  5  6  2  0
  6  7  1  0
  6  8  1  0
  8  9  2  0
  9 10  1  0
 10 11  2  0
 11 12  1  0
 12 13  2  0
 13 14  1  0
 14 15  2  0
 15  5  1  0
 15 10  1  0
  1 16  1  0
  1 17  1  0
  1 18  1  0
  4 19  1  0
  7 20  1  0
  8 21  1  0
  9 22  1  0
 11 23  1  0
 12 24  1  0
 13 25  1  0
 14 26  1  0
A    1
 C1 
A    2
 C2 
A    3
 O1 
A    4
 N1 
A    5
 C3 
A    6
 C4 
A    7
 O2 
A    8
 C5 
A    9
 C6 
A   10
 C7 
A   11
 C8 
A   12
 C9 
A   13
 C10
A   14
 C11
A   15
 C12
A   16
 H1 
A   17
 H2 
A   18
 H3 
A   19
 H4 
A   20
 H5 
A   21
 H6 
A   22
 H7 
A   23
 H8 
A   24
 H9 
A   25
 H10
A   26
 H11
M  END
>  <ref_pdb>  (325) 
x0051_0B

>  <ref_mols>  (325) 
x0727_0B,x0800_0B

>  <original SMILES>  (325) 
[H]Oc1c([H])c([H])c2c([H])c([H])c([H])c([H])c2c1N([H])C(=O)C([H])([H])[H]

>  <index>  (325) 
2696

>  <∆∆G>  (325) 
-8.061261

>  <∆G_bound>  (325) 
-7.348656

>  <∆G_unbound>  (325) 
0.712605

>  <comRMSD>  (325) 
0.683762

>  <N_constrained_atoms>  (325) 
16.0

>  <N_unconstrained_atoms>  (325) 
2.0

>  <runtime>  (325) 
24.077628

>  <LE>  (325) 
0.447848

>  <percent_hybrid>  (325) 
45.0

>  <dist>  (325) 
2.0

>  <ecfp4>  (325) 
0.555556

>  <daylight>  (325) 
0.666667

>  <topodist>  (325) 
2.0

>  <mces>  (325) 
14.0

>  <tdn>  (325) 
0.0

>  <tup>  (325) 
1.0

>  <rdn>  (325) 
0.0

>  <rup>  (325) 
0.0

>  <ldn>  (325) 
0.0

>  <lup>  (325) 
1.0

>  <mut>  (325) 
0.0

>  <maj>  (325) 
0.0

>  <min>  (325) 
0.0

>  <hyb>  (325) 
0.0

>  <sub>  (325) 
0.0

>  <query_index>  (325) 
67.0

>  <max_hit_Tanimoto>  (325) 
0.245935

>  <largest_ring>  (325) 
6

>  <N_interactions_kept>  (325) 
0.0

>  <N_interactions_lost>  (325) 
4.0

>  <interaction_uniqueness_metric>  (325) 
0.047384

>  <ad_hoc_penalty>  (325) 
-5.816008

>  <N_rotatable_bonds>  (325) 
3

>  <N_HA>  (325) 
15

>  <cluster>  (325) 
3731

>  <N_interactions>  (325) 
6

>  <Enamine>  (325) 
1

>  <Mcule>  (325) 
0

>  <N_PAINS>  (325) 
0

>  <UFF_Gibbs>  (325) 
41.420814

>  <strain_per_HA>  (325) 
2.761388

>  <intxn_scored>  (325) 
8.5

>  <saltbridge:HIS:51>  (325) 
0

>  <pistack:HIS:51>  (325) 
0

>  <hydroph_interaction:HIS:51>  (325) 
0

>  <hbond:ALA:132>  (325) 
0

>  <hbond:SER:135>  (325) 
0

>  <hydroph_interaction:TYR:150>  (325) 
1

>  <pistack:TYR:161>  (325) 
1

>  <hydroph_interaction:TYR:161>  (325) 
4

>  <hydroph_interaction:ASP:83>  (325) 
0

>  <hbond:TYR:130>  (325) 
0

>  <hydroph_interaction:ALA:132>  (325) 
0

>  <hbond:HIS:51>  (325) 
0

>  <hbond:ASP:129>  (325) 
0

>  <hbond:TYR:150>  (325) 
0

>  <hbond:GLY:151>  (325) 
0

>  <hbond:TYR:161>  (325) 
0

>  <hydroph_interaction:TYR:130>  (325) 
0

>  <hydroph_interaction:PRO:131>  (325) 
0

>  <hydroph_interaction:ASP:129>  (325) 
0

>  <saltbridge:ASP:75>  (325) 
0

>  <saltbridge:ASP:83>  (325) 
0

>  <hbond:ASN:152>  (325) 
0

>  <hydroph_interaction:ASN:152>  (325) 
0

>  <halogenbond:TYR:150>  (325) 
0

>  <hbond:ASP:83>  (325) 
0

>  <hydroph_interaction:VAL:155>  (325) 
0

>  <pication:TYR:161>  (325) 
0

>  <hbond:PRO:131>  (325) 
0

>  <saltbridge:ASP:129>  (325) 
0

>  <hbond:THR:134>  (325) 
0

>  <pication:HIS:51>  (325) 
0

>  <hbond:SER:81>  (325) 
0

>  <hydroph_interaction:THR:134>  (325) 
0

>  <hydroph_interaction:MET:49>  (325) 
0

$$$$
Z3205060865
     RDKit          3D

 54 56  0  0  0  0  0  0  0  0999 V2000
   -2.4000    4.8150  -21.8610 C   0  0  0  0  0  0  0  0  0  0  0  0
   -3.5560    5.6110  -21.4650 N   0  0  0  0  0  0  0  0  0  0  0  0
   -4.7100    5.4030  -22.3330 C   0  0  0  0  0  0  0  0  0  0  0  0
   -3.9040    5.6830  -20.0460 C   0  0  0  0  0  0  0  0  0  0  0  0
   -5.2920    5.6250  -19.8020 C   0  0  0  0  0  0  0  0  0  0  0  0
   -5.7200    5.7160  -18.5020 O   0  0  0  0  0  0  0  0  0  0  0  0
   -7.0510    5.4340  -18.1300 C   0  0  0  0  0  0  0  0  0  0  0  0
   -7.8750    5.1310  -19.1920 C   0  0  0  0  0  0  0  0  0  0  0  0
   -9.3200    4.7940  -19.1300 C   0  0  0  0  0  0  0  0  0  0  0  0
   -9.8080    4.8180  -17.6720 C   0  0  0  0  0  0  0  0  0  0  0  0
   -8.8540    5.1610  -16.5140 C   0  0  0  0  0  0  0  0  0  0  0  0
   -9.2850    5.1800  -15.1720 C   0  0  0  0  0  0  0  0  0  0  0  0
   -9.1110    6.2760  -14.3090 C   0  0  0  0  0  0  0  0  0  0  0  0
   -8.6250    7.3440  -14.6470 O   0  0  0  0  0  0  0  0  0  0  0  0
   -9.5230    6.0150  -13.0180 N   0  0  0  0  0  0  0  0  0  0  0  0
   -8.6200    5.1900  -12.1990 C   0  0  0  0  0  0  0  0  0  0  0  0
   -8.7350    5.4230  -10.7070 C   0  0  0  0  0  0  0  0  0  0  0  0
   -8.9200    4.4080   -9.6980 C   0  0  0  0  0  0  0  0  0  0  0  0
   -9.0250    2.9380  -10.0710 C   0  0  0  0  0  0  0  0  0  0  0  0
   -8.7100    2.2390   -8.9080 C   0  0  0  0  0  0  0  0  0  0  0  0
   -9.3410    2.6630   -7.7340 C   0  0  0  0  0  0  0  0  0  0  0  0
   -9.1440    4.1280   -7.3250 C   0  0  0  0  0  0  0  0  0  0  0  0
   -8.9780    4.8830   -8.4530 N   0  0  0  0  0  0  0  0  0  0  0  0
   -8.8450    6.2330   -8.4970 N   0  0  0  0  0  0  0  0  0  0  0  0
   -8.7020    6.5580   -9.8360 C   0  0  0  0  0  0  0  0  0  0  0  0
   -7.5300    5.4490  -16.8210 C   0  0  0  0  0  0  0  0  0  0  0  0
   -1.6140    5.4740  -22.2390 H   0  0  0  0  0  0  0  0  0  0  0  0
   -1.9830    4.2640  -21.0110 H   0  0  0  0  0  0  0  0  0  0  0  0
   -2.6420    4.1020  -22.6570 H   0  0  0  0  0  0  0  0  0  0  0  0
   -5.5460    6.0650  -22.0760 H   0  0  0  0  0  0  0  0  0  0  0  0
   -5.0660    4.3690  -22.2300 H   0  0  0  0  0  0  0  0  0  0  0  0
   -4.4290    5.5380  -23.3830 H   0  0  0  0  0  0  0  0  0  0  0  0
   -3.3840    4.9100  -19.4680 H   0  0  0  0  0  0  0  0  0  0  0  0
   -3.5530    6.6400  -19.6340 H   0  0  0  0  0  0  0  0  0  0  0  0
   -5.7710    6.4410  -20.3570 H   0  0  0  0  0  0  0  0  0  0  0  0
   -5.6550    4.6730  -20.2070 H   0  0  0  0  0  0  0  0  0  0  0  0
   -7.4190    5.1430  -20.1770 H   0  0  0  0  0  0  0  0  0  0  0  0
   -9.9120    4.5720  -19.9940 H   0  0  0  0  0  0  0  0  0  0  0  0
  -10.8210    4.6010  -17.3870 H   0  0  0  0  0  0  0  0  0  0  0  0
   -8.7780    4.3530  -14.6660 H   0  0  0  0  0  0  0  0  0  0  0  0
  -10.3460    4.9120  -15.1350 H   0  0  0  0  0  0  0  0  0  0  0  0
  -10.5290    5.8810  -12.8590 H   0  0  0  0  0  0  0  0  0  0  0  0
   -8.7920    4.1360  -12.4610 H   0  0  0  0  0  0  0  0  0  0  0  0
   -7.5760    5.4330  -12.4320 H   0  0  0  0  0  0  0  0  0  0  0  0
   -8.3400    2.6670  -10.8830 H   0  0  0  0  0  0  0  0  0  0  0  0
  -10.0340    2.7110  -10.3840 H   0  0  0  0  0  0  0  0  0  0  0  0
   -7.6280    2.3320   -8.7640 H   0  0  0  0  0  0  0  0  0  0  0  0
   -8.9070    1.1830   -9.0550 H   0  0  0  0  0  0  0  0  0  0  0  0
   -9.0070    2.0290   -6.9110 H   0  0  0  0  0  0  0  0  0  0  0  0
  -10.4170    2.4690   -7.8410 H   0  0  0  0  0  0  0  0  0  0  0  0
   -8.2590    4.2420   -6.6930 H   0  0  0  0  0  0  0  0  0  0  0  0
  -10.0190    4.5120   -6.7980 H   0  0  0  0  0  0  0  0  0  0  0  0
   -8.5800    7.5980  -10.1070 H   0  0  0  0  0  0  0  0  0  0  0  0
   -6.8640    5.6890  -15.9960 H   0  0  0  0  0  0  0  0  0  0  0  0
  1  2  1  0
  2  3  1  0
  2  4  1  0
  4  5  1  0
  5  6  1  0
  6  7  1  0
  7  8  2  0
  8  9  1  0
  9 10  2  0
 10 11  1  0
 11 12  1  0
 12 13  1  0
 13 14  2  0
 13 15  1  0
 15 16  1  0
 16 17  1  0
 17 18  2  0
 18 19  1  0
 19 20  1  0
 20 21  1  0
 21 22  1  0
 22 23  1  0
 23 24  1  0
 24 25  2  0
 11 26  2  0
 26  7  1  0
 25 17  1  0
 23 18  1  0
  1 27  1  0
  1 28  1  0
  1 29  1  0
  3 30  1  0
  3 31  1  0
  3 32  1  0
  4 33  1  0
  4 34  1  0
  5 35  1  0
  5 36  1  0
  8 37  1  0
  9 38  1  0
 10 39  1  0
 12 40  1  0
 12 41  1  0
 15 42  1  0
 16 43  1  0
 16 44  1  0
 19 45  1  0
 19 46  1  0
 20 47  1  0
 20 48  1  0
 21 49  1  0
 21 50  1  0
 22 51  1  0
 22 52  1  0
 25 53  1  0
 26 54  1  0
A    1
 C1 
A    2
 N1 
A    3
 C2 
A    4
 C3 
A    5
 C4 
A    6
 O1 
A    7
 C5 
A    8
 C6 
A    9
 C7 
A   10
 C8 
A   11
 C9 
A   12
 C10
A   13
 C11
A   14
 O2 
A   15
 N2 
A   16
 C12
A   17
 C13
A   18
 C14
A   19
 C15
A   20
 C16
A   21
 C17
A   22
 C18
A   23
 N3 
A   24
 N4 
A   25
 C19
A   26
 C20
A   27
 H1 
A   28
 H2 
A   29
 H3 
A   30
 H4 
A   31
 H5 
A   32
 H6 
A   33
 H7 
A   34
 H8 
A   35
 H9 
A   36
 H10
A   37
 H11
A   38
 H12
A   39
 H13
A   40
 H14
A   41
 H15
A   42
 H16
A   43
 H17
A   44
 H18
A   45
 H19
A   46
 H20
A   47
 H21
A   48
 H22
A   49
 H23
A   50
 H24
A   51
 H25
A   52
 H26
A   53
 H27
A   54
 H28
M  END
>  <ref_pdb>  (326) 
x0051_0B

>  <ref_mols>  (326) 
x0969_1B,x0904_0B

>  <original SMILES>  (326) 
[H]c1nn2c(c1C([H])([H])N([H])C(=O)C([H])([H])c1c([H])c([H])c([H])c(OC([H])([H])C([H])([H])N(C([H])([H])[H])C([H])([H])[H])c1[H])C([H])([H])C([H])([H])C([H])([H])C2([H])[H]

>  <index>  (326) 
681

>  <∆∆G>  (326) 
-9.819113

>  <∆G_bound>  (326) 
-9.298932

>  <∆G_unbound>  (326) 
0.520182

>  <comRMSD>  (326) 
0.617498

>  <N_constrained_atoms>  (326) 
24.0

>  <N_unconstrained_atoms>  (326) 
3.0

>  <runtime>  (326) 
86.886611

>  <LE>  (326) 
0.363671

>  <percent_hybrid>  (326) 
42.0

>  <dist>  (326) 
7.0

>  <ecfp4>  (326) 
0.410256

>  <daylight>  (326) 
0.372881

>  <topodist>  (326) 
2.0

>  <mces>  (326) 
27.0

>  <tdn>  (326) 
1.0

>  <tup>  (326) 
1.0

>  <rdn>  (326) 
0.0

>  <rup>  (326) 
0.0

>  <ldn>  (326) 
0.0

>  <lup>  (326) 
0.0

>  <mut>  (326) 
3.0

>  <maj>  (326) 
3.0

>  <min>  (326) 
0.0

>  <hyb>  (326) 
2.0

>  <sub>  (326) 
0.0

>  <query_index>  (326) 
111.0

>  <max_hit_Tanimoto>  (326) 
0.350823

>  <largest_ring>  (326) 
6

>  <N_interactions_kept>  (326) 
2.0

>  <N_interactions_lost>  (326) 
1.5

>  <interaction_uniqueness_metric>  (326) 
0.345148

>  <ad_hoc_penalty>  (326) 
-18.160635

>  <N_rotatable_bonds>  (326) 
10

>  <N_HA>  (326) 
26

>  <cluster>  (326) 
5594

>  <N_interactions>  (326) 
6

>  <Enamine>  (326) 
1

>  <Mcule>  (326) 
0

>  <N_PAINS>  (326) 
0

>  <UFF_Gibbs>  (326) 
178.112693

>  <strain_per_HA>  (326) 
6.850488

>  <intxn_scored>  (326) 
8.5

>  <saltbridge:HIS:51>  (326) 
0

>  <pistack:HIS:51>  (326) 
1

>  <hydroph_interaction:HIS:51>  (326) 
0

>  <hbond:ALA:132>  (326) 
0

>  <hbond:SER:135>  (326) 
0

>  <hydroph_interaction:TYR:150>  (326) 
1

>  <pistack:TYR:161>  (326) 
1

>  <hydroph_interaction:TYR:161>  (326) 
0

>  <hydroph_interaction:ASP:83>  (326) 
1

>  <hbond:TYR:130>  (326) 
0

>  <hydroph_interaction:ALA:132>  (326) 
0

>  <hbond:HIS:51>  (326) 
1

>  <hbond:ASP:129>  (326) 
0

>  <hbond:TYR:150>  (326) 
0

>  <hbond:GLY:151>  (326) 
0

>  <hbond:TYR:161>  (326) 
0

>  <hydroph_interaction:TYR:130>  (326) 
0

>  <hydroph_interaction:PRO:131>  (326) 
0

>  <hydroph_interaction:ASP:129>  (326) 
0

>  <saltbridge:ASP:75>  (326) 
0

>  <saltbridge:ASP:83>  (326) 
0

>  <hbond:ASN:152>  (326) 
0

>  <hydroph_interaction:ASN:152>  (326) 
0

>  <halogenbond:TYR:150>  (326) 
0

>  <hbond:ASP:83>  (326) 
0

>  <hydroph_interaction:VAL:155>  (326) 
0

>  <pication:TYR:161>  (326) 
0

>  <hbond:PRO:131>  (326) 
0

>  <saltbridge:ASP:129>  (326) 
1

>  <hbond:THR:134>  (326) 
0

>  <pication:HIS:51>  (326) 
0

>  <hbond:SER:81>  (326) 
0

>  <hydroph_interaction:THR:134>  (326) 
0

>  <hydroph_interaction:MET:49>  (326) 
0

$$$$
CSSS00010161262
     RDKit          3D

 18 19  0  0  0  0  0  0  0  0999 V2000
   -4.4540    5.3770  -19.1490 C   0  0  0  0  0  0  0  0  0  0  0  0
   -5.5360    5.3510  -18.1900 N   0  0  0  0  0  0  0  0  0  0  0  0
   -5.2640    5.5030  -16.8350 N   0  0  0  0  0  0  0  0  0  0  0  0
   -6.4700    5.4220  -16.2530 C   0  0  0  0  0  0  0  0  0  0  0  0
   -6.7220    5.5780  -14.2020 I   0  0  0  0  0  0  0  0  0  0  0  0
   -7.4720    5.2220  -17.1900 C   0  0  0  0  0  0  0  0  0  0  0  0
   -8.8420    5.0810  -17.0020 C   0  0  0  0  0  0  0  0  0  0  0  0
   -9.4020    5.1300  -15.7910 F   0  0  0  0  0  0  0  0  0  0  0  0
   -9.6390    4.8810  -18.1350 C   0  0  0  0  0  0  0  0  0  0  0  0
   -9.0490    4.8410  -19.4150 C   0  0  0  0  0  0  0  0  0  0  0  0
   -7.6550    4.9910  -19.5900 C   0  0  0  0  0  0  0  0  0  0  0  0
   -6.8770    5.1790  -18.4460 C   0  0  0  0  0  0  0  0  0  0  0  0
   -3.6270    4.7480  -18.8060 H   0  0  0  0  0  0  0  0  0  0  0  0
   -4.8180    4.9910  -20.1070 H   0  0  0  0  0  0  0  0  0  0  0  0
   -4.0900    6.4050  -19.2530 H   0  0  0  0  0  0  0  0  0  0  0  0
  -10.7130    4.7670  -18.0180 H   0  0  0  0  0  0  0  0  0  0  0  0
   -9.6780    4.6940  -20.2880 H   0  0  0  0  0  0  0  0  0  0  0  0
   -7.2170    4.9540  -20.5840 H   0  0  0  0  0  0  0  0  0  0  0  0
  1  2  1  0
  2  3  1  0
  3  4  2  0
  4  5  1  0
  4  6  1  0
  6  7  2  0
  7  8  1  0
  7  9  1  0
  9 10  2  0
 10 11  1  0
 11 12  2  0
 12  2  1  0
 12  6  1  0
  1 13  1  0
  1 14  1  0
  1 15  1  0
  9 16  1  0
 10 17  1  0
 11 18  1  0
A    1
 C1 
A    2
 N1 
A    3
 N2 
A    4
 C2 
A    5
 I1 
A    6
 C3 
A    7
 C4 
A    8
 F1 
A    9
 C5 
A   10
 C6 
A   11
 C7 
A   12
 C8 
A   13
 H1 
A   14
 H2 
A   15
 H3 
A   16
 H4 
A   17
 H5 
A   18
 H6 
M  END
>  <ref_pdb>  (327) 
x0051_0B

>  <ref_mols>  (327) 
x0435_0B,x0680_0B

>  <original SMILES>  (327) 
[H]c1c([H])c([H])c2c(c(I)nn2C([H])([H])[H])c1F

>  <index>  (327) 
3224

>  <∆∆G>  (327) 
-5.540155

>  <∆G_bound>  (327) 
-5.463721

>  <∆G_unbound>  (327) 
0.076433

>  <comRMSD>  (327) 
0.910588

>  <N_constrained_atoms>  (327) 
12.0

>  <N_unconstrained_atoms>  (327) 
2.0

>  <runtime>  (327) 
18.758144

>  <LE>  (327) 
0.395725

>  <percent_hybrid>  (327) 
40.0

>  <dist>  (327) 
2.0

>  <ecfp4>  (327) 
0.418605

>  <daylight>  (327) 
0.515152

>  <topodist>  (327) 
0.0

>  <mces>  (327) 
13.0

>  <tdn>  (327) 
0.0

>  <tup>  (327) 
0.0

>  <rdn>  (327) 
0.0

>  <rup>  (327) 
0.0

>  <ldn>  (327) 
0.0

>  <lup>  (327) 
0.0

>  <mut>  (327) 
2.0

>  <maj>  (327) 
2.0

>  <min>  (327) 
0.0

>  <hyb>  (327) 
0.0

>  <sub>  (327) 
0.0

>  <query_index>  (327) 
141.0

>  <max_hit_Tanimoto>  (327) 
0.14625

>  <largest_ring>  (327) 
6

>  <N_interactions_kept>  (327) 
2.5

>  <N_interactions_lost>  (327) 
2.5

>  <interaction_uniqueness_metric>  (327) 
0.034019

>  <ad_hoc_penalty>  (327) 
-4.828486

>  <N_rotatable_bonds>  (327) 
1

>  <N_HA>  (327) 
12

>  <cluster>  (327) 
3233

>  <N_interactions>  (327) 
3

>  <Enamine>  (327) 
1

>  <Mcule>  (327) 
0

>  <N_PAINS>  (327) 
0

>  <UFF_Gibbs>  (327) 
12.223377

>  <strain_per_HA>  (327) 
1.018615

>  <intxn_scored>  (327) 
8.5

>  <saltbridge:HIS:51>  (327) 
0

>  <pistack:HIS:51>  (327) 
0

>  <hydroph_interaction:HIS:51>  (327) 
0

>  <hbond:ALA:132>  (327) 
0

>  <hbond:SER:135>  (327) 
0

>  <hydroph_interaction:TYR:150>  (327) 
1

>  <pistack:TYR:161>  (327) 
2

>  <hydroph_interaction:TYR:161>  (327) 
0

>  <hydroph_interaction:ASP:83>  (327) 
0

>  <hbond:TYR:130>  (327) 
0

>  <hydroph_interaction:ALA:132>  (327) 
0

>  <hbond:HIS:51>  (327) 
0

>  <hbond:ASP:129>  (327) 
0

>  <hbond:TYR:150>  (327) 
0

>  <hbond:GLY:151>  (327) 
0

>  <hbond:TYR:161>  (327) 
0

>  <hydroph_interaction:TYR:130>  (327) 
0

>  <hydroph_interaction:PRO:131>  (327) 
0

>  <hydroph_interaction:ASP:129>  (327) 
0

>  <saltbridge:ASP:75>  (327) 
0

>  <saltbridge:ASP:83>  (327) 
0

>  <hbond:ASN:152>  (327) 
0

>  <hydroph_interaction:ASN:152>  (327) 
0

>  <halogenbond:TYR:150>  (327) 
0

>  <hbond:ASP:83>  (327) 
0

>  <hydroph_interaction:VAL:155>  (327) 
0

>  <pication:TYR:161>  (327) 
0

>  <hbond:PRO:131>  (327) 
0

>  <saltbridge:ASP:129>  (327) 
0

>  <hbond:THR:134>  (327) 
0

>  <pication:HIS:51>  (327) 
0

>  <hbond:SER:81>  (327) 
0

>  <hydroph_interaction:THR:134>  (327) 
0

>  <hydroph_interaction:MET:49>  (327) 
0

$$$$
CSSB00000016688
     RDKit          3D

 28 29  0  0  0  0  0  0  0  0999 V2000
   -3.9720    4.8870  -16.2100 C   0  0  0  0  0  0  0  0  0  0  0  0
   -5.1590    5.8320  -16.4170 C   0  0  0  0  0  0  0  0  0  0  0  0
   -5.9880    5.5620  -17.6170 N   0  0  0  0  0  0  0  0  0  0  0  0
   -5.6570    5.5190  -18.9650 C   0  0  0  0  0  0  0  0  0  0  0  0
   -4.4290    5.7010  -19.7890 N   0  0  0  0  0  0  0  0  0  0  0  0
   -3.1420    5.8550  -19.1190 C   0  0  0  0  0  0  0  0  0  0  0  0
   -2.3600    4.5600  -19.1180 C   0  0  0  0  0  0  0  0  0  0  0  0
   -2.7460    7.0680  -18.6130 O   0  0  0  0  0  0  0  0  0  0  0  0
   -6.7550    5.2430  -19.6400 N   0  0  0  0  0  0  0  0  0  0  0  0
   -7.7740    5.1160  -18.7340 C   0  0  0  0  0  0  0  0  0  0  0  0
   -9.2730    4.8020  -18.9830 C   0  0  0  0  0  0  0  0  0  0  0  0
  -10.1250    4.7270  -17.8280 C   0  0  0  0  0  0  0  0  0  0  0  0
   -9.5320    4.9390  -16.5670 C   0  0  0  0  0  0  0  0  0  0  0  0
   -8.1840    5.2170  -16.4050 C   0  0  0  0  0  0  0  0  0  0  0  0
   -7.3170    5.3090  -17.4520 C   0  0  0  0  0  0  0  0  0  0  0  0
   -3.0580    5.4120  -15.9240 H   0  0  0  0  0  0  0  0  0  0  0  0
   -3.7520    4.3310  -17.1220 H   0  0  0  0  0  0  0  0  0  0  0  0
   -4.2280    4.1870  -15.4080 H   0  0  0  0  0  0  0  0  0  0  0  0
   -5.8110    5.7770  -15.5360 H   0  0  0  0  0  0  0  0  0  0  0  0
   -4.8220    6.8760  -16.4590 H   0  0  0  0  0  0  0  0  0  0  0  0
   -4.4780    5.2390  -20.6890 H   0  0  0  0  0  0  0  0  0  0  0  0
   -2.7250    3.7430  -18.5130 H   0  0  0  0  0  0  0  0  0  0  0  0
   -1.3410    4.7490  -18.7760 H   0  0  0  0  0  0  0  0  0  0  0  0
   -2.2970    4.2110  -20.1530 H   0  0  0  0  0  0  0  0  0  0  0  0
   -9.6540    4.6490  -19.9850 H   0  0  0  0  0  0  0  0  0  0  0  0
  -11.1840    4.5150  -17.9140 H   0  0  0  0  0  0  0  0  0  0  0  0
  -10.0150    4.9180  -15.5990 H   0  0  0  0  0  0  0  0  0  0  0  0
   -7.8010    5.3710  -15.3890 H   0  0  0  0  0  0  0  0  0  0  0  0
  1  2  1  0
  2  3  1  0
  3  4  1  0
  4  5  1  0
  5  6  1  0
  6  7  1  0
  6  8  2  0
  4  9  2  0
  9 10  1  0
 10 11  2  0
 11 12  1  0
 12 13  2  0
 13 14  1  0
 14 15  2  0
 15  3  1  0
 15 10  1  0
  1 16  1  0
  1 17  1  0
  1 18  1  0
  2 19  1  0
  2 20  1  0
  5 21  1  0
  7 22  1  0
  7 23  1  0
  7 24  1  0
 11 25  1  0
 12 26  1  0
 13 27  1  0
 14 28  1  0
A    1
 C1 
A    2
 C2 
A    3
 N1 
A    4
 C3 
A    5
 N2 
A    6
 C4 
A    7
 C5 
A    8
 O1 
A    9
 N3 
A   10
 C6 
A   11
 C7 
A   12
 C8 
A   13
 C9 
A   14
 C10
A   15
 C11
A   16
 H1 
A   17
 H2 
A   18
 H3 
A   19
 H4 
A   20
 H5 
A   21
 H6 
A   22
 H7 
A   23
 H8 
A   24
 H9 
A   25
 H10
A   26
 H11
A   27
 H12
A   28
 H13
M  END
>  <ref_pdb>  (328) 
x0051_0B

>  <ref_mols>  (328) 
x0089_0B,x0727_0B

>  <original SMILES>  (328) 
[H]c1c([H])c([H])c2c(nc(N([H])C(=O)C([H])([H])[H])n2C([H])([H])C([H])([H])[H])c1[H]

>  <index>  (328) 
2191

>  <∆∆G>  (328) 
-7.825501

>  <∆G_bound>  (328) 
-7.544206

>  <∆G_unbound>  (328) 
0.281295

>  <comRMSD>  (328) 
0.509104

>  <N_constrained_atoms>  (328) 
15.0

>  <N_unconstrained_atoms>  (328) 
0.0

>  <runtime>  (328) 
24.2522

>  <LE>  (328) 
0.5217

>  <percent_hybrid>  (328) 
40.0

>  <dist>  (328) 
3.0

>  <ecfp4>  (328) 
0.352941

>  <daylight>  (328) 
0.451613

>  <topodist>  (328) 
0.0

>  <mces>  (328) 
16.0

>  <tdn>  (328) 
0.0

>  <tup>  (328) 
0.0

>  <rdn>  (328) 
0.0

>  <rup>  (328) 
0.0

>  <ldn>  (328) 
0.0

>  <lup>  (328) 
0.0

>  <mut>  (328) 
2.0

>  <maj>  (328) 
2.0

>  <min>  (328) 
0.0

>  <hyb>  (328) 
1.0

>  <sub>  (328) 
0.0

>  <query_index>  (328) 
85.0

>  <max_hit_Tanimoto>  (328) 
0.430508

>  <largest_ring>  (328) 
6

>  <N_interactions_kept>  (328) 
0.0

>  <N_interactions_lost>  (328) 
4.0

>  <interaction_uniqueness_metric>  (328) 
0.080552

>  <ad_hoc_penalty>  (328) 
-5.58903

>  <N_rotatable_bonds>  (328) 
4

>  <N_HA>  (328) 
15

>  <cluster>  (328) 
177

>  <N_interactions>  (328) 
7

>  <Enamine>  (328) 
1

>  <Mcule>  (328) 
0

>  <N_PAINS>  (328) 
0

>  <UFF_Gibbs>  (328) 
88.93525

>  <strain_per_HA>  (328) 
5.929017

>  <intxn_scored>  (328) 
8.5

>  <saltbridge:HIS:51>  (328) 
0

>  <pistack:HIS:51>  (328) 
0

>  <hydroph_interaction:HIS:51>  (328) 
0

>  <hbond:ALA:132>  (328) 
0

>  <hbond:SER:135>  (328) 
0

>  <hydroph_interaction:TYR:150>  (328) 
1

>  <pistack:TYR:161>  (328) 
1

>  <hydroph_interaction:TYR:161>  (328) 
4

>  <hydroph_interaction:ASP:83>  (328) 
0

>  <hbond:TYR:130>  (328) 
0

>  <hydroph_interaction:ALA:132>  (328) 
0

>  <hbond:HIS:51>  (328) 
0

>  <hbond:ASP:129>  (328) 
0

>  <hbond:TYR:150>  (328) 
0

>  <hbond:GLY:151>  (328) 
0

>  <hbond:TYR:161>  (328) 
0

>  <hydroph_interaction:TYR:130>  (328) 
0

>  <hydroph_interaction:PRO:131>  (328) 
0

>  <hydroph_interaction:ASP:129>  (328) 
0

>  <saltbridge:ASP:75>  (328) 
0

>  <saltbridge:ASP:83>  (328) 
0

>  <hbond:ASN:152>  (328) 
0

>  <hydroph_interaction:ASN:152>  (328) 
0

>  <halogenbond:TYR:150>  (328) 
0

>  <hbond:ASP:83>  (328) 
0

>  <hydroph_interaction:VAL:155>  (328) 
1

>  <pication:TYR:161>  (328) 
0

>  <hbond:PRO:131>  (328) 
0

>  <saltbridge:ASP:129>  (328) 
0

>  <hbond:THR:134>  (328) 
0

>  <pication:HIS:51>  (328) 
0

>  <hbond:SER:81>  (328) 
0

>  <hydroph_interaction:THR:134>  (328) 
0

>  <hydroph_interaction:MET:49>  (328) 
0

$$$$
CSSS00010240557
     RDKit          3D

 27 28  0  0  0  0  0  0  0  0999 V2000
   -2.7950    4.8160  -18.6590 C   0  0  0  0  0  0  0  0  0  0  0  0
   -3.7350    5.6830  -18.0410 O   0  0  0  0  0  0  0  0  0  0  0  0
   -5.0570    5.4910  -18.3170 C   0  0  0  0  0  0  0  0  0  0  0  0
   -5.9250    5.4120  -17.2170 C   0  0  0  0  0  0  0  0  0  0  0  0
   -5.3420    5.5400  -15.8560 C   0  0  0  0  0  0  0  0  0  0  0  0
   -3.9670    4.9650  -15.6300 C   0  0  0  0  0  0  0  0  0  0  0  0
   -5.9660    6.0960  -14.9540 O   0  0  0  0  0  0  0  0  0  0  0  0
   -7.3210    5.2130  -17.3860 C   0  0  0  0  0  0  0  0  0  0  0  0
   -8.2520    5.1200  -16.3310 C   0  0  0  0  0  0  0  0  0  0  0  0
   -9.6080    4.9170  -16.5760 C   0  0  0  0  0  0  0  0  0  0  0  0
  -10.0770    4.8040  -17.8800 C   0  0  0  0  0  0  0  0  0  0  0  0
   -9.1840    4.8910  -18.9390 C   0  0  0  0  0  0  0  0  0  0  0  0
   -7.8170    5.0920  -18.7060 C   0  0  0  0  0  0  0  0  0  0  0  0
   -6.9410    5.1740  -19.7900 C   0  0  0  0  0  0  0  0  0  0  0  0
   -5.5770    5.3720  -19.6000 C   0  0  0  0  0  0  0  0  0  0  0  0
   -2.9070    4.8270  -19.7490 H   0  0  0  0  0  0  0  0  0  0  0  0
   -1.7910    5.1810  -18.4230 H   0  0  0  0  0  0  0  0  0  0  0  0
   -2.8780    3.8050  -18.2600 H   0  0  0  0  0  0  0  0  0  0  0  0
   -3.7000    4.3100  -16.4620 H   0  0  0  0  0  0  0  0  0  0  0  0
   -3.9220    4.3970  -14.6950 H   0  0  0  0  0  0  0  0  0  0  0  0
   -3.2480    5.7860  -15.5580 H   0  0  0  0  0  0  0  0  0  0  0  0
   -7.9310    5.2020  -15.2950 H   0  0  0  0  0  0  0  0  0  0  0  0
  -10.2970    4.8500  -15.7370 H   0  0  0  0  0  0  0  0  0  0  0  0
  -11.1340    4.6480  -18.0750 H   0  0  0  0  0  0  0  0  0  0  0  0
   -9.5630    4.7990  -19.9550 H   0  0  0  0  0  0  0  0  0  0  0  0
   -7.3170    5.0810  -20.8060 H   0  0  0  0  0  0  0  0  0  0  0  0
   -4.9500    5.4230  -20.4860 H   0  0  0  0  0  0  0  0  0  0  0  0
  1  2  1  0
  2  3  1  0
  3  4  2  0
  4  5  1  0
  5  6  1  0
  5  7  2  0
  4  8  1  0
  8  9  2  0
  9 10  1  0
 10 11  2  0
 11 12  1  0
 12 13  2  0
 13 14  1  0
 14 15  2  0
 15  3  1  0
 13  8  1  0
  1 16  1  0
  1 17  1  0
  1 18  1  0
  6 19  1  0
  6 20  1  0
  6 21  1  0
  9 22  1  0
 10 23  1  0
 11 24  1  0
 12 25  1  0
 14 26  1  0
 15 27  1  0
A    1
 C1 
A    2
 O1 
A    3
 C2 
A    4
 C3 
A    5
 C4 
A    6
 C5 
A    7
 O2 
A    8
 C6 
A    9
 C7 
A   10
 C8 
A   11
 C9 
A   12
 C10
A   13
 C11
A   14
 C12
A   15
 C13
A   16
 H1 
A   17
 H2 
A   18
 H3 
A   19
 H4 
A   20
 H5 
A   21
 H6 
A   22
 H7 
A   23
 H8 
A   24
 H9 
A   25
 H10
A   26
 H11
A   27
 H12
M  END
>  <ref_pdb>  (329) 
x0051_0B

>  <ref_mols>  (329) 
x0727_0B,x0800_0B

>  <original SMILES>  (329) 
[H]c1c([H])c([H])c2c(C(=O)C([H])([H])[H])c(OC([H])([H])[H])c([H])c([H])c2c1[H]

>  <index>  (329) 
2958

>  <∆∆G>  (329) 
-8.64872

>  <∆G_bound>  (329) 
-8.987952

>  <∆G_unbound>  (329) 
-0.339232

>  <comRMSD>  (329) 
0.569149

>  <N_constrained_atoms>  (329) 
16.0

>  <N_unconstrained_atoms>  (329) 
2.0

>  <runtime>  (329) 
24.210345

>  <LE>  (329) 
0.480484

>  <percent_hybrid>  (329) 
45.0

>  <dist>  (329) 
3.0

>  <ecfp4>  (329) 
0.25

>  <daylight>  (329) 
0.25

>  <topodist>  (329) 
2.0

>  <mces>  (329) 
14.0

>  <tdn>  (329) 
0.0

>  <tup>  (329) 
2.0

>  <rdn>  (329) 
0.0

>  <rup>  (329) 
0.0

>  <ldn>  (329) 
0.0

>  <lup>  (329) 
0.0

>  <mut>  (329) 
1.0

>  <maj>  (329) 
1.0

>  <min>  (329) 
0.0

>  <hyb>  (329) 
0.0

>  <sub>  (329) 
1.0

>  <query_index>  (329) 
67.0

>  <max_hit_Tanimoto>  (329) 
0.147959

>  <largest_ring>  (329) 
6

>  <N_interactions_kept>  (329) 
0.0

>  <N_interactions_lost>  (329) 
4.0

>  <interaction_uniqueness_metric>  (329) 
0.047384

>  <ad_hoc_penalty>  (329) 
-5.296871

>  <N_rotatable_bonds>  (329) 
4

>  <N_HA>  (329) 
15

>  <cluster>  (329) 
3486

>  <N_interactions>  (329) 
6

>  <Enamine>  (329) 
1

>  <Mcule>  (329) 
0

>  <N_PAINS>  (329) 
0

>  <UFF_Gibbs>  (329) 
29.173878

>  <strain_per_HA>  (329) 
1.944925

>  <intxn_scored>  (329) 
8.5

>  <saltbridge:HIS:51>  (329) 
0

>  <pistack:HIS:51>  (329) 
0

>  <hydroph_interaction:HIS:51>  (329) 
0

>  <hbond:ALA:132>  (329) 
0

>  <hbond:SER:135>  (329) 
0

>  <hydroph_interaction:TYR:150>  (329) 
1

>  <pistack:TYR:161>  (329) 
1

>  <hydroph_interaction:TYR:161>  (329) 
4

>  <hydroph_interaction:ASP:83>  (329) 
0

>  <hbond:TYR:130>  (329) 
0

>  <hydroph_interaction:ALA:132>  (329) 
0

>  <hbond:HIS:51>  (329) 
0

>  <hbond:ASP:129>  (329) 
0

>  <hbond:TYR:150>  (329) 
0

>  <hbond:GLY:151>  (329) 
0

>  <hbond:TYR:161>  (329) 
0

>  <hydroph_interaction:TYR:130>  (329) 
0

>  <hydroph_interaction:PRO:131>  (329) 
0

>  <hydroph_interaction:ASP:129>  (329) 
0

>  <saltbridge:ASP:75>  (329) 
0

>  <saltbridge:ASP:83>  (329) 
0

>  <hbond:ASN:152>  (329) 
0

>  <hydroph_interaction:ASN:152>  (329) 
0

>  <halogenbond:TYR:150>  (329) 
0

>  <hbond:ASP:83>  (329) 
0

>  <hydroph_interaction:VAL:155>  (329) 
0

>  <pication:TYR:161>  (329) 
0

>  <hbond:PRO:131>  (329) 
0

>  <saltbridge:ASP:129>  (329) 
0

>  <hbond:THR:134>  (329) 
0

>  <pication:HIS:51>  (329) 
0

>  <hbond:SER:81>  (329) 
0

>  <hydroph_interaction:THR:134>  (329) 
0

>  <hydroph_interaction:MET:49>  (329) 
0

$$$$
Z2368543926
     RDKit          3D

 36 38  0  0  0  0  0  0  0  0999 V2000
   -7.7610    5.2000  -15.1710 C   0  0  0  0  0  0  0  0  0  0  0  0
   -8.1650    5.1120  -16.6050 C   0  0  0  0  0  0  0  0  0  0  0  0
   -7.2880    5.2930  -17.6750 C   0  0  0  0  0  0  0  0  0  0  0  0
   -5.9050    5.5810  -17.6070 C   0  0  0  0  0  0  0  0  0  0  0  0
   -5.2890    5.6900  -16.2720 N   0  0  0  0  0  0  0  0  0  0  0  0
   -5.3030    7.0360  -15.6690 C   0  0  0  0  0  0  0  0  0  0  0  0
   -4.2510    7.2400  -14.7520 C   0  0  0  0  0  0  0  0  0  0  0  0
   -3.9060    6.0570  -13.9160 N   0  0  0  0  0  0  0  0  0  0  0  0
   -3.5040    4.9380  -14.8060 C   0  0  2  0  0  0  0  0  0  0  0  0
   -2.1770    4.8020  -14.7890 C   0  0  0  0  0  0  0  0  0  0  0  0
   -4.0110    5.1600  -16.2450 C   0  0  0  0  0  0  0  0  0  0  0  0
   -5.1250    5.7490  -18.6890 N   0  0  0  0  0  0  0  0  0  0  0  0
   -5.7190    5.6210  -19.8690 C   0  0  0  0  0  0  0  0  0  0  0  0
   -7.0020    5.3470  -20.0670 N   0  0  0  0  0  0  0  0  0  0  0  0
   -7.7750    5.1870  -18.9940 C   0  0  0  0  0  0  0  0  0  0  0  0
   -9.1100    4.9010  -19.2650 C   0  0  0  0  0  0  0  0  0  0  0  0
   -9.9490    4.7290  -18.1610 C   0  0  0  0  0  0  0  0  0  0  0  0
   -9.5070    4.8290  -16.8570 C   0  0  0  0  0  0  0  0  0  0  0  0
   -8.5020    4.6890  -14.5490 H   0  0  0  0  0  0  0  0  0  0  0  0
   -6.7840    4.7300  -15.0130 H   0  0  0  0  0  0  0  0  0  0  0  0
   -7.6850    6.2390  -14.8450 H   0  0  0  0  0  0  0  0  0  0  0  0
   -5.1990    7.7620  -16.4880 H   0  0  0  0  0  0  0  0  0  0  0  0
   -6.2600    7.2600  -15.1840 H   0  0  0  0  0  0  0  0  0  0  0  0
   -4.5320    8.0570  -14.0780 H   0  0  0  0  0  0  0  0  0  0  0  0
   -3.3520    7.5810  -15.2790 H   0  0  0  0  0  0  0  0  0  0  0  0
   -4.7390    5.7730  -13.4120 H   0  0  0  0  0  0  0  0  0  0  0  0
   -3.9270    4.0120  -14.3980 H   0  0  0  0  0  0  0  0  0  0  0  0
   -1.5580    5.3590  -14.0970 H   0  0  0  0  0  0  0  0  0  0  0  0
   -1.6740    4.8940  -15.7510 H   0  0  0  0  0  0  0  0  0  0  0  0
   -2.0610    3.7480  -14.5010 H   0  0  0  0  0  0  0  0  0  0  0  0
   -3.3190    5.7990  -16.8020 H   0  0  0  0  0  0  0  0  0  0  0  0
   -4.0480    4.2050  -16.7680 H   0  0  0  0  0  0  0  0  0  0  0  0
   -5.0940    5.7520  -20.7600 H   0  0  0  0  0  0  0  0  0  0  0  0
   -9.4840    4.8170  -20.2830 H   0  0  0  0  0  0  0  0  0  0  0  0
  -10.9800    4.5090  -18.4420 H   0  0  0  0  0  0  0  0  0  0  0  0
  -10.2160    4.6810  -16.0340 H   0  0  0  0  0  0  0  0  0  0  0  0
  1  2  1  0
  2  3  2  0
  3  4  1  0
  4  5  1  0
  5  6  1  0
  6  7  1  0
  7  8  1  0
  8  9  1  0
  9 10  1  0
  9 11  1  0
  4 12  2  0
 12 13  1  0
 13 14  2  0
 14 15  1  0
 15 16  2  0
 16 17  1  0
 17 18  2  0
 18  2  1  0
 15  3  1  0
 11  5  1  0
  1 19  1  0
  1 20  1  0
  1 21  1  0
  6 22  1  0
  6 23  1  0
  7 24  1  0
  7 25  1  0
  8 26  1  0
  9 27  1  1
 10 28  1  0
 10 29  1  0
 10 30  1  0
 11 31  1  0
 11 32  1  0
 13 33  1  0
 16 34  1  0
 17 35  1  0
 18 36  1  0
A    1
 C1 
A    2
 C2 
A    3
 C3 
A    4
 C4 
A    5
 N1 
A    6
 C5 
A    7
 C6 
A    8
 N2 
A    9
 C7 
A   10
 C8 
A   11
 C9 
A   12
 N3 
A   13
 C10
A   14
 N4 
A   15
 C11
A   16
 C12
A   17
 C13
A   18
 C14
A   19
 H1 
A   20
 H2 
A   21
 H3 
A   22
 H4 
A   23
 H5 
A   24
 H6 
A   25
 H7 
A   26
 H8 
A   27
 H9 
A   28
 H10
A   29
 H11
A   30
 H12
A   31
 H13
A   32
 H14
A   33
 H15
A   34
 H16
A   35
 H17
A   36
 H18
M  END
>  <ref_pdb>  (330) 
x0051_0B

>  <ref_mols>  (330) 
x0429_0B,x0693_0B

>  <original SMILES>  (330) 
[H]c1nc(N2C([H])([H])C([H])([H])N([H])[C@]([H])(C([H])([H])[H])C2([H])[H])c2c(C([H])([H])[H])c([H])c([H])c([H])c2n1

>  <index>  (330) 
630

>  <∆∆G>  (330) 
-7.291916

>  <∆G_bound>  (330) 
-6.312865

>  <∆G_unbound>  (330) 
0.97905

>  <comRMSD>  (330) 
0.542527

>  <N_constrained_atoms>  (330) 
18.0

>  <N_unconstrained_atoms>  (330) 
1.0

>  <runtime>  (330) 
22.957535

>  <LE>  (330) 
0.383785

>  <percent_hybrid>  (330) 
20.0

>  <dist>  (330) 
2.0

>  <ecfp4>  (330) 
0.470588

>  <daylight>  (330) 
0.572581

>  <topodist>  (330) 
1.0

>  <mces>  (330) 
19.0

>  <tdn>  (330) 
0.0

>  <tup>  (330) 
1.0

>  <rdn>  (330) 
0.0

>  <rup>  (330) 
0.0

>  <ldn>  (330) 
0.0

>  <lup>  (330) 
0.0

>  <mut>  (330) 
1.0

>  <maj>  (330) 
1.0

>  <min>  (330) 
0.0

>  <hyb>  (330) 
0.0

>  <sub>  (330) 
1.0

>  <query_index>  (330) 
179.0

>  <max_hit_Tanimoto>  (330) 
0.390661

>  <largest_ring>  (330) 
6

>  <N_interactions_kept>  (330) 
3.0

>  <N_interactions_lost>  (330) 
1.5

>  <interaction_uniqueness_metric>  (330) 
0.067187

>  <ad_hoc_penalty>  (330) 
-17.837767

>  <N_rotatable_bonds>  (330) 
3

>  <N_HA>  (330) 
18

>  <cluster>  (330) 
5643

>  <N_interactions>  (330) 
4

>  <Enamine>  (330) 
1

>  <Mcule>  (330) 
0

>  <N_PAINS>  (330) 
0

>  <UFF_Gibbs>  (330) 
87.702939

>  <strain_per_HA>  (330) 
4.872386

>  <intxn_scored>  (330) 
8.5

>  <saltbridge:HIS:51>  (330) 
0

>  <pistack:HIS:51>  (330) 
0

>  <hydroph_interaction:HIS:51>  (330) 
0

>  <hbond:ALA:132>  (330) 
0

>  <hbond:SER:135>  (330) 
0

>  <hydroph_interaction:TYR:150>  (330) 
1

>  <pistack:TYR:161>  (330) 
2

>  <hydroph_interaction:TYR:161>  (330) 
0

>  <hydroph_interaction:ASP:83>  (330) 
0

>  <hbond:TYR:130>  (330) 
0

>  <hydroph_interaction:ALA:132>  (330) 
0

>  <hbond:HIS:51>  (330) 
0

>  <hbond:ASP:129>  (330) 
0

>  <hbond:TYR:150>  (330) 
0

>  <hbond:GLY:151>  (330) 
0

>  <hbond:TYR:161>  (330) 
0

>  <hydroph_interaction:TYR:130>  (330) 
0

>  <hydroph_interaction:PRO:131>  (330) 
0

>  <hydroph_interaction:ASP:129>  (330) 
0

>  <saltbridge:ASP:75>  (330) 
0

>  <saltbridge:ASP:83>  (330) 
0

>  <hbond:ASN:152>  (330) 
0

>  <hydroph_interaction:ASN:152>  (330) 
0

>  <halogenbond:TYR:150>  (330) 
0

>  <hbond:ASP:83>  (330) 
0

>  <hydroph_interaction:VAL:155>  (330) 
1

>  <pication:TYR:161>  (330) 
0

>  <hbond:PRO:131>  (330) 
0

>  <saltbridge:ASP:129>  (330) 
0

>  <hbond:THR:134>  (330) 
0

>  <pication:HIS:51>  (330) 
0

>  <hbond:SER:81>  (330) 
0

>  <hydroph_interaction:THR:134>  (330) 
0

>  <hydroph_interaction:MET:49>  (330) 
0

$$$$
CSSS00000011452
     RDKit          3D

 24 25  0  0  0  0  0  0  0  0999 V2000
   -3.9760    5.0180  -15.5440 C   0  0  0  0  0  0  0  0  0  0  0  0
   -5.3350    5.5500  -15.9300 C   0  0  0  0  0  0  0  0  0  0  0  0
   -5.9860    6.1860  -14.8210 O   0  0  0  0  0  0  0  0  0  0  0  0
   -5.8650    5.4300  -17.2380 C   0  0  0  0  0  0  0  0  0  0  0  0
   -4.9690    5.5020  -18.3110 C   0  0  0  0  0  0  0  0  0  0  0  0
   -3.6380    5.6810  -18.0830 O   0  0  0  0  0  0  0  0  0  0  0  0
   -5.4230    5.3890  -19.6000 C   0  0  0  0  0  0  0  0  0  0  0  0
   -6.8860    5.1810  -19.8260 C   0  0  0  0  0  0  0  0  0  0  0  0
   -7.7590    5.1090  -18.7550 C   0  0  0  0  0  0  0  0  0  0  0  0
   -9.2350    4.8920  -18.9830 C   0  0  0  0  0  0  0  0  0  0  0  0
  -10.0770    4.8230  -17.8770 C   0  0  0  0  0  0  0  0  0  0  0  0
   -9.5630    4.9540  -16.5800 C   0  0  0  0  0  0  0  0  0  0  0  0
   -8.1890    5.1540  -16.3670 C   0  0  0  0  0  0  0  0  0  0  0  0
   -7.2710    5.2340  -17.4270 C   0  0  0  0  0  0  0  0  0  0  0  0
   -4.0550    4.3630  -14.6700 H   0  0  0  0  0  0  0  0  0  0  0  0
   -3.2960    5.8480  -15.3160 H   0  0  0  0  0  0  0  0  0  0  0  0
   -3.5530    4.4550  -16.3830 H   0  0  0  0  0  0  0  0  0  0  0  0
   -3.4380    6.6330  -18.0850 H   0  0  0  0  0  0  0  0  0  0  0  0
   -4.7560    5.4420  -20.4540 H   0  0  0  0  0  0  0  0  0  0  0  0
   -7.2540    5.0860  -20.8530 H   0  0  0  0  0  0  0  0  0  0  0  0
   -9.6460    4.7940  -19.9860 H   0  0  0  0  0  0  0  0  0  0  0  0
  -11.1410    4.6660  -18.0270 H   0  0  0  0  0  0  0  0  0  0  0  0
  -10.2250    4.8990  -15.7220 H   0  0  0  0  0  0  0  0  0  0  0  0
   -7.8380    5.2450  -15.3440 H   0  0  0  0  0  0  0  0  0  0  0  0
  1  2  1  0
  2  3  2  0
  2  4  1  0
  4  5  2  0
  5  6  1  0
  5  7  1  0
  7  8  2  0
  8  9  1  0
  9 10  2  0
 10 11  1  0
 11 12  2  0
 12 13  1  0
 13 14  2  0
 14  4  1  0
 14  9  1  0
  1 15  1  0
  1 16  1  0
  1 17  1  0
  6 18  1  0
  7 19  1  0
  8 20  1  0
 10 21  1  0
 11 22  1  0
 12 23  1  0
 13 24  1  0
A    1
 C1 
A    2
 C2 
A    3
 O1 
A    4
 C3 
A    5
 C4 
A    6
 O2 
A    7
 C5 
A    8
 C6 
A    9
 C7 
A   10
 C8 
A   11
 C9 
A   12
 C10
A   13
 C11
A   14
 C12
A   15
 H1 
A   16
 H2 
A   17
 H3 
A   18
 H4 
A   19
 H5 
A   20
 H6 
A   21
 H7 
A   22
 H8 
A   23
 H9 
A   24
 H10
M  END
>  <ref_pdb>  (331) 
x0051_0B

>  <ref_mols>  (331) 
x0727_0B,x0800_0B

>  <original SMILES>  (331) 
[H]Oc1c([H])c([H])c2c([H])c([H])c([H])c([H])c2c1C(=O)C([H])([H])[H]

>  <index>  (331) 
2845

>  <∆∆G>  (331) 
-7.65185

>  <∆G_bound>  (331) 
-7.516168

>  <∆G_unbound>  (331) 
0.135683

>  <comRMSD>  (331) 
0.830034

>  <N_constrained_atoms>  (331) 
16.0

>  <N_unconstrained_atoms>  (331) 
1.0

>  <runtime>  (331) 
21.783516

>  <LE>  (331) 
0.450109

>  <percent_hybrid>  (331) 
45.0

>  <dist>  (331) 
2.0

>  <ecfp4>  (331) 
0.432432

>  <daylight>  (331) 
0.285714

>  <topodist>  (331) 
1.0

>  <mces>  (331) 
14.0

>  <tdn>  (331) 
0.0

>  <tup>  (331) 
1.0

>  <rdn>  (331) 
0.0

>  <rup>  (331) 
0.0

>  <ldn>  (331) 
0.0

>  <lup>  (331) 
0.0

>  <mut>  (331) 
1.0

>  <maj>  (331) 
1.0

>  <min>  (331) 
0.0

>  <hyb>  (331) 
0.0

>  <sub>  (331) 
0.0

>  <query_index>  (331) 
67.0

>  <max_hit_Tanimoto>  (331) 
0.148008

>  <largest_ring>  (331) 
6

>  <N_interactions_kept>  (331) 
0.0

>  <N_interactions_lost>  (331) 
4.0

>  <interaction_uniqueness_metric>  (331) 
0.047384

>  <ad_hoc_penalty>  (331) 
-3.162066

>  <N_rotatable_bonds>  (331) 
3

>  <N_HA>  (331) 
14

>  <cluster>  (331) 
3591

>  <N_interactions>  (331) 
6

>  <Enamine>  (331) 
1

>  <Mcule>  (331) 
0

>  <N_PAINS>  (331) 
0

>  <UFF_Gibbs>  (331) 
64.248394

>  <strain_per_HA>  (331) 
4.589171

>  <intxn_scored>  (331) 
8.5

>  <saltbridge:HIS:51>  (331) 
0

>  <pistack:HIS:51>  (331) 
0

>  <hydroph_interaction:HIS:51>  (331) 
0

>  <hbond:ALA:132>  (331) 
0

>  <hbond:SER:135>  (331) 
0

>  <hydroph_interaction:TYR:150>  (331) 
1

>  <pistack:TYR:161>  (331) 
1

>  <hydroph_interaction:TYR:161>  (331) 
4

>  <hydroph_interaction:ASP:83>  (331) 
0

>  <hbond:TYR:130>  (331) 
0

>  <hydroph_interaction:ALA:132>  (331) 
0

>  <hbond:HIS:51>  (331) 
0

>  <hbond:ASP:129>  (331) 
0

>  <hbond:TYR:150>  (331) 
0

>  <hbond:GLY:151>  (331) 
0

>  <hbond:TYR:161>  (331) 
0

>  <hydroph_interaction:TYR:130>  (331) 
0

>  <hydroph_interaction:PRO:131>  (331) 
0

>  <hydroph_interaction:ASP:129>  (331) 
0

>  <saltbridge:ASP:75>  (331) 
0

>  <saltbridge:ASP:83>  (331) 
0

>  <hbond:ASN:152>  (331) 
0

>  <hydroph_interaction:ASN:152>  (331) 
0

>  <halogenbond:TYR:150>  (331) 
0

>  <hbond:ASP:83>  (331) 
0

>  <hydroph_interaction:VAL:155>  (331) 
0

>  <pication:TYR:161>  (331) 
0

>  <hbond:PRO:131>  (331) 
0

>  <saltbridge:ASP:129>  (331) 
0

>  <hbond:THR:134>  (331) 
0

>  <pication:HIS:51>  (331) 
0

>  <hbond:SER:81>  (331) 
0

>  <hydroph_interaction:THR:134>  (331) 
0

>  <hydroph_interaction:MET:49>  (331) 
0

$$$$
PV-006953689538
     RDKit          3D

 47 50  0  0  0  0  0  0  0  0999 V2000
   -7.3590    4.4030  -20.7390 O   0  0  0  0  0  0  0  0  0  0  0  0
   -6.5130    5.0210  -20.0960 C   0  0  0  0  0  0  0  0  0  0  0  0
   -6.6420    5.5030  -18.8190 N   0  0  0  0  0  0  0  0  0  0  0  0
   -7.7280    5.3870  -17.9430 C   0  0  0  0  0  0  0  0  0  0  0  0
   -7.5110    5.8870  -16.6520 C   0  0  0  0  0  0  0  0  0  0  0  0
   -8.5160    5.8500  -15.6750 C   0  0  0  0  0  0  0  0  0  0  0  0
   -8.3090    6.4040  -14.3600 C   0  0  0  0  0  0  0  0  0  0  0  0
   -7.8970    5.5370  -13.2640 N   0  0  0  0  0  0  0  0  0  0  0  0
   -8.8010    4.9320  -12.4020 C   0  0  0  0  0  0  0  0  0  0  0  0
   -9.6010    4.1180  -12.8320 O   0  0  0  0  0  0  0  0  0  0  0  0
   -8.8030    5.2350  -10.9170 C   0  0  0  0  0  0  0  0  0  0  0  0
   -8.9430    4.3070   -9.9070 C   0  0  0  0  0  0  0  0  0  0  0  0
   -9.0960    2.9950   -9.9740 O   0  0  0  0  0  0  0  0  0  0  0  0
   -9.5210    2.2640   -8.8060 C   0  0  0  0  0  0  0  0  0  0  0  0
   -9.5190    2.8980   -7.6150 C   0  0  0  0  0  0  0  0  0  0  0  0
   -9.0160    4.3280   -7.4560 C   0  0  0  0  0  0  0  0  0  0  0  0
   -8.8990    4.9820   -8.7340 N   0  0  0  0  0  0  0  0  0  0  0  0
   -8.7370    6.3070   -8.8630 N   0  0  0  0  0  0  0  0  0  0  0  0
   -8.6800    6.4650  -10.2030 C   0  0  0  0  0  0  0  0  0  0  0  0
   -9.7320    5.2820  -16.0400 C   0  0  0  0  0  0  0  0  0  0  0  0
   -9.9530    4.7840  -17.3360 C   0  0  0  0  0  0  0  0  0  0  0  0
   -8.9520    4.8330  -18.2950 C   0  0  0  0  0  0  0  0  0  0  0  0
   -5.1880    5.2870  -20.7150 C   0  0  0  0  0  0  0  0  0  0  0  0
   -5.0910    5.5350  -22.1970 C   0  0  0  0  0  0  0  0  0  0  0  0
   -3.8300    5.7670  -22.7180 C   0  0  0  0  0  0  0  0  0  0  0  0
   -2.7030    5.7850  -21.9680 N   0  0  0  0  0  0  0  0  0  0  0  0
   -2.8200    5.5630  -20.6340 C   0  0  0  0  0  0  0  0  0  0  0  0
   -4.0100    5.3200  -19.9800 C   0  0  0  0  0  0  0  0  0  0  0  0
   -3.9970    5.1150  -18.6540 F   0  0  0  0  0  0  0  0  0  0  0  0
   -5.9130    6.1270  -18.4930 H   0  0  0  0  0  0  0  0  0  0  0  0
   -6.5500    6.3250  -16.3900 H   0  0  0  0  0  0  0  0  0  0  0  0
   -9.2290    6.9260  -14.0690 H   0  0  0  0  0  0  0  0  0  0  0  0
   -7.5410    7.1800  -14.4260 H   0  0  0  0  0  0  0  0  0  0  0  0
   -6.9580    5.1550  -13.2880 H   0  0  0  0  0  0  0  0  0  0  0  0
  -10.4380    1.8420   -9.1310 H   0  0  0  0  0  0  0  0  0  0  0  0
   -8.8400    1.4150   -8.7290 H   0  0  0  0  0  0  0  0  0  0  0  0
   -8.9620    2.2760   -6.9080 H   0  0  0  0  0  0  0  0  0  0  0  0
  -10.5570    2.8880   -7.2590 H   0  0  0  0  0  0  0  0  0  0  0  0
   -9.6960    4.9120   -6.8290 H   0  0  0  0  0  0  0  0  0  0  0  0
   -8.0160    4.3370   -7.0060 H   0  0  0  0  0  0  0  0  0  0  0  0
   -8.5530    7.4590  -10.6140 H   0  0  0  0  0  0  0  0  0  0  0  0
  -10.5240    5.2330  -15.3040 H   0  0  0  0  0  0  0  0  0  0  0  0
  -10.9100    4.3620  -17.5990 H   0  0  0  0  0  0  0  0  0  0  0  0
   -9.1570    4.4400  -19.2860 H   0  0  0  0  0  0  0  0  0  0  0  0
   -5.9690    5.5290  -22.8370 H   0  0  0  0  0  0  0  0  0  0  0  0
   -3.6880    5.9500  -23.7800 H   0  0  0  0  0  0  0  0  0  0  0  0
   -1.8870    5.5880  -20.0780 H   0  0  0  0  0  0  0  0  0  0  0  0
  1  2  2  0
  2  3  1  0
  3  4  1  0
  4  5  2  0
  5  6  1  0
  6  7  1  0
  7  8  1  0
  8  9  1  0
  9 10  2  0
  9 11  1  0
 11 12  2  0
 12 13  1  0
 13 14  1  0
 14 15  1  0
 15 16  1  0
 16 17  1  0
 17 18  1  0
 18 19  2  0
  6 20  2  0
 20 21  1  0
 21 22  2  0
  2 23  1  0
 23 24  2  0
 24 25  1  0
 25 26  2  0
 26 27  1  0
 27 28  2  0
 28 29  1  0
 22  4  1  0
 19 11  1  0
 17 12  1  0
 28 23  1  0
  3 30  1  0
  5 31  1  0
  7 32  1  0
  7 33  1  0
  8 34  1  0
 14 35  1  0
 14 36  1  0
 15 37  1  0
 15 38  1  0
 16 39  1  0
 16 40  1  0
 19 41  1  0
 20 42  1  0
 21 43  1  0
 22 44  1  0
 24 45  1  0
 25 46  1  0
 27 47  1  0
A    1
 O1 
A    2
 C1 
A    3
 N1 
A    4
 C2 
A    5
 C3 
A    6
 C4 
A    7
 C5 
A    8
 N2 
A    9
 C6 
A   10
 O2 
A   11
 C7 
A   12
 C8 
A   13
 O3 
A   14
 C9 
A   15
 C10
A   16
 C11
A   17
 N3 
A   18
 N4 
A   19
 C12
A   20
 C13
A   21
 C14
A   22
 C15
A   23
 C16
A   24
 C17
A   25
 C18
A   26
 N5 
A   27
 C19
A   28
 C20
A   29
 F1 
A   30
 H1 
A   31
 H2 
A   32
 H3 
A   33
 H4 
A   34
 H5 
A   35
 H6 
A   36
 H7 
A   37
 H8 
A   38
 H9 
A   39
 H10
A   40
 H11
A   41
 H12
A   42
 H13
A   43
 H14
A   44
 H15
A   45
 H16
A   46
 H17
A   47
 H18
M  END
>  <ref_pdb>  (332) 
x0051_0B

>  <ref_mols>  (332) 
x0852_0B,x0969_1B

>  <original SMILES>  (332) 
[H]c1nc([H])c(F)c(C(=O)N([H])c2c([H])c([H])c([H])c(C([H])([H])N([H])C(=O)c3c([H])nn4c3OC([H])([H])C([H])([H])C4([H])[H])c2[H])c1[H]

>  <index>  (332) 
585

>  <∆∆G>  (332) 
-5.52656

>  <∆G_bound>  (332) 
-3.968529

>  <∆G_unbound>  (332) 
1.558031

>  <comRMSD>  (332) 
0.544373

>  <N_constrained_atoms>  (332) 
28.0

>  <N_unconstrained_atoms>  (332) 
3.0

>  <runtime>  (332) 
65.387179

>  <LE>  (332) 
0.178276

>  <percent_hybrid>  (332) 
36.0

>  <dist>  (332) 
8.0

>  <ecfp4>  (332) 
0.393939

>  <daylight>  (332) 
0.422414

>  <topodist>  (332) 
3.0

>  <mces>  (332) 
31.0

>  <tdn>  (332) 
2.0

>  <tup>  (332) 
1.0

>  <rdn>  (332) 
0.0

>  <rup>  (332) 
0.0

>  <ldn>  (332) 
0.0

>  <lup>  (332) 
0.0

>  <mut>  (332) 
4.0

>  <maj>  (332) 
4.0

>  <min>  (332) 
0.0

>  <hyb>  (332) 
1.0

>  <sub>  (332) 
2.0

>  <query_index>  (332) 
46.0

>  <max_hit_Tanimoto>  (332) 
0.4277

>  <largest_ring>  (332) 
6

>  <N_interactions_kept>  (332) 
4.0

>  <N_interactions_lost>  (332) 
2.0

>  <interaction_uniqueness_metric>  (332) 
0.166993

>  <ad_hoc_penalty>  (332) 
-21.426094

>  <N_rotatable_bonds>  (332) 
5

>  <N_HA>  (332) 
29

>  <cluster>  (332) 
5683

>  <N_interactions>  (332) 
7

>  <Enamine>  (332) 
1

>  <Mcule>  (332) 
0

>  <N_PAINS>  (332) 
0

>  <UFF_Gibbs>  (332) 
87.613328

>  <strain_per_HA>  (332) 
3.021149

>  <intxn_scored>  (332) 
8.5

>  <saltbridge:HIS:51>  (332) 
0

>  <pistack:HIS:51>  (332) 
1

>  <hydroph_interaction:HIS:51>  (332) 
0

>  <hbond:ALA:132>  (332) 
0

>  <hbond:SER:135>  (332) 
0

>  <hydroph_interaction:TYR:150>  (332) 
0

>  <pistack:TYR:161>  (332) 
0

>  <hydroph_interaction:TYR:161>  (332) 
2

>  <hydroph_interaction:ASP:83>  (332) 
0

>  <hbond:TYR:130>  (332) 
1

>  <hydroph_interaction:ALA:132>  (332) 
1

>  <hbond:HIS:51>  (332) 
0

>  <hbond:ASP:129>  (332) 
0

>  <hbond:TYR:150>  (332) 
0

>  <hbond:GLY:151>  (332) 
0

>  <hbond:TYR:161>  (332) 
1

>  <hydroph_interaction:TYR:130>  (332) 
0

>  <hydroph_interaction:PRO:131>  (332) 
0

>  <hydroph_interaction:ASP:129>  (332) 
1

>  <saltbridge:ASP:75>  (332) 
0

>  <saltbridge:ASP:83>  (332) 
0

>  <hbond:ASN:152>  (332) 
0

>  <hydroph_interaction:ASN:152>  (332) 
0

>  <halogenbond:TYR:150>  (332) 
0

>  <hbond:ASP:83>  (332) 
0

>  <hydroph_interaction:VAL:155>  (332) 
0

>  <pication:TYR:161>  (332) 
0

>  <hbond:PRO:131>  (332) 
0

>  <saltbridge:ASP:129>  (332) 
0

>  <hbond:THR:134>  (332) 
0

>  <pication:HIS:51>  (332) 
0

>  <hbond:SER:81>  (332) 
0

>  <hydroph_interaction:THR:134>  (332) 
0

>  <hydroph_interaction:MET:49>  (332) 
0

$$$$
CSSS00121676241
     RDKit          3D

 48 50  0  0  0  0  0  0  0  0999 V2000
   -5.3460    7.3860  -20.9470 C   0  0  0  0  0  0  0  0  0  0  0  0
   -5.2880    5.8780  -20.7110 C   0  0  0  0  0  0  0  0  0  0  0  0
   -3.8750    5.4870  -20.2560 C   0  0  0  0  0  0  0  0  0  0  0  0
   -5.6470    5.0880  -21.9790 C   0  0  0  0  0  0  0  0  0  0  0  0
   -6.2630    5.5250  -19.6710 N   0  0  0  0  0  0  0  0  0  0  0  0
   -6.0030    5.5670  -18.3210 C   0  0  0  0  0  0  0  0  0  0  0  0
   -4.7100    5.7700  -17.7820 O   0  0  0  0  0  0  0  0  0  0  0  0
   -7.1980    5.4030  -17.3380 C   0  0  0  0  0  0  0  0  0  0  0  0
   -8.4210    4.9830  -17.8860 C   0  0  0  0  0  0  0  0  0  0  0  0
   -9.5800    4.8020  -17.1430 C   0  0  0  0  0  0  0  0  0  0  0  0
   -9.5200    5.0640  -15.7040 C   0  0  0  0  0  0  0  0  0  0  0  0
   -8.2830    5.4900  -15.1190 C   0  0  0  0  0  0  0  0  0  0  0  0
   -8.1550    5.7920  -13.6710 C   0  0  0  0  0  0  0  0  0  0  0  0
   -8.7280    4.8800  -12.6360 O   0  0  0  0  0  0  0  0  0  0  0  0
   -8.7660    5.3320  -11.2610 C   0  0  0  0  0  0  0  0  0  0  0  0
   -8.6440    6.7030  -10.9900 C   0  0  0  0  0  0  0  0  0  0  0  0
   -8.6770    7.1930   -9.6790 C   0  0  0  0  0  0  0  0  0  0  0  0
   -8.8350    6.3490   -8.6090 C   0  0  0  0  0  0  0  0  0  0  0  0
   -8.9680    4.9810   -8.8030 C   0  0  0  0  0  0  0  0  0  0  0  0
   -9.1420    4.1610   -7.6670 C   0  0  0  0  0  0  0  0  0  0  0  0
   -9.2730    2.8020   -7.8060 C   0  0  0  0  0  0  0  0  0  0  0  0
   -9.2260    2.2590   -9.0640 C   0  0  0  0  0  0  0  0  0  0  0  0
   -9.0650    3.0370  -10.2240 C   0  0  0  0  0  0  0  0  0  0  0  0
   -8.9320    4.4360  -10.1320 C   0  0  0  0  0  0  0  0  0  0  0  0
   -7.1370    5.6500  -15.9550 C   0  0  0  0  0  0  0  0  0  0  0  0
   -6.3320    7.6960  -21.3100 H   0  0  0  0  0  0  0  0  0  0  0  0
   -5.1300    7.9400  -20.0290 H   0  0  0  0  0  0  0  0  0  0  0  0
   -4.6030    7.6920  -21.6910 H   0  0  0  0  0  0  0  0  0  0  0  0
   -3.2430    6.3720  -20.1310 H   0  0  0  0  0  0  0  0  0  0  0  0
   -3.8980    4.9540  -19.3010 H   0  0  0  0  0  0  0  0  0  0  0  0
   -3.3920    4.8390  -20.9960 H   0  0  0  0  0  0  0  0  0  0  0  0
   -6.0660    5.7370  -22.7580 H   0  0  0  0  0  0  0  0  0  0  0  0
   -6.3810    4.3010  -21.7760 H   0  0  0  0  0  0  0  0  0  0  0  0
   -4.7710    4.5780  -22.3860 H   0  0  0  0  0  0  0  0  0  0  0  0
   -7.2380    5.6090  -19.9360 H   0  0  0  0  0  0  0  0  0  0  0  0
   -8.4690    4.7890  -18.9580 H   0  0  0  0  0  0  0  0  0  0  0  0
  -10.5010    4.4790  -17.6150 H   0  0  0  0  0  0  0  0  0  0  0  0
  -10.4110    4.9360  -15.0880 H   0  0  0  0  0  0  0  0  0  0  0  0
   -7.0970    5.9950  -13.4490 H   0  0  0  0  0  0  0  0  0  0  0  0
   -8.6640    6.7530  -13.5180 H   0  0  0  0  0  0  0  0  0  0  0  0
   -8.5200    7.4040  -11.8110 H   0  0  0  0  0  0  0  0  0  0  0  0
   -8.5770    8.2620   -9.5080 H   0  0  0  0  0  0  0  0  0  0  0  0
   -8.8580    6.7670   -7.6030 H   0  0  0  0  0  0  0  0  0  0  0  0
   -9.1720    4.5940   -6.6680 H   0  0  0  0  0  0  0  0  0  0  0  0
   -9.4040    2.1670   -6.9370 H   0  0  0  0  0  0  0  0  0  0  0  0
   -9.3100    1.2190   -9.1290 H   0  0  0  0  0  0  0  0  0  0  0  0
   -9.0420    2.5420  -11.1930 H   0  0  0  0  0  0  0  0  0  0  0  0
   -6.2020    5.9760  -15.5100 H   0  0  0  0  0  0  0  0  0  0  0  0
  1  2  1  0
  2  3  1  0
  2  4  1  0
  2  5  1  0
  5  6  1  0
  6  7  2  0
  6  8  1  0
  8  9  2  0
  9 10  1  0
 10 11  2  0
 11 12  1  0
 12 13  1  0
 13 14  1  0
 14 15  1  0
 15 16  2  0
 16 17  1  0
 17 18  2  0
 18 19  1  0
 19 20  2  0
 20 21  1  0
 21 22  2  0
 22 23  1  0
 23 24  2  0
 12 25  2  0
 25  8  1  0
 24 15  1  0
 24 19  1  0
  1 26  1  0
  1 27  1  0
  1 28  1  0
  3 29  1  0
  3 30  1  0
  3 31  1  0
  4 32  1  0
  4 33  1  0
  4 34  1  0
  5 35  1  0
  9 36  1  0
 10 37  1  0
 11 38  1  0
 13 39  1  0
 13 40  1  0
 16 41  1  0
 17 42  1  0
 18 43  1  0
 20 44  1  0
 21 45  1  0
 22 46  1  0
 23 47  1  0
 25 48  1  0
A    1
 C1 
A    2
 C2 
A    3
 C3 
A    4
 C4 
A    5
 N1 
A    6
 C5 
A    7
 O1 
A    8
 C6 
A    9
 C7 
A   10
 C8 
A   11
 C9 
A   12
 C10
A   13
 C11
A   14
 O2 
A   15
 C12
A   16
 C13
A   17
 C14
A   18
 C15
A   19
 C16
A   20
 C17
A   21
 C18
A   22
 C19
A   23
 C20
A   24
 C21
A   25
 C22
A   26
 H1 
A   27
 H2 
A   28
 H3 
A   29
 H4 
A   30
 H5 
A   31
 H6 
A   32
 H7 
A   33
 H8 
A   34
 H9 
A   35
 H10
A   36
 H11
A   37
 H12
A   38
 H13
A   39
 H14
A   40
 H15
A   41
 H16
A   42
 H17
A   43
 H18
A   44
 H19
A   45
 H20
A   46
 H21
A   47
 H22
A   48
 H23
M  END
>  <ref_pdb>  (333) 
x0051_0B

>  <ref_mols>  (333) 
x0969_1B,x0101_0B

>  <original SMILES>  (333) 
[H]c1c([H])c(C(=O)N([H])C(C([H])([H])[H])(C([H])([H])[H])C([H])([H])[H])c([H])c(C([H])([H])Oc2c([H])c([H])c([H])c3c([H])c([H])c([H])c([H])c23)c1[H]

>  <index>  (333) 
967

>  <∆∆G>  (333) 
-8.381858

>  <∆G_bound>  (333) 
-8.783815

>  <∆G_unbound>  (333) 
-0.401957

>  <comRMSD>  (333) 
0.794187

>  <N_constrained_atoms>  (333) 
25.0

>  <N_unconstrained_atoms>  (333) 
2.0

>  <runtime>  (333) 
137.06509

>  <LE>  (333) 
0.310439

>  <percent_hybrid>  (333) 
40.0

>  <dist>  (333) 
11.0

>  <ecfp4>  (333) 
0.232558

>  <daylight>  (333) 
0.3125

>  <topodist>  (333) 
4.0

>  <mces>  (333) 
26.0

>  <tdn>  (333) 
2.0

>  <tup>  (333) 
0.0

>  <rdn>  (333) 
1.0

>  <rup>  (333) 
1.0

>  <ldn>  (333) 
0.0

>  <lup>  (333) 
0.0

>  <mut>  (333) 
3.0

>  <maj>  (333) 
3.0

>  <min>  (333) 
0.0

>  <hyb>  (333) 
4.0

>  <sub>  (333) 
4.0

>  <query_index>  (333) 
261.0

>  <max_hit_Tanimoto>  (333) 
0.387611

>  <largest_ring>  (333) 
6

>  <N_interactions_kept>  (333) 
1.5

>  <N_interactions_lost>  (333) 
2.5

>  <interaction_uniqueness_metric>  (333) 
0.139943

>  <ad_hoc_penalty>  (333) 
-15.758029

>  <N_rotatable_bonds>  (333) 
4

>  <N_HA>  (333) 
25

>  <cluster>  (333) 
5332

>  <N_interactions>  (333) 
5

>  <Enamine>  (333) 
1

>  <Mcule>  (333) 
0

>  <N_PAINS>  (333) 
0

>  <UFF_Gibbs>  (333) 
114.35028

>  <strain_per_HA>  (333) 
4.574011

>  <intxn_scored>  (333) 
8.5

>  <saltbridge:HIS:51>  (333) 
0

>  <pistack:HIS:51>  (333) 
1

>  <hydroph_interaction:HIS:51>  (333) 
1

>  <hbond:ALA:132>  (333) 
0

>  <hbond:SER:135>  (333) 
0

>  <hydroph_interaction:TYR:150>  (333) 
0

>  <pistack:TYR:161>  (333) 
1

>  <hydroph_interaction:TYR:161>  (333) 
0

>  <hydroph_interaction:ASP:83>  (333) 
0

>  <hbond:TYR:130>  (333) 
1

>  <hydroph_interaction:ALA:132>  (333) 
0

>  <hbond:HIS:51>  (333) 
0

>  <hbond:ASP:129>  (333) 
0

>  <hbond:TYR:150>  (333) 
0

>  <hbond:GLY:151>  (333) 
0

>  <hbond:TYR:161>  (333) 
0

>  <hydroph_interaction:TYR:130>  (333) 
0

>  <hydroph_interaction:PRO:131>  (333) 
0

>  <hydroph_interaction:ASP:129>  (333) 
1

>  <saltbridge:ASP:75>  (333) 
0

>  <saltbridge:ASP:83>  (333) 
0

>  <hbond:ASN:152>  (333) 
0

>  <hydroph_interaction:ASN:152>  (333) 
0

>  <halogenbond:TYR:150>  (333) 
0

>  <hbond:ASP:83>  (333) 
0

>  <hydroph_interaction:VAL:155>  (333) 
0

>  <pication:TYR:161>  (333) 
0

>  <hbond:PRO:131>  (333) 
0

>  <saltbridge:ASP:129>  (333) 
0

>  <hbond:THR:134>  (333) 
0

>  <pication:HIS:51>  (333) 
0

>  <hbond:SER:81>  (333) 
0

>  <hydroph_interaction:THR:134>  (333) 
0

>  <hydroph_interaction:MET:49>  (333) 
0

$$$$
CSSB00000035092
     RDKit          3D

 19 20  0  0  0  0  0  0  0  0999 V2000
  -10.9700    4.9740  -18.5730 C   0  0  0  0  0  0  0  0  0  0  0  0
   -9.5990    4.9890  -17.9790 C   0  0  0  0  0  0  0  0  0  0  0  0
   -8.5720    5.1220  -19.0540 C   0  0  0  0  0  0  0  0  0  0  0  0
   -7.1980    5.2070  -18.6480 C   0  0  0  0  0  0  0  0  0  0  0  0
   -6.1880    5.3480  -19.5840 C   0  0  0  0  0  0  0  0  0  0  0  0
   -4.8920    5.4420  -19.2440 N   0  0  0  0  0  0  0  0  0  0  0  0
   -4.5540    5.3930  -17.9260 N   0  0  0  0  0  0  0  0  0  0  0  0
   -5.5210    5.2520  -16.9870 C   0  0  0  0  0  0  0  0  0  0  0  0
   -6.8710    5.1540  -17.2930 C   0  0  0  0  0  0  0  0  0  0  0  0
   -7.8780    5.0100  -16.3190 C   0  0  0  0  0  0  0  0  0  0  0  0
   -9.2450    4.9270  -16.6340 C   0  0  0  0  0  0  0  0  0  0  0  0
  -10.9150    5.2670  -19.6220 H   0  0  0  0  0  0  0  0  0  0  0  0
  -11.5680    5.7140  -18.1020 H   0  0  0  0  0  0  0  0  0  0  0  0
  -11.4820    4.0360  -18.4560 H   0  0  0  0  0  0  0  0  0  0  0  0
   -8.8350    5.1660  -20.1030 H   0  0  0  0  0  0  0  0  0  0  0  0
   -6.4040    5.3920  -20.6490 H   0  0  0  0  0  0  0  0  0  0  0  0
   -5.1770    5.2190  -15.9560 H   0  0  0  0  0  0  0  0  0  0  0  0
   -7.5010    4.9740  -15.2880 H   0  0  0  0  0  0  0  0  0  0  0  0
  -10.0000    4.8270  -15.8550 H   0  0  0  0  0  0  0  0  0  0  0  0
  1  2  1  0
  2  3  2  0
  3  4  1  0
  4  5  2  0
  5  6  1  0
  6  7  2  0
  7  8  1  0
  8  9  2  0
  9 10  1  0
 10 11  2  0
 11  2  1  0
  9  4  1  0
  1 12  1  0
  1 13  1  0
  1 14  1  0
  3 15  1  0
  5 16  1  0
  8 17  1  0
 10 18  1  0
 11 19  1  0
A    1
 C1 
A    2
 C2 
A    3
 C3 
A    4
 C4 
A    5
 C5 
A    6
 N1 
A    7
 N2 
A    8
 C6 
A    9
 C7 
A   10
 C8 
A   11
 C9 
A   12
 H1 
A   13
 H2 
A   14
 H3 
A   15
 H4 
A   16
 H5 
A   17
 H6 
A   18
 H7 
A   19
 H8 
M  END
>  <ref_pdb>  (334) 
x0051_0B

>  <ref_mols>  (334) 
x0727_0B,x0605_0B

>  <original SMILES>  (334) 
[H]c1c(C([H])([H])[H])c([H])c2c([H])nnc([H])c2c1[H]

>  <index>  (334) 
3364

>  <∆∆G>  (334) 
-6.598618

>  <∆G_bound>  (334) 
-6.559449

>  <∆G_unbound>  (334) 
0.039169

>  <comRMSD>  (334) 
0.685198

>  <N_constrained_atoms>  (334) 
12.0

>  <N_unconstrained_atoms>  (334) 
0.0

>  <runtime>  (334) 
25.211107

>  <LE>  (334) 
0.549885

>  <percent_hybrid>  (334) 
25.0

>  <dist>  (334) 
3.0

>  <ecfp4>  (334) 
0.361111

>  <daylight>  (334) 
0.304878

>  <topodist>  (334) 
2.0

>  <mces>  (334) 
12.0

>  <tdn>  (334) 
2.0

>  <tup>  (334) 
0.0

>  <rdn>  (334) 
0.0

>  <rup>  (334) 
0.0

>  <ldn>  (334) 
0.0

>  <lup>  (334) 
0.0

>  <mut>  (334) 
1.0

>  <maj>  (334) 
1.0

>  <min>  (334) 
0.0

>  <hyb>  (334) 
0.0

>  <sub>  (334) 
1.0

>  <query_index>  (334) 
74.0

>  <max_hit_Tanimoto>  (334) 
0.204663

>  <largest_ring>  (334) 
6

>  <N_interactions_kept>  (334) 
0.5

>  <N_interactions_lost>  (334) 
3.0

>  <interaction_uniqueness_metric>  (334) 
0.034019

>  <ad_hoc_penalty>  (334) 
-3.206235

>  <N_rotatable_bonds>  (334) 
1

>  <N_HA>  (334) 
11

>  <cluster>  (334) 
3100

>  <N_interactions>  (334) 
3

>  <Enamine>  (334) 
1

>  <Mcule>  (334) 
0

>  <N_PAINS>  (334) 
0

>  <UFF_Gibbs>  (334) 
20.62136

>  <strain_per_HA>  (334) 
1.874669

>  <intxn_scored>  (334) 
8.5

>  <saltbridge:HIS:51>  (334) 
0

>  <pistack:HIS:51>  (334) 
0

>  <hydroph_interaction:HIS:51>  (334) 
0

>  <hbond:ALA:132>  (334) 
0

>  <hbond:SER:135>  (334) 
0

>  <hydroph_interaction:TYR:150>  (334) 
1

>  <pistack:TYR:161>  (334) 
2

>  <hydroph_interaction:TYR:161>  (334) 
0

>  <hydroph_interaction:ASP:83>  (334) 
0

>  <hbond:TYR:130>  (334) 
0

>  <hydroph_interaction:ALA:132>  (334) 
0

>  <hbond:HIS:51>  (334) 
0

>  <hbond:ASP:129>  (334) 
0

>  <hbond:TYR:150>  (334) 
0

>  <hbond:GLY:151>  (334) 
0

>  <hbond:TYR:161>  (334) 
0

>  <hydroph_interaction:TYR:130>  (334) 
0

>  <hydroph_interaction:PRO:131>  (334) 
0

>  <hydroph_interaction:ASP:129>  (334) 
0

>  <saltbridge:ASP:75>  (334) 
0

>  <saltbridge:ASP:83>  (334) 
0

>  <hbond:ASN:152>  (334) 
0

>  <hydroph_interaction:ASN:152>  (334) 
0

>  <halogenbond:TYR:150>  (334) 
0

>  <hbond:ASP:83>  (334) 
0

>  <hydroph_interaction:VAL:155>  (334) 
0

>  <pication:TYR:161>  (334) 
0

>  <hbond:PRO:131>  (334) 
0

>  <saltbridge:ASP:129>  (334) 
0

>  <hbond:THR:134>  (334) 
0

>  <pication:HIS:51>  (334) 
0

>  <hbond:SER:81>  (334) 
0

>  <hydroph_interaction:THR:134>  (334) 
0

>  <hydroph_interaction:MET:49>  (334) 
0

$$$$
Z1842760112
     RDKit          3D

 47 51  0  0  0  0  0  0  0  0999 V2000
   -5.5160    5.2840  -22.0440 O   0  0  0  0  0  0  0  0  0  0  0  0
   -5.2450    6.3840  -21.5740 C   0  0  0  0  0  0  0  0  0  0  0  0
   -4.6780    6.5740  -20.2640 N   0  0  0  0  0  0  0  0  0  0  0  0
   -4.6260    5.5260  -19.4270 N   0  0  0  0  0  0  0  0  0  0  0  0
   -5.9000    5.3520  -19.0360 C   0  0  0  0  0  0  0  0  0  0  0  0
   -6.9690    5.1620  -19.8150 N   0  0  0  0  0  0  0  0  0  0  0  0
   -7.9550    5.0470  -18.9140 N   0  0  0  0  0  0  0  0  0  0  0  0
   -9.3020    4.8350  -19.1310 C   0  0  0  0  0  0  0  0  0  0  0  0
  -10.1390    4.7510  -18.0360 C   0  0  0  0  0  0  0  0  0  0  0  0
   -9.5920    4.8780  -16.7460 C   0  0  0  0  0  0  0  0  0  0  0  0
   -8.2770    5.0850  -16.5390 C   0  0  0  0  0  0  0  0  0  0  0  0
   -7.4310    5.1750  -17.6280 C   0  0  0  0  0  0  0  0  0  0  0  0
   -6.1420    5.3690  -17.7010 N   0  0  0  0  0  0  0  0  0  0  0  0
   -5.4760    7.6020  -22.3410 C   0  0  0  0  0  0  0  0  0  0  0  0
   -6.1270    7.4540  -23.5750 C   0  0  0  0  0  0  0  0  0  0  0  0
   -6.3720    8.5620  -24.3460 C   0  0  0  0  0  0  0  0  0  0  0  0
   -5.9760    9.8220  -23.9120 C   0  0  0  0  0  0  0  0  0  0  0  0
   -6.2520   10.9950  -24.7900 C   0  0  0  0  0  0  0  0  0  0  0  0
   -5.8360   10.4670  -26.4860 S   0  0  0  0  0  0  0  0  0  0  0  0
   -7.2600    9.6420  -27.0040 C   0  0  0  0  0  0  0  0  0  0  0  0
   -7.3530    8.3770  -27.3240 N   0  0  0  0  0  0  0  0  0  0  0  0
   -8.6690    8.1940  -27.6650 C   0  0  0  0  0  0  0  0  0  0  0  0
   -9.3200    7.0170  -28.0830 C   0  0  0  0  0  0  0  0  0  0  0  0
  -10.6700    7.0860  -28.3660 C   0  0  0  0  0  0  0  0  0  0  0  0
  -11.4160    8.3900  -28.2280 C   0  0  0  0  0  0  0  0  0  0  0  0
  -10.7620    9.5310  -27.8200 C   0  0  0  0  0  0  0  0  0  0  0  0
   -9.3850    9.4010  -27.5460 C   0  0  0  0  0  0  0  0  0  0  0  0
   -8.4430   10.3040  -27.1240 N   0  0  0  0  0  0  0  0  0  0  0  0
   -5.3250    9.9740  -22.6750 C   0  0  0  0  0  0  0  0  0  0  0  0
   -5.0750    8.8630  -21.8840 C   0  0  0  0  0  0  0  0  0  0  0  0
   -3.9210    7.2430  -20.1240 H   0  0  0  0  0  0  0  0  0  0  0  0
   -3.9500    5.6640  -18.6710 H   0  0  0  0  0  0  0  0  0  0  0  0
   -9.6350    4.7520  -20.1600 H   0  0  0  0  0  0  0  0  0  0  0  0
  -11.2060    4.5940  -18.1430 H   0  0  0  0  0  0  0  0  0  0  0  0
  -10.2650    4.8020  -15.9020 H   0  0  0  0  0  0  0  0  0  0  0  0
   -7.8910    5.1780  -15.5120 H   0  0  0  0  0  0  0  0  0  0  0  0
   -6.4370    6.4670  -23.9200 H   0  0  0  0  0  0  0  0  0  0  0  0
   -6.8770    8.4410  -25.2990 H   0  0  0  0  0  0  0  0  0  0  0  0
   -5.8840   12.0050  -24.6930 H   0  0  0  0  0  0  0  0  0  0  0  0
   -7.3310   11.1330  -24.7790 H   0  0  0  0  0  0  0  0  0  0  0  0
   -8.7690    6.0860  -28.1750 H   0  0  0  0  0  0  0  0  0  0  0  0
  -11.2710    6.2270  -28.6970 H   0  0  0  0  0  0  0  0  0  0  0  0
  -12.4840    8.3490  -28.4730 H   0  0  0  0  0  0  0  0  0  0  0  0
  -11.2590   10.4920  -27.7080 H   0  0  0  0  0  0  0  0  0  0  0  0
   -8.5900   11.2840  -26.9310 H   0  0  0  0  0  0  0  0  0  0  0  0
   -5.0130   10.9680  -22.3310 H   0  0  0  0  0  0  0  0  0  0  0  0
   -4.5700    8.9900  -20.9290 H   0  0  0  0  0  0  0  0  0  0  0  0
  1  2  2  0
  2  3  1  0
  3  4  1  0
  4  5  1  0
  5  6  2  0
  6  7  1  0
  7  8  1  0
  8  9  2  0
  9 10  1  0
 10 11  2  0
 11 12  1  0
 12 13  2  0
  2 14  1  0
 14 15  2  0
 15 16  1  0
 16 17  2  0
 17 18  1  0
 18 19  1  0
 19 20  1  0
 20 21  2  0
 21 22  1  0
 22 23  2  0
 23 24  1  0
 24 25  2  0
 25 26  1  0
 26 27  2  0
 27 28  1  0
 17 29  1  0
 29 30  2  0
 13  5  1  0
 12  7  1  0
 30 14  1  0
 28 20  1  0
 27 22  1  0
  3 31  1  0
  4 32  1  0
  8 33  1  0
  9 34  1  0
 10 35  1  0
 11 36  1  0
 15 37  1  0
 16 38  1  0
 18 39  1  0
 18 40  1  0
 23 41  1  0
 24 42  1  0
 25 43  1  0
 26 44  1  0
 28 45  1  0
 29 46  1  0
 30 47  1  0
A    1
 O1 
A    2
 C1 
A    3
 N1 
A    4
 N2 
A    5
 C2 
A    6
 N3 
A    7
 N4 
A    8
 C3 
A    9
 C4 
A   10
 C5 
A   11
 C6 
A   12
 C7 
A   13
 N5 
A   14
 C8 
A   15
 C9 
A   16
 C10
A   17
 C11
A   18
 C12
A   19
 S1 
A   20
 C13
A   21
 N6 
A   22
 C14
A   23
 C15
A   24
 C16
A   25
 C17
A   26
 C18
A   27
 C19
A   28
 N7 
A   29
 C20
A   30
 C21
A   31
 H1 
A   32
 H2 
A   33
 H3 
A   34
 H4 
A   35
 H5 
A   36
 H6 
A   37
 H7 
A   38
 H8 
A   39
 H9 
A   40
 H10
A   41
 H11
A   42
 H12
A   43
 H13
A   44
 H14
A   45
 H15
A   46
 H16
A   47
 H17
M  END
>  <ref_pdb>  (335) 
x0051_0B

>  <ref_mols>  (335) 
x0490_0B,x0846_1B

>  <original SMILES>  (335) 
[H]c1c([H])c(C([H])([H])Sc2nc3c([H])c([H])c([H])c([H])c3n2[H])c([H])c([H])c1C(=O)N([H])N([H])c1nc2c([H])c([H])c([H])c([H])n2n1

>  <index>  (335) 
2303

>  <∆∆G>  (335) 
-5.652379

>  <∆G_bound>  (335) 
-4.684006

>  <∆G_unbound>  (335) 
0.968373

>  <comRMSD>  (335) 
0.600109

>  <N_constrained_atoms>  (335) 
27.0

>  <N_unconstrained_atoms>  (335) 
3.0

>  <runtime>  (335) 
46.173085

>  <LE>  (335) 
0.188413

>  <percent_hybrid>  (335) 
34.0

>  <dist>  (335) 
9.0

>  <ecfp4>  (335) 
0.208333

>  <daylight>  (335) 
0.228261

>  <topodist>  (335) 
5.0

>  <mces>  (335) 
32.0

>  <tdn>  (335) 
3.0

>  <tup>  (335) 
1.0

>  <rdn>  (335) 
0.0

>  <rup>  (335) 
0.0

>  <ldn>  (335) 
0.0

>  <lup>  (335) 
1.0

>  <mut>  (335) 
2.0

>  <maj>  (335) 
1.0

>  <min>  (335) 
1.0

>  <hyb>  (335) 
2.0

>  <sub>  (335) 
2.0

>  <query_index>  (335) 
52.0

>  <max_hit_Tanimoto>  (335) 
0.282427

>  <largest_ring>  (335) 
6

>  <N_interactions_kept>  (335) 
0.0

>  <N_interactions_lost>  (335) 
3.0

>  <interaction_uniqueness_metric>  (335) 
0.206565

>  <ad_hoc_penalty>  (335) 
-8.459421

>  <N_rotatable_bonds>  (335) 
6

>  <N_HA>  (335) 
30

>  <cluster>  (335) 
4102

>  <N_interactions>  (335) 
7

>  <Enamine>  (335) 
1

>  <Mcule>  (335) 
0

>  <N_PAINS>  (335) 
0

>  <UFF_Gibbs>  (335) 
114.343058

>  <strain_per_HA>  (335) 
3.811435

>  <intxn_scored>  (335) 
8.5

>  <saltbridge:HIS:51>  (335) 
0

>  <pistack:HIS:51>  (335) 
0

>  <hydroph_interaction:HIS:51>  (335) 
0

>  <hbond:ALA:132>  (335) 
0

>  <hbond:SER:135>  (335) 
0

>  <hydroph_interaction:TYR:150>  (335) 
1

>  <pistack:TYR:161>  (335) 
1

>  <hydroph_interaction:TYR:161>  (335) 
1

>  <hydroph_interaction:ASP:83>  (335) 
0

>  <hbond:TYR:130>  (335) 
1

>  <hydroph_interaction:ALA:132>  (335) 
0

>  <hbond:HIS:51>  (335) 
0

>  <hbond:ASP:129>  (335) 
1

>  <hbond:TYR:150>  (335) 
0

>  <hbond:GLY:151>  (335) 
0

>  <hbond:TYR:161>  (335) 
0

>  <hydroph_interaction:TYR:130>  (335) 
1

>  <hydroph_interaction:PRO:131>  (335) 
1

>  <hydroph_interaction:ASP:129>  (335) 
0

>  <saltbridge:ASP:75>  (335) 
0

>  <saltbridge:ASP:83>  (335) 
0

>  <hbond:ASN:152>  (335) 
0

>  <hydroph_interaction:ASN:152>  (335) 
0

>  <halogenbond:TYR:150>  (335) 
0

>  <hbond:ASP:83>  (335) 
0

>  <hydroph_interaction:VAL:155>  (335) 
0

>  <pication:TYR:161>  (335) 
0

>  <hbond:PRO:131>  (335) 
0

>  <saltbridge:ASP:129>  (335) 
0

>  <hbond:THR:134>  (335) 
0

>  <pication:HIS:51>  (335) 
0

>  <hbond:SER:81>  (335) 
0

>  <hydroph_interaction:THR:134>  (335) 
0

>  <hydroph_interaction:MET:49>  (335) 
0

$$$$
PV-006535363831
     RDKit          3D

 48 52  0  0  0  0  0  0  0  0999 V2000
   -6.4650    7.0780  -26.7870 C   0  0  0  0  0  0  0  0  0  0  0  0
   -7.3290    8.1470  -26.9370 N   0  0  0  0  0  0  0  0  0  0  0  0
   -7.0500    9.4500  -26.5350 C   0  0  0  0  0  0  0  0  0  0  0  0
   -5.9090    9.8590  -25.9520 N   0  0  0  0  0  0  0  0  0  0  0  0
   -6.0690   10.3520  -24.6540 C   0  0  0  0  0  0  0  0  0  0  0  0
   -5.9680    9.2630  -23.6510 C   0  0  0  0  0  0  0  0  0  0  0  0
   -6.2080    7.9550  -24.0360 C   0  0  0  0  0  0  0  0  0  0  0  0
   -6.1540    6.8890  -23.1400 C   0  0  0  0  0  0  0  0  0  0  0  0
   -5.8740    6.9470  -21.7830 C   0  0  0  0  0  0  0  0  0  0  0  0
   -5.9320    5.6620  -21.1260 C   0  0  0  0  0  0  0  0  0  0  0  0
   -6.3320    5.6170  -19.6970 N   0  0  0  0  0  0  0  0  0  0  0  0
   -5.3940    5.9120  -18.7510 C   0  0  0  0  0  0  0  0  0  0  0  0
   -5.8720    5.8230  -17.4680 N   0  0  0  0  0  0  0  0  0  0  0  0
   -7.2370    5.4340  -17.6380 C   0  0  0  0  0  0  0  0  0  0  0  0
   -8.2210    5.1880  -16.7100 C   0  0  0  0  0  0  0  0  0  0  0  0
   -9.4980    4.8140  -17.1160 C   0  0  0  0  0  0  0  0  0  0  0  0
   -9.8610    4.6650  -18.4710 C   0  0  0  0  0  0  0  0  0  0  0  0
   -8.8210    4.9220  -19.4140 C   0  0  0  0  0  0  0  0  0  0  0  0
   -7.5420    5.3010  -18.9720 C   0  0  0  0  0  0  0  0  0  0  0  0
   -5.5920    8.2450  -21.2940 C   0  0  0  0  0  0  0  0  0  0  0  0
   -5.6430    9.4610  -22.2840 C   0  0  0  0  0  0  0  0  0  0  0  0
   -8.0860   10.2180  -26.8270 N   0  0  0  0  0  0  0  0  0  0  0  0
   -9.0350    9.3950  -27.4050 C   0  0  0  0  0  0  0  0  0  0  0  0
  -10.3760    9.6680  -27.9050 C   0  0  0  0  0  0  0  0  0  0  0  0
  -11.1010    8.5940  -28.4350 C   0  0  0  0  0  0  0  0  0  0  0  0
  -10.6220    7.3290  -28.5130 N   0  0  0  0  0  0  0  0  0  0  0  0
   -9.3710    7.0660  -28.0450 C   0  0  0  0  0  0  0  0  0  0  0  0
   -8.5810    8.0920  -27.4900 C   0  0  0  0  0  0  0  0  0  0  0  0
   -6.4990    6.4370  -27.6730 H   0  0  0  0  0  0  0  0  0  0  0  0
   -5.4360    7.4270  -26.6590 H   0  0  0  0  0  0  0  0  0  0  0  0
   -6.7390    6.4640  -25.9230 H   0  0  0  0  0  0  0  0  0  0  0  0
   -5.2550    9.0760  -25.8990 H   0  0  0  0  0  0  0  0  0  0  0  0
   -5.3670   11.1670  -24.4890 H   0  0  0  0  0  0  0  0  0  0  0  0
   -7.0610   10.8040  -24.5630 H   0  0  0  0  0  0  0  0  0  0  0  0
   -6.4530    7.7420  -25.0690 H   0  0  0  0  0  0  0  0  0  0  0  0
   -6.3540    5.8690  -23.4640 H   0  0  0  0  0  0  0  0  0  0  0  0
   -6.6770    5.0050  -21.5660 H   0  0  0  0  0  0  0  0  0  0  0  0
   -5.0420    5.0280  -21.1160 H   0  0  0  0  0  0  0  0  0  0  0  0
   -4.3690    6.1890  -19.0130 H   0  0  0  0  0  0  0  0  0  0  0  0
   -7.8840    5.3170  -15.6790 H   0  0  0  0  0  0  0  0  0  0  0  0
  -10.2700    4.6230  -16.3680 H   0  0  0  0  0  0  0  0  0  0  0  0
  -10.8740    4.3730  -18.7360 H   0  0  0  0  0  0  0  0  0  0  0  0
   -8.9940    4.8310  -20.4770 H   0  0  0  0  0  0  0  0  0  0  0  0
   -5.3430    8.5000  -20.2670 H   0  0  0  0  0  0  0  0  0  0  0  0
   -5.4230   10.4270  -21.8430 H   0  0  0  0  0  0  0  0  0  0  0  0
  -10.8150   10.6620  -27.8730 H   0  0  0  0  0  0  0  0  0  0  0  0
  -12.1120    8.7390  -28.8230 H   0  0  0  0  0  0  0  0  0  0  0  0
   -8.9950    6.0470  -28.1070 H   0  0  0  0  0  0  0  0  0  0  0  0
  1  2  1  0
  2  3  1  0
  3  4  1  0
  4  5  1  0
  5  6  1  0
  6  7  2  0
  7  8  1  0
  8  9  2  0
  9 10  1  0
 10 11  1  0
 11 12  1  0
 12 13  2  0
 13 14  1  0
 14 15  2  0
 15 16  1  0
 16 17  2  0
 17 18  1  0
 18 19  2  0
  9 20  1  0
 20 21  2  0
  3 22  2  0
 22 23  1  0
 23 24  2  0
 24 25  1  0
 25 26  2  0
 26 27  1  0
 27 28  2  0
 28  2  1  0
 21  6  1  0
 19 11  1  0
 19 14  1  0
 28 23  1  0
  1 29  1  0
  1 30  1  0
  1 31  1  0
  4 32  1  0
  5 33  1  0
  5 34  1  0
  7 35  1  0
  8 36  1  0
 10 37  1  0
 10 38  1  0
 12 39  1  0
 15 40  1  0
 16 41  1  0
 17 42  1  0
 18 43  1  0
 20 44  1  0
 21 45  1  0
 24 46  1  0
 25 47  1  0
 27 48  1  0
A    1
 C1 
A    2
 N1 
A    3
 C2 
A    4
 N2 
A    5
 C3 
A    6
 C4 
A    7
 C5 
A    8
 C6 
A    9
 C7 
A   10
 C8 
A   11
 N3 
A   12
 C9 
A   13
 N4 
A   14
 C10
A   15
 C11
A   16
 C12
A   17
 C13
A   18
 C14
A   19
 C15
A   20
 C16
A   21
 C17
A   22
 N5 
A   23
 C18
A   24
 C19
A   25
 C20
A   26
 N6 
A   27
 C21
A   28
 C22
A   29
 H1 
A   30
 H2 
A   31
 H3 
A   32
 H4 
A   33
 H5 
A   34
 H6 
A   35
 H7 
A   36
 H8 
A   37
 H9 
A   38
 H10
A   39
 H11
A   40
 H12
A   41
 H13
A   42
 H14
A   43
 H15
A   44
 H16
A   45
 H17
A   46
 H18
A   47
 H19
A   48
 H20
M  END
>  <ref_pdb>  (336) 
x0051_0B

>  <ref_mols>  (336) 
x0490_0B,x0846_1B

>  <original SMILES>  (336) 
[H]c1nc([H])c2c(nc(N([H])C([H])([H])c3c([H])c([H])c(C([H])([H])n4c([H])nc5c([H])c([H])c([H])c([H])c54)c([H])c3[H])n2C([H])([H])[H])c1[H]

>  <index>  (336) 
1367

>  <∆∆G>  (336) 
-9.409803

>  <∆G_bound>  (336) 
-9.482081

>  <∆G_unbound>  (336) 
-0.072278

>  <comRMSD>  (336) 
0.675801

>  <N_constrained_atoms>  (336) 
27.0

>  <N_unconstrained_atoms>  (336) 
2.0

>  <runtime>  (336) 
43.91856

>  <LE>  (336) 
0.324476

>  <percent_hybrid>  (336) 
34.0

>  <dist>  (336) 
8.0

>  <ecfp4>  (336) 
0.238636

>  <daylight>  (336) 
0.460465

>  <topodist>  (336) 
5.0

>  <mces>  (336) 
31.0

>  <tdn>  (336) 
2.0

>  <tup>  (336) 
0.0

>  <rdn>  (336) 
0.0

>  <rup>  (336) 
0.0

>  <ldn>  (336) 
2.0

>  <lup>  (336) 
1.0

>  <mut>  (336) 
3.0

>  <maj>  (336) 
3.0

>  <min>  (336) 
0.0

>  <hyb>  (336) 
0.0

>  <sub>  (336) 
2.0

>  <query_index>  (336) 
52.0

>  <max_hit_Tanimoto>  (336) 
0.407317

>  <largest_ring>  (336) 
6

>  <N_interactions_kept>  (336) 
1.0

>  <N_interactions_lost>  (336) 
2.0

>  <interaction_uniqueness_metric>  (336) 
0.087858

>  <ad_hoc_penalty>  (336) 
-6.172508

>  <N_rotatable_bonds>  (336) 
6

>  <N_HA>  (336) 
28

>  <cluster>  (336) 
4965

>  <N_interactions>  (336) 
4

>  <Enamine>  (336) 
1

>  <Mcule>  (336) 
0

>  <N_PAINS>  (336) 
0

>  <UFF_Gibbs>  (336) 
297.398311

>  <strain_per_HA>  (336) 
10.621368

>  <intxn_scored>  (336) 
8.5

>  <saltbridge:HIS:51>  (336) 
0

>  <pistack:HIS:51>  (336) 
0

>  <hydroph_interaction:HIS:51>  (336) 
0

>  <hbond:ALA:132>  (336) 
0

>  <hbond:SER:135>  (336) 
0

>  <hydroph_interaction:TYR:150>  (336) 
1

>  <pistack:TYR:161>  (336) 
2

>  <hydroph_interaction:TYR:161>  (336) 
0

>  <hydroph_interaction:ASP:83>  (336) 
0

>  <hbond:TYR:130>  (336) 
0

>  <hydroph_interaction:ALA:132>  (336) 
0

>  <hbond:HIS:51>  (336) 
0

>  <hbond:ASP:129>  (336) 
0

>  <hbond:TYR:150>  (336) 
0

>  <hbond:GLY:151>  (336) 
0

>  <hbond:TYR:161>  (336) 
0

>  <hydroph_interaction:TYR:130>  (336) 
0

>  <hydroph_interaction:PRO:131>  (336) 
1

>  <hydroph_interaction:ASP:129>  (336) 
0

>  <saltbridge:ASP:75>  (336) 
0

>  <saltbridge:ASP:83>  (336) 
0

>  <hbond:ASN:152>  (336) 
0

>  <hydroph_interaction:ASN:152>  (336) 
0

>  <halogenbond:TYR:150>  (336) 
0

>  <hbond:ASP:83>  (336) 
0

>  <hydroph_interaction:VAL:155>  (336) 
0

>  <pication:TYR:161>  (336) 
0

>  <hbond:PRO:131>  (336) 
0

>  <saltbridge:ASP:129>  (336) 
0

>  <hbond:THR:134>  (336) 
0

>  <pication:HIS:51>  (336) 
0

>  <hbond:SER:81>  (336) 
0

>  <hydroph_interaction:THR:134>  (336) 
0

>  <hydroph_interaction:MET:49>  (336) 
0

$$$$
Z240311826
     RDKit          3D

 49 52  0  0  0  0  0  0  0  0999 V2000
  -10.0040    4.5780  -18.4960 C   0  0  0  0  0  0  0  0  0  0  0  0
   -8.7800    4.9800  -17.7610 C   0  0  0  0  0  0  0  0  0  0  0  0
   -8.6620    4.8070  -16.5550 O   0  0  0  0  0  0  0  0  0  0  0  0
   -7.8830    5.5430  -18.6300 N   0  0  0  0  0  0  0  0  0  0  0  0
   -6.4910    5.5200  -18.5680 C   0  0  0  0  0  0  0  0  0  0  0  0
   -5.7030    5.0230  -17.4460 C   0  0  0  0  0  0  0  0  0  0  0  0
   -4.3130    5.0420  -17.4940 C   0  0  0  0  0  0  0  0  0  0  0  0
   -3.6880    5.5470  -18.6180 C   0  0  0  0  0  0  0  0  0  0  0  0
   -4.4280    6.0300  -19.6790 C   0  0  0  0  0  0  0  0  0  0  0  0
   -3.6590    6.5330  -20.7170 O   0  0  0  0  0  0  0  0  0  0  0  0
   -4.1340    6.3900  -21.9780 C   0  0  0  0  0  0  0  0  0  0  0  0
   -4.0940    5.3850  -22.6580 O   0  0  0  0  0  0  0  0  0  0  0  0
   -4.7100    7.6450  -22.5020 C   0  0  0  0  0  0  0  0  0  0  0  0
   -5.4970    7.4460  -23.6160 C   0  0  0  0  0  0  0  0  0  0  0  0
   -6.1090    8.6000  -24.2870 C   0  0  0  0  0  0  0  0  0  0  0  0
   -5.8830    9.8640  -23.7850 C   0  0  0  0  0  0  0  0  0  0  0  0
   -6.6060   11.2060  -24.6530 S   0  0  0  0  0  0  0  0  0  0  0  0
   -6.2300   10.5220  -26.3120 C   0  0  0  0  0  0  0  0  0  0  0  0
   -7.3650    9.7340  -26.8730 C   0  0  0  0  0  0  0  0  0  0  0  0
   -7.4300    8.3940  -27.2280 C   0  0  0  0  0  0  0  0  0  0  0  0
   -8.7140    8.1960  -27.6760 N   0  0  0  0  0  0  0  0  0  0  0  0
   -9.3260    7.0340  -28.1490 C   0  0  0  0  0  0  0  0  0  0  0  0
  -10.6200    7.0790  -28.5100 C   0  0  0  0  0  0  0  0  0  0  0  0
  -11.3360    8.3380  -28.4010 C   0  0  0  0  0  0  0  0  0  0  0  0
  -10.7320    9.4580  -27.9600 C   0  0  0  0  0  0  0  0  0  0  0  0
   -9.3650    9.4160  -27.5730 C   0  0  0  0  0  0  0  0  0  0  0  0
   -8.5710   10.3470  -27.1060 N   0  0  0  0  0  0  0  0  0  0  0  0
   -5.1010   10.0530  -22.6410 C   0  0  0  0  0  0  0  0  0  0  0  0
   -4.5130    8.9520  -21.9940 C   0  0  0  0  0  0  0  0  0  0  0  0
   -5.8230    6.0190  -19.6800 C   0  0  0  0  0  0  0  0  0  0  0  0
  -10.9080    4.6690  -17.8920 H   0  0  0  0  0  0  0  0  0  0  0  0
  -10.1270    5.2050  -19.3870 H   0  0  0  0  0  0  0  0  0  0  0  0
   -9.9020    3.5410  -18.8210 H   0  0  0  0  0  0  0  0  0  0  0  0
   -8.2410    5.7210  -19.5630 H   0  0  0  0  0  0  0  0  0  0  0  0
   -6.1670    4.6240  -16.5500 H   0  0  0  0  0  0  0  0  0  0  0  0
   -3.7090    4.6740  -16.6680 H   0  0  0  0  0  0  0  0  0  0  0  0
   -2.5990    5.5670  -18.6600 H   0  0  0  0  0  0  0  0  0  0  0  0
   -5.6650    6.4470  -24.0110 H   0  0  0  0  0  0  0  0  0  0  0  0
   -6.7230    8.4460  -25.1690 H   0  0  0  0  0  0  0  0  0  0  0  0
   -6.0150   11.3650  -26.9770 H   0  0  0  0  0  0  0  0  0  0  0  0
   -5.3200    9.9140  -26.2590 H   0  0  0  0  0  0  0  0  0  0  0  0
   -6.7000    7.5960  -27.1950 H   0  0  0  0  0  0  0  0  0  0  0  0
   -8.7230    6.1350  -28.2020 H   0  0  0  0  0  0  0  0  0  0  0  0
  -11.1440    6.2030  -28.8800 H   0  0  0  0  0  0  0  0  0  0  0  0
  -12.3830    8.3570  -28.6920 H   0  0  0  0  0  0  0  0  0  0  0  0
  -11.2600   10.3980  -27.8810 H   0  0  0  0  0  0  0  0  0  0  0  0
   -4.9350   11.0570  -22.2490 H   0  0  0  0  0  0  0  0  0  0  0  0
   -3.9030    9.1320  -21.1140 H   0  0  0  0  0  0  0  0  0  0  0  0
   -6.3680    6.4010  -20.5360 H   0  0  0  0  0  0  0  0  0  0  0  0
  1  2  1  0
  2  3  2  0
  2  4  1  0
  4  5  1  0
  5  6  2  0
  6  7  1  0
  7  8  2  0
  8  9  1  0
  9 10  1  0
 10 11  1  0
 11 12  2  0
 11 13  1  0
 13 14  2  0
 14 15  1  0
 15 16  2  0
 16 17  1  0
 17 18  1  0
 18 19  1  0
 19 20  2  0
 20 21  1  0
 21 22  1  0
 22 23  2  0
 23 24  1  0
 24 25  2  0
 25 26  1  0
 26 27  2  0
 16 28  1  0
 28 29  2  0
  9 30  2  0
 30  5  1  0
 29 13  1  0
 27 19  1  0
 26 21  1  0
  1 31  1  0
  1 32  1  0
  1 33  1  0
  4 34  1  0
  6 35  1  0
  7 36  1  0
  8 37  1  0
 14 38  1  0
 15 39  1  0
 18 40  1  0
 18 41  1  0
 20 42  1  0
 22 43  1  0
 23 44  1  0
 24 45  1  0
 25 46  1  0
 28 47  1  0
 29 48  1  0
 30 49  1  0
A    1
 C1 
A    2
 C2 
A    3
 O1 
A    4
 N1 
A    5
 C3 
A    6
 C4 
A    7
 C5 
A    8
 C6 
A    9
 C7 
A   10
 O2 
A   11
 C8 
A   12
 O3 
A   13
 C9 
A   14
 C10
A   15
 C11
A   16
 C12
A   17
 S1 
A   18
 C13
A   19
 C14
A   20
 C15
A   21
 N2 
A   22
 C16
A   23
 C17
A   24
 C18
A   25
 C19
A   26
 C20
A   27
 N3 
A   28
 C21
A   29
 C22
A   30
 C23
A   31
 H1 
A   32
 H2 
A   33
 H3 
A   34
 H4 
A   35
 H5 
A   36
 H6 
A   37
 H7 
A   38
 H8 
A   39
 H9 
A   40
 H10
A   41
 H11
A   42
 H12
A   43
 H13
A   44
 H14
A   45
 H15
A   46
 H16
A   47
 H17
A   48
 H18
A   49
 H19
M  END
>  <ref_pdb>  (337) 
x0051_0B

>  <ref_mols>  (337) 
x0846_1B,x0680_0B

>  <original SMILES>  (337) 
[H]c1c([H])c(OC(=O)c2c([H])c([H])c(SC([H])([H])c3nc4c([H])c([H])c([H])c([H])n4c3[H])c([H])c2[H])c([H])c(N([H])C(=O)C([H])([H])[H])c1[H]

>  <index>  (337) 
1212

>  <∆∆G>  (337) 
-8.836112

>  <∆G_bound>  (337) 
-7.983509

>  <∆G_unbound>  (337) 
0.852604

>  <comRMSD>  (337) 
0.689026

>  <N_constrained_atoms>  (337) 
29.0

>  <N_unconstrained_atoms>  (337) 
3.0

>  <runtime>  (337) 
48.214177

>  <LE>  (337) 
0.276129

>  <percent_hybrid>  (337) 
38.0

>  <dist>  (337) 
8.0

>  <ecfp4>  (337) 
0.191919

>  <daylight>  (337) 
0.385892

>  <topodist>  (337) 
4.0

>  <mces>  (337) 
31.0

>  <tdn>  (337) 
2.0

>  <tup>  (337) 
1.0

>  <rdn>  (337) 
0.0

>  <rup>  (337) 
0.0

>  <ldn>  (337) 
0.0

>  <lup>  (337) 
1.0

>  <mut>  (337) 
4.0

>  <maj>  (337) 
4.0

>  <min>  (337) 
0.0

>  <hyb>  (337) 
0.0

>  <sub>  (337) 
2.0

>  <query_index>  (337) 
100.0

>  <max_hit_Tanimoto>  (337) 
0.219487

>  <largest_ring>  (337) 
6

>  <N_interactions_kept>  (337) 
1.0

>  <N_interactions_lost>  (337) 
3.0

>  <interaction_uniqueness_metric>  (337) 
0.206565

>  <ad_hoc_penalty>  (337) 
-15.847998

>  <N_rotatable_bonds>  (337) 
7

>  <N_HA>  (337) 
30

>  <cluster>  (337) 
5102

>  <N_interactions>  (337) 
7

>  <Enamine>  (337) 
1

>  <Mcule>  (337) 
0

>  <N_PAINS>  (337) 
0

>  <UFF_Gibbs>  (337) 
99.333516

>  <strain_per_HA>  (337) 
3.311117

>  <intxn_scored>  (337) 
8.5

>  <saltbridge:HIS:51>  (337) 
0

>  <pistack:HIS:51>  (337) 
0

>  <hydroph_interaction:HIS:51>  (337) 
0

>  <hbond:ALA:132>  (337) 
0

>  <hbond:SER:135>  (337) 
0

>  <hydroph_interaction:TYR:150>  (337) 
1

>  <pistack:TYR:161>  (337) 
1

>  <hydroph_interaction:TYR:161>  (337) 
1

>  <hydroph_interaction:ASP:83>  (337) 
0

>  <hbond:TYR:130>  (337) 
1

>  <hydroph_interaction:ALA:132>  (337) 
0

>  <hbond:HIS:51>  (337) 
0

>  <hbond:ASP:129>  (337) 
1

>  <hbond:TYR:150>  (337) 
0

>  <hbond:GLY:151>  (337) 
0

>  <hbond:TYR:161>  (337) 
0

>  <hydroph_interaction:TYR:130>  (337) 
1

>  <hydroph_interaction:PRO:131>  (337) 
1

>  <hydroph_interaction:ASP:129>  (337) 
0

>  <saltbridge:ASP:75>  (337) 
0

>  <saltbridge:ASP:83>  (337) 
0

>  <hbond:ASN:152>  (337) 
0

>  <hydroph_interaction:ASN:152>  (337) 
0

>  <halogenbond:TYR:150>  (337) 
0

>  <hbond:ASP:83>  (337) 
0

>  <hydroph_interaction:VAL:155>  (337) 
0

>  <pication:TYR:161>  (337) 
0

>  <hbond:PRO:131>  (337) 
0

>  <saltbridge:ASP:129>  (337) 
0

>  <hbond:THR:134>  (337) 
0

>  <pication:HIS:51>  (337) 
0

>  <hbond:SER:81>  (337) 
0

>  <hydroph_interaction:THR:134>  (337) 
0

>  <hydroph_interaction:MET:49>  (337) 
0

$$$$
CSSB00012001286
     RDKit          3D

 19 20  0  0  0  0  0  0  0  0999 V2000
   -4.9400    5.8270  -17.4790 C   0  0  0  0  0  0  0  0  0  0  0  0
   -6.2230    5.6860  -16.8320 N   0  0  0  0  0  0  0  0  0  0  0  0
   -6.3760    5.8830  -15.4920 N   0  0  0  0  0  0  0  0  0  0  0  0
   -7.6870    5.6540  -15.2980 C   0  0  0  0  0  0  0  0  0  0  0  0
   -8.2820    5.7770  -13.9930 C   0  0  0  0  0  0  0  0  0  0  0  0
   -8.7850    5.9640  -12.9610 N   0  0  0  0  0  0  0  0  0  0  0  0
   -8.3470    5.3060  -16.4930 C   0  0  0  0  0  0  0  0  0  0  0  0
   -9.6490    4.9690  -16.8410 C   0  0  0  0  0  0  0  0  0  0  0  0
   -9.9530    4.6900  -18.1760 C   0  0  0  0  0  0  0  0  0  0  0  0
   -8.9620    4.7450  -19.1520 C   0  0  0  0  0  0  0  0  0  0  0  0
   -7.6480    5.0740  -18.8230 C   0  0  0  0  0  0  0  0  0  0  0  0
   -7.3760    5.3470  -17.4770 C   0  0  0  0  0  0  0  0  0  0  0  0
   -4.2020    5.2630  -16.9100 H   0  0  0  0  0  0  0  0  0  0  0  0
   -4.9990    5.4370  -18.4970 H   0  0  0  0  0  0  0  0  0  0  0  0
   -4.6820    6.8900  -17.5040 H   0  0  0  0  0  0  0  0  0  0  0  0
  -10.4100    4.9270  -16.0780 H   0  0  0  0  0  0  0  0  0  0  0  0
  -10.9730    4.4300  -18.4510 H   0  0  0  0  0  0  0  0  0  0  0  0
   -9.2150    4.5270  -20.1900 H   0  0  0  0  0  0  0  0  0  0  0  0
   -6.8770    5.1100  -19.5880 H   0  0  0  0  0  0  0  0  0  0  0  0
  1  2  1  0
  2  3  1  0
  3  4  2  0
  4  5  1  0
  5  6  3  0
  4  7  1  0
  7  8  2  0
  8  9  1  0
  9 10  2  0
 10 11  1  0
 11 12  2  0
 12  2  1  0
 12  7  1  0
  1 13  1  0
  1 14  1  0
  1 15  1  0
  8 16  1  0
  9 17  1  0
 10 18  1  0
 11 19  1  0
A    1
 C1 
A    2
 N1 
A    3
 N2 
A    4
 C2 
A    5
 C3 
A    6
 N3 
A    7
 C4 
A    8
 C5 
A    9
 C6 
A   10
 C7 
A   11
 C8 
A   12
 C9 
A   13
 H1 
A   14
 H2 
A   15
 H3 
A   16
 H4 
A   17
 H5 
A   18
 H6 
A   19
 H7 
M  END
>  <ref_pdb>  (338) 
x0051_0B

>  <ref_mols>  (338) 
x0951_0B,x0969_0B

>  <original SMILES>  (338) 
[H]c1c([H])c([H])c2c(c(C#N)nn2C([H])([H])[H])c1[H]

>  <index>  (338) 
3565

>  <∆∆G>  (338) 
-6.091944

>  <∆G_bound>  (338) 
-6.095396

>  <∆G_unbound>  (338) 
-0.003452

>  <comRMSD>  (338) 
0.66685

>  <N_constrained_atoms>  (338) 
15.0

>  <N_unconstrained_atoms>  (338) 
0.0

>  <runtime>  (338) 
28.569221

>  <LE>  (338) 
0.40613

>  <percent_hybrid>  (338) 
45.0

>  <dist>  (338) 
5.0

>  <ecfp4>  (338) 
0.207547

>  <daylight>  (338) 
0.366279

>  <topodist>  (338) 
3.0

>  <mces>  (338) 
13.0

>  <tdn>  (338) 
2.0

>  <tup>  (338) 
0.0

>  <rdn>  (338) 
1.0

>  <rup>  (338) 
0.0

>  <ldn>  (338) 
0.0

>  <lup>  (338) 
0.0

>  <mut>  (338) 
0.0

>  <maj>  (338) 
0.0

>  <min>  (338) 
0.0

>  <hyb>  (338) 
2.0

>  <sub>  (338) 
2.0

>  <query_index>  (338) 
121.0

>  <max_hit_Tanimoto>  (338) 
0.217391

>  <largest_ring>  (338) 
6

>  <N_interactions_kept>  (338) 
0.0

>  <N_interactions_lost>  (338) 
3.0

>  <interaction_uniqueness_metric>  (338) 
0.034019

>  <ad_hoc_penalty>  (338) 
-3.36484

>  <N_rotatable_bonds>  (338) 
1

>  <N_HA>  (338) 
12

>  <cluster>  (338) 
2908

>  <N_interactions>  (338) 
3

>  <Enamine>  (338) 
1

>  <Mcule>  (338) 
0

>  <N_PAINS>  (338) 
0

>  <UFF_Gibbs>  (338) 
9.705239

>  <strain_per_HA>  (338) 
0.80877

>  <intxn_scored>  (338) 
8.5

>  <saltbridge:HIS:51>  (338) 
0

>  <pistack:HIS:51>  (338) 
0

>  <hydroph_interaction:HIS:51>  (338) 
0

>  <hbond:ALA:132>  (338) 
0

>  <hbond:SER:135>  (338) 
0

>  <hydroph_interaction:TYR:150>  (338) 
1

>  <pistack:TYR:161>  (338) 
2

>  <hydroph_interaction:TYR:161>  (338) 
0

>  <hydroph_interaction:ASP:83>  (338) 
0

>  <hbond:TYR:130>  (338) 
0

>  <hydroph_interaction:ALA:132>  (338) 
0

>  <hbond:HIS:51>  (338) 
0

>  <hbond:ASP:129>  (338) 
0

>  <hbond:TYR:150>  (338) 
0

>  <hbond:GLY:151>  (338) 
0

>  <hbond:TYR:161>  (338) 
0

>  <hydroph_interaction:TYR:130>  (338) 
0

>  <hydroph_interaction:PRO:131>  (338) 
0

>  <hydroph_interaction:ASP:129>  (338) 
0

>  <saltbridge:ASP:75>  (338) 
0

>  <saltbridge:ASP:83>  (338) 
0

>  <hbond:ASN:152>  (338) 
0

>  <hydroph_interaction:ASN:152>  (338) 
0

>  <halogenbond:TYR:150>  (338) 
0

>  <hbond:ASP:83>  (338) 
0

>  <hydroph_interaction:VAL:155>  (338) 
0

>  <pication:TYR:161>  (338) 
0

>  <hbond:PRO:131>  (338) 
0

>  <saltbridge:ASP:129>  (338) 
0

>  <hbond:THR:134>  (338) 
0

>  <pication:HIS:51>  (338) 
0

>  <hbond:SER:81>  (338) 
0

>  <hydroph_interaction:THR:134>  (338) 
0

>  <hydroph_interaction:MET:49>  (338) 
0

$$$$
CSSB00138437953
     RDKit          3D

 31 33  0  0  0  0  0  0  0  0999 V2000
   -5.3540    5.3520  -15.4360 C   0  0  0  0  0  0  0  0  0  0  0  0
   -5.9790    5.3800  -16.7330 N   0  0  0  0  0  0  0  0  0  0  0  0
   -5.3580    5.6390  -17.8920 C   0  0  0  0  0  0  0  0  0  0  0  0
   -6.3130    5.5810  -18.9830 C   0  0  0  0  0  0  0  0  0  0  0  0
   -5.8600    5.8710  -20.3810 C   0  0  0  0  0  0  0  0  0  0  0  0
   -6.0970    7.3880  -20.5180 C   0  0  0  0  0  0  0  0  0  0  0  0
   -4.7780    7.9910  -20.7620 C   0  0  0  0  0  0  0  0  0  0  0  0
   -3.7770    7.0230  -20.9190 C   0  0  0  0  0  0  0  0  0  0  0  0
   -4.3840    5.7180  -20.5200 N   0  0  0  0  0  0  0  0  0  0  0  0
   -7.5650    5.2550  -18.4100 C   0  0  0  0  0  0  0  0  0  0  0  0
   -8.8400    5.0500  -18.9160 C   0  0  0  0  0  0  0  0  0  0  0  0
   -9.8880    4.7610  -18.0690 C   0  0  0  0  0  0  0  0  0  0  0  0
   -9.6510    4.6760  -16.6970 C   0  0  0  0  0  0  0  0  0  0  0  0
   -8.3770    4.8610  -16.1490 C   0  0  0  0  0  0  0  0  0  0  0  0
   -7.3290    5.1510  -17.0100 C   0  0  0  0  0  0  0  0  0  0  0  0
   -4.3380    4.9590  -15.5230 H   0  0  0  0  0  0  0  0  0  0  0  0
   -5.9430    4.7390  -14.7500 H   0  0  0  0  0  0  0  0  0  0  0  0
   -5.3320    6.3750  -15.0510 H   0  0  0  0  0  0  0  0  0  0  0  0
   -4.2900    5.8650  -17.9980 H   0  0  0  0  0  0  0  0  0  0  0  0
   -6.4170    5.2960  -21.1330 H   0  0  0  0  0  0  0  0  0  0  0  0
   -6.7570    7.6410  -21.3530 H   0  0  0  0  0  0  0  0  0  0  0  0
   -6.5530    7.8140  -19.6130 H   0  0  0  0  0  0  0  0  0  0  0  0
   -4.5120    8.6500  -19.9260 H   0  0  0  0  0  0  0  0  0  0  0  0
   -4.8160    8.6180  -21.6610 H   0  0  0  0  0  0  0  0  0  0  0  0
   -3.4150    7.0150  -21.9550 H   0  0  0  0  0  0  0  0  0  0  0  0
   -2.9230    7.2550  -20.2730 H   0  0  0  0  0  0  0  0  0  0  0  0
   -4.0070    5.4470  -19.6120 H   0  0  0  0  0  0  0  0  0  0  0  0
   -9.0150    5.1260  -19.9870 H   0  0  0  0  0  0  0  0  0  0  0  0
  -10.8860    4.6060  -18.4650 H   0  0  0  0  0  0  0  0  0  0  0  0
  -10.4800    4.4550  -16.0380 H   0  0  0  0  0  0  0  0  0  0  0  0
   -8.2250    4.7800  -15.0780 H   0  0  0  0  0  0  0  0  0  0  0  0
  1  2  1  0
  2  3  1  0
  3  4  2  0
  4  5  1  0
  5  6  1  0
  6  7  1  0
  7  8  1  0
  8  9  1  0
  4 10  1  0
 10 11  2  0
 11 12  1  0
 12 13  2  0
 13 14  1  0
 14 15  2  0
 15  2  1  0
  9  5  1  0
 15 10  1  0
  1 16  1  0
  1 17  1  0
  1 18  1  0
  3 19  1  0
  5 20  1  0
  6 21  1  0
  6 22  1  0
  7 23  1  0
  7 24  1  0
  8 25  1  0
  8 26  1  0
  9 27  1  0
 11 28  1  0
 12 29  1  0
 13 30  1  0
 14 31  1  0
A    1
 C1 
A    2
 N1 
A    3
 C2 
A    4
 C3 
A    5
 C4 
A    6
 C5 
A    7
 C6 
A    8
 C7 
A    9
 N2 
A   10
 C8 
A   11
 C9 
A   12
 C10
A   13
 C11
A   14
 C12
A   15
 C13
A   16
 H1 
A   17
 H2 
A   18
 H3 
A   19
 H4 
A   20
 H5 
A   21
 H6 
A   22
 H7 
A   23
 H8 
A   24
 H9 
A   25
 H10
A   26
 H11
A   27
 H12
A   28
 H13
A   29
 H14
A   30
 H15
A   31
 H16
M  END
>  <ref_pdb>  (339) 
x0051_0B

>  <ref_mols>  (339) 
x0229_0B,x0727_0B

>  <original SMILES>  (339) 
[H]c1c([H])c([H])c2c(c1[H])c(C1([H])N([H])C([H])([H])C([H])([H])C1([H])[H])c([H])n2C([H])([H])[H]

>  <index>  (339) 
2073

>  <∆∆G>  (339) 
-6.139809

>  <∆G_bound>  (339) 
-5.958323

>  <∆G_unbound>  (339) 
0.181486

>  <comRMSD>  (339) 
0.646213

>  <N_constrained_atoms>  (339) 
17.0

>  <N_unconstrained_atoms>  (339) 
0.0

>  <runtime>  (339) 
28.800905

>  <LE>  (339) 
0.361165

>  <percent_hybrid>  (339) 
29.0

>  <dist>  (339) 
5.0

>  <ecfp4>  (339) 
0.225806

>  <daylight>  (339) 
0.211382

>  <topodist>  (339) 
4.0

>  <mces>  (339) 
16.0

>  <tdn>  (339) 
1.0

>  <tup>  (339) 
0.0

>  <rdn>  (339) 
1.0

>  <rup>  (339) 
1.0

>  <ldn>  (339) 
1.0

>  <lup>  (339) 
0.0

>  <mut>  (339) 
0.0

>  <maj>  (339) 
0.0

>  <min>  (339) 
0.0

>  <hyb>  (339) 
1.0

>  <sub>  (339) 
2.0

>  <query_index>  (339) 
150.0

>  <max_hit_Tanimoto>  (339) 
0.27492

>  <largest_ring>  (339) 
6

>  <N_interactions_kept>  (339) 
1.5

>  <N_interactions_lost>  (339) 
2.0

>  <interaction_uniqueness_metric>  (339) 
0.034019

>  <ad_hoc_penalty>  (339) 
-7.558045

>  <N_rotatable_bonds>  (339) 
2

>  <N_HA>  (339) 
15

>  <cluster>  (339) 
4318

>  <N_interactions>  (339) 
3

>  <Enamine>  (339) 
1

>  <Mcule>  (339) 
0

>  <N_PAINS>  (339) 
0

>  <UFF_Gibbs>  (339) 
63.250315

>  <strain_per_HA>  (339) 
4.216688

>  <intxn_scored>  (339) 
8.5

>  <saltbridge:HIS:51>  (339) 
0

>  <pistack:HIS:51>  (339) 
0

>  <hydroph_interaction:HIS:51>  (339) 
0

>  <hbond:ALA:132>  (339) 
0

>  <hbond:SER:135>  (339) 
0

>  <hydroph_interaction:TYR:150>  (339) 
1

>  <pistack:TYR:161>  (339) 
2

>  <hydroph_interaction:TYR:161>  (339) 
0

>  <hydroph_interaction:ASP:83>  (339) 
0

>  <hbond:TYR:130>  (339) 
0

>  <hydroph_interaction:ALA:132>  (339) 
0

>  <hbond:HIS:51>  (339) 
0

>  <hbond:ASP:129>  (339) 
0

>  <hbond:TYR:150>  (339) 
0

>  <hbond:GLY:151>  (339) 
0

>  <hbond:TYR:161>  (339) 
0

>  <hydroph_interaction:TYR:130>  (339) 
0

>  <hydroph_interaction:PRO:131>  (339) 
0

>  <hydroph_interaction:ASP:129>  (339) 
0

>  <saltbridge:ASP:75>  (339) 
0

>  <saltbridge:ASP:83>  (339) 
0

>  <hbond:ASN:152>  (339) 
0

>  <hydroph_interaction:ASN:152>  (339) 
0

>  <halogenbond:TYR:150>  (339) 
0

>  <hbond:ASP:83>  (339) 
0

>  <hydroph_interaction:VAL:155>  (339) 
0

>  <pication:TYR:161>  (339) 
0

>  <hbond:PRO:131>  (339) 
0

>  <saltbridge:ASP:129>  (339) 
0

>  <hbond:THR:134>  (339) 
0

>  <pication:HIS:51>  (339) 
0

>  <hbond:SER:81>  (339) 
0

>  <hydroph_interaction:THR:134>  (339) 
0

>  <hydroph_interaction:MET:49>  (339) 
0

$$$$
PV-002751555068
     RDKit          3D

 24 24  0  0  0  0  0  0  0  0999 V2000
  -10.2450    4.8390  -18.5400 C   0  0  0  0  0  0  0  0  0  0  0  0
   -9.2510    4.9940  -17.4410 C   0  0  0  0  0  0  0  0  0  0  0  0
   -9.5060    4.9880  -16.1260 C   0  0  0  0  0  0  0  0  0  0  0  0
   -9.5230    6.3570  -15.6070 N   0  0  0  0  0  0  0  0  0  0  0  0
   -7.8010    5.1700  -17.9020 C   0  0  0  0  0  0  0  0  0  0  0  0
   -6.7460    5.1240  -16.9950 C   0  0  0  0  0  0  0  0  0  0  0  0
   -7.0140    4.9290  -15.6980 F   0  0  0  0  0  0  0  0  0  0  0  0
   -5.4190    5.2730  -17.4130 C   0  0  0  0  0  0  0  0  0  0  0  0
   -4.3540    5.2150  -16.4970 C   0  0  0  0  0  0  0  0  0  0  0  0
   -5.1620    5.4770  -18.7720 C   0  0  0  0  0  0  0  0  0  0  0  0
   -6.2140    5.5300  -19.6820 C   0  0  0  0  0  0  0  0  0  0  0  0
   -7.5230    5.3740  -19.2380 C   0  0  0  0  0  0  0  0  0  0  0  0
  -11.3130    4.7050  -18.3510 H   0  0  0  0  0  0  0  0  0  0  0  0
   -9.9060    4.8620  -19.5830 H   0  0  0  0  0  0  0  0  0  0  0  0
   -8.7170    4.4470  -15.6030 H   0  0  0  0  0  0  0  0  0  0  0  0
  -10.4150    4.5480  -15.7520 H   0  0  0  0  0  0  0  0  0  0  0  0
  -10.3600    6.8260  -15.9630 H   0  0  0  0  0  0  0  0  0  0  0  0
   -9.6350    6.3150  -14.5950 H   0  0  0  0  0  0  0  0  0  0  0  0
   -4.0090    6.2180  -16.2260 H   0  0  0  0  0  0  0  0  0  0  0  0
   -3.5150    4.6560  -16.9270 H   0  0  0  0  0  0  0  0  0  0  0  0
   -4.6860    4.7200  -15.5790 H   0  0  0  0  0  0  0  0  0  0  0  0
   -4.1420    5.5960  -19.1320 H   0  0  0  0  0  0  0  0  0  0  0  0
   -6.0160    5.6900  -20.7460 H   0  0  0  0  0  0  0  0  0  0  0  0
   -8.3370    5.4150  -19.9630 H   0  0  0  0  0  0  0  0  0  0  0  0
  1  2  2  3
  2  3  1  0
  3  4  1  0
  2  5  1  0
  5  6  2  0
  6  7  1  0
  6  8  1  0
  8  9  1  0
  8 10  2  0
 10 11  1  0
 11 12  2  0
 12  5  1  0
  1 13  1  0
  1 14  1  0
  3 15  1  0
  3 16  1  0
  4 17  1  0
  4 18  1  0
  9 19  1  0
  9 20  1  0
  9 21  1  0
 10 22  1  0
 11 23  1  0
 12 24  1  0
A    1
 C1 
A    2
 C2 
A    3
 C3 
A    4
 N1 
A    5
 C4 
A    6
 C5 
A    7
 F1 
A    8
 C6 
A    9
 C7 
A   10
 C8 
A   11
 C9 
A   12
 C10
A   13
 H1 
A   14
 H2 
A   15
 H3 
A   16
 H4 
A   17
 H5 
A   18
 H6 
A   19
 H7 
A   20
 H8 
A   21
 H9 
A   22
 H10
A   23
 H11
A   24
 H12
M  END
>  <ref_pdb>  (340) 
x0051_0B

>  <ref_mols>  (340) 
x0425_0B,x0435_0B

>  <original SMILES>  (340) 
[H]C([H])=C(c1c([H])c([H])c([H])c(C([H])([H])[H])c1F)C([H])([H])N([H])[H]

>  <index>  (340) 
1518

>  <∆∆G>  (340) 
-6.185704

>  <∆G_bound>  (340) 
-6.066581

>  <∆G_unbound>  (340) 
0.119123

>  <comRMSD>  (340) 
0.702214

>  <N_constrained_atoms>  (340) 
13.0

>  <N_unconstrained_atoms>  (340) 
1.0

>  <runtime>  (340) 
27.123132

>  <LE>  (340) 
0.441836

>  <percent_hybrid>  (340) 
40.0

>  <dist>  (340) 
3.0

>  <ecfp4>  (340) 
0.270833

>  <daylight>  (340) 
0.159574

>  <topodist>  (340) 
2.0

>  <mces>  (340) 
12.0

>  <tdn>  (340) 
1.0

>  <tup>  (340) 
0.0

>  <rdn>  (340) 
1.0

>  <rup>  (340) 
0.0

>  <ldn>  (340) 
0.0

>  <lup>  (340) 
0.0

>  <mut>  (340) 
1.0

>  <maj>  (340) 
1.0

>  <min>  (340) 
0.0

>  <hyb>  (340) 
0.0

>  <sub>  (340) 
1.0

>  <query_index>  (340) 
107.0

>  <max_hit_Tanimoto>  (340) 
0.105675

>  <largest_ring>  (340) 
6

>  <N_interactions_kept>  (340) 
1.0

>  <N_interactions_lost>  (340) 
2.5

>  <interaction_uniqueness_metric>  (340) 
0.104102

>  <ad_hoc_penalty>  (340) 
-7.378916

>  <N_rotatable_bonds>  (340) 
4

>  <N_HA>  (340) 
12

>  <cluster>  (340) 
4825

>  <N_interactions>  (340) 
6

>  <Enamine>  (340) 
1

>  <Mcule>  (340) 
0

>  <N_PAINS>  (340) 
0

>  <UFF_Gibbs>  (340) 
101.591054

>  <strain_per_HA>  (340) 
8.465921

>  <intxn_scored>  (340) 
8.5

>  <saltbridge:HIS:51>  (340) 
0

>  <pistack:HIS:51>  (340) 
0

>  <hydroph_interaction:HIS:51>  (340) 
0

>  <hbond:ALA:132>  (340) 
1

>  <hbond:SER:135>  (340) 
0

>  <hydroph_interaction:TYR:150>  (340) 
1

>  <pistack:TYR:161>  (340) 
1

>  <hydroph_interaction:TYR:161>  (340) 
3

>  <hydroph_interaction:ASP:83>  (340) 
0

>  <hbond:TYR:130>  (340) 
0

>  <hydroph_interaction:ALA:132>  (340) 
0

>  <hbond:HIS:51>  (340) 
0

>  <hbond:ASP:129>  (340) 
0

>  <hbond:TYR:150>  (340) 
0

>  <hbond:GLY:151>  (340) 
0

>  <hbond:TYR:161>  (340) 
0

>  <hydroph_interaction:TYR:130>  (340) 
0

>  <hydroph_interaction:PRO:131>  (340) 
0

>  <hydroph_interaction:ASP:129>  (340) 
0

>  <saltbridge:ASP:75>  (340) 
0

>  <saltbridge:ASP:83>  (340) 
0

>  <hbond:ASN:152>  (340) 
0

>  <hydroph_interaction:ASN:152>  (340) 
0

>  <halogenbond:TYR:150>  (340) 
0

>  <hbond:ASP:83>  (340) 
0

>  <hydroph_interaction:VAL:155>  (340) 
0

>  <pication:TYR:161>  (340) 
0

>  <hbond:PRO:131>  (340) 
0

>  <saltbridge:ASP:129>  (340) 
0

>  <hbond:THR:134>  (340) 
0

>  <pication:HIS:51>  (340) 
0

>  <hbond:SER:81>  (340) 
0

>  <hydroph_interaction:THR:134>  (340) 
0

>  <hydroph_interaction:MET:49>  (340) 
0

$$$$
CSSS00010510025
     RDKit          3D

 22 24  0  0  0  0  0  0  0  0999 V2000
   -4.7830    5.2970  -19.4800 O   0  0  0  0  0  0  0  0  0  0  0  0
   -5.9150    5.3970  -19.0430 C   0  0  0  0  0  0  0  0  0  0  0  0
   -7.1060    5.3630  -19.8140 N   0  0  0  0  0  0  0  0  0  0  0  0
   -8.1510    5.1430  -18.9390 C   0  0  0  0  0  0  0  0  0  0  0  0
   -9.4860    4.8470  -19.1490 C   0  0  0  0  0  0  0  0  0  0  0  0
  -10.2980    4.6870  -18.0250 C   0  0  0  0  0  0  0  0  0  0  0  0
   -9.7860    4.8190  -16.7270 C   0  0  0  0  0  0  0  0  0  0  0  0
   -8.4440    5.1180  -16.5390 C   0  0  0  0  0  0  0  0  0  0  0  0
   -7.6690    5.2700  -17.6590 C   0  0  0  0  0  0  0  0  0  0  0  0
   -6.3230    5.5670  -17.7030 N   0  0  0  0  0  0  0  0  0  0  0  0
   -5.5470    5.6480  -16.4770 C   0  0  0  0  0  0  0  0  0  0  0  0
   -6.2180    5.2450  -15.3200 C   0  0  0  0  0  0  0  0  0  0  0  0
   -7.7430    5.2940  -15.2660 C   0  0  0  0  0  0  0  0  0  0  0  0
   -8.3660    5.4800  -14.2280 O   0  0  0  0  0  0  0  0  0  0  0  0
   -7.1920    5.8340  -20.7060 H   0  0  0  0  0  0  0  0  0  0  0  0
   -9.8780    4.7480  -20.1490 H   0  0  0  0  0  0  0  0  0  0  0  0
  -11.3550    4.4550  -18.1600 H   0  0  0  0  0  0  0  0  0  0  0  0
  -10.4330    4.6870  -15.8630 H   0  0  0  0  0  0  0  0  0  0  0  0
   -5.2370    6.6950  -16.3760 H   0  0  0  0  0  0  0  0  0  0  0  0
   -4.6330    5.0620  -16.6160 H   0  0  0  0  0  0  0  0  0  0  0  0
   -5.8790    5.8720  -14.4880 H   0  0  0  0  0  0  0  0  0  0  0  0
   -5.9080    4.2240  -15.0850 H   0  0  0  0  0  0  0  0  0  0  0  0
  1  2  2  0
  2  3  1  0
  3  4  1  0
  4  5  2  0
  5  6  1  0
  6  7  2  0
  7  8  1  0
  8  9  2  0
  9 10  1  0
 10 11  1  0
 11 12  1  0
 12 13  1  0
 13 14  2  0
 10  2  1  0
  9  4  1  0
 13  8  1  0
  3 15  1  0
  5 16  1  0
  6 17  1  0
  7 18  1  0
 11 19  1  0
 11 20  1  0
 12 21  1  0
 12 22  1  0
A    1
 O1 
A    2
 C1 
A    3
 N1 
A    4
 C2 
A    5
 C3 
A    6
 C4 
A    7
 C5 
A    8
 C6 
A    9
 C7 
A   10
 N2 
A   11
 C8 
A   12
 C9 
A   13
 C10
A   14
 O2 
A   15
 H1 
A   16
 H2 
A   17
 H3 
A   18
 H4 
A   19
 H5 
A   20
 H6 
A   21
 H7 
A   22
 H8 
M  END
>  <ref_pdb>  (341) 
x0051_0B

>  <ref_mols>  (341) 
x0443_0B,x0455_0B

>  <original SMILES>  (341) 
[H]c1c([H])c2c3c(c1[H])n([H])c(=O)n3C([H])([H])C([H])([H])C2=O

>  <index>  (341) 
1563

>  <∆∆G>  (341) 
-5.402241

>  <∆G_bound>  (341) 
-5.168468

>  <∆G_unbound>  (341) 
0.233773

>  <comRMSD>  (341) 
0.342296

>  <N_constrained_atoms>  (341) 
14.0

>  <N_unconstrained_atoms>  (341) 
1.0

>  <runtime>  (341) 
17.645633

>  <LE>  (341) 
0.360149

>  <percent_hybrid>  (341) 
43.0

>  <dist>  (341) 
4.0

>  <ecfp4>  (341) 
0.226415

>  <daylight>  (341) 
0.711538

>  <topodist>  (341) 
1.0

>  <mces>  (341) 
15.0

>  <tdn>  (341) 
0.0

>  <tup>  (341) 
1.0

>  <rdn>  (341) 
0.0

>  <rup>  (341) 
0.0

>  <ldn>  (341) 
0.0

>  <lup>  (341) 
0.0

>  <mut>  (341) 
1.0

>  <maj>  (341) 
1.0

>  <min>  (341) 
0.0

>  <hyb>  (341) 
2.0

>  <sub>  (341) 
0.0

>  <query_index>  (341) 
244.0

>  <max_hit_Tanimoto>  (341) 
0.290675

>  <largest_ring>  (341) 
6

>  <N_interactions_kept>  (341) 
0.0

>  <N_interactions_lost>  (341) 
3.0

>  <interaction_uniqueness_metric>  (341) 
0.066244

>  <ad_hoc_penalty>  (341) 
-11.650462

>  <N_rotatable_bonds>  (341) 
0

>  <N_HA>  (341) 
14

>  <cluster>  (341) 
4783

>  <N_interactions>  (341) 
5

>  <Enamine>  (341) 
1

>  <Mcule>  (341) 
0

>  <N_PAINS>  (341) 
0

>  <UFF_Gibbs>  (341) 
48.605432

>  <strain_per_HA>  (341) 
3.471817

>  <intxn_scored>  (341) 
8.5

>  <saltbridge:HIS:51>  (341) 
0

>  <pistack:HIS:51>  (341) 
0

>  <hydroph_interaction:HIS:51>  (341) 
0

>  <hbond:ALA:132>  (341) 
0

>  <hbond:SER:135>  (341) 
0

>  <hydroph_interaction:TYR:150>  (341) 
1

>  <pistack:TYR:161>  (341) 
1

>  <hydroph_interaction:TYR:161>  (341) 
2

>  <hydroph_interaction:ASP:83>  (341) 
0

>  <hbond:TYR:130>  (341) 
1

>  <hydroph_interaction:ALA:132>  (341) 
0

>  <hbond:HIS:51>  (341) 
0

>  <hbond:ASP:129>  (341) 
0

>  <hbond:TYR:150>  (341) 
0

>  <hbond:GLY:151>  (341) 
0

>  <hbond:TYR:161>  (341) 
0

>  <hydroph_interaction:TYR:130>  (341) 
0

>  <hydroph_interaction:PRO:131>  (341) 
0

>  <hydroph_interaction:ASP:129>  (341) 
0

>  <saltbridge:ASP:75>  (341) 
0

>  <saltbridge:ASP:83>  (341) 
0

>  <hbond:ASN:152>  (341) 
0

>  <hydroph_interaction:ASN:152>  (341) 
0

>  <halogenbond:TYR:150>  (341) 
0

>  <hbond:ASP:83>  (341) 
0

>  <hydroph_interaction:VAL:155>  (341) 
0

>  <pication:TYR:161>  (341) 
0

>  <hbond:PRO:131>  (341) 
0

>  <saltbridge:ASP:129>  (341) 
0

>  <hbond:THR:134>  (341) 
0

>  <pication:HIS:51>  (341) 
0

>  <hbond:SER:81>  (341) 
0

>  <hydroph_interaction:THR:134>  (341) 
0

>  <hydroph_interaction:MET:49>  (341) 
0

$$$$
CSSB00045593680
     RDKit          3D

 31 33  0  0  0  0  0  0  0  0999 V2000
   -4.3820    5.2310  -21.1030 C   0  0  0  0  0  0  0  0  0  0  0  0
   -4.5350    5.8620  -19.7000 C   0  0  0  0  0  0  0  0  0  0  0  0
   -3.4230    5.4410  -18.6950 C   0  0  0  0  0  0  0  0  0  0  0  0
   -3.8150    5.3970  -17.2170 C   0  0  0  0  0  0  0  0  0  0  0  0
   -5.1100    5.7520  -16.7780 C   0  0  0  0  0  0  0  0  0  0  0  0
   -6.1330    5.5370  -17.7920 N   0  0  0  0  0  0  0  0  0  0  0  0
   -5.8870    5.5740  -19.1390 C   0  0  0  0  0  0  0  0  0  0  0  0
   -6.9730    5.3360  -19.8300 N   0  0  0  0  0  0  0  0  0  0  0  0
   -7.9540    5.1520  -18.9020 C   0  0  0  0  0  0  0  0  0  0  0  0
   -9.3150    4.8740  -19.0960 C   0  0  0  0  0  0  0  0  0  0  0  0
  -10.1610    4.7270  -18.0020 C   0  0  0  0  0  0  0  0  0  0  0  0
   -9.6480    4.8520  -16.7130 C   0  0  0  0  0  0  0  0  0  0  0  0
   -8.3070    5.1220  -16.5010 C   0  0  0  0  0  0  0  0  0  0  0  0
   -8.0110    5.2050  -15.0160 C   0  0  0  0  0  0  0  0  0  0  0  0
   -7.4650    5.2720  -17.6070 C   0  0  0  0  0  0  0  0  0  0  0  0
   -3.4280    4.6940  -21.1970 H   0  0  0  0  0  0  0  0  0  0  0  0
   -5.1850    4.5230  -21.3450 H   0  0  0  0  0  0  0  0  0  0  0  0
   -4.4130    5.9940  -21.8850 H   0  0  0  0  0  0  0  0  0  0  0  0
   -4.4770    6.9500  -19.8600 H   0  0  0  0  0  0  0  0  0  0  0  0
   -2.5830    6.1420  -18.7780 H   0  0  0  0  0  0  0  0  0  0  0  0
   -3.0450    4.4550  -18.9850 H   0  0  0  0  0  0  0  0  0  0  0  0
   -3.6410    4.3770  -16.8430 H   0  0  0  0  0  0  0  0  0  0  0  0
   -3.1070    6.0310  -16.6660 H   0  0  0  0  0  0  0  0  0  0  0  0
   -5.3730    5.1600  -15.8920 H   0  0  0  0  0  0  0  0  0  0  0  0
   -5.1380    6.8150  -16.5230 H   0  0  0  0  0  0  0  0  0  0  0  0
   -9.7210    4.7750  -20.1020 H   0  0  0  0  0  0  0  0  0  0  0  0
  -11.2130    4.5190  -18.1570 H   0  0  0  0  0  0  0  0  0  0  0  0
  -10.3080    4.7360  -15.8580 H   0  0  0  0  0  0  0  0  0  0  0  0
   -7.7930    6.2310  -14.7060 H   0  0  0  0  0  0  0  0  0  0  0  0
   -7.1410    4.5950  -14.7470 H   0  0  0  0  0  0  0  0  0  0  0  0
   -8.8600    4.8460  -14.4250 H   0  0  0  0  0  0  0  0  0  0  0  0
  1  2  1  0
  2  3  1  0
  3  4  1  0
  4  5  1  0
  5  6  1  0
  6  7  1  0
  7  8  2  0
  8  9  1  0
  9 10  2  0
 10 11  1  0
 11 12  2  0
 12 13  1  0
 13 14  1  0
 13 15  2  0
  7  2  1  0
 15  6  1  0
 15  9  1  0
  1 16  1  0
  1 17  1  0
  1 18  1  0
  2 19  1  0
  3 20  1  0
  3 21  1  0
  4 22  1  0
  4 23  1  0
  5 24  1  0
  5 25  1  0
 10 26  1  0
 11 27  1  0
 12 28  1  0
 14 29  1  0
 14 30  1  0
 14 31  1  0
A    1
 C1 
A    2
 C2 
A    3
 C3 
A    4
 C4 
A    5
 C5 
A    6
 N1 
A    7
 C6 
A    8
 N2 
A    9
 C7 
A   10
 C8 
A   11
 C9 
A   12
 C10
A   13
 C11
A   14
 C12
A   15
 C13
A   16
 H1 
A   17
 H2 
A   18
 H3 
A   19
 H4 
A   20
 H5 
A   21
 H6 
A   22
 H7 
A   23
 H8 
A   24
 H9 
A   25
 H10
A   26
 H11
A   27
 H12
A   28
 H13
A   29
 H14
A   30
 H15
A   31
 H16
M  END
>  <ref_pdb>  (342) 
x0051_0B

>  <ref_mols>  (342) 
x0089_0B,x0455_0B

>  <original SMILES>  (342) 
[H]c1c([H])c(C([H])([H])[H])c2c(nc3n2C([H])([H])C([H])([H])C([H])([H])C3([H])C([H])([H])[H])c1[H]

>  <index>  (342) 
1086

>  <∆∆G>  (342) 
-7.025799

>  <∆G_bound>  (342) 
-7.116668

>  <∆G_unbound>  (342) 
-0.090869

>  <comRMSD>  (342) 
0.537392

>  <N_constrained_atoms>  (342) 
16.0

>  <N_unconstrained_atoms>  (342) 
2.0

>  <runtime>  (342) 
22.521457

>  <LE>  (342) 
0.390322

>  <percent_hybrid>  (342) 
34.0

>  <dist>  (342) 
3.0

>  <ecfp4>  (342) 
0.388889

>  <daylight>  (342) 
0.48731

>  <topodist>  (342) 
3.0

>  <mces>  (342) 
16.0

>  <tdn>  (342) 
0.0

>  <tup>  (342) 
0.0

>  <rdn>  (342) 
1.0

>  <rup>  (342) 
1.0

>  <ldn>  (342) 
1.0

>  <lup>  (342) 
0.0

>  <mut>  (342) 
0.0

>  <maj>  (342) 
0.0

>  <min>  (342) 
0.0

>  <hyb>  (342) 
0.0

>  <sub>  (342) 
2.0

>  <query_index>  (342) 
166.0

>  <max_hit_Tanimoto>  (342) 
0.20663

>  <largest_ring>  (342) 
6

>  <N_interactions_kept>  (342) 
0.0

>  <N_interactions_lost>  (342) 
3.0

>  <interaction_uniqueness_metric>  (342) 
0.047384

>  <ad_hoc_penalty>  (342) 
-15.621458

>  <N_rotatable_bonds>  (342) 
2

>  <N_HA>  (342) 
15

>  <cluster>  (342) 
430

>  <N_interactions>  (342) 
6

>  <Enamine>  (342) 
1

>  <Mcule>  (342) 
0

>  <N_PAINS>  (342) 
0

>  <UFF_Gibbs>  (342) 
42.153717

>  <strain_per_HA>  (342) 
2.810248

>  <intxn_scored>  (342) 
8.5

>  <saltbridge:HIS:51>  (342) 
0

>  <pistack:HIS:51>  (342) 
0

>  <hydroph_interaction:HIS:51>  (342) 
0

>  <hbond:ALA:132>  (342) 
0

>  <hbond:SER:135>  (342) 
0

>  <hydroph_interaction:TYR:150>  (342) 
1

>  <pistack:TYR:161>  (342) 
1

>  <hydroph_interaction:TYR:161>  (342) 
4

>  <hydroph_interaction:ASP:83>  (342) 
0

>  <hbond:TYR:130>  (342) 
0

>  <hydroph_interaction:ALA:132>  (342) 
0

>  <hbond:HIS:51>  (342) 
0

>  <hbond:ASP:129>  (342) 
0

>  <hbond:TYR:150>  (342) 
0

>  <hbond:GLY:151>  (342) 
0

>  <hbond:TYR:161>  (342) 
0

>  <hydroph_interaction:TYR:130>  (342) 
0

>  <hydroph_interaction:PRO:131>  (342) 
0

>  <hydroph_interaction:ASP:129>  (342) 
0

>  <saltbridge:ASP:75>  (342) 
0

>  <saltbridge:ASP:83>  (342) 
0

>  <hbond:ASN:152>  (342) 
0

>  <hydroph_interaction:ASN:152>  (342) 
0

>  <halogenbond:TYR:150>  (342) 
0

>  <hbond:ASP:83>  (342) 
0

>  <hydroph_interaction:VAL:155>  (342) 
0

>  <pication:TYR:161>  (342) 
0

>  <hbond:PRO:131>  (342) 
0

>  <saltbridge:ASP:129>  (342) 
0

>  <hbond:THR:134>  (342) 
0

>  <pication:HIS:51>  (342) 
0

>  <hbond:SER:81>  (342) 
0

>  <hydroph_interaction:THR:134>  (342) 
0

>  <hydroph_interaction:MET:49>  (342) 
0

$$$$
CSSB00010245029
     RDKit          3D

 17 18  0  0  0  0  0  0  0  0999 V2000
  -10.9210    4.9180  -18.6800 C   0  0  0  0  0  0  0  0  0  0  0  0
   -9.5750    4.9540  -17.9790 C   0  0  0  0  0  0  0  0  0  0  0  0
   -8.4440    5.0440  -18.9990 C   0  0  0  0  0  0  0  0  0  0  0  0
   -7.1680    5.1630  -18.5020 N   0  0  0  0  0  0  0  0  0  0  0  0
   -6.0000    5.2740  -19.1650 C   0  0  0  0  0  0  0  0  0  0  0  0
   -5.0300    5.3710  -18.2930 N   0  0  0  0  0  0  0  0  0  0  0  0
   -5.5910    5.3210  -17.0280 N   0  0  0  0  0  0  0  0  0  0  0  0
   -6.9030    5.1940  -17.1420 C   0  0  0  0  0  0  0  0  0  0  0  0
   -7.9180    5.0980  -16.1800 C   0  0  0  0  0  0  0  0  0  0  0  0
   -7.4290    5.1390  -14.3790 Br  0  0  0  0  0  0  0  0  0  0  0  0
   -9.2470    4.9770  -16.6050 C   0  0  0  0  0  0  0  0  0  0  0  0
  -11.4360    3.9810  -18.5410 H   0  0  0  0  0  0  0  0  0  0  0  0
  -10.8050    5.1430  -19.7400 H   0  0  0  0  0  0  0  0  0  0  0  0
  -11.5510    5.6980  -18.2890 H   0  0  0  0  0  0  0  0  0  0  0  0
   -8.5950    5.0410  -20.0710 H   0  0  0  0  0  0  0  0  0  0  0  0
   -5.9090    5.2800  -20.2500 H   0  0  0  0  0  0  0  0  0  0  0  0
   -9.9920    4.9050  -15.8080 H   0  0  0  0  0  0  0  0  0  0  0  0
  1  2  1  0
  2  3  2  0
  3  4  1  0
  4  5  1  0
  5  6  2  0
  6  7  1  0
  7  8  2  0
  8  9  1  0
  9 10  1  0
  9 11  2  0
 11  2  1  0
  8  4  1  0
  1 12  1  0
  1 13  1  0
  1 14  1  0
  3 15  1  0
  5 16  1  0
 11 17  1  0
A    1
 C1 
A    2
 C2 
A    3
 C3 
A    4
 N1 
A    5
 C4 
A    6
 N2 
A    7
 N3 
A    8
 C5 
A    9
 C6 
A   10
BR1 
A   11
 C7 
A   12
 H1 
A   13
 H2 
A   14
 H3 
A   15
 H4 
A   16
 H5 
A   17
 H6 
M  END
>  <ref_pdb>  (343) 
x0051_0B

>  <ref_mols>  (343) 
x0435_0B,x0605_0B

>  <original SMILES>  (343) 
[H]c1c(C([H])([H])[H])c([H])n2c([H])nnc2c1Br

>  <index>  (343) 
3162

>  <∆∆G>  (343) 
-5.196017

>  <∆G_bound>  (343) 
-5.14487

>  <∆G_unbound>  (343) 
0.051147

>  <comRMSD>  (343) 
0.710847

>  <N_constrained_atoms>  (343) 
12.0

>  <N_unconstrained_atoms>  (343) 
0.0

>  <runtime>  (343) 
29.910201

>  <LE>  (343) 
0.433001

>  <percent_hybrid>  (343) 
40.0

>  <dist>  (343) 
2.0

>  <ecfp4>  (343) 
0.302326

>  <daylight>  (343) 
0.6

>  <topodist>  (343) 
1.0

>  <mces>  (343) 
12.0

>  <tdn>  (343) 
1.0

>  <tup>  (343) 
0.0

>  <rdn>  (343) 
0.0

>  <rup>  (343) 
0.0

>  <ldn>  (343) 
0.0

>  <lup>  (343) 
0.0

>  <mut>  (343) 
1.0

>  <maj>  (343) 
1.0

>  <min>  (343) 
0.0

>  <hyb>  (343) 
0.0

>  <sub>  (343) 
1.0

>  <query_index>  (343) 
211.0

>  <max_hit_Tanimoto>  (343) 
0.433333

>  <largest_ring>  (343) 
6

>  <N_interactions_kept>  (343) 
1.0

>  <N_interactions_lost>  (343) 
2.5

>  <interaction_uniqueness_metric>  (343) 
0.034019

>  <ad_hoc_penalty>  (343) 
-3.512022

>  <N_rotatable_bonds>  (343) 
1

>  <N_HA>  (343) 
11

>  <cluster>  (343) 
3292

>  <N_interactions>  (343) 
3

>  <Enamine>  (343) 
1

>  <Mcule>  (343) 
0

>  <N_PAINS>  (343) 
0

>  <UFF_Gibbs>  (343) 
28.487237

>  <strain_per_HA>  (343) 
2.589749

>  <intxn_scored>  (343) 
8.5

>  <saltbridge:HIS:51>  (343) 
0

>  <pistack:HIS:51>  (343) 
0

>  <hydroph_interaction:HIS:51>  (343) 
0

>  <hbond:ALA:132>  (343) 
0

>  <hbond:SER:135>  (343) 
0

>  <hydroph_interaction:TYR:150>  (343) 
1

>  <pistack:TYR:161>  (343) 
2

>  <hydroph_interaction:TYR:161>  (343) 
0

>  <hydroph_interaction:ASP:83>  (343) 
0

>  <hbond:TYR:130>  (343) 
0

>  <hydroph_interaction:ALA:132>  (343) 
0

>  <hbond:HIS:51>  (343) 
0

>  <hbond:ASP:129>  (343) 
0

>  <hbond:TYR:150>  (343) 
0

>  <hbond:GLY:151>  (343) 
0

>  <hbond:TYR:161>  (343) 
0

>  <hydroph_interaction:TYR:130>  (343) 
0

>  <hydroph_interaction:PRO:131>  (343) 
0

>  <hydroph_interaction:ASP:129>  (343) 
0

>  <saltbridge:ASP:75>  (343) 
0

>  <saltbridge:ASP:83>  (343) 
0

>  <hbond:ASN:152>  (343) 
0

>  <hydroph_interaction:ASN:152>  (343) 
0

>  <halogenbond:TYR:150>  (343) 
0

>  <hbond:ASP:83>  (343) 
0

>  <hydroph_interaction:VAL:155>  (343) 
0

>  <pication:TYR:161>  (343) 
0

>  <hbond:PRO:131>  (343) 
0

>  <saltbridge:ASP:129>  (343) 
0

>  <hbond:THR:134>  (343) 
0

>  <pication:HIS:51>  (343) 
0

>  <hbond:SER:81>  (343) 
0

>  <hydroph_interaction:THR:134>  (343) 
0

>  <hydroph_interaction:MET:49>  (343) 
0

$$$$
CSSS00025781953
     RDKit          3D

 24 26  0  0  0  0  0  0  0  0999 V2000
   -4.2460    5.7650  -15.5540 O   0  0  0  0  0  0  0  0  0  0  0  0
   -5.4040    5.4420  -15.8200 C   0  0  0  0  0  0  0  0  0  0  0  0
   -6.3350    5.1060  -14.8100 C   0  0  0  0  0  0  0  0  0  0  0  0
   -7.7270    5.2020  -15.0710 C   0  0  0  0  0  0  0  0  0  0  0  0
   -8.0970    5.0990  -16.4110 C   0  0  0  0  0  0  0  0  0  0  0  0
   -9.5710    4.8860  -16.6900 C   0  0  0  0  0  0  0  0  0  0  0  0
  -10.0890    4.7650  -18.1120 C   0  0  0  0  0  0  0  0  0  0  0  0
   -9.0380    4.8820  -19.0300 C   0  0  0  0  0  0  0  0  0  0  0  0
   -7.6600    5.0780  -18.8330 C   0  0  0  0  0  0  0  0  0  0  0  0
   -6.7570    5.1700  -19.8950 C   0  0  0  0  0  0  0  0  0  0  0  0
   -5.4050    5.3600  -19.6070 C   0  0  0  0  0  0  0  0  0  0  0  0
   -4.9750    5.4480  -18.2900 C   0  0  0  0  0  0  0  0  0  0  0  0
   -5.8510    5.3600  -17.2230 C   0  0  0  0  0  0  0  0  0  0  0  0
   -7.1930    5.1810  -17.4800 C   0  0  0  0  0  0  0  0  0  0  0  0
   -6.0800    5.5240  -13.8410 H   0  0  0  0  0  0  0  0  0  0  0  0
   -6.1390    4.0380  -14.6670 H   0  0  0  0  0  0  0  0  0  0  0  0
   -8.1470    4.3160  -14.5830 H   0  0  0  0  0  0  0  0  0  0  0  0
   -8.2190    6.0260  -14.5580 H   0  0  0  0  0  0  0  0  0  0  0  0
  -10.3060    4.8120  -15.8790 H   0  0  0  0  0  0  0  0  0  0  0  0
  -11.1320    4.6120  -18.3840 H   0  0  0  0  0  0  0  0  0  0  0  0
   -9.3620    4.8050  -20.0730 H   0  0  0  0  0  0  0  0  0  0  0  0
   -7.0830    5.0970  -20.9290 H   0  0  0  0  0  0  0  0  0  0  0  0
   -4.7740    5.4220  -20.5010 H   0  0  0  0  0  0  0  0  0  0  0  0
   -3.9070    5.5890  -18.0690 H   0  0  0  0  0  0  0  0  0  0  0  0
  1  2  2  0
  2  3  1  0
  3  4  1  0
  4  5  1  0
  5  6  1  0
  6  7  2  0
  7  8  1  0
  8  9  2  0
  9 10  1  0
 10 11  2  0
 11 12  1  0
 12 13  2  0
 13 14  1  0
 13  2  1  0
 14  5  2  0
 14  9  1  0
  3 15  1  0
  3 16  1  0
  4 17  1  0
  4 18  1  0
  6 19  1  0
  7 20  1  0
  8 21  1  0
 10 22  1  0
 11 23  1  0
 12 24  1  0
A    1
 O1 
A    2
 C1 
A    3
 C2 
A    4
 C3 
A    5
 C4 
A    6
 C5 
A    7
 C6 
A    8
 C7 
A    9
 C8 
A   10
 C9 
A   11
 C10
A   12
 C11
A   13
 C12
A   14
 C13
A   15
 H1 
A   16
 H2 
A   17
 H3 
A   18
 H4 
A   19
 H5 
A   20
 H6 
A   21
 H7 
A   22
 H8 
A   23
 H9 
A   24
 H10
M  END
>  <ref_pdb>  (344) 
x0051_0B

>  <ref_mols>  (344) 
x0727_0B,x0455_0B

>  <original SMILES>  (344) 
[H]c1c([H])c2c3c(c([H])c([H])c([H])c3c1[H])C([H])([H])C([H])([H])C2=O

>  <index>  (344) 
376

>  <∆∆G>  (344) 
-7.462438

>  <∆G_bound>  (344) 
-7.453799

>  <∆G_unbound>  (344) 
0.008639

>  <comRMSD>  (344) 
0.32864

>  <N_constrained_atoms>  (344) 
14.0

>  <N_unconstrained_atoms>  (344) 
0.0

>  <runtime>  (344) 
19.230891

>  <LE>  (344) 
0.533031

>  <percent_hybrid>  (344) 
34.0

>  <dist>  (344) 
3.0

>  <ecfp4>  (344) 
0.295455

>  <daylight>  (344) 
0.36

>  <topodist>  (344) 
0.0

>  <mces>  (344) 
16.0

>  <tdn>  (344) 
0.0

>  <tup>  (344) 
0.0

>  <rdn>  (344) 
0.0

>  <rup>  (344) 
0.0

>  <ldn>  (344) 
0.0

>  <lup>  (344) 
0.0

>  <mut>  (344) 
2.0

>  <maj>  (344) 
2.0

>  <min>  (344) 
0.0

>  <hyb>  (344) 
1.0

>  <sub>  (344) 
0.0

>  <query_index>  (344) 
57.0

>  <max_hit_Tanimoto>  (344) 
0.158462

>  <largest_ring>  (344) 
0

>  <N_interactions_kept>  (344) 
0.0

>  <N_interactions_lost>  (344) 
3.0

>  <interaction_uniqueness_metric>  (344) 
0.047384

>  <ad_hoc_penalty>  (344) 
-22.587181

>  <N_rotatable_bonds>  (344) 
0

>  <N_HA>  (344) 
14

>  <cluster>  (344) 
5873

>  <N_interactions>  (344) 
6

>  <Enamine>  (344) 
1

>  <Mcule>  (344) 
0

>  <N_PAINS>  (344) 
0

>  <UFF_Gibbs>  (344) 
51.887823

>  <strain_per_HA>  (344) 
3.706273

>  <intxn_scored>  (344) 
8.5

>  <saltbridge:HIS:51>  (344) 
0

>  <pistack:HIS:51>  (344) 
0

>  <hydroph_interaction:HIS:51>  (344) 
0

>  <hbond:ALA:132>  (344) 
0

>  <hbond:SER:135>  (344) 
0

>  <hydroph_interaction:TYR:150>  (344) 
1

>  <pistack:TYR:161>  (344) 
1

>  <hydroph_interaction:TYR:161>  (344) 
4

>  <hydroph_interaction:ASP:83>  (344) 
0

>  <hbond:TYR:130>  (344) 
0

>  <hydroph_interaction:ALA:132>  (344) 
0

>  <hbond:HIS:51>  (344) 
0

>  <hbond:ASP:129>  (344) 
0

>  <hbond:TYR:150>  (344) 
0

>  <hbond:GLY:151>  (344) 
0

>  <hbond:TYR:161>  (344) 
0

>  <hydroph_interaction:TYR:130>  (344) 
0

>  <hydroph_interaction:PRO:131>  (344) 
0

>  <hydroph_interaction:ASP:129>  (344) 
0

>  <saltbridge:ASP:75>  (344) 
0

>  <saltbridge:ASP:83>  (344) 
0

>  <hbond:ASN:152>  (344) 
0

>  <hydroph_interaction:ASN:152>  (344) 
0

>  <halogenbond:TYR:150>  (344) 
0

>  <hbond:ASP:83>  (344) 
0

>  <hydroph_interaction:VAL:155>  (344) 
0

>  <pication:TYR:161>  (344) 
0

>  <hbond:PRO:131>  (344) 
0

>  <saltbridge:ASP:129>  (344) 
0

>  <hbond:THR:134>  (344) 
0

>  <pication:HIS:51>  (344) 
0

>  <hbond:SER:81>  (344) 
0

>  <hydroph_interaction:THR:134>  (344) 
0

>  <hydroph_interaction:MET:49>  (344) 
0

$$$$
CSSB00000742330
     RDKit          3D

 22 23  0  0  0  0  0  0  0  0999 V2000
   -3.9880    5.1490  -15.7340 C   0  0  0  0  0  0  0  0  0  0  0  0
   -5.4970    5.4680  -15.8450 C   0  0  0  0  0  0  0  0  0  0  0  0
   -6.2700    5.7420  -14.9330 O   0  0  0  0  0  0  0  0  0  0  0  0
   -6.0270    5.3970  -17.2320 C   0  0  0  0  0  0  0  0  0  0  0  0
   -4.9940    5.5490  -18.2590 N   0  0  0  0  0  0  0  0  0  0  0  0
   -5.4060    5.4770  -19.6790 C   0  0  0  0  0  0  0  0  0  0  0  0
   -6.7530    5.2640  -19.9410 C   0  0  0  0  0  0  0  0  0  0  0  0
   -7.7600    5.1190  -18.8450 C   0  0  0  0  0  0  0  0  0  0  0  0
   -9.1570    4.8920  -19.1890 C   0  0  0  0  0  0  0  0  0  0  0  0
  -10.1380    4.7520  -18.0670 C   0  0  0  0  0  0  0  0  0  0  0  0
   -9.7130    4.8360  -16.7570 C   0  0  0  0  0  0  0  0  0  0  0  0
   -8.3730    5.0490  -16.4940 C   0  0  0  0  0  0  0  0  0  0  0  0
   -7.3890    5.1910  -17.4900 C   0  0  0  0  0  0  0  0  0  0  0  0
   -3.4000    6.0670  -15.6470 H   0  0  0  0  0  0  0  0  0  0  0  0
   -3.7940    4.4970  -14.8740 H   0  0  0  0  0  0  0  0  0  0  0  0
   -3.6460    4.6190  -16.6280 H   0  0  0  0  0  0  0  0  0  0  0  0
   -4.6530    5.5870  -20.4600 H   0  0  0  0  0  0  0  0  0  0  0  0
   -7.0620    5.2050  -20.9780 H   0  0  0  0  0  0  0  0  0  0  0  0
   -9.4780    4.8300  -20.2270 H   0  0  0  0  0  0  0  0  0  0  0  0
  -11.1750    4.5840  -18.3720 H   0  0  0  0  0  0  0  0  0  0  0  0
  -10.4120    4.7340  -15.9370 H   0  0  0  0  0  0  0  0  0  0  0  0
   -8.1740    5.0910  -15.4200 H   0  0  0  0  0  0  0  0  0  0  0  0
  1  2  1  0
  2  3  2  0
  2  4  1  0
  4  5  2  0
  5  6  1  0
  6  7  2  0
  7  8  1  0
  8  9  2  0
  9 10  1  0
 10 11  2  0
 11 12  1  0
 12 13  2  0
 13  4  1  0
 13  8  1  0
  1 14  1  0
  1 15  1  0
  1 16  1  0
  6 17  1  0
  7 18  1  0
  9 19  1  0
 10 20  1  0
 11 21  1  0
 12 22  1  0
A    1
 C1 
A    2
 C2 
A    3
 O1 
A    4
 C3 
A    5
 N1 
A    6
 C4 
A    7
 C5 
A    8
 C6 
A    9
 C7 
A   10
 C8 
A   11
 C9 
A   12
 C10
A   13
 C11
A   14
 H1 
A   15
 H2 
A   16
 H3 
A   17
 H4 
A   18
 H5 
A   19
 H6 
A   20
 H7 
A   21
 H8 
A   22
 H9 
M  END
>  <ref_pdb>  (345) 
x0051_0B

>  <ref_mols>  (345) 
x0727_0B,x0455_0B

>  <original SMILES>  (345) 
[H]c1nc(C(=O)C([H])([H])[H])c2c([H])c([H])c([H])c([H])c2c1[H]

>  <index>  (345) 
975

>  <∆∆G>  (345) 
-7.090534

>  <∆G_bound>  (345) 
-6.926155

>  <∆G_unbound>  (345) 
0.164378

>  <comRMSD>  (345) 
0.336408

>  <N_constrained_atoms>  (345) 
14.0

>  <N_unconstrained_atoms>  (345) 
0.0

>  <runtime>  (345) 
24.57558

>  <LE>  (345) 
0.506467

>  <percent_hybrid>  (345) 
34.0

>  <dist>  (345) 
4.0

>  <ecfp4>  (345) 
0.255319

>  <daylight>  (345) 
0.545455

>  <topodist>  (345) 
2.0

>  <mces>  (345) 
14.0

>  <tdn>  (345) 
1.0

>  <tup>  (345) 
0.0

>  <rdn>  (345) 
1.0

>  <rup>  (345) 
0.0

>  <ldn>  (345) 
0.0

>  <lup>  (345) 
0.0

>  <mut>  (345) 
1.0

>  <maj>  (345) 
1.0

>  <min>  (345) 
0.0

>  <hyb>  (345) 
1.0

>  <sub>  (345) 
1.0

>  <query_index>  (345) 
57.0

>  <max_hit_Tanimoto>  (345) 
0.283976

>  <largest_ring>  (345) 
6

>  <N_interactions_kept>  (345) 
0.0

>  <N_interactions_lost>  (345) 
3.0

>  <interaction_uniqueness_metric>  (345) 
0.047384

>  <ad_hoc_penalty>  (345) 
-15.271033

>  <N_rotatable_bonds>  (345) 
2

>  <N_HA>  (345) 
13

>  <cluster>  (345) 
5325

>  <N_interactions>  (345) 
6

>  <Enamine>  (345) 
1

>  <Mcule>  (345) 
0

>  <N_PAINS>  (345) 
0

>  <UFF_Gibbs>  (345) 
52.418894

>  <strain_per_HA>  (345) 
4.032223

>  <intxn_scored>  (345) 
8.5

>  <saltbridge:HIS:51>  (345) 
0

>  <pistack:HIS:51>  (345) 
0

>  <hydroph_interaction:HIS:51>  (345) 
0

>  <hbond:ALA:132>  (345) 
0

>  <hbond:SER:135>  (345) 
0

>  <hydroph_interaction:TYR:150>  (345) 
1

>  <pistack:TYR:161>  (345) 
1

>  <hydroph_interaction:TYR:161>  (345) 
4

>  <hydroph_interaction:ASP:83>  (345) 
0

>  <hbond:TYR:130>  (345) 
0

>  <hydroph_interaction:ALA:132>  (345) 
0

>  <hbond:HIS:51>  (345) 
0

>  <hbond:ASP:129>  (345) 
0

>  <hbond:TYR:150>  (345) 
0

>  <hbond:GLY:151>  (345) 
0

>  <hbond:TYR:161>  (345) 
0

>  <hydroph_interaction:TYR:130>  (345) 
0

>  <hydroph_interaction:PRO:131>  (345) 
0

>  <hydroph_interaction:ASP:129>  (345) 
0

>  <saltbridge:ASP:75>  (345) 
0

>  <saltbridge:ASP:83>  (345) 
0

>  <hbond:ASN:152>  (345) 
0

>  <hydroph_interaction:ASN:152>  (345) 
0

>  <halogenbond:TYR:150>  (345) 
0

>  <hbond:ASP:83>  (345) 
0

>  <hydroph_interaction:VAL:155>  (345) 
0

>  <pication:TYR:161>  (345) 
0

>  <hbond:PRO:131>  (345) 
0

>  <saltbridge:ASP:129>  (345) 
0

>  <hbond:THR:134>  (345) 
0

>  <pication:HIS:51>  (345) 
0

>  <hbond:SER:81>  (345) 
0

>  <hydroph_interaction:THR:134>  (345) 
0

>  <hydroph_interaction:MET:49>  (345) 
0

$$$$
CSSB03634215513
     RDKit          3D

 21 22  0  0  0  0  0  0  0  0999 V2000
   -5.3790    5.5790  -15.8530 C   0  0  0  0  0  0  0  0  0  0  0  0
   -5.8260    5.4840  -17.2760 C   0  0  0  0  0  0  0  0  0  0  0  0
   -4.8350    5.6290  -18.1950 N   0  0  0  0  0  0  0  0  0  0  0  0
   -5.2060    5.5420  -19.4760 C   0  0  0  0  0  0  0  0  0  0  0  0
   -6.6160    5.3010  -19.9310 C   0  0  0  0  0  0  0  0  0  0  0  0
   -7.5760    5.1630  -18.9410 C   0  0  0  0  0  0  0  0  0  0  0  0
   -9.0240    4.9120  -19.2870 C   0  0  0  0  0  0  0  0  0  0  0  0
   -9.9700    4.7800  -18.1370 C   0  0  0  0  0  0  0  0  0  0  0  0
  -11.2910    4.5600  -18.3360 O   0  0  0  0  0  0  0  0  0  0  0  0
   -9.4920    4.8870  -16.8280 C   0  0  0  0  0  0  0  0  0  0  0  0
   -8.1300    5.1200  -16.5530 C   0  0  0  0  0  0  0  0  0  0  0  0
   -7.1810    5.2570  -17.5800 C   0  0  0  0  0  0  0  0  0  0  0  0
   -5.9580    4.8980  -15.2190 H   0  0  0  0  0  0  0  0  0  0  0  0
   -5.4750    6.6090  -15.4910 H   0  0  0  0  0  0  0  0  0  0  0  0
   -4.3260    5.2900  -15.7840 H   0  0  0  0  0  0  0  0  0  0  0  0
   -4.4580    5.6480  -20.2680 H   0  0  0  0  0  0  0  0  0  0  0  0
   -6.8720    5.2350  -20.9860 H   0  0  0  0  0  0  0  0  0  0  0  0
   -9.3690    4.8320  -20.3150 H   0  0  0  0  0  0  0  0  0  0  0  0
  -11.7640    5.3690  -18.0700 H   0  0  0  0  0  0  0  0  0  0  0  0
  -10.1870    4.7890  -15.9980 H   0  0  0  0  0  0  0  0  0  0  0  0
   -7.8330    5.1890  -15.5090 H   0  0  0  0  0  0  0  0  0  0  0  0
  1  2  1  0
  2  3  2  0
  3  4  1  0
  4  5  2  0
  5  6  1  0
  6  7  2  0
  7  8  1  0
  8  9  1  0
  8 10  2  0
 10 11  1  0
 11 12  2  0
 12  2  1  0
 12  6  1  0
  1 13  1  0
  1 14  1  0
  1 15  1  0
  4 16  1  0
  5 17  1  0
  7 18  1  0
  9 19  1  0
 10 20  1  0
 11 21  1  0
A    1
 C1 
A    2
 C2 
A    3
 N1 
A    4
 C3 
A    5
 C4 
A    6
 C5 
A    7
 C6 
A    8
 C7 
A    9
 O1 
A   10
 C8 
A   11
 C9 
A   12
 C10
A   13
 H1 
A   14
 H2 
A   15
 H3 
A   16
 H4 
A   17
 H5 
A   18
 H6 
A   19
 H7 
A   20
 H8 
A   21
 H9 
M  END
>  <ref_pdb>  (346) 
x0051_0B

>  <ref_mols>  (346) 
x0727_0B,x0605_0B

>  <original SMILES>  (346) 
[H]Oc1c([H])c([H])c2c(C([H])([H])[H])nc([H])c([H])c2c1[H]

>  <index>  (346) 
2168

>  <∆∆G>  (346) 
-6.097952

>  <∆G_bound>  (346) 
-6.128304

>  <∆G_unbound>  (346) 
-0.030352

>  <comRMSD>  (346) 
0.522362

>  <N_constrained_atoms>  (346) 
14.0

>  <N_unconstrained_atoms>  (346) 
0.0

>  <runtime>  (346) 
21.9919

>  <LE>  (346) 
0.435568

>  <percent_hybrid>  (346) 
29.0

>  <dist>  (346) 
2.0

>  <ecfp4>  (346) 
0.365854

>  <daylight>  (346) 
0.461538

>  <topodist>  (346) 
1.0

>  <mces>  (346) 
13.0

>  <tdn>  (346) 
0.0

>  <tup>  (346) 
0.0

>  <rdn>  (346) 
0.0

>  <rup>  (346) 
0.0

>  <ldn>  (346) 
1.0

>  <lup>  (346) 
0.0

>  <mut>  (346) 
1.0

>  <maj>  (346) 
1.0

>  <min>  (346) 
0.0

>  <hyb>  (346) 
0.0

>  <sub>  (346) 
0.0

>  <query_index>  (346) 
74.0

>  <max_hit_Tanimoto>  (346) 
0.306569

>  <largest_ring>  (346) 
6

>  <N_interactions_kept>  (346) 
0.0

>  <N_interactions_lost>  (346) 
3.5

>  <interaction_uniqueness_metric>  (346) 
0.047384

>  <ad_hoc_penalty>  (346) 
-7.782751

>  <N_rotatable_bonds>  (346) 
2

>  <N_HA>  (346) 
12

>  <cluster>  (346) 
4228

>  <N_interactions>  (346) 
6

>  <Enamine>  (346) 
1

>  <Mcule>  (346) 
0

>  <N_PAINS>  (346) 
0

>  <UFF_Gibbs>  (346) 
42.784224

>  <strain_per_HA>  (346) 
3.565352

>  <intxn_scored>  (346) 
8.5

>  <saltbridge:HIS:51>  (346) 
0

>  <pistack:HIS:51>  (346) 
0

>  <hydroph_interaction:HIS:51>  (346) 
0

>  <hbond:ALA:132>  (346) 
0

>  <hbond:SER:135>  (346) 
0

>  <hydroph_interaction:TYR:150>  (346) 
1

>  <pistack:TYR:161>  (346) 
1

>  <hydroph_interaction:TYR:161>  (346) 
4

>  <hydroph_interaction:ASP:83>  (346) 
0

>  <hbond:TYR:130>  (346) 
0

>  <hydroph_interaction:ALA:132>  (346) 
0

>  <hbond:HIS:51>  (346) 
0

>  <hbond:ASP:129>  (346) 
0

>  <hbond:TYR:150>  (346) 
0

>  <hbond:GLY:151>  (346) 
0

>  <hbond:TYR:161>  (346) 
0

>  <hydroph_interaction:TYR:130>  (346) 
0

>  <hydroph_interaction:PRO:131>  (346) 
0

>  <hydroph_interaction:ASP:129>  (346) 
0

>  <saltbridge:ASP:75>  (346) 
0

>  <saltbridge:ASP:83>  (346) 
0

>  <hbond:ASN:152>  (346) 
0

>  <hydroph_interaction:ASN:152>  (346) 
0

>  <halogenbond:TYR:150>  (346) 
0

>  <hbond:ASP:83>  (346) 
0

>  <hydroph_interaction:VAL:155>  (346) 
0

>  <pication:TYR:161>  (346) 
0

>  <hbond:PRO:131>  (346) 
0

>  <saltbridge:ASP:129>  (346) 
0

>  <hbond:THR:134>  (346) 
0

>  <pication:HIS:51>  (346) 
0

>  <hbond:SER:81>  (346) 
0

>  <hydroph_interaction:THR:134>  (346) 
0

>  <hydroph_interaction:MET:49>  (346) 
0

$$$$
PV-002741339070
     RDKit          3D

 30 31  0  0  0  0  0  0  0  0999 V2000
   -9.6680    4.5530  -18.8980 C   0  0  0  0  0  0  0  0  0  0  0  0
   -8.7510    5.0120  -17.8460 C   0  0  0  0  0  0  0  0  0  0  0  0
   -7.4220    5.4140  -17.9600 C   0  0  0  0  0  0  0  0  0  0  0  0
   -6.4410    5.5370  -19.1040 C   0  0  0  0  0  0  0  0  0  0  0  0
   -5.0690    5.9960  -18.6800 N   0  0  0  0  0  0  0  0  0  0  0  0
   -3.9110    5.7400  -19.5980 C   0  0  0  0  0  0  0  0  0  0  0  0
   -3.1870    7.0550  -19.9160 C   0  0  0  0  0  0  0  0  0  0  0  0
   -2.7980    4.8320  -19.0210 C   0  0  0  0  0  0  0  0  0  0  0  0
   -4.7590    5.5990  -17.2990 C   0  0  0  0  0  0  0  0  0  0  0  0
   -5.7550    6.2100  -16.3330 C   0  0  0  0  0  0  0  0  0  0  0  0
   -7.0600    5.7400  -16.6900 N   0  0  0  0  0  0  0  0  0  0  0  0
   -8.0150    5.5890  -15.7640 N   0  0  0  0  0  0  0  0  0  0  0  0
   -9.0480    5.1430  -16.4710 C   0  0  0  0  0  0  0  0  0  0  0  0
   -9.4660    3.5100  -19.1590 H   0  0  0  0  0  0  0  0  0  0  0  0
  -10.7060    4.6270  -18.5560 H   0  0  0  0  0  0  0  0  0  0  0  0
   -9.5560    5.1590  -19.8040 H   0  0  0  0  0  0  0  0  0  0  0  0
   -6.8660    6.2400  -19.8350 H   0  0  0  0  0  0  0  0  0  0  0  0
   -6.3700    4.5590  -19.5890 H   0  0  0  0  0  0  0  0  0  0  0  0
   -4.2650    5.2950  -20.5390 H   0  0  0  0  0  0  0  0  0  0  0  0
   -3.9030    7.8360  -20.1990 H   0  0  0  0  0  0  0  0  0  0  0  0
   -2.6210    7.4170  -19.0480 H   0  0  0  0  0  0  0  0  0  0  0  0
   -2.4980    6.9480  -20.7590 H   0  0  0  0  0  0  0  0  0  0  0  0
   -2.0340    5.4310  -18.5150 H   0  0  0  0  0  0  0  0  0  0  0  0
   -3.1810    4.1370  -18.2700 H   0  0  0  0  0  0  0  0  0  0  0  0
   -2.2950    4.2600  -19.8090 H   0  0  0  0  0  0  0  0  0  0  0  0
   -4.8260    4.5200  -17.1600 H   0  0  0  0  0  0  0  0  0  0  0  0
   -3.7370    5.9010  -17.0360 H   0  0  0  0  0  0  0  0  0  0  0  0
   -5.5640    5.8890  -15.3030 H   0  0  0  0  0  0  0  0  0  0  0  0
   -5.7450    7.3030  -16.3910 H   0  0  0  0  0  0  0  0  0  0  0  0
   -9.9770    4.9320  -15.9580 H   0  0  0  0  0  0  0  0  0  0  0  0
  1  2  1  0
  2  3  2  0
  3  4  1  0
  4  5  1  0
  5  6  1  0
  6  7  1  0
  6  8  1  0
  5  9  1  0
  9 10  1  0
 10 11  1  0
 11 12  1  0
 12 13  2  0
 13  2  1  0
 11  3  1  0
  1 14  1  0
  1 15  1  0
  1 16  1  0
  4 17  1  0
  4 18  1  0
  6 19  1  0
  7 20  1  0
  7 21  1  0
  7 22  1  0
  8 23  1  0
  8 24  1  0
  8 25  1  0
  9 26  1  0
  9 27  1  0
 10 28  1  0
 10 29  1  0
 13 30  1  0
A    1
 C1 
A    2
 C2 
A    3
 C3 
A    4
 C4 
A    5
 N1 
A    6
 C5 
A    7
 C6 
A    8
 C7 
A    9
 C8 
A   10
 C9 
A   11
 N2 
A   12
 N3 
A   13
 C10
A   14
 H1 
A   15
 H2 
A   16
 H3 
A   17
 H4 
A   18
 H5 
A   19
 H6 
A   20
 H7 
A   21
 H8 
A   22
 H9 
A   23
 H10
A   24
 H11
A   25
 H12
A   26
 H13
A   27
 H14
A   28
 H15
A   29
 H16
A   30
 H17
M  END
>  <ref_pdb>  (347) 
x0051_0B

>  <ref_mols>  (347) 
x0969_0B,x0089_0B

>  <original SMILES>  (347) 
[H]c1nn2c(c1C([H])([H])[H])C([H])([H])N(C([H])(C([H])([H])[H])C([H])([H])[H])C([H])([H])C2([H])[H]

>  <index>  (347) 
2548

>  <∆∆G>  (347) 
-6.796892

>  <∆G_bound>  (347) 
-6.778027

>  <∆G_unbound>  (347) 
0.018865

>  <comRMSD>  (347) 
0.927981

>  <N_constrained_atoms>  (347) 
16.0

>  <N_unconstrained_atoms>  (347) 
0.0

>  <runtime>  (347) 
24.616453

>  <LE>  (347) 
0.424806

>  <percent_hybrid>  (347) 
34.0

>  <dist>  (347) 
1.0

>  <ecfp4>  (347) 
0.575

>  <daylight>  (347) 
0.698113

>  <topodist>  (347) 
1.0

>  <mces>  (347) 
14.0

>  <tdn>  (347) 
0.0

>  <tup>  (347) 
0.0

>  <rdn>  (347) 
0.0

>  <rup>  (347) 
0.0

>  <ldn>  (347) 
1.0

>  <lup>  (347) 
0.0

>  <mut>  (347) 
0.0

>  <maj>  (347) 
0.0

>  <min>  (347) 
0.0

>  <hyb>  (347) 
0.0

>  <sub>  (347) 
0.0

>  <query_index>  (347) 
114.0

>  <max_hit_Tanimoto>  (347) 
0.794266

>  <largest_ring>  (347) 
6

>  <N_interactions_kept>  (347) 
0.0

>  <N_interactions_lost>  (347) 
3.5

>  <interaction_uniqueness_metric>  (347) 
0.15987

>  <ad_hoc_penalty>  (347) 
-8.000222

>  <N_rotatable_bonds>  (347) 
4

>  <N_HA>  (347) 
13

>  <cluster>  (347) 
3872

>  <N_interactions>  (347) 
6

>  <Enamine>  (347) 
1

>  <Mcule>  (347) 
0

>  <N_PAINS>  (347) 
0

>  <UFF_Gibbs>  (347) 
33.567464

>  <strain_per_HA>  (347) 
2.582113

>  <intxn_scored>  (347) 
8.5

>  <saltbridge:HIS:51>  (347) 
0

>  <pistack:HIS:51>  (347) 
0

>  <hydroph_interaction:HIS:51>  (347) 
0

>  <hbond:ALA:132>  (347) 
0

>  <hbond:SER:135>  (347) 
0

>  <hydroph_interaction:TYR:150>  (347) 
1

>  <pistack:TYR:161>  (347) 
1

>  <hydroph_interaction:TYR:161>  (347) 
2

>  <hydroph_interaction:ASP:83>  (347) 
0

>  <hbond:TYR:130>  (347) 
0

>  <hydroph_interaction:ALA:132>  (347) 
0

>  <hbond:HIS:51>  (347) 
0

>  <hbond:ASP:129>  (347) 
0

>  <hbond:TYR:150>  (347) 
0

>  <hbond:GLY:151>  (347) 
0

>  <hbond:TYR:161>  (347) 
0

>  <hydroph_interaction:TYR:130>  (347) 
0

>  <hydroph_interaction:PRO:131>  (347) 
0

>  <hydroph_interaction:ASP:129>  (347) 
0

>  <saltbridge:ASP:75>  (347) 
0

>  <saltbridge:ASP:83>  (347) 
0

>  <hbond:ASN:152>  (347) 
0

>  <hydroph_interaction:ASN:152>  (347) 
0

>  <halogenbond:TYR:150>  (347) 
0

>  <hbond:ASP:83>  (347) 
0

>  <hydroph_interaction:VAL:155>  (347) 
1

>  <pication:TYR:161>  (347) 
1

>  <hbond:PRO:131>  (347) 
0

>  <saltbridge:ASP:129>  (347) 
0

>  <hbond:THR:134>  (347) 
0

>  <pication:HIS:51>  (347) 
0

>  <hbond:SER:81>  (347) 
0

>  <hydroph_interaction:THR:134>  (347) 
0

>  <hydroph_interaction:MET:49>  (347) 
0

$$$$
CSSS00010073239
     RDKit          3D

 21 22  0  0  0  0  0  0  0  0999 V2000
   -4.1920    5.4460  -19.0330 C   0  0  0  0  0  0  0  0  0  0  0  0
   -5.0990    5.3480  -17.9100 N   0  0  0  0  0  0  0  0  0  0  0  0
   -4.5950    5.3720  -16.6420 N   0  0  0  0  0  0  0  0  0  0  0  0
   -5.6530    5.2580  -15.8330 C   0  0  0  0  0  0  0  0  0  0  0  0
   -5.5210    5.2300  -13.7600 I   0  0  0  0  0  0  0  0  0  0  0  0
   -6.8980    5.1570  -16.6880 C   0  0  0  0  0  0  0  0  0  0  0  0
   -8.2750    5.0160  -16.2220 C   0  0  0  0  0  0  0  0  0  0  0  0
   -9.2570    4.9460  -17.3240 C   0  0  0  0  0  0  0  0  0  0  0  0
   -8.6890    5.0360  -18.7440 C   0  0  0  0  0  0  0  0  0  0  0  0
   -9.7270    4.9680  -19.6140 C   0  0  0  0  0  0  0  0  0  0  0  0
   -7.3380    5.1700  -19.0870 C   0  0  0  0  0  0  0  0  0  0  0  0
   -6.4700    5.2260  -18.0100 C   0  0  0  0  0  0  0  0  0  0  0  0
   -4.6850    5.1180  -19.9510 H   0  0  0  0  0  0  0  0  0  0  0  0
   -3.8600    6.4780  -19.1400 H   0  0  0  0  0  0  0  0  0  0  0  0
   -3.3320    4.7950  -18.8590 H   0  0  0  0  0  0  0  0  0  0  0  0
   -8.5660    4.9660  -15.1770 H   0  0  0  0  0  0  0  0  0  0  0  0
  -10.3190    4.8400  -17.1310 H   0  0  0  0  0  0  0  0  0  0  0  0
   -9.9490    5.9400  -20.0310 H   0  0  0  0  0  0  0  0  0  0  0  0
  -10.6120    4.6040  -19.0820 H   0  0  0  0  0  0  0  0  0  0  0  0
   -9.4850    4.2950  -20.4300 H   0  0  0  0  0  0  0  0  0  0  0  0
   -6.9990    5.2280  -20.1160 H   0  0  0  0  0  0  0  0  0  0  0  0
  1  2  1  0
  2  3  1  0
  3  4  2  0
  4  5  1  0
  4  6  1  0
  6  7  2  0
  7  8  1  0
  8  9  2  0
  9 10  1  0
  9 11  1  0
 11 12  2  0
 12  2  1  0
 12  6  1  0
  1 13  1  0
  1 14  1  0
  1 15  1  0
  7 16  1  0
  8 17  1  0
 10 18  1  0
 10 19  1  0
 10 20  1  0
 11 21  1  0
A    1
 C1 
A    2
 N1 
A    3
 N2 
A    4
 C2 
A    5
 I1 
A    6
 C3 
A    7
 C4 
A    8
 C5 
A    9
 C6 
A   10
 C7 
A   11
 C8 
A   12
 C9 
A   13
 H1 
A   14
 H2 
A   15
 H3 
A   16
 H4 
A   17
 H5 
A   18
 H6 
A   19
 H7 
A   20
 H8 
A   21
 H9 
M  END
>  <ref_pdb>  (348) 
x0051_0B

>  <ref_mols>  (348) 
x0435_0B,x0680_0B

>  <original SMILES>  (348) 
[H]c1c(C([H])([H])[H])c([H])c2c(c(I)nn2C([H])([H])[H])c1[H]

>  <index>  (348) 
2853

>  <∆∆G>  (348) 
-7.188473

>  <∆G_bound>  (348) 
-7.314241

>  <∆G_unbound>  (348) 
-0.125768

>  <comRMSD>  (348) 
0.946742

>  <N_constrained_atoms>  (348) 
11.0

>  <N_unconstrained_atoms>  (348) 
2.0

>  <runtime>  (348) 
22.788491

>  <LE>  (348) 
0.552959

>  <percent_hybrid>  (348) 
34.0

>  <dist>  (348) 
3.0

>  <ecfp4>  (348) 
0.395349

>  <daylight>  (348) 
0.685393

>  <topodist>  (348) 
2.0

>  <mces>  (348) 
12.0

>  <tdn>  (348) 
1.0

>  <tup>  (348) 
1.0

>  <rdn>  (348) 
0.0

>  <rup>  (348) 
0.0

>  <ldn>  (348) 
0.0

>  <lup>  (348) 
0.0

>  <mut>  (348) 
1.0

>  <maj>  (348) 
1.0

>  <min>  (348) 
0.0

>  <hyb>  (348) 
0.0

>  <sub>  (348) 
2.0

>  <query_index>  (348) 
141.0

>  <max_hit_Tanimoto>  (348) 
0.146143

>  <largest_ring>  (348) 
6

>  <N_interactions_kept>  (348) 
2.5

>  <N_interactions_lost>  (348) 
2.5

>  <interaction_uniqueness_metric>  (348) 
0.034019

>  <ad_hoc_penalty>  (348) 
-2.923863

>  <N_rotatable_bonds>  (348) 
2

>  <N_HA>  (348) 
12

>  <cluster>  (348) 
3585

>  <N_interactions>  (348) 
3

>  <Enamine>  (348) 
1

>  <Mcule>  (348) 
0

>  <N_PAINS>  (348) 
0

>  <UFF_Gibbs>  (348) 
56.017028

>  <strain_per_HA>  (348) 
4.668086

>  <intxn_scored>  (348) 
8.5

>  <saltbridge:HIS:51>  (348) 
0

>  <pistack:HIS:51>  (348) 
0

>  <hydroph_interaction:HIS:51>  (348) 
0

>  <hbond:ALA:132>  (348) 
0

>  <hbond:SER:135>  (348) 
0

>  <hydroph_interaction:TYR:150>  (348) 
1

>  <pistack:TYR:161>  (348) 
2

>  <hydroph_interaction:TYR:161>  (348) 
0

>  <hydroph_interaction:ASP:83>  (348) 
0

>  <hbond:TYR:130>  (348) 
0

>  <hydroph_interaction:ALA:132>  (348) 
0

>  <hbond:HIS:51>  (348) 
0

>  <hbond:ASP:129>  (348) 
0

>  <hbond:TYR:150>  (348) 
0

>  <hbond:GLY:151>  (348) 
0

>  <hbond:TYR:161>  (348) 
0

>  <hydroph_interaction:TYR:130>  (348) 
0

>  <hydroph_interaction:PRO:131>  (348) 
0

>  <hydroph_interaction:ASP:129>  (348) 
0

>  <saltbridge:ASP:75>  (348) 
0

>  <saltbridge:ASP:83>  (348) 
0

>  <hbond:ASN:152>  (348) 
0

>  <hydroph_interaction:ASN:152>  (348) 
0

>  <halogenbond:TYR:150>  (348) 
0

>  <hbond:ASP:83>  (348) 
0

>  <hydroph_interaction:VAL:155>  (348) 
0

>  <pication:TYR:161>  (348) 
0

>  <hbond:PRO:131>  (348) 
0

>  <saltbridge:ASP:129>  (348) 
0

>  <hbond:THR:134>  (348) 
0

>  <pication:HIS:51>  (348) 
0

>  <hbond:SER:81>  (348) 
0

>  <hydroph_interaction:THR:134>  (348) 
0

>  <hydroph_interaction:MET:49>  (348) 
0

$$$$
Z3499985316
     RDKit          3D

 34 35  0  0  0  0  0  0  0  0999 V2000
   -2.2660    4.7280  -21.6300 C   0  0  0  0  0  0  0  0  0  0  0  0
   -3.5230    5.4340  -21.4510 N   0  0  0  0  0  0  0  0  0  0  0  0
   -4.4770    5.2820  -22.5180 C   0  0  0  0  0  0  0  0  0  0  0  0
   -4.1350    5.4470  -20.1210 C   0  0  0  0  0  0  0  0  0  0  0  0
   -3.4820    5.1190  -19.1340 O   0  0  0  0  0  0  0  0  0  0  0  0
   -5.4320    5.8410  -20.1300 N   0  0  0  0  0  0  0  0  0  0  0  0
   -6.2920    4.8840  -19.5350 O   0  0  0  0  0  0  0  0  0  0  0  0
   -7.3750    5.5420  -18.8770 C   0  0  0  0  0  0  0  0  0  0  0  0
   -8.5360    4.9500  -19.3030 C   0  0  0  0  0  0  0  0  0  0  0  0
   -9.5210    4.4040  -18.5160 C   0  0  0  0  0  0  0  0  0  0  0  0
   -9.5810    4.9040  -17.1840 C   0  0  0  0  0  0  0  0  0  0  0  0
   -8.2360    5.1220  -16.5530 C   0  0  0  0  0  0  0  0  0  0  0  0
   -8.0380    5.0180  -15.1820 C   0  0  0  0  0  0  0  0  0  0  0  0
   -6.6350    5.2490  -14.6060 C   0  0  0  0  0  0  0  0  0  0  0  0
   -5.6260    5.5830  -15.7080 C   0  0  0  0  0  0  0  0  0  0  0  0
   -5.9280    5.6570  -16.9980 N   0  0  0  0  0  0  0  0  0  0  0  0
   -7.1720    5.4360  -17.3910 C   0  0  0  0  0  0  0  0  0  0  0  0
   -1.9540    4.1870  -20.7320 H   0  0  0  0  0  0  0  0  0  0  0  0
   -1.4880    5.4400  -21.9230 H   0  0  0  0  0  0  0  0  0  0  0  0
   -2.3670    4.0030  -22.4450 H   0  0  0  0  0  0  0  0  0  0  0  0
   -5.1360    4.4270  -22.3030 H   0  0  0  0  0  0  0  0  0  0  0  0
   -5.0730    6.1960  -22.5960 H   0  0  0  0  0  0  0  0  0  0  0  0
   -3.9680    5.1030  -23.4630 H   0  0  0  0  0  0  0  0  0  0  0  0
   -5.7560    6.0920  -21.0630 H   0  0  0  0  0  0  0  0  0  0  0  0
   -7.3940    6.6030  -19.1500 H   0  0  0  0  0  0  0  0  0  0  0  0
   -8.2360    4.1740  -20.0170 H   0  0  0  0  0  0  0  0  0  0  0  0
   -9.0400    5.6670  -19.9440 H   0  0  0  0  0  0  0  0  0  0  0  0
  -10.4830    4.5600  -19.0100 H   0  0  0  0  0  0  0  0  0  0  0  0
   -9.3850    3.3200  -18.4650 H   0  0  0  0  0  0  0  0  0  0  0  0
  -10.1340    4.2270  -16.5460 H   0  0  0  0  0  0  0  0  0  0  0  0
  -10.1640    5.8260  -17.1560 H   0  0  0  0  0  0  0  0  0  0  0  0
   -8.8710    4.7730  -14.5340 H   0  0  0  0  0  0  0  0  0  0  0  0
   -6.3800    5.1870  -13.5560 H   0  0  0  0  0  0  0  0  0  0  0  0
   -4.5780    5.7860  -15.5330 H   0  0  0  0  0  0  0  0  0  0  0  0
  1  2  1  0
  2  3  1  0
  2  4  1  0
  4  5  2  0
  4  6  1  0
  6  7  1  0
  7  8  1  0
  8  9  1  0
  9 10  1  0
 10 11  1  0
 11 12  1  0
 12 13  2  0
 13 14  1  0
 14 15  2  0
 15 16  1  0
 16 17  2  0
 17  8  1  0
 17 12  1  0
  1 18  1  0
  1 19  1  0
  1 20  1  0
  3 21  1  0
  3 22  1  0
  3 23  1  0
  6 24  1  0
  8 25  1  0
  9 26  1  0
  9 27  1  0
 10 28  1  0
 10 29  1  0
 11 30  1  0
 11 31  1  0
 13 32  1  0
 14 33  1  0
 15 34  1  0
A    1
 C1 
A    2
 N1 
A    3
 C2 
A    4
 C3 
A    5
 O1 
A    6
 N2 
A    7
 O2 
A    8
 C4 
A    9
 C5 
A   10
 C6 
A   11
 C7 
A   12
 C8 
A   13
 C9 
A   14
 C10
A   15
 C11
A   16
 N3 
A   17
 C12
A   18
 H1 
A   19
 H2 
A   20
 H3 
A   21
 H4 
A   22
 H5 
A   23
 H6 
A   24
 H7 
A   25
 H8 
A   26
 H9 
A   27
 H10
A   28
 H11
A   29
 H12
A   30
 H13
A   31
 H14
A   32
 H15
A   33
 H16
A   34
 H17
M  END
>  <ref_pdb>  (349) 
x0051_0B

>  <ref_mols>  (349) 
x0904_0B,x0455_0B

>  <original SMILES>  (349) 
[H]c1nc2c(c([H])c1[H])C([H])([H])C([H])([H])C([H])([H])C2([H])ON([H])C(=O)N(C([H])([H])[H])C([H])([H])[H]

>  <index>  (349) 
2100

>  <∆∆G>  (349) 
-6.246013

>  <∆G_bound>  (349) 
-5.372752

>  <∆G_unbound>  (349) 
0.873261

>  <comRMSD>  (349) 
0.604297

>  <N_constrained_atoms>  (349) 
18.0

>  <N_unconstrained_atoms>  (349) 
0.0

>  <runtime>  (349) 
39.152085

>  <LE>  (349) 
0.347001

>  <percent_hybrid>  (349) 
34.0

>  <dist>  (349) 
5.0

>  <ecfp4>  (349) 
0.212121

>  <daylight>  (349) 
0.141129

>  <topodist>  (349) 
0.0

>  <mces>  (349) 
18.0

>  <tdn>  (349) 
0.0

>  <tup>  (349) 
0.0

>  <rdn>  (349) 
0.0

>  <rup>  (349) 
0.0

>  <ldn>  (349) 
0.0

>  <lup>  (349) 
0.0

>  <mut>  (349) 
1.0

>  <maj>  (349) 
1.0

>  <min>  (349) 
0.0

>  <hyb>  (349) 
4.0

>  <sub>  (349) 
0.0

>  <query_index>  (349) 
160.0

>  <max_hit_Tanimoto>  (349) 
0.26082

>  <largest_ring>  (349) 
6

>  <N_interactions_kept>  (349) 
0.5

>  <N_interactions_lost>  (349) 
2.5

>  <interaction_uniqueness_metric>  (349) 
0.066244

>  <ad_hoc_penalty>  (349) 
-2.53856

>  <N_rotatable_bonds>  (349) 
4

>  <N_HA>  (349) 
17

>  <cluster>  (349) 
4291

>  <N_interactions>  (349) 
5

>  <Enamine>  (349) 
1

>  <Mcule>  (349) 
0

>  <N_PAINS>  (349) 
0

>  <UFF_Gibbs>  (349) 
159.548065

>  <strain_per_HA>  (349) 
9.38518

>  <intxn_scored>  (349) 
8.5

>  <saltbridge:HIS:51>  (349) 
0

>  <pistack:HIS:51>  (349) 
0

>  <hydroph_interaction:HIS:51>  (349) 
0

>  <hbond:ALA:132>  (349) 
0

>  <hbond:SER:135>  (349) 
0

>  <hydroph_interaction:TYR:150>  (349) 
1

>  <pistack:TYR:161>  (349) 
1

>  <hydroph_interaction:TYR:161>  (349) 
2

>  <hydroph_interaction:ASP:83>  (349) 
0

>  <hbond:TYR:130>  (349) 
1

>  <hydroph_interaction:ALA:132>  (349) 
0

>  <hbond:HIS:51>  (349) 
0

>  <hbond:ASP:129>  (349) 
0

>  <hbond:TYR:150>  (349) 
0

>  <hbond:GLY:151>  (349) 
0

>  <hbond:TYR:161>  (349) 
0

>  <hydroph_interaction:TYR:130>  (349) 
0

>  <hydroph_interaction:PRO:131>  (349) 
0

>  <hydroph_interaction:ASP:129>  (349) 
0

>  <saltbridge:ASP:75>  (349) 
0

>  <saltbridge:ASP:83>  (349) 
0

>  <hbond:ASN:152>  (349) 
0

>  <hydroph_interaction:ASN:152>  (349) 
0

>  <halogenbond:TYR:150>  (349) 
0

>  <hbond:ASP:83>  (349) 
0

>  <hydroph_interaction:VAL:155>  (349) 
0

>  <pication:TYR:161>  (349) 
0

>  <hbond:PRO:131>  (349) 
0

>  <saltbridge:ASP:129>  (349) 
0

>  <hbond:THR:134>  (349) 
0

>  <pication:HIS:51>  (349) 
0

>  <hbond:SER:81>  (349) 
0

>  <hydroph_interaction:THR:134>  (349) 
0

>  <hydroph_interaction:MET:49>  (349) 
0

$$$$
CSSB00011621760
     RDKit          3D

 25 26  0  0  0  0  0  0  0  0999 V2000
   -5.8470    5.4340  -21.3160 C   0  0  0  0  0  0  0  0  0  0  0  0
   -6.0350    5.4140  -19.7990 C   0  0  0  0  0  0  0  0  0  0  0  0
   -7.4190    5.2410  -19.3970 N   0  0  0  0  0  0  0  0  0  0  0  0
   -7.6730    5.2070  -18.0930 C   0  0  0  0  0  0  0  0  0  0  0  0
   -9.1190    5.0160  -17.6280 C   0  0  0  0  0  0  0  0  0  0  0  0
  -10.1510    4.8700  -18.5520 C   0  0  0  0  0  0  0  0  0  0  0  0
   -9.3850    4.9890  -16.2680 C   0  0  0  0  0  0  0  0  0  0  0  0
   -8.3490    5.1290  -15.3480 C   0  0  0  0  0  0  0  0  0  0  0  0
   -7.0190    5.2960  -15.7530 C   0  0  0  0  0  0  0  0  0  0  0  0
   -6.6690    5.3370  -17.1130 C   0  0  0  0  0  0  0  0  0  0  0  0
   -5.3420    5.5010  -17.5230 C   0  0  0  0  0  0  0  0  0  0  0  0
   -4.2680    5.6260  -16.6100 N   0  0  0  0  0  0  0  0  0  0  0  0
   -5.0150    5.5390  -18.8860 C   0  0  0  0  0  0  0  0  0  0  0  0
   -4.8380    5.1090  -21.5930 H   0  0  0  0  0  0  0  0  0  0  0  0
   -5.9920    6.4530  -21.6900 H   0  0  0  0  0  0  0  0  0  0  0  0
   -6.5600    4.7800  -21.8200 H   0  0  0  0  0  0  0  0  0  0  0  0
  -10.4730    3.8570  -18.7190 H   0  0  0  0  0  0  0  0  0  0  0  0
  -11.0200    5.4260  -18.1840 H   0  0  0  0  0  0  0  0  0  0  0  0
   -9.9610    5.2720  -19.5470 H   0  0  0  0  0  0  0  0  0  0  0  0
  -10.3910    4.8570  -15.9030 H   0  0  0  0  0  0  0  0  0  0  0  0
   -8.5860    5.1020  -14.2890 H   0  0  0  0  0  0  0  0  0  0  0  0
   -6.2620    5.3920  -14.9820 H   0  0  0  0  0  0  0  0  0  0  0  0
   -4.5350    5.2310  -15.7100 H   0  0  0  0  0  0  0  0  0  0  0  0
   -3.4230    5.1730  -16.9430 H   0  0  0  0  0  0  0  0  0  0  0  0
   -3.9850    5.6600  -19.2030 H   0  0  0  0  0  0  0  0  0  0  0  0
  1  2  1  0
  2  3  2  0
  3  4  1  0
  4  5  2  0
  5  6  1  0
  5  7  1  0
  7  8  2  0
  8  9  1  0
  9 10  2  0
 10 11  1  0
 11 12  1  0
 11 13  2  0
 13  2  1  0
 10  4  1  0
  1 14  1  0
  1 15  1  0
  1 16  1  0
  6 17  1  0
  6 18  1  0
  6 19  1  0
  7 20  1  0
  8 21  1  0
  9 22  1  0
 12 23  1  0
 12 24  1  0
 13 25  1  0
A    1
 C1 
A    2
 C2 
A    3
 N1 
A    4
 C3 
A    5
 C4 
A    6
 C5 
A    7
 C6 
A    8
 C7 
A    9
 C8 
A   10
 C9 
A   11
 C10
A   12
 N2 
A   13
 C11
A   14
 H1 
A   15
 H2 
A   16
 H3 
A   17
 H4 
A   18
 H5 
A   19
 H6 
A   20
 H7 
A   21
 H8 
A   22
 H9 
A   23
 H10
A   24
 H11
A   25
 H12
M  END
>  <ref_pdb>  (350) 
x0051_0B

>  <ref_mols>  (350) 
x0425_0B,x0435_0B

>  <original SMILES>  (350) 
[H]c1c([H])c([H])c2c(N([H])[H])c([H])c(C([H])([H])[H])nc2c1C([H])([H])[H]

>  <index>  (350) 
2098

>  <∆∆G>  (350) 
-7.557494

>  <∆G_bound>  (350) 
-7.851927

>  <∆G_unbound>  (350) 
-0.294432

>  <comRMSD>  (350) 
0.580713

>  <N_constrained_atoms>  (350) 
13.0

>  <N_unconstrained_atoms>  (350) 
1.0

>  <runtime>  (350) 
27.480931

>  <LE>  (350) 
0.539821

>  <percent_hybrid>  (350) 
40.0

>  <dist>  (350) 
2.0

>  <ecfp4>  (350) 
0.380952

>  <daylight>  (350) 
0.56962

>  <topodist>  (350) 
2.0

>  <mces>  (350) 
13.0

>  <tdn>  (350) 
0.0

>  <tup>  (350) 
1.0

>  <rdn>  (350) 
0.0

>  <rup>  (350) 
0.0

>  <ldn>  (350) 
1.0

>  <lup>  (350) 
0.0

>  <mut>  (350) 
0.0

>  <maj>  (350) 
0.0

>  <min>  (350) 
0.0

>  <hyb>  (350) 
0.0

>  <sub>  (350) 
1.0

>  <query_index>  (350) 
107.0

>  <max_hit_Tanimoto>  (350) 
0.175325

>  <largest_ring>  (350) 
6

>  <N_interactions_kept>  (350) 
1.5

>  <N_interactions_lost>  (350) 
2.0

>  <interaction_uniqueness_metric>  (350) 
0.034019

>  <ad_hoc_penalty>  (350) 
-8.338396

>  <N_rotatable_bonds>  (350) 
3

>  <N_HA>  (350) 
13

>  <cluster>  (350) 
4293

>  <N_interactions>  (350) 
3

>  <Enamine>  (350) 
1

>  <Mcule>  (350) 
0

>  <N_PAINS>  (350) 
0

>  <UFF_Gibbs>  (350) 
42.767387

>  <strain_per_HA>  (350) 
3.289799

>  <intxn_scored>  (350) 
8.5

>  <saltbridge:HIS:51>  (350) 
0

>  <pistack:HIS:51>  (350) 
0

>  <hydroph_interaction:HIS:51>  (350) 
0

>  <hbond:ALA:132>  (350) 
0

>  <hbond:SER:135>  (350) 
0

>  <hydroph_interaction:TYR:150>  (350) 
1

>  <pistack:TYR:161>  (350) 
2

>  <hydroph_interaction:TYR:161>  (350) 
0

>  <hydroph_interaction:ASP:83>  (350) 
0

>  <hbond:TYR:130>  (350) 
0

>  <hydroph_interaction:ALA:132>  (350) 
0

>  <hbond:HIS:51>  (350) 
0

>  <hbond:ASP:129>  (350) 
0

>  <hbond:TYR:150>  (350) 
0

>  <hbond:GLY:151>  (350) 
0

>  <hbond:TYR:161>  (350) 
0

>  <hydroph_interaction:TYR:130>  (350) 
0

>  <hydroph_interaction:PRO:131>  (350) 
0

>  <hydroph_interaction:ASP:129>  (350) 
0

>  <saltbridge:ASP:75>  (350) 
0

>  <saltbridge:ASP:83>  (350) 
0

>  <hbond:ASN:152>  (350) 
0

>  <hydroph_interaction:ASN:152>  (350) 
0

>  <halogenbond:TYR:150>  (350) 
0

>  <hbond:ASP:83>  (350) 
0

>  <hydroph_interaction:VAL:155>  (350) 
0

>  <pication:TYR:161>  (350) 
0

>  <hbond:PRO:131>  (350) 
0

>  <saltbridge:ASP:129>  (350) 
0

>  <hbond:THR:134>  (350) 
0

>  <pication:HIS:51>  (350) 
0

>  <hbond:SER:81>  (350) 
0

>  <hydroph_interaction:THR:134>  (350) 
0

>  <hydroph_interaction:MET:49>  (350) 
0

$$$$
Z3696793196
     RDKit          3D

 40 41  0  0  0  0  0  0  0  0999 V2000
   -7.7550    5.4600  -14.9600 C   0  0  0  0  0  0  0  0  0  0  0  0
   -8.1770    5.2610  -16.3820 C   0  0  0  0  0  0  0  0  0  0  0  0
   -9.5230    4.9490  -16.6270 C   0  0  0  0  0  0  0  0  0  0  0  0
   -9.9920    4.7450  -17.9260 C   0  0  0  0  0  0  0  0  0  0  0  0
   -9.1100    4.8490  -18.9910 C   0  0  0  0  0  0  0  0  0  0  0  0
   -7.7780    5.1600  -18.7470 C   0  0  0  0  0  0  0  0  0  0  0  0
   -7.2690    5.3760  -17.4660 C   0  0  0  0  0  0  0  0  0  0  0  0
   -5.9150    5.6970  -17.1870 N   0  0  0  0  0  0  0  0  0  0  0  0
   -4.7700    5.5950  -17.9860 C   0  0  0  0  0  0  0  0  0  0  0  0
   -3.6940    4.6840  -17.7720 O   0  0  0  0  0  0  0  0  0  0  0  0
   -4.6940    6.5160  -19.0350 C   0  0  2  0  0  0  0  0  0  0  0  0
   -5.6110    7.5700  -19.0570 C   0  0  0  0  0  0  0  0  0  0  0  0
   -5.5720    7.9810  -20.4490 N   0  0  0  0  0  0  0  0  0  0  0  0
   -5.7690    6.6890  -21.0720 C   0  0  0  0  0  0  0  0  0  0  0  0
   -4.8210    5.8810  -20.4650 C   0  0  1  0  0  0  0  0  0  0  0  0
   -3.5620    5.7310  -21.2810 C   0  0  0  0  0  0  0  0  0  0  0  0
   -2.3950    4.9340  -20.7720 C   0  0  0  0  0  0  0  0  0  0  0  0
   -3.9150    5.1880  -22.6600 C   0  0  0  0  0  0  0  0  0  0  0  0
   -6.7730    5.0120  -14.7640 H   0  0  0  0  0  0  0  0  0  0  0  0
   -8.4680    4.9770  -14.2830 H   0  0  0  0  0  0  0  0  0  0  0  0
   -7.6860    6.5290  -14.7260 H   0  0  0  0  0  0  0  0  0  0  0  0
  -10.2220    4.8610  -15.7970 H   0  0  0  0  0  0  0  0  0  0  0  0
  -11.0390    4.5070  -18.0740 H   0  0  0  0  0  0  0  0  0  0  0  0
   -9.4560    4.6920  -20.0190 H   0  0  0  0  0  0  0  0  0  0  0  0
   -7.0320    5.2580  -19.5420 H   0  0  0  0  0  0  0  0  0  0  0  0
   -5.7360    5.9800  -16.2360 H   0  0  0  0  0  0  0  0  0  0  0  0
   -3.6990    6.9650  -18.9330 H   0  0  0  0  0  0  0  0  0  0  0  0
   -5.3320    8.4080  -18.4060 H   0  0  0  0  0  0  0  0  0  0  0  0
   -6.6140    7.2370  -18.7810 H   0  0  0  0  0  0  0  0  0  0  0  0
   -4.6580    8.3540  -20.6760 H   0  0  0  0  0  0  0  0  0  0  0  0
   -6.7530    6.3190  -20.7840 H   0  0  0  0  0  0  0  0  0  0  0  0
   -5.7760    6.7830  -22.1570 H   0  0  0  0  0  0  0  0  0  0  0  0
   -5.2610    4.8790  -20.3730 H   0  0  0  0  0  0  0  0  0  0  0  0
   -3.1720    6.7430  -21.4460 H   0  0  0  0  0  0  0  0  0  0  0  0
   -2.3050    3.9890  -21.3260 H   0  0  0  0  0  0  0  0  0  0  0  0
   -2.5260    4.6840  -19.7120 H   0  0  0  0  0  0  0  0  0  0  0  0
   -1.4520    5.4800  -20.8740 H   0  0  0  0  0  0  0  0  0  0  0  0
   -4.8740    4.6640  -22.6300 H   0  0  0  0  0  0  0  0  0  0  0  0
   -3.9750    5.9790  -23.4140 H   0  0  0  0  0  0  0  0  0  0  0  0
   -3.1570    4.4710  -22.9940 H   0  0  0  0  0  0  0  0  0  0  0  0
  1  2  1  0
  2  3  2  0
  3  4  1  0
  4  5  2  0
  5  6  1  0
  6  7  2  0
  7  8  1  0
  8  9  1  0
  9 10  2  0
  9 11  1  0
 11 12  1  0
 12 13  1  0
 13 14  1  0
 14 15  1  0
 15 16  1  0
 16 17  1  0
 16 18  1  0
  7  2  1  0
 15 11  1  0
  1 19  1  0
  1 20  1  0
  1 21  1  0
  3 22  1  0
  4 23  1  0
  5 24  1  0
  6 25  1  0
  8 26  1  0
 11 27  1  6
 12 28  1  0
 12 29  1  0
 13 30  1  0
 14 31  1  0
 14 32  1  0
 15 33  1  1
 16 34  1  0
 17 35  1  0
 17 36  1  0
 17 37  1  0
 18 38  1  0
 18 39  1  0
 18 40  1  0
A    1
 C1 
A    2
 C2 
A    3
 C3 
A    4
 C4 
A    5
 C5 
A    6
 C6 
A    7
 C7 
A    8
 N1 
A    9
 C8 
A   10
 O1 
A   11
 C9 
A   12
 C10
A   13
 N2 
A   14
 C11
A   15
 C12
A   16
 C13
A   17
 C14
A   18
 C15
A   19
 H1 
A   20
 H2 
A   21
 H3 
A   22
 H4 
A   23
 H5 
A   24
 H6 
A   25
 H7 
A   26
 H8 
A   27
 H9 
A   28
 H10
A   29
 H11
A   30
 H12
A   31
 H13
A   32
 H14
A   33
 H15
A   34
 H16
A   35
 H17
A   36
 H18
A   37
 H19
A   38
 H20
A   39
 H21
A   40
 H22
M  END
>  <ref_pdb>  (351) 
x0051_0B

>  <ref_mols>  (351) 
x0229_0B,x0904_0B

>  <original SMILES>  (351) 
[H]c1c([H])c([H])c(C([H])([H])[H])c(N([H])C(=O)[C@]2([H])C([H])([H])N([H])C([H])([H])[C@@]2([H])C([H])(C([H])([H])[H])C([H])([H])[H])c1[H]

>  <index>  (351) 
1472

>  <∆∆G>  (351) 
-7.546085

>  <∆G_bound>  (351) 
-7.195677

>  <∆G_unbound>  (351) 
0.350408

>  <comRMSD>  (351) 
0.776881

>  <N_constrained_atoms>  (351) 
20.0

>  <N_unconstrained_atoms>  (351) 
1.0

>  <runtime>  (351) 
32.195168

>  <LE>  (351) 
0.359337

>  <percent_hybrid>  (351) 
42.0

>  <dist>  (351) 
4.0

>  <ecfp4>  (351) 
0.212121

>  <daylight>  (351) 
0.472973

>  <topodist>  (351) 
2.0

>  <mces>  (351) 
19.0

>  <tdn>  (351) 
1.0

>  <tup>  (351) 
0.0

>  <rdn>  (351) 
1.0

>  <rup>  (351) 
0.0

>  <ldn>  (351) 
0.0

>  <lup>  (351) 
0.0

>  <mut>  (351) 
2.0

>  <maj>  (351) 
2.0

>  <min>  (351) 
0.0

>  <hyb>  (351) 
0.0

>  <sub>  (351) 
3.0

>  <query_index>  (351) 
66.0

>  <max_hit_Tanimoto>  (351) 
0.410311

>  <largest_ring>  (351) 
6

>  <N_interactions_kept>  (351) 
1.0

>  <N_interactions_lost>  (351) 
2.5

>  <interaction_uniqueness_metric>  (351) 
0.158325

>  <ad_hoc_penalty>  (351) 
-8.36154

>  <N_rotatable_bonds>  (351) 
6

>  <N_HA>  (351) 
18

>  <cluster>  (351) 
4867

>  <N_interactions>  (351) 
6

>  <Enamine>  (351) 
1

>  <Mcule>  (351) 
0

>  <N_PAINS>  (351) 
0

>  <UFF_Gibbs>  (351) 
150.363449

>  <strain_per_HA>  (351) 
8.353525

>  <intxn_scored>  (351) 
8.5

>  <saltbridge:HIS:51>  (351) 
0

>  <pistack:HIS:51>  (351) 
0

>  <hydroph_interaction:HIS:51>  (351) 
0

>  <hbond:ALA:132>  (351) 
1

>  <hbond:SER:135>  (351) 
0

>  <hydroph_interaction:TYR:150>  (351) 
1

>  <pistack:TYR:161>  (351) 
1

>  <hydroph_interaction:TYR:161>  (351) 
1

>  <hydroph_interaction:ASP:83>  (351) 
0

>  <hbond:TYR:130>  (351) 
1

>  <hydroph_interaction:ALA:132>  (351) 
0

>  <hbond:HIS:51>  (351) 
0

>  <hbond:ASP:129>  (351) 
0

>  <hbond:TYR:150>  (351) 
0

>  <hbond:GLY:151>  (351) 
0

>  <hbond:TYR:161>  (351) 
0

>  <hydroph_interaction:TYR:130>  (351) 
0

>  <hydroph_interaction:PRO:131>  (351) 
0

>  <hydroph_interaction:ASP:129>  (351) 
1

>  <saltbridge:ASP:75>  (351) 
0

>  <saltbridge:ASP:83>  (351) 
0

>  <hbond:ASN:152>  (351) 
0

>  <hydroph_interaction:ASN:152>  (351) 
0

>  <halogenbond:TYR:150>  (351) 
0

>  <hbond:ASP:83>  (351) 
0

>  <hydroph_interaction:VAL:155>  (351) 
0

>  <pication:TYR:161>  (351) 
0

>  <hbond:PRO:131>  (351) 
0

>  <saltbridge:ASP:129>  (351) 
0

>  <hbond:THR:134>  (351) 
0

>  <pication:HIS:51>  (351) 
0

>  <hbond:SER:81>  (351) 
0

>  <hydroph_interaction:THR:134>  (351) 
0

>  <hydroph_interaction:MET:49>  (351) 
0

$$$$
Z1618270669
     RDKit          3D

 32 34  0  0  0  0  0  0  0  0999 V2000
   -7.8140    5.2130  -15.1980 C   0  0  0  0  0  0  0  0  0  0  0  0
   -8.2520    5.1160  -16.6200 C   0  0  0  0  0  0  0  0  0  0  0  0
   -9.5870    4.8370  -16.8870 C   0  0  0  0  0  0  0  0  0  0  0  0
  -10.0320    4.7370  -18.1970 C   0  0  0  0  0  0  0  0  0  0  0  0
   -9.1350    4.9170  -19.2410 C   0  0  0  0  0  0  0  0  0  0  0  0
   -7.7890    5.2010  -18.9900 C   0  0  0  0  0  0  0  0  0  0  0  0
   -6.8860    5.3850  -20.0330 N   0  0  0  0  0  0  0  0  0  0  0  0
   -5.5800    5.6580  -19.8220 C   0  0  0  0  0  0  0  0  0  0  0  0
   -5.0560    5.7700  -18.6100 N   0  0  0  0  0  0  0  0  0  0  0  0
   -5.8980    5.5960  -17.5520 C   0  0  0  0  0  0  0  0  0  0  0  0
   -5.2730    5.7120  -16.2780 N   0  0  0  0  0  0  0  0  0  0  0  0
   -5.2310    7.1050  -15.8090 C   0  0  0  0  0  0  0  0  0  0  0  0
   -4.5120    7.1200  -14.6150 C   0  0  0  0  0  0  0  0  0  0  0  0
   -3.6090    5.9800  -14.0920 C   0  0  0  0  0  0  0  0  0  0  0  0
   -3.5200    4.8560  -14.9030 C   0  0  0  0  0  0  0  0  0  0  0  0
   -3.9180    5.1430  -16.2980 C   0  0  0  0  0  0  0  0  0  0  0  0
   -7.3170    5.3050  -17.6540 C   0  0  0  0  0  0  0  0  0  0  0  0
   -6.8870    4.6490  -15.0460 H   0  0  0  0  0  0  0  0  0  0  0  0
   -7.6250    6.2500  -14.9020 H   0  0  0  0  0  0  0  0  0  0  0  0
   -8.5910    4.8180  -14.5350 H   0  0  0  0  0  0  0  0  0  0  0  0
  -10.2940    4.6930  -16.0750 H   0  0  0  0  0  0  0  0  0  0  0  0
  -11.0760    4.5190  -18.4070 H   0  0  0  0  0  0  0  0  0  0  0  0
   -9.5140    4.8320  -20.2560 H   0  0  0  0  0  0  0  0  0  0  0  0
   -4.9350    5.7900  -20.6830 H   0  0  0  0  0  0  0  0  0  0  0  0
   -4.8750    7.7240  -16.6280 H   0  0  0  0  0  0  0  0  0  0  0  0
   -6.2410    7.4640  -15.5710 H   0  0  0  0  0  0  0  0  0  0  0  0
   -4.6120    8.0210  -14.0160 H   0  0  0  0  0  0  0  0  0  0  0  0
   -3.0660    6.0340  -13.1530 H   0  0  0  0  0  0  0  0  0  0  0  0
   -4.1450    4.0490  -14.5050 H   0  0  0  0  0  0  0  0  0  0  0  0
   -2.4880    4.4890  -14.9010 H   0  0  0  0  0  0  0  0  0  0  0  0
   -3.2020    5.8560  -16.7210 H   0  0  0  0  0  0  0  0  0  0  0  0
   -3.8700    4.2250  -16.8940 H   0  0  0  0  0  0  0  0  0  0  0  0
  1  2  1  0
  2  3  2  0
  3  4  1  0
  4  5  2  0
  5  6  1  0
  6  7  2  0
  7  8  1  0
  8  9  2  0
  9 10  1  0
 10 11  1  0
 11 12  1  0
 12 13  1  0
 13 14  2  0
 14 15  1  0
 15 16  1  0
 10 17  2  0
 17  2  1  0
 17  6  1  0
 16 11  1  0
  1 18  1  0
  1 19  1  0
  1 20  1  0
  3 21  1  0
  4 22  1  0
  5 23  1  0
  8 24  1  0
 12 25  1  0
 12 26  1  0
 13 27  1  0
 14 28  1  0
 15 29  1  0
 15 30  1  0
 16 31  1  0
 16 32  1  0
A    1
 C1 
A    2
 C2 
A    3
 C3 
A    4
 C4 
A    5
 C5 
A    6
 C6 
A    7
 N1 
A    8
 C7 
A    9
 N2 
A   10
 C8 
A   11
 N3 
A   12
 C9 
A   13
 C10
A   14
 C11
A   15
 C12
A   16
 C13
A   17
 C14
A   18
 H1 
A   19
 H2 
A   20
 H3 
A   21
 H4 
A   22
 H5 
A   23
 H6 
A   24
 H7 
A   25
 H8 
A   26
 H9 
A   27
 H10
A   28
 H11
A   29
 H12
A   30
 H13
A   31
 H14
A   32
 H15
M  END
>  <ref_pdb>  (352) 
x0051_0B

>  <ref_mols>  (352) 
x0429_0B,x0693_0B

>  <original SMILES>  (352) 
[H]C1=C([H])C([H])([H])C([H])([H])N(c2nc([H])nc3c([H])c([H])c([H])c(C([H])([H])[H])c23)C1([H])[H]

>  <index>  (352) 
1042

>  <∆∆G>  (352) 
-6.67962

>  <∆G_bound>  (352) 
-6.271877

>  <∆G_unbound>  (352) 
0.407743

>  <comRMSD>  (352) 
0.597349

>  <N_constrained_atoms>  (352) 
18.0

>  <N_unconstrained_atoms>  (352) 
0.0

>  <runtime>  (352) 
23.789431

>  <LE>  (352) 
0.37109

>  <percent_hybrid>  (352) 
20.0

>  <dist>  (352) 
3.0

>  <ecfp4>  (352) 
0.42

>  <daylight>  (352) 
0.4

>  <topodist>  (352) 
0.0

>  <mces>  (352) 
19.0

>  <tdn>  (352) 
0.0

>  <tup>  (352) 
0.0

>  <rdn>  (352) 
0.0

>  <rup>  (352) 
0.0

>  <ldn>  (352) 
0.0

>  <lup>  (352) 
0.0

>  <mut>  (352) 
2.0

>  <maj>  (352) 
2.0

>  <min>  (352) 
0.0

>  <hyb>  (352) 
1.0

>  <sub>  (352) 
0.0

>  <query_index>  (352) 
179.0

>  <max_hit_Tanimoto>  (352) 
0.359818

>  <largest_ring>  (352) 
6

>  <N_interactions_kept>  (352) 
3.0

>  <N_interactions_lost>  (352) 
1.5

>  <interaction_uniqueness_metric>  (352) 
0.034019

>  <ad_hoc_penalty>  (352) 
-14.671583

>  <N_rotatable_bonds>  (352) 
2

>  <N_HA>  (352) 
17

>  <cluster>  (352) 
5260

>  <N_interactions>  (352) 
3

>  <Enamine>  (352) 
1

>  <Mcule>  (352) 
0

>  <N_PAINS>  (352) 
0

>  <UFF_Gibbs>  (352) 
68.127175

>  <strain_per_HA>  (352) 
4.007481

>  <intxn_scored>  (352) 
8.5

>  <saltbridge:HIS:51>  (352) 
0

>  <pistack:HIS:51>  (352) 
0

>  <hydroph_interaction:HIS:51>  (352) 
0

>  <hbond:ALA:132>  (352) 
0

>  <hbond:SER:135>  (352) 
0

>  <hydroph_interaction:TYR:150>  (352) 
1

>  <pistack:TYR:161>  (352) 
2

>  <hydroph_interaction:TYR:161>  (352) 
0

>  <hydroph_interaction:ASP:83>  (352) 
0

>  <hbond:TYR:130>  (352) 
0

>  <hydroph_interaction:ALA:132>  (352) 
0

>  <hbond:HIS:51>  (352) 
0

>  <hbond:ASP:129>  (352) 
0

>  <hbond:TYR:150>  (352) 
0

>  <hbond:GLY:151>  (352) 
0

>  <hbond:TYR:161>  (352) 
0

>  <hydroph_interaction:TYR:130>  (352) 
0

>  <hydroph_interaction:PRO:131>  (352) 
0

>  <hydroph_interaction:ASP:129>  (352) 
0

>  <saltbridge:ASP:75>  (352) 
0

>  <saltbridge:ASP:83>  (352) 
0

>  <hbond:ASN:152>  (352) 
0

>  <hydroph_interaction:ASN:152>  (352) 
0

>  <halogenbond:TYR:150>  (352) 
0

>  <hbond:ASP:83>  (352) 
0

>  <hydroph_interaction:VAL:155>  (352) 
0

>  <pication:TYR:161>  (352) 
0

>  <hbond:PRO:131>  (352) 
0

>  <saltbridge:ASP:129>  (352) 
0

>  <hbond:THR:134>  (352) 
0

>  <pication:HIS:51>  (352) 
0

>  <hbond:SER:81>  (352) 
0

>  <hydroph_interaction:THR:134>  (352) 
0

>  <hydroph_interaction:MET:49>  (352) 
0

$$$$
Z929192768
     RDKit          3D

 56 59  0  0  0  0  0  0  0  0999 V2000
   -6.6560    6.7310  -16.2810 C   0  0  0  0  0  0  0  0  0  0  0  0
   -7.8250    5.9560  -16.8500 C   0  0  0  0  0  0  0  0  0  0  0  0
   -7.6340    5.3880  -18.2520 C   0  0  0  0  0  0  0  0  0  0  0  0
   -6.4740    5.5780  -18.9860 N   0  0  0  0  0  0  0  0  0  0  0  0
   -6.3140    5.0780  -20.2520 C   0  0  0  0  0  0  0  0  0  0  0  0
   -7.1360    4.4700  -20.9300 O   0  0  0  0  0  0  0  0  0  0  0  0
   -5.0710    5.2860  -20.7740 C   0  0  0  0  0  0  0  0  0  0  0  0
   -3.8780    5.3140  -19.8320 C   0  0  0  0  0  0  0  0  0  0  0  0
   -2.5210    5.5280  -20.4780 C   0  0  0  0  0  0  0  0  0  0  0  0
   -2.5050    5.7000  -22.0020 C   0  0  0  0  0  0  0  0  0  0  0  0
   -3.6910    5.6600  -22.7520 C   0  0  0  0  0  0  0  0  0  0  0  0
   -4.9440    5.4570  -22.1420 C   0  0  0  0  0  0  0  0  0  0  0  0
   -8.6430    4.6590  -18.8390 C   0  0  0  0  0  0  0  0  0  0  0  0
   -9.7870    4.4330  -18.1590 C   0  0  0  0  0  0  0  0  0  0  0  0
   -9.9720    4.9370  -16.8940 C   0  0  0  0  0  0  0  0  0  0  0  0
   -9.0630    5.7260  -16.2010 C   0  0  0  0  0  0  0  0  0  0  0  0
   -9.4630    6.2330  -14.9200 N   0  0  0  0  0  0  0  0  0  0  0  0
   -8.8720    7.0990  -14.0160 C   0  0  0  0  0  0  0  0  0  0  0  0
   -8.4110    8.2360  -14.1250 O   0  0  0  0  0  0  0  0  0  0  0  0
   -8.8740    6.4060  -12.6860 C   0  0  0  0  0  0  0  0  0  0  0  0
   -8.7510    7.2070  -11.4210 C   0  0  0  0  0  0  0  0  0  0  0  0
   -8.7730    6.5000  -10.1010 C   0  0  0  0  0  0  0  0  0  0  0  0
   -8.9130    5.0880  -10.1660 C   0  0  0  0  0  0  0  0  0  0  0  0
   -8.9550    4.3520   -9.0230 N   0  0  0  0  0  0  0  0  0  0  0  0
   -9.3640    2.9310   -9.0960 C   0  0  0  0  0  0  0  0  0  0  0  0
   -9.6850    2.3720   -7.7120 C   0  0  0  0  0  0  0  0  0  0  0  0
  -10.0300    3.3730   -6.7610 O   0  0  0  0  0  0  0  0  0  0  0  0
   -8.9650    4.2790   -6.5170 C   0  0  0  0  0  0  0  0  0  0  0  0
   -8.3130    4.8460   -7.7870 C   0  0  0  0  0  0  0  0  0  0  0  0
   -9.0160    4.4110  -11.4030 C   0  0  0  0  0  0  0  0  0  0  0  0
   -8.9990    5.0400  -12.6370 C   0  0  0  0  0  0  0  0  0  0  0  0
   -5.9660    6.0450  -15.7800 H   0  0  0  0  0  0  0  0  0  0  0  0
   -6.9980    7.4760  -15.5550 H   0  0  0  0  0  0  0  0  0  0  0  0
   -6.0810    7.2290  -17.0680 H   0  0  0  0  0  0  0  0  0  0  0  0
   -5.9460    6.4140  -18.7850 H   0  0  0  0  0  0  0  0  0  0  0  0
   -3.9720    5.1830  -18.7570 H   0  0  0  0  0  0  0  0  0  0  0  0
   -1.6060    5.5590  -19.8920 H   0  0  0  0  0  0  0  0  0  0  0  0
   -1.5630    5.8570  -22.5240 H   0  0  0  0  0  0  0  0  0  0  0  0
   -3.6420    5.7870  -23.8270 H   0  0  0  0  0  0  0  0  0  0  0  0
   -5.8450    5.4280  -22.7510 H   0  0  0  0  0  0  0  0  0  0  0  0
   -8.5620    4.2400  -19.8380 H   0  0  0  0  0  0  0  0  0  0  0  0
  -10.5650    3.8470  -18.6230 H   0  0  0  0  0  0  0  0  0  0  0  0
  -10.8860    4.6740  -16.4710 H   0  0  0  0  0  0  0  0  0  0  0  0
  -10.4520    6.1330  -14.7540 H   0  0  0  0  0  0  0  0  0  0  0  0
   -8.6500    8.3000  -11.4640 H   0  0  0  0  0  0  0  0  0  0  0  0
   -8.6900    7.0560   -9.1710 H   0  0  0  0  0  0  0  0  0  0  0  0
   -8.5740    2.3440   -9.5670 H   0  0  0  0  0  0  0  0  0  0  0  0
  -10.2690    2.8130   -9.6980 H   0  0  0  0  0  0  0  0  0  0  0  0
  -10.5140    1.6590   -7.7650 H   0  0  0  0  0  0  0  0  0  0  0  0
   -8.8260    1.8400   -7.3100 H   0  0  0  0  0  0  0  0  0  0  0  0
   -9.3600    5.0910   -5.9000 H   0  0  0  0  0  0  0  0  0  0  0  0
   -8.2180    3.7450   -5.9160 H   0  0  0  0  0  0  0  0  0  0  0  0
   -7.2530    4.5750   -7.7650 H   0  0  0  0  0  0  0  0  0  0  0  0
   -8.3890    5.9380   -7.7710 H   0  0  0  0  0  0  0  0  0  0  0  0
   -9.1210    3.3290  -11.4170 H   0  0  0  0  0  0  0  0  0  0  0  0
   -9.0880    4.4540  -13.5510 H   0  0  0  0  0  0  0  0  0  0  0  0
  1  2  1  0
  2  3  2  0
  3  4  1  0
  4  5  1  0
  5  6  2  0
  5  7  1  0
  7  8  2  0
  8  9  1  0
  9 10  2  0
 10 11  1  0
 11 12  2  0
  3 13  1  0
 13 14  2  0
 14 15  1  0
 15 16  2  0
 16 17  1  0
 17 18  1  0
 18 19  2  0
 18 20  1  0
 20 21  2  0
 21 22  1  0
 22 23  2  0
 23 24  1  0
 24 25  1  0
 25 26  1  0
 26 27  1  0
 27 28  1  0
 28 29  1  0
 23 30  1  0
 30 31  2  0
 16  2  1  0
 12  7  1  0
 31 20  1  0
 29 24  1  0
  1 32  1  0
  1 33  1  0
  1 34  1  0
  4 35  1  0
  8 36  1  0
  9 37  1  0
 10 38  1  0
 11 39  1  0
 12 40  1  0
 13 41  1  0
 14 42  1  0
 15 43  1  0
 17 44  1  0
 21 45  1  0
 22 46  1  0
 25 47  1  0
 25 48  1  0
 26 49  1  0
 26 50  1  0
 28 51  1  0
 28 52  1  0
 29 53  1  0
 29 54  1  0
 30 55  1  0
 31 56  1  0
A    1
 C1 
A    2
 C2 
A    3
 C3 
A    4
 N1 
A    5
 C4 
A    6
 O1 
A    7
 C5 
A    8
 C6 
A    9
 C7 
A   10
 C8 
A   11
 C9 
A   12
 C10
A   13
 C11
A   14
 C12
A   15
 C13
A   16
 C14
A   17
 N2 
A   18
 C15
A   19
 O2 
A   20
 C16
A   21
 C17
A   22
 C18
A   23
 C19
A   24
 N3 
A   25
 C20
A   26
 C21
A   27
 O3 
A   28
 C22
A   29
 C23
A   30
 C24
A   31
 C25
A   32
 H1 
A   33
 H2 
A   34
 H3 
A   35
 H4 
A   36
 H5 
A   37
 H6 
A   38
 H7 
A   39
 H8 
A   40
 H9 
A   41
 H10
A   42
 H11
A   43
 H12
A   44
 H13
A   45
 H14
A   46
 H15
A   47
 H16
A   48
 H17
A   49
 H18
A   50
 H19
A   51
 H20
A   52
 H21
A   53
 H22
A   54
 H23
A   55
 H24
A   56
 H25
M  END
>  <ref_pdb>  (353) 
x0051_0B

>  <ref_mols>  (353) 
x0852_0B,x0404_0B

>  <original SMILES>  (353) 
[H]c1c([H])c([H])c(C(=O)N([H])c2c([H])c([H])c([H])c(N([H])C(=O)c3c([H])c([H])c(N4C([H])([H])C([H])([H])OC([H])([H])C4([H])[H])c([H])c3[H])c2C([H])([H])[H])c([H])c1[H]

>  <index>  (353) 
756

>  <∆∆G>  (353) 
-6.491971

>  <∆G_bound>  (353) 
-6.401288

>  <∆G_unbound>  (353) 
0.090683

>  <comRMSD>  (353) 
0.81123

>  <N_constrained_atoms>  (353) 
34.0

>  <N_unconstrained_atoms>  (353) 
0.0

>  <runtime>  (353) 
119.825565

>  <LE>  (353) 
0.19094

>  <percent_hybrid>  (353) 
48.0

>  <dist>  (353) 
8.0

>  <ecfp4>  (353) 
0.258427

>  <daylight>  (353) 
0.283333

>  <topodist>  (353) 
4.0

>  <mces>  (353) 
34.0

>  <tdn>  (353) 
3.0

>  <tup>  (353) 
0.0

>  <rdn>  (353) 
0.0

>  <rup>  (353) 
0.0

>  <ldn>  (353) 
1.0

>  <lup>  (353) 
0.0

>  <mut>  (353) 
3.0

>  <maj>  (353) 
3.0

>  <min>  (353) 
0.0

>  <hyb>  (353) 
1.0

>  <sub>  (353) 
2.0

>  <query_index>  (353) 
6.0

>  <max_hit_Tanimoto>  (353) 
0.434783

>  <largest_ring>  (353) 
6

>  <N_interactions_kept>  (353) 
3.0

>  <N_interactions_lost>  (353) 
4.0

>  <interaction_uniqueness_metric>  (353) 
0.218051

>  <ad_hoc_penalty>  (353) 
-16.885516

>  <N_rotatable_bonds>  (353) 
6

>  <N_HA>  (353) 
31

>  <cluster>  (353) 
5527

>  <N_interactions>  (353) 
10

>  <Enamine>  (353) 
1

>  <Mcule>  (353) 
0

>  <N_PAINS>  (353) 
0

>  <UFF_Gibbs>  (353) 
191.772001

>  <strain_per_HA>  (353) 
6.186194

>  <intxn_scored>  (353) 
8.5

>  <saltbridge:HIS:51>  (353) 
0

>  <pistack:HIS:51>  (353) 
1

>  <hydroph_interaction:HIS:51>  (353) 
1

>  <hbond:ALA:132>  (353) 
0

>  <hbond:SER:135>  (353) 
0

>  <hydroph_interaction:TYR:150>  (353) 
1

>  <pistack:TYR:161>  (353) 
0

>  <hydroph_interaction:TYR:161>  (353) 
3

>  <hydroph_interaction:ASP:83>  (353) 
0

>  <hbond:TYR:130>  (353) 
1

>  <hydroph_interaction:ALA:132>  (353) 
1

>  <hbond:HIS:51>  (353) 
0

>  <hbond:ASP:129>  (353) 
0

>  <hbond:TYR:150>  (353) 
0

>  <hbond:GLY:151>  (353) 
1

>  <hbond:TYR:161>  (353) 
0

>  <hydroph_interaction:TYR:130>  (353) 
0

>  <hydroph_interaction:PRO:131>  (353) 
0

>  <hydroph_interaction:ASP:129>  (353) 
1

>  <saltbridge:ASP:75>  (353) 
0

>  <saltbridge:ASP:83>  (353) 
0

>  <hbond:ASN:152>  (353) 
0

>  <hydroph_interaction:ASN:152>  (353) 
0

>  <halogenbond:TYR:150>  (353) 
0

>  <hbond:ASP:83>  (353) 
0

>  <hydroph_interaction:VAL:155>  (353) 
0

>  <pication:TYR:161>  (353) 
0

>  <hbond:PRO:131>  (353) 
0

>  <saltbridge:ASP:129>  (353) 
0

>  <hbond:THR:134>  (353) 
0

>  <pication:HIS:51>  (353) 
0

>  <hbond:SER:81>  (353) 
0

>  <hydroph_interaction:THR:134>  (353) 
0

>  <hydroph_interaction:MET:49>  (353) 
0

$$$$
PV-002197268213
     RDKit          3D

 31 32  0  0  0  0  0  0  0  0999 V2000
   -4.3690    7.5130  -20.5390 C   0  0  0  0  0  0  0  0  0  0  0  0
   -5.2560    6.5500  -21.3250 C   0  0  1  0  0  0  0  0  0  0  0  0
   -4.6640    5.5570  -22.0750 C   0  0  0  0  0  0  0  0  0  0  0  0
   -5.5690    4.9050  -22.5350 O   0  0  0  0  0  0  0  0  0  0  0  0
   -6.2780    5.9540  -20.4620 N   0  0  0  0  0  0  0  0  0  0  0  0
   -6.0650    5.6460  -19.1440 C   0  0  0  0  0  0  0  0  0  0  0  0
   -4.8390    5.6050  -18.5370 O   0  0  0  0  0  0  0  0  0  0  0  0
   -7.3060    5.3650  -18.3320 C   0  0  0  0  0  0  0  0  0  0  0  0
   -8.5490    4.8730  -19.0790 C   0  0  0  0  0  0  0  0  0  0  0  0
   -9.7500    4.6210  -18.1860 C   0  0  0  0  0  0  0  0  0  0  0  0
   -9.5950    4.8750  -16.7150 C   0  0  0  0  0  0  0  0  0  0  0  0
   -8.4080    5.3300  -16.1430 C   0  0  0  0  0  0  0  0  0  0  0  0
   -7.2910    5.5600  -16.9580 C   0  0  0  0  0  0  0  0  0  0  0  0
   -6.2250    5.9980  -16.1800 N   0  0  0  0  0  0  0  0  0  0  0  0
   -6.5800    6.0800  -14.8720 C   0  0  0  0  0  0  0  0  0  0  0  0
   -8.0030    5.6530  -14.8370 C   0  0  0  0  0  0  0  0  0  0  0  0
   -8.7100    5.6590  -13.4840 C   0  0  0  0  0  0  0  0  0  0  0  0
   -9.2310    5.7400  -12.4630 N   0  0  0  0  0  0  0  0  0  0  0  0
   -3.8810    8.2180  -21.2200 H   0  0  0  0  0  0  0  0  0  0  0  0
   -4.9580    8.1030  -19.8300 H   0  0  0  0  0  0  0  0  0  0  0  0
   -3.6260    6.9510  -19.9650 H   0  0  0  0  0  0  0  0  0  0  0  0
   -5.7840    7.1920  -22.0410 H   0  0  0  0  0  0  0  0  0  0  0  0
   -4.0100    4.8990  -21.4970 H   0  0  0  0  0  0  0  0  0  0  0  0
   -4.0860    5.9820  -22.9060 H   0  0  0  0  0  0  0  0  0  0  0  0
   -5.1600    4.0400  -22.7870 H   0  0  0  0  0  0  0  0  0  0  0  0
   -7.2410    6.0700  -20.7960 H   0  0  0  0  0  0  0  0  0  0  0  0
   -8.5710    4.7180  -20.1570 H   0  0  0  0  0  0  0  0  0  0  0  0
  -10.6920    4.2680  -18.5920 H   0  0  0  0  0  0  0  0  0  0  0  0
  -10.4980    4.6690  -16.1410 H   0  0  0  0  0  0  0  0  0  0  0  0
   -5.3100    6.2240  -16.5500 H   0  0  0  0  0  0  0  0  0  0  0  0
   -5.8870    6.4050  -14.1040 H   0  0  0  0  0  0  0  0  0  0  0  0
  1  2  1  0
  2  3  1  0
  3  4  1  0
  2  5  1  0
  5  6  1  0
  6  7  2  0
  6  8  1  0
  8  9  2  0
  9 10  1  0
 10 11  2  0
 11 12  1  0
 12 13  2  0
 13 14  1  0
 14 15  1  0
 15 16  2  0
 16 17  1  0
 17 18  3  0
 13  8  1  0
 16 12  1  0
  1 19  1  0
  1 20  1  0
  1 21  1  0
  2 22  1  6
  3 23  1  0
  3 24  1  0
  4 25  1  0
  5 26  1  0
  9 27  1  0
 10 28  1  0
 11 29  1  0
 14 30  1  0
 15 31  1  0
A    1
 C1 
A    2
 C2 
A    3
 C3 
A    4
 O1 
A    5
 N1 
A    6
 C4 
A    7
 O2 
A    8
 C5 
A    9
 C6 
A   10
 C7 
A   11
 C8 
A   12
 C9 
A   13
 C10
A   14
 N2 
A   15
 C11
A   16
 C12
A   17
 C13
A   18
 N3 
A   19
 H1 
A   20
 H2 
A   21
 H3 
A   22
 H4 
A   23
 H5 
A   24
 H6 
A   25
 H7 
A   26
 H8 
A   27
 H9 
A   28
 H10
A   29
 H11
A   30
 H12
A   31
 H13
M  END
>  <ref_pdb>  (354) 
x0051_0B

>  <ref_mols>  (354) 
x0101_0B,x0951_0B

>  <original SMILES>  (354) 
[H]OC([H])([H])[C@@]([H])(N([H])C(=O)c1c([H])c([H])c([H])c2c(C#N)c([H])n([H])c12)C([H])([H])[H]

>  <index>  (354) 
3235

>  <∆∆G>  (354) 
-6.698778

>  <∆G_bound>  (354) 
-5.69608

>  <∆G_unbound>  (354) 
1.002698

>  <comRMSD>  (354) 
0.625767

>  <N_constrained_atoms>  (354) 
19.0

>  <N_unconstrained_atoms>  (354) 
0.0

>  <runtime>  (354) 
34.87055

>  <LE>  (354) 
0.352567

>  <percent_hybrid>  (354) 
39.0

>  <dist>  (354) 
6.0

>  <ecfp4>  (354) 
0.192308

>  <daylight>  (354) 
0.385027

>  <topodist>  (354) 
3.0

>  <mces>  (354) 
19.0

>  <tdn>  (354) 
3.0

>  <tup>  (354) 
0.0

>  <rdn>  (354) 
0.0

>  <rup>  (354) 
0.0

>  <ldn>  (354) 
0.0

>  <lup>  (354) 
0.0

>  <mut>  (354) 
1.0

>  <maj>  (354) 
1.0

>  <min>  (354) 
0.0

>  <hyb>  (354) 
2.0

>  <sub>  (354) 
2.0

>  <query_index>  (354) 
30.0

>  <max_hit_Tanimoto>  (354) 
0.327103

>  <largest_ring>  (354) 
6

>  <N_interactions_kept>  (354) 
0.5

>  <N_interactions_lost>  (354) 
3.5

>  <interaction_uniqueness_metric>  (354) 
0.118312

>  <ad_hoc_penalty>  (354) 
-0.434059

>  <N_rotatable_bonds>  (354) 
5

>  <N_HA>  (354) 
18

>  <cluster>  (354) 
3222

>  <N_interactions>  (354) 
6

>  <Enamine>  (354) 
1

>  <Mcule>  (354) 
0

>  <N_PAINS>  (354) 
0

>  <UFF_Gibbs>  (354) 
110.801084

>  <strain_per_HA>  (354) 
6.155616

>  <intxn_scored>  (354) 
8.5

>  <saltbridge:HIS:51>  (354) 
0

>  <pistack:HIS:51>  (354) 
0

>  <hydroph_interaction:HIS:51>  (354) 
0

>  <hbond:ALA:132>  (354) 
0

>  <hbond:SER:135>  (354) 
0

>  <hydroph_interaction:TYR:150>  (354) 
1

>  <pistack:TYR:161>  (354) 
1

>  <hydroph_interaction:TYR:161>  (354) 
0

>  <hydroph_interaction:ASP:83>  (354) 
0

>  <hbond:TYR:130>  (354) 
2

>  <hydroph_interaction:ALA:132>  (354) 
0

>  <hbond:HIS:51>  (354) 
0

>  <hbond:ASP:129>  (354) 
2

>  <hbond:TYR:150>  (354) 
0

>  <hbond:GLY:151>  (354) 
0

>  <hbond:TYR:161>  (354) 
0

>  <hydroph_interaction:TYR:130>  (354) 
0

>  <hydroph_interaction:PRO:131>  (354) 
0

>  <hydroph_interaction:ASP:129>  (354) 
0

>  <saltbridge:ASP:75>  (354) 
0

>  <saltbridge:ASP:83>  (354) 
0

>  <hbond:ASN:152>  (354) 
0

>  <hydroph_interaction:ASN:152>  (354) 
0

>  <halogenbond:TYR:150>  (354) 
0

>  <hbond:ASP:83>  (354) 
0

>  <hydroph_interaction:VAL:155>  (354) 
0

>  <pication:TYR:161>  (354) 
0

>  <hbond:PRO:131>  (354) 
0

>  <saltbridge:ASP:129>  (354) 
0

>  <hbond:THR:134>  (354) 
0

>  <pication:HIS:51>  (354) 
0

>  <hbond:SER:81>  (354) 
0

>  <hydroph_interaction:THR:134>  (354) 
0

>  <hydroph_interaction:MET:49>  (354) 
0

$$$$
PV-002998438889
     RDKit          3D

 24 25  0  0  0  0  0  0  0  0999 V2000
   -3.7520    5.2770  -15.6420 C   0  0  0  0  0  0  0  0  0  0  0  0
   -5.2330    5.5210  -15.8530 C   0  0  0  0  0  0  0  0  0  0  0  0
   -6.1070    5.8330  -14.6220 C   0  0  0  0  0  0  0  0  0  0  0  0
   -5.8240    5.4410  -17.2630 C   0  0  0  0  0  0  0  0  0  0  0  0
   -4.9020    5.5850  -18.2500 N   0  0  0  0  0  0  0  0  0  0  0  0
   -5.3510    5.5160  -19.5140 C   0  0  0  0  0  0  0  0  0  0  0  0
   -6.6850    5.3090  -19.8470 C   0  0  0  0  0  0  0  0  0  0  0  0
   -7.6330    5.1630  -18.8320 C   0  0  0  0  0  0  0  0  0  0  0  0
   -8.9870    4.9470  -19.1290 C   0  0  0  0  0  0  0  0  0  0  0  0
   -9.9150    4.8040  -18.1050 C   0  0  0  0  0  0  0  0  0  0  0  0
  -11.1960    4.6030  -18.3940 F   0  0  0  0  0  0  0  0  0  0  0  0
   -9.4960    4.8740  -16.7840 C   0  0  0  0  0  0  0  0  0  0  0  0
   -8.1650    5.0830  -16.4670 C   0  0  0  0  0  0  0  0  0  0  0  0
   -7.2030    5.2310  -17.4860 C   0  0  0  0  0  0  0  0  0  0  0  0
   -3.0900    5.0440  -16.4860 H   0  0  0  0  0  0  0  0  0  0  0  0
   -3.3040    5.3240  -14.6460 H   0  0  0  0  0  0  0  0  0  0  0  0
   -5.4760    6.3120  -13.8680 H   0  0  0  0  0  0  0  0  0  0  0  0
   -6.6740    5.0710  -14.1020 H   0  0  0  0  0  0  0  0  0  0  0  0
   -6.8420    6.5920  -14.9140 H   0  0  0  0  0  0  0  0  0  0  0  0
   -4.6030    5.6300  -20.2940 H   0  0  0  0  0  0  0  0  0  0  0  0
   -6.9710    5.2620  -20.8960 H   0  0  0  0  0  0  0  0  0  0  0  0
   -9.3290    4.8910  -20.1630 H   0  0  0  0  0  0  0  0  0  0  0  0
  -10.2850    4.7510  -16.0380 H   0  0  0  0  0  0  0  0  0  0  0  0
   -7.8830    5.1270  -15.4150 H   0  0  0  0  0  0  0  0  0  0  0  0
  1  2  2  3
  2  3  1  0
  2  4  1  0
  4  5  2  0
  5  6  1  0
  6  7  2  0
  7  8  1  0
  8  9  2  0
  9 10  1  0
 10 11  1  0
 10 12  2  0
 12 13  1  0
 13 14  2  0
 14  4  1  0
 14  8  1  0
  1 15  1  0
  1 16  1  0
  3 17  1  0
  3 18  1  0
  3 19  1  0
  6 20  1  0
  7 21  1  0
  9 22  1  0
 12 23  1  0
 13 24  1  0
A    1
 C1 
A    2
 C2 
A    3
 C3 
A    4
 C4 
A    5
 N1 
A    6
 C5 
A    7
 C6 
A    8
 C7 
A    9
 C8 
A   10
 C9 
A   11
 F1 
A   12
 C10
A   13
 C11
A   14
 C12
A   15
 H1 
A   16
 H2 
A   17
 H3 
A   18
 H4 
A   19
 H5 
A   20
 H6 
A   21
 H7 
A   22
 H8 
A   23
 H9 
A   24
 H10
M  END
>  <ref_pdb>  (355) 
x0051_0B

>  <ref_mols>  (355) 
x0727_0B,x0605_0B

>  <original SMILES>  (355) 
[H]C([H])=C(c1nc([H])c([H])c2c([H])c(F)c([H])c([H])c12)C([H])([H])[H]

>  <index>  (355) 
2076

>  <∆∆G>  (355) 
-6.291385

>  <∆G_bound>  (355) 
-6.41463

>  <∆G_unbound>  (355) 
-0.123246

>  <comRMSD>  (355) 
0.521434

>  <N_constrained_atoms>  (355) 
14.0

>  <N_unconstrained_atoms>  (355) 
0.0

>  <runtime>  (355) 
20.30843

>  <LE>  (355) 
0.449385

>  <percent_hybrid>  (355) 
29.0

>  <dist>  (355) 
3.0

>  <ecfp4>  (355) 
0.291667

>  <daylight>  (355) 
0.356436

>  <topodist>  (355) 
1.0

>  <mces>  (355) 
14.0

>  <tdn>  (355) 
0.0

>  <tup>  (355) 
1.0

>  <rdn>  (355) 
0.0

>  <rup>  (355) 
0.0

>  <ldn>  (355) 
0.0

>  <lup>  (355) 
0.0

>  <mut>  (355) 
2.0

>  <maj>  (355) 
2.0

>  <min>  (355) 
0.0

>  <hyb>  (355) 
0.0

>  <sub>  (355) 
0.0

>  <query_index>  (355) 
74.0

>  <max_hit_Tanimoto>  (355) 
0.248629

>  <largest_ring>  (355) 
6

>  <N_interactions_kept>  (355) 
0.0

>  <N_interactions_lost>  (355) 
3.5

>  <interaction_uniqueness_metric>  (355) 
0.047384

>  <ad_hoc_penalty>  (355) 
-7.067729

>  <N_rotatable_bonds>  (355) 
2

>  <N_HA>  (355) 
14

>  <cluster>  (355) 
4315

>  <N_interactions>  (355) 
6

>  <Enamine>  (355) 
1

>  <Mcule>  (355) 
0

>  <N_PAINS>  (355) 
0

>  <UFF_Gibbs>  (355) 
67.238251

>  <strain_per_HA>  (355) 
4.802732

>  <intxn_scored>  (355) 
8.5

>  <saltbridge:HIS:51>  (355) 
0

>  <pistack:HIS:51>  (355) 
0

>  <hydroph_interaction:HIS:51>  (355) 
0

>  <hbond:ALA:132>  (355) 
0

>  <hbond:SER:135>  (355) 
0

>  <hydroph_interaction:TYR:150>  (355) 
1

>  <pistack:TYR:161>  (355) 
1

>  <hydroph_interaction:TYR:161>  (355) 
4

>  <hydroph_interaction:ASP:83>  (355) 
0

>  <hbond:TYR:130>  (355) 
0

>  <hydroph_interaction:ALA:132>  (355) 
0

>  <hbond:HIS:51>  (355) 
0

>  <hbond:ASP:129>  (355) 
0

>  <hbond:TYR:150>  (355) 
0

>  <hbond:GLY:151>  (355) 
0

>  <hbond:TYR:161>  (355) 
0

>  <hydroph_interaction:TYR:130>  (355) 
0

>  <hydroph_interaction:PRO:131>  (355) 
0

>  <hydroph_interaction:ASP:129>  (355) 
0

>  <saltbridge:ASP:75>  (355) 
0

>  <saltbridge:ASP:83>  (355) 
0

>  <hbond:ASN:152>  (355) 
0

>  <hydroph_interaction:ASN:152>  (355) 
0

>  <halogenbond:TYR:150>  (355) 
0

>  <hbond:ASP:83>  (355) 
0

>  <hydroph_interaction:VAL:155>  (355) 
0

>  <pication:TYR:161>  (355) 
0

>  <hbond:PRO:131>  (355) 
0

>  <saltbridge:ASP:129>  (355) 
0

>  <hbond:THR:134>  (355) 
0

>  <pication:HIS:51>  (355) 
0

>  <hbond:SER:81>  (355) 
0

>  <hydroph_interaction:THR:134>  (355) 
0

>  <hydroph_interaction:MET:49>  (355) 
0

$$$$
CSSB00009842369
     RDKit          3D

 24 25  0  0  0  0  0  0  0  0999 V2000
   -7.6340    5.1490  -13.9950 C   0  0  0  0  0  0  0  0  0  0  0  0
   -7.3370    5.8840  -15.1760 O   0  0  0  0  0  0  0  0  0  0  0  0
   -8.0280    5.5140  -16.3070 C   0  0  0  0  0  0  0  0  0  0  0  0
   -7.3950    5.4320  -17.6850 C   0  0  0  0  0  0  0  0  0  0  0  0
   -6.0320    5.7070  -18.0620 N   0  0  0  0  0  0  0  0  0  0  0  0
   -5.8890    5.4820  -19.5260 C   0  0  0  0  0  0  0  0  0  0  0  0
   -4.5110    5.7170  -20.1360 C   0  0  0  0  0  0  0  0  0  0  0  0
   -3.5670    5.5550  -19.0880 O   0  0  0  0  0  0  0  0  0  0  0  0
   -7.1220    5.0810  -20.0460 C   0  0  0  0  0  0  0  0  0  0  0  0
   -8.0380    5.0680  -18.8430 C   0  0  0  0  0  0  0  0  0  0  0  0
   -9.3880    4.7360  -18.8320 C   0  0  0  0  0  0  0  0  0  0  0  0
  -10.0350    4.7870  -17.6140 C   0  0  0  0  0  0  0  0  0  0  0  0
   -9.3970    5.1560  -16.3880 C   0  0  0  0  0  0  0  0  0  0  0  0
   -7.1560    5.5890  -13.1140 H   0  0  0  0  0  0  0  0  0  0  0  0
   -8.7200    5.1700  -13.8330 H   0  0  0  0  0  0  0  0  0  0  0  0
   -7.3210    4.1030  -14.0720 H   0  0  0  0  0  0  0  0  0  0  0  0
   -5.3150    6.0000  -17.4140 H   0  0  0  0  0  0  0  0  0  0  0  0
   -4.2940    4.9620  -20.8970 H   0  0  0  0  0  0  0  0  0  0  0  0
   -4.3190    6.6850  -20.5910 H   0  0  0  0  0  0  0  0  0  0  0  0
   -4.0700    5.3120  -18.2910 H   0  0  0  0  0  0  0  0  0  0  0  0
   -7.3550    4.8380  -21.0760 H   0  0  0  0  0  0  0  0  0  0  0  0
   -9.8340    4.4610  -19.7850 H   0  0  0  0  0  0  0  0  0  0  0  0
  -11.0870    4.5310  -17.5970 H   0  0  0  0  0  0  0  0  0  0  0  0
  -10.0210    5.1550  -15.4880 H   0  0  0  0  0  0  0  0  0  0  0  0
  1  2  1  0
  2  3  1  0
  3  4  2  0
  4  5  1  0
  5  6  1  0
  6  7  1  0
  7  8  1  0
  6  9  2  0
  9 10  1  0
 10 11  2  0
 11 12  1  0
 12 13  2  0
 13  3  1  0
 10  4  1  0
  1 14  1  0
  1 15  1  0
  1 16  1  0
  5 17  1  0
  7 18  1  0
  7 19  1  0
  8 20  1  0
  9 21  1  0
 11 22  1  0
 12 23  1  0
 13 24  1  0
A    1
 C1 
A    2
 O1 
A    3
 C2 
A    4
 C3 
A    5
 N1 
A    6
 C4 
A    7
 C5 
A    8
 O2 
A    9
 C6 
A   10
 C7 
A   11
 C8 
A   12
 C9 
A   13
 C10
A   14
 H1 
A   15
 H2 
A   16
 H3 
A   17
 H4 
A   18
 H5 
A   19
 H6 
A   20
 H7 
A   21
 H8 
A   22
 H9 
A   23
 H10
A   24
 H11
M  END
>  <ref_pdb>  (356) 
x0051_0B

>  <ref_mols>  (356) 
x0089_0B,x0693_0B

>  <original SMILES>  (356) 
[H]OC([H])([H])c1c([H])c2c([H])c([H])c([H])c(OC([H])([H])[H])c2n1[H]

>  <index>  (356) 
2449

>  <∆∆G>  (356) 
-6.204351

>  <∆G_bound>  (356) 
-6.190182

>  <∆G_unbound>  (356) 
0.014169

>  <comRMSD>  (356) 
0.821054

>  <N_constrained_atoms>  (356) 
14.0

>  <N_unconstrained_atoms>  (356) 
1.0

>  <runtime>  (356) 
19.66757

>  <LE>  (356) 
0.413623

>  <percent_hybrid>  (356) 
34.0

>  <dist>  (356) 
5.0

>  <ecfp4>  (356) 
0.345455

>  <daylight>  (356) 
0.436508

>  <topodist>  (356) 
4.0

>  <mces>  (356) 
14.0

>  <tdn>  (356) 
4.0

>  <tup>  (356) 
0.0

>  <rdn>  (356) 
0.0

>  <rup>  (356) 
0.0

>  <ldn>  (356) 
0.0

>  <lup>  (356) 
0.0

>  <mut>  (356) 
1.0

>  <maj>  (356) 
1.0

>  <min>  (356) 
0.0

>  <hyb>  (356) 
0.0

>  <sub>  (356) 
1.0

>  <query_index>  (356) 
207.0

>  <max_hit_Tanimoto>  (356) 
0.171779

>  <largest_ring>  (356) 
6

>  <N_interactions_kept>  (356) 
3.5

>  <N_interactions_lost>  (356) 
1.5

>  <interaction_uniqueness_metric>  (356) 
0.034019

>  <ad_hoc_penalty>  (356) 
-1.156203

>  <N_rotatable_bonds>  (356) 
4

>  <N_HA>  (356) 
13

>  <cluster>  (356) 
420

>  <N_interactions>  (356) 
3

>  <Enamine>  (356) 
1

>  <Mcule>  (356) 
0

>  <N_PAINS>  (356) 
0

>  <UFF_Gibbs>  (356) 
111.91721

>  <strain_per_HA>  (356) 
8.609016

>  <intxn_scored>  (356) 
8.5

>  <saltbridge:HIS:51>  (356) 
0

>  <pistack:HIS:51>  (356) 
0

>  <hydroph_interaction:HIS:51>  (356) 
0

>  <hbond:ALA:132>  (356) 
0

>  <hbond:SER:135>  (356) 
0

>  <hydroph_interaction:TYR:150>  (356) 
1

>  <pistack:TYR:161>  (356) 
2

>  <hydroph_interaction:TYR:161>  (356) 
0

>  <hydroph_interaction:ASP:83>  (356) 
0

>  <hbond:TYR:130>  (356) 
0

>  <hydroph_interaction:ALA:132>  (356) 
0

>  <hbond:HIS:51>  (356) 
0

>  <hbond:ASP:129>  (356) 
0

>  <hbond:TYR:150>  (356) 
0

>  <hbond:GLY:151>  (356) 
0

>  <hbond:TYR:161>  (356) 
0

>  <hydroph_interaction:TYR:130>  (356) 
0

>  <hydroph_interaction:PRO:131>  (356) 
0

>  <hydroph_interaction:ASP:129>  (356) 
0

>  <saltbridge:ASP:75>  (356) 
0

>  <saltbridge:ASP:83>  (356) 
0

>  <hbond:ASN:152>  (356) 
0

>  <hydroph_interaction:ASN:152>  (356) 
0

>  <halogenbond:TYR:150>  (356) 
0

>  <hbond:ASP:83>  (356) 
0

>  <hydroph_interaction:VAL:155>  (356) 
0

>  <pication:TYR:161>  (356) 
0

>  <hbond:PRO:131>  (356) 
0

>  <saltbridge:ASP:129>  (356) 
0

>  <hbond:THR:134>  (356) 
0

>  <pication:HIS:51>  (356) 
0

>  <hbond:SER:81>  (356) 
0

>  <hydroph_interaction:THR:134>  (356) 
0

>  <hydroph_interaction:MET:49>  (356) 
0

$$$$
Z1494863129
     RDKit          3D

 46 49  0  0  0  0  0  0  0  0999 V2000
   -7.4720    6.6980  -12.2990 O   0  0  0  0  0  0  0  0  0  0  0  0
   -8.4720    6.0700  -11.9680 C   0  0  0  0  0  0  0  0  0  0  0  0
   -9.3980    5.6740  -12.9090 N   0  0  0  0  0  0  0  0  0  0  0  0
   -9.0050    4.8730  -14.0560 C   0  0  0  0  0  0  0  0  0  0  0  0
   -8.0420    5.4950  -15.0870 C   0  0  0  0  0  0  0  0  0  0  0  0
   -6.5490    5.1520  -14.9070 C   0  0  0  0  0  0  0  0  0  0  0  0
   -5.7010    5.9470  -15.9400 C   0  0  0  0  0  0  0  0  0  0  0  0
   -6.0660    5.7020  -17.4040 C   0  0  0  0  0  0  0  0  0  0  0  0
   -7.5460    5.3270  -17.6170 C   0  0  0  0  0  0  0  0  0  0  0  0
   -7.9570    5.0900  -18.9270 C   0  0  0  0  0  0  0  0  0  0  0  0
   -9.2700    4.7430  -19.2030 C   0  0  0  0  0  0  0  0  0  0  0  0
  -10.1650    4.6320  -18.1560 C   0  0  0  0  0  0  0  0  0  0  0  0
   -9.7520    4.8680  -16.8390 C   0  0  0  0  0  0  0  0  0  0  0  0
   -8.4640    5.2210  -16.5370 C   0  0  0  0  0  0  0  0  0  0  0  0
   -8.6770    5.7540  -10.5510 C   0  0  0  0  0  0  0  0  0  0  0  0
   -8.8790    4.5290   -9.7490 C   0  0  0  0  0  0  0  0  0  0  0  0
   -8.9320    3.1120  -10.2830 C   0  0  0  0  0  0  0  0  0  0  0  0
   -8.6290    2.2300   -9.0790 C   0  0  0  0  0  0  0  0  0  0  0  0
   -9.5560    2.5660   -7.9090 C   0  0  0  0  0  0  0  0  0  0  0  0
   -9.2120    3.9480   -7.3560 C   0  0  0  0  0  0  0  0  0  0  0  0
   -9.0010    4.8820   -8.4490 N   0  0  0  0  0  0  0  0  0  0  0  0
   -8.9050    6.2060   -8.2640 N   0  0  0  0  0  0  0  0  0  0  0  0
   -8.7170    6.7220   -9.5060 C   0  0  0  0  0  0  0  0  0  0  0  0
  -10.3950    5.6880  -12.6830 H   0  0  0  0  0  0  0  0  0  0  0  0
   -9.9530    4.6360  -14.5500 H   0  0  0  0  0  0  0  0  0  0  0  0
   -8.5850    3.9370  -13.6660 H   0  0  0  0  0  0  0  0  0  0  0  0
   -8.1310    6.5840  -14.9670 H   0  0  0  0  0  0  0  0  0  0  0  0
   -6.2160    5.3680  -13.8860 H   0  0  0  0  0  0  0  0  0  0  0  0
   -6.3850    4.0850  -15.0600 H   0  0  0  0  0  0  0  0  0  0  0  0
   -5.7390    7.0270  -15.7460 H   0  0  0  0  0  0  0  0  0  0  0  0
   -4.6500    5.6630  -15.7930 H   0  0  0  0  0  0  0  0  0  0  0  0
   -5.8110    6.5970  -17.9830 H   0  0  0  0  0  0  0  0  0  0  0  0
   -5.4500    4.8870  -17.8050 H   0  0  0  0  0  0  0  0  0  0  0  0
   -7.2520    5.1740  -19.7490 H   0  0  0  0  0  0  0  0  0  0  0  0
   -9.5790    4.5650  -20.2290 H   0  0  0  0  0  0  0  0  0  0  0  0
  -11.1990    4.3620  -18.3570 H   0  0  0  0  0  0  0  0  0  0  0  0
  -10.4820    4.7660  -16.0540 H   0  0  0  0  0  0  0  0  0  0  0  0
   -8.2000    2.9600  -11.0840 H   0  0  0  0  0  0  0  0  0  0  0  0
   -9.9320    2.8820  -10.6720 H   0  0  0  0  0  0  0  0  0  0  0  0
   -8.7210    1.1890   -9.3530 H   0  0  0  0  0  0  0  0  0  0  0  0
   -7.5900    2.3870   -8.7810 H   0  0  0  0  0  0  0  0  0  0  0  0
  -10.6010    2.5430   -8.2290 H   0  0  0  0  0  0  0  0  0  0  0  0
   -9.4420    1.8110   -7.1260 H   0  0  0  0  0  0  0  0  0  0  0  0
   -8.2830    3.9170   -6.7780 H   0  0  0  0  0  0  0  0  0  0  0  0
  -10.0200    4.3280   -6.7210 H   0  0  0  0  0  0  0  0  0  0  0  0
   -8.6140    7.7950   -9.6090 H   0  0  0  0  0  0  0  0  0  0  0  0
  1  2  2  0
  2  3  1  0
  3  4  1  0
  4  5  1  0
  5  6  1  0
  6  7  1  0
  7  8  1  0
  8  9  1  0
  9 10  2  0
 10 11  1  0
 11 12  2  0
 12 13  1  0
 13 14  2  0
  2 15  1  0
 15 16  2  0
 16 17  1  0
 17 18  1  0
 18 19  1  0
 19 20  1  0
 20 21  1  0
 21 22  1  0
 22 23  2  0
 14  5  1  0
 14  9  1  0
 23 15  1  0
 21 16  1  0
  3 24  1  0
  4 25  1  0
  4 26  1  0
  5 27  1  0
  6 28  1  0
  6 29  1  0
  7 30  1  0
  7 31  1  0
  8 32  1  0
  8 33  1  0
 10 34  1  0
 11 35  1  0
 12 36  1  0
 13 37  1  0
 17 38  1  0
 17 39  1  0
 18 40  1  0
 18 41  1  0
 19 42  1  0
 19 43  1  0
 20 44  1  0
 20 45  1  0
 23 46  1  0
A    1
 O1 
A    2
 C1 
A    3
 N1 
A    4
 C2 
A    5
 C3 
A    6
 C4 
A    7
 C5 
A    8
 C6 
A    9
 C7 
A   10
 C8 
A   11
 C9 
A   12
 C10
A   13
 C11
A   14
 C12
A   15
 C13
A   16
 C14
A   17
 C15
A   18
 C16
A   19
 C17
A   20
 C18
A   21
 N2 
A   22
 N3 
A   23
 C19
A   24
 H1 
A   25
 H2 
A   26
 H3 
A   27
 H4 
A   28
 H5 
A   29
 H6 
A   30
 H7 
A   31
 H8 
A   32
 H9 
A   33
 H10
A   34
 H11
A   35
 H12
A   36
 H13
A   37
 H14
A   38
 H15
A   39
 H16
A   40
 H17
A   41
 H18
A   42
 H19
A   43
 H20
A   44
 H21
A   45
 H22
A   46
 H23
M  END
>  <ref_pdb>  (357) 
x0051_0B

>  <ref_mols>  (357) 
x0969_1B,x0455_0B

>  <original SMILES>  (357) 
[H]c1nn2c(c1C(=O)N([H])C([H])([H])C1([H])c3c([H])c([H])c([H])c([H])c3C([H])([H])C([H])([H])C1([H])[H])C([H])([H])C([H])([H])C([H])([H])C2([H])[H]

>  <index>  (357) 
32

>  <∆∆G>  (357) 
-7.809806

>  <∆G_bound>  (357) 
-6.94656

>  <∆G_unbound>  (357) 
0.863246

>  <comRMSD>  (357) 
0.321325

>  <N_constrained_atoms>  (357) 
20.0

>  <N_unconstrained_atoms>  (357) 
3.0

>  <runtime>  (357) 
71.186615

>  <LE>  (357) 
0.339557

>  <percent_hybrid>  (357) 
50.0

>  <dist>  (357) 
6.0

>  <ecfp4>  (357) 
0.235294

>  <daylight>  (357) 
0.260504

>  <topodist>  (357) 
1.0

>  <mces>  (357) 
25.0

>  <tdn>  (357) 
0.0

>  <tup>  (357) 
1.0

>  <rdn>  (357) 
0.0

>  <rup>  (357) 
0.0

>  <ldn>  (357) 
0.0

>  <lup>  (357) 
0.0

>  <mut>  (357) 
4.0

>  <maj>  (357) 
4.0

>  <min>  (357) 
0.0

>  <hyb>  (357) 
1.0

>  <sub>  (357) 
0.0

>  <query_index>  (357) 
204.0

>  <max_hit_Tanimoto>  (357) 
0.315934

>  <largest_ring>  (357) 
0

>  <N_interactions_kept>  (357) 
2.0

>  <N_interactions_lost>  (357) 
0.5

>  <interaction_uniqueness_metric>  (357) 
0.214959

>  <ad_hoc_penalty>  (357) 
-37.554466

>  <N_rotatable_bonds>  (357) 
3

>  <N_HA>  (357) 
23

>  <cluster>  (357) 
6187

>  <N_interactions>  (357) 
5

>  <Enamine>  (357) 
1

>  <Mcule>  (357) 
0

>  <N_PAINS>  (357) 
0

>  <UFF_Gibbs>  (357) 
91.771544

>  <strain_per_HA>  (357) 
3.990067

>  <intxn_scored>  (357) 
8.5

>  <saltbridge:HIS:51>  (357) 
0

>  <pistack:HIS:51>  (357) 
1

>  <hydroph_interaction:HIS:51>  (357) 
0

>  <hbond:ALA:132>  (357) 
0

>  <hbond:SER:135>  (357) 
0

>  <hydroph_interaction:TYR:150>  (357) 
1

>  <pistack:TYR:161>  (357) 
1

>  <hydroph_interaction:TYR:161>  (357) 
0

>  <hydroph_interaction:ASP:83>  (357) 
1

>  <hbond:TYR:130>  (357) 
0

>  <hydroph_interaction:ALA:132>  (357) 
0

>  <hbond:HIS:51>  (357) 
1

>  <hbond:ASP:129>  (357) 
0

>  <hbond:TYR:150>  (357) 
0

>  <hbond:GLY:151>  (357) 
0

>  <hbond:TYR:161>  (357) 
0

>  <hydroph_interaction:TYR:130>  (357) 
0

>  <hydroph_interaction:PRO:131>  (357) 
0

>  <hydroph_interaction:ASP:129>  (357) 
0

>  <saltbridge:ASP:75>  (357) 
0

>  <saltbridge:ASP:83>  (357) 
0

>  <hbond:ASN:152>  (357) 
0

>  <hydroph_interaction:ASN:152>  (357) 
0

>  <halogenbond:TYR:150>  (357) 
0

>  <hbond:ASP:83>  (357) 
0

>  <hydroph_interaction:VAL:155>  (357) 
0

>  <pication:TYR:161>  (357) 
0

>  <hbond:PRO:131>  (357) 
0

>  <saltbridge:ASP:129>  (357) 
0

>  <hbond:THR:134>  (357) 
0

>  <pication:HIS:51>  (357) 
0

>  <hbond:SER:81>  (357) 
0

>  <hydroph_interaction:THR:134>  (357) 
0

>  <hydroph_interaction:MET:49>  (357) 
0

$$$$
Z2589615990
     RDKit          3D

 43 46  0  0  0  0  0  0  0  0999 V2000
   -9.6850    4.8390  -18.7000 C   0  0  0  0  0  0  0  0  0  0  0  0
   -8.8970    5.1460  -17.4510 C   0  0  0  0  0  0  0  0  0  0  0  0
   -7.5480    5.5630  -17.4150 C   0  0  0  0  0  0  0  0  0  0  0  0
   -6.6700    5.8020  -18.4650 C   0  0  0  0  0  0  0  0  0  0  0  0
   -5.4170    5.2160  -18.4290 C   0  0  0  0  0  0  0  0  0  0  0  0
   -4.5100    5.4510  -19.4570 C   0  0  0  0  0  0  0  0  0  0  0  0
   -4.8350    6.2710  -20.5310 C   0  0  0  0  0  0  0  0  0  0  0  0
   -6.0950    6.8660  -20.5690 C   0  0  0  0  0  0  0  0  0  0  0  0
   -6.9860    6.6200  -19.5410 C   0  0  0  0  0  0  0  0  0  0  0  0
   -7.0530    5.7530  -16.1540 N   0  0  0  0  0  0  0  0  0  0  0  0
   -7.9600    5.5080  -15.2520 C   0  0  0  0  0  0  0  0  0  0  0  0
   -7.5960    5.6390  -13.7730 C   0  0  0  0  0  0  0  0  0  0  0  0
   -8.6390    5.1790  -12.8570 N   0  0  0  0  0  0  0  0  0  0  0  0
   -8.8340    6.2350  -11.8610 C   0  0  0  0  0  0  0  0  0  0  0  0
   -8.8940    5.7850  -10.4460 C   0  0  0  0  0  0  0  0  0  0  0  0
   -9.0400    4.5470   -9.8570 C   0  0  0  0  0  0  0  0  0  0  0  0
   -9.2020    3.0410  -10.0890 C   0  0  0  0  0  0  0  0  0  0  0  0
   -9.4040    2.4210   -8.7160 C   0  0  0  0  0  0  0  0  0  0  0  0
   -9.2230    3.5720   -7.6860 C   0  0  0  0  0  0  0  0  0  0  0  0
   -9.0460    4.7600   -8.5170 N   0  0  0  0  0  0  0  0  0  0  0  0
   -8.8970    6.0200   -8.1370 N   0  0  0  0  0  0  0  0  0  0  0  0
   -8.8040    6.6530   -9.3170 C   0  0  0  0  0  0  0  0  0  0  0  0
   -9.5020    5.0520  -15.8550 S   0  0  0  0  0  0  0  0  0  0  0  0
   -9.2820    5.3530  -19.5750 H   0  0  0  0  0  0  0  0  0  0  0  0
  -10.7390    5.1100  -18.5600 H   0  0  0  0  0  0  0  0  0  0  0  0
   -9.6420    3.7700  -18.9310 H   0  0  0  0  0  0  0  0  0  0  0  0
   -5.1370    4.5740  -17.5960 H   0  0  0  0  0  0  0  0  0  0  0  0
   -3.5300    4.9840  -19.4160 H   0  0  0  0  0  0  0  0  0  0  0  0
   -4.1180    6.4470  -21.3250 H   0  0  0  0  0  0  0  0  0  0  0  0
   -6.3770    7.5130  -21.3980 H   0  0  0  0  0  0  0  0  0  0  0  0
   -7.9370    7.0810  -19.6000 H   0  0  0  0  0  0  0  0  0  0  0  0
   -6.6700    5.0880  -13.5730 H   0  0  0  0  0  0  0  0  0  0  0  0
   -7.3830    6.7020  -13.6010 H   0  0  0  0  0  0  0  0  0  0  0  0
   -8.2780    4.3450  -12.3860 H   0  0  0  0  0  0  0  0  0  0  0  0
   -8.0650    7.0070  -11.9750 H   0  0  0  0  0  0  0  0  0  0  0  0
   -9.7800    6.7340  -12.0900 H   0  0  0  0  0  0  0  0  0  0  0  0
  -10.0370    2.7970  -10.7460 H   0  0  0  0  0  0  0  0  0  0  0  0
   -8.2890    2.6340  -10.5380 H   0  0  0  0  0  0  0  0  0  0  0  0
  -10.4310    2.0490   -8.6410 H   0  0  0  0  0  0  0  0  0  0  0  0
   -8.7460    1.5730   -8.5330 H   0  0  0  0  0  0  0  0  0  0  0  0
  -10.1230    3.7210   -7.0880 H   0  0  0  0  0  0  0  0  0  0  0  0
   -8.3600    3.4430   -7.0450 H   0  0  0  0  0  0  0  0  0  0  0  0
   -8.6780    7.7280   -9.3220 H   0  0  0  0  0  0  0  0  0  0  0  0
  1  2  1  0
  2  3  2  0
  3  4  1  0
  4  5  2  0
  5  6  1  0
  6  7  2  0
  7  8  1  0
  8  9  2  0
  3 10  1  0
 10 11  2  0
 11 12  1  0
 12 13  1  0
 13 14  1  0
 14 15  1  0
 15 16  2  0
 16 17  1  0
 17 18  1  0
 18 19  1  0
 19 20  1  0
 20 21  1  0
 21 22  2  0
 11 23  1  0
 23  2  1  0
  9  4  1  0
 22 15  1  0
 20 16  1  0
  1 24  1  0
  1 25  1  0
  1 26  1  0
  5 27  1  0
  6 28  1  0
  7 29  1  0
  8 30  1  0
  9 31  1  0
 12 32  1  0
 12 33  1  0
 13 34  1  0
 14 35  1  0
 14 36  1  0
 17 37  1  0
 17 38  1  0
 18 39  1  0
 18 40  1  0
 19 41  1  0
 19 42  1  0
 22 43  1  0
A    1
 C1 
A    2
 C2 
A    3
 C3 
A    4
 C4 
A    5
 C5 
A    6
 C6 
A    7
 C7 
A    8
 C8 
A    9
 C9 
A   10
 N1 
A   11
 C10
A   12
 C11
A   13
 N2 
A   14
 C12
A   15
 C13
A   16
 C14
A   17
 C15
A   18
 C16
A   19
 C17
A   20
 N3 
A   21
 N4 
A   22
 C18
A   23
 S1 
A   24
 H1 
A   25
 H2 
A   26
 H3 
A   27
 H4 
A   28
 H5 
A   29
 H6 
A   30
 H7 
A   31
 H8 
A   32
 H9 
A   33
 H10
A   34
 H11
A   35
 H12
A   36
 H13
A   37
 H14
A   38
 H15
A   39
 H16
A   40
 H17
A   41
 H18
A   42
 H19
A   43
 H20
M  END
>  <ref_pdb>  (358) 
x0051_0B

>  <ref_mols>  (358) 
x0969_1B,x0803_0B

>  <original SMILES>  (358) 
[H]c1nn2c(c1C([H])([H])N([H])C([H])([H])c1nc(-c3c([H])c([H])c([H])c([H])c3[H])c(C([H])([H])[H])s1)C([H])([H])C([H])([H])C2([H])[H]

>  <index>  (358) 
1738

>  <∆∆G>  (358) 
-7.204501

>  <∆G_bound>  (358) 
-7.000084

>  <∆G_unbound>  (358) 
0.204417

>  <comRMSD>  (358) 
0.581947

>  <N_constrained_atoms>  (358) 
22.0

>  <N_unconstrained_atoms>  (358) 
2.0

>  <runtime>  (358) 
83.390056

>  <LE>  (358) 
0.300188

>  <percent_hybrid>  (358) 
46.0

>  <dist>  (358) 
11.0

>  <ecfp4>  (358) 
0.246914

>  <daylight>  (358) 
0.279202

>  <topodist>  (358) 
1.0

>  <mces>  (358) 
26.0

>  <tdn>  (358) 
0.0

>  <tup>  (358) 
0.0

>  <rdn>  (358) 
0.0

>  <rup>  (358) 
0.0

>  <ldn>  (358) 
1.0

>  <lup>  (358) 
0.0

>  <mut>  (358) 
5.0

>  <maj>  (358) 
5.0

>  <min>  (358) 
0.0

>  <hyb>  (358) 
5.0

>  <sub>  (358) 
0.0

>  <query_index>  (358) 
360.0

>  <max_hit_Tanimoto>  (358) 
0.314338

>  <largest_ring>  (358) 
6

>  <N_interactions_kept>  (358) 
3.0

>  <N_interactions_lost>  (358) 
3.0

>  <interaction_uniqueness_metric>  (358) 
0.104187

>  <ad_hoc_penalty>  (358) 
-12.122539

>  <N_rotatable_bonds>  (358) 
6

>  <N_HA>  (358) 
23

>  <cluster>  (358) 
4625

>  <N_interactions>  (358) 
7

>  <Enamine>  (358) 
1

>  <Mcule>  (358) 
0

>  <N_PAINS>  (358) 
0

>  <UFF_Gibbs>  (358) 
52.64813

>  <strain_per_HA>  (358) 
2.289049

>  <intxn_scored>  (358) 
8.5

>  <saltbridge:HIS:51>  (358) 
0

>  <pistack:HIS:51>  (358) 
0

>  <hydroph_interaction:HIS:51>  (358) 
1

>  <hbond:ALA:132>  (358) 
0

>  <hbond:SER:135>  (358) 
0

>  <hydroph_interaction:TYR:150>  (358) 
1

>  <pistack:TYR:161>  (358) 
1

>  <hydroph_interaction:TYR:161>  (358) 
3

>  <hydroph_interaction:ASP:83>  (358) 
0

>  <hbond:TYR:130>  (358) 
0

>  <hydroph_interaction:ALA:132>  (358) 
1

>  <hbond:HIS:51>  (358) 
0

>  <hbond:ASP:129>  (358) 
0

>  <hbond:TYR:150>  (358) 
0

>  <hbond:GLY:151>  (358) 
0

>  <hbond:TYR:161>  (358) 
0

>  <hydroph_interaction:TYR:130>  (358) 
0

>  <hydroph_interaction:PRO:131>  (358) 
0

>  <hydroph_interaction:ASP:129>  (358) 
0

>  <saltbridge:ASP:75>  (358) 
0

>  <saltbridge:ASP:83>  (358) 
0

>  <hbond:ASN:152>  (358) 
0

>  <hydroph_interaction:ASN:152>  (358) 
0

>  <halogenbond:TYR:150>  (358) 
0

>  <hbond:ASP:83>  (358) 
0

>  <hydroph_interaction:VAL:155>  (358) 
0

>  <pication:TYR:161>  (358) 
0

>  <hbond:PRO:131>  (358) 
0

>  <saltbridge:ASP:129>  (358) 
0

>  <hbond:THR:134>  (358) 
0

>  <pication:HIS:51>  (358) 
0

>  <hbond:SER:81>  (358) 
0

>  <hydroph_interaction:THR:134>  (358) 
0

>  <hydroph_interaction:MET:49>  (358) 
0

$$$$
CSSS00000004229
     RDKit          3D

 30 31  0  0  0  0  0  0  0  0999 V2000
   -2.5300    4.9290  -22.2330 C   0  0  0  0  0  0  0  0  0  0  0  0
   -3.7230    5.6640  -21.9760 O   0  0  0  0  0  0  0  0  0  0  0  0
   -4.1460    5.4500  -20.6310 C   0  0  0  0  0  0  0  0  0  0  0  0
   -3.3870    5.1450  -19.7200 O   0  0  0  0  0  0  0  0  0  0  0  0
   -5.4980    5.6340  -20.5070 N   0  0  0  0  0  0  0  0  0  0  0  0
   -5.8970    5.5980  -19.2340 N   0  0  0  0  0  0  0  0  0  0  0  0
   -7.1110    5.3370  -18.7470 C   0  0  0  0  0  0  0  0  0  0  0  0
   -8.2650    5.0510  -19.4790 C   0  0  0  0  0  0  0  0  0  0  0  0
   -9.3980    4.6290  -18.7760 C   0  0  0  0  0  0  0  0  0  0  0  0
   -9.5850    4.9900  -17.3300 C   0  0  0  0  0  0  0  0  0  0  0  0
   -8.3850    5.1760  -16.6480 C   0  0  0  0  0  0  0  0  0  0  0  0
   -8.4820    5.1750  -15.1330 C   0  0  0  0  0  0  0  0  0  0  0  0
   -7.2240    5.3650  -14.2920 C   0  0  0  0  0  0  0  0  0  0  0  0
   -5.9100    5.5560  -15.0620 C   0  0  0  0  0  0  0  0  0  0  0  0
   -5.8720    5.5490  -16.5760 C   0  0  0  0  0  0  0  0  0  0  0  0
   -7.1880    5.3470  -17.2990 C   0  0  0  0  0  0  0  0  0  0  0  0
   -1.7730    5.2030  -21.4920 H   0  0  0  0  0  0  0  0  0  0  0  0
   -2.1500    5.1370  -23.2380 H   0  0  0  0  0  0  0  0  0  0  0  0
   -2.7170    3.8510  -22.1710 H   0  0  0  0  0  0  0  0  0  0  0  0
   -6.0320    5.1370  -21.2160 H   0  0  0  0  0  0  0  0  0  0  0  0
   -8.0750    4.5080  -20.4060 H   0  0  0  0  0  0  0  0  0  0  0  0
   -8.5410    6.0420  -19.8260 H   0  0  0  0  0  0  0  0  0  0  0  0
  -10.2680    5.0110  -19.3230 H   0  0  0  0  0  0  0  0  0  0  0  0
   -9.4620    3.5370  -18.8630 H   0  0  0  0  0  0  0  0  0  0  0  0
  -10.3040    5.7660  -17.1180 H   0  0  0  0  0  0  0  0  0  0  0  0
  -10.0360    4.1190  -16.8720 H   0  0  0  0  0  0  0  0  0  0  0  0
   -9.4430    5.0370  -14.6390 H   0  0  0  0  0  0  0  0  0  0  0  0
   -7.2570    5.3660  -13.2000 H   0  0  0  0  0  0  0  0  0  0  0  0
   -4.9870    5.6960  -14.5070 H   0  0  0  0  0  0  0  0  0  0  0  0
   -4.9310    5.6830  -17.1040 H   0  0  0  0  0  0  0  0  0  0  0  0
  1  2  1  0
  2  3  1  0
  3  4  2  0
  3  5  1  0
  5  6  1  0
  6  7  2  0
  7  8  1  0
  8  9  1  0
  9 10  1  0
 10 11  1  0
 11 12  2  0
 12 13  1  0
 13 14  2  0
 14 15  1  0
 15 16  2  0
 16  7  1  0
 16 11  1  0
  1 17  1  0
  1 18  1  0
  1 19  1  0
  5 20  1  0
  8 21  1  0
  8 22  1  0
  9 23  1  0
  9 24  1  0
 10 25  1  0
 10 26  1  0
 12 27  1  0
 13 28  1  0
 14 29  1  0
 15 30  1  0
A    1
 C1 
A    2
 O1 
A    3
 C2 
A    4
 O2 
A    5
 N1 
A    6
 N2 
A    7
 C3 
A    8
 C4 
A    9
 C5 
A   10
 C6 
A   11
 C7 
A   12
 C8 
A   13
 C9 
A   14
 C10
A   15
 C11
A   16
 C12
A   17
 H1 
A   18
 H2 
A   19
 H3 
A   20
 H4 
A   21
 H5 
A   22
 H6 
A   23
 H7 
A   24
 H8 
A   25
 H9 
A   26
 H10
A   27
 H11
A   28
 H12
A   29
 H13
A   30
 H14
M  END
>  <ref_pdb>  (359) 
x0051_0B

>  <ref_mols>  (359) 
x0904_0B,x0455_0B

>  <original SMILES>  (359) 
[H]c1c([H])c([H])c2c(c1[H])/C(=N\N([H])C(=O)OC([H])([H])[H])C([H])([H])C([H])([H])C2([H])[H]

>  <index>  (359) 
1365

>  <∆∆G>  (359) 
-5.887579

>  <∆G_bound>  (359) 
-5.239729

>  <∆G_unbound>  (359) 
0.64785

>  <comRMSD>  (359) 
0.651577

>  <N_constrained_atoms>  (359) 
17.0

>  <N_unconstrained_atoms>  (359) 
0.0

>  <runtime>  (359) 
40.559664

>  <LE>  (359) 
0.346328

>  <percent_hybrid>  (359) 
37.0

>  <dist>  (359) 
9.0

>  <ecfp4>  (359) 
0.136364

>  <daylight>  (359) 
0.127551

>  <topodist>  (359) 
1.0

>  <mces>  (359) 
17.0

>  <tdn>  (359) 
1.0

>  <tup>  (359) 
0.0

>  <rdn>  (359) 
0.0

>  <rup>  (359) 
0.0

>  <ldn>  (359) 
0.0

>  <lup>  (359) 
0.0

>  <mut>  (359) 
4.0

>  <maj>  (359) 
4.0

>  <min>  (359) 
0.0

>  <hyb>  (359) 
4.0

>  <sub>  (359) 
0.0

>  <query_index>  (359) 
160.0

>  <max_hit_Tanimoto>  (359) 
0.154472

>  <largest_ring>  (359) 
6

>  <N_interactions_kept>  (359) 
0.5

>  <N_interactions_lost>  (359) 
2.5

>  <interaction_uniqueness_metric>  (359) 
0.066244

>  <ad_hoc_penalty>  (359) 
-9.237757

>  <N_rotatable_bonds>  (359) 
2

>  <N_HA>  (359) 
16

>  <cluster>  (359) 
4967

>  <N_interactions>  (359) 
5

>  <Enamine>  (359) 
1

>  <Mcule>  (359) 
0

>  <N_PAINS>  (359) 
0

>  <UFF_Gibbs>  (359) 
116.869352

>  <strain_per_HA>  (359) 
7.304334

>  <intxn_scored>  (359) 
8.5

>  <saltbridge:HIS:51>  (359) 
0

>  <pistack:HIS:51>  (359) 
0

>  <hydroph_interaction:HIS:51>  (359) 
0

>  <hbond:ALA:132>  (359) 
0

>  <hbond:SER:135>  (359) 
0

>  <hydroph_interaction:TYR:150>  (359) 
1

>  <pistack:TYR:161>  (359) 
1

>  <hydroph_interaction:TYR:161>  (359) 
2

>  <hydroph_interaction:ASP:83>  (359) 
0

>  <hbond:TYR:130>  (359) 
1

>  <hydroph_interaction:ALA:132>  (359) 
0

>  <hbond:HIS:51>  (359) 
0

>  <hbond:ASP:129>  (359) 
0

>  <hbond:TYR:150>  (359) 
0

>  <hbond:GLY:151>  (359) 
0

>  <hbond:TYR:161>  (359) 
0

>  <hydroph_interaction:TYR:130>  (359) 
0

>  <hydroph_interaction:PRO:131>  (359) 
0

>  <hydroph_interaction:ASP:129>  (359) 
0

>  <saltbridge:ASP:75>  (359) 
0

>  <saltbridge:ASP:83>  (359) 
0

>  <hbond:ASN:152>  (359) 
0

>  <hydroph_interaction:ASN:152>  (359) 
0

>  <halogenbond:TYR:150>  (359) 
0

>  <hbond:ASP:83>  (359) 
0

>  <hydroph_interaction:VAL:155>  (359) 
0

>  <pication:TYR:161>  (359) 
0

>  <hbond:PRO:131>  (359) 
0

>  <saltbridge:ASP:129>  (359) 
0

>  <hbond:THR:134>  (359) 
0

>  <pication:HIS:51>  (359) 
0

>  <hbond:SER:81>  (359) 
0

>  <hydroph_interaction:THR:134>  (359) 
0

>  <hydroph_interaction:MET:49>  (359) 
0

$$$$
Z1953200731
     RDKit          3D

 48 52  0  0  0  0  0  0  0  0999 V2000
   -5.5790    5.2590  -21.8880 O   0  0  0  0  0  0  0  0  0  0  0  0
   -5.2030    6.3710  -21.5400 C   0  0  0  0  0  0  0  0  0  0  0  0
   -4.4560    6.6120  -20.3310 N   0  0  0  0  0  0  0  0  0  0  0  0
   -4.4630    5.7920  -19.2480 C   0  0  0  0  0  0  0  0  0  0  0  0
   -5.7890    5.5470  -18.8780 C   0  0  0  0  0  0  0  0  0  0  0  0
   -6.8700    5.2970  -19.6600 N   0  0  0  0  0  0  0  0  0  0  0  0
   -7.9530    5.1290  -18.8630 C   0  0  0  0  0  0  0  0  0  0  0  0
   -9.2410    4.8590  -19.3310 C   0  0  0  0  0  0  0  0  0  0  0  0
  -10.1870    4.7350  -18.1570 C   0  0  0  0  0  0  0  0  0  0  0  0
   -9.6220    4.9090  -16.7350 C   0  0  0  0  0  0  0  0  0  0  0  0
   -8.3350    5.1720  -16.4300 N   0  0  0  0  0  0  0  0  0  0  0  0
   -7.5740    5.2660  -17.5300 C   0  0  0  0  0  0  0  0  0  0  0  0
   -6.2130    5.5280  -17.5600 N   0  0  0  0  0  0  0  0  0  0  0  0
   -5.4800    7.5530  -22.3520 C   0  0  0  0  0  0  0  0  0  0  0  0
   -6.1300    7.4130  -23.5830 C   0  0  0  0  0  0  0  0  0  0  0  0
   -6.3970    8.5070  -24.3650 C   0  0  0  0  0  0  0  0  0  0  0  0
   -5.9970    9.8790  -23.9210 C   0  0  0  0  0  0  0  0  0  0  0  0
   -6.2840   10.9800  -24.7690 C   0  0  0  0  0  0  0  0  0  0  0  0
   -5.8920   10.5360  -26.4870 S   0  0  0  0  0  0  0  0  0  0  0  0
   -7.2800    9.6610  -27.0100 C   0  0  0  0  0  0  0  0  0  0  0  0
   -7.3480    8.3930  -27.3230 N   0  0  0  0  0  0  0  0  0  0  0  0
   -8.6580    8.1920  -27.6690 C   0  0  0  0  0  0  0  0  0  0  0  0
   -9.3010    7.0360  -28.0800 C   0  0  0  0  0  0  0  0  0  0  0  0
  -10.7810    7.1090  -28.3940 C   0  0  0  0  0  0  0  0  0  0  0  0
  -11.4300    8.3250  -28.2590 C   0  0  0  0  0  0  0  0  0  0  0  0
  -10.7680    9.5360  -27.8370 C   0  0  0  0  0  0  0  0  0  0  0  0
   -9.4080    9.3850  -27.5660 C   0  0  0  0  0  0  0  0  0  0  0  0
   -8.4760   10.2980  -27.1430 N   0  0  0  0  0  0  0  0  0  0  0  0
   -5.3500   10.0450  -22.6960 C   0  0  0  0  0  0  0  0  0  0  0  0
   -5.0740    8.8000  -21.8560 C   0  0  0  0  0  0  0  0  0  0  0  0
   -3.9690    7.4920  -20.2240 H   0  0  0  0  0  0  0  0  0  0  0  0
   -3.9090    6.2610  -18.4220 H   0  0  0  0  0  0  0  0  0  0  0  0
   -3.9510    4.8750  -19.5280 H   0  0  0  0  0  0  0  0  0  0  0  0
   -9.6040    4.7420  -20.3570 H   0  0  0  0  0  0  0  0  0  0  0  0
  -11.2500    4.5260  -18.3090 H   0  0  0  0  0  0  0  0  0  0  0  0
  -10.2740    4.8220  -15.8690 H   0  0  0  0  0  0  0  0  0  0  0  0
   -5.6210    5.6820  -16.7540 H   0  0  0  0  0  0  0  0  0  0  0  0
   -6.4350    6.4360  -23.9420 H   0  0  0  0  0  0  0  0  0  0  0  0
   -6.9040    8.3630  -25.3150 H   0  0  0  0  0  0  0  0  0  0  0  0
   -7.3290   11.2710  -24.6760 H   0  0  0  0  0  0  0  0  0  0  0  0
   -5.6810   11.8430  -24.4640 H   0  0  0  0  0  0  0  0  0  0  0  0
   -8.8300    6.0550  -28.1980 H   0  0  0  0  0  0  0  0  0  0  0  0
  -11.2690    6.1870  -28.7130 H   0  0  0  0  0  0  0  0  0  0  0  0
  -12.4960    8.3720  -28.4840 H   0  0  0  0  0  0  0  0  0  0  0  0
  -11.2950   10.4810  -27.7400 H   0  0  0  0  0  0  0  0  0  0  0  0
   -8.6320   11.2760  -26.9540 H   0  0  0  0  0  0  0  0  0  0  0  0
   -5.0450   11.0270  -22.3410 H   0  0  0  0  0  0  0  0  0  0  0  0
   -4.5700    8.8880  -20.8960 H   0  0  0  0  0  0  0  0  0  0  0  0
  1  2  2  0
  2  3  1  0
  3  4  1  0
  4  5  1  0
  5  6  2  0
  6  7  1  0
  7  8  2  0
  8  9  1  0
  9 10  2  0
 10 11  1  0
 11 12  2  0
 12 13  1  0
  2 14  1  0
 14 15  2  0
 15 16  1  0
 16 17  2  0
 17 18  1  0
 18 19  1  0
 19 20  1  0
 20 21  2  0
 21 22  1  0
 22 23  2  0
 23 24  1  0
 24 25  2  0
 25 26  1  0
 26 27  2  0
 27 28  1  0
 17 29  1  0
 29 30  2  0
 13  5  1  0
 12  7  1  0
 30 14  1  0
 28 20  1  0
 27 22  1  0
  3 31  1  0
  4 32  1  0
  4 33  1  0
  8 34  1  0
  9 35  1  0
 10 36  1  0
 13 37  1  0
 15 38  1  0
 16 39  1  0
 18 40  1  0
 18 41  1  0
 23 42  1  0
 24 43  1  0
 25 44  1  0
 26 45  1  0
 28 46  1  0
 29 47  1  0
 30 48  1  0
A    1
 O1 
A    2
 C1 
A    3
 N1 
A    4
 C2 
A    5
 C3 
A    6
 N2 
A    7
 C4 
A    8
 C5 
A    9
 C6 
A   10
 C7 
A   11
 N3 
A   12
 C8 
A   13
 N4 
A   14
 C9 
A   15
 C10
A   16
 C11
A   17
 C12
A   18
 C13
A   19
 S1 
A   20
 C14
A   21
 N5 
A   22
 C15
A   23
 C16
A   24
 C17
A   25
 C18
A   26
 C19
A   27
 C20
A   28
 N6 
A   29
 C21
A   30
 C22
A   31
 H1 
A   32
 H2 
A   33
 H3 
A   34
 H4 
A   35
 H5 
A   36
 H6 
A   37
 H7 
A   38
 H8 
A   39
 H9 
A   40
 H10
A   41
 H11
A   42
 H12
A   43
 H13
A   44
 H14
A   45
 H15
A   46
 H16
A   47
 H17
A   48
 H18
M  END
>  <ref_pdb>  (360) 
x0051_0B

>  <ref_mols>  (360) 
x0846_1B,x0490_0B

>  <original SMILES>  (360) 
[H]c1nc2c(nc(C([H])([H])N([H])C(=O)c3c([H])c([H])c(C([H])([H])Sc4nc5c([H])c([H])c([H])c([H])c5n4[H])c([H])c3[H])n2[H])c([H])c1[H]

>  <index>  (360) 
1231

>  <∆∆G>  (360) 
-7.837062

>  <∆G_bound>  (360) 
-6.643166

>  <∆G_unbound>  (360) 
1.193896

>  <comRMSD>  (360) 
0.633644

>  <N_constrained_atoms>  (360) 
28.0

>  <N_unconstrained_atoms>  (360) 
3.0

>  <runtime>  (360) 
45.845952

>  <LE>  (360) 
0.252808

>  <percent_hybrid>  (360) 
36.0

>  <dist>  (360) 
8.0

>  <ecfp4>  (360) 
0.193548

>  <daylight>  (360) 
0.269841

>  <topodist>  (360) 
5.0

>  <mces>  (360) 
32.0

>  <tdn>  (360) 
3.0

>  <tup>  (360) 
1.0

>  <rdn>  (360) 
0.0

>  <rup>  (360) 
0.0

>  <ldn>  (360) 
0.0

>  <lup>  (360) 
1.0

>  <mut>  (360) 
3.0

>  <maj>  (360) 
3.0

>  <min>  (360) 
0.0

>  <hyb>  (360) 
0.0

>  <sub>  (360) 
2.0

>  <query_index>  (360) 
51.0

>  <max_hit_Tanimoto>  (360) 
0.273341

>  <largest_ring>  (360) 
6

>  <N_interactions_kept>  (360) 
0.0

>  <N_interactions_lost>  (360) 
3.0

>  <interaction_uniqueness_metric>  (360) 
0.206565

>  <ad_hoc_penalty>  (360) 
-13.813815

>  <N_rotatable_bonds>  (360) 
6

>  <N_HA>  (360) 
30

>  <cluster>  (360) 
5083

>  <N_interactions>  (360) 
7

>  <Enamine>  (360) 
1

>  <Mcule>  (360) 
0

>  <N_PAINS>  (360) 
0

>  <UFF_Gibbs>  (360) 
156.060067

>  <strain_per_HA>  (360) 
5.202002

>  <intxn_scored>  (360) 
8.5

>  <saltbridge:HIS:51>  (360) 
0

>  <pistack:HIS:51>  (360) 
0

>  <hydroph_interaction:HIS:51>  (360) 
0

>  <hbond:ALA:132>  (360) 
0

>  <hbond:SER:135>  (360) 
0

>  <hydroph_interaction:TYR:150>  (360) 
1

>  <pistack:TYR:161>  (360) 
1

>  <hydroph_interaction:TYR:161>  (360) 
1

>  <hydroph_interaction:ASP:83>  (360) 
0

>  <hbond:TYR:130>  (360) 
1

>  <hydroph_interaction:ALA:132>  (360) 
0

>  <hbond:HIS:51>  (360) 
0

>  <hbond:ASP:129>  (360) 
1

>  <hbond:TYR:150>  (360) 
0

>  <hbond:GLY:151>  (360) 
0

>  <hbond:TYR:161>  (360) 
0

>  <hydroph_interaction:TYR:130>  (360) 
1

>  <hydroph_interaction:PRO:131>  (360) 
1

>  <hydroph_interaction:ASP:129>  (360) 
0

>  <saltbridge:ASP:75>  (360) 
0

>  <saltbridge:ASP:83>  (360) 
0

>  <hbond:ASN:152>  (360) 
0

>  <hydroph_interaction:ASN:152>  (360) 
0

>  <halogenbond:TYR:150>  (360) 
0

>  <hbond:ASP:83>  (360) 
0

>  <hydroph_interaction:VAL:155>  (360) 
0

>  <pication:TYR:161>  (360) 
0

>  <hbond:PRO:131>  (360) 
0

>  <saltbridge:ASP:129>  (360) 
0

>  <hbond:THR:134>  (360) 
0

>  <pication:HIS:51>  (360) 
0

>  <hbond:SER:81>  (360) 
0

>  <hydroph_interaction:THR:134>  (360) 
0

>  <hydroph_interaction:MET:49>  (360) 
0

$$$$
CSSS00036402792
     RDKit          3D

 32 34  0  0  0  0  0  0  0  0999 V2000
   -6.5670    5.7100  -14.8610 O   0  0  0  0  0  0  0  0  0  0  0  0
   -7.7570    5.4850  -15.0180 C   0  0  0  0  0  0  0  0  0  0  0  0
   -8.7320    5.4160  -14.0420 N   0  0  0  0  0  0  0  0  0  0  0  0
   -9.1780    6.4830  -13.2410 C   0  0  0  0  0  0  0  0  0  0  0  0
  -10.0850    7.5140  -13.9180 C   0  0  0  0  0  0  0  0  0  0  0  0
  -10.5420    8.6660  -13.0060 C   0  0  0  0  0  0  0  0  0  0  0  0
  -10.1330    8.7120  -11.6740 C   0  0  0  0  0  0  0  0  0  0  0  0
   -9.3050    7.7230  -11.1350 C   0  0  0  0  0  0  0  0  0  0  0  0
   -8.8410    6.6380  -11.8960 C   0  0  0  0  0  0  0  0  0  0  0  0
   -8.2410    5.2640  -16.4040 C   0  0  0  0  0  0  0  0  0  0  0  0
   -9.5720    4.9570  -16.5480 C   0  0  0  0  0  0  0  0  0  0  0  0
  -10.1080    4.7340  -17.8130 C   0  0  0  0  0  0  0  0  0  0  0  0
   -9.2910    4.8130  -18.9310 C   0  0  0  0  0  0  0  0  0  0  0  0
   -7.9350    5.1240  -18.8040 C   0  0  0  0  0  0  0  0  0  0  0  0
   -7.1300    5.1990  -19.9440 C   0  0  0  0  0  0  0  0  0  0  0  0
   -5.7830    5.5120  -19.8510 C   0  0  0  0  0  0  0  0  0  0  0  0
   -5.2170    5.7540  -18.6100 C   0  0  0  0  0  0  0  0  0  0  0  0
   -6.0020    5.6760  -17.4610 C   0  0  0  0  0  0  0  0  0  0  0  0
   -7.3790    5.3610  -17.5260 C   0  0  0  0  0  0  0  0  0  0  0  0
   -9.2940    4.5690  -14.0270 H   0  0  0  0  0  0  0  0  0  0  0  0
  -10.3930    7.4570  -14.9590 H   0  0  0  0  0  0  0  0  0  0  0  0
  -11.1880    9.4440  -13.4030 H   0  0  0  0  0  0  0  0  0  0  0  0
  -10.4650    9.5310  -11.0410 H   0  0  0  0  0  0  0  0  0  0  0  0
   -9.0100    7.7910  -10.0910 H   0  0  0  0  0  0  0  0  0  0  0  0
   -8.2000    5.9190  -11.3940 H   0  0  0  0  0  0  0  0  0  0  0  0
  -10.2120    4.8900  -15.6690 H   0  0  0  0  0  0  0  0  0  0  0  0
  -11.1620    4.4940  -17.9280 H   0  0  0  0  0  0  0  0  0  0  0  0
   -9.7190    4.6350  -19.9140 H   0  0  0  0  0  0  0  0  0  0  0  0
   -7.5490    5.0090  -20.9260 H   0  0  0  0  0  0  0  0  0  0  0  0
   -5.1770    5.5670  -20.7510 H   0  0  0  0  0  0  0  0  0  0  0  0
   -4.1610    5.9990  -18.5280 H   0  0  0  0  0  0  0  0  0  0  0  0
   -5.5180    5.8690  -16.5070 H   0  0  0  0  0  0  0  0  0  0  0  0
  1  2  2  0
  2  3  1  0
  3  4  1  0
  4  5  2  0
  5  6  1  0
  6  7  2  0
  7  8  1  0
  8  9  2  0
  2 10  1  0
 10 11  2  0
 11 12  1  0
 12 13  2  0
 13 14  1  0
 14 15  2  0
 15 16  1  0
 16 17  2  0
 17 18  1  0
 18 19  2  0
  9  4  1  0
 19 10  1  0
 19 14  1  0
  3 20  1  0
  5 21  1  0
  6 22  1  0
  7 23  1  0
  8 24  1  0
  9 25  1  0
 11 26  1  0
 12 27  1  0
 13 28  1  0
 15 29  1  0
 16 30  1  0
 17 31  1  0
 18 32  1  0
A    1
 O1 
A    2
 C1 
A    3
 N1 
A    4
 C2 
A    5
 C3 
A    6
 C4 
A    7
 C5 
A    8
 C6 
A    9
 C7 
A   10
 C8 
A   11
 C9 
A   12
 C10
A   13
 C11
A   14
 C12
A   15
 C13
A   16
 C14
A   17
 C15
A   18
 C16
A   19
 C17
A   20
 H1 
A   21
 H2 
A   22
 H3 
A   23
 H4 
A   24
 H5 
A   25
 H6 
A   26
 H7 
A   27
 H8 
A   28
 H9 
A   29
 H10
A   30
 H11
A   31
 H12
A   32
 H13
M  END
>  <ref_pdb>  (361) 
x0051_0B

>  <ref_mols>  (361) 
x0429_0B,x0951_0B

>  <original SMILES>  (361) 
[H]c1c([H])c([H])c(N([H])C(=O)c2c([H])c([H])c([H])c3c([H])c([H])c([H])c([H])c23)c([H])c1[H]

>  <index>  (361) 
254

>  <∆∆G>  (361) 
-8.536095

>  <∆G_bound>  (361) 
-8.400958

>  <∆G_unbound>  (361) 
0.135136

>  <comRMSD>  (361) 
0.311545

>  <N_constrained_atoms>  (361) 
16.0

>  <N_unconstrained_atoms>  (361) 
4.0

>  <runtime>  (361) 
55.082839

>  <LE>  (361) 
0.426805

>  <percent_hybrid>  (361) 
45.0

>  <dist>  (361) 
12.0

>  <ecfp4>  (361) 
0.109375

>  <daylight>  (361) 
0.191358

>  <topodist>  (361) 
3.0

>  <mces>  (361) 
21.0

>  <tdn>  (361) 
2.0

>  <tup>  (361) 
0.0

>  <rdn>  (361) 
1.0

>  <rup>  (361) 
0.0

>  <ldn>  (361) 
0.0

>  <lup>  (361) 
0.0

>  <mut>  (361) 
3.0

>  <maj>  (361) 
3.0

>  <min>  (361) 
0.0

>  <hyb>  (361) 
6.0

>  <sub>  (361) 
1.0

>  <query_index>  (361) 
76.0

>  <max_hit_Tanimoto>  (361) 
0.215686

>  <largest_ring>  (361) 
0

>  <N_interactions_kept>  (361) 
0.0

>  <N_interactions_lost>  (361) 
3.0

>  <interaction_uniqueness_metric>  (361) 
0.240406

>  <ad_hoc_penalty>  (361) 
-27.426044

>  <N_rotatable_bonds>  (361) 
2

>  <N_HA>  (361) 
19

>  <cluster>  (361) 
5986

>  <N_interactions>  (361) 
7

>  <Enamine>  (361) 
1

>  <Mcule>  (361) 
0

>  <N_PAINS>  (361) 
0

>  <UFF_Gibbs>  (361) 
64.714713

>  <strain_per_HA>  (361) 
3.406038

>  <intxn_scored>  (361) 
8.5

>  <saltbridge:HIS:51>  (361) 
0

>  <pistack:HIS:51>  (361) 
0

>  <hydroph_interaction:HIS:51>  (361) 
0

>  <hbond:ALA:132>  (361) 
0

>  <hbond:SER:135>  (361) 
0

>  <hydroph_interaction:TYR:150>  (361) 
1

>  <pistack:TYR:161>  (361) 
1

>  <hydroph_interaction:TYR:161>  (361) 
3

>  <hydroph_interaction:ASP:83>  (361) 
0

>  <hbond:TYR:130>  (361) 
0

>  <hydroph_interaction:ALA:132>  (361) 
0

>  <hbond:HIS:51>  (361) 
0

>  <hbond:ASP:129>  (361) 
0

>  <hbond:TYR:150>  (361) 
0

>  <hbond:GLY:151>  (361) 
1

>  <hbond:TYR:161>  (361) 
0

>  <hydroph_interaction:TYR:130>  (361) 
0

>  <hydroph_interaction:PRO:131>  (361) 
0

>  <hydroph_interaction:ASP:129>  (361) 
0

>  <saltbridge:ASP:75>  (361) 
0

>  <saltbridge:ASP:83>  (361) 
0

>  <hbond:ASN:152>  (361) 
0

>  <hydroph_interaction:ASN:152>  (361) 
0

>  <halogenbond:TYR:150>  (361) 
0

>  <hbond:ASP:83>  (361) 
0

>  <hydroph_interaction:VAL:155>  (361) 
0

>  <pication:TYR:161>  (361) 
0

>  <hbond:PRO:131>  (361) 
0

>  <saltbridge:ASP:129>  (361) 
0

>  <hbond:THR:134>  (361) 
0

>  <pication:HIS:51>  (361) 
1

>  <hbond:SER:81>  (361) 
0

>  <hydroph_interaction:THR:134>  (361) 
0

>  <hydroph_interaction:MET:49>  (361) 
0

$$$$
Z5046679344
     RDKit          3D

 42 44  0  0  0  0  0  0  0  0999 V2000
  -11.1540    5.2080  -18.9080 C   0  0  0  0  0  0  0  0  0  0  0  0
  -10.3570    4.7640  -17.7210 C   0  0  0  0  0  0  0  0  0  0  0  0
   -8.9780    4.9190  -17.6820 C   0  0  0  0  0  0  0  0  0  0  0  0
   -8.1480    4.9240  -18.8810 C   0  0  0  0  0  0  0  0  0  0  0  0
   -6.6850    5.0920  -18.8120 C   0  0  0  0  0  0  0  0  0  0  0  0
   -6.1260    5.2470  -17.5370 C   0  0  0  0  0  0  0  0  0  0  0  0
   -6.9320    5.2440  -16.3590 C   0  0  0  0  0  0  0  0  0  0  0  0
   -6.3520    5.4030  -15.0880 C   0  0  0  0  0  0  0  0  0  0  0  0
   -6.6550    4.6220  -13.9680 N   0  0  0  0  0  0  0  0  0  0  0  0
   -7.1170    5.3290  -12.7360 C   0  0  0  0  0  0  0  0  0  0  0  0
   -8.6100    5.2310  -12.3530 C   0  0  0  0  0  0  0  0  0  0  0  0
   -8.7010    5.4810  -10.8290 C   0  0  0  0  0  0  0  0  0  0  0  0
   -8.8980    4.3720   -9.8490 C   0  0  0  0  0  0  0  0  0  0  0  0
   -9.0250    2.9070  -10.2060 C   0  0  0  0  0  0  0  0  0  0  0  0
   -8.6910    2.1770   -8.9180 C   0  0  0  0  0  0  0  0  0  0  0  0
   -9.5410    2.6980   -7.7600 C   0  0  0  0  0  0  0  0  0  0  0  0
   -9.1250    4.1290   -7.4050 C   0  0  0  0  0  0  0  0  0  0  0  0
   -8.9380    4.9110   -8.6170 N   0  0  0  0  0  0  0  0  0  0  0  0
   -8.7880    6.2600   -8.6400 N   0  0  0  0  0  0  0  0  0  0  0  0
   -8.6490    6.6050   -9.9560 C   0  0  0  0  0  0  0  0  0  0  0  0
   -8.3260    5.0850  -16.4600 C   0  0  0  0  0  0  0  0  0  0  0  0
   -9.0480    5.0990  -15.3290 F   0  0  0  0  0  0  0  0  0  0  0  0
  -10.5170    5.5770  -19.7190 H   0  0  0  0  0  0  0  0  0  0  0  0
   -8.6320    4.7990  -19.8590 H   0  0  0  0  0  0  0  0  0  0  0  0
   -6.0790    5.0930  -19.7180 H   0  0  0  0  0  0  0  0  0  0  0  0
   -5.0490    5.3730  -17.4420 H   0  0  0  0  0  0  0  0  0  0  0  0
   -6.5020    6.4510  -14.8040 H   0  0  0  0  0  0  0  0  0  0  0  0
   -5.2720    5.3100  -15.2580 H   0  0  0  0  0  0  0  0  0  0  0  0
   -7.1630    3.7540  -14.2030 H   0  0  0  0  0  0  0  0  0  0  0  0
   -6.9090    6.3960  -12.8810 H   0  0  0  0  0  0  0  0  0  0  0  0
   -6.3940    5.0350  -11.9790 H   0  0  0  0  0  0  0  0  0  0  0  0
   -9.2030    5.9050  -12.9670 H   0  0  0  0  0  0  0  0  0  0  0  0
   -9.1850    4.3250  -12.4920 H   0  0  0  0  0  0  0  0  0  0  0  0
   -8.3160    2.6220  -10.9950 H   0  0  0  0  0  0  0  0  0  0  0  0
  -10.0350    2.6470  -10.5430 H   0  0  0  0  0  0  0  0  0  0  0  0
   -8.8390    1.1170   -9.0370 H   0  0  0  0  0  0  0  0  0  0  0  0
   -7.6370    2.3200   -8.6750 H   0  0  0  0  0  0  0  0  0  0  0  0
  -10.6020    2.6670   -8.0250 H   0  0  0  0  0  0  0  0  0  0  0  0
   -9.4110    2.0540   -6.8890 H   0  0  0  0  0  0  0  0  0  0  0  0
   -9.8880    4.6140   -6.7880 H   0  0  0  0  0  0  0  0  0  0  0  0
   -8.1810    4.1370   -6.8780 H   0  0  0  0  0  0  0  0  0  0  0  0
   -8.5180    7.6550  -10.2110 H   0  0  0  0  0  0  0  0  0  0  0  0
  1  2  3  0
  2  3  1  0
  3  4  2  0
  4  5  1  0
  5  6  2  0
  6  7  1  0
  7  8  1  0
  8  9  1  0
  9 10  1  0
 10 11  1  0
 11 12  1  0
 12 13  2  0
 13 14  1  0
 14 15  1  0
 15 16  1  0
 16 17  1  0
 17 18  1  0
 18 19  1  0
 19 20  2  0
  7 21  2  0
 21 22  1  0
 21  3  1  0
 20 12  1  0
 18 13  1  0
  1 23  1  0
  4 24  1  0
  5 25  1  0
  6 26  1  0
  8 27  1  0
  8 28  1  0
  9 29  1  0
 10 30  1  0
 10 31  1  0
 11 32  1  0
 11 33  1  0
 14 34  1  0
 14 35  1  0
 15 36  1  0
 15 37  1  0
 16 38  1  0
 16 39  1  0
 17 40  1  0
 17 41  1  0
 20 42  1  0
A    1
 C1 
A    2
 C2 
A    3
 C3 
A    4
 C4 
A    5
 C5 
A    6
 C6 
A    7
 C7 
A    8
 C8 
A    9
 N1 
A   10
 C9 
A   11
 C10
A   12
 C11
A   13
 C12
A   14
 C13
A   15
 C14
A   16
 C15
A   17
 C16
A   18
 N2 
A   19
 N3 
A   20
 C17
A   21
 C18
A   22
 F1 
A   23
 H1 
A   24
 H2 
A   25
 H3 
A   26
 H4 
A   27
 H5 
A   28
 H6 
A   29
 H7 
A   30
 H8 
A   31
 H9 
A   32
 H10
A   33
 H11
A   34
 H12
A   35
 H13
A   36
 H14
A   37
 H15
A   38
 H16
A   39
 H17
A   40
 H18
A   41
 H19
A   42
 H20
M  END
>  <ref_pdb>  (362) 
x0051_0B

>  <ref_mols>  (362) 
x0605_0B,x0969_1B

>  <original SMILES>  (362) 
[H]C#Cc1c([H])c([H])c([H])c(C([H])([H])N([H])C([H])([H])C([H])([H])c2c([H])nn3c2C([H])([H])C([H])([H])C([H])([H])C3([H])[H])c1F

>  <index>  (362) 
976

>  <∆∆G>  (362) 
-6.517952

>  <∆G_bound>  (362) 
-5.564661

>  <∆G_unbound>  (362) 
0.953291

>  <comRMSD>  (362) 
0.373127

>  <N_constrained_atoms>  (362) 
19.0

>  <N_unconstrained_atoms>  (362) 
3.0

>  <runtime>  (362) 
62.700409

>  <LE>  (362) 
0.296271

>  <percent_hybrid>  (362) 
48.0

>  <dist>  (362) 
5.0

>  <ecfp4>  (362) 
0.311688

>  <daylight>  (362) 
0.334572

>  <topodist>  (362) 
1.0

>  <mces>  (362) 
23.0

>  <tdn>  (362) 
0.0

>  <tup>  (362) 
1.0

>  <rdn>  (362) 
0.0

>  <rup>  (362) 
0.0

>  <ldn>  (362) 
0.0

>  <lup>  (362) 
0.0

>  <mut>  (362) 
2.0

>  <maj>  (362) 
2.0

>  <min>  (362) 
0.0

>  <hyb>  (362) 
2.0

>  <sub>  (362) 
1.0

>  <query_index>  (362) 
307.0

>  <max_hit_Tanimoto>  (362) 
0.345301

>  <largest_ring>  (362) 
6

>  <N_interactions_kept>  (362) 
1.5

>  <N_interactions_lost>  (362) 
1.5

>  <interaction_uniqueness_metric>  (362) 
0.150629

>  <ad_hoc_penalty>  (362) 
-8.959512

>  <N_rotatable_bonds>  (362) 
5

>  <N_HA>  (362) 
22

>  <cluster>  (362) 
5324

>  <N_interactions>  (362) 
5

>  <Enamine>  (362) 
1

>  <Mcule>  (362) 
0

>  <N_PAINS>  (362) 
0

>  <UFF_Gibbs>  (362) 
247.548969

>  <strain_per_HA>  (362) 
11.252226

>  <intxn_scored>  (362) 
8.5

>  <saltbridge:HIS:51>  (362) 
0

>  <pistack:HIS:51>  (362) 
1

>  <hydroph_interaction:HIS:51>  (362) 
0

>  <hbond:ALA:132>  (362) 
0

>  <hbond:SER:135>  (362) 
0

>  <hydroph_interaction:TYR:150>  (362) 
1

>  <pistack:TYR:161>  (362) 
1

>  <hydroph_interaction:TYR:161>  (362) 
1

>  <hydroph_interaction:ASP:83>  (362) 
1

>  <hbond:TYR:130>  (362) 
0

>  <hydroph_interaction:ALA:132>  (362) 
0

>  <hbond:HIS:51>  (362) 
0

>  <hbond:ASP:129>  (362) 
0

>  <hbond:TYR:150>  (362) 
0

>  <hbond:GLY:151>  (362) 
0

>  <hbond:TYR:161>  (362) 
0

>  <hydroph_interaction:TYR:130>  (362) 
0

>  <hydroph_interaction:PRO:131>  (362) 
0

>  <hydroph_interaction:ASP:129>  (362) 
0

>  <saltbridge:ASP:75>  (362) 
0

>  <saltbridge:ASP:83>  (362) 
0

>  <hbond:ASN:152>  (362) 
0

>  <hydroph_interaction:ASN:152>  (362) 
0

>  <halogenbond:TYR:150>  (362) 
0

>  <hbond:ASP:83>  (362) 
0

>  <hydroph_interaction:VAL:155>  (362) 
0

>  <pication:TYR:161>  (362) 
0

>  <hbond:PRO:131>  (362) 
0

>  <saltbridge:ASP:129>  (362) 
0

>  <hbond:THR:134>  (362) 
0

>  <pication:HIS:51>  (362) 
0

>  <hbond:SER:81>  (362) 
0

>  <hydroph_interaction:THR:134>  (362) 
0

>  <hydroph_interaction:MET:49>  (362) 
0

$$$$
Z2622717755
     RDKit          3D

 51 53  0  0  0  0  0  0  0  0999 V2000
   -2.4300    4.8510  -21.6890 C   0  0  0  0  0  0  0  0  0  0  0  0
   -3.6880    5.5100  -21.3560 N   0  0  0  0  0  0  0  0  0  0  0  0
   -4.7180    5.2720  -22.3530 C   0  0  0  0  0  0  0  0  0  0  0  0
   -4.2010    5.3930  -19.9890 C   0  0  0  0  0  0  0  0  0  0  0  0
   -3.5250    5.0470  -19.0240 O   0  0  0  0  0  0  0  0  0  0  0  0
   -5.5730    5.7060  -19.8690 C   0  0  0  0  0  0  0  0  0  0  0  0
   -5.8630    5.8120  -18.4740 O   0  0  0  0  0  0  0  0  0  0  0  0
   -7.1280    5.4680  -18.0970 C   0  0  0  0  0  0  0  0  0  0  0  0
   -8.1300    5.1770  -19.0160 C   0  0  0  0  0  0  0  0  0  0  0  0
   -9.5170    4.7980  -18.6780 C   0  0  0  0  0  0  0  0  0  0  0  0
   -9.6700    4.7700  -17.1720 C   0  0  0  0  0  0  0  0  0  0  0  0
   -8.6100    5.0760  -16.1240 C   0  0  0  0  0  0  0  0  0  0  0  0
   -8.9470    4.9600  -14.7210 C   0  0  0  0  0  0  0  0  0  0  0  0
   -8.6420    6.0040  -13.7350 N   0  0  0  0  0  0  0  0  0  0  0  0
   -9.4930    6.0940  -12.5950 C   0  0  0  0  0  0  0  0  0  0  0  0
  -10.6860    6.3640  -12.7380 O   0  0  0  0  0  0  0  0  0  0  0  0
   -9.0020    5.8790  -11.2630 C   0  0  0  0  0  0  0  0  0  0  0  0
   -8.6290    4.5710  -10.6300 C   0  0  0  0  0  0  0  0  0  0  0  0
   -8.6790    3.1960  -11.2150 C   0  0  0  0  0  0  0  0  0  0  0  0
   -7.9460    2.2110  -10.3060 C   0  0  0  0  0  0  0  0  0  0  0  0
   -8.3610    2.4860   -9.0290 C   0  0  0  0  0  0  0  0  0  0  0  0
   -7.7400    3.7660   -8.4990 C   0  0  0  0  0  0  0  0  0  0  0  0
   -8.1990    4.8330   -9.3520 N   0  0  0  0  0  0  0  0  0  0  0  0
   -8.2760    6.1720   -9.0660 C   0  0  0  0  0  0  0  0  0  0  0  0
   -8.7640    6.8430  -10.2160 C   0  0  0  0  0  0  0  0  0  0  0  0
   -7.3510    5.4240  -16.6760 C   0  0  0  0  0  0  0  0  0  0  0  0
   -1.9710    4.4620  -20.7730 H   0  0  0  0  0  0  0  0  0  0  0  0
   -2.5990    3.9940  -22.3510 H   0  0  0  0  0  0  0  0  0  0  0  0
   -1.7140    5.5320  -22.1550 H   0  0  0  0  0  0  0  0  0  0  0  0
   -5.2670    4.3410  -22.1590 H   0  0  0  0  0  0  0  0  0  0  0  0
   -4.2270    5.1790  -23.3240 H   0  0  0  0  0  0  0  0  0  0  0  0
   -5.4150    6.1160  -22.4380 H   0  0  0  0  0  0  0  0  0  0  0  0
   -5.9400    6.5870  -20.3940 H   0  0  0  0  0  0  0  0  0  0  0  0
   -6.1260    4.8440  -20.2630 H   0  0  0  0  0  0  0  0  0  0  0  0
   -7.8610    5.2390  -20.0690 H   0  0  0  0  0  0  0  0  0  0  0  0
  -10.3010    4.5750  -19.3800 H   0  0  0  0  0  0  0  0  0  0  0  0
  -10.6530    4.4940  -16.7950 H   0  0  0  0  0  0  0  0  0  0  0  0
   -8.4850    4.1040  -14.2400 H   0  0  0  0  0  0  0  0  0  0  0  0
  -10.0070    4.7640  -14.5760 H   0  0  0  0  0  0  0  0  0  0  0  0
   -7.6610    6.2280  -13.5810 H   0  0  0  0  0  0  0  0  0  0  0  0
   -9.7390    2.9060  -11.2880 H   0  0  0  0  0  0  0  0  0  0  0  0
   -8.2470    3.1680  -12.2230 H   0  0  0  0  0  0  0  0  0  0  0  0
   -6.8710    2.3850  -10.3950 H   0  0  0  0  0  0  0  0  0  0  0  0
   -8.1400    1.1800  -10.5930 H   0  0  0  0  0  0  0  0  0  0  0  0
   -9.4260    2.5890   -9.1270 H   0  0  0  0  0  0  0  0  0  0  0  0
   -8.1850    1.6600   -8.3510 H   0  0  0  0  0  0  0  0  0  0  0  0
   -6.6510    3.7160   -8.5980 H   0  0  0  0  0  0  0  0  0  0  0  0
   -7.9640    3.9940   -7.4680 H   0  0  0  0  0  0  0  0  0  0  0  0
   -7.9850    6.5560   -8.0970 H   0  0  0  0  0  0  0  0  0  0  0  0
   -8.9290    7.9120  -10.2960 H   0  0  0  0  0  0  0  0  0  0  0  0
   -6.5240    5.6580  -16.0100 H   0  0  0  0  0  0  0  0  0  0  0  0
  1  2  1  0
  2  3  1  0
  2  4  1  0
  4  5  2  0
  4  6  1  0
  6  7  1  0
  7  8  1  0
  8  9  2  0
  9 10  1  0
 10 11  2  0
 11 12  1  0
 12 13  1  0
 13 14  1  0
 14 15  1  0
 15 16  2  0
 15 17  1  0
 17 18  2  0
 18 19  1  0
 19 20  1  0
 20 21  1  0
 21 22  1  0
 22 23  1  0
 23 24  1  0
 24 25  2  0
 12 26  2  0
 26  8  1  0
 25 17  1  0
 23 18  1  0
  1 27  1  0
  1 28  1  0
  1 29  1  0
  3 30  1  0
  3 31  1  0
  3 32  1  0
  6 33  1  0
  6 34  1  0
  9 35  1  0
 10 36  1  0
 11 37  1  0
 13 38  1  0
 13 39  1  0
 14 40  1  0
 19 41  1  0
 19 42  1  0
 20 43  1  0
 20 44  1  0
 21 45  1  0
 21 46  1  0
 22 47  1  0
 22 48  1  0
 24 49  1  0
 25 50  1  0
 26 51  1  0
A    1
 C1 
A    2
 N1 
A    3
 C2 
A    4
 C3 
A    5
 O1 
A    6
 C4 
A    7
 O2 
A    8
 C5 
A    9
 C6 
A   10
 C7 
A   11
 C8 
A   12
 C9 
A   13
 C10
A   14
 N2 
A   15
 C11
A   16
 O3 
A   17
 C12
A   18
 C13
A   19
 C14
A   20
 C15
A   21
 C16
A   22
 C17
A   23
 N3 
A   24
 C18
A   25
 C19
A   26
 C20
A   27
 H1 
A   28
 H2 
A   29
 H3 
A   30
 H4 
A   31
 H5 
A   32
 H6 
A   33
 H7 
A   34
 H8 
A   35
 H9 
A   36
 H10
A   37
 H11
A   38
 H12
A   39
 H13
A   40
 H14
A   41
 H15
A   42
 H16
A   43
 H17
A   44
 H18
A   45
 H19
A   46
 H20
A   47
 H21
A   48
 H22
A   49
 H23
A   50
 H24
A   51
 H25
M  END
>  <ref_pdb>  (363) 
x0051_0B

>  <ref_mols>  (363) 
x0969_1B,x0904_0B

>  <original SMILES>  (363) 
[H]c1c([H])c(OC([H])([H])C(=O)N(C([H])([H])[H])C([H])([H])[H])c([H])c(C([H])([H])N([H])C(=O)c2c([H])c([H])n3c2C([H])([H])C([H])([H])C([H])([H])C3([H])[H])c1[H]

>  <index>  (363) 
1572

>  <∆∆G>  (363) 
-7.465688

>  <∆G_bound>  (363) 
-7.112097

>  <∆G_unbound>  (363) 
0.353591

>  <comRMSD>  (363) 
0.968987

>  <N_constrained_atoms>  (363) 
24.0

>  <N_unconstrained_atoms>  (363) 
2.0

>  <runtime>  (363) 
78.422483

>  <LE>  (363) 
0.287142

>  <percent_hybrid>  (363) 
42.0

>  <dist>  (363) 
6.0

>  <ecfp4>  (363) 
0.397436

>  <daylight>  (363) 
0.298077

>  <topodist>  (363) 
2.0

>  <mces>  (363) 
27.0

>  <tdn>  (363) 
0.0

>  <tup>  (363) 
1.0

>  <rdn>  (363) 
0.0

>  <rup>  (363) 
0.0

>  <ldn>  (363) 
1.0

>  <lup>  (363) 
0.0

>  <mut>  (363) 
3.0

>  <maj>  (363) 
3.0

>  <min>  (363) 
0.0

>  <hyb>  (363) 
1.0

>  <sub>  (363) 
0.0

>  <query_index>  (363) 
111.0

>  <max_hit_Tanimoto>  (363) 
0.238475

>  <largest_ring>  (363) 
6

>  <N_interactions_kept>  (363) 
2.0

>  <N_interactions_lost>  (363) 
1.5

>  <interaction_uniqueness_metric>  (363) 
0.189129

>  <ad_hoc_penalty>  (363) 
-10.43908

>  <N_rotatable_bonds>  (363) 
8

>  <N_HA>  (363) 
26

>  <cluster>  (363) 
4774

>  <N_interactions>  (363) 
5

>  <Enamine>  (363) 
1

>  <Mcule>  (363) 
0

>  <N_PAINS>  (363) 
0

>  <UFF_Gibbs>  (363) 
150.255248

>  <strain_per_HA>  (363) 
5.779048

>  <intxn_scored>  (363) 
8.5

>  <saltbridge:HIS:51>  (363) 
0

>  <pistack:HIS:51>  (363) 
1

>  <hydroph_interaction:HIS:51>  (363) 
0

>  <hbond:ALA:132>  (363) 
0

>  <hbond:SER:135>  (363) 
1

>  <hydroph_interaction:TYR:150>  (363) 
1

>  <pistack:TYR:161>  (363) 
1

>  <hydroph_interaction:TYR:161>  (363) 
0

>  <hydroph_interaction:ASP:83>  (363) 
1

>  <hbond:TYR:130>  (363) 
0

>  <hydroph_interaction:ALA:132>  (363) 
0

>  <hbond:HIS:51>  (363) 
0

>  <hbond:ASP:129>  (363) 
0

>  <hbond:TYR:150>  (363) 
0

>  <hbond:GLY:151>  (363) 
0

>  <hbond:TYR:161>  (363) 
0

>  <hydroph_interaction:TYR:130>  (363) 
0

>  <hydroph_interaction:PRO:131>  (363) 
0

>  <hydroph_interaction:ASP:129>  (363) 
0

>  <saltbridge:ASP:75>  (363) 
0

>  <saltbridge:ASP:83>  (363) 
0

>  <hbond:ASN:152>  (363) 
0

>  <hydroph_interaction:ASN:152>  (363) 
0

>  <halogenbond:TYR:150>  (363) 
0

>  <hbond:ASP:83>  (363) 
0

>  <hydroph_interaction:VAL:155>  (363) 
0

>  <pication:TYR:161>  (363) 
0

>  <hbond:PRO:131>  (363) 
0

>  <saltbridge:ASP:129>  (363) 
0

>  <hbond:THR:134>  (363) 
0

>  <pication:HIS:51>  (363) 
0

>  <hbond:SER:81>  (363) 
0

>  <hydroph_interaction:THR:134>  (363) 
0

>  <hydroph_interaction:MET:49>  (363) 
0

$$$$
CSSB00011207750
     RDKit          3D

 31 32  0  0  0  0  0  0  0  0999 V2000
   -3.6670    4.9000  -21.8200 N   0  0  0  0  0  0  0  0  0  0  0  0
   -4.2870    5.5500  -20.6480 C   0  0  0  0  0  0  0  0  0  0  0  0
   -5.7790    5.7910  -20.8510 C   0  0  0  0  0  0  0  0  0  0  0  0
   -6.3390    6.1970  -19.5990 O   0  0  0  0  0  0  0  0  0  0  0  0
   -7.0400    5.1210  -19.0010 C   0  0  0  0  0  0  0  0  0  0  0  0
   -8.4890    5.0700  -19.5610 C   0  0  0  0  0  0  0  0  0  0  0  0
   -9.5830    4.4870  -18.6350 C   0  0  0  0  0  0  0  0  0  0  0  0
   -9.3560    4.8830  -17.2330 C   0  0  0  0  0  0  0  0  0  0  0  0
   -8.1240    5.1150  -16.7140 C   0  0  0  0  0  0  0  0  0  0  0  0
   -8.1200    5.2080  -15.3280 C   0  0  0  0  0  0  0  0  0  0  0  0
   -6.9190    5.4410  -14.6780 C   0  0  0  0  0  0  0  0  0  0  0  0
   -5.6460    5.5920  -15.5020 C   0  0  0  0  0  0  0  0  0  0  0  0
   -5.7370    5.4850  -16.8840 C   0  0  0  0  0  0  0  0  0  0  0  0
   -6.9760    5.2420  -17.5140 C   0  0  0  0  0  0  0  0  0  0  0  0
   -3.6750    5.5790  -22.5860 H   0  0  0  0  0  0  0  0  0  0  0  0
   -4.1930    4.0780  -22.1590 H   0  0  0  0  0  0  0  0  0  0  0  0
   -3.7750    6.4990  -20.4650 H   0  0  0  0  0  0  0  0  0  0  0  0
   -4.1400    4.9230  -19.7660 H   0  0  0  0  0  0  0  0  0  0  0  0
   -5.9560    6.5800  -21.5890 H   0  0  0  0  0  0  0  0  0  0  0  0
   -6.2580    4.8710  -21.2030 H   0  0  0  0  0  0  0  0  0  0  0  0
   -6.5330    4.2240  -19.3340 H   0  0  0  0  0  0  0  0  0  0  0  0
   -8.7790    6.0840  -19.8100 H   0  0  0  0  0  0  0  0  0  0  0  0
   -8.5190    4.4900  -20.4900 H   0  0  0  0  0  0  0  0  0  0  0  0
  -10.5700    4.8450  -18.9520 H   0  0  0  0  0  0  0  0  0  0  0  0
   -9.6070    3.3970  -18.7210 H   0  0  0  0  0  0  0  0  0  0  0  0
   -9.9580    5.7750  -17.0420 H   0  0  0  0  0  0  0  0  0  0  0  0
   -9.8340    4.1250  -16.6260 H   0  0  0  0  0  0  0  0  0  0  0  0
   -8.9940    5.1110  -14.6710 H   0  0  0  0  0  0  0  0  0  0  0  0
   -6.9490    5.5070  -13.5900 H   0  0  0  0  0  0  0  0  0  0  0  0
   -4.6900    5.7790  -15.0190 H   0  0  0  0  0  0  0  0  0  0  0  0
   -4.8370    5.5880  -17.4830 H   0  0  0  0  0  0  0  0  0  0  0  0
  1  2  1  0
  2  3  1  0
  3  4  1  0
  4  5  1  0
  5  6  1  0
  6  7  1  0
  7  8  1  0
  8  9  1  0
  9 10  2  0
 10 11  1  0
 11 12  2  0
 12 13  1  0
 13 14  2  0
 14  5  1  0
 14  9  1  0
  1 15  1  0
  1 16  1  0
  2 17  1  0
  2 18  1  0
  3 19  1  0
  3 20  1  0
  5 21  1  0
  6 22  1  0
  6 23  1  0
  7 24  1  0
  7 25  1  0
  8 26  1  0
  8 27  1  0
 10 28  1  0
 11 29  1  0
 12 30  1  0
 13 31  1  0
A    1
 N1 
A    2
 C1 
A    3
 C2 
A    4
 O1 
A    5
 C3 
A    6
 C4 
A    7
 C5 
A    8
 C6 
A    9
 C7 
A   10
 C8 
A   11
 C9 
A   12
 C10
A   13
 C11
A   14
 C12
A   15
 H1 
A   16
 H2 
A   17
 H3 
A   18
 H4 
A   19
 H5 
A   20
 H6 
A   21
 H7 
A   22
 H8 
A   23
 H9 
A   24
 H10
A   25
 H11
A   26
 H12
A   27
 H13
A   28
 H14
A   29
 H15
A   30
 H16
A   31
 H17
M  END
>  <ref_pdb>  (364) 
x0051_0B

>  <ref_mols>  (364) 
x0904_0B,x0455_0B

>  <original SMILES>  (364) 
[H]c1c([H])c([H])c2c(c1[H])C([H])([H])C([H])([H])C([H])([H])C2([H])OC([H])([H])C([H])([H])N([H])[H]

>  <index>  (364) 
1548

>  <∆∆G>  (364) 
-5.521732

>  <∆G_bound>  (364) 
-5.211201

>  <∆G_unbound>  (364) 
0.310531

>  <comRMSD>  (364) 
0.923681

>  <N_constrained_atoms>  (364) 
18.0

>  <N_unconstrained_atoms>  (364) 
0.0

>  <runtime>  (364) 
31.588443

>  <LE>  (364) 
0.306763

>  <percent_hybrid>  (364) 
34.0

>  <dist>  (364) 
8.0

>  <ecfp4>  (364) 
0.096774

>  <daylight>  (364) 
0.177515

>  <topodist>  (364) 
3.0

>  <mces>  (364) 
15.0

>  <tdn>  (364) 
3.0

>  <tup>  (364) 
0.0

>  <rdn>  (364) 
0.0

>  <rup>  (364) 
0.0

>  <ldn>  (364) 
0.0

>  <lup>  (364) 
0.0

>  <mut>  (364) 
1.0

>  <maj>  (364) 
1.0

>  <min>  (364) 
0.0

>  <hyb>  (364) 
4.0

>  <sub>  (364) 
1.0

>  <query_index>  (364) 
160.0

>  <max_hit_Tanimoto>  (364) 
0.16053

>  <largest_ring>  (364) 
6

>  <N_interactions_kept>  (364) 
0.5

>  <N_interactions_lost>  (364) 
2.5

>  <interaction_uniqueness_metric>  (364) 
0.123176

>  <ad_hoc_penalty>  (364) 
-12.715691

>  <N_rotatable_bonds>  (364) 
4

>  <N_HA>  (364) 
14

>  <cluster>  (364) 
4796

>  <N_interactions>  (364) 
6

>  <Enamine>  (364) 
1

>  <Mcule>  (364) 
0

>  <N_PAINS>  (364) 
0

>  <UFF_Gibbs>  (364) 
43.029775

>  <strain_per_HA>  (364) 
3.073555

>  <intxn_scored>  (364) 
8.5

>  <saltbridge:HIS:51>  (364) 
0

>  <pistack:HIS:51>  (364) 
0

>  <hydroph_interaction:HIS:51>  (364) 
0

>  <hbond:ALA:132>  (364) 
0

>  <hbond:SER:135>  (364) 
0

>  <hydroph_interaction:TYR:150>  (364) 
1

>  <pistack:TYR:161>  (364) 
1

>  <hydroph_interaction:TYR:161>  (364) 
2

>  <hydroph_interaction:ASP:83>  (364) 
0

>  <hbond:TYR:130>  (364) 
0

>  <hydroph_interaction:ALA:132>  (364) 
0

>  <hbond:HIS:51>  (364) 
0

>  <hbond:ASP:129>  (364) 
1

>  <hbond:TYR:150>  (364) 
0

>  <hbond:GLY:151>  (364) 
0

>  <hbond:TYR:161>  (364) 
1

>  <hydroph_interaction:TYR:130>  (364) 
0

>  <hydroph_interaction:PRO:131>  (364) 
0

>  <hydroph_interaction:ASP:129>  (364) 
0

>  <saltbridge:ASP:75>  (364) 
0

>  <saltbridge:ASP:83>  (364) 
0

>  <hbond:ASN:152>  (364) 
0

>  <hydroph_interaction:ASN:152>  (364) 
0

>  <halogenbond:TYR:150>  (364) 
0

>  <hbond:ASP:83>  (364) 
0

>  <hydroph_interaction:VAL:155>  (364) 
0

>  <pication:TYR:161>  (364) 
0

>  <hbond:PRO:131>  (364) 
0

>  <saltbridge:ASP:129>  (364) 
0

>  <hbond:THR:134>  (364) 
0

>  <pication:HIS:51>  (364) 
0

>  <hbond:SER:81>  (364) 
0

>  <hydroph_interaction:THR:134>  (364) 
0

>  <hydroph_interaction:MET:49>  (364) 
0

$$$$
CSSS00121668744
     RDKit          3D

 43 46  0  0  0  0  0  0  0  0999 V2000
   -9.2720    3.7630  -12.8430 O   0  0  0  0  0  0  0  0  0  0  0  0
   -8.8990    4.9030  -12.6200 C   0  0  0  0  0  0  0  0  0  0  0  0
   -8.5410    5.7790  -13.7720 N   0  0  0  0  0  0  0  0  0  0  0  0
   -7.7070    5.2780  -14.8040 C   0  0  0  0  0  0  0  0  0  0  0  0
   -6.4580    5.9210  -14.9190 C   0  0  0  0  0  0  0  0  0  0  0  0
   -5.6030    5.5010  -15.9570 C   0  0  0  0  0  0  0  0  0  0  0  0
   -6.1450    5.5660  -17.2440 C   0  0  0  0  0  0  0  0  0  0  0  0
   -7.4870    5.2970  -17.3430 C   0  0  0  0  0  0  0  0  0  0  0  0
   -7.9040    5.1860  -18.6860 C   0  0  0  0  0  0  0  0  0  0  0  0
   -9.3350    4.8930  -18.9040 C   0  0  0  0  0  0  0  0  0  0  0  0
  -10.2120    4.7460  -17.8040 C   0  0  0  0  0  0  0  0  0  0  0  0
   -9.6920    4.8760  -16.4960 C   0  0  0  0  0  0  0  0  0  0  0  0
   -8.3340    5.1470  -16.2280 C   0  0  0  0  0  0  0  0  0  0  0  0
   -8.8450    5.3170  -11.1750 C   0  0  0  0  0  0  0  0  0  0  0  0
   -8.7140    6.5820  -10.5710 C   0  0  0  0  0  0  0  0  0  0  0  0
   -8.7040    6.6470   -8.8530 S   0  0  0  0  0  0  0  0  0  0  0  0
   -8.8860    4.9630   -8.7590 C   0  0  0  0  0  0  0  0  0  0  0  0
   -8.9430    4.3500  -10.1000 C   0  0  0  0  0  0  0  0  0  0  0  0
   -9.0900    2.8670  -10.2480 C   0  0  0  0  0  0  0  0  0  0  0  0
   -8.6700    2.2650   -8.9140 C   0  0  0  0  0  0  0  0  0  0  0  0
   -9.3890    2.7810   -7.6990 C   0  0  0  0  0  0  0  0  0  0  0  0
   -8.9800    4.2320   -7.4470 C   0  0  0  0  0  0  0  0  0  0  0  0
   -9.2360    6.4590  -14.0660 H   0  0  0  0  0  0  0  0  0  0  0  0
   -7.5110    4.2380  -14.5250 H   0  0  0  0  0  0  0  0  0  0  0  0
   -6.7030    6.9610  -15.1670 H   0  0  0  0  0  0  0  0  0  0  0  0
   -5.9370    6.0450  -13.9710 H   0  0  0  0  0  0  0  0  0  0  0  0
   -5.0870    4.5690  -15.7520 H   0  0  0  0  0  0  0  0  0  0  0  0
   -4.7810    6.2280  -15.9530 H   0  0  0  0  0  0  0  0  0  0  0  0
   -5.9800    6.5730  -17.6500 H   0  0  0  0  0  0  0  0  0  0  0  0
   -5.5870    4.8700  -17.8790 H   0  0  0  0  0  0  0  0  0  0  0  0
   -7.2180    5.3070  -19.5190 H   0  0  0  0  0  0  0  0  0  0  0  0
   -9.7870    4.7820  -19.8970 H   0  0  0  0  0  0  0  0  0  0  0  0
  -11.2630    4.5370  -17.9660 H   0  0  0  0  0  0  0  0  0  0  0  0
  -10.3100    4.7700  -15.5970 H   0  0  0  0  0  0  0  0  0  0  0  0
   -8.6280    7.4520  -11.2320 H   0  0  0  0  0  0  0  0  0  0  0  0
   -8.6330    2.4470  -11.1440 H   0  0  0  0  0  0  0  0  0  0  0  0
  -10.1560    2.6630  -10.3580 H   0  0  0  0  0  0  0  0  0  0  0  0
   -7.5990    2.4360   -8.7910 H   0  0  0  0  0  0  0  0  0  0  0  0
   -8.8000    1.1910   -8.9460 H   0  0  0  0  0  0  0  0  0  0  0  0
   -9.1150    2.1630   -6.8390 H   0  0  0  0  0  0  0  0  0  0  0  0
  -10.4750    2.7040   -7.8280 H   0  0  0  0  0  0  0  0  0  0  0  0
   -9.7100    4.7040   -6.7780 H   0  0  0  0  0  0  0  0  0  0  0  0
   -8.0020    4.2570   -6.9490 H   0  0  0  0  0  0  0  0  0  0  0  0
  1  2  2  0
  2  3  1  0
  3  4  1  0
  4  5  1  0
  5  6  1  0
  6  7  1  0
  7  8  1  0
  8  9  2  0
  9 10  1  0
 10 11  2  0
 11 12  1  0
 12 13  2  0
  2 14  1  0
 14 15  2  0
 15 16  1  0
 16 17  1  0
 17 18  2  0
 18 19  1  0
 19 20  1  0
 20 21  1  0
 21 22  1  0
 13  4  1  0
 13  8  1  0
 18 14  1  0
 22 17  1  0
  3 23  1  0
  4 24  1  0
  5 25  1  0
  5 26  1  0
  6 27  1  0
  6 28  1  0
  7 29  1  0
  7 30  1  0
  9 31  1  0
 10 32  1  0
 11 33  1  0
 12 34  1  0
 15 35  1  0
 19 36  1  0
 19 37  1  0
 20 38  1  0
 20 39  1  0
 21 40  1  0
 21 41  1  0
 22 42  1  0
 22 43  1  0
A    1
 O1 
A    2
 C1 
A    3
 N1 
A    4
 C2 
A    5
 C3 
A    6
 C4 
A    7
 C5 
A    8
 C6 
A    9
 C7 
A   10
 C8 
A   11
 C9 
A   12
 C10
A   13
 C11
A   14
 C12
A   15
 C13
A   16
 S1 
A   17
 C14
A   18
 C15
A   19
 C16
A   20
 C17
A   21
 C18
A   22
 C19
A   23
 H1 
A   24
 H2 
A   25
 H3 
A   26
 H4 
A   27
 H5 
A   28
 H6 
A   29
 H7 
A   30
 H8 
A   31
 H9 
A   32
 H10
A   33
 H11
A   34
 H12
A   35
 H13
A   36
 H14
A   37
 H15
A   38
 H16
A   39
 H17
A   40
 H18
A   41
 H19
A   42
 H20
A   43
 H21
M  END
>  <ref_pdb>  (365) 
x0051_0B

>  <ref_mols>  (365) 
x0969_1B,x0455_0B

>  <original SMILES>  (365) 
[H]c1sc2c(c1C(=O)N([H])C1([H])c3c([H])c([H])c([H])c([H])c3C([H])([H])C([H])([H])C1([H])[H])C([H])([H])C([H])([H])C([H])([H])C2([H])[H]

>  <index>  (365) 
9

>  <∆∆G>  (365) 
-7.367523

>  <∆G_bound>  (365) 
-6.817839

>  <∆G_unbound>  (365) 
0.549684

>  <comRMSD>  (365) 
0.58065

>  <N_constrained_atoms>  (365) 
20.0

>  <N_unconstrained_atoms>  (365) 
2.0

>  <runtime>  (365) 
65.87245

>  <LE>  (365) 
0.334887

>  <percent_hybrid>  (365) 
50.0

>  <dist>  (365) 
9.0

>  <ecfp4>  (365) 
0.111111

>  <daylight>  (365) 
0.186301

>  <topodist>  (365) 
2.0

>  <mces>  (365) 
24.0

>  <tdn>  (365) 
0.0

>  <tup>  (365) 
1.0

>  <rdn>  (365) 
0.0

>  <rup>  (365) 
0.0

>  <ldn>  (365) 
1.0

>  <lup>  (365) 
0.0

>  <mut>  (365) 
6.0

>  <maj>  (365) 
6.0

>  <min>  (365) 
0.0

>  <hyb>  (365) 
1.0

>  <sub>  (365) 
0.0

>  <query_index>  (365) 
204.0

>  <max_hit_Tanimoto>  (365) 
0.192168

>  <largest_ring>  (365) 
0

>  <N_interactions_kept>  (365) 
1.5

>  <N_interactions_lost>  (365) 
1.0

>  <interaction_uniqueness_metric>  (365) 
0.186645

>  <ad_hoc_penalty>  (365) 
-43.745764

>  <N_rotatable_bonds>  (365) 
2

>  <N_HA>  (365) 
22

>  <cluster>  (365) 
6207

>  <N_interactions>  (365) 
7

>  <Enamine>  (365) 
1

>  <Mcule>  (365) 
0

>  <N_PAINS>  (365) 
0

>  <UFF_Gibbs>  (365) 
94.201181

>  <strain_per_HA>  (365) 
4.281872

>  <intxn_scored>  (365) 
8.5

>  <saltbridge:HIS:51>  (365) 
0

>  <pistack:HIS:51>  (365) 
1

>  <hydroph_interaction:HIS:51>  (365) 
0

>  <hbond:ALA:132>  (365) 
0

>  <hbond:SER:135>  (365) 
0

>  <hydroph_interaction:TYR:150>  (365) 
1

>  <pistack:TYR:161>  (365) 
0

>  <hydroph_interaction:TYR:161>  (365) 
3

>  <hydroph_interaction:ASP:83>  (365) 
1

>  <hbond:TYR:130>  (365) 
0

>  <hydroph_interaction:ALA:132>  (365) 
0

>  <hbond:HIS:51>  (365) 
0

>  <hbond:ASP:129>  (365) 
0

>  <hbond:TYR:150>  (365) 
0

>  <hbond:GLY:151>  (365) 
0

>  <hbond:TYR:161>  (365) 
1

>  <hydroph_interaction:TYR:130>  (365) 
0

>  <hydroph_interaction:PRO:131>  (365) 
0

>  <hydroph_interaction:ASP:129>  (365) 
0

>  <saltbridge:ASP:75>  (365) 
0

>  <saltbridge:ASP:83>  (365) 
0

>  <hbond:ASN:152>  (365) 
0

>  <hydroph_interaction:ASN:152>  (365) 
0

>  <halogenbond:TYR:150>  (365) 
0

>  <hbond:ASP:83>  (365) 
0

>  <hydroph_interaction:VAL:155>  (365) 
0

>  <pication:TYR:161>  (365) 
0

>  <hbond:PRO:131>  (365) 
0

>  <saltbridge:ASP:129>  (365) 
0

>  <hbond:THR:134>  (365) 
0

>  <pication:HIS:51>  (365) 
0

>  <hbond:SER:81>  (365) 
0

>  <hydroph_interaction:THR:134>  (365) 
0

>  <hydroph_interaction:MET:49>  (365) 
0

$$$$
CSSS00000689609
     RDKit          3D

 24 25  0  0  0  0  0  0  0  0999 V2000
   -5.8850    5.4060  -21.2930 C   0  0  0  0  0  0  0  0  0  0  0  0
   -6.0760    5.4050  -19.7840 C   0  0  0  0  0  0  0  0  0  0  0  0
   -7.4300    5.2100  -19.3690 N   0  0  0  0  0  0  0  0  0  0  0  0
   -7.6850    5.1920  -18.0310 C   0  0  0  0  0  0  0  0  0  0  0  0
   -8.9950    4.9880  -17.6320 C   0  0  0  0  0  0  0  0  0  0  0  0
   -9.9770    4.7950  -18.5980 C   0  0  0  0  0  0  0  0  0  0  0  0
   -9.3370    4.9690  -16.2780 C   0  0  0  0  0  0  0  0  0  0  0  0
   -8.3440    5.1490  -15.3190 C   0  0  0  0  0  0  0  0  0  0  0  0
   -7.0250    5.3420  -15.7130 C   0  0  0  0  0  0  0  0  0  0  0  0
   -6.6770    5.3660  -17.0710 C   0  0  0  0  0  0  0  0  0  0  0  0
   -5.3540    5.5520  -17.5140 C   0  0  0  0  0  0  0  0  0  0  0  0
   -4.3480    5.7130  -16.5940 O   0  0  0  0  0  0  0  0  0  0  0  0
   -5.0480    5.5720  -18.8810 C   0  0  0  0  0  0  0  0  0  0  0  0
   -6.0170    6.4190  -21.6790 H   0  0  0  0  0  0  0  0  0  0  0  0
   -4.8820    5.0520  -21.5430 H   0  0  0  0  0  0  0  0  0  0  0  0
   -6.6150    4.7430  -21.7670 H   0  0  0  0  0  0  0  0  0  0  0  0
   -9.6710    5.2940  -19.5290 H   0  0  0  0  0  0  0  0  0  0  0  0
  -10.9190    5.2680  -18.2890 H   0  0  0  0  0  0  0  0  0  0  0  0
  -10.2140    3.7690  -18.8330 H   0  0  0  0  0  0  0  0  0  0  0  0
  -10.3630    4.8100  -15.9810 H   0  0  0  0  0  0  0  0  0  0  0  0
   -8.6010    5.1350  -14.2640 H   0  0  0  0  0  0  0  0  0  0  0  0
   -6.2600    5.4750  -14.9510 H   0  0  0  0  0  0  0  0  0  0  0  0
   -3.6040    5.1420  -16.8380 H   0  0  0  0  0  0  0  0  0  0  0  0
   -4.0210    5.7170  -19.2160 H   0  0  0  0  0  0  0  0  0  0  0  0
  1  2  1  0
  2  3  2  0
  3  4  1  0
  4  5  2  0
  5  6  1  0
  5  7  1  0
  7  8  2  0
  8  9  1  0
  9 10  2  0
 10 11  1  0
 11 12  1  0
 11 13  2  0
 13  2  1  0
 10  4  1  0
  1 14  1  0
  1 15  1  0
  1 16  1  0
  6 17  1  0
  6 18  1  0
  6 19  1  0
  7 20  1  0
  8 21  1  0
  9 22  1  0
 12 23  1  0
 13 24  1  0
A    1
 C1 
A    2
 C2 
A    3
 N1 
A    4
 C3 
A    5
 C4 
A    6
 C5 
A    7
 C6 
A    8
 C7 
A    9
 C8 
A   10
 C9 
A   11
 C10
A   12
 O1 
A   13
 C11
A   14
 H1 
A   15
 H2 
A   16
 H3 
A   17
 H4 
A   18
 H5 
A   19
 H6 
A   20
 H7 
A   21
 H8 
A   22
 H9 
A   23
 H10
A   24
 H11
M  END
>  <ref_pdb>  (366) 
x0051_0B

>  <ref_mols>  (366) 
x0425_0B,x0435_0B

>  <original SMILES>  (366) 
[H]Oc1c([H])c(C([H])([H])[H])nc2c(C([H])([H])[H])c([H])c([H])c([H])c12

>  <index>  (366) 
2017

>  <∆∆G>  (366) 
-7.710455

>  <∆G_bound>  (366) 
-7.996073

>  <∆G_unbound>  (366) 
-0.285618

>  <comRMSD>  (366) 
0.597745

>  <N_constrained_atoms>  (366) 
13.0

>  <N_unconstrained_atoms>  (366) 
1.0

>  <runtime>  (366) 
27.548598

>  <LE>  (366) 
0.550747

>  <percent_hybrid>  (366) 
40.0

>  <dist>  (366) 
3.0

>  <ecfp4>  (366) 
0.348837

>  <daylight>  (366) 
0.52439

>  <topodist>  (366) 
2.0

>  <mces>  (366) 
13.0

>  <tdn>  (366) 
1.0

>  <tup>  (366) 
1.0

>  <rdn>  (366) 
0.0

>  <rup>  (366) 
0.0

>  <ldn>  (366) 
0.0

>  <lup>  (366) 
0.0

>  <mut>  (366) 
1.0

>  <maj>  (366) 
1.0

>  <min>  (366) 
0.0

>  <hyb>  (366) 
0.0

>  <sub>  (366) 
1.0

>  <query_index>  (366) 
107.0

>  <max_hit_Tanimoto>  (366) 
0.159317

>  <largest_ring>  (366) 
6

>  <N_interactions_kept>  (366) 
1.5

>  <N_interactions_lost>  (366) 
2.0

>  <interaction_uniqueness_metric>  (366) 
0.034019

>  <ad_hoc_penalty>  (366) 
-9.855419

>  <N_rotatable_bonds>  (366) 
3

>  <N_HA>  (366) 
13

>  <cluster>  (366) 
4371

>  <N_interactions>  (366) 
3

>  <Enamine>  (366) 
1

>  <Mcule>  (366) 
0

>  <N_PAINS>  (366) 
0

>  <UFF_Gibbs>  (366) 
28.803437

>  <strain_per_HA>  (366) 
2.215649

>  <intxn_scored>  (366) 
8.5

>  <saltbridge:HIS:51>  (366) 
0

>  <pistack:HIS:51>  (366) 
0

>  <hydroph_interaction:HIS:51>  (366) 
0

>  <hbond:ALA:132>  (366) 
0

>  <hbond:SER:135>  (366) 
0

>  <hydroph_interaction:TYR:150>  (366) 
1

>  <pistack:TYR:161>  (366) 
2

>  <hydroph_interaction:TYR:161>  (366) 
0

>  <hydroph_interaction:ASP:83>  (366) 
0

>  <hbond:TYR:130>  (366) 
0

>  <hydroph_interaction:ALA:132>  (366) 
0

>  <hbond:HIS:51>  (366) 
0

>  <hbond:ASP:129>  (366) 
0

>  <hbond:TYR:150>  (366) 
0

>  <hbond:GLY:151>  (366) 
0

>  <hbond:TYR:161>  (366) 
0

>  <hydroph_interaction:TYR:130>  (366) 
0

>  <hydroph_interaction:PRO:131>  (366) 
0

>  <hydroph_interaction:ASP:129>  (366) 
0

>  <saltbridge:ASP:75>  (366) 
0

>  <saltbridge:ASP:83>  (366) 
0

>  <hbond:ASN:152>  (366) 
0

>  <hydroph_interaction:ASN:152>  (366) 
0

>  <halogenbond:TYR:150>  (366) 
0

>  <hbond:ASP:83>  (366) 
0

>  <hydroph_interaction:VAL:155>  (366) 
0

>  <pication:TYR:161>  (366) 
0

>  <hbond:PRO:131>  (366) 
0

>  <saltbridge:ASP:129>  (366) 
0

>  <hbond:THR:134>  (366) 
0

>  <pication:HIS:51>  (366) 
0

>  <hbond:SER:81>  (366) 
0

>  <hydroph_interaction:THR:134>  (366) 
0

>  <hydroph_interaction:MET:49>  (366) 
0

$$$$
CSSB00013023691
     RDKit          3D

 24 25  0  0  0  0  0  0  0  0999 V2000
   -4.9690    5.8080  -17.5870 C   0  0  0  0  0  0  0  0  0  0  0  0
   -6.2310    5.6540  -16.8720 N   0  0  0  0  0  0  0  0  0  0  0  0
   -6.2960    5.8190  -15.5020 N   0  0  0  0  0  0  0  0  0  0  0  0
   -7.6000    5.5960  -15.1770 C   0  0  0  0  0  0  0  0  0  0  0  0
   -8.1340    5.6790  -13.7240 C   0  0  0  0  0  0  0  0  0  0  0  0
   -7.4530    5.4030  -12.7360 O   0  0  0  0  0  0  0  0  0  0  0  0
   -9.4550    6.1010  -13.6140 N   0  0  0  0  0  0  0  0  0  0  0  0
   -9.8330    7.4590  -13.7180 N   0  0  0  0  0  0  0  0  0  0  0  0
   -8.3150    5.2790  -16.4660 C   0  0  0  0  0  0  0  0  0  0  0  0
   -9.6290    4.9740  -16.6870 C   0  0  0  0  0  0  0  0  0  0  0  0
  -10.0070    4.7160  -18.1440 C   0  0  0  0  0  0  0  0  0  0  0  0
   -9.0120    4.7990  -19.1400 C   0  0  0  0  0  0  0  0  0  0  0  0
   -7.6920    5.1190  -18.7870 C   0  0  0  0  0  0  0  0  0  0  0  0
   -7.3980    5.3440  -17.4600 C   0  0  0  0  0  0  0  0  0  0  0  0
   -4.7360    6.8670  -17.7350 H   0  0  0  0  0  0  0  0  0  0  0  0
   -4.1340    5.3360  -17.0580 H   0  0  0  0  0  0  0  0  0  0  0  0
   -5.0410    5.3590  -18.5860 H   0  0  0  0  0  0  0  0  0  0  0  0
  -10.1630    5.3600  -13.6280 H   0  0  0  0  0  0  0  0  0  0  0  0
   -9.0130    7.9730  -14.0600 H   0  0  0  0  0  0  0  0  0  0  0  0
  -10.5020    7.5280  -14.4930 H   0  0  0  0  0  0  0  0  0  0  0  0
  -10.3470    4.9220  -15.8800 H   0  0  0  0  0  0  0  0  0  0  0  0
  -11.0340    4.4730  -18.3880 H   0  0  0  0  0  0  0  0  0  0  0  0
   -9.2660    4.6170  -20.1850 H   0  0  0  0  0  0  0  0  0  0  0  0
   -6.9840    5.1620  -19.6230 H   0  0  0  0  0  0  0  0  0  0  0  0
  1  2  1  0
  2  3  1  0
  3  4  2  0
  4  5  1  0
  5  6  2  0
  5  7  1  0
  7  8  1  0
  4  9  1  0
  9 10  2  0
 10 11  1  0
 11 12  2  0
 12 13  1  0
 13 14  2  0
 14  2  1  0
 14  9  1  0
  1 15  1  0
  1 16  1  0
  1 17  1  0
  7 18  1  0
  8 19  1  0
  8 20  1  0
 10 21  1  0
 11 22  1  0
 12 23  1  0
 13 24  1  0
A    1
 C1 
A    2
 N1 
A    3
 N2 
A    4
 C2 
A    5
 C3 
A    6
 O1 
A    7
 N3 
A    8
 N4 
A    9
 C4 
A   10
 C5 
A   11
 C6 
A   12
 C7 
A   13
 C8 
A   14
 C9 
A   15
 H1 
A   16
 H2 
A   17
 H3 
A   18
 H4 
A   19
 H5 
A   20
 H6 
A   21
 H7 
A   22
 H8 
A   23
 H9 
A   24
 H10
M  END
>  <ref_pdb>  (367) 
x0051_0B

>  <ref_mols>  (367) 
x0951_0B,x0969_0B

>  <original SMILES>  (367) 
[H]c1c([H])c([H])c2c(c(C(=O)N([H])N([H])[H])nn2C([H])([H])[H])c1[H]

>  <index>  (367) 
1655

>  <∆∆G>  (367) 
-6.178092

>  <∆G_bound>  (367) 
-6.021549

>  <∆G_unbound>  (367) 
0.156543

>  <comRMSD>  (367) 
0.801677

>  <N_constrained_atoms>  (367) 
16.0

>  <N_unconstrained_atoms>  (367) 
1.0

>  <runtime>  (367) 
31.221552

>  <LE>  (367) 
0.363417

>  <percent_hybrid>  (367) 
40.0

>  <dist>  (367) 
5.0

>  <ecfp4>  (367) 
0.210526

>  <daylight>  (367) 
0.418478

>  <topodist>  (367) 
3.0

>  <mces>  (367) 
14.0

>  <tdn>  (367) 
1.0

>  <tup>  (367) 
1.0

>  <rdn>  (367) 
1.0

>  <rup>  (367) 
0.0

>  <ldn>  (367) 
0.0

>  <lup>  (367) 
0.0

>  <mut>  (367) 
1.0

>  <maj>  (367) 
1.0

>  <min>  (367) 
0.0

>  <hyb>  (367) 
1.0

>  <sub>  (367) 
2.0

>  <query_index>  (367) 
121.0

>  <max_hit_Tanimoto>  (367) 
0.250829

>  <largest_ring>  (367) 
6

>  <N_interactions_kept>  (367) 
0.0

>  <N_interactions_lost>  (367) 
3.0

>  <interaction_uniqueness_metric>  (367) 
0.14614

>  <ad_hoc_penalty>  (367) 
-12.663117

>  <N_rotatable_bonds>  (367) 
3

>  <N_HA>  (367) 
14

>  <cluster>  (367) 
4701

>  <N_interactions>  (367) 
6

>  <Enamine>  (367) 
1

>  <Mcule>  (367) 
0

>  <N_PAINS>  (367) 
0

>  <UFF_Gibbs>  (367) 
38.427016

>  <strain_per_HA>  (367) 
2.744787

>  <intxn_scored>  (367) 
8.5

>  <saltbridge:HIS:51>  (367) 
0

>  <pistack:HIS:51>  (367) 
0

>  <hydroph_interaction:HIS:51>  (367) 
0

>  <hbond:ALA:132>  (367) 
0

>  <hbond:SER:135>  (367) 
0

>  <hydroph_interaction:TYR:150>  (367) 
1

>  <pistack:TYR:161>  (367) 
1

>  <hydroph_interaction:TYR:161>  (367) 
2

>  <hydroph_interaction:ASP:83>  (367) 
0

>  <hbond:TYR:130>  (367) 
0

>  <hydroph_interaction:ALA:132>  (367) 
0

>  <hbond:HIS:51>  (367) 
2

>  <hbond:ASP:129>  (367) 
0

>  <hbond:TYR:150>  (367) 
0

>  <hbond:GLY:151>  (367) 
0

>  <hbond:TYR:161>  (367) 
0

>  <hydroph_interaction:TYR:130>  (367) 
0

>  <hydroph_interaction:PRO:131>  (367) 
0

>  <hydroph_interaction:ASP:129>  (367) 
0

>  <saltbridge:ASP:75>  (367) 
0

>  <saltbridge:ASP:83>  (367) 
0

>  <hbond:ASN:152>  (367) 
0

>  <hydroph_interaction:ASN:152>  (367) 
0

>  <halogenbond:TYR:150>  (367) 
0

>  <hbond:ASP:83>  (367) 
0

>  <hydroph_interaction:VAL:155>  (367) 
0

>  <pication:TYR:161>  (367) 
0

>  <hbond:PRO:131>  (367) 
0

>  <saltbridge:ASP:129>  (367) 
0

>  <hbond:THR:134>  (367) 
0

>  <pication:HIS:51>  (367) 
0

>  <hbond:SER:81>  (367) 
0

>  <hydroph_interaction:THR:134>  (367) 
0

>  <hydroph_interaction:MET:49>  (367) 
0

$$$$
CSSS00009817139
     RDKit          3D

 20 21  0  0  0  0  0  0  0  0999 V2000
  -10.9460    4.9640  -18.5840 C   0  0  0  0  0  0  0  0  0  0  0  0
   -9.5600    4.9910  -18.0010 C   0  0  0  0  0  0  0  0  0  0  0  0
   -8.4920    5.0970  -19.0710 C   0  0  0  0  0  0  0  0  0  0  0  0
   -7.0850    5.1920  -18.5290 C   0  0  0  0  0  0  0  0  0  0  0  0
   -5.9090    5.3210  -19.4750 C   0  0  0  0  0  0  0  0  0  0  0  0
   -5.9290    5.3730  -21.3660 Br  0  0  0  0  0  0  0  0  0  0  0  0
   -4.6720    5.4150  -18.8940 C   0  0  0  0  0  0  0  0  0  0  0  0
   -4.4420    5.3970  -17.5610 N   0  0  0  0  0  0  0  0  0  0  0  0
   -5.5240    5.2730  -16.7440 C   0  0  0  0  0  0  0  0  0  0  0  0
   -6.8560    5.1680  -17.1490 C   0  0  0  0  0  0  0  0  0  0  0  0
   -7.9160    5.0450  -16.2260 C   0  0  0  0  0  0  0  0  0  0  0  0
   -9.2520    4.9590  -16.6410 C   0  0  0  0  0  0  0  0  0  0  0  0
  -11.4560    4.0270  -18.4630 H   0  0  0  0  0  0  0  0  0  0  0  0
  -11.5310    5.7160  -18.1060 H   0  0  0  0  0  0  0  0  0  0  0  0
  -10.9370    5.2740  -19.6230 H   0  0  0  0  0  0  0  0  0  0  0  0
   -8.7430    5.1150  -20.1280 H   0  0  0  0  0  0  0  0  0  0  0  0
   -3.7730    5.5130  -19.4980 H   0  0  0  0  0  0  0  0  0  0  0  0
   -5.2700    5.2610  -15.6880 H   0  0  0  0  0  0  0  0  0  0  0  0
   -7.7100    5.0210  -15.1550 H   0  0  0  0  0  0  0  0  0  0  0  0
  -10.0370    4.8750  -15.8940 H   0  0  0  0  0  0  0  0  0  0  0  0
  1  2  1  0
  2  3  2  0
  3  4  1  0
  4  5  2  0
  5  6  1  0
  5  7  1  0
  7  8  2  0
  8  9  1  0
  9 10  2  0
 10 11  1  0
 11 12  2  0
 12  2  1  0
 10  4  1  0
  1 13  1  0
  1 14  1  0
  1 15  1  0
  3 16  1  0
  7 17  1  0
  9 18  1  0
 11 19  1  0
 12 20  1  0
A    1
 C1 
A    2
 C2 
A    3
 C3 
A    4
 C4 
A    5
 C5 
A    6
BR1 
A    7
 C6 
A    8
 N1 
A    9
 C7 
A   10
 C8 
A   11
 C9 
A   12
 C10
A   13
 H1 
A   14
 H2 
A   15
 H3 
A   16
 H4 
A   17
 H5 
A   18
 H6 
A   19
 H7 
A   20
 H8 
M  END
>  <ref_pdb>  (368) 
x0051_0B

>  <ref_mols>  (368) 
x0727_0B,x0605_0B

>  <original SMILES>  (368) 
[H]c1nc([H])c2c([H])c([H])c(C([H])([H])[H])c([H])c2c1Br

>  <index>  (368) 
3485

>  <∆∆G>  (368) 
-6.540215

>  <∆G_bound>  (368) 
-6.548208

>  <∆G_unbound>  (368) 
-0.007993

>  <comRMSD>  (368) 
0.785564

>  <N_constrained_atoms>  (368) 
12.0

>  <N_unconstrained_atoms>  (368) 
1.0

>  <runtime>  (368) 
25.290552

>  <LE>  (368) 
0.503093

>  <percent_hybrid>  (368) 
25.0

>  <dist>  (368) 
3.0

>  <ecfp4>  (368) 
0.302326

>  <daylight>  (368) 
0.474359

>  <topodist>  (368) 
3.0

>  <mces>  (368) 
12.0

>  <tdn>  (368) 
2.0

>  <tup>  (368) 
1.0

>  <rdn>  (368) 
0.0

>  <rup>  (368) 
0.0

>  <ldn>  (368) 
0.0

>  <lup>  (368) 
0.0

>  <mut>  (368) 
0.0

>  <maj>  (368) 
0.0

>  <min>  (368) 
0.0

>  <hyb>  (368) 
0.0

>  <sub>  (368) 
2.0

>  <query_index>  (368) 
74.0

>  <max_hit_Tanimoto>  (368) 
0.315294

>  <largest_ring>  (368) 
6

>  <N_interactions_kept>  (368) 
0.5

>  <N_interactions_lost>  (368) 
3.0

>  <interaction_uniqueness_metric>  (368) 
0.034019

>  <ad_hoc_penalty>  (368) 
-1.698585

>  <N_rotatable_bonds>  (368) 
1

>  <N_HA>  (368) 
12

>  <cluster>  (368) 
2986

>  <N_interactions>  (368) 
3

>  <Enamine>  (368) 
1

>  <Mcule>  (368) 
0

>  <N_PAINS>  (368) 
0

>  <UFF_Gibbs>  (368) 
33.8129

>  <strain_per_HA>  (368) 
2.817742

>  <intxn_scored>  (368) 
8.5

>  <saltbridge:HIS:51>  (368) 
0

>  <pistack:HIS:51>  (368) 
0

>  <hydroph_interaction:HIS:51>  (368) 
0

>  <hbond:ALA:132>  (368) 
0

>  <hbond:SER:135>  (368) 
0

>  <hydroph_interaction:TYR:150>  (368) 
1

>  <pistack:TYR:161>  (368) 
2

>  <hydroph_interaction:TYR:161>  (368) 
0

>  <hydroph_interaction:ASP:83>  (368) 
0

>  <hbond:TYR:130>  (368) 
0

>  <hydroph_interaction:ALA:132>  (368) 
0

>  <hbond:HIS:51>  (368) 
0

>  <hbond:ASP:129>  (368) 
0

>  <hbond:TYR:150>  (368) 
0

>  <hbond:GLY:151>  (368) 
0

>  <hbond:TYR:161>  (368) 
0

>  <hydroph_interaction:TYR:130>  (368) 
0

>  <hydroph_interaction:PRO:131>  (368) 
0

>  <hydroph_interaction:ASP:129>  (368) 
0

>  <saltbridge:ASP:75>  (368) 
0

>  <saltbridge:ASP:83>  (368) 
0

>  <hbond:ASN:152>  (368) 
0

>  <hydroph_interaction:ASN:152>  (368) 
0

>  <halogenbond:TYR:150>  (368) 
0

>  <hbond:ASP:83>  (368) 
0

>  <hydroph_interaction:VAL:155>  (368) 
0

>  <pication:TYR:161>  (368) 
0

>  <hbond:PRO:131>  (368) 
0

>  <saltbridge:ASP:129>  (368) 
0

>  <hbond:THR:134>  (368) 
0

>  <pication:HIS:51>  (368) 
0

>  <hbond:SER:81>  (368) 
0

>  <hydroph_interaction:THR:134>  (368) 
0

>  <hydroph_interaction:MET:49>  (368) 
0

$$$$
Z1317597582
     RDKit          3D

 32 34  0  0  0  0  0  0  0  0999 V2000
   -7.8540    5.2120  -15.1560 C   0  0  0  0  0  0  0  0  0  0  0  0
   -8.1810    5.1350  -16.6260 C   0  0  0  0  0  0  0  0  0  0  0  0
   -9.6570    4.8200  -16.8550 C   0  0  0  0  0  0  0  0  0  0  0  0
  -10.0240    4.7330  -18.2040 C   0  0  0  0  0  0  0  0  0  0  0  0
   -9.1210    4.9200  -19.3070 C   0  0  0  0  0  0  0  0  0  0  0  0
   -7.6610    5.2370  -18.9670 C   0  0  0  0  0  0  0  0  0  0  0  0
   -6.8570    5.4060  -20.0140 N   0  0  0  0  0  0  0  0  0  0  0  0
   -5.5850    5.6780  -19.7660 C   0  0  0  0  0  0  0  0  0  0  0  0
   -5.0300    5.7980  -18.5670 N   0  0  0  0  0  0  0  0  0  0  0  0
   -5.8460    5.6230  -17.5090 C   0  0  0  0  0  0  0  0  0  0  0  0
   -5.2360    5.7400  -16.2310 N   0  0  0  0  0  0  0  0  0  0  0  0
   -5.2350    7.1100  -15.6690 C   0  0  0  0  0  0  0  0  0  0  0  0
   -4.2820    7.2840  -14.6510 C   0  0  0  0  0  0  0  0  0  0  0  0
   -3.8520    5.9940  -14.1290 N   0  0  0  0  0  0  0  0  0  0  0  0
   -3.3510    5.0410  -14.9870 C   0  0  0  0  0  0  0  0  0  0  0  0
   -2.3510    4.1120  -14.5670 O   0  0  0  0  0  0  0  0  0  0  0  0
   -3.8990    5.0780  -16.2470 C   0  0  0  0  0  0  0  0  0  0  0  0
   -7.2360    5.3320  -17.6380 C   0  0  0  0  0  0  0  0  0  0  0  0
   -6.9190    4.6920  -14.9290 H   0  0  0  0  0  0  0  0  0  0  0  0
   -7.7380    6.2550  -14.8480 H   0  0  0  0  0  0  0  0  0  0  0  0
   -8.6520    4.7650  -14.5520 H   0  0  0  0  0  0  0  0  0  0  0  0
  -10.3630    4.6710  -16.0440 H   0  0  0  0  0  0  0  0  0  0  0  0
  -11.0670    4.5090  -18.4180 H   0  0  0  0  0  0  0  0  0  0  0  0
   -9.4570    4.8410  -20.3380 H   0  0  0  0  0  0  0  0  0  0  0  0
   -4.9390    5.8150  -20.6270 H   0  0  0  0  0  0  0  0  0  0  0  0
   -6.2330    7.2710  -15.2430 H   0  0  0  0  0  0  0  0  0  0  0  0
   -5.1160    7.8820  -16.4430 H   0  0  0  0  0  0  0  0  0  0  0  0
   -4.5540    7.8770  -13.7800 H   0  0  0  0  0  0  0  0  0  0  0  0
   -3.3870    7.7500  -15.0730 H   0  0  0  0  0  0  0  0  0  0  0  0
   -3.8350    5.7840  -13.1400 H   0  0  0  0  0  0  0  0  0  0  0  0
   -3.2230    5.6520  -16.8920 H   0  0  0  0  0  0  0  0  0  0  0  0
   -3.9260    4.0470  -16.6080 H   0  0  0  0  0  0  0  0  0  0  0  0
  1  2  1  0
  2  3  2  0
  3  4  1  0
  4  5  2  0
  5  6  1  0
  6  7  2  0
  7  8  1  0
  8  9  2  0
  9 10  1  0
 10 11  1  0
 11 12  1  0
 12 13  1  0
 13 14  1  0
 14 15  1  0
 15 16  2  0
 15 17  1  0
 10 18  2  0
 18  2  1  0
 18  6  1  0
 17 11  1  0
  1 19  1  0
  1 20  1  0
  1 21  1  0
  3 22  1  0
  4 23  1  0
  5 24  1  0
  8 25  1  0
 12 26  1  0
 12 27  1  0
 13 28  1  0
 13 29  1  0
 14 30  1  0
 17 31  1  0
 17 32  1  0
A    1
 C1 
A    2
 C2 
A    3
 C3 
A    4
 C4 
A    5
 C5 
A    6
 C6 
A    7
 N1 
A    8
 C7 
A    9
 N2 
A   10
 C8 
A   11
 N3 
A   12
 C9 
A   13
 C10
A   14
 N4 
A   15
 C11
A   16
 O1 
A   17
 C12
A   18
 C13
A   19
 H1 
A   20
 H2 
A   21
 H3 
A   22
 H4 
A   23
 H5 
A   24
 H6 
A   25
 H7 
A   26
 H8 
A   27
 H9 
A   28
 H10
A   29
 H11
A   30
 H12
A   31
 H13
A   32
 H14
M  END
>  <ref_pdb>  (369) 
x0051_0B

>  <ref_mols>  (369) 
x0429_0B,x0693_0B

>  <original SMILES>  (369) 
[H]c1nc(N2C([H])([H])C(=O)N([H])C([H])([H])C2([H])[H])c2c(C([H])([H])[H])c([H])c([H])c([H])c2n1

>  <index>  (369) 
1078

>  <∆∆G>  (369) 
-6.72181

>  <∆G_bound>  (369) 
-6.113601

>  <∆G_unbound>  (369) 
0.608209

>  <comRMSD>  (369) 
0.553713

>  <N_constrained_atoms>  (369) 
18.0

>  <N_unconstrained_atoms>  (369) 
1.0

>  <runtime>  (369) 
22.43392

>  <LE>  (369) 
0.353779

>  <percent_hybrid>  (369) 
20.0

>  <dist>  (369) 
3.0

>  <ecfp4>  (369) 
0.461538

>  <daylight>  (369) 
0.533835

>  <topodist>  (369) 
1.0

>  <mces>  (369) 
19.0

>  <tdn>  (369) 
0.0

>  <tup>  (369) 
1.0

>  <rdn>  (369) 
0.0

>  <rup>  (369) 
0.0

>  <ldn>  (369) 
0.0

>  <lup>  (369) 
0.0

>  <mut>  (369) 
1.0

>  <maj>  (369) 
1.0

>  <min>  (369) 
0.0

>  <hyb>  (369) 
1.0

>  <sub>  (369) 
0.0

>  <query_index>  (369) 
179.0

>  <max_hit_Tanimoto>  (369) 
0.398402

>  <largest_ring>  (369) 
6

>  <N_interactions_kept>  (369) 
3.0

>  <N_interactions_lost>  (369) 
1.5

>  <interaction_uniqueness_metric>  (369) 
0.034019

>  <ad_hoc_penalty>  (369) 
-12.938879

>  <N_rotatable_bonds>  (369) 
2

>  <N_HA>  (369) 
18

>  <cluster>  (369) 
5226

>  <N_interactions>  (369) 
3

>  <Enamine>  (369) 
1

>  <Mcule>  (369) 
0

>  <N_PAINS>  (369) 
0

>  <UFF_Gibbs>  (369) 
97.296095

>  <strain_per_HA>  (369) 
5.405339

>  <intxn_scored>  (369) 
8.5

>  <saltbridge:HIS:51>  (369) 
0

>  <pistack:HIS:51>  (369) 
0

>  <hydroph_interaction:HIS:51>  (369) 
0

>  <hbond:ALA:132>  (369) 
0

>  <hbond:SER:135>  (369) 
0

>  <hydroph_interaction:TYR:150>  (369) 
1

>  <pistack:TYR:161>  (369) 
2

>  <hydroph_interaction:TYR:161>  (369) 
0

>  <hydroph_interaction:ASP:83>  (369) 
0

>  <hbond:TYR:130>  (369) 
0

>  <hydroph_interaction:ALA:132>  (369) 
0

>  <hbond:HIS:51>  (369) 
0

>  <hbond:ASP:129>  (369) 
0

>  <hbond:TYR:150>  (369) 
0

>  <hbond:GLY:151>  (369) 
0

>  <hbond:TYR:161>  (369) 
0

>  <hydroph_interaction:TYR:130>  (369) 
0

>  <hydroph_interaction:PRO:131>  (369) 
0

>  <hydroph_interaction:ASP:129>  (369) 
0

>  <saltbridge:ASP:75>  (369) 
0

>  <saltbridge:ASP:83>  (369) 
0

>  <hbond:ASN:152>  (369) 
0

>  <hydroph_interaction:ASN:152>  (369) 
0

>  <halogenbond:TYR:150>  (369) 
0

>  <hbond:ASP:83>  (369) 
0

>  <hydroph_interaction:VAL:155>  (369) 
0

>  <pication:TYR:161>  (369) 
0

>  <hbond:PRO:131>  (369) 
0

>  <saltbridge:ASP:129>  (369) 
0

>  <hbond:THR:134>  (369) 
0

>  <pication:HIS:51>  (369) 
0

>  <hbond:SER:81>  (369) 
0

>  <hydroph_interaction:THR:134>  (369) 
0

>  <hydroph_interaction:MET:49>  (369) 
0

$$$$
Z3238868760
     RDKit          3D

 23 24  0  0  0  0  0  0  0  0999 V2000
   -9.9220    7.4420  -13.7210 C   0  0  0  0  0  0  0  0  0  0  0  0
   -8.8610    6.6030  -13.1900 N   0  0  0  0  0  0  0  0  0  0  0  0
   -8.8300    5.3030  -13.8640 C   0  0  0  0  0  0  0  0  0  0  0  0
   -8.0160    5.4300  -15.0330 C   0  0  0  0  0  0  0  0  0  0  0  0
   -6.5630    5.8170  -15.0420 C   0  0  0  0  0  0  0  0  0  0  0  0
   -5.8920    5.8820  -16.5810 S   0  0  0  0  0  0  0  0  0  0  0  0
   -7.4040    5.4270  -17.3150 C   0  0  0  0  0  0  0  0  0  0  0  0
   -7.6690    5.2600  -18.6780 C   0  0  0  0  0  0  0  0  0  0  0  0
   -6.3360    5.5300  -19.9930 Br  0  0  0  0  0  0  0  0  0  0  0  0
   -8.9460    4.8810  -19.1220 C   0  0  0  0  0  0  0  0  0  0  0  0
   -9.9680    4.6700  -18.2160 C   0  0  0  0  0  0  0  0  0  0  0  0
   -9.6570    4.8500  -16.8710 C   0  0  0  0  0  0  0  0  0  0  0  0
   -8.4340    5.2180  -16.3650 C   0  0  0  0  0  0  0  0  0  0  0  0
   -9.5250    8.3420  -14.2020 H   0  0  0  0  0  0  0  0  0  0  0  0
  -10.5700    7.7720  -12.9080 H   0  0  0  0  0  0  0  0  0  0  0  0
  -10.5440    6.9070  -14.4500 H   0  0  0  0  0  0  0  0  0  0  0  0
   -7.9710    7.0610  -13.3190 H   0  0  0  0  0  0  0  0  0  0  0  0
   -9.8430    4.9850  -14.1480 H   0  0  0  0  0  0  0  0  0  0  0  0
   -8.4090    4.5310  -13.2090 H   0  0  0  0  0  0  0  0  0  0  0  0
   -6.0960    6.0140  -14.0700 H   0  0  0  0  0  0  0  0  0  0  0  0
   -9.1390    4.7510  -20.1850 H   0  0  0  0  0  0  0  0  0  0  0  0
  -10.9740    4.3780  -18.5380 H   0  0  0  0  0  0  0  0  0  0  0  0
  -10.4350    4.6900  -16.1270 H   0  0  0  0  0  0  0  0  0  0  0  0
  1  2  1  0
  2  3  1  0
  3  4  1  0
  4  5  2  0
  5  6  1  0
  6  7  1  0
  7  8  2  0
  8  9  1  0
  8 10  1  0
 10 11  2  0
 11 12  1  0
 12 13  2  0
 13  4  1  0
 13  7  1  0
  1 14  1  0
  1 15  1  0
  1 16  1  0
  2 17  1  0
  3 18  1  0
  3 19  1  0
  5 20  1  0
 10 21  1  0
 11 22  1  0
 12 23  1  0
A    1
 C1 
A    2
 N1 
A    3
 C2 
A    4
 C3 
A    5
 C4 
A    6
 S1 
A    7
 C5 
A    8
 C6 
A    9
BR1 
A   10
 C7 
A   11
 C8 
A   12
 C9 
A   13
 C10
A   14
 H1 
A   15
 H2 
A   16
 H3 
A   17
 H4 
A   18
 H5 
A   19
 H6 
A   20
 H7 
A   21
 H8 
A   22
 H9 
A   23
 H10
M  END
>  <ref_pdb>  (370) 
x0051_0B

>  <ref_mols>  (370) 
x0951_0B,x0382_0B

>  <original SMILES>  (370) 
[H]c1sc2c(Br)c([H])c([H])c([H])c2c1C([H])([H])N([H])C([H])([H])[H]

>  <index>  (370) 
2035

>  <∆∆G>  (370) 
-7.518763

>  <∆G_bound>  (370) 
-7.512031

>  <∆G_unbound>  (370) 
0.006732

>  <comRMSD>  (370) 
0.369342

>  <N_constrained_atoms>  (370) 
13.0

>  <N_unconstrained_atoms>  (370) 
0.0

>  <runtime>  (370) 
33.238361

>  <LE>  (370) 
0.578366

>  <percent_hybrid>  (370) 
15.0

>  <dist>  (370) 
4.0

>  <ecfp4>  (370) 
0.175439

>  <daylight>  (370) 
0.093923

>  <topodist>  (370) 
0.0

>  <mces>  (370) 
14.0

>  <tdn>  (370) 
0.0

>  <tup>  (370) 
0.0

>  <rdn>  (370) 
0.0

>  <rup>  (370) 
0.0

>  <ldn>  (370) 
0.0

>  <lup>  (370) 
0.0

>  <mut>  (370) 
4.0

>  <maj>  (370) 
4.0

>  <min>  (370) 
0.0

>  <hyb>  (370) 
0.0

>  <sub>  (370) 
0.0

>  <query_index>  (370) 
248.0

>  <max_hit_Tanimoto>  (370) 
0.14988

>  <largest_ring>  (370) 
6

>  <N_interactions_kept>  (370) 
0.0

>  <N_interactions_lost>  (370) 
2.0

>  <interaction_uniqueness_metric>  (370) 
0.034019

>  <ad_hoc_penalty>  (370) 
-9.67601

>  <N_rotatable_bonds>  (370) 
3

>  <N_HA>  (370) 
13

>  <cluster>  (370) 
4355

>  <N_interactions>  (370) 
3

>  <Enamine>  (370) 
1

>  <Mcule>  (370) 
0

>  <N_PAINS>  (370) 
0

>  <UFF_Gibbs>  (370) 
30.037089

>  <strain_per_HA>  (370) 
2.310545

>  <intxn_scored>  (370) 
8.5

>  <saltbridge:HIS:51>  (370) 
0

>  <pistack:HIS:51>  (370) 
0

>  <hydroph_interaction:HIS:51>  (370) 
0

>  <hbond:ALA:132>  (370) 
0

>  <hbond:SER:135>  (370) 
0

>  <hydroph_interaction:TYR:150>  (370) 
1

>  <pistack:TYR:161>  (370) 
2

>  <hydroph_interaction:TYR:161>  (370) 
0

>  <hydroph_interaction:ASP:83>  (370) 
0

>  <hbond:TYR:130>  (370) 
0

>  <hydroph_interaction:ALA:132>  (370) 
0

>  <hbond:HIS:51>  (370) 
0

>  <hbond:ASP:129>  (370) 
0

>  <hbond:TYR:150>  (370) 
0

>  <hbond:GLY:151>  (370) 
0

>  <hbond:TYR:161>  (370) 
0

>  <hydroph_interaction:TYR:130>  (370) 
0

>  <hydroph_interaction:PRO:131>  (370) 
0

>  <hydroph_interaction:ASP:129>  (370) 
0

>  <saltbridge:ASP:75>  (370) 
0

>  <saltbridge:ASP:83>  (370) 
0

>  <hbond:ASN:152>  (370) 
0

>  <hydroph_interaction:ASN:152>  (370) 
0

>  <halogenbond:TYR:150>  (370) 
0

>  <hbond:ASP:83>  (370) 
0

>  <hydroph_interaction:VAL:155>  (370) 
0

>  <pication:TYR:161>  (370) 
0

>  <hbond:PRO:131>  (370) 
0

>  <saltbridge:ASP:129>  (370) 
0

>  <hbond:THR:134>  (370) 
0

>  <pication:HIS:51>  (370) 
0

>  <hbond:SER:81>  (370) 
0

>  <hydroph_interaction:THR:134>  (370) 
0

>  <hydroph_interaction:MET:49>  (370) 
0

$$$$
PV-006695652116
     RDKit          3D

 51 54  0  0  0  0  0  0  0  0999 V2000
   -3.2510    4.6860  -15.4070 C   0  0  0  0  0  0  0  0  0  0  0  0
   -2.8500    5.4240  -16.6270 C   0  0  0  0  0  0  0  0  0  0  0  0
   -3.8340    5.4290  -17.6090 C   0  0  0  0  0  0  0  0  0  0  0  0
   -3.5680    5.1300  -18.7780 O   0  0  0  0  0  0  0  0  0  0  0  0
   -5.1240    5.7860  -17.2300 N   0  0  0  0  0  0  0  0  0  0  0  0
   -6.1200    5.7700  -18.2730 C   0  0  0  0  0  0  0  0  0  0  0  0
   -7.3850    5.4090  -17.8330 C   0  0  0  0  0  0  0  0  0  0  0  0
   -8.3510    5.0790  -18.9480 C   0  0  0  0  0  0  0  0  0  0  0  0
   -9.7230    4.6870  -18.5150 C   0  0  0  0  0  0  0  0  0  0  0  0
   -9.9920    4.6570  -17.0910 C   0  0  0  0  0  0  0  0  0  0  0  0
   -9.0020    4.9950  -16.0340 C   0  0  0  0  0  0  0  0  0  0  0  0
   -7.7310    5.3590  -16.4360 C   0  0  0  0  0  0  0  0  0  0  0  0
   -6.7390    5.6950  -15.3450 C   0  0  0  0  0  0  0  0  0  0  0  0
   -7.4010    6.4560  -14.2560 N   0  0  0  0  0  0  0  0  0  0  0  0
   -7.3240    6.0740  -12.9080 C   0  0  0  0  0  0  0  0  0  0  0  0
   -6.2560    6.0950  -12.3040 O   0  0  0  0  0  0  0  0  0  0  0  0
   -8.5470    5.6740  -12.2850 C   0  0  0  0  0  0  0  0  0  0  0  0
   -8.6720    5.7260  -10.7500 C   0  0  0  0  0  0  0  0  0  0  0  0
   -8.8890    4.4680   -9.9240 C   0  0  0  0  0  0  0  0  0  0  0  0
   -9.0080    3.1940  -10.2830 O   0  0  0  0  0  0  0  0  0  0  0  0
   -9.3730    2.2270   -9.2910 C   0  0  0  0  0  0  0  0  0  0  0  0
   -9.5960    2.7230   -7.8620 C   0  0  0  0  0  0  0  0  0  0  0  0
   -9.1320    4.1140   -7.4660 C   0  0  0  0  0  0  0  0  0  0  0  0
   -8.9410    4.9440   -8.6350 N   0  0  0  0  0  0  0  0  0  0  0  0
   -8.7940    6.2900   -8.5230 N   0  0  0  0  0  0  0  0  0  0  0  0
   -8.6360    6.7540   -9.7810 C   0  0  0  0  0  0  0  0  0  0  0  0
   -5.5300    6.4240  -15.9720 C   0  0  0  0  0  0  0  0  0  0  0  0
   -2.8450    3.6710  -15.4190 H   0  0  0  0  0  0  0  0  0  0  0  0
   -2.9150    5.2260  -14.5170 H   0  0  0  0  0  0  0  0  0  0  0  0
   -4.3390    4.6050  -15.3450 H   0  0  0  0  0  0  0  0  0  0  0  0
   -1.9590    4.9640  -17.0350 H   0  0  0  0  0  0  0  0  0  0  0  0
   -2.6290    6.4570  -16.3490 H   0  0  0  0  0  0  0  0  0  0  0  0
   -5.8030    5.0750  -19.0600 H   0  0  0  0  0  0  0  0  0  0  0  0
   -6.1660    6.7790  -18.7050 H   0  0  0  0  0  0  0  0  0  0  0  0
   -8.0750    5.1220  -20.0010 H   0  0  0  0  0  0  0  0  0  0  0  0
  -10.4780    4.4400  -19.2250 H   0  0  0  0  0  0  0  0  0  0  0  0
  -10.9780    4.3630  -16.8020 H   0  0  0  0  0  0  0  0  0  0  0  0
   -9.2850    4.9470  -14.9850 H   0  0  0  0  0  0  0  0  0  0  0  0
   -6.3870    4.7380  -14.9300 H   0  0  0  0  0  0  0  0  0  0  0  0
   -8.0980    7.1360  -14.5300 H   0  0  0  0  0  0  0  0  0  0  0  0
   -8.8200    4.7130  -12.7390 H   0  0  0  0  0  0  0  0  0  0  0  0
   -9.2950    6.3570  -12.6960 H   0  0  0  0  0  0  0  0  0  0  0  0
   -8.6220    1.4330   -9.3030 H   0  0  0  0  0  0  0  0  0  0  0  0
  -10.2930    1.7780   -9.6340 H   0  0  0  0  0  0  0  0  0  0  0  0
   -9.1160    2.0230   -7.1630 H   0  0  0  0  0  0  0  0  0  0  0  0
  -10.6690    2.6590   -7.6430 H   0  0  0  0  0  0  0  0  0  0  0  0
   -8.1770    4.0820   -6.9250 H   0  0  0  0  0  0  0  0  0  0  0  0
   -9.8700    4.5790   -6.7990 H   0  0  0  0  0  0  0  0  0  0  0  0
   -8.5010    7.8230   -9.9290 H   0  0  0  0  0  0  0  0  0  0  0  0
   -5.7680    7.4750  -16.1120 H   0  0  0  0  0  0  0  0  0  0  0  0
   -4.6640    6.3920  -15.3000 H   0  0  0  0  0  0  0  0  0  0  0  0
  1  2  1  0
  2  3  1  0
  3  4  2  0
  3  5  1  0
  5  6  1  0
  6  7  1  0
  7  8  2  0
  8  9  1  0
  9 10  2  0
 10 11  1  0
 11 12  2  0
 12 13  1  0
 13 14  1  0
 14 15  1  0
 15 16  2  0
 15 17  1  0
 17 18  1  0
 18 19  2  0
 19 20  1  0
 20 21  1  0
 21 22  1  0
 22 23  1  0
 23 24  1  0
 24 25  1  0
 25 26  2  0
 13 27  1  0
 27  5  1  0
 12  7  1  0
 26 18  1  0
 24 19  1  0
  1 28  1  0
  1 29  1  0
  1 30  1  0
  2 31  1  0
  2 32  1  0
  6 33  1  0
  6 34  1  0
  8 35  1  0
  9 36  1  0
 10 37  1  0
 11 38  1  0
 13 39  1  0
 14 40  1  0
 17 41  1  0
 17 42  1  0
 21 43  1  0
 21 44  1  0
 22 45  1  0
 22 46  1  0
 23 47  1  0
 23 48  1  0
 26 49  1  0
 27 50  1  0
 27 51  1  0
A    1
 C1 
A    2
 C2 
A    3
 C3 
A    4
 O1 
A    5
 N1 
A    6
 C4 
A    7
 C5 
A    8
 C6 
A    9
 C7 
A   10
 C8 
A   11
 C9 
A   12
 C10
A   13
 C11
A   14
 N2 
A   15
 C12
A   16
 O2 
A   17
 C13
A   18
 C14
A   19
 C15
A   20
 O3 
A   21
 C16
A   22
 C17
A   23
 C18
A   24
 N3 
A   25
 N4 
A   26
 C19
A   27
 C20
A   28
 H1 
A   29
 H2 
A   30
 H3 
A   31
 H4 
A   32
 H5 
A   33
 H6 
A   34
 H7 
A   35
 H8 
A   36
 H9 
A   37
 H10
A   38
 H11
A   39
 H12
A   40
 H13
A   41
 H14
A   42
 H15
A   43
 H16
A   44
 H17
A   45
 H18
A   46
 H19
A   47
 H20
A   48
 H21
A   49
 H22
A   50
 H23
A   51
 H24
M  END
>  <ref_pdb>  (371) 
x0051_0B

>  <ref_mols>  (371) 
x0472_0B,x0969_1B

>  <original SMILES>  (371) 
[H]c1nn2c(c1C([H])([H])C(=O)N([H])C1([H])c3c([H])c([H])c([H])c([H])c3C([H])([H])N(C(=O)C([H])([H])C([H])([H])[H])C1([H])[H])OC([H])([H])C([H])([H])C2([H])[H]

>  <index>  (371) 
141

>  <∆∆G>  (371) 
-7.615646

>  <∆G_bound>  (371) 
-6.546598

>  <∆G_unbound>  (371) 
1.069048

>  <comRMSD>  (371) 
0.482829

>  <N_constrained_atoms>  (371) 
23.0

>  <N_unconstrained_atoms>  (371) 
4.0

>  <runtime>  (371) 
44.602444

>  <LE>  (371) 
0.282061

>  <percent_hybrid>  (371) 
44.0

>  <dist>  (371) 
10.0

>  <ecfp4>  (371) 
0.174757

>  <daylight>  (371) 
0.343575

>  <topodist>  (371) 
2.0

>  <mces>  (371) 
28.0

>  <tdn>  (371) 
0.0

>  <tup>  (371) 
1.0

>  <rdn>  (371) 
0.0

>  <rup>  (371) 
0.0

>  <ldn>  (371) 
0.0

>  <lup>  (371) 
1.0

>  <mut>  (371) 
6.0

>  <maj>  (371) 
6.0

>  <min>  (371) 
0.0

>  <hyb>  (371) 
2.0

>  <sub>  (371) 
0.0

>  <query_index>  (371) 
24.0

>  <max_hit_Tanimoto>  (371) 
0.280972

>  <largest_ring>  (371) 
0

>  <N_interactions_kept>  (371) 
2.5

>  <N_interactions_lost>  (371) 
1.0

>  <interaction_uniqueness_metric>  (371) 
0.103472

>  <ad_hoc_penalty>  (371) 
-27.980057

>  <N_rotatable_bonds>  (371) 
5

>  <N_HA>  (371) 
27

>  <cluster>  (371) 
6089

>  <N_interactions>  (371) 
6

>  <Enamine>  (371) 
1

>  <Mcule>  (371) 
0

>  <N_PAINS>  (371) 
0

>  <UFF_Gibbs>  (371) 
130.066791

>  <strain_per_HA>  (371) 
4.817289

>  <intxn_scored>  (371) 
8.5

>  <saltbridge:HIS:51>  (371) 
0

>  <pistack:HIS:51>  (371) 
1

>  <hydroph_interaction:HIS:51>  (371) 
0

>  <hbond:ALA:132>  (371) 
0

>  <hbond:SER:135>  (371) 
0

>  <hydroph_interaction:TYR:150>  (371) 
1

>  <pistack:TYR:161>  (371) 
1

>  <hydroph_interaction:TYR:161>  (371) 
2

>  <hydroph_interaction:ASP:83>  (371) 
0

>  <hbond:TYR:130>  (371) 
0

>  <hydroph_interaction:ALA:132>  (371) 
0

>  <hbond:HIS:51>  (371) 
0

>  <hbond:ASP:129>  (371) 
0

>  <hbond:TYR:150>  (371) 
0

>  <hbond:GLY:151>  (371) 
0

>  <hbond:TYR:161>  (371) 
0

>  <hydroph_interaction:TYR:130>  (371) 
0

>  <hydroph_interaction:PRO:131>  (371) 
0

>  <hydroph_interaction:ASP:129>  (371) 
0

>  <saltbridge:ASP:75>  (371) 
0

>  <saltbridge:ASP:83>  (371) 
0

>  <hbond:ASN:152>  (371) 
0

>  <hydroph_interaction:ASN:152>  (371) 
0

>  <halogenbond:TYR:150>  (371) 
0

>  <hbond:ASP:83>  (371) 
0

>  <hydroph_interaction:VAL:155>  (371) 
1

>  <pication:TYR:161>  (371) 
0

>  <hbond:PRO:131>  (371) 
0

>  <saltbridge:ASP:129>  (371) 
0

>  <hbond:THR:134>  (371) 
0

>  <pication:HIS:51>  (371) 
0

>  <hbond:SER:81>  (371) 
0

>  <hydroph_interaction:THR:134>  (371) 
0

>  <hydroph_interaction:MET:49>  (371) 
0

$$$$
CSSS00000757406
     RDKit          3D

 23 24  0  0  0  0  0  0  0  0999 V2000
   -5.9600    5.4000  -21.3000 C   0  0  0  0  0  0  0  0  0  0  0  0
   -6.1680    5.3770  -19.7950 C   0  0  0  0  0  0  0  0  0  0  0  0
   -7.4250    5.2280  -19.3510 N   0  0  0  0  0  0  0  0  0  0  0  0
   -7.6660    5.1980  -18.0340 C   0  0  0  0  0  0  0  0  0  0  0  0
   -9.0820    5.0190  -17.5420 C   0  0  0  0  0  0  0  0  0  0  0  0
  -10.1370    4.8680  -18.6250 C   0  0  0  0  0  0  0  0  0  0  0  0
   -9.3730    4.9920  -16.1860 C   0  0  0  0  0  0  0  0  0  0  0  0
   -8.3430    5.1250  -15.2700 C   0  0  0  0  0  0  0  0  0  0  0  0
   -7.0150    5.2840  -15.7100 C   0  0  0  0  0  0  0  0  0  0  0  0
   -6.6600    5.3220  -17.0650 C   0  0  0  0  0  0  0  0  0  0  0  0
   -5.3590    5.4720  -17.5420 C   0  0  0  0  0  0  0  0  0  0  0  0
   -3.9960    5.6220  -16.4870 Cl  0  0  0  0  0  0  0  0  0  0  0  0
   -5.1020    5.5010  -18.9130 C   0  0  0  0  0  0  0  0  0  0  0  0
   -6.6790    4.7520  -21.8070 H   0  0  0  0  0  0  0  0  0  0  0  0
   -6.0880    6.4120  -21.6860 H   0  0  0  0  0  0  0  0  0  0  0  0
   -4.9560    5.0590  -21.5630 H   0  0  0  0  0  0  0  0  0  0  0  0
  -11.1000    5.3540  -18.5000 H   0  0  0  0  0  0  0  0  0  0  0  0
  -10.3090    3.8010  -18.7500 H   0  0  0  0  0  0  0  0  0  0  0  0
   -9.7470    5.2270  -19.5840 H   0  0  0  0  0  0  0  0  0  0  0  0
  -10.3880    4.8640  -15.8280 H   0  0  0  0  0  0  0  0  0  0  0  0
   -8.5630    5.1020  -14.2070 H   0  0  0  0  0  0  0  0  0  0  0  0
   -6.2480    5.3780  -14.9430 H   0  0  0  0  0  0  0  0  0  0  0  0
   -4.0830    5.6200  -19.2790 H   0  0  0  0  0  0  0  0  0  0  0  0
  1  2  1  0
  2  3  2  0
  3  4  1  0
  4  5  2  0
  5  6  1  0
  5  7  1  0
  7  8  2  0
  8  9  1  0
  9 10  2  0
 10 11  1  0
 11 12  1  0
 11 13  2  0
 13  2  1  0
 10  4  1  0
  1 14  1  0
  1 15  1  0
  1 16  1  0
  6 17  1  0
  6 18  1  0
  6 19  1  0
  7 20  1  0
  8 21  1  0
  9 22  1  0
 13 23  1  0
A    1
 C1 
A    2
 C2 
A    3
 N1 
A    4
 C3 
A    5
 C4 
A    6
 C5 
A    7
 C6 
A    8
 C7 
A    9
 C8 
A   10
 C9 
A   11
 C10
A   12
CL1 
A   13
 C11
A   14
 H1 
A   15
 H2 
A   16
 H3 
A   17
 H4 
A   18
 H5 
A   19
 H6 
A   20
 H7 
A   21
 H8 
A   22
 H9 
A   23
 H10
M  END
>  <ref_pdb>  (372) 
x0051_0B

>  <ref_mols>  (372) 
x0425_0B,x0435_0B

>  <original SMILES>  (372) 
[H]c1c([H])c([H])c2c(Cl)c([H])c(C([H])([H])[H])nc2c1C([H])([H])[H]

>  <index>  (372) 
1481

>  <∆∆G>  (372) 
-7.905561

>  <∆G_bound>  (372) 
-8.244255

>  <∆G_unbound>  (372) 
-0.338695

>  <comRMSD>  (372) 
0.563432

>  <N_constrained_atoms>  (372) 
12.0

>  <N_unconstrained_atoms>  (372) 
1.0

>  <runtime>  (372) 
26.605028

>  <LE>  (372) 
0.60812

>  <percent_hybrid>  (372) 
50.0

>  <dist>  (372) 
3.0

>  <ecfp4>  (372) 
0.348837

>  <daylight>  (372) 
0.55

>  <topodist>  (372) 
2.0

>  <mces>  (372) 
13.0

>  <tdn>  (372) 
1.0

>  <tup>  (372) 
1.0

>  <rdn>  (372) 
0.0

>  <rup>  (372) 
0.0

>  <ldn>  (372) 
0.0

>  <lup>  (372) 
0.0

>  <mut>  (372) 
1.0

>  <maj>  (372) 
1.0

>  <min>  (372) 
0.0

>  <hyb>  (372) 
0.0

>  <sub>  (372) 
1.0

>  <query_index>  (372) 
107.0

>  <max_hit_Tanimoto>  (372) 
0.152542

>  <largest_ring>  (372) 
6

>  <N_interactions_kept>  (372) 
1.5

>  <N_interactions_lost>  (372) 
2.0

>  <interaction_uniqueness_metric>  (372) 
0.034019

>  <ad_hoc_penalty>  (372) 
-14.238752

>  <N_rotatable_bonds>  (372) 
2

>  <N_HA>  (372) 
13

>  <cluster>  (372) 
4859

>  <N_interactions>  (372) 
3

>  <Enamine>  (372) 
1

>  <Mcule>  (372) 
0

>  <N_PAINS>  (372) 
0

>  <UFF_Gibbs>  (372) 
15.741177

>  <strain_per_HA>  (372) 
1.21086

>  <intxn_scored>  (372) 
8.5

>  <saltbridge:HIS:51>  (372) 
0

>  <pistack:HIS:51>  (372) 
0

>  <hydroph_interaction:HIS:51>  (372) 
0

>  <hbond:ALA:132>  (372) 
0

>  <hbond:SER:135>  (372) 
0

>  <hydroph_interaction:TYR:150>  (372) 
1

>  <pistack:TYR:161>  (372) 
2

>  <hydroph_interaction:TYR:161>  (372) 
0

>  <hydroph_interaction:ASP:83>  (372) 
0

>  <hbond:TYR:130>  (372) 
0

>  <hydroph_interaction:ALA:132>  (372) 
0

>  <hbond:HIS:51>  (372) 
0

>  <hbond:ASP:129>  (372) 
0

>  <hbond:TYR:150>  (372) 
0

>  <hbond:GLY:151>  (372) 
0

>  <hbond:TYR:161>  (372) 
0

>  <hydroph_interaction:TYR:130>  (372) 
0

>  <hydroph_interaction:PRO:131>  (372) 
0

>  <hydroph_interaction:ASP:129>  (372) 
0

>  <saltbridge:ASP:75>  (372) 
0

>  <saltbridge:ASP:83>  (372) 
0

>  <hbond:ASN:152>  (372) 
0

>  <hydroph_interaction:ASN:152>  (372) 
0

>  <halogenbond:TYR:150>  (372) 
0

>  <hbond:ASP:83>  (372) 
0

>  <hydroph_interaction:VAL:155>  (372) 
0

>  <pication:TYR:161>  (372) 
0

>  <hbond:PRO:131>  (372) 
0

>  <saltbridge:ASP:129>  (372) 
0

>  <hbond:THR:134>  (372) 
0

>  <pication:HIS:51>  (372) 
0

>  <hbond:SER:81>  (372) 
0

>  <hydroph_interaction:THR:134>  (372) 
0

>  <hydroph_interaction:MET:49>  (372) 
0

$$$$
CSSB00011935291
     RDKit          3D

 25 26  0  0  0  0  0  0  0  0999 V2000
  -10.9530    5.0150  -18.4220 C   0  0  0  0  0  0  0  0  0  0  0  0
   -9.7810    4.2350  -18.6070 N   0  0  0  0  0  0  0  0  0  0  0  0
   -8.9390    4.8460  -19.5770 C   0  0  0  0  0  0  0  0  0  0  0  0
   -7.6920    5.1090  -19.0500 C   0  0  0  0  0  0  0  0  0  0  0  0
   -6.5370    5.1740  -20.0220 C   0  0  0  0  0  0  0  0  0  0  0  0
   -5.2440    5.4040  -19.7410 N   0  0  0  0  0  0  0  0  0  0  0  0
   -5.0070    5.5890  -18.4350 C   0  0  0  0  0  0  0  0  0  0  0  0
   -6.0810    5.5520  -17.3490 C   0  0  0  0  0  0  0  0  0  0  0  0
   -5.6460    5.7790  -15.9260 C   0  0  0  0  0  0  0  0  0  0  0  0
   -6.6430    5.7400  -14.9420 C   0  0  0  0  0  0  0  0  0  0  0  0
   -7.9810    5.4990  -15.2990 C   0  0  0  0  0  0  0  0  0  0  0  0
   -8.3620    5.2880  -16.6420 C   0  0  0  0  0  0  0  0  0  0  0  0
   -7.4170    5.3130  -17.6690 C   0  0  0  0  0  0  0  0  0  0  0  0
  -11.1430    5.6040  -19.3260 H   0  0  0  0  0  0  0  0  0  0  0  0
  -10.8310    5.6980  -17.5960 H   0  0  0  0  0  0  0  0  0  0  0  0
  -11.7840    4.3430  -18.2680 H   0  0  0  0  0  0  0  0  0  0  0  0
  -10.0430    3.3060  -18.9310 H   0  0  0  0  0  0  0  0  0  0  0  0
   -8.8240    4.1850  -20.4350 H   0  0  0  0  0  0  0  0  0  0  0  0
   -9.4220    5.7630  -19.9040 H   0  0  0  0  0  0  0  0  0  0  0  0
   -6.8020    5.0110  -21.0710 H   0  0  0  0  0  0  0  0  0  0  0  0
   -3.9720    5.7790  -18.1300 H   0  0  0  0  0  0  0  0  0  0  0  0
   -4.6100    5.9650  -15.6570 H   0  0  0  0  0  0  0  0  0  0  0  0
   -6.3940    5.8950  -13.8980 H   0  0  0  0  0  0  0  0  0  0  0  0
   -8.7450    5.4710  -14.5260 H   0  0  0  0  0  0  0  0  0  0  0  0
   -9.4120    5.1060  -16.8350 H   0  0  0  0  0  0  0  0  0  0  0  0
  1  2  1  0
  2  3  1  0
  3  4  1  0
  4  5  2  0
  5  6  1  0
  6  7  2  0
  7  8  1  0
  8  9  2  0
  9 10  1  0
 10 11  2  0
 11 12  1  0
 12 13  2  0
 13  4  1  0
 13  8  1  0
  1 14  1  0
  1 15  1  0
  1 16  1  0
  2 17  1  0
  3 18  1  0
  3 19  1  0
  5 20  1  0
  7 21  1  0
  9 22  1  0
 10 23  1  0
 11 24  1  0
 12 25  1  0
A    1
 C1 
A    2
 N1 
A    3
 C2 
A    4
 C3 
A    5
 C4 
A    6
 N2 
A    7
 C5 
A    8
 C6 
A    9
 C7 
A   10
 C8 
A   11
 C9 
A   12
 C10
A   13
 C11
A   14
 H1 
A   15
 H2 
A   16
 H3 
A   17
 H4 
A   18
 H5 
A   19
 H6 
A   20
 H7 
A   21
 H8 
A   22
 H9 
A   23
 H10
A   24
 H11
A   25
 H12
M  END
>  <ref_pdb>  (373) 
x0051_0B

>  <ref_mols>  (373) 
x0687_0B,x0455_0B

>  <original SMILES>  (373) 
[H]c1nc([H])c2c([H])c([H])c([H])c([H])c2c1C([H])([H])N([H])C([H])([H])[H]

>  <index>  (373) 
643

>  <∆∆G>  (373) 
-5.905932

>  <∆G_bound>  (373) 
-6.068133

>  <∆G_unbound>  (373) 
-0.162201

>  <comRMSD>  (373) 
0.953632

>  <N_constrained_atoms>  (373) 
14.0

>  <N_unconstrained_atoms>  (373) 
1.0

>  <runtime>  (373) 
23.227483

>  <LE>  (373) 
0.393729

>  <percent_hybrid>  (373) 
43.0

>  <dist>  (373) 
5.0

>  <ecfp4>  (373) 
0.26

>  <daylight>  (373) 
0.248408

>  <topodist>  (373) 
3.0

>  <mces>  (373) 
14.0

>  <tdn>  (373) 
2.0

>  <tup>  (373) 
0.0

>  <rdn>  (373) 
1.0

>  <rup>  (373) 
0.0

>  <ldn>  (373) 
0.0

>  <lup>  (373) 
0.0

>  <mut>  (373) 
2.0

>  <maj>  (373) 
2.0

>  <min>  (373) 
0.0

>  <hyb>  (373) 
0.0

>  <sub>  (373) 
2.0

>  <query_index>  (373) 
143.0

>  <max_hit_Tanimoto>  (373) 
0.194503

>  <largest_ring>  (373) 
6

>  <N_interactions_kept>  (373) 
3.0

>  <N_interactions_lost>  (373) 
1.0

>  <interaction_uniqueness_metric>  (373) 
0.077894

>  <ad_hoc_penalty>  (373) 
-14.482859

>  <N_rotatable_bonds>  (373) 
3

>  <N_HA>  (373) 
13

>  <cluster>  (373) 
5630

>  <N_interactions>  (373) 
4

>  <Enamine>  (373) 
1

>  <Mcule>  (373) 
0

>  <N_PAINS>  (373) 
0

>  <UFF_Gibbs>  (373) 
107.735263

>  <strain_per_HA>  (373) 
8.287328

>  <intxn_scored>  (373) 
8.5

>  <saltbridge:HIS:51>  (373) 
0

>  <pistack:HIS:51>  (373) 
0

>  <hydroph_interaction:HIS:51>  (373) 
0

>  <hbond:ALA:132>  (373) 
0

>  <hbond:SER:135>  (373) 
0

>  <hydroph_interaction:TYR:150>  (373) 
0

>  <pistack:TYR:161>  (373) 
2

>  <hydroph_interaction:TYR:161>  (373) 
0

>  <hydroph_interaction:ASP:83>  (373) 
0

>  <hbond:TYR:130>  (373) 
0

>  <hydroph_interaction:ALA:132>  (373) 
1

>  <hbond:HIS:51>  (373) 
0

>  <hbond:ASP:129>  (373) 
0

>  <hbond:TYR:150>  (373) 
0

>  <hbond:GLY:151>  (373) 
1

>  <hbond:TYR:161>  (373) 
0

>  <hydroph_interaction:TYR:130>  (373) 
0

>  <hydroph_interaction:PRO:131>  (373) 
0

>  <hydroph_interaction:ASP:129>  (373) 
0

>  <saltbridge:ASP:75>  (373) 
0

>  <saltbridge:ASP:83>  (373) 
0

>  <hbond:ASN:152>  (373) 
0

>  <hydroph_interaction:ASN:152>  (373) 
0

>  <halogenbond:TYR:150>  (373) 
0

>  <hbond:ASP:83>  (373) 
0

>  <hydroph_interaction:VAL:155>  (373) 
0

>  <pication:TYR:161>  (373) 
0

>  <hbond:PRO:131>  (373) 
0

>  <saltbridge:ASP:129>  (373) 
0

>  <hbond:THR:134>  (373) 
0

>  <pication:HIS:51>  (373) 
0

>  <hbond:SER:81>  (373) 
0

>  <hydroph_interaction:THR:134>  (373) 
0

>  <hydroph_interaction:MET:49>  (373) 
0

$$$$
CSSB00011877719
     RDKit          3D

 19 20  0  0  0  0  0  0  0  0999 V2000
  -11.1340    4.9920  -18.6450 C   0  0  0  0  0  0  0  0  0  0  0  0
   -9.6940    4.9810  -18.2830 C   0  0  0  0  0  0  0  0  0  0  0  0
   -9.3260    4.9490  -16.8530 C   0  0  0  0  0  0  0  0  0  0  0  0
   -8.0500    4.9940  -16.4990 C   0  0  0  0  0  0  0  0  0  0  0  0
   -7.0870    5.0790  -17.5110 C   0  0  0  0  0  0  0  0  0  0  0  0
   -5.7220    5.1550  -17.4070 N   0  0  0  0  0  0  0  0  0  0  0  0
   -5.1520    5.2260  -18.6450 C   0  0  0  0  0  0  0  0  0  0  0  0
   -6.1610    5.1930  -19.5660 C   0  0  0  0  0  0  0  0  0  0  0  0
   -5.8770    5.2680  -21.4150 Br  0  0  0  0  0  0  0  0  0  0  0  0
   -7.3960    5.1010  -18.8840 C   0  0  0  0  0  0  0  0  0  0  0  0
   -8.7350    5.0400  -19.2680 C   0  0  0  0  0  0  0  0  0  0  0  0
  -11.6410    4.0580  -18.4550 H   0  0  0  0  0  0  0  0  0  0  0  0
  -11.2520    5.3670  -19.6600 H   0  0  0  0  0  0  0  0  0  0  0  0
  -11.5810    5.7330  -18.0480 H   0  0  0  0  0  0  0  0  0  0  0  0
  -10.1000    4.8970  -16.0900 H   0  0  0  0  0  0  0  0  0  0  0  0
   -7.7620    4.9740  -15.4530 H   0  0  0  0  0  0  0  0  0  0  0  0
   -5.2180    5.1580  -16.5290 H   0  0  0  0  0  0  0  0  0  0  0  0
   -4.0780    5.2930  -18.7590 H   0  0  0  0  0  0  0  0  0  0  0  0
   -9.0170    5.0560  -20.3120 H   0  0  0  0  0  0  0  0  0  0  0  0
  1  2  1  0
  2  3  2  0
  3  4  1  0
  4  5  2  0
  5  6  1  0
  6  7  1  0
  7  8  2  0
  8  9  1  0
  8 10  1  0
 10 11  2  0
 11  2  1  0
 10  5  1  0
  1 12  1  0
  1 13  1  0
  1 14  1  0
  3 15  1  0
  4 16  1  0
  6 17  1  0
  7 18  1  0
 11 19  1  0
A    1
 C1 
A    2
 C2 
A    3
 C3 
A    4
 C4 
A    5
 C5 
A    6
 N1 
A    7
 C6 
A    8
 C7 
A    9
BR1 
A   10
 C8 
A   11
 C9 
A   12
 H1 
A   13
 H2 
A   14
 H3 
A   15
 H4 
A   16
 H5 
A   17
 H6 
A   18
 H7 
A   19
 H8 
M  END
>  <ref_pdb>  (374) 
x0051_0B

>  <ref_mols>  (374) 
x0605_0B,x0443_0B

>  <original SMILES>  (374) 
[H]c1c(C([H])([H])[H])c([H])c2c(Br)c([H])n([H])c2c1[H]

>  <index>  (374) 
3972

>  <∆∆G>  (374) 
-5.725677

>  <∆G_bound>  (374) 
-5.746977

>  <∆G_unbound>  (374) 
-0.0213

>  <comRMSD>  (374) 
0.942194

>  <N_constrained_atoms>  (374) 
13.0

>  <N_unconstrained_atoms>  (374) 
1.0

>  <runtime>  (374) 
27.153316

>  <LE>  (374) 
0.408977

>  <percent_hybrid>  (374) 
34.0

>  <dist>  (374) 
2.0

>  <ecfp4>  (374) 
0.318182

>  <daylight>  (374) 
0.487805

>  <topodist>  (374) 
1.0

>  <mces>  (374) 
12.0

>  <tdn>  (374) 
1.0

>  <tup>  (374) 
0.0

>  <rdn>  (374) 
0.0

>  <rup>  (374) 
0.0

>  <ldn>  (374) 
0.0

>  <lup>  (374) 
0.0

>  <mut>  (374) 
1.0

>  <maj>  (374) 
1.0

>  <min>  (374) 
0.0

>  <hyb>  (374) 
0.0

>  <sub>  (374) 
1.0

>  <query_index>  (374) 
139.0

>  <max_hit_Tanimoto>  (374) 
0.156406

>  <largest_ring>  (374) 
6

>  <N_interactions_kept>  (374) 
0.5

>  <N_interactions_lost>  (374) 
3.0

>  <interaction_uniqueness_metric>  (374) 
0.034019

>  <ad_hoc_penalty>  (374) 
-0.629889

>  <N_rotatable_bonds>  (374) 
1

>  <N_HA>  (374) 
11

>  <cluster>  (374) 
2522

>  <N_interactions>  (374) 
3

>  <Enamine>  (374) 
1

>  <Mcule>  (374) 
0

>  <N_PAINS>  (374) 
0

>  <UFF_Gibbs>  (374) 
16.323281

>  <strain_per_HA>  (374) 
1.483935

>  <intxn_scored>  (374) 
8.5

>  <saltbridge:HIS:51>  (374) 
0

>  <pistack:HIS:51>  (374) 
0

>  <hydroph_interaction:HIS:51>  (374) 
0

>  <hbond:ALA:132>  (374) 
0

>  <hbond:SER:135>  (374) 
0

>  <hydroph_interaction:TYR:150>  (374) 
1

>  <pistack:TYR:161>  (374) 
2

>  <hydroph_interaction:TYR:161>  (374) 
0

>  <hydroph_interaction:ASP:83>  (374) 
0

>  <hbond:TYR:130>  (374) 
0

>  <hydroph_interaction:ALA:132>  (374) 
0

>  <hbond:HIS:51>  (374) 
0

>  <hbond:ASP:129>  (374) 
0

>  <hbond:TYR:150>  (374) 
0

>  <hbond:GLY:151>  (374) 
0

>  <hbond:TYR:161>  (374) 
0

>  <hydroph_interaction:TYR:130>  (374) 
0

>  <hydroph_interaction:PRO:131>  (374) 
0

>  <hydroph_interaction:ASP:129>  (374) 
0

>  <saltbridge:ASP:75>  (374) 
0

>  <saltbridge:ASP:83>  (374) 
0

>  <hbond:ASN:152>  (374) 
0

>  <hydroph_interaction:ASN:152>  (374) 
0

>  <halogenbond:TYR:150>  (374) 
0

>  <hbond:ASP:83>  (374) 
0

>  <hydroph_interaction:VAL:155>  (374) 
0

>  <pication:TYR:161>  (374) 
0

>  <hbond:PRO:131>  (374) 
0

>  <saltbridge:ASP:129>  (374) 
0

>  <hbond:THR:134>  (374) 
0

>  <pication:HIS:51>  (374) 
0

>  <hbond:SER:81>  (374) 
0

>  <hydroph_interaction:THR:134>  (374) 
0

>  <hydroph_interaction:MET:49>  (374) 
0

$$$$
CSSS00025732303
     RDKit          3D

 41 43  0  0  0  0  0  0  0  0999 V2000
   -0.8600    5.0800  -19.3180 C   0  0  0  0  0  0  0  0  0  0  0  0
   -2.0010    4.4200  -19.7330 C   0  0  0  0  0  0  0  0  0  0  0  0
   -3.0630    5.3500  -19.9880 O   0  0  0  0  0  0  0  0  0  0  0  0
   -3.4870    6.0230  -18.8830 C   0  0  0  0  0  0  0  0  0  0  0  0
   -2.7910    6.7430  -18.1950 O   0  0  0  0  0  0  0  0  0  0  0  0
   -4.8560    5.7610  -18.6630 C   0  0  0  0  0  0  0  0  0  0  0  0
   -5.3920    5.6350  -17.3810 C   0  0  0  0  0  0  0  0  0  0  0  0
   -4.7270    5.7400  -16.1730 N   0  0  0  0  0  0  0  0  0  0  0  0
   -4.7810    6.9460  -15.3700 C   0  0  0  0  0  0  0  0  0  0  0  0
   -3.7440    6.7060  -14.5000 C   0  0  0  0  0  0  0  0  0  0  0  0
   -3.1750    5.4100  -14.6590 C   0  0  0  0  0  0  0  0  0  0  0  0
   -3.4450    5.0810  -15.9900 C   0  0  0  0  0  0  0  0  0  0  0  0
   -6.7780    5.3730  -17.2730 C   0  0  0  0  0  0  0  0  0  0  0  0
   -7.4090    5.2260  -16.0880 C   0  0  0  0  0  0  0  0  0  0  0  0
   -8.7570    4.9670  -16.0080 C   0  0  0  0  0  0  0  0  0  0  0  0
   -9.7790    4.8000  -17.1350 C   0  0  0  0  0  0  0  0  0  0  0  0
   -8.9120    4.9980  -18.2370 C   0  0  0  0  0  0  0  0  0  0  0  0
   -9.6660    4.9130  -19.4890 C   0  0  0  0  0  0  0  0  0  0  0  0
   -7.5550    5.2550  -18.3830 C   0  0  0  0  0  0  0  0  0  0  0  0
   -7.0330    5.3810  -19.6170 N   0  0  0  0  0  0  0  0  0  0  0  0
   -5.7100    5.6270  -19.7410 C   0  0  0  0  0  0  0  0  0  0  0  0
   -0.8990    5.2900  -18.2430 H   0  0  0  0  0  0  0  0  0  0  0  0
    0.0190    4.4520  -19.5020 H   0  0  0  0  0  0  0  0  0  0  0  0
   -0.7150    6.0250  -19.8460 H   0  0  0  0  0  0  0  0  0  0  0  0
   -1.7970    3.8050  -20.6210 H   0  0  0  0  0  0  0  0  0  0  0  0
   -2.3040    3.7390  -18.9270 H   0  0  0  0  0  0  0  0  0  0  0  0
   -5.7370    7.0410  -14.8450 H   0  0  0  0  0  0  0  0  0  0  0  0
   -4.5950    7.8620  -15.9410 H   0  0  0  0  0  0  0  0  0  0  0  0
   -2.9600    7.4310  -14.7330 H   0  0  0  0  0  0  0  0  0  0  0  0
   -3.9890    6.9390  -13.4660 H   0  0  0  0  0  0  0  0  0  0  0  0
   -2.1200    5.2830  -14.4380 H   0  0  0  0  0  0  0  0  0  0  0  0
   -3.7160    4.7110  -14.0090 H   0  0  0  0  0  0  0  0  0  0  0  0
   -2.7160    5.5760  -16.6390 H   0  0  0  0  0  0  0  0  0  0  0  0
   -3.4540    4.0330  -16.2710 H   0  0  0  0  0  0  0  0  0  0  0  0
   -6.8470    5.3100  -15.1600 H   0  0  0  0  0  0  0  0  0  0  0  0
   -9.1500    4.8650  -15.0020 H   0  0  0  0  0  0  0  0  0  0  0  0
  -10.8320    4.5970  -17.0990 H   0  0  0  0  0  0  0  0  0  0  0  0
  -10.7210    4.8340  -19.2270 H   0  0  0  0  0  0  0  0  0  0  0  0
   -9.3260    4.0700  -20.0860 H   0  0  0  0  0  0  0  0  0  0  0  0
   -9.5620    5.8150  -20.0710 H   0  0  0  0  0  0  0  0  0  0  0  0
   -5.3600    5.7150  -20.7670 H   0  0  0  0  0  0  0  0  0  0  0  0
  1  2  1  0
  2  3  1  0
  3  4  1  0
  4  5  2  0
  4  6  1  0
  6  7  2  0
  7  8  1  0
  8  9  1  0
  9 10  1  0
 10 11  1  0
 11 12  1  0
  7 13  1  0
 13 14  2  0
 14 15  1  0
 15 16  2  0
 16 17  1  0
 17 18  1  0
 17 19  2  0
 19 20  1  0
 20 21  2  0
 21  6  1  0
 12  8  1  0
 19 13  1  0
  1 22  1  0
  1 23  1  0
  1 24  1  0
  2 25  1  0
  2 26  1  0
  9 27  1  0
  9 28  1  0
 10 29  1  0
 10 30  1  0
 11 31  1  0
 11 32  1  0
 12 33  1  0
 12 34  1  0
 14 35  1  0
 15 36  1  0
 16 37  1  0
 18 38  1  0
 18 39  1  0
 18 40  1  0
 21 41  1  0
A    1
 C1 
A    2
 C2 
A    3
 O1 
A    4
 C3 
A    5
 O2 
A    6
 C4 
A    7
 C5 
A    8
 N1 
A    9
 C6 
A   10
 C7 
A   11
 C8 
A   12
 C9 
A   13
 C10
A   14
 C11
A   15
 C12
A   16
 C13
A   17
 C14
A   18
 C15
A   19
 C16
A   20
 N2 
A   21
 C17
A   22
 H1 
A   23
 H2 
A   24
 H3 
A   25
 H4 
A   26
 H5 
A   27
 H6 
A   28
 H7 
A   29
 H8 
A   30
 H9 
A   31
 H10
A   32
 H11
A   33
 H12
A   34
 H13
A   35
 H14
A   36
 H15
A   37
 H16
A   38
 H17
A   39
 H18
A   40
 H19
A   41
 H20
M  END
>  <ref_pdb>  (375) 
x0051_0B

>  <ref_mols>  (375) 
x0429_0B,x0051_0B

>  <original SMILES>  (375) 
[H]c1nc2c(C([H])([H])[H])c([H])c([H])c([H])c2c(N2C([H])([H])C([H])([H])C([H])([H])C2([H])[H])c1C(=O)OC([H])([H])C([H])([H])[H]

>  <index>  (375) 
2841

>  <∆∆G>  (375) 
-8.176245

>  <∆G_bound>  (375) 
-6.309798

>  <∆G_unbound>  (375) 
1.866447

>  <comRMSD>  (375) 
0.687617

>  <N_constrained_atoms>  (375) 
18.0

>  <N_unconstrained_atoms>  (375) 
4.0

>  <runtime>  (375) 
32.740622

>  <LE>  (375) 
0.371647

>  <percent_hybrid>  (375) 
25.0

>  <dist>  (375) 
5.0

>  <ecfp4>  (375) 
0.313433

>  <daylight>  (375) 
0.323529

>  <topodist>  (375) 
4.0

>  <mces>  (375) 
20.0

>  <tdn>  (375) 
0.0

>  <tup>  (375) 
2.0

>  <rdn>  (375) 
0.0

>  <rup>  (375) 
0.0

>  <ldn>  (375) 
1.0

>  <lup>  (375) 
1.0

>  <mut>  (375) 
1.0

>  <maj>  (375) 
1.0

>  <min>  (375) 
0.0

>  <hyb>  (375) 
0.0

>  <sub>  (375) 
1.0

>  <query_index>  (375) 
194.0

>  <max_hit_Tanimoto>  (375) 
0.433684

>  <largest_ring>  (375) 
6

>  <N_interactions_kept>  (375) 
1.5

>  <N_interactions_lost>  (375) 
2.5

>  <interaction_uniqueness_metric>  (375) 
0.067187

>  <ad_hoc_penalty>  (375) 
-0.738303

>  <N_rotatable_bonds>  (375) 
5

>  <N_HA>  (375) 
21

>  <cluster>  (375) 
3595

>  <N_interactions>  (375) 
4

>  <Enamine>  (375) 
1

>  <Mcule>  (375) 
0

>  <N_PAINS>  (375) 
0

>  <UFF_Gibbs>  (375) 
150.525066

>  <strain_per_HA>  (375) 
7.16786

>  <intxn_scored>  (375) 
8.5

>  <saltbridge:HIS:51>  (375) 
0

>  <pistack:HIS:51>  (375) 
0

>  <hydroph_interaction:HIS:51>  (375) 
0

>  <hbond:ALA:132>  (375) 
0

>  <hbond:SER:135>  (375) 
0

>  <hydroph_interaction:TYR:150>  (375) 
1

>  <pistack:TYR:161>  (375) 
2

>  <hydroph_interaction:TYR:161>  (375) 
0

>  <hydroph_interaction:ASP:83>  (375) 
0

>  <hbond:TYR:130>  (375) 
0

>  <hydroph_interaction:ALA:132>  (375) 
0

>  <hbond:HIS:51>  (375) 
0

>  <hbond:ASP:129>  (375) 
0

>  <hbond:TYR:150>  (375) 
0

>  <hbond:GLY:151>  (375) 
0

>  <hbond:TYR:161>  (375) 
0

>  <hydroph_interaction:TYR:130>  (375) 
0

>  <hydroph_interaction:PRO:131>  (375) 
0

>  <hydroph_interaction:ASP:129>  (375) 
0

>  <saltbridge:ASP:75>  (375) 
0

>  <saltbridge:ASP:83>  (375) 
0

>  <hbond:ASN:152>  (375) 
0

>  <hydroph_interaction:ASN:152>  (375) 
0

>  <halogenbond:TYR:150>  (375) 
0

>  <hbond:ASP:83>  (375) 
0

>  <hydroph_interaction:VAL:155>  (375) 
1

>  <pication:TYR:161>  (375) 
0

>  <hbond:PRO:131>  (375) 
0

>  <saltbridge:ASP:129>  (375) 
0

>  <hbond:THR:134>  (375) 
0

>  <pication:HIS:51>  (375) 
0

>  <hbond:SER:81>  (375) 
0

>  <hydroph_interaction:THR:134>  (375) 
0

>  <hydroph_interaction:MET:49>  (375) 
0

$$$$
Z2368183441
     RDKit          3D

 36 38  0  0  0  0  0  0  0  0999 V2000
  -10.8130    4.7670  -18.0270 C   0  0  0  0  0  0  0  0  0  0  0  0
   -9.4150    4.9710  -17.9910 C   0  0  0  0  0  0  0  0  0  0  0  0
   -8.5840    5.0080  -19.0730 C   0  0  0  0  0  0  0  0  0  0  0  0
   -7.2850    5.2190  -18.9740 C   0  0  0  0  0  0  0  0  0  0  0  0
   -6.5850    5.2420  -20.1290 N   0  0  0  0  0  0  0  0  0  0  0  0
   -5.2800    5.4580  -19.9890 C   0  0  0  0  0  0  0  0  0  0  0  0
   -4.6120    5.6430  -18.8320 N   0  0  0  0  0  0  0  0  0  0  0  0
   -5.3430    5.6100  -17.7030 C   0  0  0  0  0  0  0  0  0  0  0  0
   -4.7430    5.7820  -16.4400 N   0  0  0  0  0  0  0  0  0  0  0  0
   -4.9280    7.1080  -15.8050 C   0  0  0  0  0  0  0  0  0  0  0  0
   -4.0400    7.1820  -14.6720 C   0  0  0  0  0  0  0  0  0  0  0  0
   -3.9080    5.8620  -14.0080 N   0  0  0  0  0  0  0  0  0  0  0  0
   -3.1370    4.9570  -14.8930 C   0  0  0  0  0  0  0  0  0  0  0  0
   -3.4320    5.1510  -16.2500 C   0  0  0  0  0  0  0  0  0  0  0  0
   -6.7090    5.4020  -17.7340 C   0  0  0  0  0  0  0  0  0  0  0  0
   -7.5090    5.3720  -16.5990 C   0  0  0  0  0  0  0  0  0  0  0  0
   -8.8560    5.1660  -16.7130 C   0  0  0  0  0  0  0  0  0  0  0  0
   -9.6450    5.1720  -15.4480 C   0  0  0  0  0  0  0  0  0  0  0  0
  -11.1180    4.4360  -17.0540 H   0  0  0  0  0  0  0  0  0  0  0  0
  -11.3440    5.6580  -18.3640 H   0  0  0  0  0  0  0  0  0  0  0  0
  -11.0360    3.9820  -18.6990 H   0  0  0  0  0  0  0  0  0  0  0  0
   -8.9730    4.8650  -20.0760 H   0  0  0  0  0  0  0  0  0  0  0  0
   -4.6900    5.4830  -20.9040 H   0  0  0  0  0  0  0  0  0  0  0  0
   -4.7560    7.7990  -16.6170 H   0  0  0  0  0  0  0  0  0  0  0  0
   -5.9870    7.2510  -15.6300 H   0  0  0  0  0  0  0  0  0  0  0  0
   -4.1430    7.9040  -13.8730 H   0  0  0  0  0  0  0  0  0  0  0  0
   -3.0510    7.4060  -15.0870 H   0  0  0  0  0  0  0  0  0  0  0  0
   -3.3750    5.9900  -13.1490 H   0  0  0  0  0  0  0  0  0  0  0  0
   -2.0690    5.0810  -14.6960 H   0  0  0  0  0  0  0  0  0  0  0  0
   -3.3800    3.9220  -14.6260 H   0  0  0  0  0  0  0  0  0  0  0  0
   -2.6770    5.8260  -16.6770 H   0  0  0  0  0  0  0  0  0  0  0  0
   -3.3440    4.2110  -16.8070 H   0  0  0  0  0  0  0  0  0  0  0  0
   -7.0590    5.5180  -15.6210 H   0  0  0  0  0  0  0  0  0  0  0  0
   -9.9280    6.1960  -15.1860 H   0  0  0  0  0  0  0  0  0  0  0  0
   -9.0600    4.7370  -14.6330 H   0  0  0  0  0  0  0  0  0  0  0  0
  -10.5660    4.5960  -15.5340 H   0  0  0  0  0  0  0  0  0  0  0  0
  1  2  1  0
  2  3  2  0
  3  4  1  0
  4  5  2  0
  5  6  1  0
  6  7  2  0
  7  8  1  0
  8  9  1  0
  9 10  1  0
 10 11  1  0
 11 12  1  0
 12 13  1  0
 13 14  1  0
  8 15  2  0
 15 16  1  0
 16 17  2  0
 17 18  1  0
 17  2  1  0
 15  4  1  0
 14  9  1  0
  1 19  1  0
  1 20  1  0
  1 21  1  0
  3 22  1  0
  6 23  1  0
 10 24  1  0
 10 25  1  0
 11 26  1  0
 11 27  1  0
 12 28  1  0
 13 29  1  0
 13 30  1  0
 14 31  1  0
 14 32  1  0
 16 33  1  0
 18 34  1  0
 18 35  1  0
 18 36  1  0
A    1
 C1 
A    2
 C2 
A    3
 C3 
A    4
 C4 
A    5
 N1 
A    6
 C5 
A    7
 N2 
A    8
 C6 
A    9
 N3 
A   10
 C7 
A   11
 C8 
A   12
 N4 
A   13
 C9 
A   14
 C10
A   15
 C11
A   16
 C12
A   17
 C13
A   18
 C14
A   19
 H1 
A   20
 H2 
A   21
 H3 
A   22
 H4 
A   23
 H5 
A   24
 H6 
A   25
 H7 
A   26
 H8 
A   27
 H9 
A   28
 H10
A   29
 H11
A   30
 H12
A   31
 H13
A   32
 H14
A   33
 H15
A   34
 H16
A   35
 H17
A   36
 H18
M  END
>  <ref_pdb>  (376) 
x0051_0B

>  <ref_mols>  (376) 
x0429_0B,x0945_0B

>  <original SMILES>  (376) 
[H]c1nc(N2C([H])([H])C([H])([H])N([H])C([H])([H])C2([H])[H])c2c([H])c(C([H])([H])[H])c(C([H])([H])[H])c([H])c2n1

>  <index>  (376) 
1300

>  <∆∆G>  (376) 
-7.050807

>  <∆G_bound>  (376) 
-6.072317

>  <∆G_unbound>  (376) 
0.97849

>  <comRMSD>  (376) 
0.779411

>  <N_constrained_atoms>  (376) 
20.0

>  <N_unconstrained_atoms>  (376) 
1.0

>  <runtime>  (376) 
28.554549

>  <LE>  (376) 
0.335753

>  <percent_hybrid>  (376) 
34.0

>  <dist>  (376) 
2.0

>  <ecfp4>  (376) 
0.425532

>  <daylight>  (376) 
0.581967

>  <topodist>  (376) 
1.0

>  <mces>  (376) 
19.0

>  <tdn>  (376) 
0.0

>  <tup>  (376) 
1.0

>  <rdn>  (376) 
0.0

>  <rup>  (376) 
0.0

>  <ldn>  (376) 
0.0

>  <lup>  (376) 
0.0

>  <mut>  (376) 
1.0

>  <maj>  (376) 
1.0

>  <min>  (376) 
0.0

>  <hyb>  (376) 
0.0

>  <sub>  (376) 
1.0

>  <query_index>  (376) 
242.0

>  <max_hit_Tanimoto>  (376) 
0.433081

>  <largest_ring>  (376) 
6

>  <N_interactions_kept>  (376) 
0.5

>  <N_interactions_lost>  (376) 
1.5

>  <interaction_uniqueness_metric>  (376) 
0.034019

>  <ad_hoc_penalty>  (376) 
-10.958418

>  <N_rotatable_bonds>  (376) 
3

>  <N_HA>  (376) 
18

>  <cluster>  (376) 
5026

>  <N_interactions>  (376) 
3

>  <Enamine>  (376) 
1

>  <Mcule>  (376) 
0

>  <N_PAINS>  (376) 
0

>  <UFF_Gibbs>  (376) 
104.534468

>  <strain_per_HA>  (376) 
5.80747

>  <intxn_scored>  (376) 
8.5

>  <saltbridge:HIS:51>  (376) 
0

>  <pistack:HIS:51>  (376) 
0

>  <hydroph_interaction:HIS:51>  (376) 
0

>  <hbond:ALA:132>  (376) 
0

>  <hbond:SER:135>  (376) 
0

>  <hydroph_interaction:TYR:150>  (376) 
1

>  <pistack:TYR:161>  (376) 
2

>  <hydroph_interaction:TYR:161>  (376) 
0

>  <hydroph_interaction:ASP:83>  (376) 
0

>  <hbond:TYR:130>  (376) 
0

>  <hydroph_interaction:ALA:132>  (376) 
0

>  <hbond:HIS:51>  (376) 
0

>  <hbond:ASP:129>  (376) 
0

>  <hbond:TYR:150>  (376) 
0

>  <hbond:GLY:151>  (376) 
0

>  <hbond:TYR:161>  (376) 
0

>  <hydroph_interaction:TYR:130>  (376) 
0

>  <hydroph_interaction:PRO:131>  (376) 
0

>  <hydroph_interaction:ASP:129>  (376) 
0

>  <saltbridge:ASP:75>  (376) 
0

>  <saltbridge:ASP:83>  (376) 
0

>  <hbond:ASN:152>  (376) 
0

>  <hydroph_interaction:ASN:152>  (376) 
0

>  <halogenbond:TYR:150>  (376) 
0

>  <hbond:ASP:83>  (376) 
0

>  <hydroph_interaction:VAL:155>  (376) 
0

>  <pication:TYR:161>  (376) 
0

>  <hbond:PRO:131>  (376) 
0

>  <saltbridge:ASP:129>  (376) 
0

>  <hbond:THR:134>  (376) 
0

>  <pication:HIS:51>  (376) 
0

>  <hbond:SER:81>  (376) 
0

>  <hydroph_interaction:THR:134>  (376) 
0

>  <hydroph_interaction:MET:49>  (376) 
0

$$$$
Z3205061516
     RDKit          3D

 39 42  0  0  0  0  0  0  0  0999 V2000
   -6.5550    6.5440  -14.1130 O   0  0  0  0  0  0  0  0  0  0  0  0
   -7.3860    5.6540  -14.2930 C   0  0  0  0  0  0  0  0  0  0  0  0
   -7.9160    4.9230  -13.2060 N   0  0  0  0  0  0  0  0  0  0  0  0
   -8.9490    5.3840  -12.3710 C   0  0  0  0  0  0  0  0  0  0  0  0
   -8.8840    5.4340  -10.8250 C   0  0  0  0  0  0  0  0  0  0  0  0
   -8.9660    4.3540   -9.9480 C   0  0  0  0  0  0  0  0  0  0  0  0
   -9.1030    2.9950  -10.1930 C   0  0  0  0  0  0  0  0  0  0  0  0
   -8.6880    2.2520   -9.0830 C   0  0  0  0  0  0  0  0  0  0  0  0
   -9.2960    2.7110   -7.9040 C   0  0  0  0  0  0  0  0  0  0  0  0
   -8.9620    4.0230   -7.6060 C   0  0  0  0  0  0  0  0  0  0  0  0
   -8.8930    4.8310   -8.6730 N   0  0  0  0  0  0  0  0  0  0  0  0
   -8.7550    6.1750   -8.6050 N   0  0  0  0  0  0  0  0  0  0  0  0
   -8.7500    6.5450   -9.9370 C   0  0  0  0  0  0  0  0  0  0  0  0
   -7.8430    5.3500  -15.7100 C   0  0  0  0  0  0  0  0  0  0  0  0
   -9.2860    5.0720  -16.0570 C   0  0  0  0  0  0  0  0  0  0  0  0
   -9.8120    4.7920  -17.4120 C   0  0  0  0  0  0  0  0  0  0  0  0
   -8.8390    4.8640  -18.5170 C   0  0  0  0  0  0  0  0  0  0  0  0
   -7.5270    5.1930  -18.2040 N   0  0  0  0  0  0  0  0  0  0  0  0
   -6.4780    5.2510  -19.0920 C   0  0  0  0  0  0  0  0  0  0  0  0
   -6.4970    5.2380  -20.3100 O   0  0  0  0  0  0  0  0  0  0  0  0
   -5.2900    5.3260  -18.2560 N   0  0  0  0  0  0  0  0  0  0  0  0
   -5.6490    5.3920  -16.9350 N   0  0  0  0  0  0  0  0  0  0  0  0
   -6.9570    5.3150  -16.9300 C   0  0  0  0  0  0  0  0  0  0  0  0
   -7.7390    3.9300  -13.1740 H   0  0  0  0  0  0  0  0  0  0  0  0
   -9.7820    4.7900  -12.7450 H   0  0  0  0  0  0  0  0  0  0  0  0
   -9.1950    6.3730  -12.7480 H   0  0  0  0  0  0  0  0  0  0  0  0
   -8.3570    2.7810  -10.9720 H   0  0  0  0  0  0  0  0  0  0  0  0
  -10.0260    2.6760  -10.6660 H   0  0  0  0  0  0  0  0  0  0  0  0
   -8.8110    1.1950   -9.2180 H   0  0  0  0  0  0  0  0  0  0  0  0
   -7.6070    2.2800   -8.9870 H   0  0  0  0  0  0  0  0  0  0  0  0
  -10.3520    2.4520   -7.8450 H   0  0  0  0  0  0  0  0  0  0  0  0
   -8.8550    2.1050   -7.1020 H   0  0  0  0  0  0  0  0  0  0  0  0
   -9.6960    4.4370   -6.9060 H   0  0  0  0  0  0  0  0  0  0  0  0
   -7.9770    4.0660   -7.1230 H   0  0  0  0  0  0  0  0  0  0  0  0
   -8.6540    7.6060  -10.1890 H   0  0  0  0  0  0  0  0  0  0  0  0
   -9.9690    5.0910  -15.2000 H   0  0  0  0  0  0  0  0  0  0  0  0
  -10.8560    4.5440  -17.6020 H   0  0  0  0  0  0  0  0  0  0  0  0
   -9.0820    4.6800  -19.5590 H   0  0  0  0  0  0  0  0  0  0  0  0
   -4.3430    5.1270  -18.5580 H   0  0  0  0  0  0  0  0  0  0  0  0
  1  2  2  0
  2  3  1  0
  3  4  1  0
  4  5  1  0
  5  6  2  0
  6  7  1  0
  7  8  1  0
  8  9  1  0
  9 10  1  0
 10 11  1  0
 11 12  1  0
 12 13  2  0
  2 14  1  0
 14 15  2  0
 15 16  1  0
 16 17  2  0
 17 18  1  0
 18 19  1  0
 19 20  2  0
 19 21  1  0
 21 22  1  0
 22 23  2  0
 13  5  1  0
 11  6  1  0
 23 14  1  0
 23 18  1  0
  3 24  1  0
  4 25  1  0
  4 26  1  0
  7 27  1  0
  7 28  1  0
  8 29  1  0
  8 30  1  0
  9 31  1  0
  9 32  1  0
 10 33  1  0
 10 34  1  0
 13 35  1  0
 15 36  1  0
 16 37  1  0
 17 38  1  0
 21 39  1  0
A    1
 O1 
A    2
 C1 
A    3
 N1 
A    4
 C2 
A    5
 C3 
A    6
 C4 
A    7
 C5 
A    8
 C6 
A    9
 C7 
A   10
 C8 
A   11
 N2 
A   12
 N3 
A   13
 C9 
A   14
 C10
A   15
 C11
A   16
 C12
A   17
 C13
A   18
 N4 
A   19
 C14
A   20
 O2 
A   21
 N5 
A   22
 N6 
A   23
 C15
A   24
 H1 
A   25
 H2 
A   26
 H3 
A   27
 H4 
A   28
 H5 
A   29
 H6 
A   30
 H7 
A   31
 H8 
A   32
 H9 
A   33
 H10
A   34
 H11
A   35
 H12
A   36
 H13
A   37
 H14
A   38
 H15
A   39
 H16
M  END
>  <ref_pdb>  (377) 
x0051_0B

>  <ref_mols>  (377) 
x0435_0B,x0969_1B

>  <original SMILES>  (377) 
[H]c1nn2c(c1C([H])([H])N([H])C(=O)c1c([H])c([H])c([H])n3c(=O)n([H])nc13)C([H])([H])C([H])([H])C([H])([H])C2([H])[H]

>  <index>  (377) 
442

>  <∆∆G>  (377) 
-6.373907

>  <∆G_bound>  (377) 
-4.905324

>  <∆G_unbound>  (377) 
1.468582

>  <comRMSD>  (377) 
0.3581

>  <N_constrained_atoms>  (377) 
20.0

>  <N_unconstrained_atoms>  (377) 
3.0

>  <runtime>  (377) 
48.663673

>  <LE>  (377) 
0.277126

>  <percent_hybrid>  (377) 
50.0

>  <dist>  (377) 
6.0

>  <ecfp4>  (377) 
0.307692

>  <daylight>  (377) 
0.240786

>  <topodist>  (377) 
1.0

>  <mces>  (377) 
25.0

>  <tdn>  (377) 
0.0

>  <tup>  (377) 
1.0

>  <rdn>  (377) 
0.0

>  <rup>  (377) 
0.0

>  <ldn>  (377) 
0.0

>  <lup>  (377) 
0.0

>  <mut>  (377) 
4.0

>  <maj>  (377) 
4.0

>  <min>  (377) 
0.0

>  <hyb>  (377) 
1.0

>  <sub>  (377) 
0.0

>  <query_index>  (377) 
311.0

>  <max_hit_Tanimoto>  (377) 
0.297275

>  <largest_ring>  (377) 
0

>  <N_interactions_kept>  (377) 
2.0

>  <N_interactions_lost>  (377) 
1.5

>  <interaction_uniqueness_metric>  (377) 
0.186251

>  <ad_hoc_penalty>  (377) 
-20.784577

>  <N_rotatable_bonds>  (377) 
3

>  <N_HA>  (377) 
23

>  <cluster>  (377) 
5817

>  <N_interactions>  (377) 
5

>  <Enamine>  (377) 
1

>  <Mcule>  (377) 
0

>  <N_PAINS>  (377) 
0

>  <UFF_Gibbs>  (377) 
134.766995

>  <strain_per_HA>  (377) 
5.859435

>  <intxn_scored>  (377) 
8.5

>  <saltbridge:HIS:51>  (377) 
0

>  <pistack:HIS:51>  (377) 
0

>  <hydroph_interaction:HIS:51>  (377) 
1

>  <hbond:ALA:132>  (377) 
0

>  <hbond:SER:135>  (377) 
0

>  <hydroph_interaction:TYR:150>  (377) 
0

>  <pistack:TYR:161>  (377) 
1

>  <hydroph_interaction:TYR:161>  (377) 
1

>  <hydroph_interaction:ASP:83>  (377) 
1

>  <hbond:TYR:130>  (377) 
0

>  <hydroph_interaction:ALA:132>  (377) 
0

>  <hbond:HIS:51>  (377) 
0

>  <hbond:ASP:129>  (377) 
0

>  <hbond:TYR:150>  (377) 
0

>  <hbond:GLY:151>  (377) 
0

>  <hbond:TYR:161>  (377) 
1

>  <hydroph_interaction:TYR:130>  (377) 
0

>  <hydroph_interaction:PRO:131>  (377) 
0

>  <hydroph_interaction:ASP:129>  (377) 
0

>  <saltbridge:ASP:75>  (377) 
0

>  <saltbridge:ASP:83>  (377) 
0

>  <hbond:ASN:152>  (377) 
0

>  <hydroph_interaction:ASN:152>  (377) 
0

>  <halogenbond:TYR:150>  (377) 
0

>  <hbond:ASP:83>  (377) 
0

>  <hydroph_interaction:VAL:155>  (377) 
0

>  <pication:TYR:161>  (377) 
0

>  <hbond:PRO:131>  (377) 
0

>  <saltbridge:ASP:129>  (377) 
0

>  <hbond:THR:134>  (377) 
0

>  <pication:HIS:51>  (377) 
0

>  <hbond:SER:81>  (377) 
0

>  <hydroph_interaction:THR:134>  (377) 
0

>  <hydroph_interaction:MET:49>  (377) 
0

$$$$
CSSB03437060720
     RDKit          3D

 42 44  0  0  0  0  0  0  0  0999 V2000
   -8.5650    8.0720  -14.3120 O   0  0  0  0  0  0  0  0  0  0  0  0
   -8.7940    6.8630  -14.2440 C   0  0  0  0  0  0  0  0  0  0  0  0
   -9.0040    5.9260  -15.2810 N   0  0  0  0  0  0  0  0  0  0  0  0
   -8.1660    5.6580  -16.4160 C   0  0  0  0  0  0  0  0  0  0  0  0
   -8.7400    5.1630  -17.7720 C   0  0  0  0  0  0  0  0  0  0  0  0
   -7.8630    4.9140  -19.0060 C   0  0  0  0  0  0  0  0  0  0  0  0
   -6.3650    5.1550  -18.8600 C   0  0  0  0  0  0  0  0  0  0  0  0
   -5.9540    5.5800  -17.5840 C   0  0  0  0  0  0  0  0  0  0  0  0
   -6.7880    5.8410  -16.3580 C   0  0  0  0  0  0  0  0  0  0  0  0
  -10.2160    4.8930  -18.0190 C   0  0  0  0  0  0  0  0  0  0  0  0
  -11.2920    4.7140  -18.3470 N   0  0  0  0  0  0  0  0  0  0  0  0
   -8.8550    6.2680  -12.9020 C   0  0  0  0  0  0  0  0  0  0  0  0
   -8.7620    7.1430  -11.6570 C   0  0  0  0  0  0  0  0  0  0  0  0
   -8.8300    6.5240  -10.4190 C   0  0  0  0  0  0  0  0  0  0  0  0
   -8.9760    5.1370  -10.3630 C   0  0  0  0  0  0  0  0  0  0  0  0
   -9.0560    4.3400  -11.5040 C   0  0  0  0  0  0  0  0  0  0  0  0
   -8.9970    4.8990  -12.7630 C   0  0  0  0  0  0  0  0  0  0  0  0
   -9.0600    4.4500   -9.1310 N   0  0  0  0  0  0  0  0  0  0  0  0
   -9.1450    2.9640   -9.2480 C   0  0  0  0  0  0  0  0  0  0  0  0
   -9.5460    2.3660   -7.9060 C   0  0  0  0  0  0  0  0  0  0  0  0
   -8.4730    2.7710   -6.9370 C   0  0  0  0  0  0  0  0  0  0  0  0
   -8.7750    4.1820   -6.4680 C   0  0  0  0  0  0  0  0  0  0  0  0
   -8.2930    5.2370   -7.8020 S   0  0  0  0  0  6  0  0  0  0  0  0
   -8.9230    6.5200   -7.5800 O   0  0  0  0  0  0  0  0  0  0  0  0
   -6.8580    5.1310   -7.9700 O   0  0  0  0  0  0  0  0  0  0  0  0
   -9.6220    5.1610  -15.0290 H   0  0  0  0  0  0  0  0  0  0  0  0
   -8.2800    4.5760  -19.9550 H   0  0  0  0  0  0  0  0  0  0  0  0
   -5.6690    5.0000  -19.6870 H   0  0  0  0  0  0  0  0  0  0  0  0
   -4.8890    5.7490  -17.4630 H   0  0  0  0  0  0  0  0  0  0  0  0
   -6.2810    6.1750  -15.4610 H   0  0  0  0  0  0  0  0  0  0  0  0
   -8.6490    8.2230  -11.7270 H   0  0  0  0  0  0  0  0  0  0  0  0
   -8.7720    7.1100   -9.5100 H   0  0  0  0  0  0  0  0  0  0  0  0
   -9.1710    3.2620  -11.4080 H   0  0  0  0  0  0  0  0  0  0  0  0
   -9.0650    4.2420  -13.6250 H   0  0  0  0  0  0  0  0  0  0  0  0
   -8.1750    2.5450   -9.5490 H   0  0  0  0  0  0  0  0  0  0  0  0
   -9.8940    2.6530   -9.9860 H   0  0  0  0  0  0  0  0  0  0  0  0
  -10.5250    2.7380   -7.5820 H   0  0  0  0  0  0  0  0  0  0  0  0
   -9.6100    1.2850   -7.9860 H   0  0  0  0  0  0  0  0  0  0  0  0
   -7.5610    2.8510   -7.5300 H   0  0  0  0  0  0  0  0  0  0  0  0
   -8.2030    2.1450   -6.1090 H   0  0  0  0  0  0  0  0  0  0  0  0
   -8.1990    4.4550   -5.5790 H   0  0  0  0  0  0  0  0  0  0  0  0
   -9.8430    4.3290   -6.2750 H   0  0  0  0  0  0  0  0  0  0  0  0
  1  2  2  0
  2  3  1  0
  3  4  1  0
  4  5  2  0
  5  6  1  0
  6  7  2  0
  7  8  1  0
  8  9  2  0
  5 10  1  0
 10 11  3  0
  2 12  1  0
 12 13  2  0
 13 14  1  0
 14 15  2  0
 15 16  1  0
 16 17  2  0
 15 18  1  0
 18 19  1  0
 19 20  1  0
 20 21  1  0
 21 22  1  0
 22 23  1  0
 23 24  2  0
 23 25  2  0
  9  4  1  0
 17 12  1  0
 23 18  1  0
  3 26  1  0
  6 27  1  0
  7 28  1  0
  8 29  1  0
  9 30  1  0
 13 31  1  0
 14 32  1  0
 16 33  1  0
 17 34  1  0
 19 35  1  0
 19 36  1  0
 20 37  1  0
 20 38  1  0
 21 39  1  0
 21 40  1  0
 22 41  1  0
 22 42  1  0
A    1
 O1 
A    2
 C1 
A    3
 N1 
A    4
 C2 
A    5
 C3 
A    6
 C4 
A    7
 C5 
A    8
 C6 
A    9
 C7 
A   10
 C8 
A   11
 N2 
A   12
 C9 
A   13
 C10
A   14
 C11
A   15
 C12
A   16
 C13
A   17
 C14
A   18
 N3 
A   19
 C15
A   20
 C16
A   21
 C17
A   22
 C18
A   23
 S1 
A   24
 O2 
A   25
 O3 
A   26
 H1 
A   27
 H2 
A   28
 H3 
A   29
 H4 
A   30
 H5 
A   31
 H6 
A   32
 H7 
A   33
 H8 
A   34
 H9 
A   35
 H10
A   36
 H11
A   37
 H12
A   38
 H13
A   39
 H14
A   40
 H15
A   41
 H16
A   42
 H17
M  END
>  <ref_pdb>  (378) 
x0051_0B

>  <ref_mols>  (378) 
x0605_0B,x0404_0B

>  <original SMILES>  (378) 
[H]c1c([H])c([H])c(N([H])C(=O)c2c([H])c([H])c(N3C([H])([H])C([H])([H])C([H])([H])C([H])([H])S3(=O)=O)c([H])c2[H])c(C#N)c1[H]

>  <index>  (378) 
722

>  <∆∆G>  (378) 
-6.338304

>  <∆G_bound>  (378) 
-5.61278

>  <∆G_unbound>  (378) 
0.725524

>  <comRMSD>  (378) 
0.630397

>  <N_constrained_atoms>  (378) 
24.0

>  <N_unconstrained_atoms>  (378) 
2.0

>  <runtime>  (378) 
83.689713

>  <LE>  (378) 
0.243781

>  <percent_hybrid>  (378) 
38.0

>  <dist>  (378) 
11.0

>  <ecfp4>  (378) 
0.147727

>  <daylight>  (378) 
0.218341

>  <topodist>  (378) 
5.0

>  <mces>  (378) 
25.0

>  <tdn>  (378) 
2.0

>  <tup>  (378) 
2.0

>  <rdn>  (378) 
0.0

>  <rup>  (378) 
0.0

>  <ldn>  (378) 
1.0

>  <lup>  (378) 
0.0

>  <mut>  (378) 
4.0

>  <maj>  (378) 
4.0

>  <min>  (378) 
0.0

>  <hyb>  (378) 
2.0

>  <sub>  (378) 
1.0

>  <query_index>  (378) 
27.0

>  <max_hit_Tanimoto>  (378) 
0.186813

>  <largest_ring>  (378) 
6

>  <N_interactions_kept>  (378) 
1.5

>  <N_interactions_lost>  (378) 
2.5

>  <interaction_uniqueness_metric>  (378) 
0.209876

>  <ad_hoc_penalty>  (378) 
-16.28041

>  <N_rotatable_bonds>  (378) 
3

>  <N_HA>  (378) 
25

>  <cluster>  (378) 
5559

>  <N_interactions>  (378) 
6

>  <Enamine>  (378) 
1

>  <Mcule>  (378) 
0

>  <N_PAINS>  (378) 
0

>  <UFF_Gibbs>  (378) 
172.970823

>  <strain_per_HA>  (378) 
6.918833

>  <intxn_scored>  (378) 
8.5

>  <saltbridge:HIS:51>  (378) 
0

>  <pistack:HIS:51>  (378) 
1

>  <hydroph_interaction:HIS:51>  (378) 
1

>  <hbond:ALA:132>  (378) 
0

>  <hbond:SER:135>  (378) 
0

>  <hydroph_interaction:TYR:150>  (378) 
0

>  <pistack:TYR:161>  (378) 
1

>  <hydroph_interaction:TYR:161>  (378) 
1

>  <hydroph_interaction:ASP:83>  (378) 
1

>  <hbond:TYR:130>  (378) 
0

>  <hydroph_interaction:ALA:132>  (378) 
0

>  <hbond:HIS:51>  (378) 
0

>  <hbond:ASP:129>  (378) 
0

>  <hbond:TYR:150>  (378) 
0

>  <hbond:GLY:151>  (378) 
1

>  <hbond:TYR:161>  (378) 
0

>  <hydroph_interaction:TYR:130>  (378) 
0

>  <hydroph_interaction:PRO:131>  (378) 
0

>  <hydroph_interaction:ASP:129>  (378) 
0

>  <saltbridge:ASP:75>  (378) 
0

>  <saltbridge:ASP:83>  (378) 
0

>  <hbond:ASN:152>  (378) 
0

>  <hydroph_interaction:ASN:152>  (378) 
0

>  <halogenbond:TYR:150>  (378) 
0

>  <hbond:ASP:83>  (378) 
0

>  <hydroph_interaction:VAL:155>  (378) 
0

>  <pication:TYR:161>  (378) 
0

>  <hbond:PRO:131>  (378) 
0

>  <saltbridge:ASP:129>  (378) 
0

>  <hbond:THR:134>  (378) 
0

>  <pication:HIS:51>  (378) 
0

>  <hbond:SER:81>  (378) 
0

>  <hydroph_interaction:THR:134>  (378) 
0

>  <hydroph_interaction:MET:49>  (378) 
0

$$$$
Z4862510107
     RDKit          3D

 39 41  0  0  0  0  0  0  0  0999 V2000
  -10.5470    4.7650  -18.2550 C   0  0  0  0  0  0  0  0  0  0  0  0
   -9.1990    4.9820  -17.7450 C   0  0  0  0  0  0  0  0  0  0  0  0
   -8.1540    5.2650  -18.6130 C   0  0  0  0  0  0  0  0  0  0  0  0
   -6.8870    5.4590  -18.1160 C   0  0  0  0  0  0  0  0  0  0  0  0
   -6.6450    5.3670  -16.7520 C   0  0  0  0  0  0  0  0  0  0  0  0
   -5.0130    5.6170  -16.2700 Cl  0  0  0  0  0  0  0  0  0  0  0  0
   -7.6410    5.0830  -15.8090 C   0  0  0  0  0  0  0  0  0  0  0  0
   -7.4450    4.9370  -14.3060 C   0  0  0  0  0  0  0  0  0  0  0  0
   -8.0510    5.9100  -13.3680 N   0  0  0  0  0  0  0  0  0  0  0  0
   -9.0600    5.1850  -12.5090 C   0  0  0  0  0  0  0  0  0  0  0  0
   -8.9570    5.4730  -10.9800 C   0  0  0  0  0  0  0  0  0  0  0  0
   -9.0550    4.2990  -10.0230 C   0  0  0  0  0  0  0  0  0  0  0  0
   -9.2050    2.9380  -10.1850 C   0  0  0  0  0  0  0  0  0  0  0  0
   -9.0620    2.2440   -8.9050 N   0  0  0  0  0  0  0  0  0  0  0  0
   -9.6850    2.8500   -7.8380 C   0  0  0  0  0  0  0  0  0  0  0  0
   -9.0500    4.0680   -7.5880 C   0  0  0  0  0  0  0  0  0  0  0  0
   -8.9680    4.8590   -8.7970 N   0  0  0  0  0  0  0  0  0  0  0  0
   -8.8070    6.2140   -8.8020 N   0  0  0  0  0  0  0  0  0  0  0  0
   -8.8020    6.5840  -10.1120 C   0  0  0  0  0  0  0  0  0  0  0  0
   -8.9440    4.8970  -16.3580 C   0  0  0  0  0  0  0  0  0  0  0  0
  -10.4700    3.9430  -18.9260 H   0  0  0  0  0  0  0  0  0  0  0  0
  -11.1960    4.4800  -17.4580 H   0  0  0  0  0  0  0  0  0  0  0  0
  -10.9490    5.6290  -18.7870 H   0  0  0  0  0  0  0  0  0  0  0  0
   -8.3230    5.3370  -19.6840 H   0  0  0  0  0  0  0  0  0  0  0  0
   -6.0700    5.6830  -18.7970 H   0  0  0  0  0  0  0  0  0  0  0  0
   -7.8860    3.9660  -14.0550 H   0  0  0  0  0  0  0  0  0  0  0  0
   -6.4100    4.8220  -13.9890 H   0  0  0  0  0  0  0  0  0  0  0  0
   -7.3240    6.3130  -12.7820 H   0  0  0  0  0  0  0  0  0  0  0  0
   -8.9270    4.1010  -12.6330 H   0  0  0  0  0  0  0  0  0  0  0  0
  -10.0140    5.3760  -12.9860 H   0  0  0  0  0  0  0  0  0  0  0  0
   -8.4450    2.5660  -10.8810 H   0  0  0  0  0  0  0  0  0  0  0  0
  -10.1730    2.6870  -10.6160 H   0  0  0  0  0  0  0  0  0  0  0  0
   -9.4170    1.2980   -9.0070 H   0  0  0  0  0  0  0  0  0  0  0  0
   -9.3560    2.2590   -6.9740 H   0  0  0  0  0  0  0  0  0  0  0  0
  -10.7500    2.6980   -7.7950 H   0  0  0  0  0  0  0  0  0  0  0  0
   -9.6230    4.6480   -6.8570 H   0  0  0  0  0  0  0  0  0  0  0  0
   -8.0490    3.9190   -7.1820 H   0  0  0  0  0  0  0  0  0  0  0  0
   -8.6910    7.6450  -10.3710 H   0  0  0  0  0  0  0  0  0  0  0  0
   -9.7740    4.6730  -15.6870 H   0  0  0  0  0  0  0  0  0  0  0  0
  1  2  1  0
  2  3  2  0
  3  4  1  0
  4  5  2  0
  5  6  1  0
  5  7  1  0
  7  8  1  0
  8  9  1  0
  9 10  1  0
 10 11  1  0
 11 12  2  0
 12 13  1  0
 13 14  1  0
 14 15  1  0
 15 16  1  0
 16 17  1  0
 17 18  1  0
 18 19  2  0
  7 20  2  0
 20  2  1  0
 19 11  1  0
 17 12  1  0
  1 21  1  0
  1 22  1  0
  1 23  1  0
  3 24  1  0
  4 25  1  0
  8 26  1  0
  8 27  1  0
  9 28  1  0
 10 29  1  0
 10 30  1  0
 13 31  1  0
 13 32  1  0
 14 33  1  0
 15 34  1  0
 15 35  1  0
 16 36  1  0
 16 37  1  0
 19 38  1  0
 20 39  1  0
A    1
 C1 
A    2
 C2 
A    3
 C3 
A    4
 C4 
A    5
 C5 
A    6
CL1 
A    7
 C6 
A    8
 C7 
A    9
 N1 
A   10
 C8 
A   11
 C9 
A   12
 C10
A   13
 C11
A   14
 N2 
A   15
 C12
A   16
 C13
A   17
 N3 
A   18
 N4 
A   19
 C14
A   20
 C15
A   21
 H1 
A   22
 H2 
A   23
 H3 
A   24
 H4 
A   25
 H5 
A   26
 H6 
A   27
 H7 
A   28
 H8 
A   29
 H9 
A   30
 H10
A   31
 H11
A   32
 H12
A   33
 H13
A   34
 H14
A   35
 H15
A   36
 H16
A   37
 H17
A   38
 H18
A   39
 H19
M  END
>  <ref_pdb>  (379) 
x0051_0B

>  <ref_mols>  (379) 
x0553_0B,x0969_1B

>  <original SMILES>  (379) 
[H]c1nn2c(c1C([H])([H])N([H])C([H])([H])c1c([H])c(C([H])([H])[H])c([H])c([H])c1Cl)C([H])([H])N([H])C([H])([H])C2([H])[H]

>  <index>  (379) 
3058

>  <∆∆G>  (379) 
-5.413266

>  <∆G_bound>  (379) 
-4.758231

>  <∆G_unbound>  (379) 
0.655036

>  <comRMSD>  (379) 
0.628277

>  <N_constrained_atoms>  (379) 
19.0

>  <N_unconstrained_atoms>  (379) 
2.0

>  <runtime>  (379) 
35.23611

>  <LE>  (379) 
0.257775

>  <percent_hybrid>  (379) 
48.0

>  <dist>  (379) 
5.0

>  <ecfp4>  (379) 
0.408451

>  <daylight>  (379) 
0.547085

>  <topodist>  (379) 
1.0

>  <mces>  (379) 
22.0

>  <tdn>  (379) 
1.0

>  <tup>  (379) 
0.0

>  <rdn>  (379) 
0.0

>  <rup>  (379) 
0.0

>  <ldn>  (379) 
0.0

>  <lup>  (379) 
0.0

>  <mut>  (379) 
3.0

>  <maj>  (379) 
3.0

>  <min>  (379) 
0.0

>  <hyb>  (379) 
1.0

>  <sub>  (379) 
0.0

>  <query_index>  (379) 
375.0

>  <max_hit_Tanimoto>  (379) 
0.643443

>  <largest_ring>  (379) 
6

>  <N_interactions_kept>  (379) 
0.5

>  <N_interactions_lost>  (379) 
2.0

>  <interaction_uniqueness_metric>  (379) 
0.183011

>  <ad_hoc_penalty>  (379) 
-3.53024

>  <N_rotatable_bonds>  (379) 
5

>  <N_HA>  (379) 
20

>  <cluster>  (379) 
3390

>  <N_interactions>  (379) 
4

>  <Enamine>  (379) 
1

>  <Mcule>  (379) 
0

>  <N_PAINS>  (379) 
0

>  <UFF_Gibbs>  (379) 
96.264462

>  <strain_per_HA>  (379) 
4.813223

>  <intxn_scored>  (379) 
8.5

>  <saltbridge:HIS:51>  (379) 
0

>  <pistack:HIS:51>  (379) 
1

>  <hydroph_interaction:HIS:51>  (379) 
0

>  <hbond:ALA:132>  (379) 
0

>  <hbond:SER:135>  (379) 
0

>  <hydroph_interaction:TYR:150>  (379) 
1

>  <pistack:TYR:161>  (379) 
1

>  <hydroph_interaction:TYR:161>  (379) 
0

>  <hydroph_interaction:ASP:83>  (379) 
0

>  <hbond:TYR:130>  (379) 
0

>  <hydroph_interaction:ALA:132>  (379) 
0

>  <hbond:HIS:51>  (379) 
0

>  <hbond:ASP:129>  (379) 
0

>  <hbond:TYR:150>  (379) 
0

>  <hbond:GLY:151>  (379) 
0

>  <hbond:TYR:161>  (379) 
0

>  <hydroph_interaction:TYR:130>  (379) 
0

>  <hydroph_interaction:PRO:131>  (379) 
0

>  <hydroph_interaction:ASP:129>  (379) 
0

>  <saltbridge:ASP:75>  (379) 
0

>  <saltbridge:ASP:83>  (379) 
0

>  <hbond:ASN:152>  (379) 
0

>  <hydroph_interaction:ASN:152>  (379) 
0

>  <halogenbond:TYR:150>  (379) 
0

>  <hbond:ASP:83>  (379) 
1

>  <hydroph_interaction:VAL:155>  (379) 
0

>  <pication:TYR:161>  (379) 
0

>  <hbond:PRO:131>  (379) 
0

>  <saltbridge:ASP:129>  (379) 
0

>  <hbond:THR:134>  (379) 
0

>  <pication:HIS:51>  (379) 
0

>  <hbond:SER:81>  (379) 
0

>  <hydroph_interaction:THR:134>  (379) 
0

>  <hydroph_interaction:MET:49>  (379) 
0

$$$$
Z2368183158
     RDKit          3D

 30 32  0  0  0  0  0  0  0  0999 V2000
   -7.9530    5.3720  -14.5040 I   0  0  0  0  0  0  0  0  0  0  0  0
   -8.2160    5.2100  -16.5850 C   0  0  0  0  0  0  0  0  0  0  0  0
   -9.6420    4.8920  -16.8670 C   0  0  0  0  0  0  0  0  0  0  0  0
  -10.1810    4.7130  -18.2580 C   0  0  0  0  0  0  0  0  0  0  0  0
   -9.1230    4.8850  -19.3180 C   0  0  0  0  0  0  0  0  0  0  0  0
   -7.6750    5.2090  -18.9270 C   0  0  0  0  0  0  0  0  0  0  0  0
   -6.9060    5.3160  -20.0560 N   0  0  0  0  0  0  0  0  0  0  0  0
   -5.5880    5.6000  -19.9170 C   0  0  0  0  0  0  0  0  0  0  0  0
   -4.9310    5.7960  -18.6310 N   0  0  0  0  0  0  0  0  0  0  0  0
   -5.8180    5.6610  -17.4850 C   0  0  0  0  0  0  0  0  0  0  0  0
   -5.2010    5.8320  -16.2920 N   0  0  0  0  0  0  0  0  0  0  0  0
   -5.2100    7.0330  -15.6950 C   0  0  0  0  0  0  0  0  0  0  0  0
   -4.1920    7.1640  -14.8080 C   0  0  0  0  0  0  0  0  0  0  0  0
   -3.8340    5.9190  -14.0930 N   0  0  0  0  0  0  0  0  0  0  0  0
   -3.4950    4.8350  -15.0420 C   0  0  0  0  0  0  0  0  0  0  0  0
   -3.8600    5.1820  -16.2870 C   0  0  0  0  0  0  0  0  0  0  0  0
   -7.2170    5.3690  -17.5960 C   0  0  0  0  0  0  0  0  0  0  0  0
  -10.3740    4.7720  -16.0680 H   0  0  0  0  0  0  0  0  0  0  0  0
  -11.2200    4.4850  -18.4790 H   0  0  0  0  0  0  0  0  0  0  0  0
   -9.3850    4.7800  -20.3680 H   0  0  0  0  0  0  0  0  0  0  0  0
   -4.9850    5.6860  -20.8140 H   0  0  0  0  0  0  0  0  0  0  0  0
   -6.1610    7.1680  -15.1670 H   0  0  0  0  0  0  0  0  0  0  0  0
   -5.1300    7.8470  -16.4270 H   0  0  0  0  0  0  0  0  0  0  0  0
   -4.4980    7.8780  -14.0540 H   0  0  0  0  0  0  0  0  0  0  0  0
   -3.3550    7.6280  -15.3200 H   0  0  0  0  0  0  0  0  0  0  0  0
   -3.0180    6.0880  -13.5070 H   0  0  0  0  0  0  0  0  0  0  0  0
   -3.9830    3.9490  -14.6430 H   0  0  0  0  0  0  0  0  0  0  0  0
   -2.4440    4.6300  -14.8610 H   0  0  0  0  0  0  0  0  0  0  0  0
   -3.1780    5.7450  -16.9080 H   0  0  0  0  0  0  0  0  0  0  0  0
   -3.9880    4.2540  -16.8380 H   0  0  0  0  0  0  0  0  0  0  0  0
  1  2  1  0
  2  3  2  0
  3  4  1  0
  4  5  2  0
  5  6  1  0
  6  7  2  0
  7  8  1  0
  8  9  2  0
  9 10  1  0
 10 11  1  0
 11 12  1  0
 12 13  1  0
 13 14  1  0
 14 15  1  0
 15 16  1  0
 10 17  2  0
 17  2  1  0
 17  6  1  0
 16 11  1  0
  3 18  1  0
  4 19  1  0
  5 20  1  0
  8 21  1  0
 12 22  1  0
 12 23  1  0
 13 24  1  0
 13 25  1  0
 14 26  1  0
 15 27  1  0
 15 28  1  0
 16 29  1  0
 16 30  1  0
A    1
 I1 
A    2
 C1 
A    3
 C2 
A    4
 C3 
A    5
 C4 
A    6
 C5 
A    7
 N1 
A    8
 C6 
A    9
 N2 
A   10
 C7 
A   11
 N3 
A   12
 C8 
A   13
 C9 
A   14
 N4 
A   15
 C10
A   16
 C11
A   17
 C12
A   18
 H1 
A   19
 H2 
A   20
 H3 
A   21
 H4 
A   22
 H5 
A   23
 H6 
A   24
 H7 
A   25
 H8 
A   26
 H9 
A   27
 H10
A   28
 H11
A   29
 H12
A   30
 H13
M  END
>  <ref_pdb>  (380) 
x0051_0B

>  <ref_mols>  (380) 
x0429_0B,x0693_0B

>  <original SMILES>  (380) 
[H]c1nc(N2C([H])([H])C([H])([H])N([H])C([H])([H])C2([H])[H])c2c(I)c([H])c([H])c([H])c2n1

>  <index>  (380) 
1067

>  <∆∆G>  (380) 
-5.575907

>  <∆G_bound>  (380) 
-4.098341

>  <∆G_unbound>  (380) 
1.477566

>  <comRMSD>  (380) 
0.590051

>  <N_constrained_atoms>  (380) 
18.0

>  <N_unconstrained_atoms>  (380) 
0.0

>  <runtime>  (380) 
19.762784

>  <LE>  (380) 
0.309773

>  <percent_hybrid>  (380) 
20.0

>  <dist>  (380) 
2.0

>  <ecfp4>  (380) 
0.446809

>  <daylight>  (380) 
0.516129

>  <topodist>  (380) 
0.0

>  <mces>  (380) 
19.0

>  <tdn>  (380) 
0.0

>  <tup>  (380) 
0.0

>  <rdn>  (380) 
0.0

>  <rup>  (380) 
0.0

>  <ldn>  (380) 
0.0

>  <lup>  (380) 
0.0

>  <mut>  (380) 
2.0

>  <maj>  (380) 
2.0

>  <min>  (380) 
0.0

>  <hyb>  (380) 
0.0

>  <sub>  (380) 
0.0

>  <query_index>  (380) 
179.0

>  <max_hit_Tanimoto>  (380) 
0.432331

>  <largest_ring>  (380) 
6

>  <N_interactions_kept>  (380) 
3.0

>  <N_interactions_lost>  (380) 
1.5

>  <interaction_uniqueness_metric>  (380) 
0.034019

>  <ad_hoc_penalty>  (380) 
-10.651023

>  <N_rotatable_bonds>  (380) 
1

>  <N_HA>  (380) 
17

>  <cluster>  (380) 
5236

>  <N_interactions>  (380) 
3

>  <Enamine>  (380) 
1

>  <Mcule>  (380) 
0

>  <N_PAINS>  (380) 
0

>  <UFF_Gibbs>  (380) 
132.420079

>  <strain_per_HA>  (380) 
7.789416

>  <intxn_scored>  (380) 
8.5

>  <saltbridge:HIS:51>  (380) 
0

>  <pistack:HIS:51>  (380) 
0

>  <hydroph_interaction:HIS:51>  (380) 
0

>  <hbond:ALA:132>  (380) 
0

>  <hbond:SER:135>  (380) 
0

>  <hydroph_interaction:TYR:150>  (380) 
1

>  <pistack:TYR:161>  (380) 
2

>  <hydroph_interaction:TYR:161>  (380) 
0

>  <hydroph_interaction:ASP:83>  (380) 
0

>  <hbond:TYR:130>  (380) 
0

>  <hydroph_interaction:ALA:132>  (380) 
0

>  <hbond:HIS:51>  (380) 
0

>  <hbond:ASP:129>  (380) 
0

>  <hbond:TYR:150>  (380) 
0

>  <hbond:GLY:151>  (380) 
0

>  <hbond:TYR:161>  (380) 
0

>  <hydroph_interaction:TYR:130>  (380) 
0

>  <hydroph_interaction:PRO:131>  (380) 
0

>  <hydroph_interaction:ASP:129>  (380) 
0

>  <saltbridge:ASP:75>  (380) 
0

>  <saltbridge:ASP:83>  (380) 
0

>  <hbond:ASN:152>  (380) 
0

>  <hydroph_interaction:ASN:152>  (380) 
0

>  <halogenbond:TYR:150>  (380) 
0

>  <hbond:ASP:83>  (380) 
0

>  <hydroph_interaction:VAL:155>  (380) 
0

>  <pication:TYR:161>  (380) 
0

>  <hbond:PRO:131>  (380) 
0

>  <saltbridge:ASP:129>  (380) 
0

>  <hbond:THR:134>  (380) 
0

>  <pication:HIS:51>  (380) 
0

>  <hbond:SER:81>  (380) 
0

>  <hydroph_interaction:THR:134>  (380) 
0

>  <hydroph_interaction:MET:49>  (380) 
0

$$$$
PV-002199476813
     RDKit          3D

 44 46  0  0  0  0  0  0  0  0999 V2000
  -10.9610    5.0640  -18.4840 C   0  0  0  0  0  0  0  0  0  0  0  0
   -9.7040    4.3560  -18.8330 C   0  0  0  0  0  0  0  0  0  0  0  0
   -8.4760    4.8230  -18.1800 C   0  0  0  0  0  0  0  0  0  0  0  0
   -7.5260    5.2310  -19.0170 C   0  0  0  0  0  0  0  0  0  0  0  0
   -6.1930    5.7180  -18.5960 C   0  0  0  0  0  0  0  0  0  0  0  0
   -5.9810    5.7170  -17.1020 C   0  0  0  0  0  0  0  0  0  0  0  0
   -7.1000    5.2460  -16.1850 C   0  0  0  0  0  0  0  0  0  0  0  0
   -6.9040    5.2340  -14.8120 C   0  0  0  0  0  0  0  0  0  0  0  0
   -7.5370    6.3080  -14.2270 O   0  0  0  0  0  0  0  0  0  0  0  0
   -7.4780    6.0680  -12.8670 C   0  0  0  0  0  0  0  0  0  0  0  0
   -6.4970    6.2680  -12.1600 O   0  0  0  0  0  0  0  0  0  0  0  0
   -8.8150    5.5070  -12.3440 C   0  0  0  0  0  0  0  0  0  0  0  0
   -8.8320    5.5360  -10.8020 C   0  0  0  0  0  0  0  0  0  0  0  0
   -8.9260    4.4360   -9.8310 C   0  0  0  0  0  0  0  0  0  0  0  0
   -9.0150    2.9770  -10.2230 C   0  0  0  0  0  0  0  0  0  0  0  0
   -8.6450    2.2130   -8.9660 C   0  0  0  0  0  0  0  0  0  0  0  0
   -9.4080    2.6900   -7.7340 C   0  0  0  0  0  0  0  0  0  0  0  0
   -9.0140    4.1180   -7.3780 C   0  0  0  0  0  0  0  0  0  0  0  0
   -8.9200    4.9270   -8.5810 N   0  0  0  0  0  0  0  0  0  0  0  0
   -8.8160    6.3390   -8.5900 N   0  0  0  0  0  0  0  0  0  0  0  0
   -8.7680    6.6600   -9.9130 C   0  0  0  0  0  0  0  0  0  0  0  0
   -8.3060    4.8220  -16.7770 C   0  0  0  0  0  0  0  0  0  0  0  0
  -10.7940    5.6460  -17.5860 H   0  0  0  0  0  0  0  0  0  0  0  0
  -11.2760    5.7420  -19.2850 H   0  0  0  0  0  0  0  0  0  0  0  0
  -11.7640    4.3550  -18.3070 H   0  0  0  0  0  0  0  0  0  0  0  0
   -9.5320    4.4940  -19.9050 H   0  0  0  0  0  0  0  0  0  0  0  0
   -9.8160    3.2860  -18.6740 H   0  0  0  0  0  0  0  0  0  0  0  0
   -7.7420    5.2000  -20.0800 H   0  0  0  0  0  0  0  0  0  0  0  0
   -5.4330    6.0450  -19.3010 H   0  0  0  0  0  0  0  0  0  0  0  0
   -5.0370    6.0490  -16.6770 H   0  0  0  0  0  0  0  0  0  0  0  0
   -5.8220    5.3030  -14.6530 H   0  0  0  0  0  0  0  0  0  0  0  0
   -7.2840    4.3040  -14.3750 H   0  0  0  0  0  0  0  0  0  0  0  0
   -8.9420    4.4900  -12.7250 H   0  0  0  0  0  0  0  0  0  0  0  0
   -9.6300    6.1340  -12.7160 H   0  0  0  0  0  0  0  0  0  0  0  0
  -10.0330    2.7260  -10.5380 H   0  0  0  0  0  0  0  0  0  0  0  0
   -8.3290    2.7280  -11.0400 H   0  0  0  0  0  0  0  0  0  0  0  0
   -7.5730    2.3380   -8.7930 H   0  0  0  0  0  0  0  0  0  0  0  0
   -8.8120    1.1590   -9.0990 H   0  0  0  0  0  0  0  0  0  0  0  0
  -10.4870    2.6350   -7.9290 H   0  0  0  0  0  0  0  0  0  0  0  0
   -9.2020    2.0290   -6.8920 H   0  0  0  0  0  0  0  0  0  0  0  0
   -8.0280    4.1440   -6.9000 H   0  0  0  0  0  0  0  0  0  0  0  0
   -9.7510    4.5720   -6.7080 H   0  0  0  0  0  0  0  0  0  0  0  0
   -8.6890    7.7090  -10.1780 H   0  0  0  0  0  0  0  0  0  0  0  0
   -9.1170    4.4790  -16.1370 H   0  0  0  0  0  0  0  0  0  0  0  0
  1  2  1  0
  2  3  1  0
  3  4  2  0
  4  5  1  0
  5  6  2  0
  6  7  1  0
  7  8  1  0
  8  9  1  0
  9 10  1  0
 10 11  2  0
 10 12  1  0
 12 13  1  0
 13 14  2  0
 14 15  1  0
 15 16  1  0
 16 17  1  0
 17 18  1  0
 18 19  1  0
 19 20  1  0
 20 21  2  0
  7 22  2  0
 22  3  1  0
 21 13  1  0
 19 14  1  0
  1 23  1  0
  1 24  1  0
  1 25  1  0
  2 26  1  0
  2 27  1  0
  4 28  1  0
  5 29  1  0
  6 30  1  0
  8 31  1  0
  8 32  1  0
 12 33  1  0
 12 34  1  0
 15 35  1  0
 15 36  1  0
 16 37  1  0
 16 38  1  0
 17 39  1  0
 17 40  1  0
 18 41  1  0
 18 42  1  0
 21 43  1  0
 22 44  1  0
A    1
 C1 
A    2
 C2 
A    3
 C3 
A    4
 C4 
A    5
 C5 
A    6
 C6 
A    7
 C7 
A    8
 C8 
A    9
 O1 
A   10
 C9 
A   11
 O2 
A   12
 C10
A   13
 C11
A   14
 C12
A   15
 C13
A   16
 C14
A   17
 C15
A   18
 C16
A   19
 N1 
A   20
 N2 
A   21
 C17
A   22
 C18
A   23
 H1 
A   24
 H2 
A   25
 H3 
A   26
 H4 
A   27
 H5 
A   28
 H6 
A   29
 H7 
A   30
 H8 
A   31
 H9 
A   32
 H10
A   33
 H11
A   34
 H12
A   35
 H13
A   36
 H14
A   37
 H15
A   38
 H16
A   39
 H17
A   40
 H18
A   41
 H19
A   42
 H20
A   43
 H21
A   44
 H22
M  END
>  <ref_pdb>  (381) 
x0051_0B

>  <ref_mols>  (381) 
x0605_0B,x0969_1B

>  <original SMILES>  (381) 
[H]c1nn2c(c1C([H])([H])C(=O)OC([H])([H])c1c([H])c([H])c([H])c(C([H])([H])C([H])([H])[H])c1[H])C([H])([H])C([H])([H])C([H])([H])C2([H])[H]

>  <index>  (381) 
501

>  <∆∆G>  (381) 
-9.242672

>  <∆G_bound>  (381) 
-8.42517

>  <∆G_unbound>  (381) 
0.817503

>  <comRMSD>  (381) 
0.668356

>  <N_constrained_atoms>  (381) 
19.0

>  <N_unconstrained_atoms>  (381) 
3.0

>  <runtime>  (381) 
50.758898

>  <LE>  (381) 
0.420121

>  <percent_hybrid>  (381) 
48.0

>  <dist>  (381) 
5.0

>  <ecfp4>  (381) 
0.352113

>  <daylight>  (381) 
0.462151

>  <topodist>  (381) 
1.0

>  <mces>  (381) 
23.0

>  <tdn>  (381) 
0.0

>  <tup>  (381) 
1.0

>  <rdn>  (381) 
0.0

>  <rup>  (381) 
0.0

>  <ldn>  (381) 
0.0

>  <lup>  (381) 
0.0

>  <mut>  (381) 
1.0

>  <maj>  (381) 
1.0

>  <min>  (381) 
0.0

>  <hyb>  (381) 
3.0

>  <sub>  (381) 
0.0

>  <query_index>  (381) 
307.0

>  <max_hit_Tanimoto>  (381) 
0.313417

>  <largest_ring>  (381) 
6

>  <N_interactions_kept>  (381) 
1.5

>  <N_interactions_lost>  (381) 
1.5

>  <interaction_uniqueness_metric>  (381) 
0.150629

>  <ad_hoc_penalty>  (381) 
-20.897861

>  <N_rotatable_bonds>  (381) 
6

>  <N_HA>  (381) 
22

>  <cluster>  (381) 
5760

>  <N_interactions>  (381) 
5

>  <Enamine>  (381) 
1

>  <Mcule>  (381) 
0

>  <N_PAINS>  (381) 
0

>  <UFF_Gibbs>  (381) 
98.035426

>  <strain_per_HA>  (381) 
4.456156

>  <intxn_scored>  (381) 
8.5

>  <saltbridge:HIS:51>  (381) 
0

>  <pistack:HIS:51>  (381) 
1

>  <hydroph_interaction:HIS:51>  (381) 
0

>  <hbond:ALA:132>  (381) 
0

>  <hbond:SER:135>  (381) 
0

>  <hydroph_interaction:TYR:150>  (381) 
1

>  <pistack:TYR:161>  (381) 
1

>  <hydroph_interaction:TYR:161>  (381) 
1

>  <hydroph_interaction:ASP:83>  (381) 
1

>  <hbond:TYR:130>  (381) 
0

>  <hydroph_interaction:ALA:132>  (381) 
0

>  <hbond:HIS:51>  (381) 
0

>  <hbond:ASP:129>  (381) 
0

>  <hbond:TYR:150>  (381) 
0

>  <hbond:GLY:151>  (381) 
0

>  <hbond:TYR:161>  (381) 
0

>  <hydroph_interaction:TYR:130>  (381) 
0

>  <hydroph_interaction:PRO:131>  (381) 
0

>  <hydroph_interaction:ASP:129>  (381) 
0

>  <saltbridge:ASP:75>  (381) 
0

>  <saltbridge:ASP:83>  (381) 
0

>  <hbond:ASN:152>  (381) 
0

>  <hydroph_interaction:ASN:152>  (381) 
0

>  <halogenbond:TYR:150>  (381) 
0

>  <hbond:ASP:83>  (381) 
0

>  <hydroph_interaction:VAL:155>  (381) 
0

>  <pication:TYR:161>  (381) 
0

>  <hbond:PRO:131>  (381) 
0

>  <saltbridge:ASP:129>  (381) 
0

>  <hbond:THR:134>  (381) 
0

>  <pication:HIS:51>  (381) 
0

>  <hbond:SER:81>  (381) 
0

>  <hydroph_interaction:THR:134>  (381) 
0

>  <hydroph_interaction:MET:49>  (381) 
0

$$$$
PV-005781281559
     RDKit          3D

 18 19  0  0  0  0  0  0  0  0999 V2000
   -4.3530    5.4070  -19.2640 C   0  0  0  0  0  0  0  0  0  0  0  0
   -5.3480    5.4300  -18.2260 N   0  0  0  0  0  0  0  0  0  0  0  0
   -4.9740    5.6540  -16.9330 N   0  0  0  0  0  0  0  0  0  0  0  0
   -6.1220    5.6100  -16.2580 C   0  0  0  0  0  0  0  0  0  0  0  0
   -6.0340    5.9060  -14.2000 I   0  0  0  0  0  0  0  0  0  0  0  0
   -7.2510    5.3640  -17.0370 C   0  0  0  0  0  0  0  0  0  0  0  0
   -6.6950    5.2510  -18.3500 C   0  0  0  0  0  0  0  0  0  0  0  0
   -7.5900    4.9720  -19.5760 C   0  0  0  0  0  0  0  0  0  0  0  0
   -9.0620    4.8250  -19.2720 C   0  0  0  0  0  0  0  0  0  0  0  0
   -9.5520    4.9630  -17.8330 C   0  0  0  0  0  0  0  0  0  0  0  0
   -8.6430    5.2310  -16.7940 C   0  0  0  0  0  0  0  0  0  0  0  0
   -9.3320    5.4250  -15.0450 Br  0  0  0  0  0  0  0  0  0  0  0  0
   -3.5250    4.7700  -18.9460 H   0  0  0  0  0  0  0  0  0  0  0  0
   -4.0230    6.4260  -19.4880 H   0  0  0  0  0  0  0  0  0  0  0  0
   -4.7970    4.9840  -20.1730 H   0  0  0  0  0  0  0  0  0  0  0  0
   -7.2040    4.8830  -20.5870 H   0  0  0  0  0  0  0  0  0  0  0  0
   -9.7570    4.6270  -20.0720 H   0  0  0  0  0  0  0  0  0  0  0  0
  -10.6150    4.8590  -17.6250 H   0  0  0  0  0  0  0  0  0  0  0  0
  1  2  1  0
  2  3  1  0
  3  4  2  0
  4  5  1  0
  4  6  1  0
  6  7  2  0
  7  8  1  0
  8  9  2  0
  9 10  1  0
 10 11  2  0
 11 12  1  0
  7  2  1  0
 11  6  1  0
  1 13  1  0
  1 14  1  0
  1 15  1  0
  8 16  1  0
  9 17  1  0
 10 18  1  0
A    1
 C1 
A    2
 N1 
A    3
 N2 
A    4
 C2 
A    5
 I1 
A    6
 C3 
A    7
 C4 
A    8
 C5 
A    9
 C6 
A   10
 C7 
A   11
 C8 
A   12
BR1 
A   13
 H1 
A   14
 H2 
A   15
 H3 
A   16
 H4 
A   17
 H5 
A   18
 H6 
M  END
>  <ref_pdb>  (382) 
x0051_0B

>  <ref_mols>  (382) 
x0435_0B,x0680_0B

>  <original SMILES>  (382) 
[H]c1c([H])c([H])c2c(c(I)nn2C([H])([H])[H])c1Br

>  <index>  (382) 
2930

>  <∆∆G>  (382) 
-6.004359

>  <∆G_bound>  (382) 
-5.954919

>  <∆G_unbound>  (382) 
0.04944

>  <comRMSD>  (382) 
0.998675

>  <N_constrained_atoms>  (382) 
12.0

>  <N_unconstrained_atoms>  (382) 
2.0

>  <runtime>  (382) 
19.449549

>  <LE>  (382) 
0.428883

>  <percent_hybrid>  (382) 
40.0

>  <dist>  (382) 
2.0

>  <ecfp4>  (382) 
0.418605

>  <daylight>  (382) 
0.466667

>  <topodist>  (382) 
0.0

>  <mces>  (382) 
13.0

>  <tdn>  (382) 
0.0

>  <tup>  (382) 
0.0

>  <rdn>  (382) 
0.0

>  <rup>  (382) 
0.0

>  <ldn>  (382) 
0.0

>  <lup>  (382) 
0.0

>  <mut>  (382) 
2.0

>  <maj>  (382) 
2.0

>  <min>  (382) 
0.0

>  <hyb>  (382) 
0.0

>  <sub>  (382) 
0.0

>  <query_index>  (382) 
141.0

>  <max_hit_Tanimoto>  (382) 
0.14268

>  <largest_ring>  (382) 
6

>  <N_interactions_kept>  (382) 
2.5

>  <N_interactions_lost>  (382) 
2.5

>  <interaction_uniqueness_metric>  (382) 
0.034019

>  <ad_hoc_penalty>  (382) 
-4.19736

>  <N_rotatable_bonds>  (382) 
1

>  <N_HA>  (382) 
12

>  <cluster>  (382) 
3512

>  <N_interactions>  (382) 
3

>  <Enamine>  (382) 
1

>  <Mcule>  (382) 
0

>  <N_PAINS>  (382) 
0

>  <UFF_Gibbs>  (382) 
36.465412

>  <strain_per_HA>  (382) 
3.038784

>  <intxn_scored>  (382) 
8.5

>  <saltbridge:HIS:51>  (382) 
0

>  <pistack:HIS:51>  (382) 
0

>  <hydroph_interaction:HIS:51>  (382) 
0

>  <hbond:ALA:132>  (382) 
0

>  <hbond:SER:135>  (382) 
0

>  <hydroph_interaction:TYR:150>  (382) 
1

>  <pistack:TYR:161>  (382) 
2

>  <hydroph_interaction:TYR:161>  (382) 
0

>  <hydroph_interaction:ASP:83>  (382) 
0

>  <hbond:TYR:130>  (382) 
0

>  <hydroph_interaction:ALA:132>  (382) 
0

>  <hbond:HIS:51>  (382) 
0

>  <hbond:ASP:129>  (382) 
0

>  <hbond:TYR:150>  (382) 
0

>  <hbond:GLY:151>  (382) 
0

>  <hbond:TYR:161>  (382) 
0

>  <hydroph_interaction:TYR:130>  (382) 
0

>  <hydroph_interaction:PRO:131>  (382) 
0

>  <hydroph_interaction:ASP:129>  (382) 
0

>  <saltbridge:ASP:75>  (382) 
0

>  <saltbridge:ASP:83>  (382) 
0

>  <hbond:ASN:152>  (382) 
0

>  <hydroph_interaction:ASN:152>  (382) 
0

>  <halogenbond:TYR:150>  (382) 
0

>  <hbond:ASP:83>  (382) 
0

>  <hydroph_interaction:VAL:155>  (382) 
0

>  <pication:TYR:161>  (382) 
0

>  <hbond:PRO:131>  (382) 
0

>  <saltbridge:ASP:129>  (382) 
0

>  <hbond:THR:134>  (382) 
0

>  <pication:HIS:51>  (382) 
0

>  <hbond:SER:81>  (382) 
0

>  <hydroph_interaction:THR:134>  (382) 
0

>  <hydroph_interaction:MET:49>  (382) 
0

$$$$
Z3227112816
     RDKit          3D

 21 22  0  0  0  0  0  0  0  0999 V2000
   -9.5170    5.2290  -15.5860 C   0  0  0  0  0  0  0  0  0  0  0  0
   -8.8170    5.1500  -16.9040 C   0  0  0  0  0  0  0  0  0  0  0  0
   -9.6100    4.8910  -18.1390 C   0  0  0  0  0  0  0  0  0  0  0  0
   -8.9840    4.8280  -19.3960 C   0  0  0  0  0  0  0  0  0  0  0  0
   -7.5940    5.0010  -19.5110 C   0  0  0  0  0  0  0  0  0  0  0  0
   -6.8440    5.2320  -18.3480 C   0  0  0  0  0  0  0  0  0  0  0  0
   -7.4150    5.3100  -17.0580 C   0  0  0  0  0  0  0  0  0  0  0  0
   -6.2930    5.5490  -16.2250 C   0  0  0  0  0  0  0  0  0  0  0  0
   -6.2910    5.7860  -14.1610 I   0  0  0  0  0  0  0  0  0  0  0  0
   -5.1390    5.6140  -16.8920 N   0  0  0  0  0  0  0  0  0  0  0  0
   -5.4930    5.4210  -18.1660 N   0  0  0  0  0  0  0  0  0  0  0  0
   -4.4730    5.4240  -19.1870 C   0  0  0  0  0  0  0  0  0  0  0  0
   -8.8650    4.8360  -14.8000 H   0  0  0  0  0  0  0  0  0  0  0  0
   -9.7740    6.2660  -15.3460 H   0  0  0  0  0  0  0  0  0  0  0  0
  -10.4270    4.6380  -15.6240 H   0  0  0  0  0  0  0  0  0  0  0  0
  -10.6890    4.7540  -18.0820 H   0  0  0  0  0  0  0  0  0  0  0  0
   -9.5660    4.6480  -20.2920 H   0  0  0  0  0  0  0  0  0  0  0  0
   -7.1210    4.9520  -20.4880 H   0  0  0  0  0  0  0  0  0  0  0  0
   -4.8990    5.0080  -20.1040 H   0  0  0  0  0  0  0  0  0  0  0  0
   -4.1470    6.4540  -19.3430 H   0  0  0  0  0  0  0  0  0  0  0  0
   -3.6290    4.8130  -18.8560 H   0  0  0  0  0  0  0  0  0  0  0  0
  1  2  1  0
  2  3  2  0
  3  4  1  0
  4  5  2  0
  5  6  1  0
  6  7  2  0
  7  8  1  0
  8  9  1  0
  8 10  2  0
 10 11  1  0
 11 12  1  0
  7  2  1  0
 11  6  1  0
  1 13  1  0
  1 14  1  0
  1 15  1  0
  3 16  1  0
  4 17  1  0
  5 18  1  0
 12 19  1  0
 12 20  1  0
 12 21  1  0
A    1
 C1 
A    2
 C2 
A    3
 C3 
A    4
 C4 
A    5
 C5 
A    6
 C6 
A    7
 C7 
A    8
 C8 
A    9
 I1 
A   10
 N1 
A   11
 N2 
A   12
 C9 
A   13
 H1 
A   14
 H2 
A   15
 H3 
A   16
 H4 
A   17
 H5 
A   18
 H6 
A   19
 H7 
A   20
 H8 
A   21
 H9 
M  END
>  <ref_pdb>  (383) 
x0051_0B

>  <ref_mols>  (383) 
x0435_0B,x0680_0B

>  <original SMILES>  (383) 
[H]c1c([H])c([H])c2c(c(I)nn2C([H])([H])[H])c1C([H])([H])[H]

>  <index>  (383) 
2738

>  <∆∆G>  (383) 
-7.371696

>  <∆G_bound>  (383) 
-7.507228

>  <∆G_unbound>  (383) 
-0.135532

>  <comRMSD>  (383) 
0.843054

>  <N_constrained_atoms>  (383) 
11.0

>  <N_unconstrained_atoms>  (383) 
2.0

>  <runtime>  (383) 
16.9097

>  <LE>  (383) 
0.567054

>  <percent_hybrid>  (383) 
34.0

>  <dist>  (383) 
1.0

>  <ecfp4>  (383) 
0.621622

>  <daylight>  (383) 
0.707865

>  <topodist>  (383) 
0.0

>  <mces>  (383) 
13.0

>  <tdn>  (383) 
0.0

>  <tup>  (383) 
0.0

>  <rdn>  (383) 
0.0

>  <rup>  (383) 
0.0

>  <ldn>  (383) 
0.0

>  <lup>  (383) 
0.0

>  <mut>  (383) 
1.0

>  <maj>  (383) 
1.0

>  <min>  (383) 
0.0

>  <hyb>  (383) 
0.0

>  <sub>  (383) 
0.0

>  <query_index>  (383) 
141.0

>  <max_hit_Tanimoto>  (383) 
0.14787

>  <largest_ring>  (383) 
6

>  <N_interactions_kept>  (383) 
2.5

>  <N_interactions_lost>  (383) 
2.5

>  <interaction_uniqueness_metric>  (383) 
0.034019

>  <ad_hoc_penalty>  (383) 
-6.916362

>  <N_rotatable_bonds>  (383) 
2

>  <N_HA>  (383) 
12

>  <cluster>  (383) 
3693

>  <N_interactions>  (383) 
3

>  <Enamine>  (383) 
1

>  <Mcule>  (383) 
0

>  <N_PAINS>  (383) 
0

>  <UFF_Gibbs>  (383) 
14.723776

>  <strain_per_HA>  (383) 
1.226981

>  <intxn_scored>  (383) 
8.5

>  <saltbridge:HIS:51>  (383) 
0

>  <pistack:HIS:51>  (383) 
0

>  <hydroph_interaction:HIS:51>  (383) 
0

>  <hbond:ALA:132>  (383) 
0

>  <hbond:SER:135>  (383) 
0

>  <hydroph_interaction:TYR:150>  (383) 
1

>  <pistack:TYR:161>  (383) 
2

>  <hydroph_interaction:TYR:161>  (383) 
0

>  <hydroph_interaction:ASP:83>  (383) 
0

>  <hbond:TYR:130>  (383) 
0

>  <hydroph_interaction:ALA:132>  (383) 
0

>  <hbond:HIS:51>  (383) 
0

>  <hbond:ASP:129>  (383) 
0

>  <hbond:TYR:150>  (383) 
0

>  <hbond:GLY:151>  (383) 
0

>  <hbond:TYR:161>  (383) 
0

>  <hydroph_interaction:TYR:130>  (383) 
0

>  <hydroph_interaction:PRO:131>  (383) 
0

>  <hydroph_interaction:ASP:129>  (383) 
0

>  <saltbridge:ASP:75>  (383) 
0

>  <saltbridge:ASP:83>  (383) 
0

>  <hbond:ASN:152>  (383) 
0

>  <hydroph_interaction:ASN:152>  (383) 
0

>  <halogenbond:TYR:150>  (383) 
0

>  <hbond:ASP:83>  (383) 
0

>  <hydroph_interaction:VAL:155>  (383) 
0

>  <pication:TYR:161>  (383) 
0

>  <hbond:PRO:131>  (383) 
0

>  <saltbridge:ASP:129>  (383) 
0

>  <hbond:THR:134>  (383) 
0

>  <pication:HIS:51>  (383) 
0

>  <hbond:SER:81>  (383) 
0

>  <hydroph_interaction:THR:134>  (383) 
0

>  <hydroph_interaction:MET:49>  (383) 
0

$$$$
Z3553177694
     RDKit          3D

 40 43  0  0  0  0  0  0  0  0999 V2000
   -6.4960    5.1490  -20.4450 C   0  0  0  0  0  0  0  0  0  0  0  0
   -6.5250    5.2360  -19.0120 N   0  0  0  0  0  0  0  0  0  0  0  0
   -5.3800    5.4530  -18.2910 N   0  0  0  0  0  0  0  0  0  0  0  0
   -5.7280    5.4820  -17.0080 N   0  0  0  0  0  0  0  0  0  0  0  0
   -7.0870    5.2860  -16.9200 C   0  0  0  0  0  0  0  0  0  0  0  0
   -8.0390    5.2240  -15.7170 C   0  0  0  0  0  0  0  0  0  0  0  0
   -7.4410    5.4050  -14.3230 C   0  0  0  0  0  0  0  0  0  0  0  0
   -8.3160    4.9870  -13.2230 O   0  0  0  0  0  0  0  0  0  0  0  0
   -8.7570    6.0160  -12.4050 C   0  0  0  0  0  0  0  0  0  0  0  0
   -9.1060    7.0940  -12.8750 O   0  0  0  0  0  0  0  0  0  0  0  0
   -8.7960    5.8030  -10.9340 C   0  0  0  0  0  0  0  0  0  0  0  0
   -8.8890    4.5470  -10.0500 C   0  0  0  0  0  0  0  0  0  0  0  0
   -8.9630    3.1020  -10.3290 C   0  0  0  0  0  0  0  0  0  0  0  0
   -9.4360    2.2460   -9.1460 C   0  0  0  0  0  0  0  0  0  0  0  0
   -9.5710    2.8480   -7.7440 C   0  0  0  0  0  0  0  0  0  0  0  0
   -8.9730    4.2370   -7.5560 C   0  0  0  0  0  0  0  0  0  0  0  0
   -8.8930    5.0250   -8.7680 N   0  0  0  0  0  0  0  0  0  0  0  0
   -8.8130    6.3590   -8.6740 N   0  0  0  0  0  0  0  0  0  0  0  0
   -8.7610    6.8100   -9.9380 C   0  0  0  0  0  0  0  0  0  0  0  0
   -9.3960    5.0030  -16.0330 C   0  0  0  0  0  0  0  0  0  0  0  0
   -9.8320    4.8450  -17.3640 C   0  0  0  0  0  0  0  0  0  0  0  0
   -8.9680    4.8990  -18.4630 C   0  0  0  0  0  0  0  0  0  0  0  0
   -7.6140    5.1230  -18.2010 C   0  0  0  0  0  0  0  0  0  0  0  0
   -5.5800    4.6620  -20.7890 H   0  0  0  0  0  0  0  0  0  0  0  0
   -7.3630    4.5740  -20.7930 H   0  0  0  0  0  0  0  0  0  0  0  0
   -6.5400    6.1560  -20.8710 H   0  0  0  0  0  0  0  0  0  0  0  0
   -6.5160    4.8180  -14.2860 H   0  0  0  0  0  0  0  0  0  0  0  0
   -7.1820    6.4600  -14.1710 H   0  0  0  0  0  0  0  0  0  0  0  0
   -9.6420    2.9200  -11.1720 H   0  0  0  0  0  0  0  0  0  0  0  0
   -7.9740    2.7600  -10.6490 H   0  0  0  0  0  0  0  0  0  0  0  0
  -10.4170    1.8970   -9.4170 H   0  0  0  0  0  0  0  0  0  0  0  0
   -8.7950    1.3650   -9.0740 H   0  0  0  0  0  0  0  0  0  0  0  0
  -10.6360    2.8780   -7.4830 H   0  0  0  0  0  0  0  0  0  0  0  0
   -9.1030    2.1680   -7.0240 H   0  0  0  0  0  0  0  0  0  0  0  0
   -7.9520    4.1650   -7.1690 H   0  0  0  0  0  0  0  0  0  0  0  0
   -9.5740    4.8040   -6.8350 H   0  0  0  0  0  0  0  0  0  0  0  0
   -8.6970    7.8790  -10.0900 H   0  0  0  0  0  0  0  0  0  0  0  0
  -10.1310    4.9490  -15.2280 H   0  0  0  0  0  0  0  0  0  0  0  0
  -10.8860    4.6730  -17.5550 H   0  0  0  0  0  0  0  0  0  0  0  0
   -9.3410    4.7750  -19.4740 H   0  0  0  0  0  0  0  0  0  0  0  0
  1  2  1  0
  2  3  1  0
  3  4  2  0
  4  5  1  0
  5  6  2  0
  6  7  1  0
  7  8  1  0
  8  9  1  0
  9 10  2  0
  9 11  1  0
 11 12  2  0
 12 13  1  0
 13 14  1  0
 14 15  1  0
 15 16  1  0
 16 17  1  0
 17 18  1  0
 18 19  2  0
  6 20  1  0
 20 21  2  0
 21 22  1  0
 22 23  2  0
 23  2  1  0
 23  5  1  0
 19 11  1  0
 17 12  1  0
  1 24  1  0
  1 25  1  0
  1 26  1  0
  7 27  1  0
  7 28  1  0
 13 29  1  0
 13 30  1  0
 14 31  1  0
 14 32  1  0
 15 33  1  0
 15 34  1  0
 16 35  1  0
 16 36  1  0
 19 37  1  0
 20 38  1  0
 21 39  1  0
 22 40  1  0
A    1
 C1 
A    2
 N1 
A    3
 N2 
A    4
 N3 
A    5
 C2 
A    6
 C3 
A    7
 C4 
A    8
 O1 
A    9
 C5 
A   10
 O2 
A   11
 C6 
A   12
 C7 
A   13
 C8 
A   14
 C9 
A   15
 C10
A   16
 C11
A   17
 N4 
A   18
 N5 
A   19
 C12
A   20
 C13
A   21
 C14
A   22
 C15
A   23
 C16
A   24
 H1 
A   25
 H2 
A   26
 H3 
A   27
 H4 
A   28
 H5 
A   29
 H6 
A   30
 H7 
A   31
 H8 
A   32
 H9 
A   33
 H10
A   34
 H11
A   35
 H12
A   36
 H13
A   37
 H14
A   38
 H15
A   39
 H16
A   40
 H17
M  END
>  <ref_pdb>  (384) 
x0051_0B

>  <ref_mols>  (384) 
x0969_1B,x0435_0B

>  <original SMILES>  (384) 
[H]c1nn2c(c1C(=O)OC([H])([H])c1c([H])c([H])c([H])c3c1nnn3C([H])([H])[H])C([H])([H])C([H])([H])C([H])([H])C2([H])[H]

>  <index>  (384) 
629

>  <∆∆G>  (384) 
-6.527428

>  <∆G_bound>  (384) 
-6.039534

>  <∆G_unbound>  (384) 
0.487893

>  <comRMSD>  (384) 
0.412129

>  <N_constrained_atoms>  (384) 
20.0

>  <N_unconstrained_atoms>  (384) 
3.0

>  <runtime>  (384) 
54.144036

>  <LE>  (384) 
0.283801

>  <percent_hybrid>  (384) 
50.0

>  <dist>  (384) 
6.0

>  <ecfp4>  (384) 
0.155556

>  <daylight>  (384) 
0.320475

>  <topodist>  (384) 
1.0

>  <mces>  (384) 
25.0

>  <tdn>  (384) 
0.0

>  <tup>  (384) 
1.0

>  <rdn>  (384) 
0.0

>  <rup>  (384) 
0.0

>  <ldn>  (384) 
0.0

>  <lup>  (384) 
0.0

>  <mut>  (384) 
4.0

>  <maj>  (384) 
4.0

>  <min>  (384) 
0.0

>  <hyb>  (384) 
1.0

>  <sub>  (384) 
0.0

>  <query_index>  (384) 
343.0

>  <max_hit_Tanimoto>  (384) 
0.296422

>  <largest_ring>  (384) 
6

>  <N_interactions_kept>  (384) 
2.0

>  <N_interactions_lost>  (384) 
1.5

>  <interaction_uniqueness_metric>  (384) 
0.176625

>  <ad_hoc_penalty>  (384) 
-20.866593

>  <N_rotatable_bonds>  (384) 
4

>  <N_HA>  (384) 
23

>  <cluster>  (384) 
5644

>  <N_interactions>  (384) 
5

>  <Enamine>  (384) 
1

>  <Mcule>  (384) 
0

>  <N_PAINS>  (384) 
0

>  <UFF_Gibbs>  (384) 
70.026063

>  <strain_per_HA>  (384) 
3.044611

>  <intxn_scored>  (384) 
8.5

>  <saltbridge:HIS:51>  (384) 
1

>  <pistack:HIS:51>  (384) 
1

>  <hydroph_interaction:HIS:51>  (384) 
1

>  <hbond:ALA:132>  (384) 
0

>  <hbond:SER:135>  (384) 
0

>  <hydroph_interaction:TYR:150>  (384) 
0

>  <pistack:TYR:161>  (384) 
1

>  <hydroph_interaction:TYR:161>  (384) 
1

>  <hydroph_interaction:ASP:83>  (384) 
0

>  <hbond:TYR:130>  (384) 
0

>  <hydroph_interaction:ALA:132>  (384) 
0

>  <hbond:HIS:51>  (384) 
0

>  <hbond:ASP:129>  (384) 
0

>  <hbond:TYR:150>  (384) 
0

>  <hbond:GLY:151>  (384) 
0

>  <hbond:TYR:161>  (384) 
0

>  <hydroph_interaction:TYR:130>  (384) 
0

>  <hydroph_interaction:PRO:131>  (384) 
0

>  <hydroph_interaction:ASP:129>  (384) 
0

>  <saltbridge:ASP:75>  (384) 
0

>  <saltbridge:ASP:83>  (384) 
0

>  <hbond:ASN:152>  (384) 
0

>  <hydroph_interaction:ASN:152>  (384) 
0

>  <halogenbond:TYR:150>  (384) 
0

>  <hbond:ASP:83>  (384) 
0

>  <hydroph_interaction:VAL:155>  (384) 
0

>  <pication:TYR:161>  (384) 
0

>  <hbond:PRO:131>  (384) 
0

>  <saltbridge:ASP:129>  (384) 
0

>  <hbond:THR:134>  (384) 
0

>  <pication:HIS:51>  (384) 
0

>  <hbond:SER:81>  (384) 
0

>  <hydroph_interaction:THR:134>  (384) 
0

>  <hydroph_interaction:MET:49>  (384) 
0

$$$$
CSSB00000075872
     RDKit          3D

 29 30  0  0  0  0  0  0  0  0999 V2000
   -8.5260    5.5200  -13.8170 C   0  0  0  0  0  0  0  0  0  0  0  0
   -8.3280    5.3810  -15.3130 C   0  0  0  0  0  0  0  0  0  0  0  0
   -6.8870    5.5280  -15.7410 C   0  0  0  0  0  0  0  0  0  0  0  0
   -6.5430    5.4180  -17.1070 C   0  0  0  0  0  0  0  0  0  0  0  0
   -5.1860    5.5130  -17.7130 C   0  0  0  0  0  0  0  0  0  0  0  0
   -3.9040    5.7270  -16.9870 C   0  0  0  0  0  0  0  0  0  0  0  0
   -5.0830    5.3840  -19.1010 C   0  0  0  0  0  0  0  0  0  0  0  0
   -6.2390    5.1670  -19.8570 C   0  0  0  0  0  0  0  0  0  0  0  0
   -6.1540    5.0300  -21.2470 C   0  0  0  0  0  0  0  0  0  0  0  0
   -7.4550    5.0690  -19.3060 N   0  0  0  0  0  0  0  0  0  0  0  0
   -7.6300    5.1840  -17.9810 C   0  0  0  0  0  0  0  0  0  0  0  0
   -8.9490    5.0440  -17.5610 C   0  0  0  0  0  0  0  0  0  0  0  0
  -10.0030    4.7730  -18.6010 C   0  0  0  0  0  0  0  0  0  0  0  0
   -9.3100    5.1410  -16.2280 C   0  0  0  0  0  0  0  0  0  0  0  0
   -7.7330    6.1330  -13.3790 H   0  0  0  0  0  0  0  0  0  0  0  0
   -9.4900    5.9880  -13.5910 H   0  0  0  0  0  0  0  0  0  0  0  0
   -8.5120    4.5400  -13.3240 H   0  0  0  0  0  0  0  0  0  0  0  0
   -6.1240    5.7120  -14.9960 H   0  0  0  0  0  0  0  0  0  0  0  0
   -3.8870    5.0970  -16.0880 H   0  0  0  0  0  0  0  0  0  0  0  0
   -2.9790    5.5150  -17.5110 H   0  0  0  0  0  0  0  0  0  0  0  0
   -3.8480    6.7730  -16.6800 H   0  0  0  0  0  0  0  0  0  0  0  0
   -4.1220    5.4460  -19.6010 H   0  0  0  0  0  0  0  0  0  0  0  0
   -5.2210    4.5370  -21.5260 H   0  0  0  0  0  0  0  0  0  0  0  0
   -6.2020    6.0100  -21.7310 H   0  0  0  0  0  0  0  0  0  0  0  0
   -6.9790    4.4210  -21.6300 H   0  0  0  0  0  0  0  0  0  0  0  0
   -9.8130    5.3540  -19.5140 H   0  0  0  0  0  0  0  0  0  0  0  0
  -11.0040    5.0310  -18.2460 H   0  0  0  0  0  0  0  0  0  0  0  0
   -9.9980    3.7100  -18.8460 H   0  0  0  0  0  0  0  0  0  0  0  0
  -10.3350    5.0280  -15.9140 H   0  0  0  0  0  0  0  0  0  0  0  0
  1  2  1  0
  2  3  2  0
  3  4  1  0
  4  5  2  0
  5  6  1  0
  5  7  1  0
  7  8  2  0
  8  9  1  0
  8 10  1  0
 10 11  2  0
 11 12  1  0
 12 13  1  0
 12 14  2  0
 14  2  1  0
 11  4  1  0
  1 15  1  0
  1 16  1  0
  1 17  1  0
  3 18  1  0
  6 19  1  0
  6 20  1  0
  6 21  1  0
  7 22  1  0
  9 23  1  0
  9 24  1  0
  9 25  1  0
 13 26  1  0
 13 27  1  0
 13 28  1  0
 14 29  1  0
A    1
 C1 
A    2
 C2 
A    3
 C3 
A    4
 C4 
A    5
 C5 
A    6
 C6 
A    7
 C7 
A    8
 C8 
A    9
 C9 
A   10
 N1 
A   11
 C10
A   12
 C11
A   13
 C12
A   14
 C13
A   15
 H1 
A   16
 H2 
A   17
 H3 
A   18
 H4 
A   19
 H5 
A   20
 H6 
A   21
 H7 
A   22
 H8 
A   23
 H9 
A   24
 H10
A   25
 H11
A   26
 H12
A   27
 H13
A   28
 H14
A   29
 H15
M  END
>  <ref_pdb>  (385) 
x0051_0B

>  <ref_mols>  (385) 
x0425_0B,x0687_0B

>  <original SMILES>  (385) 
[H]c1c(C([H])([H])[H])c([H])c2c(C([H])([H])[H])c([H])c(C([H])([H])[H])nc2c1C([H])([H])[H]

>  <index>  (385) 
2634

>  <∆∆G>  (385) 
-9.201346

>  <∆G_bound>  (385) 
-9.838065

>  <∆G_unbound>  (385) 
-0.636719

>  <comRMSD>  (385) 
0.510698

>  <N_constrained_atoms>  (385) 
14.0

>  <N_unconstrained_atoms>  (385) 
1.0

>  <runtime>  (385) 
19.7838

>  <LE>  (385) 
0.613423

>  <percent_hybrid>  (385) 
50.0

>  <dist>  (385) 
4.0

>  <ecfp4>  (385) 
0.067797

>  <daylight>  (385) 
0.146199

>  <topodist>  (385) 
2.0

>  <mces>  (385) 
14.0

>  <tdn>  (385) 
1.0

>  <tup>  (385) 
1.0

>  <rdn>  (385) 
0.0

>  <rup>  (385) 
0.0

>  <ldn>  (385) 
0.0

>  <lup>  (385) 
0.0

>  <mut>  (385) 
2.0

>  <maj>  (385) 
2.0

>  <min>  (385) 
0.0

>  <hyb>  (385) 
0.0

>  <sub>  (385) 
2.0

>  <query_index>  (385) 
169.0

>  <max_hit_Tanimoto>  (385) 
0.185886

>  <largest_ring>  (385) 
6

>  <N_interactions_kept>  (385) 
2.0

>  <N_interactions_lost>  (385) 
2.5

>  <interaction_uniqueness_metric>  (385) 
0.034019

>  <ad_hoc_penalty>  (385) 
-6.608668

>  <N_rotatable_bonds>  (385) 
4

>  <N_HA>  (385) 
14

>  <cluster>  (385) 
3790

>  <N_interactions>  (385) 
3

>  <Enamine>  (385) 
1

>  <Mcule>  (385) 
0

>  <N_PAINS>  (385) 
0

>  <UFF_Gibbs>  (385) 
30.263

>  <strain_per_HA>  (385) 
2.161643

>  <intxn_scored>  (385) 
8.5

>  <saltbridge:HIS:51>  (385) 
0

>  <pistack:HIS:51>  (385) 
0

>  <hydroph_interaction:HIS:51>  (385) 
0

>  <hbond:ALA:132>  (385) 
0

>  <hbond:SER:135>  (385) 
0

>  <hydroph_interaction:TYR:150>  (385) 
1

>  <pistack:TYR:161>  (385) 
2

>  <hydroph_interaction:TYR:161>  (385) 
0

>  <hydroph_interaction:ASP:83>  (385) 
0

>  <hbond:TYR:130>  (385) 
0

>  <hydroph_interaction:ALA:132>  (385) 
0

>  <hbond:HIS:51>  (385) 
0

>  <hbond:ASP:129>  (385) 
0

>  <hbond:TYR:150>  (385) 
0

>  <hbond:GLY:151>  (385) 
0

>  <hbond:TYR:161>  (385) 
0

>  <hydroph_interaction:TYR:130>  (385) 
0

>  <hydroph_interaction:PRO:131>  (385) 
0

>  <hydroph_interaction:ASP:129>  (385) 
0

>  <saltbridge:ASP:75>  (385) 
0

>  <saltbridge:ASP:83>  (385) 
0

>  <hbond:ASN:152>  (385) 
0

>  <hydroph_interaction:ASN:152>  (385) 
0

>  <halogenbond:TYR:150>  (385) 
0

>  <hbond:ASP:83>  (385) 
0

>  <hydroph_interaction:VAL:155>  (385) 
0

>  <pication:TYR:161>  (385) 
0

>  <hbond:PRO:131>  (385) 
0

>  <saltbridge:ASP:129>  (385) 
0

>  <hbond:THR:134>  (385) 
0

>  <pication:HIS:51>  (385) 
0

>  <hbond:SER:81>  (385) 
0

>  <hydroph_interaction:THR:134>  (385) 
0

>  <hydroph_interaction:MET:49>  (385) 
0

$$$$
CSCS00105621721
     RDKit          3D

 37 39  0  0  0  0  0  0  0  0999 V2000
   -5.5820    5.6070  -15.3580 Cl  0  0  0  0  0  0  0  0  0  0  0  0
   -6.7240    5.3940  -16.6230 C   0  0  0  0  0  0  0  0  0  0  0  0
   -6.2530    5.2680  -18.0300 C   0  0  0  0  0  0  0  0  0  0  0  0
   -7.1980    5.0860  -19.0400 C   0  0  0  0  0  0  0  0  0  0  0  0
   -8.5590    5.0140  -18.7230 C   0  0  0  0  0  0  0  0  0  0  0  0
   -9.0000    5.1360  -17.3930 C   0  0  0  0  0  0  0  0  0  0  0  0
   -8.0820    5.3340  -16.3510 C   0  0  0  0  0  0  0  0  0  0  0  0
   -8.4890    5.4690  -15.0470 O   0  0  0  0  0  0  0  0  0  0  0  0
   -8.9060    6.9050  -14.3240 S   0  0  0  0  0  6  0  0  0  0  0  0
   -7.8850    7.9390  -14.3460 O   0  0  0  0  0  0  0  0  0  0  0  0
  -10.2590    7.2020  -14.6940 O   0  0  0  0  0  0  0  0  0  0  0  0
   -8.8830    6.2530  -12.6910 C   0  0  0  0  0  0  0  0  0  0  0  0
   -8.7630    7.0160  -11.5290 C   0  0  0  0  0  0  0  0  0  0  0  0
   -8.7400    6.3460  -10.2950 C   0  0  0  0  0  0  0  0  0  0  0  0
   -8.8370    4.9400  -10.2360 C   0  0  0  0  0  0  0  0  0  0  0  0
   -8.9620    4.2320  -11.4270 C   0  0  0  0  0  0  0  0  0  0  0  0
   -8.9850    4.8780  -12.6440 C   0  0  0  0  0  0  0  0  0  0  0  0
   -8.8140    4.2230   -9.0250 N   0  0  0  0  0  0  0  0  0  0  0  0
   -9.0440    2.8040   -8.9950 C   0  0  0  0  0  0  0  0  0  0  0  0
   -9.6750    2.5940   -7.6440 C   0  0  0  0  0  0  0  0  0  0  0  0
   -9.0350    3.6620   -6.7660 C   0  0  0  0  0  0  0  0  0  0  0  0
   -8.5120    4.6900   -7.7440 C   0  0  0  0  0  0  0  0  0  0  0  0
   -7.9430    5.7130   -7.3920 O   0  0  0  0  0  0  0  0  0  0  0  0
   -5.1960    5.3160  -18.2770 H   0  0  0  0  0  0  0  0  0  0  0  0
   -6.8800    4.9940  -20.0760 H   0  0  0  0  0  0  0  0  0  0  0  0
   -9.2880    4.8650  -19.5180 H   0  0  0  0  0  0  0  0  0  0  0  0
  -10.0650    5.0790  -17.1790 H   0  0  0  0  0  0  0  0  0  0  0  0
   -8.6850    8.1010  -11.5640 H   0  0  0  0  0  0  0  0  0  0  0  0
   -8.6430    6.9520   -9.3990 H   0  0  0  0  0  0  0  0  0  0  0  0
   -9.0430    3.1490  -11.4430 H   0  0  0  0  0  0  0  0  0  0  0  0
   -9.0820    4.2890  -13.5540 H   0  0  0  0  0  0  0  0  0  0  0  0
   -9.7260    2.4830   -9.7890 H   0  0  0  0  0  0  0  0  0  0  0  0
   -8.0840    2.2790   -9.0760 H   0  0  0  0  0  0  0  0  0  0  0  0
   -9.4060    1.6070   -7.2630 H   0  0  0  0  0  0  0  0  0  0  0  0
  -10.7650    2.6510   -7.6670 H   0  0  0  0  0  0  0  0  0  0  0  0
   -8.1900    3.2560   -6.1990 H   0  0  0  0  0  0  0  0  0  0  0  0
   -9.7630    4.1060   -6.0810 H   0  0  0  0  0  0  0  0  0  0  0  0
  1  2  1  0
  2  3  2  0
  3  4  1  0
  4  5  2  0
  5  6  1  0
  6  7  2  0
  7  8  1  0
  8  9  1  0
  9 10  2  0
  9 11  2  0
  9 12  1  0
 12 13  2  0
 13 14  1  0
 14 15  2  0
 15 16  1  0
 16 17  2  0
 15 18  1  0
 18 19  1  0
 19 20  1  0
 20 21  1  0
 21 22  1  0
 22 23  2  0
  7  2  1  0
 17 12  1  0
 22 18  1  0
  3 24  1  0
  4 25  1  0
  5 26  1  0
  6 27  1  0
 13 28  1  0
 14 29  1  0
 16 30  1  0
 17 31  1  0
 19 32  1  0
 19 33  1  0
 20 34  1  0
 20 35  1  0
 21 36  1  0
 21 37  1  0
A    1
CL1 
A    2
 C1 
A    3
 C2 
A    4
 C3 
A    5
 C4 
A    6
 C5 
A    7
 C6 
A    8
 O1 
A    9
 S1 
A   10
 O2 
A   11
 O3 
A   12
 C7 
A   13
 C8 
A   14
 C9 
A   15
 C10
A   16
 C11
A   17
 C12
A   18
 N1 
A   19
 C13
A   20
 C14
A   21
 C15
A   22
 C16
A   23
 O4 
A   24
 H1 
A   25
 H2 
A   26
 H3 
A   27
 H4 
A   28
 H5 
A   29
 H6 
A   30
 H7 
A   31
 H8 
A   32
 H9 
A   33
 H10
A   34
 H11
A   35
 H12
A   36
 H13
A   37
 H14
M  END
>  <ref_pdb>  (386) 
x0051_0B

>  <ref_mols>  (386) 
x0404_0B,x0605_0B

>  <original SMILES>  (386) 
[H]c1c([H])c([H])c(OS(=O)(=O)c2c([H])c([H])c(N3C(=O)C([H])([H])C([H])([H])C3([H])[H])c([H])c2[H])c(Cl)c1[H]

>  <index>  (386) 
1196

>  <∆∆G>  (386) 
-7.678057

>  <∆G_bound>  (386) 
-6.833131

>  <∆G_unbound>  (386) 
0.844926

>  <comRMSD>  (386) 
0.658721

>  <N_constrained_atoms>  (386) 
23.0

>  <N_unconstrained_atoms>  (386) 
2.0

>  <runtime>  (386) 
92.385129

>  <LE>  (386) 
0.307122

>  <percent_hybrid>  (386) 
35.0

>  <dist>  (386) 
9.0

>  <ecfp4>  (386) 
0.170732

>  <daylight>  (386) 
0.265306

>  <topodist>  (386) 
5.0

>  <mces>  (386) 
24.0

>  <tdn>  (386) 
2.0

>  <tup>  (386) 
1.0

>  <rdn>  (386) 
0.0

>  <rup>  (386) 
0.0

>  <ldn>  (386) 
2.0

>  <lup>  (386) 
0.0

>  <mut>  (386) 
3.0

>  <maj>  (386) 
3.0

>  <min>  (386) 
0.0

>  <hyb>  (386) 
1.0

>  <sub>  (386) 
1.0

>  <query_index>  (386) 
352.0

>  <max_hit_Tanimoto>  (386) 
0.332867

>  <largest_ring>  (386) 
6

>  <N_interactions_kept>  (386) 
1.5

>  <N_interactions_lost>  (386) 
2.5

>  <interaction_uniqueness_metric>  (386) 
0.226469

>  <ad_hoc_penalty>  (386) 
-16.329279

>  <N_rotatable_bonds>  (386) 
4

>  <N_HA>  (386) 
23

>  <cluster>  (386) 
5118

>  <N_interactions>  (386) 
5

>  <Enamine>  (386) 
1

>  <Mcule>  (386) 
0

>  <N_PAINS>  (386) 
0

>  <UFF_Gibbs>  (386) 
72.844137

>  <strain_per_HA>  (386) 
3.167136

>  <intxn_scored>  (386) 
8.5

>  <saltbridge:HIS:51>  (386) 
1

>  <pistack:HIS:51>  (386) 
1

>  <hydroph_interaction:HIS:51>  (386) 
1

>  <hbond:ALA:132>  (386) 
1

>  <hbond:SER:135>  (386) 
0

>  <hydroph_interaction:TYR:150>  (386) 
0

>  <pistack:TYR:161>  (386) 
1

>  <hydroph_interaction:TYR:161>  (386) 
0

>  <hydroph_interaction:ASP:83>  (386) 
0

>  <hbond:TYR:130>  (386) 
0

>  <hydroph_interaction:ALA:132>  (386) 
0

>  <hbond:HIS:51>  (386) 
0

>  <hbond:ASP:129>  (386) 
0

>  <hbond:TYR:150>  (386) 
0

>  <hbond:GLY:151>  (386) 
0

>  <hbond:TYR:161>  (386) 
0

>  <hydroph_interaction:TYR:130>  (386) 
0

>  <hydroph_interaction:PRO:131>  (386) 
0

>  <hydroph_interaction:ASP:129>  (386) 
0

>  <saltbridge:ASP:75>  (386) 
0

>  <saltbridge:ASP:83>  (386) 
0

>  <hbond:ASN:152>  (386) 
0

>  <hydroph_interaction:ASN:152>  (386) 
0

>  <halogenbond:TYR:150>  (386) 
0

>  <hbond:ASP:83>  (386) 
0

>  <hydroph_interaction:VAL:155>  (386) 
0

>  <pication:TYR:161>  (386) 
0

>  <hbond:PRO:131>  (386) 
0

>  <saltbridge:ASP:129>  (386) 
0

>  <hbond:THR:134>  (386) 
0

>  <pication:HIS:51>  (386) 
0

>  <hbond:SER:81>  (386) 
0

>  <hydroph_interaction:THR:134>  (386) 
0

>  <hydroph_interaction:MET:49>  (386) 
0

$$$$
CSSB00009872108
     RDKit          3D

 24 25  0  0  0  0  0  0  0  0999 V2000
   -2.2980    4.6440  -19.1210 C   0  0  0  0  0  0  0  0  0  0  0  0
   -3.2460    5.6650  -19.3420 O   0  0  0  0  0  0  0  0  0  0  0  0
   -4.4130    5.6220  -18.6300 C   0  0  0  0  0  0  0  0  0  0  0  0
   -4.5240    5.7820  -17.1180 C   0  0  0  0  0  0  0  0  0  0  0  0
   -5.9380    5.7140  -16.5660 C   0  0  0  0  0  0  0  0  0  0  0  0
   -6.9730    5.5170  -17.4620 C   0  0  0  0  0  0  0  0  0  0  0  0
   -8.3150    5.4600  -17.1140 C   0  0  0  0  0  0  0  0  0  0  0  0
   -8.7990    4.7710  -16.0530 C   0  0  0  0  0  0  0  0  0  0  0  0
   -8.9590    4.9490  -18.4290 C   0  0  0  0  0  0  0  0  0  0  0  0
  -10.0710    4.4610  -18.5800 O   0  0  0  0  0  0  0  0  0  0  0  0
   -8.0220    5.1730  -19.4240 N   0  0  0  0  0  0  0  0  0  0  0  0
   -6.7880    5.3670  -18.8260 C   0  0  0  0  0  0  0  0  0  0  0  0
   -5.5510    5.4160  -19.4290 C   0  0  0  0  0  0  0  0  0  0  0  0
   -1.3760    5.1010  -18.7540 H   0  0  0  0  0  0  0  0  0  0  0  0
   -2.0680    4.0940  -20.0420 H   0  0  0  0  0  0  0  0  0  0  0  0
   -2.6640    3.9410  -18.3720 H   0  0  0  0  0  0  0  0  0  0  0  0
   -3.6530    5.9370  -16.4860 H   0  0  0  0  0  0  0  0  0  0  0  0
   -6.1260    5.8240  -15.5030 H   0  0  0  0  0  0  0  0  0  0  0  0
   -8.6190    6.4810  -16.9430 H   0  0  0  0  0  0  0  0  0  0  0  0
   -9.1520    5.4420  -15.2630 H   0  0  0  0  0  0  0  0  0  0  0  0
   -9.6550    4.1890  -16.4070 H   0  0  0  0  0  0  0  0  0  0  0  0
   -8.0560    4.0900  -15.6310 H   0  0  0  0  0  0  0  0  0  0  0  0
   -8.2780    5.5260  -20.3590 H   0  0  0  0  0  0  0  0  0  0  0  0
   -5.4470    5.3000  -20.5020 H   0  0  0  0  0  0  0  0  0  0  0  0
  1  2  1  0
  2  3  1  0
  3  4  2  0
  4  5  1  0
  5  6  2  0
  6  7  1  0
  7  8  1  0
  7  9  1  0
  9 10  2  0
  9 11  1  0
 11 12  1  0
 12 13  2  0
 13  3  1  0
 12  6  1  0
  1 14  1  0
  1 15  1  0
  1 16  1  0
  4 17  1  0
  5 18  1  0
  7 19  1  0
  8 20  1  0
  8 21  1  0
  8 22  1  0
 11 23  1  0
 13 24  1  0
A    1
 C1 
A    2
 O1 
A    3
 C2 
A    4
 C3 
A    5
 C4 
A    6
 C5 
A    7
 C6 
A    8
 C7 
A    9
 C8 
A   10
 O2 
A   11
 N1 
A   12
 C9 
A   13
 C10
A   14
 H1 
A   15
 H2 
A   16
 H3 
A   17
 H4 
A   18
 H5 
A   19
 H6 
A   20
 H7 
A   21
 H8 
A   22
 H9 
A   23
 H10
A   24
 H11
M  END
>  <ref_pdb>  (387) 
x0051_0B

>  <ref_mols>  (387) 
x0051_0B,x0680_0B

>  <original SMILES>  (387) 
[H]c1c([H])c2c(c([H])c1OC([H])([H])[H])N([H])C(=O)C2([H])C([H])([H])[H]

>  <index>  (387) 
2498

>  <∆∆G>  (387) 
-6.476219

>  <∆G_bound>  (387) 
-6.609562

>  <∆G_unbound>  (387) 
-0.133344

>  <comRMSD>  (387) 
0.659976

>  <N_constrained_atoms>  (387) 
14.0

>  <N_unconstrained_atoms>  (387) 
0.0

>  <runtime>  (387) 
31.394542

>  <LE>  (387) 
0.462587

>  <percent_hybrid>  (387) 
40.0

>  <dist>  (387) 
3.0

>  <ecfp4>  (387) 
0.367347

>  <daylight>  (387) 
0.262195

>  <topodist>  (387) 
0.0

>  <mces>  (387) 
14.0

>  <tdn>  (387) 
0.0

>  <tup>  (387) 
0.0

>  <rdn>  (387) 
0.0

>  <rup>  (387) 
0.0

>  <ldn>  (387) 
0.0

>  <lup>  (387) 
0.0

>  <mut>  (387) 
3.0

>  <maj>  (387) 
3.0

>  <min>  (387) 
0.0

>  <hyb>  (387) 
0.0

>  <sub>  (387) 
0.0

>  <query_index>  (387) 
313.0

>  <max_hit_Tanimoto>  (387) 
0.244928

>  <largest_ring>  (387) 
6

>  <N_interactions_kept>  (387) 
2.5

>  <N_interactions_lost>  (387) 
3.0

>  <interaction_uniqueness_metric>  (387) 
0.072695

>  <ad_hoc_penalty>  (387) 
-4.014787

>  <N_rotatable_bonds>  (387) 
3

>  <N_HA>  (387) 
13

>  <cluster>  (387) 
3919

>  <N_interactions>  (387) 
5

>  <Enamine>  (387) 
1

>  <Mcule>  (387) 
0

>  <N_PAINS>  (387) 
0

>  <UFF_Gibbs>  (387) 
76.865075

>  <strain_per_HA>  (387) 
5.912698

>  <intxn_scored>  (387) 
8.5

>  <saltbridge:HIS:51>  (387) 
0

>  <pistack:HIS:51>  (387) 
0

>  <hydroph_interaction:HIS:51>  (387) 
0

>  <hbond:ALA:132>  (387) 
0

>  <hbond:SER:135>  (387) 
0

>  <hydroph_interaction:TYR:150>  (387) 
0

>  <pistack:TYR:161>  (387) 
1

>  <hydroph_interaction:TYR:161>  (387) 
2

>  <hydroph_interaction:ASP:83>  (387) 
0

>  <hbond:TYR:130>  (387) 
1

>  <hydroph_interaction:ALA:132>  (387) 
1

>  <hbond:HIS:51>  (387) 
0

>  <hbond:ASP:129>  (387) 
0

>  <hbond:TYR:150>  (387) 
0

>  <hbond:GLY:151>  (387) 
0

>  <hbond:TYR:161>  (387) 
0

>  <hydroph_interaction:TYR:130>  (387) 
0

>  <hydroph_interaction:PRO:131>  (387) 
0

>  <hydroph_interaction:ASP:129>  (387) 
0

>  <saltbridge:ASP:75>  (387) 
0

>  <saltbridge:ASP:83>  (387) 
0

>  <hbond:ASN:152>  (387) 
0

>  <hydroph_interaction:ASN:152>  (387) 
0

>  <halogenbond:TYR:150>  (387) 
0

>  <hbond:ASP:83>  (387) 
0

>  <hydroph_interaction:VAL:155>  (387) 
0

>  <pication:TYR:161>  (387) 
0

>  <hbond:PRO:131>  (387) 
0

>  <saltbridge:ASP:129>  (387) 
0

>  <hbond:THR:134>  (387) 
0

>  <pication:HIS:51>  (387) 
0

>  <hbond:SER:81>  (387) 
0

>  <hydroph_interaction:THR:134>  (387) 
0

>  <hydroph_interaction:MET:49>  (387) 
0

$$$$
Z2187859498
     RDKit          3D

 39 40  0  0  0  0  0  0  0  0999 V2000
   -1.3930    3.9500  -19.9070 C   0  0  0  0  0  0  0  0  0  0  0  0
   -2.2440    4.4890  -18.8980 O   0  0  0  0  0  0  0  0  0  0  0  0
   -3.0660    5.5260  -19.2500 C   0  0  0  0  0  0  0  0  0  0  0  0
   -4.4490    5.6360  -18.6670 C   0  0  0  0  0  0  0  0  0  0  0  0
   -5.5700    5.9620  -19.5570 C   0  0  0  0  0  0  0  0  0  0  0  0
   -6.5400    4.9150  -19.5740 O   0  0  0  0  0  0  0  0  0  0  0  0
   -7.6200    4.9110  -18.7300 C   0  0  0  0  0  0  0  0  0  0  0  0
   -8.9450    4.6050  -19.0650 C   0  0  0  0  0  0  0  0  0  0  0  0
   -9.9550    4.6180  -18.1180 C   0  0  0  0  0  0  0  0  0  0  0  0
   -9.6730    4.9360  -16.8060 C   0  0  0  0  0  0  0  0  0  0  0  0
   -8.3820    5.2530  -16.4390 C   0  0  0  0  0  0  0  0  0  0  0  0
   -8.1720    5.5840  -15.0940 C   0  0  0  0  0  0  0  0  0  0  0  0
   -7.5140    6.5920  -14.8590 O   0  0  0  0  0  0  0  0  0  0  0  0
   -8.7400    4.7570  -14.1440 N   0  0  0  0  0  0  0  0  0  0  0  0
   -8.7460    5.0700  -12.7990 C   0  0  0  0  0  0  0  0  0  0  0  0
   -8.5770    4.1860  -11.7440 C   0  0  0  0  0  0  0  0  0  0  0  0
   -8.6500    4.9480  -10.6180 N   0  0  0  0  0  0  0  0  0  0  0  0
   -8.5400    4.5490   -9.2460 C   0  0  0  0  0  0  0  0  0  0  0  0
   -8.8560    6.2370  -10.9350 N   0  0  0  0  0  0  0  0  0  0  0  0
   -8.9170    6.3190  -12.2660 N   0  0  0  0  0  0  0  0  0  0  0  0
   -7.3490    5.2410  -17.3950 C   0  0  0  0  0  0  0  0  0  0  0  0
   -1.5190    2.8750  -19.9660 H   0  0  0  0  0  0  0  0  0  0  0  0
   -1.6010    4.4920  -20.8220 H   0  0  0  0  0  0  0  0  0  0  0  0
   -0.3450    4.1330  -19.6570 H   0  0  0  0  0  0  0  0  0  0  0  0
   -3.0100    5.5080  -20.3360 H   0  0  0  0  0  0  0  0  0  0  0  0
   -2.5530    6.4480  -18.9600 H   0  0  0  0  0  0  0  0  0  0  0  0
   -4.7250    4.6850  -18.2080 H   0  0  0  0  0  0  0  0  0  0  0  0
   -4.4340    6.3700  -17.8550 H   0  0  0  0  0  0  0  0  0  0  0  0
   -5.2120    6.1830  -20.5700 H   0  0  0  0  0  0  0  0  0  0  0  0
   -6.1090    6.8420  -19.1900 H   0  0  0  0  0  0  0  0  0  0  0  0
   -9.1260    4.3560  -20.1170 H   0  0  0  0  0  0  0  0  0  0  0  0
  -11.0010    4.3870  -18.3300 H   0  0  0  0  0  0  0  0  0  0  0  0
  -10.4480    4.9440  -16.0480 H   0  0  0  0  0  0  0  0  0  0  0  0
   -9.2080    3.9030  -14.4300 H   0  0  0  0  0  0  0  0  0  0  0  0
   -8.4110    3.1200  -11.5630 H   0  0  0  0  0  0  0  0  0  0  0  0
   -7.5010    4.6480   -8.9180 H   0  0  0  0  0  0  0  0  0  0  0  0
   -8.8600    3.5190   -9.1590 H   0  0  0  0  0  0  0  0  0  0  0  0
   -9.1780    5.1990   -8.6450 H   0  0  0  0  0  0  0  0  0  0  0  0
   -6.3250    5.4850  -17.1200 H   0  0  0  0  0  0  0  0  0  0  0  0
  1  2  1  0
  2  3  1  0
  3  4  1  0
  4  5  1  0
  5  6  1  0
  6  7  1  0
  7  8  2  0
  8  9  1  0
  9 10  2  0
 10 11  1  0
 11 12  1  0
 12 13  2  0
 12 14  1  0
 14 15  1  0
 15 16  2  0
 16 17  1  0
 17 18  1  0
 17 19  1  0
 19 20  2  0
 11 21  2  0
 21  7  1  0
 20 15  1  0
  1 22  1  0
  1 23  1  0
  1 24  1  0
  3 25  1  0
  3 26  1  0
  4 27  1  0
  4 28  1  0
  5 29  1  0
  5 30  1  0
  8 31  1  0
  9 32  1  0
 10 33  1  0
 14 34  1  0
 16 35  1  0
 18 36  1  0
 18 37  1  0
 18 38  1  0
 21 39  1  0
A    1
 C1 
A    2
 O1 
A    3
 C2 
A    4
 C3 
A    5
 C4 
A    6
 O2 
A    7
 C5 
A    8
 C6 
A    9
 C7 
A   10
 C8 
A   11
 C9 
A   12
 C10
A   13
 O3 
A   14
 N1 
A   15
 C11
A   16
 C12
A   17
 N2 
A   18
 C13
A   19
 N3 
A   20
 N4 
A   21
 C14
A   22
 H1 
A   23
 H2 
A   24
 H3 
A   25
 H4 
A   26
 H5 
A   27
 H6 
A   28
 H7 
A   29
 H8 
A   30
 H9 
A   31
 H10
A   32
 H11
A   33
 H12
A   34
 H13
A   35
 H14
A   36
 H15
A   37
 H16
A   38
 H17
A   39
 H18
M  END
>  <ref_pdb>  (388) 
x0051_0B

>  <ref_mols>  (388) 
x0443_0B,x1098_0B

>  <original SMILES>  (388) 
[H]c1c([H])c(OC([H])([H])C([H])([H])C([H])([H])OC([H])([H])[H])c([H])c(C(=O)N([H])c2nnn(C([H])([H])[H])c2[H])c1[H]

>  <index>  (388) 
3100

>  <∆∆G>  (388) 
-9.142321

>  <∆G_bound>  (388) 
-8.675691

>  <∆G_unbound>  (388) 
0.46663

>  <comRMSD>  (388) 
0.526059

>  <N_constrained_atoms>  (388) 
18.0

>  <N_unconstrained_atoms>  (388) 
4.0

>  <runtime>  (388) 
56.986133

>  <LE>  (388) 
0.41556

>  <percent_hybrid>  (388) 
10.0

>  <dist>  (388) 
7.0

>  <ecfp4>  (388) 
0.261905

>  <daylight>  (388) 
0.336032

>  <topodist>  (388) 
2.0

>  <mces>  (388) 
22.0

>  <tdn>  (388) 
1.0

>  <tup>  (388) 
0.0

>  <rdn>  (388) 
1.0

>  <rup>  (388) 
0.0

>  <ldn>  (388) 
0.0

>  <lup>  (388) 
0.0

>  <mut>  (388) 
4.0

>  <maj>  (388) 
4.0

>  <min>  (388) 
0.0

>  <hyb>  (388) 
1.0

>  <sub>  (388) 
1.0

>  <query_index>  (388) 
80.0

>  <max_hit_Tanimoto>  (388) 
0.347666

>  <largest_ring>  (388) 
6

>  <N_interactions_kept>  (388) 
2.0

>  <N_interactions_lost>  (388) 
4.0

>  <interaction_uniqueness_metric>  (388) 
0.390588

>  <ad_hoc_penalty>  (388) 
-6.237885

>  <N_rotatable_bonds>  (388) 
9

>  <N_HA>  (388) 
21

>  <cluster>  (388) 
3352

>  <N_interactions>  (388) 
8

>  <Enamine>  (388) 
1

>  <Mcule>  (388) 
0

>  <N_PAINS>  (388) 
0

>  <UFF_Gibbs>  (388) 
82.918413

>  <strain_per_HA>  (388) 
3.948496

>  <intxn_scored>  (388) 
8.5

>  <saltbridge:HIS:51>  (388) 
0

>  <pistack:HIS:51>  (388) 
1

>  <hydroph_interaction:HIS:51>  (388) 
0

>  <hbond:ALA:132>  (388) 
0

>  <hbond:SER:135>  (388) 
0

>  <hydroph_interaction:TYR:150>  (388) 
1

>  <pistack:TYR:161>  (388) 
0

>  <hydroph_interaction:TYR:161>  (388) 
3

>  <hydroph_interaction:ASP:83>  (388) 
0

>  <hbond:TYR:130>  (388) 
0

>  <hydroph_interaction:ALA:132>  (388) 
0

>  <hbond:HIS:51>  (388) 
0

>  <hbond:ASP:129>  (388) 
0

>  <hbond:TYR:150>  (388) 
0

>  <hbond:GLY:151>  (388) 
1

>  <hbond:TYR:161>  (388) 
0

>  <hydroph_interaction:TYR:130>  (388) 
0

>  <hydroph_interaction:PRO:131>  (388) 
0

>  <hydroph_interaction:ASP:129>  (388) 
0

>  <saltbridge:ASP:75>  (388) 
0

>  <saltbridge:ASP:83>  (388) 
1

>  <hbond:ASN:152>  (388) 
0

>  <hydroph_interaction:ASN:152>  (388) 
0

>  <halogenbond:TYR:150>  (388) 
0

>  <hbond:ASP:83>  (388) 
0

>  <hydroph_interaction:VAL:155>  (388) 
0

>  <pication:TYR:161>  (388) 
0

>  <hbond:PRO:131>  (388) 
0

>  <saltbridge:ASP:129>  (388) 
0

>  <hbond:THR:134>  (388) 
0

>  <pication:HIS:51>  (388) 
1

>  <hbond:SER:81>  (388) 
0

>  <hydroph_interaction:THR:134>  (388) 
0

>  <hydroph_interaction:MET:49>  (388) 
0

$$$$
Z4342435223
     RDKit          3D

 34 36  0  0  0  0  0  0  0  0999 V2000
   -6.7070    4.7260  -14.6380 C   0  0  0  0  0  0  0  0  0  0  0  0
   -7.8440    5.4030  -15.1450 O   0  0  0  0  0  0  0  0  0  0  0  0
   -8.2380    5.2230  -16.4410 C   0  0  0  0  0  0  0  0  0  0  0  0
   -9.6940    4.9000  -16.7420 C   0  0  0  0  0  0  0  0  0  0  0  0
  -10.1170    4.7160  -18.1220 C   0  0  0  0  0  0  0  0  0  0  0  0
   -9.0910    4.8440  -19.2400 C   0  0  0  0  0  0  0  0  0  0  0  0
   -7.7620    5.1400  -18.8950 C   0  0  0  0  0  0  0  0  0  0  0  0
   -7.0030    5.2110  -20.0050 N   0  0  0  0  0  0  0  0  0  0  0  0
   -5.7030    5.4810  -19.9170 C   0  0  0  0  0  0  0  0  0  0  0  0
   -5.0980    5.6900  -18.7120 C   0  0  0  0  0  0  0  0  0  0  0  0
   -5.8650    5.6270  -17.4450 C   0  0  0  0  0  0  0  0  0  0  0  0
   -5.0570    5.8610  -16.3200 N   0  0  0  0  0  0  0  0  0  0  0  0
   -5.0380    7.2200  -15.7880 C   0  0  0  0  0  0  0  0  0  0  0  0
   -4.4940    7.2460  -14.3480 C   0  0  0  0  0  0  0  0  0  0  0  0
   -3.6540    6.0030  -14.0080 C   0  0  0  0  0  0  0  0  0  0  0  0
   -3.3500    4.8400  -14.9460 C   0  0  0  0  0  0  0  0  0  0  0  0
   -3.7630    5.1880  -16.3720 C   0  0  0  0  0  0  0  0  0  0  0  0
   -7.2810    5.3370  -17.5310 C   0  0  0  0  0  0  0  0  0  0  0  0
   -6.1370    4.3310  -15.4820 H   0  0  0  0  0  0  0  0  0  0  0  0
   -6.0560    5.3940  -14.0660 H   0  0  0  0  0  0  0  0  0  0  0  0
   -6.9830    3.8780  -14.0010 H   0  0  0  0  0  0  0  0  0  0  0  0
  -10.4520    4.7960  -15.9840 H   0  0  0  0  0  0  0  0  0  0  0  0
  -11.1800    4.4900  -18.2630 H   0  0  0  0  0  0  0  0  0  0  0  0
   -9.2990    4.7250  -20.3100 H   0  0  0  0  0  0  0  0  0  0  0  0
   -5.1550    5.5220  -20.8530 H   0  0  0  0  0  0  0  0  0  0  0  0
   -4.0340    5.9060  -18.6820 H   0  0  0  0  0  0  0  0  0  0  0  0
   -6.0630    7.6140  -15.7640 H   0  0  0  0  0  0  0  0  0  0  0  0
   -4.4410    7.9020  -16.3920 H   0  0  0  0  0  0  0  0  0  0  0  0
   -4.6590    8.0290  -13.6190 H   0  0  0  0  0  0  0  0  0  0  0  0
   -3.1780    5.8300  -13.0320 H   0  0  0  0  0  0  0  0  0  0  0  0
   -3.8880    3.9360  -14.6390 H   0  0  0  0  0  0  0  0  0  0  0  0
   -2.2800    4.6070  -14.9260 H   0  0  0  0  0  0  0  0  0  0  0  0
   -3.7860    4.2770  -16.9720 H   0  0  0  0  0  0  0  0  0  0  0  0
   -3.0000    5.8400  -16.8040 H   0  0  0  0  0  0  0  0  0  0  0  0
  1  2  1  0
  2  3  1  0
  3  4  2  0
  4  5  1  0
  5  6  2  0
  6  7  1  0
  7  8  2  0
  8  9  1  0
  9 10  2  0
 10 11  1  0
 11 12  1  0
 12 13  1  0
 13 14  1  0
 14 15  2  0
 15 16  1  0
 16 17  1  0
 11 18  2  0
 18  3  1  0
 18  7  1  0
 17 12  1  0
  1 19  1  0
  1 20  1  0
  1 21  1  0
  4 22  1  0
  5 23  1  0
  6 24  1  0
  9 25  1  0
 10 26  1  0
 13 27  1  0
 13 28  1  0
 14 29  1  0
 15 30  1  0
 16 31  1  0
 16 32  1  0
 17 33  1  0
 17 34  1  0
A    1
 C1 
A    2
 O1 
A    3
 C2 
A    4
 C3 
A    5
 C4 
A    6
 C5 
A    7
 C6 
A    8
 N1 
A    9
 C7 
A   10
 C8 
A   11
 C9 
A   12
 N2 
A   13
 C10
A   14
 C11
A   15
 C12
A   16
 C13
A   17
 C14
A   18
 C15
A   19
 H1 
A   20
 H2 
A   21
 H3 
A   22
 H4 
A   23
 H5 
A   24
 H6 
A   25
 H7 
A   26
 H8 
A   27
 H9 
A   28
 H10
A   29
 H11
A   30
 H12
A   31
 H13
A   32
 H14
A   33
 H15
A   34
 H16
M  END
>  <ref_pdb>  (389) 
x0051_0B

>  <ref_mols>  (389) 
x0429_0B,x0693_0B

>  <original SMILES>  (389) 
[H]C1=C([H])C([H])([H])C([H])([H])N(c2c([H])c([H])nc3c([H])c([H])c([H])c(OC([H])([H])[H])c23)C1([H])[H]

>  <index>  (389) 
1461

>  <∆∆G>  (389) 
-6.74142

>  <∆G_bound>  (389) 
-5.689642

>  <∆G_unbound>  (389) 
1.051778

>  <comRMSD>  (389) 
0.614274

>  <N_constrained_atoms>  (389) 
18.0

>  <N_unconstrained_atoms>  (389) 
1.0

>  <runtime>  (389) 
21.907242

>  <LE>  (389) 
0.354812

>  <percent_hybrid>  (389) 
20.0

>  <dist>  (389) 
3.0

>  <ecfp4>  (389) 
0.407407

>  <daylight>  (389) 
0.428571

>  <topodist>  (389) 
1.0

>  <mces>  (389) 
19.0

>  <tdn>  (389) 
0.0

>  <tup>  (389) 
0.0

>  <rdn>  (389) 
0.0

>  <rup>  (389) 
0.0

>  <ldn>  (389) 
0.0

>  <lup>  (389) 
1.0

>  <mut>  (389) 
1.0

>  <maj>  (389) 
1.0

>  <min>  (389) 
0.0

>  <hyb>  (389) 
1.0

>  <sub>  (389) 
0.0

>  <query_index>  (389) 
179.0

>  <max_hit_Tanimoto>  (389) 
0.545087

>  <largest_ring>  (389) 
6

>  <N_interactions_kept>  (389) 
3.0

>  <N_interactions_lost>  (389) 
1.5

>  <interaction_uniqueness_metric>  (389) 
0.034019

>  <ad_hoc_penalty>  (389) 
-8.999257

>  <N_rotatable_bonds>  (389) 
3

>  <N_HA>  (389) 
18

>  <cluster>  (389) 
4878

>  <N_interactions>  (389) 
3

>  <Enamine>  (389) 
1

>  <Mcule>  (389) 
0

>  <N_PAINS>  (389) 
0

>  <UFF_Gibbs>  (389) 
117.908595

>  <strain_per_HA>  (389) 
6.550477

>  <intxn_scored>  (389) 
8.5

>  <saltbridge:HIS:51>  (389) 
0

>  <pistack:HIS:51>  (389) 
0

>  <hydroph_interaction:HIS:51>  (389) 
0

>  <hbond:ALA:132>  (389) 
0

>  <hbond:SER:135>  (389) 
0

>  <hydroph_interaction:TYR:150>  (389) 
1

>  <pistack:TYR:161>  (389) 
2

>  <hydroph_interaction:TYR:161>  (389) 
0

>  <hydroph_interaction:ASP:83>  (389) 
0

>  <hbond:TYR:130>  (389) 
0

>  <hydroph_interaction:ALA:132>  (389) 
0

>  <hbond:HIS:51>  (389) 
0

>  <hbond:ASP:129>  (389) 
0

>  <hbond:TYR:150>  (389) 
0

>  <hbond:GLY:151>  (389) 
0

>  <hbond:TYR:161>  (389) 
0

>  <hydroph_interaction:TYR:130>  (389) 
0

>  <hydroph_interaction:PRO:131>  (389) 
0

>  <hydroph_interaction:ASP:129>  (389) 
0

>  <saltbridge:ASP:75>  (389) 
0

>  <saltbridge:ASP:83>  (389) 
0

>  <hbond:ASN:152>  (389) 
0

>  <hydroph_interaction:ASN:152>  (389) 
0

>  <halogenbond:TYR:150>  (389) 
0

>  <hbond:ASP:83>  (389) 
0

>  <hydroph_interaction:VAL:155>  (389) 
0

>  <pication:TYR:161>  (389) 
0

>  <hbond:PRO:131>  (389) 
0

>  <saltbridge:ASP:129>  (389) 
0

>  <hbond:THR:134>  (389) 
0

>  <pication:HIS:51>  (389) 
0

>  <hbond:SER:81>  (389) 
0

>  <hydroph_interaction:THR:134>  (389) 
0

>  <hydroph_interaction:MET:49>  (389) 
0

$$$$
Z1953204496
     RDKit          3D

 48 52  0  0  0  0  0  0  0  0999 V2000
   -5.5390    5.2590  -21.8910 O   0  0  0  0  0  0  0  0  0  0  0  0
   -5.1740    6.3690  -21.5290 C   0  0  0  0  0  0  0  0  0  0  0  0
   -4.4410    6.6020  -20.3140 N   0  0  0  0  0  0  0  0  0  0  0  0
   -4.4450    5.8020  -19.2190 C   0  0  0  0  0  0  0  0  0  0  0  0
   -5.7570    5.5590  -18.9000 C   0  0  0  0  0  0  0  0  0  0  0  0
   -6.8580    5.3050  -19.6620 N   0  0  0  0  0  0  0  0  0  0  0  0
   -7.9280    5.1370  -18.8580 C   0  0  0  0  0  0  0  0  0  0  0  0
   -9.3260    4.8470  -19.2240 C   0  0  0  0  0  0  0  0  0  0  0  0
  -10.1710    4.7320  -18.1250 C   0  0  0  0  0  0  0  0  0  0  0  0
   -9.6370    4.8960  -16.8300 C   0  0  0  0  0  0  0  0  0  0  0  0
   -8.3520    5.1660  -16.4840 N   0  0  0  0  0  0  0  0  0  0  0  0
   -7.5490    5.2730  -17.5500 C   0  0  0  0  0  0  0  0  0  0  0  0
   -6.1870    5.5390  -17.5780 N   0  0  0  0  0  0  0  0  0  0  0  0
   -5.4680    7.5500  -22.3380 C   0  0  0  0  0  0  0  0  0  0  0  0
   -6.1220    7.4150  -23.5630 C   0  0  0  0  0  0  0  0  0  0  0  0
   -6.3910    8.5330  -24.3080 C   0  0  0  0  0  0  0  0  0  0  0  0
   -6.0100    9.7830  -23.8420 C   0  0  0  0  0  0  0  0  0  0  0  0
   -6.3890   11.1630  -24.8700 S   0  0  0  0  0  0  0  0  0  0  0  0
   -6.0650   10.3720  -26.4860 C   0  0  0  0  0  0  0  0  0  0  0  0
   -7.2750    9.6510  -26.9750 C   0  0  0  0  0  0  0  0  0  0  0  0
   -7.3730    8.3780  -27.3100 N   0  0  0  0  0  0  0  0  0  0  0  0
   -8.6820    8.1890  -27.6840 C   0  0  0  0  0  0  0  0  0  0  0  0
   -9.3380    7.0280  -28.1190 C   0  0  0  0  0  0  0  0  0  0  0  0
  -10.7020    7.1060  -28.4350 C   0  0  0  0  0  0  0  0  0  0  0  0
  -11.3930    8.3130  -28.3190 C   0  0  0  0  0  0  0  0  0  0  0  0
  -10.7540    9.4820  -27.8900 C   0  0  0  0  0  0  0  0  0  0  0  0
   -9.3940    9.3760  -27.5810 C   0  0  0  0  0  0  0  0  0  0  0  0
   -8.4800   10.2880  -27.1350 N   0  0  0  0  0  0  0  0  0  0  0  0
   -5.3550    9.9350  -22.6200 C   0  0  0  0  0  0  0  0  0  0  0  0
   -5.0800    8.8060  -21.8560 C   0  0  0  0  0  0  0  0  0  0  0  0
   -3.8690    7.4330  -20.2450 H   0  0  0  0  0  0  0  0  0  0  0  0
   -3.9190    4.8840  -19.4720 H   0  0  0  0  0  0  0  0  0  0  0  0
   -3.9200    6.2870  -18.3890 H   0  0  0  0  0  0  0  0  0  0  0  0
   -9.6450    4.7390  -20.2530 H   0  0  0  0  0  0  0  0  0  0  0  0
  -11.2250    4.5210  -18.2640 H   0  0  0  0  0  0  0  0  0  0  0  0
  -10.2930    4.8040  -15.9690 H   0  0  0  0  0  0  0  0  0  0  0  0
   -5.5990    5.6940  -16.7700 H   0  0  0  0  0  0  0  0  0  0  0  0
   -6.4280    6.4460  -23.9440 H   0  0  0  0  0  0  0  0  0  0  0  0
   -6.8990    8.4540  -25.2610 H   0  0  0  0  0  0  0  0  0  0  0  0
   -5.2480    9.6540  -26.3530 H   0  0  0  0  0  0  0  0  0  0  0  0
   -5.6530   11.1570  -27.1120 H   0  0  0  0  0  0  0  0  0  0  0  0
   -8.7960    6.0930  -28.2050 H   0  0  0  0  0  0  0  0  0  0  0  0
  -11.2240    6.2130  -28.7720 H   0  0  0  0  0  0  0  0  0  0  0  0
  -12.4530    8.3490  -28.5680 H   0  0  0  0  0  0  0  0  0  0  0  0
  -11.2960   10.4190  -27.8020 H   0  0  0  0  0  0  0  0  0  0  0  0
   -8.6630   11.2640  -26.9500 H   0  0  0  0  0  0  0  0  0  0  0  0
   -5.0580   10.9150  -22.2560 H   0  0  0  0  0  0  0  0  0  0  0  0
   -4.5710    8.9070  -20.8990 H   0  0  0  0  0  0  0  0  0  0  0  0
  1  2  2  0
  2  3  1  0
  3  4  1  0
  4  5  1  0
  5  6  2  0
  6  7  1  0
  7  8  2  0
  8  9  1  0
  9 10  2  0
 10 11  1  0
 11 12  2  0
 12 13  1  0
  2 14  1  0
 14 15  2  0
 15 16  1  0
 16 17  2  0
 17 18  1  0
 18 19  1  0
 19 20  1  0
 20 21  2  0
 21 22  1  0
 22 23  2  0
 23 24  1  0
 24 25  2  0
 25 26  1  0
 26 27  2  0
 27 28  1  0
 17 29  1  0
 29 30  2  0
 13  5  1  0
 12  7  1  0
 30 14  1  0
 28 20  1  0
 27 22  1  0
  3 31  1  0
  4 32  1  0
  4 33  1  0
  8 34  1  0
  9 35  1  0
 10 36  1  0
 13 37  1  0
 15 38  1  0
 16 39  1  0
 19 40  1  0
 19 41  1  0
 23 42  1  0
 24 43  1  0
 25 44  1  0
 26 45  1  0
 28 46  1  0
 29 47  1  0
 30 48  1  0
A    1
 O1 
A    2
 C1 
A    3
 N1 
A    4
 C2 
A    5
 C3 
A    6
 N2 
A    7
 C4 
A    8
 C5 
A    9
 C6 
A   10
 C7 
A   11
 N3 
A   12
 C8 
A   13
 N4 
A   14
 C9 
A   15
 C10
A   16
 C11
A   17
 C12
A   18
 S1 
A   19
 C13
A   20
 C14
A   21
 N5 
A   22
 C15
A   23
 C16
A   24
 C17
A   25
 C18
A   26
 C19
A   27
 C20
A   28
 N6 
A   29
 C21
A   30
 C22
A   31
 H1 
A   32
 H2 
A   33
 H3 
A   34
 H4 
A   35
 H5 
A   36
 H6 
A   37
 H7 
A   38
 H8 
A   39
 H9 
A   40
 H10
A   41
 H11
A   42
 H12
A   43
 H13
A   44
 H14
A   45
 H15
A   46
 H16
A   47
 H17
A   48
 H18
M  END
>  <ref_pdb>  (390) 
x0051_0B

>  <ref_mols>  (390) 
x0846_1B,x0490_0B

>  <original SMILES>  (390) 
[H]c1nc2c(nc(C([H])([H])N([H])C(=O)c3c([H])c([H])c(SC([H])([H])c4nc5c([H])c([H])c([H])c([H])c5n4[H])c([H])c3[H])n2[H])c([H])c1[H]

>  <index>  (390) 
1064

>  <∆∆G>  (390) 
-8.232318

>  <∆G_bound>  (390) 
-6.706657

>  <∆G_unbound>  (390) 
1.525662

>  <comRMSD>  (390) 
0.626381

>  <N_constrained_atoms>  (390) 
28.0

>  <N_unconstrained_atoms>  (390) 
3.0

>  <runtime>  (390) 
40.101434

>  <LE>  (390) 
0.265559

>  <percent_hybrid>  (390) 
36.0

>  <dist>  (390) 
8.0

>  <ecfp4>  (390) 
0.197802

>  <daylight>  (390) 
0.2749

>  <topodist>  (390) 
5.0

>  <mces>  (390) 
32.0

>  <tdn>  (390) 
3.0

>  <tup>  (390) 
1.0

>  <rdn>  (390) 
0.0

>  <rup>  (390) 
0.0

>  <ldn>  (390) 
0.0

>  <lup>  (390) 
1.0

>  <mut>  (390) 
2.0

>  <maj>  (390) 
1.0

>  <min>  (390) 
1.0

>  <hyb>  (390) 
1.0

>  <sub>  (390) 
2.0

>  <query_index>  (390) 
51.0

>  <max_hit_Tanimoto>  (390) 
0.278161

>  <largest_ring>  (390) 
6

>  <N_interactions_kept>  (390) 
0.0

>  <N_interactions_lost>  (390) 
3.0

>  <interaction_uniqueness_metric>  (390) 
0.206565

>  <ad_hoc_penalty>  (390) 
-16.389657

>  <N_rotatable_bonds>  (390) 
6

>  <N_HA>  (390) 
30

>  <cluster>  (390) 
5239

>  <N_interactions>  (390) 
7

>  <Enamine>  (390) 
1

>  <Mcule>  (390) 
0

>  <N_PAINS>  (390) 
0

>  <UFF_Gibbs>  (390) 
114.502498

>  <strain_per_HA>  (390) 
3.81675

>  <intxn_scored>  (390) 
8.5

>  <saltbridge:HIS:51>  (390) 
0

>  <pistack:HIS:51>  (390) 
0

>  <hydroph_interaction:HIS:51>  (390) 
0

>  <hbond:ALA:132>  (390) 
0

>  <hbond:SER:135>  (390) 
0

>  <hydroph_interaction:TYR:150>  (390) 
1

>  <pistack:TYR:161>  (390) 
1

>  <hydroph_interaction:TYR:161>  (390) 
1

>  <hydroph_interaction:ASP:83>  (390) 
0

>  <hbond:TYR:130>  (390) 
1

>  <hydroph_interaction:ALA:132>  (390) 
0

>  <hbond:HIS:51>  (390) 
0

>  <hbond:ASP:129>  (390) 
1

>  <hbond:TYR:150>  (390) 
0

>  <hbond:GLY:151>  (390) 
0

>  <hbond:TYR:161>  (390) 
0

>  <hydroph_interaction:TYR:130>  (390) 
1

>  <hydroph_interaction:PRO:131>  (390) 
1

>  <hydroph_interaction:ASP:129>  (390) 
0

>  <saltbridge:ASP:75>  (390) 
0

>  <saltbridge:ASP:83>  (390) 
0

>  <hbond:ASN:152>  (390) 
0

>  <hydroph_interaction:ASN:152>  (390) 
0

>  <halogenbond:TYR:150>  (390) 
0

>  <hbond:ASP:83>  (390) 
0

>  <hydroph_interaction:VAL:155>  (390) 
0

>  <pication:TYR:161>  (390) 
0

>  <hbond:PRO:131>  (390) 
0

>  <saltbridge:ASP:129>  (390) 
0

>  <hbond:THR:134>  (390) 
0

>  <pication:HIS:51>  (390) 
0

>  <hbond:SER:81>  (390) 
0

>  <hydroph_interaction:THR:134>  (390) 
0

>  <hydroph_interaction:MET:49>  (390) 
0

$$$$
Z1492316848
     RDKit          3D

 38 40  0  0  0  0  0  0  0  0999 V2000
   -7.4770    6.5690  -14.8510 O   0  0  0  0  0  0  0  0  0  0  0  0
   -8.1940    5.6030  -15.0910 C   0  0  0  0  0  0  0  0  0  0  0  0
   -8.7510    4.7950  -14.1270 N   0  0  0  0  0  0  0  0  0  0  0  0
   -8.7770    5.1390  -12.7610 C   0  0  0  0  0  0  0  0  0  0  0  0
   -8.6180    4.3410  -11.6620 C   0  0  0  0  0  0  0  0  0  0  0  0
   -8.7050    5.1080  -10.5140 C   0  0  0  0  0  0  0  0  0  0  0  0
   -8.5750    4.6420   -8.9000 Cl  0  0  0  0  0  0  0  0  0  0  0  0
   -8.9250    6.3930  -10.8540 N   0  0  0  0  0  0  0  0  0  0  0  0
   -8.9640    6.3850  -12.2200 N   0  0  0  0  0  0  0  0  0  0  0  0
   -8.4860    5.3210  -16.5330 C   0  0  0  0  0  0  0  0  0  0  0  0
   -9.7570    4.8810  -16.8260 C   0  0  0  0  0  0  0  0  0  0  0  0
  -10.1540    4.5960  -18.2270 C   0  0  0  0  0  0  0  0  0  0  0  0
   -9.2130    4.7730  -19.2360 C   0  0  0  0  0  0  0  0  0  0  0  0
   -7.9310    5.2120  -18.9120 C   0  0  0  0  0  0  0  0  0  0  0  0
   -7.5670    5.4860  -17.5820 C   0  0  0  0  0  0  0  0  0  0  0  0
   -6.3060    5.9220  -17.2870 O   0  0  0  0  0  0  0  0  0  0  0  0
   -5.3170    5.3700  -18.1580 C   0  0  0  0  0  0  0  0  0  0  0  0
   -4.8530    6.4910  -18.9940 C   0  0  0  0  0  0  0  0  0  0  0  0
   -5.8490    7.5890  -19.3540 C   0  0  0  0  0  0  0  0  0  0  0  0
   -5.6080    7.8900  -20.8150 C   0  0  0  0  0  0  0  0  0  0  0  0
   -4.5290    6.9230  -21.2970 C   0  0  0  0  0  0  0  0  0  0  0  0
   -4.3730    5.9380  -20.2540 O   0  0  0  0  0  0  0  0  0  0  0  0
   -9.2250    3.9410  -14.4150 H   0  0  0  0  0  0  0  0  0  0  0  0
   -8.4430    3.2660  -11.6600 H   0  0  0  0  0  0  0  0  0  0  0  0
   -9.1170    7.2550  -12.7210 H   0  0  0  0  0  0  0  0  0  0  0  0
  -10.4710    4.7450  -16.0220 H   0  0  0  0  0  0  0  0  0  0  0  0
  -11.1580    4.2580  -18.4520 H   0  0  0  0  0  0  0  0  0  0  0  0
   -9.4710    4.5710  -20.2740 H   0  0  0  0  0  0  0  0  0  0  0  0
   -7.2220    5.3380  -19.7230 H   0  0  0  0  0  0  0  0  0  0  0  0
   -5.7690    4.5280  -18.6410 H   0  0  0  0  0  0  0  0  0  0  0  0
   -4.4780    5.0130  -17.5490 H   0  0  0  0  0  0  0  0  0  0  0  0
   -3.9870    6.9520  -18.5080 H   0  0  0  0  0  0  0  0  0  0  0  0
   -5.8790    8.4340  -18.6810 H   0  0  0  0  0  0  0  0  0  0  0  0
   -6.8490    7.1440  -19.2850 H   0  0  0  0  0  0  0  0  0  0  0  0
   -6.5200    7.8270  -21.4150 H   0  0  0  0  0  0  0  0  0  0  0  0
   -5.2290    8.9150  -20.9040 H   0  0  0  0  0  0  0  0  0  0  0  0
   -3.5600    7.4040  -21.4500 H   0  0  0  0  0  0  0  0  0  0  0  0
   -4.8270    6.4090  -22.2170 H   0  0  0  0  0  0  0  0  0  0  0  0
  1  2  2  0
  2  3  1  0
  3  4  1  0
  4  5  2  0
  5  6  1  0
  6  7  1  0
  6  8  2  0
  8  9  1  0
  2 10  1  0
 10 11  2  0
 11 12  1  0
 12 13  2  0
 13 14  1  0
 14 15  2  0
 15 16  1  0
 16 17  1  0
 17 18  1  0
 18 19  1  0
 19 20  1  0
 20 21  1  0
 21 22  1  0
  9  4  1  0
 15 10  1  0
 22 18  1  0
  3 23  1  0
  5 24  1  0
  9 25  1  0
 11 26  1  0
 12 27  1  0
 13 28  1  0
 14 29  1  0
 17 30  1  0
 17 31  1  0
 18 32  1  0
 19 33  1  0
 19 34  1  0
 20 35  1  0
 20 36  1  0
 21 37  1  0
 21 38  1  0
A    1
 O1 
A    2
 C1 
A    3
 N1 
A    4
 C2 
A    5
 C3 
A    6
 C4 
A    7
CL1 
A    8
 N2 
A    9
 N3 
A   10
 C5 
A   11
 C6 
A   12
 C7 
A   13
 C8 
A   14
 C9 
A   15
 C10
A   16
 O2 
A   17
 C11
A   18
 C12
A   19
 C13
A   20
 C14
A   21
 C15
A   22
 O3 
A   23
 H1 
A   24
 H2 
A   25
 H3 
A   26
 H4 
A   27
 H5 
A   28
 H6 
A   29
 H7 
A   30
 H8 
A   31
 H9 
A   32
 H10
A   33
 H11
A   34
 H12
A   35
 H13
A   36
 H14
A   37
 H15
A   38
 H16
M  END
>  <ref_pdb>  (391) 
x0051_0B

>  <ref_mols>  (391) 
x1098_0B,x0229_0B

>  <original SMILES>  (391) 
[H]c1c([H])c([H])c(C(=O)N([H])c2c([H])c(Cl)nn2[H])c(OC([H])([H])C2([H])OC([H])([H])C([H])([H])C2([H])[H])c1[H]

>  <index>  (391) 
3567

>  <∆∆G>  (391) 
-9.002059

>  <∆G_bound>  (391) 
-5.896138

>  <∆G_unbound>  (391) 
3.105921

>  <comRMSD>  (391) 
0.653034

>  <N_constrained_atoms>  (391) 
26.0

>  <N_unconstrained_atoms>  (391) 
0.0

>  <runtime>  (391) 
40.80503

>  <LE>  (391) 
0.346233

>  <percent_hybrid>  (391) 
43.0

>  <dist>  (391) 
8.0

>  <ecfp4>  (391) 
0.195652

>  <daylight>  (391) 
0.239617

>  <topodist>  (391) 
3.0

>  <mces>  (391) 
24.0

>  <tdn>  (391) 
2.0

>  <tup>  (391) 
0.0

>  <rdn>  (391) 
1.0

>  <rup>  (391) 
0.0

>  <ldn>  (391) 
0.0

>  <lup>  (391) 
0.0

>  <mut>  (391) 
5.0

>  <maj>  (391) 
5.0

>  <min>  (391) 
0.0

>  <hyb>  (391) 
0.0

>  <sub>  (391) 
2.0

>  <query_index>  (391) 
28.0

>  <max_hit_Tanimoto>  (391) 
0.307933

>  <largest_ring>  (391) 
6

>  <N_interactions_kept>  (391) 
1.5

>  <N_interactions_lost>  (391) 
4.0

>  <interaction_uniqueness_metric>  (391) 
0.136667

>  <ad_hoc_penalty>  (391) 
-1.880007

>  <N_rotatable_bonds>  (391) 
5

>  <N_HA>  (391) 
22

>  <cluster>  (391) 
2906

>  <N_interactions>  (391) 
5

>  <Enamine>  (391) 
1

>  <Mcule>  (391) 
0

>  <N_PAINS>  (391) 
0

>  <UFF_Gibbs>  (391) 
74.083732

>  <strain_per_HA>  (391) 
3.367442

>  <intxn_scored>  (391) 
8.5

>  <saltbridge:HIS:51>  (391) 
0

>  <pistack:HIS:51>  (391) 
1

>  <hydroph_interaction:HIS:51>  (391) 
0

>  <hbond:ALA:132>  (391) 
0

>  <hbond:SER:135>  (391) 
0

>  <hydroph_interaction:TYR:150>  (391) 
1

>  <pistack:TYR:161>  (391) 
1

>  <hydroph_interaction:TYR:161>  (391) 
0

>  <hydroph_interaction:ASP:83>  (391) 
0

>  <hbond:TYR:130>  (391) 
0

>  <hydroph_interaction:ALA:132>  (391) 
0

>  <hbond:HIS:51>  (391) 
0

>  <hbond:ASP:129>  (391) 
0

>  <hbond:TYR:150>  (391) 
0

>  <hbond:GLY:151>  (391) 
1

>  <hbond:TYR:161>  (391) 
1

>  <hydroph_interaction:TYR:130>  (391) 
0

>  <hydroph_interaction:PRO:131>  (391) 
0

>  <hydroph_interaction:ASP:129>  (391) 
0

>  <saltbridge:ASP:75>  (391) 
0

>  <saltbridge:ASP:83>  (391) 
0

>  <hbond:ASN:152>  (391) 
0

>  <hydroph_interaction:ASN:152>  (391) 
0

>  <halogenbond:TYR:150>  (391) 
0

>  <hbond:ASP:83>  (391) 
0

>  <hydroph_interaction:VAL:155>  (391) 
0

>  <pication:TYR:161>  (391) 
0

>  <hbond:PRO:131>  (391) 
0

>  <saltbridge:ASP:129>  (391) 
0

>  <hbond:THR:134>  (391) 
0

>  <pication:HIS:51>  (391) 
0

>  <hbond:SER:81>  (391) 
0

>  <hydroph_interaction:THR:134>  (391) 
0

>  <hydroph_interaction:MET:49>  (391) 
0

$$$$
CSSS00048984802
     RDKit          3D

 36 37  0  0  0  0  0  0  0  0999 V2000
   -6.6230    4.9720  -20.7640 C   0  0  0  0  0  0  0  0  0  0  0  0
   -6.5510    5.4140  -19.4240 O   0  0  0  0  0  0  0  0  0  0  0  0
   -7.6160    5.2290  -18.5860 C   0  0  0  0  0  0  0  0  0  0  0  0
   -9.0100    4.7430  -19.0200 C   0  0  0  0  0  0  0  0  0  0  0  0
   -9.9890    4.6060  -18.0460 C   0  0  0  0  0  0  0  0  0  0  0  0
   -9.6740    4.9100  -16.7140 C   0  0  0  0  0  0  0  0  0  0  0  0
   -8.4220    5.3580  -16.2930 C   0  0  0  0  0  0  0  0  0  0  0  0
   -8.2100    5.6570  -14.9210 C   0  0  0  0  0  0  0  0  0  0  0  0
   -7.4360    6.5300  -14.5580 O   0  0  0  0  0  0  0  0  0  0  0  0
   -8.9930    4.8330  -14.1280 O   0  0  0  0  0  0  0  0  0  0  0  0
   -8.8820    5.0190  -12.7370 C   0  0  0  0  0  0  0  0  0  0  0  0
   -8.7150    3.8890  -11.9330 C   0  0  0  0  0  0  0  0  0  0  0  0
   -8.6030    3.9790  -10.5490 C   0  0  0  0  0  0  0  0  0  0  0  0
   -8.6640    5.3460   -9.9050 C   0  0  0  0  0  0  0  0  0  0  0  0
   -8.5550    5.4110   -8.5260 C   0  0  0  0  0  0  0  0  0  0  0  0
   -8.8320    6.4590  -10.7430 C   0  0  0  0  0  0  0  0  0  0  0  0
   -8.9400    6.2970  -12.1570 C   0  0  0  0  0  0  0  0  0  0  0  0
   -7.3930    5.5170  -17.2220 C   0  0  0  0  0  0  0  0  0  0  0  0
   -6.1740    5.9570  -16.7790 O   0  0  0  0  0  0  0  0  0  0  0  0
   -5.4700    6.6240  -17.8210 C   0  0  0  0  0  0  0  0  0  0  0  0
   -5.8360    4.2580  -21.0030 H   0  0  0  0  0  0  0  0  0  0  0  0
   -6.5330    5.8100  -21.4620 H   0  0  0  0  0  0  0  0  0  0  0  0
   -7.5840    4.4670  -20.9250 H   0  0  0  0  0  0  0  0  0  0  0  0
   -9.2390    4.5080  -20.0580 H   0  0  0  0  0  0  0  0  0  0  0  0
  -10.9860    4.2690  -18.3130 H   0  0  0  0  0  0  0  0  0  0  0  0
  -10.4890    4.7720  -16.0150 H   0  0  0  0  0  0  0  0  0  0  0  0
   -8.6600    2.8570  -12.3070 H   0  0  0  0  0  0  0  0  0  0  0  0
   -8.4770    3.0800   -9.9510 H   0  0  0  0  0  0  0  0  0  0  0  0
   -8.7710    6.3570   -8.0370 H   0  0  0  0  0  0  0  0  0  0  0  0
   -9.2170    4.6580   -8.0850 H   0  0  0  0  0  0  0  0  0  0  0  0
   -7.5400    5.1190   -8.2270 H   0  0  0  0  0  0  0  0  0  0  0  0
   -8.8830    7.4610  -10.3200 H   0  0  0  0  0  0  0  0  0  0  0  0
   -9.0710    7.1700  -12.7890 H   0  0  0  0  0  0  0  0  0  0  0  0
   -4.7900    7.3440  -17.3530 H   0  0  0  0  0  0  0  0  0  0  0  0
   -4.8650    5.9130  -18.3930 H   0  0  0  0  0  0  0  0  0  0  0  0
   -6.1400    7.1770  -18.4910 H   0  0  0  0  0  0  0  0  0  0  0  0
  1  2  1  0
  2  3  1  0
  3  4  2  0
  4  5  1  0
  5  6  2  0
  6  7  1  0
  7  8  1  0
  8  9  2  0
  8 10  1  0
 10 11  1  0
 11 12  2  0
 12 13  1  0
 13 14  2  0
 14 15  1  0
 14 16  1  0
 16 17  2  0
  7 18  2  0
 18 19  1  0
 19 20  1  0
 18  3  1  0
 17 11  1  0
  1 21  1  0
  1 22  1  0
  1 23  1  0
  4 24  1  0
  5 25  1  0
  6 26  1  0
 12 27  1  0
 13 28  1  0
 15 29  1  0
 15 30  1  0
 15 31  1  0
 16 32  1  0
 17 33  1  0
 20 34  1  0
 20 35  1  0
 20 36  1  0
A    1
 C1 
A    2
 O1 
A    3
 C2 
A    4
 C3 
A    5
 C4 
A    6
 C5 
A    7
 C6 
A    8
 C7 
A    9
 O2 
A   10
 O3 
A   11
 C8 
A   12
 C9 
A   13
 C10
A   14
 C11
A   15
 C12
A   16
 C13
A   17
 C14
A   18
 C15
A   19
 O4 
A   20
 C16
A   21
 H1 
A   22
 H2 
A   23
 H3 
A   24
 H4 
A   25
 H5 
A   26
 H6 
A   27
 H7 
A   28
 H8 
A   29
 H9 
A   30
 H10
A   31
 H11
A   32
 H12
A   33
 H13
A   34
 H14
A   35
 H15
A   36
 H16
M  END
>  <ref_pdb>  (392) 
x0051_0B

>  <ref_mols>  (392) 
x1098_0B,x0490_0B

>  <original SMILES>  (392) 
[H]c1c([H])c(OC([H])([H])[H])c(OC([H])([H])[H])c(C(=O)Oc2c([H])c([H])c(C([H])([H])[H])c([H])c2[H])c1[H]

>  <index>  (392) 
2618

>  <∆∆G>  (392) 
-8.014746

>  <∆G_bound>  (392) 
-7.550322

>  <∆G_unbound>  (392) 
0.464424

>  <comRMSD>  (392) 
0.801711

>  <N_constrained_atoms>  (392) 
19.0

>  <N_unconstrained_atoms>  (392) 
1.0

>  <runtime>  (392) 
59.890952

>  <LE>  (392) 
0.400737

>  <percent_hybrid>  (392) 
10.0

>  <dist>  (392) 
8.0

>  <ecfp4>  (392) 
0.150685

>  <daylight>  (392) 
0.147783

>  <topodist>  (392) 
3.0

>  <mces>  (392) 
20.0

>  <tdn>  (392) 
1.0

>  <tup>  (392) 
0.0

>  <rdn>  (392) 
1.0

>  <rup>  (392) 
0.0

>  <ldn>  (392) 
0.0

>  <lup>  (392) 
1.0

>  <mut>  (392) 
5.0

>  <maj>  (392) 
5.0

>  <min>  (392) 
0.0

>  <hyb>  (392) 
0.0

>  <sub>  (392) 
2.0

>  <query_index>  (392) 
69.0

>  <max_hit_Tanimoto>  (392) 
0.186517

>  <largest_ring>  (392) 
6

>  <N_interactions_kept>  (392) 
3.0

>  <N_interactions_lost>  (392) 
3.0

>  <interaction_uniqueness_metric>  (392) 
0.204731

>  <ad_hoc_penalty>  (392) 
-5.349329

>  <N_rotatable_bonds>  (392) 
7

>  <N_HA>  (392) 
20

>  <cluster>  (392) 
3806

>  <N_interactions>  (392) 
6

>  <Enamine>  (392) 
1

>  <Mcule>  (392) 
0

>  <N_PAINS>  (392) 
0

>  <UFF_Gibbs>  (392) 
105.520922

>  <strain_per_HA>  (392) 
5.276046

>  <intxn_scored>  (392) 
8.5

>  <saltbridge:HIS:51>  (392) 
1

>  <pistack:HIS:51>  (392) 
1

>  <hydroph_interaction:HIS:51>  (392) 
1

>  <hbond:ALA:132>  (392) 
0

>  <hbond:SER:135>  (392) 
0

>  <hydroph_interaction:TYR:150>  (392) 
1

>  <pistack:TYR:161>  (392) 
1

>  <hydroph_interaction:TYR:161>  (392) 
0

>  <hydroph_interaction:ASP:83>  (392) 
0

>  <hbond:TYR:130>  (392) 
0

>  <hydroph_interaction:ALA:132>  (392) 
1

>  <hbond:HIS:51>  (392) 
0

>  <hbond:ASP:129>  (392) 
0

>  <hbond:TYR:150>  (392) 
0

>  <hbond:GLY:151>  (392) 
0

>  <hbond:TYR:161>  (392) 
0

>  <hydroph_interaction:TYR:130>  (392) 
0

>  <hydroph_interaction:PRO:131>  (392) 
0

>  <hydroph_interaction:ASP:129>  (392) 
0

>  <saltbridge:ASP:75>  (392) 
0

>  <saltbridge:ASP:83>  (392) 
0

>  <hbond:ASN:152>  (392) 
0

>  <hydroph_interaction:ASN:152>  (392) 
0

>  <halogenbond:TYR:150>  (392) 
0

>  <hbond:ASP:83>  (392) 
0

>  <hydroph_interaction:VAL:155>  (392) 
0

>  <pication:TYR:161>  (392) 
0

>  <hbond:PRO:131>  (392) 
0

>  <saltbridge:ASP:129>  (392) 
0

>  <hbond:THR:134>  (392) 
0

>  <pication:HIS:51>  (392) 
0

>  <hbond:SER:81>  (392) 
0

>  <hydroph_interaction:THR:134>  (392) 
0

>  <hydroph_interaction:MET:49>  (392) 
0

$$$$
CSSS00000015262
     RDKit          3D

 26 27  0  0  0  0  0  0  0  0999 V2000
   -7.5790    5.6170  -13.8930 C   0  0  0  0  0  0  0  0  0  0  0  0
   -7.0900    5.5020  -15.2820 C   0  0  0  0  0  0  0  0  0  0  0  0
   -5.7800    5.6150  -15.6970 C   0  0  0  0  0  0  0  0  0  0  0  0
   -5.7360    5.4440  -17.0500 N   0  0  0  0  0  0  0  0  0  0  0  0
   -4.4970    5.4860  -17.8250 C   0  0  0  0  0  0  0  0  0  0  0  0
   -3.2350    5.4840  -16.9510 C   0  0  0  0  0  0  0  0  0  0  0  0
   -3.2960    4.5040  -15.8580 C   0  0  0  0  0  0  0  0  0  0  0  0
   -3.3070    3.7480  -14.9810 N   0  0  0  0  0  0  0  0  0  0  0  0
   -7.0230    5.2290  -17.5300 C   0  0  0  0  0  0  0  0  0  0  0  0
   -7.5130    5.0130  -18.8260 C   0  0  0  0  0  0  0  0  0  0  0  0
   -8.8880    4.8090  -19.0060 C   0  0  0  0  0  0  0  0  0  0  0  0
   -9.7600    4.8210  -17.9290 C   0  0  0  0  0  0  0  0  0  0  0  0
   -9.2740    5.0430  -16.6380 C   0  0  0  0  0  0  0  0  0  0  0  0
   -7.8870    5.2530  -16.4350 C   0  0  0  0  0  0  0  0  0  0  0  0
   -8.6070    6.0010  -13.8840 H   0  0  0  0  0  0  0  0  0  0  0  0
   -7.5730    4.6350  -13.4070 H   0  0  0  0  0  0  0  0  0  0  0  0
   -6.9580    6.2960  -13.3030 H   0  0  0  0  0  0  0  0  0  0  0  0
   -4.8810    5.8000  -15.1230 H   0  0  0  0  0  0  0  0  0  0  0  0
   -4.5090    4.6310  -18.5100 H   0  0  0  0  0  0  0  0  0  0  0  0
   -4.5350    6.3880  -18.4510 H   0  0  0  0  0  0  0  0  0  0  0  0
   -3.0710    6.4820  -16.5290 H   0  0  0  0  0  0  0  0  0  0  0  0
   -2.3570    5.2700  -17.5730 H   0  0  0  0  0  0  0  0  0  0  0  0
   -6.8540    4.9960  -19.6880 H   0  0  0  0  0  0  0  0  0  0  0  0
   -9.2760    4.6400  -20.0080 H   0  0  0  0  0  0  0  0  0  0  0  0
  -10.8230    4.6610  -18.0880 H   0  0  0  0  0  0  0  0  0  0  0  0
   -9.9570    5.0540  -15.7950 H   0  0  0  0  0  0  0  0  0  0  0  0
  1  2  1  0
  2  3  2  0
  3  4  1  0
  4  5  1  0
  5  6  1  0
  6  7  1  0
  7  8  3  0
  4  9  1  0
  9 10  2  0
 10 11  1  0
 11 12  2  0
 12 13  1  0
 13 14  2  0
 14  2  1  0
 14  9  1  0
  1 15  1  0
  1 16  1  0
  1 17  1  0
  3 18  1  0
  5 19  1  0
  5 20  1  0
  6 21  1  0
  6 22  1  0
 10 23  1  0
 11 24  1  0
 12 25  1  0
 13 26  1  0
A    1
 C1 
A    2
 C2 
A    3
 C3 
A    4
 N1 
A    5
 C4 
A    6
 C5 
A    7
 C6 
A    8
 N2 
A    9
 C7 
A   10
 C8 
A   11
 C9 
A   12
 C10
A   13
 C11
A   14
 C12
A   15
 H1 
A   16
 H2 
A   17
 H3 
A   18
 H4 
A   19
 H5 
A   20
 H6 
A   21
 H7 
A   22
 H8 
A   23
 H9 
A   24
 H10
A   25
 H11
A   26
 H12
M  END
>  <ref_pdb>  (393) 
x0051_0B

>  <ref_mols>  (393) 
x0951_0B,x0472_0B

>  <original SMILES>  (393) 
[H]c1c([H])c([H])c2c(c1[H])c(C([H])([H])[H])c([H])n2C([H])([H])C([H])([H])C#N

>  <index>  (393) 
3658

>  <∆∆G>  (393) 
-6.332457

>  <∆G_bound>  (393) 
-6.349658

>  <∆G_unbound>  (393) 
-0.017201

>  <comRMSD>  (393) 
0.794734

>  <N_constrained_atoms>  (393) 
17.0

>  <N_unconstrained_atoms>  (393) 
1.0

>  <runtime>  (393) 
31.879197

>  <LE>  (393) 
0.351803

>  <percent_hybrid>  (393) 
40.0

>  <dist>  (393) 
6.0

>  <ecfp4>  (393) 
0.216667

>  <daylight>  (393) 
0.305556

>  <topodist>  (393) 
4.0

>  <mces>  (393) 
14.0

>  <tdn>  (393) 
3.0

>  <tup>  (393) 
0.0

>  <rdn>  (393) 
0.0

>  <rup>  (393) 
0.0

>  <ldn>  (393) 
0.0

>  <lup>  (393) 
1.0

>  <mut>  (393) 
1.0

>  <maj>  (393) 
1.0

>  <min>  (393) 
0.0

>  <hyb>  (393) 
1.0

>  <sub>  (393) 
2.0

>  <query_index>  (393) 
55.0

>  <max_hit_Tanimoto>  (393) 
0.165394

>  <largest_ring>  (393) 
6

>  <N_interactions_kept>  (393) 
1.0

>  <N_interactions_lost>  (393) 
2.5

>  <interaction_uniqueness_metric>  (393) 
0.034019

>  <ad_hoc_penalty>  (393) 
-1.756882

>  <N_rotatable_bonds>  (393) 
3

>  <N_HA>  (393) 
14

>  <cluster>  (393) 
2821

>  <N_interactions>  (393) 
3

>  <Enamine>  (393) 
1

>  <Mcule>  (393) 
0

>  <N_PAINS>  (393) 
0

>  <UFF_Gibbs>  (393) 
27.807777

>  <strain_per_HA>  (393) 
1.98627

>  <intxn_scored>  (393) 
8.5

>  <saltbridge:HIS:51>  (393) 
0

>  <pistack:HIS:51>  (393) 
0

>  <hydroph_interaction:HIS:51>  (393) 
0

>  <hbond:ALA:132>  (393) 
0

>  <hbond:SER:135>  (393) 
0

>  <hydroph_interaction:TYR:150>  (393) 
1

>  <pistack:TYR:161>  (393) 
2

>  <hydroph_interaction:TYR:161>  (393) 
0

>  <hydroph_interaction:ASP:83>  (393) 
0

>  <hbond:TYR:130>  (393) 
0

>  <hydroph_interaction:ALA:132>  (393) 
0

>  <hbond:HIS:51>  (393) 
0

>  <hbond:ASP:129>  (393) 
0

>  <hbond:TYR:150>  (393) 
0

>  <hbond:GLY:151>  (393) 
0

>  <hbond:TYR:161>  (393) 
0

>  <hydroph_interaction:TYR:130>  (393) 
0

>  <hydroph_interaction:PRO:131>  (393) 
0

>  <hydroph_interaction:ASP:129>  (393) 
0

>  <saltbridge:ASP:75>  (393) 
0

>  <saltbridge:ASP:83>  (393) 
0

>  <hbond:ASN:152>  (393) 
0

>  <hydroph_interaction:ASN:152>  (393) 
0

>  <halogenbond:TYR:150>  (393) 
0

>  <hbond:ASP:83>  (393) 
0

>  <hydroph_interaction:VAL:155>  (393) 
0

>  <pication:TYR:161>  (393) 
0

>  <hbond:PRO:131>  (393) 
0

>  <saltbridge:ASP:129>  (393) 
0

>  <hbond:THR:134>  (393) 
0

>  <pication:HIS:51>  (393) 
0

>  <hbond:SER:81>  (393) 
0

>  <hydroph_interaction:THR:134>  (393) 
0

>  <hydroph_interaction:MET:49>  (393) 
0

$$$$
CSSS00026494950
     RDKit          3D

 45 47  0  0  0  0  0  0  0  0999 V2000
  -10.6710    4.6880  -18.1140 C   0  0  0  0  0  0  0  0  0  0  0  0
   -9.2860    5.0040  -17.7930 C   0  0  0  0  0  0  0  0  0  0  0  0
   -8.3520    4.7870  -18.7650 C   0  0  0  0  0  0  0  0  0  0  0  0
   -7.0420    5.1040  -18.5010 C   0  0  0  0  0  0  0  0  0  0  0  0
   -6.6230    5.6240  -17.3250 N   0  0  0  0  0  0  0  0  0  0  0  0
   -7.5680    5.8240  -16.3820 C   0  0  0  0  0  0  0  0  0  0  0  0
   -7.2290    6.3830  -15.1290 N   0  0  0  0  0  0  0  0  0  0  0  0
   -8.4430    7.2410  -14.3210 S   0  0  0  0  0  6  0  0  0  0  0  0
   -7.9660    8.5890  -14.0610 O   0  0  0  0  0  0  0  0  0  0  0  0
   -9.6960    7.0440  -14.9900 O   0  0  0  0  0  0  0  0  0  0  0  0
   -8.5860    6.4620  -12.7770 C   0  0  0  0  0  0  0  0  0  0  0  0
   -8.4840    7.1970  -11.6040 C   0  0  0  0  0  0  0  0  0  0  0  0
   -8.6120    6.4640  -10.3390 C   0  0  0  0  0  0  0  0  0  0  0  0
   -8.8260    5.0960  -10.3800 C   0  0  0  0  0  0  0  0  0  0  0  0
   -8.9230    4.4090  -11.5920 C   0  0  0  0  0  0  0  0  0  0  0  0
   -8.8050    5.0880  -12.7870 C   0  0  0  0  0  0  0  0  0  0  0  0
   -8.9610    4.3660   -9.1030 C   0  0  0  0  0  0  0  0  0  0  0  0
   -9.0380    2.8430   -9.2650 C   0  0  0  0  0  0  0  0  0  0  0  0
   -9.4930    2.2980   -7.9330 C   0  0  0  0  0  0  0  0  0  0  0  0
   -8.4320    2.8020   -6.9870 C   0  0  0  0  0  0  0  0  0  0  0  0
   -8.5710    4.2710   -6.6790 C   0  0  0  0  0  0  0  0  0  0  0  0
   -8.1240    4.9560   -7.9520 C   0  0  0  0  0  0  0  0  0  0  0  0
   -8.8970    5.5210  -16.5740 C   0  0  0  0  0  0  0  0  0  0  0  0
  -11.1690    5.5410  -18.5860 H   0  0  0  0  0  0  0  0  0  0  0  0
  -11.1940    4.4110  -17.2240 H   0  0  0  0  0  0  0  0  0  0  0  0
  -10.6870    3.8520  -18.7840 H   0  0  0  0  0  0  0  0  0  0  0  0
   -8.6300    4.3750  -19.7340 H   0  0  0  0  0  0  0  0  0  0  0  0
   -6.2730    4.9450  -19.2510 H   0  0  0  0  0  0  0  0  0  0  0  0
   -6.6540    5.8420  -14.4920 H   0  0  0  0  0  0  0  0  0  0  0  0
   -8.3160    8.2710  -11.6130 H   0  0  0  0  0  0  0  0  0  0  0  0
   -8.5380    7.0000   -9.3960 H   0  0  0  0  0  0  0  0  0  0  0  0
   -9.0940    3.3340  -11.5970 H   0  0  0  0  0  0  0  0  0  0  0  0
   -8.8820    4.5460  -13.7260 H   0  0  0  0  0  0  0  0  0  0  0  0
   -9.9500    4.5770   -8.7850 H   0  0  0  0  0  0  0  0  0  0  0  0
   -9.7860    2.5920  -10.0300 H   0  0  0  0  0  0  0  0  0  0  0  0
   -8.0850    2.3910   -9.5740 H   0  0  0  0  0  0  0  0  0  0  0  0
  -10.4740    2.6970   -7.6550 H   0  0  0  0  0  0  0  0  0  0  0  0
   -9.5580    1.2210   -7.9410 H   0  0  0  0  0  0  0  0  0  0  0  0
   -8.3020    2.1830   -6.1160 H   0  0  0  0  0  0  0  0  0  0  0  0
   -7.5120    2.7240   -7.5540 H   0  0  0  0  0  0  0  0  0  0  0  0
   -7.9490    4.5500   -5.8220 H   0  0  0  0  0  0  0  0  0  0  0  0
   -9.6250    4.4990   -6.4660 H   0  0  0  0  0  0  0  0  0  0  0  0
   -8.2810    6.0300   -7.8790 H   0  0  0  0  0  0  0  0  0  0  0  0
   -7.0470    4.7980   -8.0970 H   0  0  0  0  0  0  0  0  0  0  0  0
   -9.6330    5.6940  -15.7970 H   0  0  0  0  0  0  0  0  0  0  0  0
  1  2  1  0
  2  3  2  0
  3  4  1  0
  4  5  2  0
  5  6  1  0
  6  7  1  0
  7  8  1  0
  8  9  2  0
  8 10  2  0
  8 11  1  0
 11 12  2  0
 12 13  1  0
 13 14  2  0
 14 15  1  0
 15 16  2  0
 14 17  1  0
 17 18  1  0
 18 19  1  0
 19 20  1  0
 20 21  1  0
 21 22  1  0
  6 23  2  0
 23  2  1  0
 16 11  1  0
 22 17  1  0
  1 24  1  0
  1 25  1  0
  1 26  1  0
  3 27  1  0
  4 28  1  0
  7 29  1  0
 12 30  1  0
 13 31  1  0
 15 32  1  0
 16 33  1  0
 17 34  1  0
 18 35  1  0
 18 36  1  0
 19 37  1  0
 19 38  1  0
 20 39  1  0
 20 40  1  0
 21 41  1  0
 21 42  1  0
 22 43  1  0
 22 44  1  0
 23 45  1  0
A    1
 C1 
A    2
 C2 
A    3
 C3 
A    4
 C4 
A    5
 N1 
A    6
 C5 
A    7
 N2 
A    8
 S1 
A    9
 O1 
A   10
 O2 
A   11
 C6 
A   12
 C7 
A   13
 C8 
A   14
 C9 
A   15
 C10
A   16
 C11
A   17
 C12
A   18
 C13
A   19
 C14
A   20
 C15
A   21
 C16
A   22
 C17
A   23
 C18
A   24
 H1 
A   25
 H2 
A   26
 H3 
A   27
 H4 
A   28
 H5 
A   29
 H6 
A   30
 H7 
A   31
 H8 
A   32
 H9 
A   33
 H10
A   34
 H11
A   35
 H12
A   36
 H13
A   37
 H14
A   38
 H15
A   39
 H16
A   40
 H17
A   41
 H18
A   42
 H19
A   43
 H20
A   44
 H21
A   45
 H22
M  END
>  <ref_pdb>  (394) 
x0051_0B

>  <ref_mols>  (394) 
x0589_0B,x0404_0B

>  <original SMILES>  (394) 
[H]c1nc(N([H])S(=O)(=O)c2c([H])c([H])c(C3([H])C([H])([H])C([H])([H])C([H])([H])C([H])([H])C3([H])[H])c([H])c2[H])c([H])c(C([H])([H])[H])c1[H]

>  <index>  (394) 
1216

>  <∆∆G>  (394) 
-7.137015

>  <∆G_bound>  (394) 
-6.218711

>  <∆G_unbound>  (394) 
0.918304

>  <comRMSD>  (394) 
0.929142

>  <N_constrained_atoms>  (394) 
22.0

>  <N_unconstrained_atoms>  (394) 
2.0

>  <runtime>  (394) 
79.566745

>  <LE>  (394) 
0.297376

>  <percent_hybrid>  (394) 
32.0

>  <dist>  (394) 
7.0

>  <ecfp4>  (394) 
0.194805

>  <daylight>  (394) 
0.174107

>  <topodist>  (394) 
2.0

>  <mces>  (394) 
25.0

>  <tdn>  (394) 
1.0

>  <tup>  (394) 
0.0

>  <rdn>  (394) 
0.0

>  <rup>  (394) 
0.0

>  <ldn>  (394) 
1.0

>  <lup>  (394) 
0.0

>  <mut>  (394) 
4.0

>  <maj>  (394) 
4.0

>  <min>  (394) 
0.0

>  <hyb>  (394) 
1.0

>  <sub>  (394) 
1.0

>  <query_index>  (394) 
29.0

>  <max_hit_Tanimoto>  (394) 
0.188369

>  <largest_ring>  (394) 
6

>  <N_interactions_kept>  (394) 
1.0

>  <N_interactions_lost>  (394) 
2.5

>  <interaction_uniqueness_metric>  (394) 
0.200558

>  <ad_hoc_penalty>  (394) 
-4.018742

>  <N_rotatable_bonds>  (394) 
5

>  <N_HA>  (394) 
23

>  <cluster>  (394) 
5098

>  <N_interactions>  (394) 
6

>  <Enamine>  (394) 
1

>  <Mcule>  (394) 
0

>  <N_PAINS>  (394) 
0

>  <UFF_Gibbs>  (394) 
344.812087

>  <strain_per_HA>  (394) 
14.99183

>  <intxn_scored>  (394) 
8.5

>  <saltbridge:HIS:51>  (394) 
0

>  <pistack:HIS:51>  (394) 
1

>  <hydroph_interaction:HIS:51>  (394) 
1

>  <hbond:ALA:132>  (394) 
0

>  <hbond:SER:135>  (394) 
0

>  <hydroph_interaction:TYR:150>  (394) 
1

>  <pistack:TYR:161>  (394) 
1

>  <hydroph_interaction:TYR:161>  (394) 
0

>  <hydroph_interaction:ASP:83>  (394) 
1

>  <hbond:TYR:130>  (394) 
0

>  <hydroph_interaction:ALA:132>  (394) 
1

>  <hbond:HIS:51>  (394) 
0

>  <hbond:ASP:129>  (394) 
0

>  <hbond:TYR:150>  (394) 
0

>  <hbond:GLY:151>  (394) 
0

>  <hbond:TYR:161>  (394) 
0

>  <hydroph_interaction:TYR:130>  (394) 
0

>  <hydroph_interaction:PRO:131>  (394) 
0

>  <hydroph_interaction:ASP:129>  (394) 
0

>  <saltbridge:ASP:75>  (394) 
0

>  <saltbridge:ASP:83>  (394) 
0

>  <hbond:ASN:152>  (394) 
0

>  <hydroph_interaction:ASN:152>  (394) 
0

>  <halogenbond:TYR:150>  (394) 
0

>  <hbond:ASP:83>  (394) 
0

>  <hydroph_interaction:VAL:155>  (394) 
0

>  <pication:TYR:161>  (394) 
0

>  <hbond:PRO:131>  (394) 
0

>  <saltbridge:ASP:129>  (394) 
0

>  <hbond:THR:134>  (394) 
0

>  <pication:HIS:51>  (394) 
0

>  <hbond:SER:81>  (394) 
0

>  <hydroph_interaction:THR:134>  (394) 
0

>  <hydroph_interaction:MET:49>  (394) 
0

$$$$
PV-004245494497
     RDKit          3D

 53 56  0  0  0  0  0  0  0  0999 V2000
   -3.4170    4.4470  -15.3530 C   0  0  0  0  0  0  0  0  0  0  0  0
   -2.9100    5.2850  -16.5020 C   0  0  0  0  0  0  0  0  0  0  0  0
   -3.9180    5.3690  -17.6120 C   0  0  0  0  0  0  0  0  0  0  0  0
   -3.5560    5.1630  -18.7740 O   0  0  0  0  0  0  0  0  0  0  0  0
   -5.2320    5.6710  -17.2940 N   0  0  0  0  0  0  0  0  0  0  0  0
   -6.1680    5.7110  -18.3260 C   0  0  0  0  0  0  0  0  0  0  0  0
   -7.5250    5.3680  -17.8690 C   0  0  0  0  0  0  0  0  0  0  0  0
   -8.4860    5.0580  -18.8320 C   0  0  0  0  0  0  0  0  0  0  0  0
   -9.7540    4.7300  -18.4400 C   0  0  0  0  0  0  0  0  0  0  0  0
  -10.0690    4.7060  -17.1140 C   0  0  0  0  0  0  0  0  0  0  0  0
   -9.1470    5.0100  -16.1310 C   0  0  0  0  0  0  0  0  0  0  0  0
   -7.8540    5.3460  -16.4850 C   0  0  0  0  0  0  0  0  0  0  0  0
   -6.8460    5.6660  -15.3610 C   0  0  0  0  0  0  0  0  0  0  0  0
   -7.3080    6.5640  -14.3880 C   0  0  0  0  0  0  0  0  0  0  0  0
   -7.3620    5.9400  -13.1350 N   0  0  0  0  0  0  0  0  0  0  0  0
   -8.5810    5.5260  -12.4250 C   0  0  0  0  0  0  0  0  0  0  0  0
   -9.5320    5.0810  -13.0440 O   0  0  0  0  0  0  0  0  0  0  0  0
   -8.6650    5.6730  -10.8680 C   0  0  0  0  0  0  0  0  0  0  0  0
   -8.8730    4.5030   -9.9400 C   0  0  0  0  0  0  0  0  0  0  0  0
   -9.0340    3.0370  -10.2590 C   0  0  0  0  0  0  0  0  0  0  0  0
   -9.4330    2.2440   -8.9970 C   0  0  0  0  0  0  0  0  0  0  0  0
   -9.5350    2.9280   -7.6080 C   0  0  0  0  0  0  0  0  0  0  0  0
   -9.0690    4.2460   -7.6040 C   0  0  0  0  0  0  0  0  0  0  0  0
   -8.8980    5.0030   -8.7140 N   0  0  0  0  0  0  0  0  0  0  0  0
   -8.7380    6.3500   -8.6320 N   0  0  0  0  0  0  0  0  0  0  0  0
   -8.5980    6.7560   -9.9380 C   0  0  0  0  0  0  0  0  0  0  0  0
   -5.6400    6.3520  -16.0560 C   0  0  0  0  0  0  0  0  0  0  0  0
   -4.5020    4.3360  -15.4140 H   0  0  0  0  0  0  0  0  0  0  0  0
   -2.9300    3.4720  -15.3930 H   0  0  0  0  0  0  0  0  0  0  0  0
   -3.1810    4.9050  -14.3900 H   0  0  0  0  0  0  0  0  0  0  0  0
   -2.6960    6.2890  -16.1240 H   0  0  0  0  0  0  0  0  0  0  0  0
   -1.9770    4.8690  -16.8880 H   0  0  0  0  0  0  0  0  0  0  0  0
   -6.1580    6.7050  -18.7970 H   0  0  0  0  0  0  0  0  0  0  0  0
   -5.8340    5.0020  -19.0930 H   0  0  0  0  0  0  0  0  0  0  0  0
   -8.2330    5.0770  -19.8900 H   0  0  0  0  0  0  0  0  0  0  0  0
  -10.4990    4.4930  -19.1700 H   0  0  0  0  0  0  0  0  0  0  0  0
  -11.0560    4.4370  -16.8330 H   0  0  0  0  0  0  0  0  0  0  0  0
   -9.4550    4.9770  -15.0910 H   0  0  0  0  0  0  0  0  0  0  0  0
   -6.3850    4.7830  -14.9300 H   0  0  0  0  0  0  0  0  0  0  0  0
   -8.2550    7.0670  -14.5710 H   0  0  0  0  0  0  0  0  0  0  0  0
   -6.5570    7.3560  -14.2660 H   0  0  0  0  0  0  0  0  0  0  0  0
   -6.4820    5.6650  -12.7320 H   0  0  0  0  0  0  0  0  0  0  0  0
   -8.1030    2.6220  -10.6560 H   0  0  0  0  0  0  0  0  0  0  0  0
   -9.8000    2.9130  -11.0350 H   0  0  0  0  0  0  0  0  0  0  0  0
  -10.4140    1.8450   -9.1920 H   0  0  0  0  0  0  0  0  0  0  0  0
   -8.7620    1.3850   -8.9050 H   0  0  0  0  0  0  0  0  0  0  0  0
   -8.9160    2.3590   -6.9070 H   0  0  0  0  0  0  0  0  0  0  0  0
  -10.5540    2.7760   -7.2550 H   0  0  0  0  0  0  0  0  0  0  0  0
   -8.1200    4.3880   -7.0910 H   0  0  0  0  0  0  0  0  0  0  0  0
   -9.8080    4.7950   -7.0070 H   0  0  0  0  0  0  0  0  0  0  0  0
   -8.4550    7.8090  -10.1550 H   0  0  0  0  0  0  0  0  0  0  0  0
   -4.7650    6.3620  -15.3890 H   0  0  0  0  0  0  0  0  0  0  0  0
   -5.8870    7.3930  -16.2540 H   0  0  0  0  0  0  0  0  0  0  0  0
  1  2  1  0
  2  3  1  0
  3  4  2  0
  3  5  1  0
  5  6  1  0
  6  7  1  0
  7  8  2  0
  8  9  1  0
  9 10  2  0
 10 11  1  0
 11 12  2  0
 12 13  1  0
 13 14  1  0
 14 15  1  0
 15 16  1  0
 16 17  2  0
 16 18  1  0
 18 19  2  0
 19 20  1  0
 20 21  1  0
 21 22  1  0
 22 23  1  0
 23 24  1  0
 24 25  1  0
 25 26  2  0
 13 27  1  0
 27  5  1  0
 12  7  1  0
 26 18  1  0
 24 19  1  0
  1 28  1  0
  1 29  1  0
  1 30  1  0
  2 31  1  0
  2 32  1  0
  6 33  1  0
  6 34  1  0
  8 35  1  0
  9 36  1  0
 10 37  1  0
 11 38  1  0
 13 39  1  0
 14 40  1  0
 14 41  1  0
 15 42  1  0
 20 43  1  0
 20 44  1  0
 21 45  1  0
 21 46  1  0
 22 47  1  0
 22 48  1  0
 23 49  1  0
 23 50  1  0
 26 51  1  0
 27 52  1  0
 27 53  1  0
A    1
 C1 
A    2
 C2 
A    3
 C3 
A    4
 O1 
A    5
 N1 
A    6
 C4 
A    7
 C5 
A    8
 C6 
A    9
 C7 
A   10
 C8 
A   11
 C9 
A   12
 C10
A   13
 C11
A   14
 C12
A   15
 N2 
A   16
 C13
A   17
 O2 
A   18
 C14
A   19
 C15
A   20
 C16
A   21
 C17
A   22
 C18
A   23
 C19
A   24
 N3 
A   25
 N4 
A   26
 C20
A   27
 C21
A   28
 H1 
A   29
 H2 
A   30
 H3 
A   31
 H4 
A   32
 H5 
A   33
 H6 
A   34
 H7 
A   35
 H8 
A   36
 H9 
A   37
 H10
A   38
 H11
A   39
 H12
A   40
 H13
A   41
 H14
A   42
 H15
A   43
 H16
A   44
 H17
A   45
 H18
A   46
 H19
A   47
 H20
A   48
 H21
A   49
 H22
A   50
 H23
A   51
 H24
A   52
 H25
A   53
 H26
M  END
>  <ref_pdb>  (395) 
x0051_0B

>  <ref_mols>  (395) 
x0472_0B,x0969_1B

>  <original SMILES>  (395) 
[H]c1nn2c(c1C(=O)N([H])C([H])([H])C1([H])c3c([H])c([H])c([H])c([H])c3C([H])([H])N(C(=O)C([H])([H])C([H])([H])[H])C1([H])[H])C([H])([H])C([H])([H])C([H])([H])C2([H])[H]

>  <index>  (395) 
256

>  <∆∆G>  (395) 
-7.994727

>  <∆G_bound>  (395) 
-7.026151

>  <∆G_unbound>  (395) 
0.968576

>  <comRMSD>  (395) 
0.463645

>  <N_constrained_atoms>  (395) 
23.0

>  <N_unconstrained_atoms>  (395) 
4.0

>  <runtime>  (395) 
48.678771

>  <LE>  (395) 
0.296101

>  <percent_hybrid>  (395) 
44.0

>  <dist>  (395) 
10.0

>  <ecfp4>  (395) 
0.165049

>  <daylight>  (395) 
0.295455

>  <topodist>  (395) 
2.0

>  <mces>  (395) 
28.0

>  <tdn>  (395) 
0.0

>  <tup>  (395) 
1.0

>  <rdn>  (395) 
0.0

>  <rup>  (395) 
0.0

>  <ldn>  (395) 
0.0

>  <lup>  (395) 
1.0

>  <mut>  (395) 
6.0

>  <maj>  (395) 
6.0

>  <min>  (395) 
0.0

>  <hyb>  (395) 
2.0

>  <sub>  (395) 
0.0

>  <query_index>  (395) 
24.0

>  <max_hit_Tanimoto>  (395) 
0.310463

>  <largest_ring>  (395) 
0

>  <N_interactions_kept>  (395) 
2.0

>  <N_interactions_lost>  (395) 
1.5

>  <interaction_uniqueness_metric>  (395) 
0.136928

>  <ad_hoc_penalty>  (395) 
-24.667514

>  <N_rotatable_bonds>  (395) 
5

>  <N_HA>  (395) 
27

>  <cluster>  (395) 
5984

>  <N_interactions>  (395) 
6

>  <Enamine>  (395) 
1

>  <Mcule>  (395) 
0

>  <N_PAINS>  (395) 
0

>  <UFF_Gibbs>  (395) 
134.073329

>  <strain_per_HA>  (395) 
4.965679

>  <intxn_scored>  (395) 
8.0

>  <saltbridge:HIS:51>  (395) 
0

>  <pistack:HIS:51>  (395) 
1

>  <hydroph_interaction:HIS:51>  (395) 
1

>  <hbond:ALA:132>  (395) 
0

>  <hbond:SER:135>  (395) 
0

>  <hydroph_interaction:TYR:150>  (395) 
1

>  <pistack:TYR:161>  (395) 
1

>  <hydroph_interaction:TYR:161>  (395) 
1

>  <hydroph_interaction:ASP:83>  (395) 
0

>  <hbond:TYR:130>  (395) 
0

>  <hydroph_interaction:ALA:132>  (395) 
0

>  <hbond:HIS:51>  (395) 
0

>  <hbond:ASP:129>  (395) 
0

>  <hbond:TYR:150>  (395) 
0

>  <hbond:GLY:151>  (395) 
0

>  <hbond:TYR:161>  (395) 
0

>  <hydroph_interaction:TYR:130>  (395) 
0

>  <hydroph_interaction:PRO:131>  (395) 
0

>  <hydroph_interaction:ASP:129>  (395) 
0

>  <saltbridge:ASP:75>  (395) 
0

>  <saltbridge:ASP:83>  (395) 
0

>  <hbond:ASN:152>  (395) 
0

>  <hydroph_interaction:ASN:152>  (395) 
0

>  <halogenbond:TYR:150>  (395) 
0

>  <hbond:ASP:83>  (395) 
0

>  <hydroph_interaction:VAL:155>  (395) 
1

>  <pication:TYR:161>  (395) 
0

>  <hbond:PRO:131>  (395) 
0

>  <saltbridge:ASP:129>  (395) 
0

>  <hbond:THR:134>  (395) 
0

>  <pication:HIS:51>  (395) 
0

>  <hbond:SER:81>  (395) 
0

>  <hydroph_interaction:THR:134>  (395) 
0

>  <hydroph_interaction:MET:49>  (395) 
0

$$$$
Z2853842129
     RDKit          3D

 54 56  0  0  0  0  0  0  0  0999 V2000
  -10.0280    4.8730  -18.5320 C   0  0  0  0  0  0  0  0  0  0  0  0
   -8.6910    4.5580  -17.9360 C   0  0  0  0  0  0  0  0  0  0  0  0
   -7.9230    5.5020  -17.2580 C   0  0  0  0  0  0  0  0  0  0  0  0
   -7.4180    5.2180  -16.0390 N   0  0  0  0  0  0  0  0  0  0  0  0
   -8.0630    5.8240  -14.9950 C   0  0  0  0  0  0  0  0  0  0  0  0
   -7.7500    6.9210  -14.5490 O   0  0  0  0  0  0  0  0  0  0  0  0
   -9.0990    5.0740  -14.5020 N   0  0  0  0  0  0  0  0  0  0  0  0
   -9.4600    5.2590  -13.1600 C   0  0  0  0  0  0  0  0  0  0  0  0
   -8.3210    5.3420  -12.1780 C   0  0  0  0  0  0  0  0  0  0  0  0
   -8.5660    5.5180  -10.6660 C   0  0  0  0  0  0  0  0  0  0  0  0
   -8.8420    4.4380   -9.8760 C   0  0  0  0  0  0  0  0  0  0  0  0
   -8.9660    2.9670  -10.3080 C   0  0  0  0  0  0  0  0  0  0  0  0
   -8.6120    2.1990   -9.0270 C   0  0  0  0  0  0  0  0  0  0  0  0
   -9.5620    2.6260   -7.9230 C   0  0  0  0  0  0  0  0  0  0  0  0
   -9.2720    4.0590   -7.4460 C   0  0  0  0  0  0  0  0  0  0  0  0
   -8.9850    4.9000   -8.5960 N   0  0  0  0  0  0  0  0  0  0  0  0
   -8.8230    6.2610   -8.5060 N   0  0  0  0  0  0  0  0  0  0  0  0
   -8.5720    6.6260   -9.7810 C   0  0  0  0  0  0  0  0  0  0  0  0
   -6.7810    6.1440  -18.1190 C   0  0  0  0  0  0  0  0  0  0  0  0
   -5.6110    5.3990  -18.1640 C   0  0  0  0  0  0  0  0  0  0  0  0
   -4.8810    5.3810  -19.3660 C   0  0  0  0  0  0  0  0  0  0  0  0
   -4.8140    6.6690  -19.9850 O   0  0  0  0  0  0  0  0  0  0  0  0
   -6.0970    7.2680  -20.0910 C   0  0  0  0  0  0  0  0  0  0  0  0
   -7.0690    6.4260  -19.5810 C   0  0  0  0  0  0  0  0  0  0  0  0
  -10.5660    3.9520  -18.7290 H   0  0  0  0  0  0  0  0  0  0  0  0
  -10.6190    5.4830  -17.8450 H   0  0  0  0  0  0  0  0  0  0  0  0
   -9.9240    5.4100  -19.4830 H   0  0  0  0  0  0  0  0  0  0  0  0
   -8.0690    4.1220  -18.7230 H   0  0  0  0  0  0  0  0  0  0  0  0
   -8.8700    3.7580  -17.2180 H   0  0  0  0  0  0  0  0  0  0  0  0
   -8.5970    6.3150  -17.0210 H   0  0  0  0  0  0  0  0  0  0  0  0
   -7.0330    4.3000  -15.8810 H   0  0  0  0  0  0  0  0  0  0  0  0
   -9.2450    4.1470  -14.8890 H   0  0  0  0  0  0  0  0  0  0  0  0
  -10.1040    6.1390  -13.1200 H   0  0  0  0  0  0  0  0  0  0  0  0
  -10.0620    4.3850  -12.9130 H   0  0  0  0  0  0  0  0  0  0  0  0
   -7.7260    4.4280  -12.2880 H   0  0  0  0  0  0  0  0  0  0  0  0
   -7.6790    6.1650  -12.5070 H   0  0  0  0  0  0  0  0  0  0  0  0
  -10.0100    2.8480  -10.6300 H   0  0  0  0  0  0  0  0  0  0  0  0
   -8.3690    2.6620  -11.1660 H   0  0  0  0  0  0  0  0  0  0  0  0
   -7.5620    2.2770   -8.7390 H   0  0  0  0  0  0  0  0  0  0  0  0
   -8.6960    1.1610   -9.3040 H   0  0  0  0  0  0  0  0  0  0  0  0
   -9.3340    1.9890   -7.0630 H   0  0  0  0  0  0  0  0  0  0  0  0
  -10.6560    2.5720   -7.9990 H   0  0  0  0  0  0  0  0  0  0  0  0
   -8.3750    4.0370   -6.8160 H   0  0  0  0  0  0  0  0  0  0  0  0
  -10.1130    4.4660   -6.8710 H   0  0  0  0  0  0  0  0  0  0  0  0
   -8.3990    7.6710  -10.0040 H   0  0  0  0  0  0  0  0  0  0  0  0
   -6.5490    7.1090  -17.6590 H   0  0  0  0  0  0  0  0  0  0  0  0
   -5.8970    4.3850  -17.9030 H   0  0  0  0  0  0  0  0  0  0  0  0
   -4.9490    5.7250  -17.3550 H   0  0  0  0  0  0  0  0  0  0  0  0
   -3.8620    5.0240  -19.1870 H   0  0  0  0  0  0  0  0  0  0  0  0
   -5.3590    4.6840  -20.0640 H   0  0  0  0  0  0  0  0  0  0  0  0
   -6.3070    7.5130  -21.1400 H   0  0  0  0  0  0  0  0  0  0  0  0
   -6.0720    8.2060  -19.5300 H   0  0  0  0  0  0  0  0  0  0  0  0
   -7.0840    5.5060  -20.1760 H   0  0  0  0  0  0  0  0  0  0  0  0
   -8.0230    6.8650  -19.7140 H   0  0  0  0  0  0  0  0  0  0  0  0
  1  2  1  0
  2  3  1  0
  3  4  1  0
  4  5  1  0
  5  6  2  0
  5  7  1  0
  7  8  1  0
  8  9  1  0
  9 10  1  0
 10 11  2  0
 11 12  1  0
 12 13  1  0
 13 14  1  0
 14 15  1  0
 15 16  1  0
 16 17  1  0
 17 18  2  0
  3 19  1  0
 19 20  1  0
 20 21  1  0
 21 22  1  0
 22 23  1  0
 23 24  1  0
 18 10  1  0
 16 11  1  0
 24 19  1  0
  1 25  1  0
  1 26  1  0
  1 27  1  0
  2 28  1  0
  2 29  1  0
  3 30  1  0
  4 31  1  0
  7 32  1  0
  8 33  1  0
  8 34  1  0
  9 35  1  0
  9 36  1  0
 12 37  1  0
 12 38  1  0
 13 39  1  0
 13 40  1  0
 14 41  1  0
 14 42  1  0
 15 43  1  0
 15 44  1  0
 18 45  1  0
 19 46  1  0
 20 47  1  0
 20 48  1  0
 21 49  1  0
 21 50  1  0
 23 51  1  0
 23 52  1  0
 24 53  1  0
 24 54  1  0
A    1
 C1 
A    2
 C2 
A    3
 C3 
A    4
 N1 
A    5
 C4 
A    6
 O1 
A    7
 N2 
A    8
 C5 
A    9
 C6 
A   10
 C7 
A   11
 C8 
A   12
 C9 
A   13
 C10
A   14
 C11
A   15
 C12
A   16
 N3 
A   17
 N4 
A   18
 C13
A   19
 C14
A   20
 C15
A   21
 C16
A   22
 O2 
A   23
 C17
A   24
 C18
A   25
 H1 
A   26
 H2 
A   27
 H3 
A   28
 H4 
A   29
 H5 
A   30
 H6 
A   31
 H7 
A   32
 H8 
A   33
 H9 
A   34
 H10
A   35
 H11
A   36
 H12
A   37
 H13
A   38
 H14
A   39
 H15
A   40
 H16
A   41
 H17
A   42
 H18
A   43
 H19
A   44
 H20
A   45
 H21
A   46
 H22
A   47
 H23
A   48
 H24
A   49
 H25
A   50
 H26
A   51
 H27
A   52
 H28
A   53
 H29
A   54
 H30
M  END
>  <ref_pdb>  (396) 
x0051_0B

>  <ref_mols>  (396) 
x0803_0B,x0969_1B

>  <original SMILES>  (396) 
[H]c1nn2c(c1C([H])([H])C([H])([H])N([H])C(=O)N([H])C([H])(C([H])([H])C([H])([H])[H])C1([H])C([H])([H])C([H])([H])OC([H])([H])C1([H])[H])C([H])([H])C([H])([H])C([H])([H])C2([H])[H]

>  <index>  (396) 
2771

>  <∆∆G>  (396) 
-5.806737

>  <∆G_bound>  (396) 
-4.885097

>  <∆G_unbound>  (396) 
0.92164

>  <comRMSD>  (396) 
0.656722

>  <N_constrained_atoms>  (396) 
22.0

>  <N_unconstrained_atoms>  (396) 
2.0

>  <runtime>  (396) 
73.937521

>  <LE>  (396) 
0.241947

>  <percent_hybrid>  (396) 
46.0

>  <dist>  (396) 
9.0

>  <ecfp4>  (396) 
0.282051

>  <daylight>  (396) 
0.382812

>  <topodist>  (396) 
1.0

>  <mces>  (396) 
26.0

>  <tdn>  (396) 
0.0

>  <tup>  (396) 
0.0

>  <rdn>  (396) 
1.0

>  <rup>  (396) 
0.0

>  <ldn>  (396) 
0.0

>  <lup>  (396) 
0.0

>  <mut>  (396) 
6.0

>  <maj>  (396) 
6.0

>  <min>  (396) 
0.0

>  <hyb>  (396) 
2.0

>  <sub>  (396) 
0.0

>  <query_index>  (396) 
366.0

>  <max_hit_Tanimoto>  (396) 
0.337968

>  <largest_ring>  (396) 
6

>  <N_interactions_kept>  (396) 
2.5

>  <N_interactions_lost>  (396) 
3.5

>  <interaction_uniqueness_metric>  (396) 
0.243058

>  <ad_hoc_penalty>  (396) 
-3.16251

>  <N_rotatable_bonds>  (396) 
7

>  <N_HA>  (396) 
24

>  <cluster>  (396) 
3663

>  <N_interactions>  (396) 
8

>  <Enamine>  (396) 
1

>  <Mcule>  (396) 
0

>  <N_PAINS>  (396) 
0

>  <UFF_Gibbs>  (396) 
164.564027

>  <strain_per_HA>  (396) 
6.856834

>  <intxn_scored>  (396) 
8.0

>  <saltbridge:HIS:51>  (396) 
0

>  <pistack:HIS:51>  (396) 
1

>  <hydroph_interaction:HIS:51>  (396) 
0

>  <hbond:ALA:132>  (396) 
0

>  <hbond:SER:135>  (396) 
0

>  <hydroph_interaction:TYR:150>  (396) 
1

>  <pistack:TYR:161>  (396) 
0

>  <hydroph_interaction:TYR:161>  (396) 
2

>  <hydroph_interaction:ASP:83>  (396) 
1

>  <hbond:TYR:130>  (396) 
0

>  <hydroph_interaction:ALA:132>  (396) 
1

>  <hbond:HIS:51>  (396) 
0

>  <hbond:ASP:129>  (396) 
0

>  <hbond:TYR:150>  (396) 
0

>  <hbond:GLY:151>  (396) 
1

>  <hbond:TYR:161>  (396) 
1

>  <hydroph_interaction:TYR:130>  (396) 
0

>  <hydroph_interaction:PRO:131>  (396) 
0

>  <hydroph_interaction:ASP:129>  (396) 
0

>  <saltbridge:ASP:75>  (396) 
0

>  <saltbridge:ASP:83>  (396) 
0

>  <hbond:ASN:152>  (396) 
0

>  <hydroph_interaction:ASN:152>  (396) 
0

>  <halogenbond:TYR:150>  (396) 
0

>  <hbond:ASP:83>  (396) 
0

>  <hydroph_interaction:VAL:155>  (396) 
0

>  <pication:TYR:161>  (396) 
0

>  <hbond:PRO:131>  (396) 
0

>  <saltbridge:ASP:129>  (396) 
0

>  <hbond:THR:134>  (396) 
0

>  <pication:HIS:51>  (396) 
0

>  <hbond:SER:81>  (396) 
0

>  <hydroph_interaction:THR:134>  (396) 
0

>  <hydroph_interaction:MET:49>  (396) 
0

$$$$
Z4595157463
     RDKit          3D

 45 47  0  0  0  0  0  0  0  0999 V2000
   -6.0900    5.4010  -19.6450 C   0  0  0  0  0  0  0  0  0  0  0  0
   -7.1610    5.2960  -18.6120 C   0  0  0  0  0  0  0  0  0  0  0  0
   -8.4520    4.8870  -18.9580 C   0  0  0  0  0  0  0  0  0  0  0  0
   -9.4370    4.8010  -17.9870 C   0  0  0  0  0  0  0  0  0  0  0  0
  -10.6670    4.4180  -18.3660 F   0  0  0  0  0  0  0  0  0  0  0  0
   -9.1520    5.1160  -16.6510 C   0  0  0  0  0  0  0  0  0  0  0  0
   -7.8450    5.5310  -16.3010 C   0  0  0  0  0  0  0  0  0  0  0  0
   -7.4420    5.9060  -14.9010 C   0  0  0  0  0  0  0  0  0  0  0  0
   -7.8900    7.2490  -14.5630 N   0  0  0  0  0  0  0  0  0  0  0  0
   -9.0410    7.3450  -13.8550 C   0  0  0  0  0  0  0  0  0  0  0  0
  -10.0120    7.9640  -14.2180 O   0  0  0  0  0  0  0  0  0  0  0  0
   -8.9820    6.5880  -12.5920 C   0  0  0  0  0  0  0  0  0  0  0  0
   -8.7960    7.1990  -11.3550 C   0  0  0  0  0  0  0  0  0  0  0  0
   -8.7320    6.4130  -10.2020 C   0  0  0  0  0  0  0  0  0  0  0  0
   -8.8490    5.0170  -10.2510 C   0  0  0  0  0  0  0  0  0  0  0  0
   -8.7830    4.2470   -9.1250 N   0  0  0  0  0  0  0  0  0  0  0  0
   -9.0260    2.7980   -9.2030 C   0  0  0  0  0  0  0  0  0  0  0  0
   -9.6970    2.3390   -7.9130 C   0  0  0  0  0  0  0  0  0  0  0  0
   -8.9530    2.7070   -6.7560 O   0  0  0  0  0  0  0  0  0  0  0  0
   -8.8070    4.1210   -6.6590 C   0  0  0  0  0  0  0  0  0  0  0  0
   -8.1440    4.7440   -7.8930 C   0  0  0  0  0  0  0  0  0  0  0  0
   -9.0400    4.4340  -11.5090 C   0  0  0  0  0  0  0  0  0  0  0  0
   -9.1070    5.2020  -12.6670 C   0  0  0  0  0  0  0  0  0  0  0  0
   -6.8740    5.6110  -17.2890 C   0  0  0  0  0  0  0  0  0  0  0  0
   -6.2460    4.6640  -20.4410 H   0  0  0  0  0  0  0  0  0  0  0  0
   -5.1140    5.2240  -19.1860 H   0  0  0  0  0  0  0  0  0  0  0  0
   -6.0920    6.3900  -20.1160 H   0  0  0  0  0  0  0  0  0  0  0  0
   -8.7050    4.6360  -19.9840 H   0  0  0  0  0  0  0  0  0  0  0  0
   -9.9360    5.0430  -15.9020 H   0  0  0  0  0  0  0  0  0  0  0  0
   -6.3510    5.9020  -14.8160 H   0  0  0  0  0  0  0  0  0  0  0  0
   -7.8170    5.1670  -14.1930 H   0  0  0  0  0  0  0  0  0  0  0  0
   -7.6530    7.9850  -15.2110 H   0  0  0  0  0  0  0  0  0  0  0  0
   -8.6960    8.2760  -11.2630 H   0  0  0  0  0  0  0  0  0  0  0  0
   -8.5870    6.9230   -9.2540 H   0  0  0  0  0  0  0  0  0  0  0  0
   -9.6800    2.5860  -10.0580 H   0  0  0  0  0  0  0  0  0  0  0  0
   -8.0920    2.2310   -9.3170 H   0  0  0  0  0  0  0  0  0  0  0  0
   -9.8260    1.2600   -7.9090 H   0  0  0  0  0  0  0  0  0  0  0  0
  -10.6950    2.7810   -7.8230 H   0  0  0  0  0  0  0  0  0  0  0  0
   -8.2210    4.3310   -5.7580 H   0  0  0  0  0  0  0  0  0  0  0  0
   -9.8060    4.5460   -6.5100 H   0  0  0  0  0  0  0  0  0  0  0  0
   -8.2420    5.8350   -7.8560 H   0  0  0  0  0  0  0  0  0  0  0  0
   -7.0790    4.4820   -7.8680 H   0  0  0  0  0  0  0  0  0  0  0  0
   -9.1410    3.3570  -11.6190 H   0  0  0  0  0  0  0  0  0  0  0  0
   -9.2560    4.7100  -13.6270 H   0  0  0  0  0  0  0  0  0  0  0  0
   -5.8660    5.9290  -17.0260 H   0  0  0  0  0  0  0  0  0  0  0  0
  1  2  1  0
  2  3  2  0
  3  4  1  0
  4  5  1  0
  4  6  2  0
  6  7  1  0
  7  8  1  0
  8  9  1  0
  9 10  1  0
 10 11  2  0
 10 12  1  0
 12 13  2  0
 13 14  1  0
 14 15  2  0
 15 16  1  0
 16 17  1  0
 17 18  1  0
 18 19  1  0
 19 20  1  0
 20 21  1  0
 15 22  1  0
 22 23  2  0
  7 24  2  0
 24  2  1  0
 23 12  1  0
 21 16  1  0
  1 25  1  0
  1 26  1  0
  1 27  1  0
  3 28  1  0
  6 29  1  0
  8 30  1  0
  8 31  1  0
  9 32  1  0
 13 33  1  0
 14 34  1  0
 17 35  1  0
 17 36  1  0
 18 37  1  0
 18 38  1  0
 20 39  1  0
 20 40  1  0
 21 41  1  0
 21 42  1  0
 22 43  1  0
 23 44  1  0
 24 45  1  0
A    1
 C1 
A    2
 C2 
A    3
 C3 
A    4
 C4 
A    5
 F1 
A    6
 C5 
A    7
 C6 
A    8
 C7 
A    9
 N1 
A   10
 C8 
A   11
 O1 
A   12
 C9 
A   13
 C10
A   14
 C11
A   15
 C12
A   16
 N2 
A   17
 C13
A   18
 C14
A   19
 O2 
A   20
 C15
A   21
 C16
A   22
 C17
A   23
 C18
A   24
 C19
A   25
 H1 
A   26
 H2 
A   27
 H3 
A   28
 H4 
A   29
 H5 
A   30
 H6 
A   31
 H7 
A   32
 H8 
A   33
 H9 
A   34
 H10
A   35
 H11
A   36
 H12
A   37
 H13
A   38
 H14
A   39
 H15
A   40
 H16
A   41
 H17
A   42
 H18
A   43
 H19
A   44
 H20
A   45
 H21
M  END
>  <ref_pdb>  (397) 
x0051_0B

>  <ref_mols>  (397) 
x0589_0B,x0404_0B

>  <original SMILES>  (397) 
[H]c1c([H])c(N2C([H])([H])C([H])([H])OC([H])([H])C2([H])[H])c([H])c([H])c1C(=O)N([H])C([H])([H])c1c([H])c(F)c([H])c(C([H])([H])[H])c1[H]

>  <index>  (397) 
1682

>  <∆∆G>  (397) 
-7.77372

>  <∆G_bound>  (397) 
-7.337168

>  <∆G_unbound>  (397) 
0.436552

>  <comRMSD>  (397) 
0.649625

>  <N_constrained_atoms>  (397) 
23.0

>  <N_unconstrained_atoms>  (397) 
1.0

>  <runtime>  (397) 
91.720074

>  <LE>  (397) 
0.323905

>  <percent_hybrid>  (397) 
35.0

>  <dist>  (397) 
6.0

>  <ecfp4>  (397) 
0.263158

>  <daylight>  (397) 
0.192893

>  <topodist>  (397) 
1.0

>  <mces>  (397) 
26.0

>  <tdn>  (397) 
1.0

>  <tup>  (397) 
0.0

>  <rdn>  (397) 
0.0

>  <rup>  (397) 
0.0

>  <ldn>  (397) 
0.0

>  <lup>  (397) 
0.0

>  <mut>  (397) 
4.0

>  <maj>  (397) 
3.0

>  <min>  (397) 
1.0

>  <hyb>  (397) 
1.0

>  <sub>  (397) 
0.0

>  <query_index>  (397) 
29.0

>  <max_hit_Tanimoto>  (397) 
0.234742

>  <largest_ring>  (397) 
6

>  <N_interactions_kept>  (397) 
1.0

>  <N_interactions_lost>  (397) 
2.5

>  <interaction_uniqueness_metric>  (397) 
0.110211

>  <ad_hoc_penalty>  (397) 
-9.429226

>  <N_rotatable_bonds>  (397) 
5

>  <N_HA>  (397) 
24

>  <cluster>  (397) 
472

>  <N_interactions>  (397) 
5

>  <Enamine>  (397) 
1

>  <Mcule>  (397) 
0

>  <N_PAINS>  (397) 
0

>  <UFF_Gibbs>  (397) 
130.34132

>  <strain_per_HA>  (397) 
5.430888

>  <intxn_scored>  (397) 
8.0

>  <saltbridge:HIS:51>  (397) 
0

>  <pistack:HIS:51>  (397) 
1

>  <hydroph_interaction:HIS:51>  (397) 
1

>  <hbond:ALA:132>  (397) 
0

>  <hbond:SER:135>  (397) 
0

>  <hydroph_interaction:TYR:150>  (397) 
0

>  <pistack:TYR:161>  (397) 
1

>  <hydroph_interaction:TYR:161>  (397) 
1

>  <hydroph_interaction:ASP:83>  (397) 
0

>  <hbond:TYR:130>  (397) 
0

>  <hydroph_interaction:ALA:132>  (397) 
1

>  <hbond:HIS:51>  (397) 
0

>  <hbond:ASP:129>  (397) 
0

>  <hbond:TYR:150>  (397) 
0

>  <hbond:GLY:151>  (397) 
0

>  <hbond:TYR:161>  (397) 
0

>  <hydroph_interaction:TYR:130>  (397) 
0

>  <hydroph_interaction:PRO:131>  (397) 
0

>  <hydroph_interaction:ASP:129>  (397) 
0

>  <saltbridge:ASP:75>  (397) 
0

>  <saltbridge:ASP:83>  (397) 
0

>  <hbond:ASN:152>  (397) 
0

>  <hydroph_interaction:ASN:152>  (397) 
0

>  <halogenbond:TYR:150>  (397) 
0

>  <hbond:ASP:83>  (397) 
0

>  <hydroph_interaction:VAL:155>  (397) 
0

>  <pication:TYR:161>  (397) 
0

>  <hbond:PRO:131>  (397) 
0

>  <saltbridge:ASP:129>  (397) 
0

>  <hbond:THR:134>  (397) 
0

>  <pication:HIS:51>  (397) 
0

>  <hbond:SER:81>  (397) 
0

>  <hydroph_interaction:THR:134>  (397) 
0

>  <hydroph_interaction:MET:49>  (397) 
0

$$$$
CSSB00138557204
     RDKit          3D

 35 37  0  0  0  0  0  0  0  0999 V2000
   -2.9830    4.9770  -17.7820 C   0  0  0  0  0  0  0  0  0  0  0  0
   -3.8990    6.0390  -18.0240 O   0  0  0  0  0  0  0  0  0  0  0  0
   -5.2350    5.7610  -17.8900 C   0  0  0  0  0  0  0  0  0  0  0  0
   -6.1960    5.7150  -18.8710 C   0  0  0  0  0  0  0  0  0  0  0  0
   -5.9190    5.9950  -20.1750 C   0  0  0  0  0  0  0  0  0  0  0  0
   -6.0930    7.3460  -20.4210 C   0  0  0  0  0  0  0  0  0  0  0  0
   -4.8650    7.9010  -21.1270 C   0  0  0  0  0  0  0  0  0  0  0  0
   -3.9350    6.8800  -21.2990 C   0  0  0  0  0  0  0  0  0  0  0  0
   -4.4990    5.7400  -20.5480 N   0  0  0  0  0  0  0  0  0  0  0  0
   -7.4430    5.3710  -18.2680 C   0  0  0  0  0  0  0  0  0  0  0  0
   -8.7370    5.1600  -18.7690 C   0  0  0  0  0  0  0  0  0  0  0  0
   -9.9130    4.8370  -17.8480 C   0  0  0  0  0  0  0  0  0  0  0  0
   -9.6120    4.7520  -16.3780 C   0  0  0  0  0  0  0  0  0  0  0  0
   -8.2550    4.9480  -15.8650 C   0  0  0  0  0  0  0  0  0  0  0  0
   -7.1770    5.2610  -16.8830 C   0  0  0  0  0  0  0  0  0  0  0  0
   -5.8290    5.4920  -16.7100 N   0  0  0  0  0  0  0  0  0  0  0  0
   -5.1290    5.4660  -15.4700 C   0  0  0  0  0  0  0  0  0  0  0  0
   -1.9960    5.3640  -17.5120 H   0  0  0  0  0  0  0  0  0  0  0  0
   -2.8680    4.4080  -18.7090 H   0  0  0  0  0  0  0  0  0  0  0  0
   -3.3590    4.2930  -17.0160 H   0  0  0  0  0  0  0  0  0  0  0  0
   -6.5700    5.3950  -20.8210 H   0  0  0  0  0  0  0  0  0  0  0  0
   -6.1380    7.8490  -19.4500 H   0  0  0  0  0  0  0  0  0  0  0  0
   -7.0300    7.6260  -20.8750 H   0  0  0  0  0  0  0  0  0  0  0  0
   -4.4700    8.8180  -20.6960 H   0  0  0  0  0  0  0  0  0  0  0  0
   -5.1970    8.1980  -22.1300 H   0  0  0  0  0  0  0  0  0  0  0  0
   -2.9480    7.1570  -20.9190 H   0  0  0  0  0  0  0  0  0  0  0  0
   -3.8360    6.6220  -22.3610 H   0  0  0  0  0  0  0  0  0  0  0  0
   -4.4450    4.9020  -21.1280 H   0  0  0  0  0  0  0  0  0  0  0  0
   -8.8290    5.2590  -19.8600 H   0  0  0  0  0  0  0  0  0  0  0  0
  -10.9310    4.6790  -18.2160 H   0  0  0  0  0  0  0  0  0  0  0  0
  -10.4760    4.5290  -15.7470 H   0  0  0  0  0  0  0  0  0  0  0  0
   -8.0450    4.8710  -14.8020 H   0  0  0  0  0  0  0  0  0  0  0  0
   -4.3250    4.7320  -15.5470 H   0  0  0  0  0  0  0  0  0  0  0  0
   -4.7260    6.4610  -15.2670 H   0  0  0  0  0  0  0  0  0  0  0  0
   -5.8130    5.1920  -14.6640 H   0  0  0  0  0  0  0  0  0  0  0  0
  1  2  1  0
  2  3  1  0
  3  4  2  0
  4  5  1  0
  5  6  1  0
  6  7  1  0
  7  8  1  0
  8  9  1  0
  4 10  1  0
 10 11  2  0
 11 12  1  0
 12 13  2  0
 13 14  1  0
 14 15  2  0
 15 16  1  0
 16 17  1  0
 16  3  1  0
  9  5  1  0
 15 10  1  0
  1 18  1  0
  1 19  1  0
  1 20  1  0
  5 21  1  0
  6 22  1  0
  6 23  1  0
  7 24  1  0
  7 25  1  0
  8 26  1  0
  8 27  1  0
  9 28  1  0
 11 29  1  0
 12 30  1  0
 13 31  1  0
 14 32  1  0
 17 33  1  0
 17 34  1  0
 17 35  1  0
A    1
 C1 
A    2
 O1 
A    3
 C2 
A    4
 C3 
A    5
 C4 
A    6
 C5 
A    7
 C6 
A    8
 C7 
A    9
 N1 
A   10
 C8 
A   11
 C9 
A   12
 C10
A   13
 C11
A   14
 C12
A   15
 C13
A   16
 N2 
A   17
 C14
A   18
 H1 
A   19
 H2 
A   20
 H3 
A   21
 H4 
A   22
 H5 
A   23
 H6 
A   24
 H7 
A   25
 H8 
A   26
 H9 
A   27
 H10
A   28
 H11
A   29
 H12
A   30
 H13
A   31
 H14
A   32
 H15
A   33
 H16
A   34
 H17
A   35
 H18
M  END
>  <ref_pdb>  (398) 
x0051_0B

>  <ref_mols>  (398) 
x0229_0B,x0051_0B

>  <original SMILES>  (398) 
[H]c1c([H])c([H])c2c(c1[H])c(C1([H])N([H])C([H])([H])C([H])([H])C1([H])[H])c(OC([H])([H])[H])n2C([H])([H])[H]

>  <index>  (398) 
2101

>  <∆∆G>  (398) 
-6.623714

>  <∆G_bound>  (398) 
-6.17069

>  <∆G_unbound>  (398) 
0.453024

>  <comRMSD>  (398) 
0.997555

>  <N_constrained_atoms>  (398) 
17.0

>  <N_unconstrained_atoms>  (398) 
1.0

>  <runtime>  (398) 
26.817781

>  <LE>  (398) 
0.367984

>  <percent_hybrid>  (398) 
29.0

>  <dist>  (398) 
6.0

>  <ecfp4>  (398) 
0.138889

>  <daylight>  (398) 
0.179211

>  <topodist>  (398) 
4.0

>  <mces>  (398) 
17.0

>  <tdn>  (398) 
1.0

>  <tup>  (398) 
1.0

>  <rdn>  (398) 
1.0

>  <rup>  (398) 
1.0

>  <ldn>  (398) 
0.0

>  <lup>  (398) 
0.0

>  <mut>  (398) 
1.0

>  <maj>  (398) 
1.0

>  <min>  (398) 
0.0

>  <hyb>  (398) 
1.0

>  <sub>  (398) 
3.0

>  <query_index>  (398) 
218.0

>  <max_hit_Tanimoto>  (398) 
0.316748

>  <largest_ring>  (398) 
6

>  <N_interactions_kept>  (398) 
3.0

>  <N_interactions_lost>  (398) 
1.0

>  <interaction_uniqueness_metric>  (398) 
0.018496

>  <ad_hoc_penalty>  (398) 
-6.286372

>  <N_rotatable_bonds>  (398) 
4

>  <N_HA>  (398) 
17

>  <cluster>  (398) 
4290

>  <N_interactions>  (398) 
2

>  <Enamine>  (398) 
1

>  <Mcule>  (398) 
0

>  <N_PAINS>  (398) 
0

>  <UFF_Gibbs>  (398) 
87.914566

>  <strain_per_HA>  (398) 
5.171445

>  <intxn_scored>  (398) 
8.0

>  <saltbridge:HIS:51>  (398) 
0

>  <pistack:HIS:51>  (398) 
0

>  <hydroph_interaction:HIS:51>  (398) 
0

>  <hbond:ALA:132>  (398) 
0

>  <hbond:SER:135>  (398) 
0

>  <hydroph_interaction:TYR:150>  (398) 
0

>  <pistack:TYR:161>  (398) 
2

>  <hydroph_interaction:TYR:161>  (398) 
0

>  <hydroph_interaction:ASP:83>  (398) 
0

>  <hbond:TYR:130>  (398) 
0

>  <hydroph_interaction:ALA:132>  (398) 
0

>  <hbond:HIS:51>  (398) 
0

>  <hbond:ASP:129>  (398) 
0

>  <hbond:TYR:150>  (398) 
0

>  <hbond:GLY:151>  (398) 
0

>  <hbond:TYR:161>  (398) 
0

>  <hydroph_interaction:TYR:130>  (398) 
0

>  <hydroph_interaction:PRO:131>  (398) 
0

>  <hydroph_interaction:ASP:129>  (398) 
0

>  <saltbridge:ASP:75>  (398) 
0

>  <saltbridge:ASP:83>  (398) 
0

>  <hbond:ASN:152>  (398) 
0

>  <hydroph_interaction:ASN:152>  (398) 
0

>  <halogenbond:TYR:150>  (398) 
0

>  <hbond:ASP:83>  (398) 
0

>  <hydroph_interaction:VAL:155>  (398) 
0

>  <pication:TYR:161>  (398) 
0

>  <hbond:PRO:131>  (398) 
0

>  <saltbridge:ASP:129>  (398) 
0

>  <hbond:THR:134>  (398) 
0

>  <pication:HIS:51>  (398) 
0

>  <hbond:SER:81>  (398) 
0

>  <hydroph_interaction:THR:134>  (398) 
0

>  <hydroph_interaction:MET:49>  (398) 
0

$$$$
Z2230666517
     RDKit          3D

 36 37  0  0  0  0  0  0  0  0999 V2000
   -2.0770    4.5900  -18.9470 C   0  0  0  0  0  0  0  0  0  0  0  0
   -3.0840    5.5210  -19.5970 C   0  0  0  0  0  0  0  0  0  0  0  0
   -4.4030    5.3070  -19.0700 O   0  0  0  0  0  0  0  0  0  0  0  0
   -5.3910    5.2420  -20.0030 C   0  0  0  0  0  0  0  0  0  0  0  0
   -5.2700    4.7180  -21.0950 O   0  0  0  0  0  0  0  0  0  0  0  0
   -6.4890    5.8820  -19.5260 N   0  0  0  0  0  0  0  0  0  0  0  0
   -7.5680    5.4760  -18.6970 C   0  0  0  0  0  0  0  0  0  0  0  0
   -8.8700    4.8500  -19.1680 C   0  0  0  0  0  0  0  0  0  0  0  0
   -9.8910    4.5040  -18.3180 C   0  0  0  0  0  0  0  0  0  0  0  0
   -9.6680    4.7780  -16.8100 C   0  0  0  0  0  0  0  0  0  0  0  0
   -8.4570    5.3530  -16.4110 C   0  0  0  0  0  0  0  0  0  0  0  0
   -8.2130    5.6470  -14.9690 C   0  0  0  0  0  0  0  0  0  0  0  0
   -7.5300    6.6290  -14.7260 O   0  0  0  0  0  0  0  0  0  0  0  0
   -8.7860    4.8030  -14.0520 N   0  0  0  0  0  0  0  0  0  0  0  0
   -8.7780    5.0420  -12.6990 C   0  0  0  0  0  0  0  0  0  0  0  0
   -8.5830    4.1980  -11.6840 N   0  0  0  0  0  0  0  0  0  0  0  0
   -8.6830    5.0160  -10.6230 N   0  0  0  0  0  0  0  0  0  0  0  0
   -8.5350    4.5100   -9.2870 C   0  0  0  0  0  0  0  0  0  0  0  0
   -8.9280    6.2890  -11.0010 C   0  0  0  0  0  0  0  0  0  0  0  0
   -8.9940    6.3400  -12.3100 N   0  0  0  0  0  0  0  0  0  0  0  0
   -7.4350    5.6890  -17.3300 C   0  0  0  0  0  0  0  0  0  0  0  0
   -2.5140    4.1240  -18.0590 H   0  0  0  0  0  0  0  0  0  0  0  0
   -1.1650    5.1170  -18.6560 H   0  0  0  0  0  0  0  0  0  0  0  0
   -1.7890    3.7980  -19.6480 H   0  0  0  0  0  0  0  0  0  0  0  0
   -2.8050    6.5540  -19.3610 H   0  0  0  0  0  0  0  0  0  0  0  0
   -3.0580    5.3970  -20.6870 H   0  0  0  0  0  0  0  0  0  0  0  0
   -6.5960    6.7710  -19.9920 H   0  0  0  0  0  0  0  0  0  0  0  0
   -9.0390    4.6560  -20.2250 H   0  0  0  0  0  0  0  0  0  0  0  0
  -10.8100    4.0670  -18.6680 H   0  0  0  0  0  0  0  0  0  0  0  0
  -10.4300    4.5350  -16.0790 H   0  0  0  0  0  0  0  0  0  0  0  0
   -9.2350    3.9340  -14.3270 H   0  0  0  0  0  0  0  0  0  0  0  0
   -7.4950    4.6220   -8.9700 H   0  0  0  0  0  0  0  0  0  0  0  0
   -8.8190    3.4530   -9.2830 H   0  0  0  0  0  0  0  0  0  0  0  0
   -9.1870    5.0800   -8.6240 H   0  0  0  0  0  0  0  0  0  0  0  0
   -9.0480    7.1150  -10.3170 H   0  0  0  0  0  0  0  0  0  0  0  0
   -6.5210    6.1360  -16.9560 H   0  0  0  0  0  0  0  0  0  0  0  0
  1  2  1  0
  2  3  1  0
  3  4  1  0
  4  5  2  0
  4  6  1  0
  6  7  1  0
  7  8  2  0
  8  9  1  0
  9 10  2  0
 10 11  1  0
 11 12  1  0
 12 13  2  0
 12 14  1  0
 14 15  1  0
 15 16  2  0
 16 17  1  0
 17 18  1  0
 17 19  1  0
 19 20  2  0
 11 21  2  0
 21  7  1  0
 20 15  1  0
  1 22  1  0
  1 23  1  0
  1 24  1  0
  2 25  1  0
  2 26  1  0
  6 27  1  0
  8 28  1  0
  9 29  1  0
 10 30  1  0
 14 31  1  0
 18 32  1  0
 18 33  1  0
 18 34  1  0
 19 35  1  0
 21 36  1  0
A    1
 C1 
A    2
 C2 
A    3
 O1 
A    4
 C3 
A    5
 O2 
A    6
 N1 
A    7
 C4 
A    8
 C5 
A    9
 C6 
A   10
 C7 
A   11
 C8 
A   12
 C9 
A   13
 O3 
A   14
 N2 
A   15
 C10
A   16
 N3 
A   17
 N4 
A   18
 C11
A   19
 C12
A   20
 N5 
A   21
 C13
A   22
 H1 
A   23
 H2 
A   24
 H3 
A   25
 H4 
A   26
 H5 
A   27
 H6 
A   28
 H7 
A   29
 H8 
A   30
 H9 
A   31
 H10
A   32
 H11
A   33
 H12
A   34
 H13
A   35
 H14
A   36
 H15
M  END
>  <ref_pdb>  (399) 
x0051_0B

>  <ref_mols>  (399) 
x0443_0B,x1098_0B

>  <original SMILES>  (399) 
[H]c1c([H])c(C(=O)N([H])c2nc([H])n(C([H])([H])[H])n2)c([H])c(N([H])C(=O)OC([H])([H])C([H])([H])[H])c1[H]

>  <index>  (399) 
2458

>  <∆∆G>  (399) 
-7.64086

>  <∆G_bound>  (399) 
-6.919364

>  <∆G_unbound>  (399) 
0.721495

>  <comRMSD>  (399) 
0.787974

>  <N_constrained_atoms>  (399) 
19.0

>  <N_unconstrained_atoms>  (399) 
4.0

>  <runtime>  (399) 
57.786995

>  <LE>  (399) 
0.332211

>  <percent_hybrid>  (399) 
19.0

>  <dist>  (399) 
9.0

>  <ecfp4>  (399) 
0.247059

>  <daylight>  (399) 
0.290196

>  <topodist>  (399) 
2.0

>  <mces>  (399) 
22.0

>  <tdn>  (399) 
1.0

>  <tup>  (399) 
0.0

>  <rdn>  (399) 
1.0

>  <rup>  (399) 
0.0

>  <ldn>  (399) 
0.0

>  <lup>  (399) 
0.0

>  <mut>  (399) 
6.0

>  <maj>  (399) 
6.0

>  <min>  (399) 
0.0

>  <hyb>  (399) 
1.0

>  <sub>  (399) 
1.0

>  <query_index>  (399) 
80.0

>  <max_hit_Tanimoto>  (399) 
0.312354

>  <largest_ring>  (399) 
6

>  <N_interactions_kept>  (399) 
1.0

>  <N_interactions_lost>  (399) 
5.0

>  <interaction_uniqueness_metric>  (399) 
0.234069

>  <ad_hoc_penalty>  (399) 
-7.208949

>  <N_rotatable_bonds>  (399) 
6

>  <N_HA>  (399) 
21

>  <cluster>  (399) 
3957

>  <N_interactions>  (399) 
10

>  <Enamine>  (399) 
1

>  <Mcule>  (399) 
0

>  <N_PAINS>  (399) 
0

>  <UFF_Gibbs>  (399) 
94.654669

>  <strain_per_HA>  (399) 
4.507365

>  <intxn_scored>  (399) 
8.0

>  <saltbridge:HIS:51>  (399) 
0

>  <pistack:HIS:51>  (399) 
1

>  <hydroph_interaction:HIS:51>  (399) 
0

>  <hbond:ALA:132>  (399) 
0

>  <hbond:SER:135>  (399) 
0

>  <hydroph_interaction:TYR:150>  (399) 
1

>  <pistack:TYR:161>  (399) 
0

>  <hydroph_interaction:TYR:161>  (399) 
3

>  <hydroph_interaction:ASP:83>  (399) 
0

>  <hbond:TYR:130>  (399) 
0

>  <hydroph_interaction:ALA:132>  (399) 
1

>  <hbond:HIS:51>  (399) 
0

>  <hbond:ASP:129>  (399) 
1

>  <hbond:TYR:150>  (399) 
0

>  <hbond:GLY:151>  (399) 
1

>  <hbond:TYR:161>  (399) 
1

>  <hydroph_interaction:TYR:130>  (399) 
0

>  <hydroph_interaction:PRO:131>  (399) 
0

>  <hydroph_interaction:ASP:129>  (399) 
0

>  <saltbridge:ASP:75>  (399) 
0

>  <saltbridge:ASP:83>  (399) 
0

>  <hbond:ASN:152>  (399) 
0

>  <hydroph_interaction:ASN:152>  (399) 
0

>  <halogenbond:TYR:150>  (399) 
0

>  <hbond:ASP:83>  (399) 
0

>  <hydroph_interaction:VAL:155>  (399) 
1

>  <pication:TYR:161>  (399) 
0

>  <hbond:PRO:131>  (399) 
0

>  <saltbridge:ASP:129>  (399) 
0

>  <hbond:THR:134>  (399) 
0

>  <pication:HIS:51>  (399) 
0

>  <hbond:SER:81>  (399) 
0

>  <hydroph_interaction:THR:134>  (399) 
0

>  <hydroph_interaction:MET:49>  (399) 
0

$$$$
PV-004130533012
     RDKit          3D

 49 52  0  0  0  0  0  0  0  0999 V2000
   -3.4970    4.3260  -15.5440 C   0  0  0  0  0  0  0  0  0  0  0  0
   -2.9520    5.1530  -16.6950 C   0  0  0  0  0  0  0  0  0  0  0  0
   -3.9280    5.5100  -17.6190 C   0  0  0  0  0  0  0  0  0  0  0  0
   -3.6240    5.7800  -18.7870 O   0  0  0  0  0  0  0  0  0  0  0  0
   -5.2460    5.5650  -17.1710 N   0  0  0  0  0  0  0  0  0  0  0  0
   -6.1960    5.8620  -18.2080 C   0  0  0  0  0  0  0  0  0  0  0  0
   -7.4830    5.5020  -17.8740 C   0  0  0  0  0  0  0  0  0  0  0  0
   -8.3940    5.1050  -18.9300 C   0  0  0  0  0  0  0  0  0  0  0  0
   -9.6730    4.7460  -18.6130 C   0  0  0  0  0  0  0  0  0  0  0  0
  -10.1090    4.7520  -17.3130 C   0  0  0  0  0  0  0  0  0  0  0  0
   -9.2670    5.1250  -16.2830 C   0  0  0  0  0  0  0  0  0  0  0  0
   -7.9440    5.5080  -16.5340 C   0  0  0  0  0  0  0  0  0  0  0  0
   -7.1230    5.8870  -15.4600 C   0  0  0  0  0  0  0  0  0  0  0  0
   -7.2830    4.9870  -14.2920 N   0  0  0  0  0  0  0  0  0  0  0  0
   -7.3720    5.4810  -12.9860 C   0  0  0  0  0  0  0  0  0  0  0  0
   -6.4210    6.0230  -12.4280 O   0  0  0  0  0  0  0  0  0  0  0  0
   -8.6260    5.3310  -12.3420 C   0  0  0  0  0  0  0  0  0  0  0  0
   -8.7370    5.4580  -10.8570 C   0  0  0  0  0  0  0  0  0  0  0  0
   -8.9420    4.4640   -9.9230 C   0  0  0  0  0  0  0  0  0  0  0  0
   -9.1220    2.9550   -9.9730 C   0  0  0  0  0  0  0  0  0  0  0  0
   -9.3210    2.2900   -8.7730 C   0  0  0  0  0  0  0  0  0  0  0  0
   -9.3670    2.9450   -7.5600 C   0  0  0  0  0  0  0  0  0  0  0  0
   -9.1920    4.3130   -7.4920 C   0  0  0  0  0  0  0  0  0  0  0  0
   -8.9840    5.0580   -8.6560 N   0  0  0  0  0  0  0  0  0  0  0  0
   -8.8060    6.3960   -8.7530 N   0  0  0  0  0  0  0  0  0  0  0  0
   -8.6620    6.6260  -10.0610 C   0  0  0  0  0  0  0  0  0  0  0  0
   -5.6320    6.0900  -15.8540 C   0  0  0  0  0  0  0  0  0  0  0  0
   -2.9770    3.3710  -15.4680 H   0  0  0  0  0  0  0  0  0  0  0  0
   -4.5640    4.1390  -15.6760 H   0  0  0  0  0  0  0  0  0  0  0  0
   -3.3640    4.8640  -14.6050 H   0  0  0  0  0  0  0  0  0  0  0  0
   -2.4980    6.0630  -16.2910 H   0  0  0  0  0  0  0  0  0  0  0  0
   -2.1870    4.5750  -17.2160 H   0  0  0  0  0  0  0  0  0  0  0  0
   -5.8990    5.3410  -19.1280 H   0  0  0  0  0  0  0  0  0  0  0  0
   -6.1590    6.9410  -18.3940 H   0  0  0  0  0  0  0  0  0  0  0  0
   -8.0740    5.0910  -19.9700 H   0  0  0  0  0  0  0  0  0  0  0  0
  -10.3330    4.4620  -19.3890 H   0  0  0  0  0  0  0  0  0  0  0  0
  -11.1160    4.4590  -17.1080 H   0  0  0  0  0  0  0  0  0  0  0  0
   -9.6530    5.1160  -15.2660 H   0  0  0  0  0  0  0  0  0  0  0  0
   -7.4960    6.8690  -15.1470 H   0  0  0  0  0  0  0  0  0  0  0  0
   -7.2560    3.9680  -14.4510 H   0  0  0  0  0  0  0  0  0  0  0  0
   -9.0070    4.3420  -12.6220 H   0  0  0  0  0  0  0  0  0  0  0  0
   -9.3070    6.0500  -12.8160 H   0  0  0  0  0  0  0  0  0  0  0  0
   -9.0890    2.4200  -10.9170 H   0  0  0  0  0  0  0  0  0  0  0  0
   -9.4410    1.2350   -8.7310 H   0  0  0  0  0  0  0  0  0  0  0  0
   -9.5350    2.3560   -6.6800 H   0  0  0  0  0  0  0  0  0  0  0  0
   -9.2120    4.8710   -6.5690 H   0  0  0  0  0  0  0  0  0  0  0  0
   -8.5070    7.6490  -10.3840 H   0  0  0  0  0  0  0  0  0  0  0  0
   -4.9820    5.6040  -15.1190 H   0  0  0  0  0  0  0  0  0  0  0  0
   -5.3990    7.1550  -15.7870 H   0  0  0  0  0  0  0  0  0  0  0  0
  1  2  1  0
  2  3  1  0
  3  4  2  0
  3  5  1  0
  5  6  1  0
  6  7  1  0
  7  8  2  0
  8  9  1  0
  9 10  2  0
 10 11  1  0
 11 12  2  0
 12 13  1  0
 13 14  1  0
 14 15  1  0
 15 16  2  0
 15 17  1  0
 17 18  1  0
 18 19  2  0
 19 20  1  0
 20 21  2  0
 21 22  1  0
 22 23  2  0
 23 24  1  0
 24 25  1  0
 25 26  2  0
 13 27  1  0
 27  5  1  0
 12  7  1  0
 26 18  1  0
 24 19  1  0
  1 28  1  0
  1 29  1  0
  1 30  1  0
  2 31  1  0
  2 32  1  0
  6 33  1  0
  6 34  1  0
  8 35  1  0
  9 36  1  0
 10 37  1  0
 11 38  1  0
 13 39  1  0
 14 40  1  0
 17 41  1  0
 17 42  1  0
 20 43  1  0
 21 44  1  0
 22 45  1  0
 23 46  1  0
 26 47  1  0
 27 48  1  0
 27 49  1  0
A    1
 C1 
A    2
 C2 
A    3
 C3 
A    4
 O1 
A    5
 N1 
A    6
 C4 
A    7
 C5 
A    8
 C6 
A    9
 C7 
A   10
 C8 
A   11
 C9 
A   12
 C10
A   13
 C11
A   14
 N2 
A   15
 C12
A   16
 O2 
A   17
 C13
A   18
 C14
A   19
 C15
A   20
 C16
A   21
 C17
A   22
 C18
A   23
 C19
A   24
 N3 
A   25
 N4 
A   26
 C20
A   27
 C21
A   28
 H1 
A   29
 H2 
A   30
 H3 
A   31
 H4 
A   32
 H5 
A   33
 H6 
A   34
 H7 
A   35
 H8 
A   36
 H9 
A   37
 H10
A   38
 H11
A   39
 H12
A   40
 H13
A   41
 H14
A   42
 H15
A   43
 H16
A   44
 H17
A   45
 H18
A   46
 H19
A   47
 H20
A   48
 H21
A   49
 H22
M  END
>  <ref_pdb>  (400) 
x0051_0B

>  <ref_mols>  (400) 
x0472_0B,x0969_1B

>  <original SMILES>  (400) 
[H]c1nn2c([H])c([H])c([H])c([H])c2c1C([H])([H])C(=O)N([H])C1([H])c2c([H])c([H])c([H])c([H])c2C([H])([H])N(C(=O)C([H])([H])C([H])([H])[H])C1([H])[H]

>  <index>  (400) 
0

>  <∆∆G>  (400) 
-7.998571

>  <∆G_bound>  (400) 
-6.371715

>  <∆G_unbound>  (400) 
1.626856

>  <comRMSD>  (400) 
0.460935

>  <N_constrained_atoms>  (400) 
23.0

>  <N_unconstrained_atoms>  (400) 
4.0

>  <runtime>  (400) 
33.967824

>  <LE>  (400) 
0.296243

>  <percent_hybrid>  (400) 
44.0

>  <dist>  (400) 
12.0

>  <ecfp4>  (400) 
0.132075

>  <daylight>  (400) 
0.255255

>  <topodist>  (400) 
2.0

>  <mces>  (400) 
28.0

>  <tdn>  (400) 
0.0

>  <tup>  (400) 
1.0

>  <rdn>  (400) 
0.0

>  <rup>  (400) 
0.0

>  <ldn>  (400) 
0.0

>  <lup>  (400) 
1.0

>  <mut>  (400) 
5.0

>  <maj>  (400) 
5.0

>  <min>  (400) 
0.0

>  <hyb>  (400) 
5.0

>  <sub>  (400) 
0.0

>  <query_index>  (400) 
24.0

>  <max_hit_Tanimoto>  (400) 
0.301237

>  <largest_ring>  (400) 
0

>  <N_interactions_kept>  (400) 
3.5

>  <N_interactions_lost>  (400) 
0.0

>  <interaction_uniqueness_metric>  (400) 
0.157572

>  <ad_hoc_penalty>  (400) 
-48.798672

>  <N_rotatable_bonds>  (400) 
5

>  <N_HA>  (400) 
27

>  <cluster>  (400) 
6216

>  <N_interactions>  (400) 
8

>  <Enamine>  (400) 
1

>  <Mcule>  (400) 
0

>  <N_PAINS>  (400) 
0

>  <UFF_Gibbs>  (400) 
168.742258

>  <strain_per_HA>  (400) 
6.249713

>  <intxn_scored>  (400) 
8.0

>  <saltbridge:HIS:51>  (400) 
0

>  <pistack:HIS:51>  (400) 
1

>  <hydroph_interaction:HIS:51>  (400) 
0

>  <hbond:ALA:132>  (400) 
0

>  <hbond:SER:135>  (400) 
0

>  <hydroph_interaction:TYR:150>  (400) 
1

>  <pistack:TYR:161>  (400) 
0

>  <hydroph_interaction:TYR:161>  (400) 
3

>  <hydroph_interaction:ASP:83>  (400) 
0

>  <hbond:TYR:130>  (400) 
0

>  <hydroph_interaction:ALA:132>  (400) 
1

>  <hbond:HIS:51>  (400) 
0

>  <hbond:ASP:129>  (400) 
0

>  <hbond:TYR:150>  (400) 
0

>  <hbond:GLY:151>  (400) 
0

>  <hbond:TYR:161>  (400) 
1

>  <hydroph_interaction:TYR:130>  (400) 
0

>  <hydroph_interaction:PRO:131>  (400) 
0

>  <hydroph_interaction:ASP:129>  (400) 
0

>  <saltbridge:ASP:75>  (400) 
0

>  <saltbridge:ASP:83>  (400) 
0

>  <hbond:ASN:152>  (400) 
0

>  <hydroph_interaction:ASN:152>  (400) 
0

>  <halogenbond:TYR:150>  (400) 
0

>  <hbond:ASP:83>  (400) 
0

>  <hydroph_interaction:VAL:155>  (400) 
1

>  <pication:TYR:161>  (400) 
0

>  <hbond:PRO:131>  (400) 
0

>  <saltbridge:ASP:129>  (400) 
0

>  <hbond:THR:134>  (400) 
0

>  <pication:HIS:51>  (400) 
0

>  <hbond:SER:81>  (400) 
0

>  <hydroph_interaction:THR:134>  (400) 
0

>  <hydroph_interaction:MET:49>  (400) 
0

$$$$
Z3577257414
     RDKit          3D

 43 46  0  0  0  0  0  0  0  0999 V2000
   -8.6580    7.3250  -13.2530 O   0  0  0  0  0  0  0  0  0  0  0  0
   -8.6240    6.1450  -13.5940 C   0  0  0  0  0  0  0  0  0  0  0  0
   -8.8060    5.1070  -12.6370 N   0  0  0  0  0  0  0  0  0  0  0  0
   -8.8330    5.2840  -11.2060 C   0  0  0  0  0  0  0  0  0  0  0  0
   -9.0080    4.2020  -10.1390 C   0  0  0  0  0  0  0  0  0  0  0  0
   -9.1740    2.8630  -10.3760 C   0  0  0  0  0  0  0  0  0  0  0  0
   -9.4760    2.1110   -9.2170 C   0  0  0  0  0  0  0  0  0  0  0  0
   -9.6310    2.7650   -7.9730 C   0  0  0  0  0  0  0  0  0  0  0  0
   -9.1100    4.0530   -7.7010 C   0  0  0  0  0  0  0  0  0  0  0  0
   -8.9730    4.7950   -8.9390 N   0  0  0  0  0  0  0  0  0  0  0  0
   -8.7990    6.1300   -9.0040 N   0  0  0  0  0  0  0  0  0  0  0  0
   -8.7180    6.4230  -10.3410 C   0  0  0  0  0  0  0  0  0  0  0  0
   -8.3630    5.8650  -15.0370 C   0  0  0  0  0  0  0  0  0  0  0  0
   -8.9960    5.1640  -16.0700 C   0  0  0  0  0  0  0  0  0  0  0  0
   -8.3640    5.2010  -17.3270 N   0  0  0  0  0  0  0  0  0  0  0  0
   -7.2570    5.9310  -17.2530 C   0  0  0  0  0  0  0  0  0  0  0  0
   -6.2390    6.2890  -18.3570 C   0  0  0  0  0  0  0  0  0  0  0  0
   -6.8510    6.8790  -19.6250 C   0  0  0  0  0  0  0  0  0  0  0  0
   -5.8500    6.8220  -20.7650 C   0  0  0  0  0  0  0  0  0  0  0  0
   -4.4970    6.8250  -20.3060 O   0  0  0  0  0  0  0  0  0  0  0  0
   -4.1410    5.6740  -19.5450 C   0  0  0  0  0  0  0  0  0  0  0  0
   -5.3180    5.1470  -18.7390 C   0  0  0  0  0  0  0  0  0  0  0  0
   -6.9460    6.5630  -15.6990 S   0  0  0  0  0  0  0  0  0  0  0  0
   -9.1290    4.2020  -12.9570 H   0  0  0  0  0  0  0  0  0  0  0  0
   -8.1990    2.4890  -10.7060 H   0  0  0  0  0  0  0  0  0  0  0  0
   -9.8170    2.6410  -11.2250 H   0  0  0  0  0  0  0  0  0  0  0  0
  -10.2590    1.3900   -9.3920 H   0  0  0  0  0  0  0  0  0  0  0  0
   -8.6160    1.4580   -9.0780 H   0  0  0  0  0  0  0  0  0  0  0  0
   -9.2080    2.0980   -7.2120 H   0  0  0  0  0  0  0  0  0  0  0  0
  -10.6980    2.7980   -7.7380 H   0  0  0  0  0  0  0  0  0  0  0  0
   -9.7180    4.7050   -7.0840 H   0  0  0  0  0  0  0  0  0  0  0  0
   -8.1210    4.0790   -7.2520 H   0  0  0  0  0  0  0  0  0  0  0  0
   -8.5770    7.4620  -10.6180 H   0  0  0  0  0  0  0  0  0  0  0  0
   -9.9200    4.6070  -15.9910 H   0  0  0  0  0  0  0  0  0  0  0  0
   -5.5780    7.0610  -17.9400 H   0  0  0  0  0  0  0  0  0  0  0  0
   -7.0990    7.9270  -19.4820 H   0  0  0  0  0  0  0  0  0  0  0  0
   -7.7770    6.3520  -19.8700 H   0  0  0  0  0  0  0  0  0  0  0  0
   -6.0060    5.9260  -21.3770 H   0  0  0  0  0  0  0  0  0  0  0  0
   -5.9810    7.6860  -21.4270 H   0  0  0  0  0  0  0  0  0  0  0  0
   -3.7950    4.9250  -20.2600 H   0  0  0  0  0  0  0  0  0  0  0  0
   -3.2880    5.9240  -18.9030 H   0  0  0  0  0  0  0  0  0  0  0  0
   -4.9740    4.6020  -17.8600 H   0  0  0  0  0  0  0  0  0  0  0  0
   -5.8920    4.4590  -19.3690 H   0  0  0  0  0  0  0  0  0  0  0  0
  1  2  2  0
  2  3  1  0
  3  4  1  0
  4  5  2  0
  5  6  1  0
  6  7  1  0
  7  8  1  0
  8  9  1  0
  9 10  1  0
 10 11  1  0
 11 12  2  0
  2 13  1  0
 13 14  2  0
 14 15  1  0
 15 16  2  0
 16 17  1  0
 17 18  1  0
 18 19  1  0
 19 20  1  0
 20 21  1  0
 21 22  1  0
 16 23  1  0
 12  4  1  0
 10  5  1  0
 23 13  1  0
 22 17  1  0
  3 24  1  0
  6 25  1  0
  6 26  1  0
  7 27  1  0
  7 28  1  0
  8 29  1  0
  8 30  1  0
  9 31  1  0
  9 32  1  0
 12 33  1  0
 14 34  1  0
 17 35  1  0
 18 36  1  0
 18 37  1  0
 19 38  1  0
 19 39  1  0
 21 40  1  0
 21 41  1  0
 22 42  1  0
 22 43  1  0
A    1
 O1 
A    2
 C1 
A    3
 N1 
A    4
 C2 
A    5
 C3 
A    6
 C4 
A    7
 C5 
A    8
 C6 
A    9
 C7 
A   10
 N2 
A   11
 N3 
A   12
 C8 
A   13
 C9 
A   14
 C10
A   15
 N4 
A   16
 C11
A   17
 C12
A   18
 C13
A   19
 C14
A   20
 O2 
A   21
 C15
A   22
 C16
A   23
 S1 
A   24
 H1 
A   25
 H2 
A   26
 H3 
A   27
 H4 
A   28
 H5 
A   29
 H6 
A   30
 H7 
A   31
 H8 
A   32
 H9 
A   33
 H10
A   34
 H11
A   35
 H12
A   36
 H13
A   37
 H14
A   38
 H15
A   39
 H16
A   40
 H17
A   41
 H18
A   42
 H19
A   43
 H20
M  END
>  <ref_pdb>  (401) 
x0051_0B

>  <ref_mols>  (401) 
x0917_1B,x0969_1B

>  <original SMILES>  (401) 
[H]c1nc(C2([H])C([H])([H])C([H])([H])OC([H])([H])C2([H])[H])sc1C(=O)N([H])c1c([H])nn2c1C([H])([H])C([H])([H])C([H])([H])C2([H])[H]

>  <index>  (401) 
586

>  <∆∆G>  (401) 
-5.093161

>  <∆G_bound>  (401) 
-4.429848

>  <∆G_unbound>  (401) 
0.663313

>  <comRMSD>  (401) 
0.636535

>  <N_constrained_atoms>  (401) 
24.0

>  <N_unconstrained_atoms>  (401) 
0.0

>  <runtime>  (401) 
76.804519

>  <LE>  (401) 
0.212215

>  <percent_hybrid>  (401) 
40.0

>  <dist>  (401) 
10.0

>  <ecfp4>  (401) 
0.215909

>  <daylight>  (401) 
0.292191

>  <topodist>  (401) 
2.0

>  <mces>  (401) 
26.0

>  <tdn>  (401) 
2.0

>  <tup>  (401) 
0.0

>  <rdn>  (401) 
0.0

>  <rup>  (401) 
0.0

>  <ldn>  (401) 
0.0

>  <lup>  (401) 
0.0

>  <mut>  (401) 
6.0

>  <maj>  (401) 
6.0

>  <min>  (401) 
0.0

>  <hyb>  (401) 
2.0

>  <sub>  (401) 
0.0

>  <query_index>  (401) 
298.0

>  <max_hit_Tanimoto>  (401) 
0.259916

>  <largest_ring>  (401) 
6

>  <N_interactions_kept>  (401) 
1.0

>  <N_interactions_lost>  (401) 
2.0

>  <interaction_uniqueness_metric>  (401) 
0.147635

>  <ad_hoc_penalty>  (401) 
-20.019532

>  <N_rotatable_bonds>  (401) 
3

>  <N_HA>  (401) 
23

>  <cluster>  (401) 
5682

>  <N_interactions>  (401) 
6

>  <Enamine>  (401) 
1

>  <Mcule>  (401) 
0

>  <N_PAINS>  (401) 
0

>  <UFF_Gibbs>  (401) 
98.268876

>  <strain_per_HA>  (401) 
4.27256

>  <intxn_scored>  (401) 
8.0

>  <saltbridge:HIS:51>  (401) 
0

>  <pistack:HIS:51>  (401) 
1

>  <hydroph_interaction:HIS:51>  (401) 
1

>  <hbond:ALA:132>  (401) 
0

>  <hbond:SER:135>  (401) 
0

>  <hydroph_interaction:TYR:150>  (401) 
0

>  <pistack:TYR:161>  (401) 
1

>  <hydroph_interaction:TYR:161>  (401) 
1

>  <hydroph_interaction:ASP:83>  (401) 
0

>  <hbond:TYR:130>  (401) 
0

>  <hydroph_interaction:ALA:132>  (401) 
1

>  <hbond:HIS:51>  (401) 
0

>  <hbond:ASP:129>  (401) 
0

>  <hbond:TYR:150>  (401) 
0

>  <hbond:GLY:151>  (401) 
1

>  <hbond:TYR:161>  (401) 
0

>  <hydroph_interaction:TYR:130>  (401) 
0

>  <hydroph_interaction:PRO:131>  (401) 
0

>  <hydroph_interaction:ASP:129>  (401) 
0

>  <saltbridge:ASP:75>  (401) 
0

>  <saltbridge:ASP:83>  (401) 
0

>  <hbond:ASN:152>  (401) 
0

>  <hydroph_interaction:ASN:152>  (401) 
0

>  <halogenbond:TYR:150>  (401) 
0

>  <hbond:ASP:83>  (401) 
0

>  <hydroph_interaction:VAL:155>  (401) 
0

>  <pication:TYR:161>  (401) 
0

>  <hbond:PRO:131>  (401) 
0

>  <saltbridge:ASP:129>  (401) 
0

>  <hbond:THR:134>  (401) 
0

>  <pication:HIS:51>  (401) 
0

>  <hbond:SER:81>  (401) 
0

>  <hydroph_interaction:THR:134>  (401) 
0

>  <hydroph_interaction:MET:49>  (401) 
0

$$$$
CSSB00000688042
     RDKit          3D

 30 31  0  0  0  0  0  0  0  0999 V2000
   -4.3090    4.7320  -16.5110 C   0  0  0  0  0  0  0  0  0  0  0  0
   -4.5220    5.1750  -17.9390 C   0  0  0  0  0  0  0  0  0  0  0  0
   -5.6660    6.1450  -18.1220 C   0  0  0  0  0  0  0  0  0  0  0  0
   -5.2920    7.4240  -17.3850 C   0  0  0  0  0  0  0  0  0  0  0  0
   -5.4910    7.3160  -15.8780 C   0  0  0  0  0  0  0  0  0  0  0  0
   -5.7910    6.2290  -19.6950 C   0  0  0  0  0  0  0  0  0  0  0  0
   -7.0140    5.4920  -19.9760 N   0  0  0  0  0  0  0  0  0  0  0  0
   -7.8190    5.3470  -18.9010 C   0  0  0  0  0  0  0  0  0  0  0  0
   -9.2680    4.8800  -18.8210 C   0  0  0  0  0  0  0  0  0  0  0  0
   -9.8420    4.8780  -17.5440 C   0  0  0  0  0  0  0  0  0  0  0  0
   -9.0700    5.2910  -16.4330 C   0  0  0  0  0  0  0  0  0  0  0  0
   -9.7510    5.3700  -14.6740 Br  0  0  0  0  0  0  0  0  0  0  0  0
   -7.7450    5.6890  -16.5410 C   0  0  0  0  0  0  0  0  0  0  0  0
   -7.1100    5.7220  -17.7640 C   0  0  0  0  0  0  0  0  0  0  0  0
   -3.6270    3.8760  -16.4620 H   0  0  0  0  0  0  0  0  0  0  0  0
   -3.8920    5.5430  -15.9070 H   0  0  0  0  0  0  0  0  0  0  0  0
   -5.2520    4.4390  -16.0420 H   0  0  0  0  0  0  0  0  0  0  0  0
   -3.6120    5.6730  -18.2990 H   0  0  0  0  0  0  0  0  0  0  0  0
   -4.6640    4.3340  -18.5850 H   0  0  0  0  0  0  0  0  0  0  0  0
   -5.8490    8.2730  -17.7760 H   0  0  0  0  0  0  0  0  0  0  0  0
   -4.2300    7.6470  -17.5510 H   0  0  0  0  0  0  0  0  0  0  0  0
   -5.5230    6.3040  -15.4790 H   0  0  0  0  0  0  0  0  0  0  0  0
   -6.2910    7.8290  -15.3630 H   0  0  0  0  0  0  0  0  0  0  0  0
   -4.5830    7.7430  -15.4340 H   0  0  0  0  0  0  0  0  0  0  0  0
   -4.9420    5.7920  -20.2110 H   0  0  0  0  0  0  0  0  0  0  0  0
   -5.8970    7.2640  -20.0420 H   0  0  0  0  0  0  0  0  0  0  0  0
   -6.9710    4.6970  -20.6070 H   0  0  0  0  0  0  0  0  0  0  0  0
   -9.7560    4.5930  -19.7590 H   0  0  0  0  0  0  0  0  0  0  0  0
  -10.8680    4.5690  -17.4190 H   0  0  0  0  0  0  0  0  0  0  0  0
   -7.2130    5.9890  -15.6340 H   0  0  0  0  0  0  0  0  0  0  0  0
  1  2  1  0
  2  3  1  0
  3  4  1  0
  4  5  1  0
  3  6  1  0
  6  7  1  0
  7  8  1  0
  8  9  2  0
  9 10  1  0
 10 11  2  0
 11 12  1  0
 11 13  1  0
 13 14  2  0
 14  3  1  0
 14  8  1  0
  1 15  1  0
  1 16  1  0
  1 17  1  0
  2 18  1  0
  2 19  1  0
  4 20  1  0
  4 21  1  0
  5 22  1  0
  5 23  1  0
  5 24  1  0
  6 25  1  0
  6 26  1  0
  7 27  1  0
  9 28  1  0
 10 29  1  0
 13 30  1  0
A    1
 C1 
A    2
 C2 
A    3
 C3 
A    4
 C4 
A    5
 C5 
A    6
 C6 
A    7
 N1 
A    8
 C7 
A    9
 C8 
A   10
 C9 
A   11
 C10
A   12
BR1 
A   13
 C11
A   14
 C12
A   15
 H1 
A   16
 H2 
A   17
 H3 
A   18
 H4 
A   19
 H5 
A   20
 H6 
A   21
 H7 
A   22
 H8 
A   23
 H9 
A   24
 H10
A   25
 H11
A   26
 H12
A   27
 H13
A   28
 H14
A   29
 H15
A   30
 H16
M  END
>  <ref_pdb>  (402) 
x0051_0B

>  <ref_mols>  (402) 
x0490_0B,x0227_0B

>  <original SMILES>  (402) 
[H]c1c([H])c2c(c([H])c1Br)C(C([H])([H])C([H])([H])[H])(C([H])([H])C([H])([H])[H])C([H])([H])N2[H]

>  <index>  (402) 
1052

>  <∆∆G>  (402) 
-5.552406

>  <∆G_bound>  (402) 
-6.025464

>  <∆G_unbound>  (402) 
-0.473057

>  <comRMSD>  (402) 
0.940866

>  <N_constrained_atoms>  (402) 
15.0

>  <N_unconstrained_atoms>  (402) 
1.0

>  <runtime>  (402) 
19.267789

>  <LE>  (402) 
0.347025

>  <percent_hybrid>  (402) 
34.0

>  <dist>  (402) 
3.0

>  <ecfp4>  (402) 
0.291667

>  <daylight>  (402) 
0.663366

>  <topodist>  (402) 
3.0

>  <mces>  (402) 
14.0

>  <tdn>  (402) 
1.0

>  <tup>  (402) 
1.0

>  <rdn>  (402) 
1.0

>  <rup>  (402) 
0.0

>  <ldn>  (402) 
0.0

>  <lup>  (402) 
0.0

>  <mut>  (402) 
0.0

>  <maj>  (402) 
0.0

>  <min>  (402) 
0.0

>  <hyb>  (402) 
0.0

>  <sub>  (402) 
3.0

>  <query_index>  (402) 
171.0

>  <max_hit_Tanimoto>  (402) 
0.274301

>  <largest_ring>  (402) 
6

>  <N_interactions_kept>  (402) 
2.0

>  <N_interactions_lost>  (402) 
3.0

>  <interaction_uniqueness_metric>  (402) 
0.082857

>  <ad_hoc_penalty>  (402) 
-12.426603

>  <N_rotatable_bonds>  (402) 
4

>  <N_HA>  (402) 
14

>  <cluster>  (402) 
5251

>  <N_interactions>  (402) 
8

>  <Enamine>  (402) 
1

>  <Mcule>  (402) 
0

>  <N_PAINS>  (402) 
0

>  <UFF_Gibbs>  (402) 
93.26888

>  <strain_per_HA>  (402) 
6.662063

>  <intxn_scored>  (402) 
8.0

>  <saltbridge:HIS:51>  (402) 
0

>  <pistack:HIS:51>  (402) 
0

>  <hydroph_interaction:HIS:51>  (402) 
0

>  <hbond:ALA:132>  (402) 
0

>  <hbond:SER:135>  (402) 
0

>  <hydroph_interaction:TYR:150>  (402) 
1

>  <pistack:TYR:161>  (402) 
0

>  <hydroph_interaction:TYR:161>  (402) 
5

>  <hydroph_interaction:ASP:83>  (402) 
0

>  <hbond:TYR:130>  (402) 
1

>  <hydroph_interaction:ALA:132>  (402) 
1

>  <hbond:HIS:51>  (402) 
0

>  <hbond:ASP:129>  (402) 
0

>  <hbond:TYR:150>  (402) 
0

>  <hbond:GLY:151>  (402) 
0

>  <hbond:TYR:161>  (402) 
0

>  <hydroph_interaction:TYR:130>  (402) 
0

>  <hydroph_interaction:PRO:131>  (402) 
0

>  <hydroph_interaction:ASP:129>  (402) 
0

>  <saltbridge:ASP:75>  (402) 
0

>  <saltbridge:ASP:83>  (402) 
0

>  <hbond:ASN:152>  (402) 
0

>  <hydroph_interaction:ASN:152>  (402) 
0

>  <halogenbond:TYR:150>  (402) 
0

>  <hbond:ASP:83>  (402) 
0

>  <hydroph_interaction:VAL:155>  (402) 
0

>  <pication:TYR:161>  (402) 
0

>  <hbond:PRO:131>  (402) 
0

>  <saltbridge:ASP:129>  (402) 
0

>  <hbond:THR:134>  (402) 
0

>  <pication:HIS:51>  (402) 
0

>  <hbond:SER:81>  (402) 
0

>  <hydroph_interaction:THR:134>  (402) 
0

>  <hydroph_interaction:MET:49>  (402) 
0

$$$$
Z5080829372
     RDKit          3D

 37 40  0  0  0  0  0  0  0  0999 V2000
   -6.4620    5.1760  -20.3640 C   0  0  0  0  0  0  0  0  0  0  0  0
   -6.4730    5.2560  -18.9930 N   0  0  0  0  0  0  0  0  0  0  0  0
   -5.3200    5.4810  -18.2960 N   0  0  0  0  0  0  0  0  0  0  0  0
   -5.6690    5.5040  -16.9690 N   0  0  0  0  0  0  0  0  0  0  0  0
   -7.0250    5.2960  -16.8620 C   0  0  0  0  0  0  0  0  0  0  0  0
   -7.8800    5.2370  -15.6110 C   0  0  0  0  0  0  0  0  0  0  0  0
   -7.3940    5.3990  -14.2810 C   0  0  0  0  0  0  0  0  0  0  0  0
   -8.3540    4.9220  -13.2730 O   0  0  0  0  0  0  0  0  0  0  0  0
   -8.7640    5.8960  -12.3600 C   0  0  0  0  0  0  0  0  0  0  0  0
   -9.1080    7.0070  -12.7630 O   0  0  0  0  0  0  0  0  0  0  0  0
   -8.7930    5.6480  -10.9320 C   0  0  0  0  0  0  0  0  0  0  0  0
   -8.9090    4.4410  -10.2040 C   0  0  0  0  0  0  0  0  0  0  0  0
   -9.0110    3.1500  -10.6970 C   0  0  0  0  0  0  0  0  0  0  0  0
   -8.6210    2.0040   -9.3530 S   0  0  0  0  0  0  0  0  0  0  0  0
   -9.5790    2.7340   -8.0020 C   0  0  0  0  0  0  0  0  0  0  0  0
   -9.0070    3.9740   -7.6950 C   0  0  0  0  0  0  0  0  0  0  0  0
   -8.9020    4.8140   -8.8780 N   0  0  0  0  0  0  0  0  0  0  0  0
   -8.7790    6.1400   -8.7530 N   0  0  0  0  0  0  0  0  0  0  0  0
   -8.7120    6.6580   -9.9840 N   0  0  0  0  0  0  0  0  0  0  0  0
   -9.2510    5.0050  -15.8810 C   0  0  0  0  0  0  0  0  0  0  0  0
   -9.9010    4.8110  -17.2730 C   0  0  0  0  0  0  0  0  0  0  0  0
   -9.0100    4.8750  -18.4810 C   0  0  0  0  0  0  0  0  0  0  0  0
   -7.5500    5.1320  -18.1620 C   0  0  0  0  0  0  0  0  0  0  0  0
   -5.5140    4.7310  -20.6800 H   0  0  0  0  0  0  0  0  0  0  0  0
   -7.2930    4.5610  -20.7180 H   0  0  0  0  0  0  0  0  0  0  0  0
   -6.5700    6.1850  -20.7780 H   0  0  0  0  0  0  0  0  0  0  0  0
   -6.4670    4.9920  -13.9050 H   0  0  0  0  0  0  0  0  0  0  0  0
   -7.2860    6.4490  -14.0260 H   0  0  0  0  0  0  0  0  0  0  0  0
  -10.0430    2.9400  -10.9830 H   0  0  0  0  0  0  0  0  0  0  0  0
   -8.3890    2.8730  -11.5460 H   0  0  0  0  0  0  0  0  0  0  0  0
  -10.5960    2.8810   -8.3710 H   0  0  0  0  0  0  0  0  0  0  0  0
   -9.6480    1.9870   -7.2170 H   0  0  0  0  0  0  0  0  0  0  0  0
   -9.5340    4.5570   -6.9430 H   0  0  0  0  0  0  0  0  0  0  0  0
   -7.9840    3.8300   -7.3320 H   0  0  0  0  0  0  0  0  0  0  0  0
  -10.0180    4.9350  -15.0910 H   0  0  0  0  0  0  0  0  0  0  0  0
  -10.9600    4.6330  -17.4030 H   0  0  0  0  0  0  0  0  0  0  0  0
   -9.3920    4.7500  -19.4890 H   0  0  0  0  0  0  0  0  0  0  0  0
  1  2  1  0
  2  3  1  0
  3  4  2  0
  4  5  1  0
  5  6  2  0
  6  7  1  0
  7  8  1  0
  8  9  1  0
  9 10  2  0
  9 11  1  0
 11 12  2  0
 12 13  1  0
 13 14  1  0
 14 15  1  0
 15 16  1  0
 16 17  1  0
 17 18  1  0
 18 19  2  0
  6 20  1  0
 20 21  2  0
 21 22  1  0
 22 23  2  0
 23  2  1  0
 23  5  1  0
 19 11  1  0
 17 12  1  0
  1 24  1  0
  1 25  1  0
  1 26  1  0
  7 27  1  0
  7 28  1  0
 13 29  1  0
 13 30  1  0
 15 31  1  0
 15 32  1  0
 16 33  1  0
 16 34  1  0
 20 35  1  0
 21 36  1  0
 22 37  1  0
A    1
 C1 
A    2
 N1 
A    3
 N2 
A    4
 N3 
A    5
 C2 
A    6
 C3 
A    7
 C4 
A    8
 O1 
A    9
 C5 
A   10
 O2 
A   11
 C6 
A   12
 C7 
A   13
 C8 
A   14
 S1 
A   15
 C9 
A   16
 C10
A   17
 N4 
A   18
 N5 
A   19
 N6 
A   20
 C11
A   21
 C12
A   22
 C13
A   23
 C14
A   24
 H1 
A   25
 H2 
A   26
 H3 
A   27
 H4 
A   28
 H5 
A   29
 H6 
A   30
 H7 
A   31
 H8 
A   32
 H9 
A   33
 H10
A   34
 H11
A   35
 H12
A   36
 H13
A   37
 H14
M  END
>  <ref_pdb>  (403) 
x0051_0B

>  <ref_mols>  (403) 
x0969_1B,x0435_0B

>  <original SMILES>  (403) 
[H]c1c([H])c([H])c2c(nnn2C([H])([H])[H])c1C([H])([H])OC(=O)c1nnn2c1C([H])([H])SC([H])([H])C2([H])[H]

>  <index>  (403) 
391

>  <∆∆G>  (403) 
-7.801668

>  <∆G_bound>  (403) 
-7.214126

>  <∆G_unbound>  (403) 
0.587542

>  <comRMSD>  (403) 
0.42018

>  <N_constrained_atoms>  (403) 
20.0

>  <N_unconstrained_atoms>  (403) 
3.0

>  <runtime>  (403) 
53.860511

>  <LE>  (403) 
0.339203

>  <percent_hybrid>  (403) 
50.0

>  <dist>  (403) 
7.0

>  <ecfp4>  (403) 
0.094737

>  <daylight>  (403) 
0.265363

>  <topodist>  (403) 
1.0

>  <mces>  (403) 
25.0

>  <tdn>  (403) 
0.0

>  <tup>  (403) 
1.0

>  <rdn>  (403) 
0.0

>  <rup>  (403) 
0.0

>  <ldn>  (403) 
0.0

>  <lup>  (403) 
0.0

>  <mut>  (403) 
5.0

>  <maj>  (403) 
5.0

>  <min>  (403) 
0.0

>  <hyb>  (403) 
1.0

>  <sub>  (403) 
0.0

>  <query_index>  (403) 
343.0

>  <max_hit_Tanimoto>  (403) 
0.229912

>  <largest_ring>  (403) 
0

>  <N_interactions_kept>  (403) 
2.5

>  <N_interactions_lost>  (403) 
1.0

>  <interaction_uniqueness_metric>  (403) 
0.139279

>  <ad_hoc_penalty>  (403) 
-22.543912

>  <N_rotatable_bonds>  (403) 
4

>  <N_HA>  (403) 
23

>  <cluster>  (403) 
5860

>  <N_interactions>  (403) 
4

>  <Enamine>  (403) 
1

>  <Mcule>  (403) 
0

>  <N_PAINS>  (403) 
0

>  <UFF_Gibbs>  (403) 
100.661571

>  <strain_per_HA>  (403) 
4.37659

>  <intxn_scored>  (403) 
8.0

>  <saltbridge:HIS:51>  (403) 
1

>  <pistack:HIS:51>  (403) 
1

>  <hydroph_interaction:HIS:51>  (403) 
0

>  <hbond:ALA:132>  (403) 
0

>  <hbond:SER:135>  (403) 
0

>  <hydroph_interaction:TYR:150>  (403) 
0

>  <pistack:TYR:161>  (403) 
1

>  <hydroph_interaction:TYR:161>  (403) 
1

>  <hydroph_interaction:ASP:83>  (403) 
0

>  <hbond:TYR:130>  (403) 
0

>  <hydroph_interaction:ALA:132>  (403) 
0

>  <hbond:HIS:51>  (403) 
0

>  <hbond:ASP:129>  (403) 
0

>  <hbond:TYR:150>  (403) 
0

>  <hbond:GLY:151>  (403) 
0

>  <hbond:TYR:161>  (403) 
0

>  <hydroph_interaction:TYR:130>  (403) 
0

>  <hydroph_interaction:PRO:131>  (403) 
0

>  <hydroph_interaction:ASP:129>  (403) 
0

>  <saltbridge:ASP:75>  (403) 
0

>  <saltbridge:ASP:83>  (403) 
0

>  <hbond:ASN:152>  (403) 
0

>  <hydroph_interaction:ASN:152>  (403) 
0

>  <halogenbond:TYR:150>  (403) 
0

>  <hbond:ASP:83>  (403) 
0

>  <hydroph_interaction:VAL:155>  (403) 
0

>  <pication:TYR:161>  (403) 
0

>  <hbond:PRO:131>  (403) 
0

>  <saltbridge:ASP:129>  (403) 
0

>  <hbond:THR:134>  (403) 
0

>  <pication:HIS:51>  (403) 
0

>  <hbond:SER:81>  (403) 
0

>  <hydroph_interaction:THR:134>  (403) 
0

>  <hydroph_interaction:MET:49>  (403) 
0

$$$$
PV-003204848796
     RDKit          3D

 24 25  0  0  0  0  0  0  0  0999 V2000
  -12.5360    3.3680  -21.0860 C   0  0  0  0  0  0  0  0  0  0  0  0
  -11.6340    3.8860  -19.8870 C   0  0  0  0  0  0  0  0  0  0  0  0
  -10.2770    4.2020  -20.0100 C   0  0  0  0  0  0  0  0  0  0  0  0
   -9.4120    4.5890  -18.8580 C   0  0  0  0  0  0  0  0  0  0  0  0
  -10.1180    4.7310  -17.5770 C   0  0  0  0  0  0  0  0  0  0  0  0
   -9.5440    5.0310  -16.4160 N   0  0  0  0  0  0  0  0  0  0  0  0
   -8.2230    5.2130  -16.4270 C   0  0  0  0  0  0  0  0  0  0  0  0
   -7.5920    5.5300  -15.0730 C   0  0  0  0  0  0  0  0  0  0  0  0
   -6.1030    5.7540  -14.9780 C   0  0  0  0  0  0  0  0  0  0  0  0
   -5.3770    5.6300  -16.3560 C   0  0  0  0  0  0  0  0  0  0  0  0
   -6.0610    5.3350  -17.5220 C   0  0  0  0  0  0  0  0  0  0  0  0
   -7.4280    5.1230  -17.5980 C   0  0  0  0  0  0  0  0  0  0  0  0
   -8.0530    4.8120  -18.8070 C   0  0  0  0  0  0  0  0  0  0  0  0
  -12.7690    4.0870  -21.7760 H   0  0  0  0  0  0  0  0  0  0  0  0
  -13.4920    2.9970  -20.7010 H   0  0  0  0  0  0  0  0  0  0  0  0
  -12.0310    2.6200  -21.6780 H   0  0  0  0  0  0  0  0  0  0  0  0
  -12.0850    3.9640  -18.9020 H   0  0  0  0  0  0  0  0  0  0  0  0
   -9.8070    4.1250  -20.9970 H   0  0  0  0  0  0  0  0  0  0  0  0
  -11.1880    4.5650  -17.6030 H   0  0  0  0  0  0  0  0  0  0  0  0
   -8.2360    5.5860  -14.2010 H   0  0  0  0  0  0  0  0  0  0  0  0
   -5.5920    5.9830  -14.0460 H   0  0  0  0  0  0  0  0  0  0  0  0
   -4.3030    5.7790  -16.3980 H   0  0  0  0  0  0  0  0  0  0  0  0
   -5.5690    5.2410  -18.4970 H   0  0  0  0  0  0  0  0  0  0  0  0
   -7.3740    4.7550  -19.6640 H   0  0  0  0  0  0  0  0  0  0  0  0
  1  2  1  0
  2  3  2  0
  3  4  1  0
  4  5  2  0
  5  6  1  0
  6  7  2  0
  7  8  1  0
  8  9  2  0
  9 10  1  0
 10 11  2  0
 11 12  1  0
 12 13  2  0
 13  4  1  0
 12  7  1  0
  1 14  1  0
  1 15  1  0
  1 16  1  0
  2 17  1  0
  3 18  1  0
  5 19  1  0
  8 20  1  0
  9 21  1  0
 10 22  1  0
 11 23  1  0
 13 24  1  0
A    1
 C1 
A    2
 C2 
A    3
 C3 
A    4
 C4 
A    5
 C5 
A    6
 N1 
A    7
 C6 
A    8
 C7 
A    9
 C8 
A   10
 C9 
A   11
 C10
A   12
 C11
A   13
 C12
A   14
 H1 
A   15
 H2 
A   16
 H3 
A   17
 H4 
A   18
 H5 
A   19
 H6 
A   20
 H7 
A   21
 H8 
A   22
 H9 
A   23
 H10
A   24
 H11
M  END
>  <ref_pdb>  (404) 
x0051_0B

>  <ref_mols>  (404) 
x0559_0B,x0455_0B

>  <original SMILES>  (404) 
[H]/C(=C(/[H])C([H])([H])[H])c1c([H])nc2c([H])c([H])c([H])c([H])c2c1[H]

>  <index>  (404) 
444

>  <∆∆G>  (404) 
-5.266691

>  <∆G_bound>  (404) 
-5.293626

>  <∆G_unbound>  (404) 
-0.026935

>  <comRMSD>  (404) 
0.933357

>  <N_constrained_atoms>  (404) 
13.0

>  <N_unconstrained_atoms>  (404) 
2.0

>  <runtime>  (404) 
35.096725

>  <LE>  (404) 
0.351113

>  <percent_hybrid>  (404) 
34.0

>  <dist>  (404) 
3.0

>  <ecfp4>  (404) 
0.019231

>  <daylight>  (404) 
0.367347

>  <topodist>  (404) 
2.0

>  <mces>  (404) 
12.0

>  <tdn>  (404) 
0.0

>  <tup>  (404) 
1.0

>  <rdn>  (404) 
0.0

>  <rup>  (404) 
0.0

>  <ldn>  (404) 
0.0

>  <lup>  (404) 
1.0

>  <mut>  (404) 
1.0

>  <maj>  (404) 
1.0

>  <min>  (404) 
0.0

>  <hyb>  (404) 
0.0

>  <sub>  (404) 
1.0

>  <query_index>  (404) 
356.0

>  <max_hit_Tanimoto>  (404) 
0.163097

>  <largest_ring>  (404) 
0

>  <N_interactions_kept>  (404) 
1.0

>  <N_interactions_lost>  (404) 
2.5

>  <interaction_uniqueness_metric>  (404) 
0.415839

>  <ad_hoc_penalty>  (404) 
-23.339584

>  <N_rotatable_bonds>  (404) 
2

>  <N_HA>  (404) 
13

>  <cluster>  (404) 
5815

>  <N_interactions>  (404) 
7

>  <Enamine>  (404) 
1

>  <Mcule>  (404) 
0

>  <N_PAINS>  (404) 
0

>  <UFF_Gibbs>  (404) 
85.024861

>  <strain_per_HA>  (404) 
6.540374

>  <intxn_scored>  (404) 
8.0

>  <saltbridge:HIS:51>  (404) 
0

>  <pistack:HIS:51>  (404) 
0

>  <hydroph_interaction:HIS:51>  (404) 
0

>  <hbond:ALA:132>  (404) 
0

>  <hbond:SER:135>  (404) 
0

>  <hydroph_interaction:TYR:150>  (404) 
2

>  <pistack:TYR:161>  (404) 
1

>  <hydroph_interaction:TYR:161>  (404) 
2

>  <hydroph_interaction:ASP:83>  (404) 
0

>  <hbond:TYR:130>  (404) 
0

>  <hydroph_interaction:ALA:132>  (404) 
0

>  <hbond:HIS:51>  (404) 
0

>  <hbond:ASP:129>  (404) 
0

>  <hbond:TYR:150>  (404) 
0

>  <hbond:GLY:151>  (404) 
0

>  <hbond:TYR:161>  (404) 
0

>  <hydroph_interaction:TYR:130>  (404) 
1

>  <hydroph_interaction:PRO:131>  (404) 
0

>  <hydroph_interaction:ASP:129>  (404) 
0

>  <saltbridge:ASP:75>  (404) 
0

>  <saltbridge:ASP:83>  (404) 
0

>  <hbond:ASN:152>  (404) 
0

>  <hydroph_interaction:ASN:152>  (404) 
0

>  <halogenbond:TYR:150>  (404) 
0

>  <hbond:ASP:83>  (404) 
0

>  <hydroph_interaction:VAL:155>  (404) 
0

>  <pication:TYR:161>  (404) 
0

>  <hbond:PRO:131>  (404) 
0

>  <saltbridge:ASP:129>  (404) 
0

>  <hbond:THR:134>  (404) 
0

>  <pication:HIS:51>  (404) 
0

>  <hbond:SER:81>  (404) 
0

>  <hydroph_interaction:THR:134>  (404) 
1

>  <hydroph_interaction:MET:49>  (404) 
0

$$$$
Z3870404224
     RDKit          3D

 50 53  0  0  0  0  0  0  0  0999 V2000
  -10.9100    5.0080  -18.7270 C   0  0  0  0  0  0  0  0  0  0  0  0
  -10.5430    4.5020  -17.4510 O   0  0  0  0  0  0  0  0  0  0  0  0
   -9.3640    4.9740  -16.9120 C   0  0  0  0  0  0  0  0  0  0  0  0
   -9.3070    5.1030  -15.3800 C   0  0  0  0  0  0  0  0  0  0  0  0
   -7.9830    5.6250  -14.8430 C   0  0  0  0  0  0  0  0  0  0  0  0
   -7.8160    5.7900  -13.4000 N   0  0  0  0  0  0  0  0  0  0  0  0
   -8.7380    5.0440  -12.4800 C   0  0  0  0  0  0  0  0  0  0  0  0
   -8.7530    5.3440  -11.0730 C   0  0  0  0  0  0  0  0  0  0  0  0
   -8.8710    4.3760  -10.0690 C   0  0  0  0  0  0  0  0  0  0  0  0
   -8.9860    3.0010  -10.1870 C   0  0  0  0  0  0  0  0  0  0  0  0
   -8.6570    2.3080   -9.0210 C   0  0  0  0  0  0  0  0  0  0  0  0
   -9.2810    2.8180   -7.8860 C   0  0  0  0  0  0  0  0  0  0  0  0
   -8.9780    4.2890   -7.5990 C   0  0  0  0  0  0  0  0  0  0  0  0
   -8.8620    4.9960   -8.8610 N   0  0  0  0  0  0  0  0  0  0  0  0
   -8.7390    6.3300   -8.9580 N   0  0  0  0  0  0  0  0  0  0  0  0
   -8.6740    6.5490  -10.3010 C   0  0  0  0  0  0  0  0  0  0  0  0
   -7.0060    5.9290  -15.7560 N   0  0  0  0  0  0  0  0  0  0  0  0
   -7.2260    5.7600  -17.1110 C   0  0  0  0  0  0  0  0  0  0  0  0
   -6.2090    6.1250  -18.0140 C   0  0  0  0  0  0  0  0  0  0  0  0
   -6.4040    5.9340  -19.3820 C   0  0  0  0  0  0  0  0  0  0  0  0
   -5.5250    6.6180  -20.2340 C   0  0  0  0  0  0  0  0  0  0  0  0
   -4.4570    7.2490  -19.5090 O   0  0  0  0  0  0  0  0  0  0  0  0
   -3.8130    6.4320  -18.5140 C   0  0  0  0  0  0  0  0  0  0  0  0
   -4.8020    5.6400  -17.6630 C   0  0  0  0  0  0  0  0  0  0  0  0
   -8.3440    5.2950  -17.7020 N   0  0  0  0  0  0  0  0  0  0  0  0
  -11.2360    6.0210  -18.6120 H   0  0  0  0  0  0  0  0  0  0  0  0
  -10.0980    4.9220  -19.4510 H   0  0  0  0  0  0  0  0  0  0  0  0
  -11.7800    4.4820  -19.1100 H   0  0  0  0  0  0  0  0  0  0  0  0
  -10.0990    4.8620  -14.6610 H   0  0  0  0  0  0  0  0  0  0  0  0
   -7.8020    6.7830  -13.1830 H   0  0  0  0  0  0  0  0  0  0  0  0
   -9.7540    5.2530  -12.8360 H   0  0  0  0  0  0  0  0  0  0  0  0
   -8.6170    3.9600  -12.6290 H   0  0  0  0  0  0  0  0  0  0  0  0
   -8.3520    2.6370  -11.0050 H   0  0  0  0  0  0  0  0  0  0  0  0
  -10.0190    2.7570  -10.4610 H   0  0  0  0  0  0  0  0  0  0  0  0
   -9.0590    1.3110   -9.1270 H   0  0  0  0  0  0  0  0  0  0  0  0
   -7.6000    2.1290   -8.9670 H   0  0  0  0  0  0  0  0  0  0  0  0
  -10.3660    2.6870   -7.9760 H   0  0  0  0  0  0  0  0  0  0  0  0
   -8.9720    2.2170   -7.0210 H   0  0  0  0  0  0  0  0  0  0  0  0
   -9.7750    4.7490   -7.0030 H   0  0  0  0  0  0  0  0  0  0  0  0
   -8.0200    4.4010   -7.0780 H   0  0  0  0  0  0  0  0  0  0  0  0
   -8.5730    7.5640  -10.6640 H   0  0  0  0  0  0  0  0  0  0  0  0
   -6.1390    7.2130  -17.8920 H   0  0  0  0  0  0  0  0  0  0  0  0
   -7.4360    6.2140  -19.6340 H   0  0  0  0  0  0  0  0  0  0  0  0
   -6.3230    4.8660  -19.6220 H   0  0  0  0  0  0  0  0  0  0  0  0
   -6.0600    7.3960  -20.7910 H   0  0  0  0  0  0  0  0  0  0  0  0
   -5.0860    5.9340  -20.9720 H   0  0  0  0  0  0  0  0  0  0  0  0
   -3.2210    7.1010  -17.8790 H   0  0  0  0  0  0  0  0  0  0  0  0
   -3.1030    5.7670  -19.0230 H   0  0  0  0  0  0  0  0  0  0  0  0
   -4.6070    5.8530  -16.6050 H   0  0  0  0  0  0  0  0  0  0  0  0
   -4.6780    4.5640  -17.8120 H   0  0  0  0  0  0  0  0  0  0  0  0
  1  2  1  0
  2  3  1  0
  3  4  2  0
  4  5  1  0
  5  6  1  0
  6  7  1  0
  7  8  1  0
  8  9  2  0
  9 10  1  0
 10 11  1  0
 11 12  1  0
 12 13  1  0
 13 14  1  0
 14 15  1  0
 15 16  2  0
  5 17  2  0
 17 18  1  0
 18 19  1  0
 19 20  1  0
 20 21  1  0
 21 22  1  0
 22 23  1  0
 23 24  1  0
 18 25  2  0
 25  3  1  0
 16  8  1  0
 14  9  1  0
 24 19  1  0
  1 26  1  0
  1 27  1  0
  1 28  1  0
  4 29  1  0
  6 30  1  0
  7 31  1  0
  7 32  1  0
 10 33  1  0
 10 34  1  0
 11 35  1  0
 11 36  1  0
 12 37  1  0
 12 38  1  0
 13 39  1  0
 13 40  1  0
 16 41  1  0
 19 42  1  0
 20 43  1  0
 20 44  1  0
 21 45  1  0
 21 46  1  0
 23 47  1  0
 23 48  1  0
 24 49  1  0
 24 50  1  0
A    1
 C1 
A    2
 O1 
A    3
 C2 
A    4
 C3 
A    5
 C4 
A    6
 N1 
A    7
 C5 
A    8
 C6 
A    9
 C7 
A   10
 C8 
A   11
 C9 
A   12
 C10
A   13
 C11
A   14
 N2 
A   15
 N3 
A   16
 C12
A   17
 N4 
A   18
 C13
A   19
 C14
A   20
 C15
A   21
 C16
A   22
 O2 
A   23
 C17
A   24
 C18
A   25
 N5 
A   26
 H1 
A   27
 H2 
A   28
 H3 
A   29
 H4 
A   30
 H5 
A   31
 H6 
A   32
 H7 
A   33
 H8 
A   34
 H9 
A   35
 H10
A   36
 H11
A   37
 H12
A   38
 H13
A   39
 H14
A   40
 H15
A   41
 H16
A   42
 H17
A   43
 H18
A   44
 H19
A   45
 H20
A   46
 H21
A   47
 H22
A   48
 H23
A   49
 H24
A   50
 H25
M  END
>  <ref_pdb>  (405) 
x0051_0B

>  <ref_mols>  (405) 
x0969_1B,x0945_0B

>  <original SMILES>  (405) 
[H]c1nn2c(c1C([H])([H])N([H])c1nc(C3([H])C([H])([H])C([H])([H])OC([H])([H])C3([H])[H])nc(OC([H])([H])[H])c1[H])C([H])([H])C([H])([H])C([H])([H])C2([H])[H]

>  <index>  (405) 
260

>  <∆∆G>  (405) 
-8.336887

>  <∆G_bound>  (405) 
-6.917419

>  <∆G_unbound>  (405) 
1.419468

>  <comRMSD>  (405) 
0.500357

>  <N_constrained_atoms>  (405) 
24.0

>  <N_unconstrained_atoms>  (405) 
1.0

>  <runtime>  (405) 
49.43531

>  <LE>  (405) 
0.333475

>  <percent_hybrid>  (405) 
42.0

>  <dist>  (405) 
5.0

>  <ecfp4>  (405) 
0.379747

>  <daylight>  (405) 
0.330556

>  <topodist>  (405) 
1.0

>  <mces>  (405) 
28.0

>  <tdn>  (405) 
0.0

>  <tup>  (405) 
0.0

>  <rdn>  (405) 
0.0

>  <rup>  (405) 
0.0

>  <ldn>  (405) 
1.0

>  <lup>  (405) 
0.0

>  <mut>  (405) 
4.0

>  <maj>  (405) 
4.0

>  <min>  (405) 
0.0

>  <hyb>  (405) 
0.0

>  <sub>  (405) 
0.0

>  <query_index>  (405) 
258.0

>  <max_hit_Tanimoto>  (405) 
0.320789

>  <largest_ring>  (405) 
0

>  <N_interactions_kept>  (405) 
1.5

>  <N_interactions_lost>  (405) 
0.5

>  <interaction_uniqueness_metric>  (405) 
0.135106

>  <ad_hoc_penalty>  (405) 
-23.888995

>  <N_rotatable_bonds>  (405) 
6

>  <N_HA>  (405) 
25

>  <cluster>  (405) 
5980

>  <N_interactions>  (405) 
4

>  <Enamine>  (405) 
1

>  <Mcule>  (405) 
0

>  <N_PAINS>  (405) 
0

>  <UFF_Gibbs>  (405) 
136.114436

>  <strain_per_HA>  (405) 
5.444577

>  <intxn_scored>  (405) 
8.0

>  <saltbridge:HIS:51>  (405) 
0

>  <pistack:HIS:51>  (405) 
1

>  <hydroph_interaction:HIS:51>  (405) 
0

>  <hbond:ALA:132>  (405) 
0

>  <hbond:SER:135>  (405) 
0

>  <hydroph_interaction:TYR:150>  (405) 
0

>  <pistack:TYR:161>  (405) 
1

>  <hydroph_interaction:TYR:161>  (405) 
1

>  <hydroph_interaction:ASP:83>  (405) 
1

>  <hbond:TYR:130>  (405) 
0

>  <hydroph_interaction:ALA:132>  (405) 
0

>  <hbond:HIS:51>  (405) 
0

>  <hbond:ASP:129>  (405) 
0

>  <hbond:TYR:150>  (405) 
0

>  <hbond:GLY:151>  (405) 
0

>  <hbond:TYR:161>  (405) 
0

>  <hydroph_interaction:TYR:130>  (405) 
0

>  <hydroph_interaction:PRO:131>  (405) 
0

>  <hydroph_interaction:ASP:129>  (405) 
0

>  <saltbridge:ASP:75>  (405) 
0

>  <saltbridge:ASP:83>  (405) 
0

>  <hbond:ASN:152>  (405) 
0

>  <hydroph_interaction:ASN:152>  (405) 
0

>  <halogenbond:TYR:150>  (405) 
0

>  <hbond:ASP:83>  (405) 
0

>  <hydroph_interaction:VAL:155>  (405) 
0

>  <pication:TYR:161>  (405) 
0

>  <hbond:PRO:131>  (405) 
0

>  <saltbridge:ASP:129>  (405) 
0

>  <hbond:THR:134>  (405) 
0

>  <pication:HIS:51>  (405) 
0

>  <hbond:SER:81>  (405) 
0

>  <hydroph_interaction:THR:134>  (405) 
0

>  <hydroph_interaction:MET:49>  (405) 
0

$$$$
CSSB00010207089
     RDKit          3D

 41 42  0  0  0  0  0  0  0  0999 V2000
   -2.1430    4.5920  -19.9860 C   0  0  0  0  0  0  0  0  0  0  0  0
   -3.1890    5.3880  -19.1910 C   0  0  0  0  0  0  0  0  0  0  0  0
   -2.7900    6.8710  -19.2030 C   0  0  0  0  0  0  0  0  0  0  0  0
   -3.2710    4.9280  -17.7310 C   0  0  0  0  0  0  0  0  0  0  0  0
   -4.5050    5.3810  -19.8030 O   0  0  0  0  0  0  0  0  0  0  0  0
   -5.5330    5.7460  -19.0110 C   0  0  0  0  0  0  0  0  0  0  0  0
   -5.3740    6.3260  -17.9570 O   0  0  0  0  0  0  0  0  0  0  0  0
   -6.7210    5.3700  -19.5270 N   0  0  0  0  0  0  0  0  0  0  0  0
   -7.8050    5.1600  -18.6790 C   0  0  0  0  0  0  0  0  0  0  0  0
   -9.1010    4.8320  -19.0500 C   0  0  0  0  0  0  0  0  0  0  0  0
  -10.0670    4.6590  -18.0650 C   0  0  0  0  0  0  0  0  0  0  0  0
   -9.7270    4.8110  -16.7130 C   0  0  0  0  0  0  0  0  0  0  0  0
   -8.4350    5.1370  -16.3240 C   0  0  0  0  0  0  0  0  0  0  0  0
   -7.4850    5.3090  -17.3220 C   0  0  0  0  0  0  0  0  0  0  0  0
   -8.0230    5.3120  -14.8730 C   0  0  0  0  0  0  0  0  0  0  0  0
   -7.5780    6.7410  -14.5870 C   0  0  0  0  0  0  0  0  0  0  0  0
   -8.8250    7.3300  -13.9240 C   0  0  0  0  0  0  0  0  0  0  0  0
   -9.1300    6.2850  -12.9750 N   0  0  0  0  0  0  0  0  0  0  0  0
   -9.1020    5.0650  -13.7940 C   0  0  0  0  0  0  0  0  0  0  0  0
   -2.4940    4.3690  -21.0010 H   0  0  0  0  0  0  0  0  0  0  0  0
   -1.1980    5.1320  -20.0830 H   0  0  0  0  0  0  0  0  0  0  0  0
   -1.9070    3.6460  -19.4880 H   0  0  0  0  0  0  0  0  0  0  0  0
   -3.4440    7.4650  -19.8500 H   0  0  0  0  0  0  0  0  0  0  0  0
   -1.7570    6.9930  -19.5490 H   0  0  0  0  0  0  0  0  0  0  0  0
   -2.8280    7.2950  -18.1920 H   0  0  0  0  0  0  0  0  0  0  0  0
   -4.2890    4.6550  -17.4430 H   0  0  0  0  0  0  0  0  0  0  0  0
   -2.6560    4.0410  -17.5770 H   0  0  0  0  0  0  0  0  0  0  0  0
   -2.9340    5.7070  -17.0420 H   0  0  0  0  0  0  0  0  0  0  0  0
   -6.9110    5.7760  -20.4350 H   0  0  0  0  0  0  0  0  0  0  0  0
   -9.3930    4.7060  -20.0890 H   0  0  0  0  0  0  0  0  0  0  0  0
  -11.0860    4.4060  -18.3420 H   0  0  0  0  0  0  0  0  0  0  0  0
  -10.4890    4.6670  -15.9600 H   0  0  0  0  0  0  0  0  0  0  0  0
   -6.4730    5.5620  -17.0310 H   0  0  0  0  0  0  0  0  0  0  0  0
   -7.1840    4.6360  -14.6550 H   0  0  0  0  0  0  0  0  0  0  0  0
   -6.7010    6.7770  -13.9310 H   0  0  0  0  0  0  0  0  0  0  0  0
   -7.3350    7.2950  -15.5010 H   0  0  0  0  0  0  0  0  0  0  0  0
   -9.6470    7.4470  -14.6410 H   0  0  0  0  0  0  0  0  0  0  0  0
   -8.6300    8.2870  -13.4380 H   0  0  0  0  0  0  0  0  0  0  0  0
   -8.4350    6.2390  -12.2350 H   0  0  0  0  0  0  0  0  0  0  0  0
  -10.0810    4.9320  -14.2750 H   0  0  0  0  0  0  0  0  0  0  0  0
   -8.9260    4.1810  -13.1720 H   0  0  0  0  0  0  0  0  0  0  0  0
  1  2  1  0
  2  3  1  0
  2  4  1  0
  2  5  1  0
  5  6  1  0
  6  7  2  0
  6  8  1  0
  8  9  1  0
  9 10  2  0
 10 11  1  0
 11 12  2  0
 12 13  1  0
 13 14  2  0
 13 15  1  0
 15 16  1  0
 16 17  1  0
 17 18  1  0
 18 19  1  0
 14  9  1  0
 19 15  1  0
  1 20  1  0
  1 21  1  0
  1 22  1  0
  3 23  1  0
  3 24  1  0
  3 25  1  0
  4 26  1  0
  4 27  1  0
  4 28  1  0
  8 29  1  0
 10 30  1  0
 11 31  1  0
 12 32  1  0
 14 33  1  0
 15 34  1  0
 16 35  1  0
 16 36  1  0
 17 37  1  0
 17 38  1  0
 18 39  1  0
 19 40  1  0
 19 41  1  0
A    1
 C1 
A    2
 C2 
A    3
 C3 
A    4
 C4 
A    5
 O1 
A    6
 C5 
A    7
 O2 
A    8
 N1 
A    9
 C6 
A   10
 C7 
A   11
 C8 
A   12
 C9 
A   13
 C10
A   14
 C11
A   15
 C12
A   16
 C13
A   17
 C14
A   18
 N2 
A   19
 C15
A   20
 H1 
A   21
 H2 
A   22
 H3 
A   23
 H4 
A   24
 H5 
A   25
 H6 
A   26
 H7 
A   27
 H8 
A   28
 H9 
A   29
 H10
A   30
 H11
A   31
 H12
A   32
 H13
A   33
 H14
A   34
 H15
A   35
 H16
A   36
 H17
A   37
 H18
A   38
 H19
A   39
 H20
A   40
 H21
A   41
 H22
M  END
>  <ref_pdb>  (406) 
x0051_0B

>  <ref_mols>  (406) 
x0089_0B,x0951_0B

>  <original SMILES>  (406) 
[H]c1c([H])c(N([H])C(=O)OC(C([H])([H])[H])(C([H])([H])[H])C([H])([H])[H])c([H])c(C2([H])C([H])([H])N([H])C([H])([H])C2([H])[H])c1[H]

>  <index>  (406) 
1

>  <∆∆G>  (406) 
-7.374585

>  <∆G_bound>  (406) 
-7.025252

>  <∆G_unbound>  (406) 
0.349333

>  <comRMSD>  (406) 
0.694427

>  <N_constrained_atoms>  (406) 
19.0

>  <N_unconstrained_atoms>  (406) 
1.0

>  <runtime>  (406) 
104.235288

>  <LE>  (406) 
0.368729

>  <percent_hybrid>  (406) 
47.0

>  <dist>  (406) 
7.0

>  <ecfp4>  (406) 
0.238806

>  <daylight>  (406) 
0.395522

>  <topodist>  (406) 
3.0

>  <mces>  (406) 
18.0

>  <tdn>  (406) 
0.0

>  <tup>  (406) 
1.0

>  <rdn>  (406) 
0.0

>  <rup>  (406) 
1.0

>  <ldn>  (406) 
1.0

>  <lup>  (406) 
0.0

>  <mut>  (406) 
3.0

>  <maj>  (406) 
3.0

>  <min>  (406) 
0.0

>  <hyb>  (406) 
1.0

>  <sub>  (406) 
3.0

>  <query_index>  (406) 
292.0

>  <max_hit_Tanimoto>  (406) 
0.135572

>  <largest_ring>  (406) 
0

>  <N_interactions_kept>  (406) 
2.0

>  <N_interactions_lost>  (406) 
1.5

>  <interaction_uniqueness_metric>  (406) 
0.187529

>  <ad_hoc_penalty>  (406) 
-38.881193

>  <N_rotatable_bonds>  (406) 
2

>  <N_HA>  (406) 
19

>  <cluster>  (406) 
6215

>  <N_interactions>  (406) 
9

>  <Enamine>  (406) 
1

>  <Mcule>  (406) 
0

>  <N_PAINS>  (406) 
0

>  <UFF_Gibbs>  (406) 
274.145657

>  <strain_per_HA>  (406) 
14.428719

>  <intxn_scored>  (406) 
8.0

>  <saltbridge:HIS:51>  (406) 
0

>  <pistack:HIS:51>  (406) 
0

>  <hydroph_interaction:HIS:51>  (406) 
0

>  <hbond:ALA:132>  (406) 
0

>  <hbond:SER:135>  (406) 
0

>  <hydroph_interaction:TYR:150>  (406) 
1

>  <pistack:TYR:161>  (406) 
0

>  <hydroph_interaction:TYR:161>  (406) 
4

>  <hydroph_interaction:ASP:83>  (406) 
0

>  <hbond:TYR:130>  (406) 
1

>  <hydroph_interaction:ALA:132>  (406) 
1

>  <hbond:HIS:51>  (406) 
1

>  <hbond:ASP:129>  (406) 
0

>  <hbond:TYR:150>  (406) 
0

>  <hbond:GLY:151>  (406) 
0

>  <hbond:TYR:161>  (406) 
0

>  <hydroph_interaction:TYR:130>  (406) 
0

>  <hydroph_interaction:PRO:131>  (406) 
0

>  <hydroph_interaction:ASP:129>  (406) 
0

>  <saltbridge:ASP:75>  (406) 
0

>  <saltbridge:ASP:83>  (406) 
0

>  <hbond:ASN:152>  (406) 
0

>  <hydroph_interaction:ASN:152>  (406) 
0

>  <halogenbond:TYR:150>  (406) 
0

>  <hbond:ASP:83>  (406) 
0

>  <hydroph_interaction:VAL:155>  (406) 
1

>  <pication:TYR:161>  (406) 
0

>  <hbond:PRO:131>  (406) 
0

>  <saltbridge:ASP:129>  (406) 
0

>  <hbond:THR:134>  (406) 
0

>  <pication:HIS:51>  (406) 
0

>  <hbond:SER:81>  (406) 
0

>  <hydroph_interaction:THR:134>  (406) 
0

>  <hydroph_interaction:MET:49>  (406) 
0

$$$$
CSSB00105101956
     RDKit          3D

 31 32  0  0  0  0  0  0  0  0999 V2000
   -3.9710    5.2060  -18.0230 Br  0  0  0  0  0  0  0  0  0  0  0  0
   -3.9130    5.3390  -19.9130 C   0  0  0  0  0  0  0  0  0  0  0  0
   -2.5330    5.5290  -20.5190 C   0  0  0  0  0  0  0  0  0  0  0  0
   -2.4780    5.6470  -22.0540 C   0  0  0  0  0  0  0  0  0  0  0  0
   -3.8560    5.5520  -22.7550 C   0  0  0  0  0  0  0  0  0  0  0  0
   -5.0580    5.3690  -22.0780 C   0  0  0  0  0  0  0  0  0  0  0  0
   -5.0310    5.2710  -20.7140 C   0  0  0  0  0  0  0  0  0  0  0  0
   -6.3880    5.0980  -20.4510 C   0  0  0  0  0  0  0  0  0  0  0  0
   -7.0460    4.3180  -21.1310 O   0  0  0  0  0  0  0  0  0  0  0  0
   -6.8000    5.8560  -19.4000 N   0  0  0  0  0  0  0  0  0  0  0  0
   -7.7350    5.5080  -18.3970 C   0  0  0  0  0  0  0  0  0  0  0  0
   -8.9910    5.0430  -18.8120 C   0  0  0  0  0  0  0  0  0  0  0  0
   -9.9470    4.7180  -17.8710 C   0  0  0  0  0  0  0  0  0  0  0  0
   -9.6520    4.8430  -16.5120 C   0  0  0  0  0  0  0  0  0  0  0  0
   -8.3970    5.2910  -16.0870 C   0  0  0  0  0  0  0  0  0  0  0  0
   -7.9600    5.4560  -14.7960 O   0  0  0  0  0  0  0  0  0  0  0  0
   -8.9190    5.3970  -13.7420 C   0  0  0  0  0  0  0  0  0  0  0  0
   -9.4690    6.6590  -13.5570 C   0  0  0  0  0  0  0  0  0  0  0  0
   -9.9670    7.7030  -13.4530 N   0  0  0  0  0  0  0  0  0  0  0  0
   -7.4510    5.6210  -17.0450 C   0  0  0  0  0  0  0  0  0  0  0  0
   -1.6460    5.5800  -19.8900 H   0  0  0  0  0  0  0  0  0  0  0  0
   -1.5410    5.7870  -22.6040 H   0  0  0  0  0  0  0  0  0  0  0  0
   -3.8830    5.6280  -23.8390 H   0  0  0  0  0  0  0  0  0  0  0  0
   -5.9980    5.3040  -22.6230 H   0  0  0  0  0  0  0  0  0  0  0  0
   -6.6110    6.8480  -19.4790 H   0  0  0  0  0  0  0  0  0  0  0  0
   -9.2310    4.9420  -19.8690 H   0  0  0  0  0  0  0  0  0  0  0  0
  -10.9250    4.3670  -18.1940 H   0  0  0  0  0  0  0  0  0  0  0  0
  -10.4260    4.5790  -15.8080 H   0  0  0  0  0  0  0  0  0  0  0  0
   -8.4350    5.0780  -12.8080 H   0  0  0  0  0  0  0  0  0  0  0  0
   -9.7220    4.6920  -13.9980 H   0  0  0  0  0  0  0  0  0  0  0  0
   -6.4820    5.9730  -16.7020 H   0  0  0  0  0  0  0  0  0  0  0  0
  1  2  1  0
  2  3  2  0
  3  4  1  0
  4  5  2  0
  5  6  1  0
  6  7  2  0
  7  8  1  0
  8  9  2  0
  8 10  1  0
 10 11  1  0
 11 12  2  0
 12 13  1  0
 13 14  2  0
 14 15  1  0
 15 16  1  0
 16 17  1  0
 17 18  1  0
 18 19  3  0
 15 20  2  0
  7  2  1  0
 20 11  1  0
  3 21  1  0
  4 22  1  0
  5 23  1  0
  6 24  1  0
 10 25  1  0
 12 26  1  0
 13 27  1  0
 14 28  1  0
 17 29  1  0
 17 30  1  0
 20 31  1  0
A    1
BR1 
A    2
 C1 
A    3
 C2 
A    4
 C3 
A    5
 C4 
A    6
 C5 
A    7
 C6 
A    8
 C7 
A    9
 O1 
A   10
 N1 
A   11
 C8 
A   12
 C9 
A   13
 C10
A   14
 C11
A   15
 C12
A   16
 O2 
A   17
 C13
A   18
 C14
A   19
 N2 
A   20
 C15
A   21
 H1 
A   22
 H2 
A   23
 H3 
A   24
 H4 
A   25
 H5 
A   26
 H6 
A   27
 H7 
A   28
 H8 
A   29
 H9 
A   30
 H10
A   31
 H11
M  END
>  <ref_pdb>  (407) 
x0051_0B

>  <ref_mols>  (407) 
x0852_0B,x0951_0B

>  <original SMILES>  (407) 
[H]c1c([H])c([H])c(C(=O)N([H])c2c([H])c([H])c([H])c(OC([H])([H])C#N)c2[H])c(Br)c1[H]

>  <index>  (407) 
875

>  <∆∆G>  (407) 
-6.673091

>  <∆G_bound>  (407) 
-6.166243

>  <∆G_unbound>  (407) 
0.506848

>  <comRMSD>  (407) 
0.40464

>  <N_constrained_atoms>  (407) 
22.0

>  <N_unconstrained_atoms>  (407) 
0.0

>  <runtime>  (407) 
42.921566

>  <LE>  (407) 
0.303322

>  <percent_hybrid>  (407) 
27.0

>  <dist>  (407) 
9.0

>  <ecfp4>  (407) 
0.185185

>  <daylight>  (407) 
0.297297

>  <topodist>  (407) 
4.0

>  <mces>  (407) 
21.0

>  <tdn>  (407) 
3.0

>  <tup>  (407) 
0.0

>  <rdn>  (407) 
1.0

>  <rup>  (407) 
0.0

>  <ldn>  (407) 
0.0

>  <lup>  (407) 
0.0

>  <mut>  (407) 
5.0

>  <maj>  (407) 
4.0

>  <min>  (407) 
1.0

>  <hyb>  (407) 
0.0

>  <sub>  (407) 
2.0

>  <query_index>  (407) 
95.0

>  <max_hit_Tanimoto>  (407) 
0.36695

>  <largest_ring>  (407) 
6

>  <N_interactions_kept>  (407) 
2.0

>  <N_interactions_lost>  (407) 
4.0

>  <interaction_uniqueness_metric>  (407) 
0.196153

>  <ad_hoc_penalty>  (407) 
-16.444814

>  <N_rotatable_bonds>  (407) 
4

>  <N_HA>  (407) 
20

>  <cluster>  (407) 
516

>  <N_interactions>  (407) 
9

>  <Enamine>  (407) 
1

>  <Mcule>  (407) 
0

>  <N_PAINS>  (407) 
0

>  <UFF_Gibbs>  (407) 
105.289474

>  <strain_per_HA>  (407) 
5.264474

>  <intxn_scored>  (407) 
8.0

>  <saltbridge:HIS:51>  (407) 
0

>  <pistack:HIS:51>  (407) 
0

>  <hydroph_interaction:HIS:51>  (407) 
0

>  <hbond:ALA:132>  (407) 
0

>  <hbond:SER:135>  (407) 
0

>  <hydroph_interaction:TYR:150>  (407) 
1

>  <pistack:TYR:161>  (407) 
0

>  <hydroph_interaction:TYR:161>  (407) 
3

>  <hydroph_interaction:ASP:83>  (407) 
0

>  <hbond:TYR:130>  (407) 
1

>  <hydroph_interaction:ALA:132>  (407) 
1

>  <hbond:HIS:51>  (407) 
0

>  <hbond:ASP:129>  (407) 
1

>  <hbond:TYR:150>  (407) 
0

>  <hbond:GLY:151>  (407) 
0

>  <hbond:TYR:161>  (407) 
1

>  <hydroph_interaction:TYR:130>  (407) 
0

>  <hydroph_interaction:PRO:131>  (407) 
0

>  <hydroph_interaction:ASP:129>  (407) 
1

>  <saltbridge:ASP:75>  (407) 
0

>  <saltbridge:ASP:83>  (407) 
0

>  <hbond:ASN:152>  (407) 
0

>  <hydroph_interaction:ASN:152>  (407) 
0

>  <halogenbond:TYR:150>  (407) 
0

>  <hbond:ASP:83>  (407) 
0

>  <hydroph_interaction:VAL:155>  (407) 
0

>  <pication:TYR:161>  (407) 
0

>  <hbond:PRO:131>  (407) 
0

>  <saltbridge:ASP:129>  (407) 
0

>  <hbond:THR:134>  (407) 
0

>  <pication:HIS:51>  (407) 
0

>  <hbond:SER:81>  (407) 
0

>  <hydroph_interaction:THR:134>  (407) 
0

>  <hydroph_interaction:MET:49>  (407) 
0

$$$$
Z2766424294
     RDKit          3D

 50 52  0  0  0  0  0  0  0  0999 V2000
   -2.3350    4.8330  -21.7780 C   0  0  0  0  0  0  0  0  0  0  0  0
   -3.6430    5.3520  -21.3930 N   0  0  0  0  0  0  0  0  0  0  0  0
   -4.6510    5.3220  -22.4270 C   0  0  0  0  0  0  0  0  0  0  0  0
   -4.1530    5.3620  -20.0810 C   0  0  0  0  0  0  0  0  0  0  0  0
   -3.4370    5.0540  -19.1260 O   0  0  0  0  0  0  0  0  0  0  0  0
   -5.5030    5.7200  -19.8600 C   0  0  0  0  0  0  0  0  0  0  0  0
   -5.8730    5.8320  -18.4920 O   0  0  0  0  0  0  0  0  0  0  0  0
   -7.1460    5.4850  -18.1640 C   0  0  0  0  0  0  0  0  0  0  0  0
   -8.1610    4.9100  -19.1020 C   0  0  0  0  0  0  0  0  0  0  0  0
   -9.4330    4.5970  -18.6200 C   0  0  0  0  0  0  0  0  0  0  0  0
   -9.7560    4.8210  -17.2820 C   0  0  0  0  0  0  0  0  0  0  0  0
   -8.8320    5.3630  -16.3840 C   0  0  0  0  0  0  0  0  0  0  0  0
   -9.3520    5.5590  -14.9750 N   0  0  0  0  0  0  0  0  0  0  0  0
   -8.4560    5.7960  -13.7740 C   0  0  0  0  0  0  0  0  0  0  0  0
   -7.5390    6.6160  -13.7040 O   0  0  0  0  0  0  0  0  0  0  0  0
   -8.7930    4.8720  -12.5410 C   0  0  0  0  0  0  0  0  0  0  0  0
   -8.7950    5.2990  -11.1610 C   0  0  0  0  0  0  0  0  0  0  0  0
   -8.9290    4.3370  -10.0190 C   0  0  0  0  0  0  0  0  0  0  0  0
   -9.0630    2.8600  -10.2640 C   0  0  0  0  0  0  0  0  0  0  0  0
   -8.6990    2.2040   -8.9380 C   0  0  0  0  0  0  0  0  0  0  0  0
   -9.4370    2.8410   -7.7580 C   0  0  0  0  0  0  0  0  0  0  0  0
   -9.0150    4.3070   -7.5610 C   0  0  0  0  0  0  0  0  0  0  0  0
   -8.9030    4.9810   -8.8520 N   0  0  0  0  0  0  0  0  0  0  0  0
   -8.7620    6.3140   -9.0320 N   0  0  0  0  0  0  0  0  0  0  0  0
   -8.7000    6.5140  -10.4010 C   0  0  0  0  0  0  0  0  0  0  0  0
   -7.5290    5.6930  -16.8180 C   0  0  0  0  0  0  0  0  0  0  0  0
   -1.9400    4.0910  -21.0760 H   0  0  0  0  0  0  0  0  0  0  0  0
   -1.6240    5.6600  -21.8530 H   0  0  0  0  0  0  0  0  0  0  0  0
   -2.4220    4.3620  -22.7640 H   0  0  0  0  0  0  0  0  0  0  0  0
   -5.3020    6.2010  -22.3650 H   0  0  0  0  0  0  0  0  0  0  0  0
   -5.2680    4.4190  -22.3390 H   0  0  0  0  0  0  0  0  0  0  0  0
   -4.1370    5.3140  -23.3930 H   0  0  0  0  0  0  0  0  0  0  0  0
   -6.1080    4.9130  -20.2620 H   0  0  0  0  0  0  0  0  0  0  0  0
   -5.7650    6.6280  -20.4130 H   0  0  0  0  0  0  0  0  0  0  0  0
   -7.9510    4.7210  -20.1510 H   0  0  0  0  0  0  0  0  0  0  0  0
  -10.1710    4.1810  -19.2780 H   0  0  0  0  0  0  0  0  0  0  0  0
  -10.7580    4.5570  -16.9690 H   0  0  0  0  0  0  0  0  0  0  0  0
  -10.2670    5.9940  -14.9190 H   0  0  0  0  0  0  0  0  0  0  0  0
   -9.7320    4.3280  -12.6440 H   0  0  0  0  0  0  0  0  0  0  0  0
   -8.0380    4.0790  -12.6170 H   0  0  0  0  0  0  0  0  0  0  0  0
   -8.3710    2.5420  -11.0520 H   0  0  0  0  0  0  0  0  0  0  0  0
  -10.0840    2.5930  -10.5580 H   0  0  0  0  0  0  0  0  0  0  0  0
   -8.9160    1.1420   -8.9620 H   0  0  0  0  0  0  0  0  0  0  0  0
   -7.6240    2.3070   -8.7900 H   0  0  0  0  0  0  0  0  0  0  0  0
  -10.5200    2.7780   -7.9330 H   0  0  0  0  0  0  0  0  0  0  0  0
   -9.2300    2.2750   -6.8450 H   0  0  0  0  0  0  0  0  0  0  0  0
   -9.7520    4.8440   -6.9480 H   0  0  0  0  0  0  0  0  0  0  0  0
   -8.0310    4.3660   -7.0930 H   0  0  0  0  0  0  0  0  0  0  0  0
   -8.5880    7.5270  -10.7690 H   0  0  0  0  0  0  0  0  0  0  0  0
   -6.8020    6.1130  -16.1310 H   0  0  0  0  0  0  0  0  0  0  0  0
  1  2  1  0
  2  3  1  0
  2  4  1  0
  4  5  2  0
  4  6  1  0
  6  7  1  0
  7  8  1  0
  8  9  2  0
  9 10  1  0
 10 11  2  0
 11 12  1  0
 12 13  1  0
 13 14  1  0
 14 15  2  0
 14 16  1  0
 16 17  1  0
 17 18  2  0
 18 19  1  0
 19 20  1  0
 20 21  1  0
 21 22  1  0
 22 23  1  0
 23 24  1  0
 24 25  2  0
 12 26  2  0
 26  8  1  0
 25 17  1  0
 23 18  1  0
  1 27  1  0
  1 28  1  0
  1 29  1  0
  3 30  1  0
  3 31  1  0
  3 32  1  0
  6 33  1  0
  6 34  1  0
  9 35  1  0
 10 36  1  0
 11 37  1  0
 13 38  1  0
 16 39  1  0
 16 40  1  0
 19 41  1  0
 19 42  1  0
 20 43  1  0
 20 44  1  0
 21 45  1  0
 21 46  1  0
 22 47  1  0
 22 48  1  0
 25 49  1  0
 26 50  1  0
A    1
 C1 
A    2
 N1 
A    3
 C2 
A    4
 C3 
A    5
 O1 
A    6
 C4 
A    7
 O2 
A    8
 C5 
A    9
 C6 
A   10
 C7 
A   11
 C8 
A   12
 C9 
A   13
 N2 
A   14
 C10
A   15
 O3 
A   16
 C11
A   17
 C12
A   18
 C13
A   19
 C14
A   20
 C15
A   21
 C16
A   22
 C17
A   23
 N3 
A   24
 N4 
A   25
 C18
A   26
 C19
A   27
 H1 
A   28
 H2 
A   29
 H3 
A   30
 H4 
A   31
 H5 
A   32
 H6 
A   33
 H7 
A   34
 H8 
A   35
 H9 
A   36
 H10
A   37
 H11
A   38
 H12
A   39
 H13
A   40
 H14
A   41
 H15
A   42
 H16
A   43
 H17
A   44
 H18
A   45
 H19
A   46
 H20
A   47
 H21
A   48
 H22
A   49
 H23
A   50
 H24
M  END
>  <ref_pdb>  (408) 
x0051_0B

>  <ref_mols>  (408) 
x0969_1B,x0904_0B

>  <original SMILES>  (408) 
[H]c1nn2c(c1C([H])([H])C(=O)N([H])c1c([H])c([H])c([H])c(OC([H])([H])C(=O)N(C([H])([H])[H])C([H])([H])[H])c1[H])C([H])([H])C([H])([H])C([H])([H])C2([H])[H]

>  <index>  (408) 
1238

>  <∆∆G>  (408) 
-10.013454

>  <∆G_bound>  (408) 
-9.439406

>  <∆G_unbound>  (408) 
0.574048

>  <comRMSD>  (408) 
0.558366

>  <N_constrained_atoms>  (408) 
24.0

>  <N_unconstrained_atoms>  (408) 
2.0

>  <runtime>  (408) 
62.917752

>  <LE>  (408) 
0.385133

>  <percent_hybrid>  (408) 
42.0

>  <dist>  (408) 
5.0

>  <ecfp4>  (408) 
0.557143

>  <daylight>  (408) 
0.365449

>  <topodist>  (408) 
2.0

>  <mces>  (408) 
27.0

>  <tdn>  (408) 
0.0

>  <tup>  (408) 
1.0

>  <rdn>  (408) 
0.0

>  <rup>  (408) 
0.0

>  <ldn>  (408) 
1.0

>  <lup>  (408) 
0.0

>  <mut>  (408) 
2.0

>  <maj>  (408) 
2.0

>  <min>  (408) 
0.0

>  <hyb>  (408) 
1.0

>  <sub>  (408) 
0.0

>  <query_index>  (408) 
111.0

>  <max_hit_Tanimoto>  (408) 
0.315891

>  <largest_ring>  (408) 
6

>  <N_interactions_kept>  (408) 
1.5

>  <N_interactions_lost>  (408) 
2.0

>  <interaction_uniqueness_metric>  (408) 
0.163212

>  <ad_hoc_penalty>  (408) 
-14.521076

>  <N_rotatable_bonds>  (408) 
8

>  <N_HA>  (408) 
26

>  <cluster>  (408) 
5076

>  <N_interactions>  (408) 
5

>  <Enamine>  (408) 
1

>  <Mcule>  (408) 
0

>  <N_PAINS>  (408) 
0

>  <UFF_Gibbs>  (408) 
101.384958

>  <strain_per_HA>  (408) 
3.899421

>  <intxn_scored>  (408) 
8.0

>  <saltbridge:HIS:51>  (408) 
0

>  <pistack:HIS:51>  (408) 
1

>  <hydroph_interaction:HIS:51>  (408) 
0

>  <hbond:ALA:132>  (408) 
0

>  <hbond:SER:135>  (408) 
0

>  <hydroph_interaction:TYR:150>  (408) 
1

>  <pistack:TYR:161>  (408) 
1

>  <hydroph_interaction:TYR:161>  (408) 
0

>  <hydroph_interaction:ASP:83>  (408) 
1

>  <hbond:TYR:130>  (408) 
0

>  <hydroph_interaction:ALA:132>  (408) 
1

>  <hbond:HIS:51>  (408) 
0

>  <hbond:ASP:129>  (408) 
0

>  <hbond:TYR:150>  (408) 
0

>  <hbond:GLY:151>  (408) 
0

>  <hbond:TYR:161>  (408) 
0

>  <hydroph_interaction:TYR:130>  (408) 
0

>  <hydroph_interaction:PRO:131>  (408) 
0

>  <hydroph_interaction:ASP:129>  (408) 
0

>  <saltbridge:ASP:75>  (408) 
0

>  <saltbridge:ASP:83>  (408) 
0

>  <hbond:ASN:152>  (408) 
0

>  <hydroph_interaction:ASN:152>  (408) 
0

>  <halogenbond:TYR:150>  (408) 
0

>  <hbond:ASP:83>  (408) 
0

>  <hydroph_interaction:VAL:155>  (408) 
0

>  <pication:TYR:161>  (408) 
0

>  <hbond:PRO:131>  (408) 
0

>  <saltbridge:ASP:129>  (408) 
0

>  <hbond:THR:134>  (408) 
0

>  <pication:HIS:51>  (408) 
0

>  <hbond:SER:81>  (408) 
0

>  <hydroph_interaction:THR:134>  (408) 
0

>  <hydroph_interaction:MET:49>  (408) 
0

$$$$
CSSS00000694644
     RDKit          3D

 22 22  0  0  0  0  0  0  0  0999 V2000
   -5.0920    5.3360  -19.1930 C   0  0  0  0  0  0  0  0  0  0  0  0
   -6.5110    5.6740  -19.6570 C   0  0  0  0  0  0  0  0  0  0  0  0
   -6.5140    7.1540  -20.0490 C   0  0  0  0  0  0  0  0  0  0  0  0
   -6.7890    4.9290  -20.8470 O   0  0  0  0  0  0  0  0  0  0  0  0
   -7.6080    5.3810  -18.6480 C   0  0  0  0  0  0  0  0  0  0  0  0
   -7.3210    5.5610  -17.2910 C   0  0  0  0  0  0  0  0  0  0  0  0
   -8.2920    5.3120  -16.3270 C   0  0  0  0  0  0  0  0  0  0  0  0
   -9.5580    4.8830  -16.7100 C   0  0  0  0  0  0  0  0  0  0  0  0
   -9.8630    4.6970  -18.0600 C   0  0  0  0  0  0  0  0  0  0  0  0
   -8.8850    4.9450  -19.0230 C   0  0  0  0  0  0  0  0  0  0  0  0
   -4.5840    6.2370  -18.8320 H   0  0  0  0  0  0  0  0  0  0  0  0
   -5.0900    4.5980  -18.3900 H   0  0  0  0  0  0  0  0  0  0  0  0
   -4.5010    4.9550  -20.0310 H   0  0  0  0  0  0  0  0  0  0  0  0
   -6.0260    7.4660  -20.9700 H   0  0  0  0  0  0  0  0  0  0  0  0
   -6.0990    7.7590  -19.2360 H   0  0  0  0  0  0  0  0  0  0  0  0
   -7.5460    7.4470  -20.1630 H   0  0  0  0  0  0  0  0  0  0  0  0
   -7.4430    5.4550  -21.3550 H   0  0  0  0  0  0  0  0  0  0  0  0
   -6.3320    5.9000  -16.9780 H   0  0  0  0  0  0  0  0  0  0  0  0
   -8.0590    5.4550  -15.2760 H   0  0  0  0  0  0  0  0  0  0  0  0
  -10.3080    4.6920  -15.9500 H   0  0  0  0  0  0  0  0  0  0  0  0
  -10.8510    4.3640  -18.3570 H   0  0  0  0  0  0  0  0  0  0  0  0
   -9.2220    4.7700  -20.0500 H   0  0  0  0  0  0  0  0  0  0  0  0
  1  2  1  0
  2  3  1  0
  2  4  1  0
  2  5  1  0
  5  6  2  0
  6  7  1  0
  7  8  2  0
  8  9  1  0
  9 10  2  0
 10  5  1  0
  1 11  1  0
  1 12  1  0
  1 13  1  0
  3 14  1  0
  3 15  1  0
  3 16  1  0
  4 17  1  0
  6 18  1  0
  7 19  1  0
  8 20  1  0
  9 21  1  0
 10 22  1  0
A    1
 C1 
A    2
 C2 
A    3
 C3 
A    4
 O1 
A    5
 C4 
A    6
 C5 
A    7
 C6 
A    8
 C7 
A    9
 C8 
A   10
 C9 
A   11
 H1 
A   12
 H2 
A   13
 H3 
A   14
 H4 
A   15
 H5 
A   16
 H6 
A   17
 H7 
A   18
 H8 
A   19
 H9 
A   20
 H10
A   21
 H11
A   22
 H12
M  END
>  <ref_pdb>  (409) 
x0051_0B

>  <ref_mols>  (409) 
x0727_0B,x0693_0B

>  <original SMILES>  (409) 
[H]OC(c1c([H])c([H])c([H])c([H])c1[H])(C([H])([H])[H])C([H])([H])[H]

>  <index>  (409) 
2817

>  <∆∆G>  (409) 
-7.12728

>  <∆G_bound>  (409) 
-7.24392

>  <∆G_unbound>  (409) 
-0.11664

>  <comRMSD>  (409) 
0.800053

>  <N_constrained_atoms>  (409) 
13.0

>  <N_unconstrained_atoms>  (409) 
1.0

>  <runtime>  (409) 
23.528936

>  <LE>  (409) 
0.509091

>  <percent_hybrid>  (409) 
43.0

>  <dist>  (409) 
5.0

>  <ecfp4>  (409) 
0.243902

>  <daylight>  (409) 
0.309524

>  <topodist>  (409) 
5.0

>  <mces>  (409) 
10.0

>  <tdn>  (409) 
4.0

>  <tup>  (409) 
0.0

>  <rdn>  (409) 
1.0

>  <rup>  (409) 
0.0

>  <ldn>  (409) 
0.0

>  <lup>  (409) 
0.0

>  <mut>  (409) 
0.0

>  <maj>  (409) 
0.0

>  <min>  (409) 
0.0

>  <hyb>  (409) 
0.0

>  <sub>  (409) 
2.0

>  <query_index>  (409) 
129.0

>  <max_hit_Tanimoto>  (409) 
0.107612

>  <largest_ring>  (409) 
6

>  <N_interactions_kept>  (409) 
2.0

>  <N_interactions_lost>  (409) 
3.0

>  <interaction_uniqueness_metric>  (409) 
0.084328

>  <ad_hoc_penalty>  (409) 
-6.87909

>  <N_rotatable_bonds>  (409) 
4

>  <N_HA>  (409) 
10

>  <cluster>  (409) 
3618

>  <N_interactions>  (409) 
5

>  <Enamine>  (409) 
1

>  <Mcule>  (409) 
0

>  <N_PAINS>  (409) 
0

>  <UFF_Gibbs>  (409) 
13.96927

>  <strain_per_HA>  (409) 
1.396927

>  <intxn_scored>  (409) 
8.0

>  <saltbridge:HIS:51>  (409) 
0

>  <pistack:HIS:51>  (409) 
0

>  <hydroph_interaction:HIS:51>  (409) 
0

>  <hbond:ALA:132>  (409) 
0

>  <hbond:SER:135>  (409) 
0

>  <hydroph_interaction:TYR:150>  (409) 
1

>  <pistack:TYR:161>  (409) 
1

>  <hydroph_interaction:TYR:161>  (409) 
1

>  <hydroph_interaction:ASP:83>  (409) 
0

>  <hbond:TYR:130>  (409) 
1

>  <hydroph_interaction:ALA:132>  (409) 
1

>  <hbond:HIS:51>  (409) 
0

>  <hbond:ASP:129>  (409) 
0

>  <hbond:TYR:150>  (409) 
0

>  <hbond:GLY:151>  (409) 
0

>  <hbond:TYR:161>  (409) 
0

>  <hydroph_interaction:TYR:130>  (409) 
0

>  <hydroph_interaction:PRO:131>  (409) 
0

>  <hydroph_interaction:ASP:129>  (409) 
0

>  <saltbridge:ASP:75>  (409) 
0

>  <saltbridge:ASP:83>  (409) 
0

>  <hbond:ASN:152>  (409) 
0

>  <hydroph_interaction:ASN:152>  (409) 
0

>  <halogenbond:TYR:150>  (409) 
0

>  <hbond:ASP:83>  (409) 
0

>  <hydroph_interaction:VAL:155>  (409) 
0

>  <pication:TYR:161>  (409) 
0

>  <hbond:PRO:131>  (409) 
0

>  <saltbridge:ASP:129>  (409) 
0

>  <hbond:THR:134>  (409) 
0

>  <pication:HIS:51>  (409) 
0

>  <hbond:SER:81>  (409) 
0

>  <hydroph_interaction:THR:134>  (409) 
0

>  <hydroph_interaction:MET:49>  (409) 
0

$$$$
Z4111927536
     RDKit          3D

 43 45  0  0  0  0  0  0  0  0999 V2000
   -5.6630    5.3440  -19.3450 C   0  0  0  0  0  0  0  0  0  0  0  0
   -6.7840    5.3510  -18.3920 C   0  0  0  0  0  0  0  0  0  0  0  0
   -8.0720    5.0720  -18.8080 C   0  0  0  0  0  0  0  0  0  0  0  0
   -9.0890    5.0990  -17.8850 C   0  0  0  0  0  0  0  0  0  0  0  0
  -10.8110    4.7730  -18.4920 Br  0  0  0  0  0  0  0  0  0  0  0  0
   -8.8720    5.4060  -16.4650 C   0  0  0  0  0  0  0  0  0  0  0  0
   -7.5620    5.6880  -16.0900 C   0  0  0  0  0  0  0  0  0  0  0  0
   -7.2390    6.0290  -14.7640 N   0  0  0  0  0  0  0  0  0  0  0  0
   -7.6550    7.3100  -14.4010 N   0  0  0  0  0  0  0  0  0  0  0  0
   -8.8710    7.2990  -13.7870 C   0  0  0  0  0  0  0  0  0  0  0  0
   -9.8630    7.8240  -14.2590 O   0  0  0  0  0  0  0  0  0  0  0  0
   -8.8960    6.6150  -12.5860 C   0  0  0  0  0  0  0  0  0  0  0  0
   -8.8430    7.2590  -11.3580 C   0  0  0  0  0  0  0  0  0  0  0  0
   -8.8660    6.4880  -10.1980 C   0  0  0  0  0  0  0  0  0  0  0  0
   -8.9400    5.0880  -10.2800 C   0  0  0  0  0  0  0  0  0  0  0  0
   -8.9810    4.3400   -9.0950 N   0  0  0  0  0  0  0  0  0  0  0  0
   -9.1310    2.8780   -9.2240 C   0  0  0  0  0  0  0  0  0  0  0  0
   -9.6570    2.3480   -7.9130 C   0  0  0  0  0  0  0  0  0  0  0  0
   -8.7900    2.7100   -6.8230 O   0  0  0  0  0  0  0  0  0  0  0  0
   -8.6020    4.1300   -6.6890 C   0  0  0  0  0  0  0  0  0  0  0  0
   -8.0970    4.7920   -7.9960 C   0  0  0  0  0  0  0  0  0  0  0  0
   -8.9860    4.4640  -11.4740 N   0  0  0  0  0  0  0  0  0  0  0  0
   -8.9660    5.2260  -12.5950 C   0  0  0  0  0  0  0  0  0  0  0  0
   -6.5460    5.6530  -17.0500 C   0  0  0  0  0  0  0  0  0  0  0  0
   -4.7580    4.9410  -18.8820 H   0  0  0  0  0  0  0  0  0  0  0  0
   -5.4550    6.3580  -19.7070 H   0  0  0  0  0  0  0  0  0  0  0  0
   -5.9050    4.7190  -20.2150 H   0  0  0  0  0  0  0  0  0  0  0  0
   -8.3010    4.8400  -19.8460 H   0  0  0  0  0  0  0  0  0  0  0  0
   -9.7010    5.4220  -15.7670 H   0  0  0  0  0  0  0  0  0  0  0  0
   -7.4970    5.3320  -14.0580 H   0  0  0  0  0  0  0  0  0  0  0  0
   -6.9370    8.0050  -14.2490 H   0  0  0  0  0  0  0  0  0  0  0  0
   -8.7860    8.3460  -11.3190 H   0  0  0  0  0  0  0  0  0  0  0  0
   -8.8310    6.9670   -9.2230 H   0  0  0  0  0  0  0  0  0  0  0  0
   -8.1420    2.4380   -9.4040 H   0  0  0  0  0  0  0  0  0  0  0  0
   -9.7850    2.5660  -10.0500 H   0  0  0  0  0  0  0  0  0  0  0  0
  -10.6540    2.7310   -7.6750 H   0  0  0  0  0  0  0  0  0  0  0  0
   -9.7200    1.2630   -7.9370 H   0  0  0  0  0  0  0  0  0  0  0  0
   -7.9250    4.2910   -5.8460 H   0  0  0  0  0  0  0  0  0  0  0  0
   -9.5770    4.5530   -6.4170 H   0  0  0  0  0  0  0  0  0  0  0  0
   -7.0720    4.4730   -8.2120 H   0  0  0  0  0  0  0  0  0  0  0  0
   -8.1040    5.8820   -7.9290 H   0  0  0  0  0  0  0  0  0  0  0  0
   -9.0080    4.6640  -13.5250 H   0  0  0  0  0  0  0  0  0  0  0  0
   -5.5260    5.8750  -16.7440 H   0  0  0  0  0  0  0  0  0  0  0  0
  1  2  1  0
  2  3  2  0
  3  4  1  0
  4  5  1  0
  4  6  2  0
  6  7  1  0
  7  8  1  0
  8  9  1  0
  9 10  1  0
 10 11  2  0
 10 12  1  0
 12 13  2  0
 13 14  1  0
 14 15  2  0
 15 16  1  0
 16 17  1  0
 17 18  1  0
 18 19  1  0
 19 20  1  0
 20 21  1  0
 15 22  1  0
 22 23  2  0
  7 24  2  0
 24  2  1  0
 23 12  1  0
 21 16  1  0
  1 25  1  0
  1 26  1  0
  1 27  1  0
  3 28  1  0
  6 29  1  0
  8 30  1  0
  9 31  1  0
 13 32  1  0
 14 33  1  0
 17 34  1  0
 17 35  1  0
 18 36  1  0
 18 37  1  0
 20 38  1  0
 20 39  1  0
 21 40  1  0
 21 41  1  0
 23 42  1  0
 24 43  1  0
A    1
 C1 
A    2
 C2 
A    3
 C3 
A    4
 C4 
A    5
BR1 
A    6
 C5 
A    7
 C6 
A    8
 N1 
A    9
 N2 
A   10
 C7 
A   11
 O1 
A   12
 C8 
A   13
 C9 
A   14
 C10
A   15
 C11
A   16
 N3 
A   17
 C12
A   18
 C13
A   19
 O2 
A   20
 C14
A   21
 C15
A   22
 N4 
A   23
 C16
A   24
 C17
A   25
 H1 
A   26
 H2 
A   27
 H3 
A   28
 H4 
A   29
 H5 
A   30
 H6 
A   31
 H7 
A   32
 H8 
A   33
 H9 
A   34
 H10
A   35
 H11
A   36
 H12
A   37
 H13
A   38
 H14
A   39
 H15
A   40
 H16
A   41
 H17
A   42
 H18
A   43
 H19
M  END
>  <ref_pdb>  (410) 
x0051_0B

>  <ref_mols>  (410) 
x0589_0B,x0404_0B

>  <original SMILES>  (410) 
[H]c1nc(N2C([H])([H])C([H])([H])OC([H])([H])C2([H])[H])c([H])c([H])c1C(=O)N([H])N([H])c1c([H])c(Br)c([H])c(C([H])([H])[H])c1[H]

>  <index>  (410) 
2972

>  <∆∆G>  (410) 
-5.455312

>  <∆G_bound>  (410) 
-4.884851

>  <∆G_unbound>  (410) 
0.570461

>  <comRMSD>  (410) 
0.692384

>  <N_constrained_atoms>  (410) 
23.0

>  <N_unconstrained_atoms>  (410) 
1.0

>  <runtime>  (410) 
87.039933

>  <LE>  (410) 
0.227305

>  <percent_hybrid>  (410) 
35.0

>  <dist>  (410) 
6.0

>  <ecfp4>  (410) 
0.278481

>  <daylight>  (410) 
0.201581

>  <topodist>  (410) 
1.0

>  <mces>  (410) 
26.0

>  <tdn>  (410) 
1.0

>  <tup>  (410) 
0.0

>  <rdn>  (410) 
0.0

>  <rup>  (410) 
0.0

>  <ldn>  (410) 
0.0

>  <lup>  (410) 
0.0

>  <mut>  (410) 
4.0

>  <maj>  (410) 
4.0

>  <min>  (410) 
0.0

>  <hyb>  (410) 
1.0

>  <sub>  (410) 
0.0

>  <query_index>  (410) 
29.0

>  <max_hit_Tanimoto>  (410) 
0.192661

>  <largest_ring>  (410) 
6

>  <N_interactions_kept>  (410) 
1.0

>  <N_interactions_lost>  (410) 
2.5

>  <interaction_uniqueness_metric>  (410) 
0.110211

>  <ad_hoc_penalty>  (410) 
-3.224968

>  <N_rotatable_bonds>  (410) 
5

>  <N_HA>  (410) 
24

>  <cluster>  (410) 
3472

>  <N_interactions>  (410) 
5

>  <Enamine>  (410) 
1

>  <Mcule>  (410) 
0

>  <N_PAINS>  (410) 
0

>  <UFF_Gibbs>  (410) 
111.308188

>  <strain_per_HA>  (410) 
4.637841

>  <intxn_scored>  (410) 
8.0

>  <saltbridge:HIS:51>  (410) 
0

>  <pistack:HIS:51>  (410) 
1

>  <hydroph_interaction:HIS:51>  (410) 
1

>  <hbond:ALA:132>  (410) 
0

>  <hbond:SER:135>  (410) 
0

>  <hydroph_interaction:TYR:150>  (410) 
0

>  <pistack:TYR:161>  (410) 
1

>  <hydroph_interaction:TYR:161>  (410) 
1

>  <hydroph_interaction:ASP:83>  (410) 
0

>  <hbond:TYR:130>  (410) 
0

>  <hydroph_interaction:ALA:132>  (410) 
1

>  <hbond:HIS:51>  (410) 
0

>  <hbond:ASP:129>  (410) 
0

>  <hbond:TYR:150>  (410) 
0

>  <hbond:GLY:151>  (410) 
0

>  <hbond:TYR:161>  (410) 
0

>  <hydroph_interaction:TYR:130>  (410) 
0

>  <hydroph_interaction:PRO:131>  (410) 
0

>  <hydroph_interaction:ASP:129>  (410) 
0

>  <saltbridge:ASP:75>  (410) 
0

>  <saltbridge:ASP:83>  (410) 
0

>  <hbond:ASN:152>  (410) 
0

>  <hydroph_interaction:ASN:152>  (410) 
0

>  <halogenbond:TYR:150>  (410) 
0

>  <hbond:ASP:83>  (410) 
0

>  <hydroph_interaction:VAL:155>  (410) 
0

>  <pication:TYR:161>  (410) 
0

>  <hbond:PRO:131>  (410) 
0

>  <saltbridge:ASP:129>  (410) 
0

>  <hbond:THR:134>  (410) 
0

>  <pication:HIS:51>  (410) 
0

>  <hbond:SER:81>  (410) 
0

>  <hydroph_interaction:THR:134>  (410) 
0

>  <hydroph_interaction:MET:49>  (410) 
0

$$$$
Z4286988453
     RDKit          3D

 49 51  0  0  0  0  0  0  0  0999 V2000
   -2.4480    4.8620  -21.8700 C   0  0  0  0  0  0  0  0  0  0  0  0
   -3.7120    5.4170  -21.4000 N   0  0  0  0  0  0  0  0  0  0  0  0
   -4.7960    5.3790  -22.3540 C   0  0  0  0  0  0  0  0  0  0  0  0
   -4.1330    5.3760  -19.9970 C   0  0  0  0  0  0  0  0  0  0  0  0
   -3.4000    5.0190  -19.0720 O   0  0  0  0  0  0  0  0  0  0  0  0
   -5.5850    5.8080  -19.7410 C   0  0  0  0  0  0  0  0  0  0  0  0
   -5.9470    5.9050  -18.3680 O   0  0  0  0  0  0  0  0  0  0  0  0
   -7.2070    5.5160  -18.0300 C   0  0  0  0  0  0  0  0  0  0  0  0
   -8.2550    5.1150  -19.0600 C   0  0  0  0  0  0  0  0  0  0  0  0
   -9.5620    4.7240  -18.4730 C   0  0  0  0  0  0  0  0  0  0  0  0
   -9.7540    4.7440  -16.9860 C   0  0  0  0  0  0  0  0  0  0  0  0
   -8.7500    5.1210  -16.0820 C   0  0  0  0  0  0  0  0  0  0  0  0
   -9.0970    5.0550  -14.6700 C   0  0  0  0  0  0  0  0  0  0  0  0
   -8.7980    5.9850  -13.6610 N   0  0  0  0  0  0  0  0  0  0  0  0
   -8.0000    5.5810  -12.5600 C   0  0  0  0  0  0  0  0  0  0  0  0
   -6.8340    5.2610  -12.7980 O   0  0  0  0  0  0  0  0  0  0  0  0
   -8.4040    5.5060  -11.1030 C   0  0  0  0  0  0  0  0  0  0  0  0
   -8.7150    4.4300  -10.2370 C   0  0  0  0  0  0  0  0  0  0  0  0
   -8.8050    2.9430  -10.3890 C   0  0  0  0  0  0  0  0  0  0  0  0
   -8.6130    2.2820   -9.0380 C   0  0  0  0  0  0  0  0  0  0  0  0
   -9.5980    2.8240   -8.0240 C   0  0  0  0  0  0  0  0  0  0  0  0
   -9.2880    4.2340   -7.7960 N   0  0  0  0  0  0  0  0  0  0  0  0
   -8.9620    4.9660   -8.9800 N   0  0  0  0  0  0  0  0  0  0  0  0
   -8.8600    6.2930   -8.9620 N   0  0  0  0  0  0  0  0  0  0  0  0
   -8.5310    6.6250  -10.2210 C   0  0  0  0  0  0  0  0  0  0  0  0
   -7.4910    5.5040  -16.6230 C   0  0  0  0  0  0  0  0  0  0  0  0
   -2.6500    4.1260  -22.6580 H   0  0  0  0  0  0  0  0  0  0  0  0
   -1.8200    5.6460  -22.3010 H   0  0  0  0  0  0  0  0  0  0  0  0
   -1.8900    4.3560  -21.0790 H   0  0  0  0  0  0  0  0  0  0  0  0
   -5.4740    6.2220  -22.1600 H   0  0  0  0  0  0  0  0  0  0  0  0
   -4.4050    5.5510  -23.3610 H   0  0  0  0  0  0  0  0  0  0  0  0
   -5.3570    4.4430  -22.3200 H   0  0  0  0  0  0  0  0  0  0  0  0
   -5.7150    6.8040  -20.1880 H   0  0  0  0  0  0  0  0  0  0  0  0
   -6.2770    5.1560  -20.2980 H   0  0  0  0  0  0  0  0  0  0  0  0
   -8.1030    5.1030  -20.1350 H   0  0  0  0  0  0  0  0  0  0  0  0
  -10.3710    4.4250  -19.1130 H   0  0  0  0  0  0  0  0  0  0  0  0
  -10.7070    4.4460  -16.6030 H   0  0  0  0  0  0  0  0  0  0  0  0
   -8.6250    4.1480  -14.2820 H   0  0  0  0  0  0  0  0  0  0  0  0
  -10.1750    4.8630  -14.6030 H   0  0  0  0  0  0  0  0  0  0  0  0
   -9.5030    6.7000  -13.5280 H   0  0  0  0  0  0  0  0  0  0  0  0
   -8.0400    2.5620  -11.0750 H   0  0  0  0  0  0  0  0  0  0  0  0
   -9.7930    2.6810  -10.7950 H   0  0  0  0  0  0  0  0  0  0  0  0
   -8.6970    1.2080   -9.1210 H   0  0  0  0  0  0  0  0  0  0  0  0
   -7.5950    2.4930   -8.6890 H   0  0  0  0  0  0  0  0  0  0  0  0
  -10.6320    2.6910   -8.3620 H   0  0  0  0  0  0  0  0  0  0  0  0
   -9.4880    2.2710   -7.0830 H   0  0  0  0  0  0  0  0  0  0  0  0
  -10.0720    4.6920   -7.3390 H   0  0  0  0  0  0  0  0  0  0  0  0
   -8.3820    7.6720  -10.4640 H   0  0  0  0  0  0  0  0  0  0  0  0
   -6.6980    5.7990  -15.9400 H   0  0  0  0  0  0  0  0  0  0  0  0
  1  2  1  0
  2  3  1  0
  2  4  1  0
  4  5  2  0
  4  6  1  0
  6  7  1  0
  7  8  1  0
  8  9  2  0
  9 10  1  0
 10 11  2  0
 11 12  1  0
 12 13  1  0
 13 14  1  0
 14 15  1  0
 15 16  2  0
 15 17  1  0
 17 18  2  0
 18 19  1  0
 19 20  1  0
 20 21  1  0
 21 22  1  0
 22 23  1  0
 23 24  1  0
 24 25  2  0
 12 26  2  0
 26  8  1  0
 25 17  1  0
 23 18  1  0
  1 27  1  0
  1 28  1  0
  1 29  1  0
  3 30  1  0
  3 31  1  0
  3 32  1  0
  6 33  1  0
  6 34  1  0
  9 35  1  0
 10 36  1  0
 11 37  1  0
 13 38  1  0
 13 39  1  0
 14 40  1  0
 19 41  1  0
 19 42  1  0
 20 43  1  0
 20 44  1  0
 21 45  1  0
 21 46  1  0
 22 47  1  0
 25 48  1  0
 26 49  1  0
A    1
 C1 
A    2
 N1 
A    3
 C2 
A    4
 C3 
A    5
 O1 
A    6
 C4 
A    7
 O2 
A    8
 C5 
A    9
 C6 
A   10
 C7 
A   11
 C8 
A   12
 C9 
A   13
 C10
A   14
 N2 
A   15
 C11
A   16
 O3 
A   17
 C12
A   18
 C13
A   19
 C14
A   20
 C15
A   21
 C16
A   22
 N3 
A   23
 N4 
A   24
 N5 
A   25
 C17
A   26
 C18
A   27
 H1 
A   28
 H2 
A   29
 H3 
A   30
 H4 
A   31
 H5 
A   32
 H6 
A   33
 H7 
A   34
 H8 
A   35
 H9 
A   36
 H10
A   37
 H11
A   38
 H12
A   39
 H13
A   40
 H14
A   41
 H15
A   42
 H16
A   43
 H17
A   44
 H18
A   45
 H19
A   46
 H20
A   47
 H21
A   48
 H22
A   49
 H23
M  END
>  <ref_pdb>  (411) 
x0051_0B

>  <ref_mols>  (411) 
x0969_1B,x0904_0B

>  <original SMILES>  (411) 
[H]c1nn2c(c1C(=O)N([H])C([H])([H])c1c([H])c([H])c([H])c(OC([H])([H])C(=O)N(C([H])([H])[H])C([H])([H])[H])c1[H])C([H])([H])C([H])([H])C([H])([H])N2[H]

>  <index>  (411) 
3039

>  <∆∆G>  (411) 
-6.541636

>  <∆G_bound>  (411) 
-8.433129

>  <∆G_unbound>  (411) 
-1.891493

>  <comRMSD>  (411) 
0.634788

>  <N_constrained_atoms>  (411) 
24.0

>  <N_unconstrained_atoms>  (411) 
2.0

>  <runtime>  (411) 
68.560826

>  <LE>  (411) 
0.251601

>  <percent_hybrid>  (411) 
42.0

>  <dist>  (411) 
6.0

>  <ecfp4>  (411) 
0.441558

>  <daylight>  (411) 
0.284375

>  <topodist>  (411) 
2.0

>  <mces>  (411) 
27.0

>  <tdn>  (411) 
0.0

>  <tup>  (411) 
1.0

>  <rdn>  (411) 
0.0

>  <rup>  (411) 
0.0

>  <ldn>  (411) 
1.0

>  <lup>  (411) 
0.0

>  <mut>  (411) 
3.0

>  <maj>  (411) 
3.0

>  <min>  (411) 
0.0

>  <hyb>  (411) 
1.0

>  <sub>  (411) 
0.0

>  <query_index>  (411) 
111.0

>  <max_hit_Tanimoto>  (411) 
0.241441

>  <largest_ring>  (411) 
6

>  <N_interactions_kept>  (411) 
1.5

>  <N_interactions_lost>  (411) 
2.0

>  <interaction_uniqueness_metric>  (411) 
0.163212

>  <ad_hoc_penalty>  (411) 
-3.057302

>  <N_rotatable_bonds>  (411) 
8

>  <N_HA>  (411) 
26

>  <cluster>  (411) 
3408

>  <N_interactions>  (411) 
5

>  <Enamine>  (411) 
1

>  <Mcule>  (411) 
0

>  <N_PAINS>  (411) 
0

>  <UFF_Gibbs>  (411) 
126.705561

>  <strain_per_HA>  (411) 
4.873291

>  <intxn_scored>  (411) 
8.0

>  <saltbridge:HIS:51>  (411) 
0

>  <pistack:HIS:51>  (411) 
1

>  <hydroph_interaction:HIS:51>  (411) 
0

>  <hbond:ALA:132>  (411) 
0

>  <hbond:SER:135>  (411) 
0

>  <hydroph_interaction:TYR:150>  (411) 
1

>  <pistack:TYR:161>  (411) 
1

>  <hydroph_interaction:TYR:161>  (411) 
0

>  <hydroph_interaction:ASP:83>  (411) 
1

>  <hbond:TYR:130>  (411) 
0

>  <hydroph_interaction:ALA:132>  (411) 
1

>  <hbond:HIS:51>  (411) 
0

>  <hbond:ASP:129>  (411) 
0

>  <hbond:TYR:150>  (411) 
0

>  <hbond:GLY:151>  (411) 
0

>  <hbond:TYR:161>  (411) 
0

>  <hydroph_interaction:TYR:130>  (411) 
0

>  <hydroph_interaction:PRO:131>  (411) 
0

>  <hydroph_interaction:ASP:129>  (411) 
0

>  <saltbridge:ASP:75>  (411) 
0

>  <saltbridge:ASP:83>  (411) 
0

>  <hbond:ASN:152>  (411) 
0

>  <hydroph_interaction:ASN:152>  (411) 
0

>  <halogenbond:TYR:150>  (411) 
0

>  <hbond:ASP:83>  (411) 
0

>  <hydroph_interaction:VAL:155>  (411) 
0

>  <pication:TYR:161>  (411) 
0

>  <hbond:PRO:131>  (411) 
0

>  <saltbridge:ASP:129>  (411) 
0

>  <hbond:THR:134>  (411) 
0

>  <pication:HIS:51>  (411) 
0

>  <hbond:SER:81>  (411) 
0

>  <hydroph_interaction:THR:134>  (411) 
0

>  <hydroph_interaction:MET:49>  (411) 
0

$$$$
Z2383662301
     RDKit          3D

 34 35  0  0  0  0  0  0  0  0999 V2000
   -2.6970    7.2330  -19.1190 C   0  0  0  0  0  0  0  0  0  0  0  0
   -2.9180    5.9070  -19.7270 C   0  0  0  0  0  0  0  0  0  0  0  0
   -2.4430    4.7280  -19.1840 C   0  0  0  0  0  0  0  0  0  0  0  0
   -4.4360    5.7800  -20.0050 C   0  0  0  0  0  0  0  0  0  0  0  0
   -5.3850    6.0780  -18.9220 N   0  0  0  0  0  0  0  0  0  0  0  0
   -4.8110    5.7570  -17.6060 C   0  0  0  0  0  0  0  0  0  0  0  0
   -5.6980    6.2270  -16.4450 C   0  0  0  0  0  0  0  0  0  0  0  0
   -7.0410    5.7670  -16.6620 N   0  0  0  0  0  0  0  0  0  0  0  0
   -7.9020    5.6050  -15.6460 N   0  0  0  0  0  0  0  0  0  0  0  0
   -9.0070    5.1690  -16.2550 C   0  0  0  0  0  0  0  0  0  0  0  0
   -8.8380    5.0600  -17.6530 C   0  0  0  0  0  0  0  0  0  0  0  0
   -9.8030    4.6210  -18.6660 C   0  0  0  0  0  0  0  0  0  0  0  0
   -9.4580    3.3100  -19.0560 O   0  0  0  0  0  0  0  0  0  0  0  0
   -7.5480    5.4590  -17.8800 C   0  0  0  0  0  0  0  0  0  0  0  0
   -6.7480    5.5760  -19.1280 C   0  0  0  0  0  0  0  0  0  0  0  0
   -2.2040    7.1310  -18.1460 H   0  0  0  0  0  0  0  0  0  0  0  0
   -2.0630    7.8600  -19.7540 H   0  0  0  0  0  0  0  0  0  0  0  0
   -3.6480    7.7520  -18.9710 H   0  0  0  0  0  0  0  0  0  0  0  0
   -2.4120    5.9500  -20.6940 H   0  0  0  0  0  0  0  0  0  0  0  0
   -1.5570    4.9100  -18.5670 H   0  0  0  0  0  0  0  0  0  0  0  0
   -3.1970    4.2600  -18.5440 H   0  0  0  0  0  0  0  0  0  0  0  0
   -2.1600    4.0160  -19.9660 H   0  0  0  0  0  0  0  0  0  0  0  0
   -4.6660    4.7880  -20.3950 H   0  0  0  0  0  0  0  0  0  0  0  0
   -4.6990    6.4400  -20.8410 H   0  0  0  0  0  0  0  0  0  0  0  0
   -4.7260    4.6650  -17.5460 H   0  0  0  0  0  0  0  0  0  0  0  0
   -3.7870    6.1320  -17.4950 H   0  0  0  0  0  0  0  0  0  0  0  0
   -5.7460    7.3180  -16.3700 H   0  0  0  0  0  0  0  0  0  0  0  0
   -5.3470    5.8170  -15.4940 H   0  0  0  0  0  0  0  0  0  0  0  0
   -9.8850    4.9490  -15.6580 H   0  0  0  0  0  0  0  0  0  0  0  0
  -10.8260    4.6300  -18.2730 H   0  0  0  0  0  0  0  0  0  0  0  0
   -9.7890    5.2650  -19.5600 H   0  0  0  0  0  0  0  0  0  0  0  0
   -9.2840    3.3110  -20.0260 H   0  0  0  0  0  0  0  0  0  0  0  0
   -7.2660    6.2890  -19.7860 H   0  0  0  0  0  0  0  0  0  0  0  0
   -6.7430    4.6420  -19.6690 H   0  0  0  0  0  0  0  0  0  0  0  0
  1  2  1  0
  2  3  1  0
  2  4  1  0
  4  5  1  0
  5  6  1  0
  6  7  1  0
  7  8  1  0
  8  9  1  0
  9 10  2  0
 10 11  1  0
 11 12  1  0
 12 13  1  0
 11 14  2  0
 14 15  1  0
 15  5  1  0
 14  8  1  0
  1 16  1  0
  1 17  1  0
  1 18  1  0
  2 19  1  0
  3 20  1  0
  3 21  1  0
  3 22  1  0
  4 23  1  0
  4 24  1  0
  6 25  1  0
  6 26  1  0
  7 27  1  0
  7 28  1  0
 10 29  1  0
 12 30  1  0
 12 31  1  0
 13 32  1  0
 15 33  1  0
 15 34  1  0
A    1
 C1 
A    2
 C2 
A    3
 C3 
A    4
 C4 
A    5
 N1 
A    6
 C5 
A    7
 C6 
A    8
 N2 
A    9
 N3 
A   10
 C7 
A   11
 C8 
A   12
 C9 
A   13
 O1 
A   14
 C10
A   15
 C11
A   16
 H1 
A   17
 H2 
A   18
 H3 
A   19
 H4 
A   20
 H5 
A   21
 H6 
A   22
 H7 
A   23
 H8 
A   24
 H9 
A   25
 H10
A   26
 H11
A   27
 H12
A   28
 H13
A   29
 H14
A   30
 H15
A   31
 H16
A   32
 H17
A   33
 H18
A   34
 H19
M  END
>  <ref_pdb>  (412) 
x0051_0B

>  <ref_mols>  (412) 
x0969_0B,x0089_0B

>  <original SMILES>  (412) 
[H]OC([H])([H])c1c([H])nn2c1C([H])([H])N(C([H])([H])C([H])(C([H])([H])[H])C([H])([H])[H])C([H])([H])C2([H])[H]

>  <index>  (412) 
3765

>  <∆∆G>  (412) 
-5.11579

>  <∆G_bound>  (412) 
-4.744684

>  <∆G_unbound>  (412) 
0.371105

>  <comRMSD>  (412) 
0.798476

>  <N_constrained_atoms>  (412) 
16.0

>  <N_unconstrained_atoms>  (412) 
1.0

>  <runtime>  (412) 
17.514954

>  <LE>  (412) 
0.300929

>  <percent_hybrid>  (412) 
34.0

>  <dist>  (412) 
2.0

>  <ecfp4>  (412) 
0.333333

>  <daylight>  (412) 
0.615385

>  <topodist>  (412) 
1.0

>  <mces>  (412) 
15.0

>  <tdn>  (412) 
0.0

>  <tup>  (412) 
1.0

>  <rdn>  (412) 
0.0

>  <rup>  (412) 
0.0

>  <ldn>  (412) 
0.0

>  <lup>  (412) 
0.0

>  <mut>  (412) 
1.0

>  <maj>  (412) 
1.0

>  <min>  (412) 
0.0

>  <hyb>  (412) 
0.0

>  <sub>  (412) 
1.0

>  <query_index>  (412) 
114.0

>  <max_hit_Tanimoto>  (412) 
0.693667

>  <largest_ring>  (412) 
6

>  <N_interactions_kept>  (412) 
1.0

>  <N_interactions_lost>  (412) 
2.5

>  <interaction_uniqueness_metric>  (412) 
0.221039

>  <ad_hoc_penalty>  (412) 
-0.402567

>  <N_rotatable_bonds>  (412) 
6

>  <N_HA>  (412) 
15

>  <cluster>  (412) 
2721

>  <N_interactions>  (412) 
5

>  <Enamine>  (412) 
1

>  <Mcule>  (412) 
0

>  <N_PAINS>  (412) 
0

>  <UFF_Gibbs>  (412) 
71.388737

>  <strain_per_HA>  (412) 
4.759249

>  <intxn_scored>  (412) 
8.0

>  <saltbridge:HIS:51>  (412) 
0

>  <pistack:HIS:51>  (412) 
0

>  <hydroph_interaction:HIS:51>  (412) 
0

>  <hbond:ALA:132>  (412) 
0

>  <hbond:SER:135>  (412) 
0

>  <hydroph_interaction:TYR:150>  (412) 
0

>  <pistack:TYR:161>  (412) 
1

>  <hydroph_interaction:TYR:161>  (412) 
1

>  <hydroph_interaction:ASP:83>  (412) 
0

>  <hbond:TYR:130>  (412) 
0

>  <hydroph_interaction:ALA:132>  (412) 
0

>  <hbond:HIS:51>  (412) 
0

>  <hbond:ASP:129>  (412) 
0

>  <hbond:TYR:150>  (412) 
1

>  <hbond:GLY:151>  (412) 
0

>  <hbond:TYR:161>  (412) 
0

>  <hydroph_interaction:TYR:130>  (412) 
0

>  <hydroph_interaction:PRO:131>  (412) 
0

>  <hydroph_interaction:ASP:129>  (412) 
0

>  <saltbridge:ASP:75>  (412) 
0

>  <saltbridge:ASP:83>  (412) 
0

>  <hbond:ASN:152>  (412) 
0

>  <hydroph_interaction:ASN:152>  (412) 
0

>  <halogenbond:TYR:150>  (412) 
0

>  <hbond:ASP:83>  (412) 
0

>  <hydroph_interaction:VAL:155>  (412) 
1

>  <pication:TYR:161>  (412) 
1

>  <hbond:PRO:131>  (412) 
0

>  <saltbridge:ASP:129>  (412) 
0

>  <hbond:THR:134>  (412) 
0

>  <pication:HIS:51>  (412) 
0

>  <hbond:SER:81>  (412) 
0

>  <hydroph_interaction:THR:134>  (412) 
0

>  <hydroph_interaction:MET:49>  (412) 
0

$$$$
Z1319522597
     RDKit          3D

 50 52  0  0  0  0  0  0  0  0999 V2000
   -9.8330    4.7000  -18.6610 C   0  0  0  0  0  0  0  0  0  0  0  0
   -9.3040    5.0220  -17.2750 C   0  0  0  0  0  0  0  0  0  0  0  0
   -7.9330    5.4720  -17.2450 N   0  0  0  0  0  0  0  0  0  0  0  0
   -7.0000    5.5280  -18.2560 C   0  0  0  0  0  0  0  0  0  0  0  0
   -7.2250    5.0640  -19.8940 S   0  0  0  0  0  0  0  0  0  0  0  0
   -5.8730    5.9880  -17.7940 N   0  0  0  0  0  0  0  0  0  0  0  0
   -6.0600    6.2450  -16.4690 N   0  0  0  0  0  0  0  0  0  0  0  0
   -7.2650    5.9530  -16.1410 C   0  0  0  0  0  0  0  0  0  0  0  0
   -7.7340    6.1540  -14.7620 C   0  0  0  0  0  0  0  0  0  0  0  0
   -7.3010    7.5520  -14.2850 C   0  0  0  0  0  0  0  0  0  0  0  0
   -8.4340    8.4020  -13.9770 N   0  0  0  0  0  0  0  0  0  0  0  0
   -9.5480    7.7760  -13.4980 C   0  0  0  0  0  0  0  0  0  0  0  0
  -10.6920    7.9840  -13.8920 O   0  0  0  0  0  0  0  0  0  0  0  0
   -9.2500    6.8170  -12.4090 C   0  0  0  0  0  0  0  0  0  0  0  0
   -8.9650    7.2840  -11.1350 C   0  0  0  0  0  0  0  0  0  0  0  0
   -8.6820    6.3920  -10.1100 C   0  0  0  0  0  0  0  0  0  0  0  0
   -8.6690    5.0100  -10.3090 C   0  0  0  0  0  0  0  0  0  0  0  0
   -8.3810    4.1630   -9.2680 N   0  0  0  0  0  0  0  0  0  0  0  0
   -8.7660    2.7570   -9.3210 C   0  0  0  0  0  0  0  0  0  0  0  0
   -9.7250    2.4450   -8.1880 C   0  0  0  0  0  0  0  0  0  0  0  0
   -9.3300    3.0620   -6.8550 C   0  0  0  0  0  0  0  0  0  0  0  0
   -8.8520    4.4960   -6.9120 C   0  0  0  0  0  0  0  0  0  0  0  0
   -7.8370    4.6860   -8.0170 C   0  0  0  0  0  0  0  0  0  0  0  0
   -8.9600    4.5480  -11.6050 C   0  0  0  0  0  0  0  0  0  0  0  0
   -9.2490    5.4360  -12.6490 C   0  0  0  0  0  0  0  0  0  0  0  0
   -9.3910    5.3570  -19.4150 H   0  0  0  0  0  0  0  0  0  0  0  0
   -9.6050    3.6670  -18.9360 H   0  0  0  0  0  0  0  0  0  0  0  0
  -10.9180    4.8290  -18.6980 H   0  0  0  0  0  0  0  0  0  0  0  0
   -9.3720    4.1440  -16.6400 H   0  0  0  0  0  0  0  0  0  0  0  0
   -9.9310    5.7820  -16.7960 H   0  0  0  0  0  0  0  0  0  0  0  0
   -7.9590    6.1210  -20.2860 H   0  0  0  0  0  0  0  0  0  0  0  0
   -8.8270    6.0740  -14.7550 H   0  0  0  0  0  0  0  0  0  0  0  0
   -7.3460    5.3850  -14.0880 H   0  0  0  0  0  0  0  0  0  0  0  0
   -6.7020    8.0390  -15.0640 H   0  0  0  0  0  0  0  0  0  0  0  0
   -6.6850    7.4870  -13.3820 H   0  0  0  0  0  0  0  0  0  0  0  0
   -8.2200    9.3320  -13.6270 H   0  0  0  0  0  0  0  0  0  0  0  0
   -8.9560    8.3450  -10.9090 H   0  0  0  0  0  0  0  0  0  0  0  0
   -8.4650    6.8100   -9.1320 H   0  0  0  0  0  0  0  0  0  0  0  0
   -9.2440    2.5360  -10.2840 H   0  0  0  0  0  0  0  0  0  0  0  0
   -7.8960    2.0980   -9.2120 H   0  0  0  0  0  0  0  0  0  0  0  0
   -9.8190    1.3650   -8.0600 H   0  0  0  0  0  0  0  0  0  0  0  0
  -10.7190    2.8050   -8.4610 H   0  0  0  0  0  0  0  0  0  0  0  0
  -10.1980    3.0360   -6.1910 H   0  0  0  0  0  0  0  0  0  0  0  0
   -8.5520    2.4370   -6.4020 H   0  0  0  0  0  0  0  0  0  0  0  0
   -9.7020    5.1740   -7.0410 H   0  0  0  0  0  0  0  0  0  0  0  0
   -8.3880    4.7520   -5.9500 H   0  0  0  0  0  0  0  0  0  0  0  0
   -6.9040    4.1610   -7.7720 H   0  0  0  0  0  0  0  0  0  0  0  0
   -7.6180    5.7570   -8.0880 H   0  0  0  0  0  0  0  0  0  0  0  0
   -8.9690    3.4840  -11.8320 H   0  0  0  0  0  0  0  0  0  0  0  0
   -9.4720    5.0400  -13.6390 H   0  0  0  0  0  0  0  0  0  0  0  0
  1  2  1  0
  2  3  1  0
  3  4  1  0
  4  5  1  0
  4  6  2  0
  6  7  1  0
  7  8  2  0
  8  9  1  0
  9 10  1  0
 10 11  1  0
 11 12  1  0
 12 13  2  0
 12 14  1  0
 14 15  2  0
 15 16  1  0
 16 17  2  0
 17 18  1  0
 18 19  1  0
 19 20  1  0
 20 21  1  0
 21 22  1  0
 22 23  1  0
 17 24  1  0
 24 25  2  0
  8  3  1  0
 25 14  1  0
 23 18  1  0
  1 26  1  0
  1 27  1  0
  1 28  1  0
  2 29  1  0
  2 30  1  0
  5 31  1  0
  9 32  1  0
  9 33  1  0
 10 34  1  0
 10 35  1  0
 11 36  1  0
 15 37  1  0
 16 38  1  0
 19 39  1  0
 19 40  1  0
 20 41  1  0
 20 42  1  0
 21 43  1  0
 21 44  1  0
 22 45  1  0
 22 46  1  0
 23 47  1  0
 23 48  1  0
 24 49  1  0
 25 50  1  0
A    1
 C1 
A    2
 C2 
A    3
 N1 
A    4
 C3 
A    5
 S1 
A    6
 N2 
A    7
 N3 
A    8
 C4 
A    9
 C5 
A   10
 C6 
A   11
 N4 
A   12
 C7 
A   13
 O1 
A   14
 C8 
A   15
 C9 
A   16
 C10
A   17
 C11
A   18
 N5 
A   19
 C12
A   20
 C13
A   21
 C14
A   22
 C15
A   23
 C16
A   24
 C17
A   25
 C18
A   26
 H1 
A   27
 H2 
A   28
 H3 
A   29
 H4 
A   30
 H5 
A   31
 H6 
A   32
 H7 
A   33
 H8 
A   34
 H9 
A   35
 H10
A   36
 H11
A   37
 H12
A   38
 H13
A   39
 H14
A   40
 H15
A   41
 H16
A   42
 H17
A   43
 H18
A   44
 H19
A   45
 H20
A   46
 H21
A   47
 H22
A   48
 H23
A   49
 H24
A   50
 H25
M  END
>  <ref_pdb>  (413) 
x0051_0B

>  <ref_mols>  (413) 
x0693_0B,x0404_0B

>  <original SMILES>  (413) 
[H]Sc1nnc(C([H])([H])C([H])([H])N([H])C(=O)c2c([H])c([H])c(N3C([H])([H])C([H])([H])C([H])([H])C([H])([H])C3([H])[H])c([H])c2[H])n1C([H])([H])C([H])([H])[H]

>  <index>  (413) 
1696

>  <∆∆G>  (413) 
-9.065603

>  <∆G_bound>  (413) 
-8.35388

>  <∆G_unbound>  (413) 
0.711724

>  <comRMSD>  (413) 
0.938829

>  <N_constrained_atoms>  (413) 
26.0

>  <N_unconstrained_atoms>  (413) 
2.0

>  <runtime>  (413) 
74.435215

>  <LE>  (413) 
0.323772

>  <percent_hybrid>  (413) 
39.0

>  <dist>  (413) 
8.0

>  <ecfp4>  (413) 
0.22093

>  <daylight>  (413) 
0.193662

>  <topodist>  (413) 
2.0

>  <mces>  (413) 
27.0

>  <tdn>  (413) 
2.0

>  <tup>  (413) 
0.0

>  <rdn>  (413) 
0.0

>  <rup>  (413) 
0.0

>  <ldn>  (413) 
0.0

>  <lup>  (413) 
0.0

>  <mut>  (413) 
5.0

>  <maj>  (413) 
4.0

>  <min>  (413) 
1.0

>  <hyb>  (413) 
1.0

>  <sub>  (413) 
1.0

>  <query_index>  (413) 
190.0

>  <max_hit_Tanimoto>  (413) 
0.214458

>  <largest_ring>  (413) 
6

>  <N_interactions_kept>  (413) 
3.5

>  <N_interactions_lost>  (413) 
2.0

>  <interaction_uniqueness_metric>  (413) 
0.10376

>  <ad_hoc_penalty>  (413) 
-7.512219

>  <N_rotatable_bonds>  (413) 
8

>  <N_HA>  (413) 
25

>  <cluster>  (413) 
4665

>  <N_interactions>  (413) 
5

>  <Enamine>  (413) 
1

>  <Mcule>  (413) 
0

>  <N_PAINS>  (413) 
0

>  <UFF_Gibbs>  (413) 
179.356017

>  <strain_per_HA>  (413) 
7.174241

>  <intxn_scored>  (413) 
8.0

>  <saltbridge:HIS:51>  (413) 
0

>  <pistack:HIS:51>  (413) 
1

>  <hydroph_interaction:HIS:51>  (413) 
1

>  <hbond:ALA:132>  (413) 
0

>  <hbond:SER:135>  (413) 
0

>  <hydroph_interaction:TYR:150>  (413) 
1

>  <pistack:TYR:161>  (413) 
1

>  <hydroph_interaction:TYR:161>  (413) 
1

>  <hydroph_interaction:ASP:83>  (413) 
0

>  <hbond:TYR:130>  (413) 
0

>  <hydroph_interaction:ALA:132>  (413) 
0

>  <hbond:HIS:51>  (413) 
0

>  <hbond:ASP:129>  (413) 
0

>  <hbond:TYR:150>  (413) 
0

>  <hbond:GLY:151>  (413) 
0

>  <hbond:TYR:161>  (413) 
0

>  <hydroph_interaction:TYR:130>  (413) 
0

>  <hydroph_interaction:PRO:131>  (413) 
0

>  <hydroph_interaction:ASP:129>  (413) 
0

>  <saltbridge:ASP:75>  (413) 
0

>  <saltbridge:ASP:83>  (413) 
0

>  <hbond:ASN:152>  (413) 
0

>  <hydroph_interaction:ASN:152>  (413) 
0

>  <halogenbond:TYR:150>  (413) 
0

>  <hbond:ASP:83>  (413) 
0

>  <hydroph_interaction:VAL:155>  (413) 
0

>  <pication:TYR:161>  (413) 
0

>  <hbond:PRO:131>  (413) 
0

>  <saltbridge:ASP:129>  (413) 
0

>  <hbond:THR:134>  (413) 
0

>  <pication:HIS:51>  (413) 
0

>  <hbond:SER:81>  (413) 
0

>  <hydroph_interaction:THR:134>  (413) 
0

>  <hydroph_interaction:MET:49>  (413) 
0

$$$$
CSSS02267486201
     RDKit          3D

 39 41  0  0  0  0  0  0  0  0999 V2000
   -8.5950    4.6590   -8.5600 C   0  0  0  0  0  0  0  0  0  0  0  0
   -8.6310    4.9950  -10.0120 C   0  0  0  0  0  0  0  0  0  0  0  0
   -8.8460    6.2670  -10.5250 C   0  0  0  0  0  0  0  0  0  0  0  0
   -8.8230    6.2960  -11.8910 C   0  0  0  0  0  0  0  0  0  0  0  0
   -8.5890    5.0500  -12.4430 C   0  0  0  0  0  0  0  0  0  0  0  0
   -8.4070    3.8340  -11.2600 S   0  0  0  0  0  0  0  0  0  0  0  0
   -8.5040    4.7850  -13.9300 C   0  0  0  0  0  0  0  0  0  0  0  0
   -8.7080    5.7100  -14.9330 N   0  0  0  0  0  0  0  0  0  0  0  0
   -8.6740    5.4720  -16.2680 C   0  0  0  0  0  0  0  0  0  0  0  0
   -9.8650    4.8220  -16.8060 C   0  0  0  0  0  0  0  0  0  0  0  0
   -9.9700    4.5450  -18.1540 C   0  0  0  0  0  0  0  0  0  0  0  0
   -8.9190    4.8810  -18.9810 C   0  0  0  0  0  0  0  0  0  0  0  0
   -7.7740    5.4920  -18.4630 C   0  0  0  0  0  0  0  0  0  0  0  0
   -6.7240    5.8290  -19.2690 N   0  0  0  0  0  0  0  0  0  0  0  0
   -6.4030    5.1220  -20.3710 C   0  0  0  0  0  0  0  0  0  0  0  0
   -7.1260    4.3610  -21.0080 O   0  0  0  0  0  0  0  0  0  0  0  0
   -4.9710    5.3140  -20.8270 C   0  0  0  0  0  0  0  0  0  0  0  0
   -4.8670    5.4950  -22.3300 C   0  0  0  0  0  0  0  0  0  0  0  0
   -3.4650    5.6800  -22.9130 C   0  0  0  0  0  0  0  0  0  0  0  0
   -2.3870    5.6740  -22.0370 C   0  0  0  0  0  0  0  0  0  0  0  0
   -2.5720    5.4960  -20.5400 C   0  0  0  0  0  0  0  0  0  0  0  0
   -3.8360    5.3290  -20.0020 C   0  0  0  0  0  0  0  0  0  0  0  0
   -3.9080    5.1390  -18.2860 Cl  0  0  0  0  0  0  0  0  0  0  0  0
   -7.6410    5.7920  -17.1090 C   0  0  0  0  0  0  0  0  0  0  0  0
   -8.9960    3.6530   -8.4020 H   0  0  0  0  0  0  0  0  0  0  0  0
   -7.5680    4.6910   -8.1760 H   0  0  0  0  0  0  0  0  0  0  0  0
   -9.1810    5.3720   -7.9740 H   0  0  0  0  0  0  0  0  0  0  0  0
   -9.0150    7.1520   -9.9180 H   0  0  0  0  0  0  0  0  0  0  0  0
   -8.9700    7.1970  -12.4810 H   0  0  0  0  0  0  0  0  0  0  0  0
   -8.2670    3.8070  -14.3370 H   0  0  0  0  0  0  0  0  0  0  0  0
  -10.6560    4.5640  -16.1300 H   0  0  0  0  0  0  0  0  0  0  0  0
  -10.8470    4.0740  -18.5740 H   0  0  0  0  0  0  0  0  0  0  0  0
   -8.9830    4.6680  -20.0470 H   0  0  0  0  0  0  0  0  0  0  0  0
   -5.9740    6.3390  -18.8190 H   0  0  0  0  0  0  0  0  0  0  0  0
   -5.7510    5.4900  -22.9600 H   0  0  0  0  0  0  0  0  0  0  0  0
   -3.3230    5.8120  -23.9830 H   0  0  0  0  0  0  0  0  0  0  0  0
   -1.3830    5.8020  -22.4350 H   0  0  0  0  0  0  0  0  0  0  0  0
   -1.6950    5.5010  -19.8940 H   0  0  0  0  0  0  0  0  0  0  0  0
   -6.7530    6.2720  -16.7080 H   0  0  0  0  0  0  0  0  0  0  0  0
  1  2  1  0
  2  3  2  0
  3  4  1  0
  4  5  2  0
  5  6  1  0
  5  7  1  0
  7  8  2  0
  8  9  1  0
  9 10  2  0
 10 11  1  0
 11 12  2  0
 12 13  1  0
 13 14  1  0
 14 15  1  0
 15 16  2  0
 15 17  1  0
 17 18  2  0
 18 19  1  0
 19 20  2  0
 20 21  1  0
 21 22  2  0
 22 23  1  0
 13 24  2  0
  6  2  1  0
 24  9  1  0
 22 17  1  0
  1 25  1  0
  1 26  1  0
  1 27  1  0
  3 28  1  0
  4 29  1  0
  7 30  1  0
 10 31  1  0
 11 32  1  0
 12 33  1  0
 14 34  1  0
 18 35  1  0
 19 36  1  0
 20 37  1  0
 21 38  1  0
 24 39  1  0
A    1
 C1 
A    2
 C2 
A    3
 C3 
A    4
 C4 
A    5
 C5 
A    6
 S1 
A    7
 C6 
A    8
 N1 
A    9
 C7 
A   10
 C8 
A   11
 C9 
A   12
 C10
A   13
 C11
A   14
 N2 
A   15
 C12
A   16
 O1 
A   17
 C13
A   18
 C14
A   19
 C15
A   20
 C16
A   21
 C17
A   22
 C18
A   23
CL1 
A   24
 C19
A   25
 H1 
A   26
 H2 
A   27
 H3 
A   28
 H4 
A   29
 H5 
A   30
 H6 
A   31
 H7 
A   32
 H8 
A   33
 H9 
A   34
 H10
A   35
 H11
A   36
 H12
A   37
 H13
A   38
 H14
A   39
 H15
M  END
>  <ref_pdb>  (414) 
x0051_0B

>  <ref_mols>  (414) 
x0852_0B,x1098_0B

>  <original SMILES>  (414) 
[H]/C(=N\c1c([H])c([H])c([H])c(N([H])C(=O)c2c([H])c([H])c([H])c([H])c2Cl)c1[H])c1sc(C([H])([H])[H])c([H])c1[H]

>  <index>  (414) 
2429

>  <∆∆G>  (414) 
-7.456982

>  <∆G_bound>  (414) 
-6.9541

>  <∆G_unbound>  (414) 
0.502882

>  <comRMSD>  (414) 
0.521946

>  <N_constrained_atoms>  (414) 
27.0

>  <N_unconstrained_atoms>  (414) 
0.0

>  <runtime>  (414) 
58.855052

>  <LE>  (414) 
0.276185

>  <percent_hybrid>  (414) 
45.0

>  <dist>  (414) 
11.0

>  <ecfp4>  (414) 
0.14

>  <daylight>  (414) 
0.256705

>  <topodist>  (414) 
4.0

>  <mces>  (414) 
26.0

>  <tdn>  (414) 
4.0

>  <tup>  (414) 
0.0

>  <rdn>  (414) 
0.0

>  <rup>  (414) 
0.0

>  <ldn>  (414) 
0.0

>  <lup>  (414) 
0.0

>  <mut>  (414) 
7.0

>  <maj>  (414) 
6.0

>  <min>  (414) 
1.0

>  <hyb>  (414) 
0.0

>  <sub>  (414) 
3.0

>  <query_index>  (414) 
73.0

>  <max_hit_Tanimoto>  (414) 
0.343017

>  <largest_ring>  (414) 
6

>  <N_interactions_kept>  (414) 
4.0

>  <N_interactions_lost>  (414) 
4.5

>  <interaction_uniqueness_metric>  (414) 
0.143281

>  <ad_hoc_penalty>  (414) 
-7.660877

>  <N_rotatable_bonds>  (414) 
5

>  <N_HA>  (414) 
24

>  <cluster>  (414) 
3983

>  <N_interactions>  (414) 
8

>  <Enamine>  (414) 
1

>  <Mcule>  (414) 
0

>  <N_PAINS>  (414) 
0

>  <UFF_Gibbs>  (414) 
79.64893

>  <strain_per_HA>  (414) 
3.318705

>  <intxn_scored>  (414) 
8.0

>  <saltbridge:HIS:51>  (414) 
0

>  <pistack:HIS:51>  (414) 
1

>  <hydroph_interaction:HIS:51>  (414) 
0

>  <hbond:ALA:132>  (414) 
0

>  <hbond:SER:135>  (414) 
0

>  <hydroph_interaction:TYR:150>  (414) 
1

>  <pistack:TYR:161>  (414) 
0

>  <hydroph_interaction:TYR:161>  (414) 
3

>  <hydroph_interaction:ASP:83>  (414) 
0

>  <hbond:TYR:130>  (414) 
1

>  <hydroph_interaction:ALA:132>  (414) 
1

>  <hbond:HIS:51>  (414) 
0

>  <hbond:ASP:129>  (414) 
0

>  <hbond:TYR:150>  (414) 
0

>  <hbond:GLY:151>  (414) 
0

>  <hbond:TYR:161>  (414) 
0

>  <hydroph_interaction:TYR:130>  (414) 
0

>  <hydroph_interaction:PRO:131>  (414) 
0

>  <hydroph_interaction:ASP:129>  (414) 
1

>  <saltbridge:ASP:75>  (414) 
0

>  <saltbridge:ASP:83>  (414) 
0

>  <hbond:ASN:152>  (414) 
0

>  <hydroph_interaction:ASN:152>  (414) 
0

>  <halogenbond:TYR:150>  (414) 
0

>  <hbond:ASP:83>  (414) 
0

>  <hydroph_interaction:VAL:155>  (414) 
0

>  <pication:TYR:161>  (414) 
0

>  <hbond:PRO:131>  (414) 
0

>  <saltbridge:ASP:129>  (414) 
0

>  <hbond:THR:134>  (414) 
0

>  <pication:HIS:51>  (414) 
0

>  <hbond:SER:81>  (414) 
0

>  <hydroph_interaction:THR:134>  (414) 
0

>  <hydroph_interaction:MET:49>  (414) 
0

$$$$
Z1256148476
     RDKit          3D

 53 57  0  0  0  0  0  0  0  0999 V2000
   -5.7530    5.3200  -21.9110 O   0  0  0  0  0  0  0  0  0  0  0  0
   -5.1080    6.3290  -21.6630 C   0  0  0  0  0  0  0  0  0  0  0  0
   -4.0610    6.4020  -20.7650 N   0  0  0  0  0  0  0  0  0  0  0  0
   -3.0130    5.4010  -20.7760 C   0  0  0  0  0  0  0  0  0  0  0  0
   -2.5810    5.1040  -19.4860 C   0  0  0  0  0  0  0  0  0  0  0  0
   -3.3240    5.8940  -18.5480 O   0  0  0  0  0  0  0  0  0  0  0  0
   -4.6640    5.7060  -18.2680 C   0  0  0  0  0  0  0  0  0  0  0  0
   -4.9720    6.0630  -16.9390 C   0  0  0  0  0  0  0  0  0  0  0  0
   -6.3700    5.9560  -16.4100 C   0  0  0  0  0  0  0  0  0  0  0  0
   -7.4530    5.4590  -17.3240 C   0  0  0  0  0  0  0  0  0  0  0  0
   -8.7750    5.2970  -17.0420 O   0  0  0  0  0  0  0  0  0  0  0  0
   -9.2000    4.6370  -18.2510 C   0  0  0  0  0  0  0  0  0  0  0  0
   -8.2090    4.6850  -19.3000 O   0  0  0  0  0  0  0  0  0  0  0  0
   -7.1230    5.1180  -18.6030 C   0  0  0  0  0  0  0  0  0  0  0  0
   -5.6800    5.2320  -19.1300 C   0  0  0  0  0  0  0  0  0  0  0  0
   -5.4060    7.5720  -22.3640 C   0  0  0  0  0  0  0  0  0  0  0  0
   -6.0880    7.4410  -23.5750 C   0  0  0  0  0  0  0  0  0  0  0  0
   -6.3920    8.5610  -24.2940 C   0  0  0  0  0  0  0  0  0  0  0  0
   -6.0230    9.8130  -23.8220 C   0  0  0  0  0  0  0  0  0  0  0  0
   -6.4450   11.1950  -24.8300 S   0  0  0  0  0  0  0  0  0  0  0  0
   -6.1360   10.4100  -26.4520 C   0  0  0  0  0  0  0  0  0  0  0  0
   -7.3210    9.6680  -26.9530 C   0  0  0  0  0  0  0  0  0  0  0  0
   -7.3970    8.3940  -27.2870 N   0  0  0  0  0  0  0  0  0  0  0  0
   -8.6980    8.1860  -27.6720 C   0  0  0  0  0  0  0  0  0  0  0  0
   -9.3360    7.0230  -28.1120 C   0  0  0  0  0  0  0  0  0  0  0  0
  -10.6980    7.0830  -28.4370 C   0  0  0  0  0  0  0  0  0  0  0  0
  -11.4070    8.2820  -28.3280 C   0  0  0  0  0  0  0  0  0  0  0  0
  -10.7880    9.4550  -27.8960 C   0  0  0  0  0  0  0  0  0  0  0  0
   -9.4300    9.3640  -27.5770 C   0  0  0  0  0  0  0  0  0  0  0  0
   -8.5340   10.2840  -27.1260 N   0  0  0  0  0  0  0  0  0  0  0  0
   -5.3440    9.9560  -22.6060 C   0  0  0  0  0  0  0  0  0  0  0  0
   -5.0320    8.8220  -21.8660 C   0  0  0  0  0  0  0  0  0  0  0  0
   -4.2040    6.8940  -19.8950 H   0  0  0  0  0  0  0  0  0  0  0  0
   -2.1740    5.7580  -21.3790 H   0  0  0  0  0  0  0  0  0  0  0  0
   -3.4260    4.5120  -21.2570 H   0  0  0  0  0  0  0  0  0  0  0  0
   -2.5700    4.0790  -19.1370 H   0  0  0  0  0  0  0  0  0  0  0  0
   -1.5340    5.4260  -19.4350 H   0  0  0  0  0  0  0  0  0  0  0  0
   -4.1210    6.4180  -16.3440 H   0  0  0  0  0  0  0  0  0  0  0  0
   -6.6110    6.2330  -15.3770 H   0  0  0  0  0  0  0  0  0  0  0  0
  -10.1270    5.1020  -18.6110 H   0  0  0  0  0  0  0  0  0  0  0  0
   -9.3990    3.5890  -18.0240 H   0  0  0  0  0  0  0  0  0  0  0  0
   -5.4870    4.9460  -20.1520 H   0  0  0  0  0  0  0  0  0  0  0  0
   -6.3750    6.4610  -23.9470 H   0  0  0  0  0  0  0  0  0  0  0  0
   -6.9240    8.4530  -25.2360 H   0  0  0  0  0  0  0  0  0  0  0  0
   -5.2600    9.7540  -26.3950 H   0  0  0  0  0  0  0  0  0  0  0  0
   -5.8910   11.2080  -27.1600 H   0  0  0  0  0  0  0  0  0  0  0  0
   -8.7780    6.0940  -28.1930 H   0  0  0  0  0  0  0  0  0  0  0  0
  -11.2030    6.1850  -28.7770 H   0  0  0  0  0  0  0  0  0  0  0  0
  -12.4660    8.3050  -28.5850 H   0  0  0  0  0  0  0  0  0  0  0  0
  -11.3400   10.3860  -27.8130 H   0  0  0  0  0  0  0  0  0  0  0  0
   -8.7320   11.2560  -26.9440 H   0  0  0  0  0  0  0  0  0  0  0  0
   -5.0570   10.9360  -22.2360 H   0  0  0  0  0  0  0  0  0  0  0  0
   -4.5030    8.9300  -20.9240 H   0  0  0  0  0  0  0  0  0  0  0  0
  1  2  2  0
  2  3  1  0
  3  4  1  0
  4  5  1  0
  5  6  1  0
  6  7  1  0
  7  8  2  0
  8  9  1  0
  9 10  2  0
 10 11  1  0
 11 12  1  0
 12 13  1  0
 13 14  1  0
 14 15  2  0
  2 16  1  0
 16 17  2  0
 17 18  1  0
 18 19  2  0
 19 20  1  0
 20 21  1  0
 21 22  1  0
 22 23  2  0
 23 24  1  0
 24 25  2  0
 25 26  1  0
 26 27  2  0
 27 28  1  0
 28 29  2  0
 29 30  1  0
 19 31  1  0
 31 32  2  0
 15  7  1  0
 14 10  1  0
 32 16  1  0
 30 22  1  0
 29 24  1  0
  3 33  1  0
  4 34  1  0
  4 35  1  0
  5 36  1  0
  5 37  1  0
  8 38  1  0
  9 39  1  0
 12 40  1  0
 12 41  1  0
 15 42  1  0
 17 43  1  0
 18 44  1  0
 21 45  1  0
 21 46  1  0
 25 47  1  0
 26 48  1  0
 27 49  1  0
 28 50  1  0
 30 51  1  0
 31 52  1  0
 32 53  1  0
A    1
 O1 
A    2
 C1 
A    3
 N1 
A    4
 C2 
A    5
 C3 
A    6
 O2 
A    7
 C4 
A    8
 C5 
A    9
 C6 
A   10
 C7 
A   11
 O3 
A   12
 C8 
A   13
 O4 
A   14
 C9 
A   15
 C10
A   16
 C11
A   17
 C12
A   18
 C13
A   19
 C14
A   20
 S1 
A   21
 C15
A   22
 C16
A   23
 N2 
A   24
 C17
A   25
 C18
A   26
 C19
A   27
 C20
A   28
 C21
A   29
 C22
A   30
 N3 
A   31
 C23
A   32
 C24
A   33
 H1 
A   34
 H2 
A   35
 H3 
A   36
 H4 
A   37
 H5 
A   38
 H6 
A   39
 H7 
A   40
 H8 
A   41
 H9 
A   42
 H10
A   43
 H11
A   44
 H12
A   45
 H13
A   46
 H14
A   47
 H15
A   48
 H16
A   49
 H17
A   50
 H18
A   51
 H19
A   52
 H20
A   53
 H21
M  END
>  <ref_pdb>  (415) 
x0051_0B

>  <ref_mols>  (415) 
x0846_1B,x0051_0B

>  <original SMILES>  (415) 
[H]c1c([H])c2c(c([H])c1OC([H])([H])C([H])([H])N([H])C(=O)c1c([H])c([H])c(SC([H])([H])c3nc4c([H])c([H])c([H])c([H])c4n3[H])c([H])c1[H])OC([H])([H])O2

>  <index>  (415) 
2433

>  <∆∆G>  (415) 
-7.260912

>  <∆G_bound>  (415) 
-6.249045

>  <∆G_unbound>  (415) 
1.011867

>  <comRMSD>  (415) 
0.646589

>  <N_constrained_atoms>  (415) 
30.0

>  <N_unconstrained_atoms>  (415) 
3.0

>  <runtime>  (415) 
37.856371

>  <LE>  (415) 
0.220028

>  <percent_hybrid>  (415) 
40.0

>  <dist>  (415) 
10.0

>  <ecfp4>  (415) 
0.302326

>  <daylight>  (415) 
0.350598

>  <topodist>  (415) 
4.0

>  <mces>  (415) 
34.0

>  <tdn>  (415) 
2.0

>  <tup>  (415) 
1.0

>  <rdn>  (415) 
0.0

>  <rup>  (415) 
0.0

>  <ldn>  (415) 
0.0

>  <lup>  (415) 
1.0

>  <mut>  (415) 
5.0

>  <maj>  (415) 
4.0

>  <min>  (415) 
1.0

>  <hyb>  (415) 
1.0

>  <sub>  (415) 
1.0

>  <query_index>  (415) 
251.0

>  <max_hit_Tanimoto>  (415) 
0.343173

>  <largest_ring>  (415) 
6

>  <N_interactions_kept>  (415) 
1.0

>  <N_interactions_lost>  (415) 
2.5

>  <interaction_uniqueness_metric>  (415) 
0.191042

>  <ad_hoc_penalty>  (415) 
-3.878463

>  <N_rotatable_bonds>  (415) 
8

>  <N_HA>  (415) 
32

>  <cluster>  (415) 
3979

>  <N_interactions>  (415) 
6

>  <Enamine>  (415) 
1

>  <Mcule>  (415) 
0

>  <N_PAINS>  (415) 
0

>  <UFF_Gibbs>  (415) 
242.184876

>  <strain_per_HA>  (415) 
7.568277

>  <intxn_scored>  (415) 
8.0

>  <saltbridge:HIS:51>  (415) 
0

>  <pistack:HIS:51>  (415) 
0

>  <hydroph_interaction:HIS:51>  (415) 
0

>  <hbond:ALA:132>  (415) 
0

>  <hbond:SER:135>  (415) 
0

>  <hydroph_interaction:TYR:150>  (415) 
0

>  <pistack:TYR:161>  (415) 
1

>  <hydroph_interaction:TYR:161>  (415) 
1

>  <hydroph_interaction:ASP:83>  (415) 
0

>  <hbond:TYR:130>  (415) 
1

>  <hydroph_interaction:ALA:132>  (415) 
0

>  <hbond:HIS:51>  (415) 
0

>  <hbond:ASP:129>  (415) 
1

>  <hbond:TYR:150>  (415) 
0

>  <hbond:GLY:151>  (415) 
0

>  <hbond:TYR:161>  (415) 
0

>  <hydroph_interaction:TYR:130>  (415) 
1

>  <hydroph_interaction:PRO:131>  (415) 
1

>  <hydroph_interaction:ASP:129>  (415) 
0

>  <saltbridge:ASP:75>  (415) 
0

>  <saltbridge:ASP:83>  (415) 
0

>  <hbond:ASN:152>  (415) 
0

>  <hydroph_interaction:ASN:152>  (415) 
0

>  <halogenbond:TYR:150>  (415) 
0

>  <hbond:ASP:83>  (415) 
0

>  <hydroph_interaction:VAL:155>  (415) 
0

>  <pication:TYR:161>  (415) 
0

>  <hbond:PRO:131>  (415) 
0

>  <saltbridge:ASP:129>  (415) 
0

>  <hbond:THR:134>  (415) 
0

>  <pication:HIS:51>  (415) 
0

>  <hbond:SER:81>  (415) 
0

>  <hydroph_interaction:THR:134>  (415) 
0

>  <hydroph_interaction:MET:49>  (415) 
0

$$$$
Z5316865142
     RDKit          3D

 50 53  0  0  0  0  0  0  0  0999 V2000
   -2.6770    5.0070  -17.5340 C   0  0  0  0  0  0  0  0  0  0  0  0
   -4.1110    5.1930  -18.0470 C   0  0  0  0  0  0  0  0  0  0  0  0
   -5.2130    5.3670  -17.1840 N   0  0  0  0  0  0  0  0  0  0  0  0
   -6.3300    5.5050  -17.9240 C   0  0  0  0  0  0  0  0  0  0  0  0
   -7.6770    5.7260  -17.5610 C   0  0  1  0  0  0  0  0  0  0  0  0
   -8.5410    5.1490  -18.5230 C   0  0  0  0  0  0  0  0  0  0  0  0
   -9.6820    4.7460  -17.9390 C   0  0  0  0  0  0  0  0  0  0  0  0
   -9.7360    5.2130  -16.4920 C   0  0  0  0  0  0  0  0  0  0  0  0
   -8.3510    5.4700  -16.1290 N   0  0  0  0  0  0  0  0  0  0  0  0
   -8.3250    6.6700  -14.8210 S   0  0  0  0  0  6  0  0  0  0  0  0
   -9.5540    7.4240  -14.7820 O   0  0  0  0  0  0  0  0  0  0  0  0
   -7.0980    7.3900  -14.8710 O   0  0  0  0  0  0  0  0  0  0  0  0
   -8.4840    5.9680  -13.1770 C   0  0  0  0  0  0  0  0  0  0  0  0
   -8.4390    6.7950  -12.0240 C   0  0  0  0  0  0  0  0  0  0  0  0
   -8.5720    6.2490  -10.7330 C   0  0  0  0  0  0  0  0  0  0  0  0
   -8.7520    4.8790  -10.5720 C   0  0  0  0  0  0  0  0  0  0  0  0
   -8.8840    4.2780   -9.3320 N   0  0  0  0  0  0  0  0  0  0  0  0
   -9.1310    2.8290   -9.2690 C   0  0  0  0  0  0  0  0  0  0  0  0
   -9.5640    2.4470   -7.9090 C   0  0  0  0  0  0  0  0  0  0  0  0
   -8.7870    2.7710   -6.8300 N   0  0  0  0  0  0  0  0  0  0  0  0
   -8.9050    4.2320   -6.8180 C   0  0  0  0  0  0  0  0  0  0  0  0
   -8.3890    4.9310   -8.1000 C   0  0  0  0  0  0  0  0  0  0  0  0
   -8.7990    4.0760  -11.7150 C   0  0  0  0  0  0  0  0  0  0  0  0
   -8.6680    4.6070  -13.0020 C   0  0  0  0  0  0  0  0  0  0  0  0
   -5.9780    5.4190  -19.2600 N   0  0  0  0  0  0  0  0  0  0  0  0
   -4.6210    5.2320  -19.3020 N   0  0  0  0  0  0  0  0  0  0  0  0
   -2.6680    4.3890  -16.6280 H   0  0  0  0  0  0  0  0  0  0  0  0
   -2.0710    4.5230  -18.3060 H   0  0  0  0  0  0  0  0  0  0  0  0
   -2.2230    5.9700  -17.2770 H   0  0  0  0  0  0  0  0  0  0  0  0
   -7.7560    6.7820  -17.7020 H   0  0  0  0  0  0  0  0  0  0  0  0
   -8.0550    4.2480  -18.8710 H   0  0  0  0  0  0  0  0  0  0  0  0
   -8.6470    5.7270  -19.4370 H   0  0  0  0  0  0  0  0  0  0  0  0
   -9.7460    3.6670  -17.9850 H   0  0  0  0  0  0  0  0  0  0  0  0
  -10.5430    5.1490  -18.4880 H   0  0  0  0  0  0  0  0  0  0  0  0
  -10.1930    4.4830  -15.8340 H   0  0  0  0  0  0  0  0  0  0  0  0
  -10.3220    6.1260  -16.4200 H   0  0  0  0  0  0  0  0  0  0  0  0
   -8.3000    7.8680  -12.1260 H   0  0  0  0  0  0  0  0  0  0  0  0
   -8.5300    6.9220   -9.8810 H   0  0  0  0  0  0  0  0  0  0  0  0
   -8.2160    2.2640   -9.4950 H   0  0  0  0  0  0  0  0  0  0  0  0
   -9.9010    2.5480   -9.9990 H   0  0  0  0  0  0  0  0  0  0  0  0
  -10.5610    2.8570   -7.7300 H   0  0  0  0  0  0  0  0  0  0  0  0
   -9.6950    1.3640   -7.9040 H   0  0  0  0  0  0  0  0  0  0  0  0
   -9.2130    2.3640   -5.9960 H   0  0  0  0  0  0  0  0  0  0  0  0
   -8.3740    4.6220   -5.9430 H   0  0  0  0  0  0  0  0  0  0  0  0
   -9.9640    4.4820   -6.6730 H   0  0  0  0  0  0  0  0  0  0  0  0
   -7.2920    4.9180   -8.1070 H   0  0  0  0  0  0  0  0  0  0  0  0
   -8.7170    5.9760   -8.0520 H   0  0  0  0  0  0  0  0  0  0  0  0
   -8.9410    3.0000  -11.6320 H   0  0  0  0  0  0  0  0  0  0  0  0
   -8.7090    3.9520  -13.8620 H   0  0  0  0  0  0  0  0  0  0  0  0
   -4.1500    5.1440  -20.1940 H   0  0  0  0  0  0  0  0  0  0  0  0
  1  2  1  0
  2  3  2  0
  3  4  1  0
  4  5  1  0
  5  6  1  0
  6  7  1  0
  7  8  1  0
  8  9  1  0
  9 10  1  0
 10 11  2  0
 10 12  2  0
 10 13  1  0
 13 14  2  0
 14 15  1  0
 15 16  2  0
 16 17  1  0
 17 18  1  0
 18 19  1  0
 19 20  1  0
 20 21  1  0
 21 22  1  0
 16 23  1  0
 23 24  2  0
  4 25  2  0
 25 26  1  0
 26  2  1  0
  9  5  1  0
 24 13  1  0
 22 17  1  0
  1 27  1  0
  1 28  1  0
  1 29  1  0
  5 30  1  6
  6 31  1  0
  6 32  1  0
  7 33  1  0
  7 34  1  0
  8 35  1  0
  8 36  1  0
 14 37  1  0
 15 38  1  0
 18 39  1  0
 18 40  1  0
 19 41  1  0
 19 42  1  0
 20 43  1  0
 21 44  1  0
 21 45  1  0
 22 46  1  0
 22 47  1  0
 23 48  1  0
 24 49  1  0
 26 50  1  0
A    1
 C1 
A    2
 C2 
A    3
 N1 
A    4
 C3 
A    5
 C4 
A    6
 C5 
A    7
 C6 
A    8
 C7 
A    9
 N2 
A   10
 S1 
A   11
 O1 
A   12
 O2 
A   13
 C8 
A   14
 C9 
A   15
 C10
A   16
 C11
A   17
 N3 
A   18
 C12
A   19
 C13
A   20
 N4 
A   21
 C14
A   22
 C15
A   23
 C16
A   24
 C17
A   25
 N5 
A   26
 N6 
A   27
 H1 
A   28
 H2 
A   29
 H3 
A   30
 H4 
A   31
 H5 
A   32
 H6 
A   33
 H7 
A   34
 H8 
A   35
 H9 
A   36
 H10
A   37
 H11
A   38
 H12
A   39
 H13
A   40
 H14
A   41
 H15
A   42
 H16
A   43
 H17
A   44
 H18
A   45
 H19
A   46
 H20
A   47
 H21
A   48
 H22
A   49
 H23
A   50
 H24
M  END
>  <ref_pdb>  (416) 
x0051_0B

>  <ref_mols>  (416) 
x0404_0B,x0422_0B

>  <original SMILES>  (416) 
[H]c1c([H])c(S(=O)(=O)N2C([H])([H])C([H])([H])C([H])([H])[C@]2([H])c2nc(C([H])([H])[H])n([H])n2)c([H])c([H])c1N1C([H])([H])C([H])([H])N([H])C([H])([H])C1([H])[H]

>  <index>  (416) 
3482

>  <∆∆G>  (416) 
-5.546825

>  <∆G_bound>  (416) 
-4.185678

>  <∆G_unbound>  (416) 
1.361148

>  <comRMSD>  (416) 
0.860456

>  <N_constrained_atoms>  (416) 
26.0

>  <N_unconstrained_atoms>  (416) 
0.0

>  <runtime>  (416) 
72.181044

>  <LE>  (416) 
0.213339

>  <percent_hybrid>  (416) 
43.0

>  <dist>  (416) 
7.0

>  <ecfp4>  (416) 
0.35443

>  <daylight>  (416) 
0.435146

>  <topodist>  (416) 
2.0

>  <mces>  (416) 
29.0

>  <tdn>  (416) 
0.0

>  <tup>  (416) 
0.0

>  <rdn>  (416) 
0.0

>  <rup>  (416) 
0.0

>  <ldn>  (416) 
2.0

>  <lup>  (416) 
0.0

>  <mut>  (416) 
3.0

>  <maj>  (416) 
3.0

>  <min>  (416) 
0.0

>  <hyb>  (416) 
2.0

>  <sub>  (416) 
0.0

>  <query_index>  (416) 
324.0

>  <max_hit_Tanimoto>  (416) 
0.278049

>  <largest_ring>  (416) 
6

>  <N_interactions_kept>  (416) 
2.0

>  <N_interactions_lost>  (416) 
3.5

>  <interaction_uniqueness_metric>  (416) 
0.212949

>  <ad_hoc_penalty>  (416) 
-0.952687

>  <N_rotatable_bonds>  (416) 
5

>  <N_HA>  (416) 
26

>  <cluster>  (416) 
2989

>  <N_interactions>  (416) 
6

>  <Enamine>  (416) 
1

>  <Mcule>  (416) 
0

>  <N_PAINS>  (416) 
0

>  <UFF_Gibbs>  (416) 
141.045102

>  <strain_per_HA>  (416) 
5.424812

>  <intxn_scored>  (416) 
8.0

>  <saltbridge:HIS:51>  (416) 
0

>  <pistack:HIS:51>  (416) 
1

>  <hydroph_interaction:HIS:51>  (416) 
0

>  <hbond:ALA:132>  (416) 
0

>  <hbond:SER:135>  (416) 
0

>  <hydroph_interaction:TYR:150>  (416) 
0

>  <pistack:TYR:161>  (416) 
1

>  <hydroph_interaction:TYR:161>  (416) 
2

>  <hydroph_interaction:ASP:83>  (416) 
0

>  <hbond:TYR:130>  (416) 
0

>  <hydroph_interaction:ALA:132>  (416) 
0

>  <hbond:HIS:51>  (416) 
0

>  <hbond:ASP:129>  (416) 
0

>  <hbond:TYR:150>  (416) 
0

>  <hbond:GLY:151>  (416) 
0

>  <hbond:TYR:161>  (416) 
0

>  <hydroph_interaction:TYR:130>  (416) 
0

>  <hydroph_interaction:PRO:131>  (416) 
0

>  <hydroph_interaction:ASP:129>  (416) 
0

>  <saltbridge:ASP:75>  (416) 
0

>  <saltbridge:ASP:83>  (416) 
0

>  <hbond:ASN:152>  (416) 
0

>  <hydroph_interaction:ASN:152>  (416) 
0

>  <halogenbond:TYR:150>  (416) 
0

>  <hbond:ASP:83>  (416) 
0

>  <hydroph_interaction:VAL:155>  (416) 
1

>  <pication:TYR:161>  (416) 
0

>  <hbond:PRO:131>  (416) 
0

>  <saltbridge:ASP:129>  (416) 
0

>  <hbond:THR:134>  (416) 
0

>  <pication:HIS:51>  (416) 
0

>  <hbond:SER:81>  (416) 
1

>  <hydroph_interaction:THR:134>  (416) 
0

>  <hydroph_interaction:MET:49>  (416) 
0

$$$$
PV-002250225320
     RDKit          3D

 22 23  0  0  0  0  0  0  0  0999 V2000
   -9.4250    5.1370  -15.7330 C   0  0  0  0  0  0  0  0  0  0  0  0
   -8.3040    5.5250  -15.1270 C   0  0  0  0  0  0  0  0  0  0  0  0
   -8.2680    5.5710  -13.8940 O   0  0  0  0  0  0  0  0  0  0  0  0
   -7.2360    5.8670  -15.9160 N   0  0  0  0  0  0  0  0  0  0  0  0
   -5.9030    6.2450  -15.3590 C   0  0  0  0  0  0  0  0  0  0  0  0
   -5.0240    5.9910  -16.3840 C   0  0  0  0  0  0  0  0  0  0  0  0
   -5.7530    5.6700  -17.5970 C   0  0  0  0  0  0  0  0  0  0  0  0
   -5.2580    5.4410  -18.9830 C   0  0  0  0  0  0  0  0  0  0  0  0
   -6.1320    5.1500  -19.9660 N   0  0  0  0  0  0  0  0  0  0  0  0
   -7.4550    5.0770  -19.6110 C   0  0  0  0  0  0  0  0  0  0  0  0
   -7.9580    5.2860  -18.3240 C   0  0  0  0  0  0  0  0  0  0  0  0
   -7.0790    5.5900  -17.3080 C   0  0  0  0  0  0  0  0  0  0  0  0
  -10.2600    4.8030  -15.1120 H   0  0  0  0  0  0  0  0  0  0  0  0
   -9.7840    5.9510  -16.3690 H   0  0  0  0  0  0  0  0  0  0  0  0
   -9.1780    4.3510  -16.4530 H   0  0  0  0  0  0  0  0  0  0  0  0
   -5.9710    7.2620  -14.9800 H   0  0  0  0  0  0  0  0  0  0  0  0
   -5.6910    5.5930  -14.5050 H   0  0  0  0  0  0  0  0  0  0  0  0
   -4.4530    5.1010  -16.1000 H   0  0  0  0  0  0  0  0  0  0  0  0
   -4.2810    6.7650  -16.5650 H   0  0  0  0  0  0  0  0  0  0  0  0
   -4.2020    5.4990  -19.2420 H   0  0  0  0  0  0  0  0  0  0  0  0
   -8.1290    4.8360  -20.4290 H   0  0  0  0  0  0  0  0  0  0  0  0
   -9.0450    5.1840  -18.2420 H   0  0  0  0  0  0  0  0  0  0  0  0
  1  2  1  0
  2  3  2  0
  2  4  1  0
  4  5  1  0
  5  6  1  0
  6  7  1  0
  7  8  2  0
  8  9  1  0
  9 10  2  0
 10 11  1  0
 11 12  2  0
 12  4  1  0
 12  7  1  0
  1 13  1  0
  1 14  1  0
  1 15  1  0
  5 16  1  0
  5 17  1  0
  6 18  1  0
  6 19  1  0
  8 20  1  0
 10 21  1  0
 11 22  1  0
A    1
 C1 
A    2
 C2 
A    3
 O1 
A    4
 N1 
A    5
 C3 
A    6
 C4 
A    7
 C5 
A    8
 C6 
A    9
 N2 
A   10
 C7 
A   11
 C8 
A   12
 C9 
A   13
 H1 
A   14
 H2 
A   15
 H3 
A   16
 H4 
A   17
 H5 
A   18
 H6 
A   19
 H7 
A   20
 H8 
A   21
 H9 
A   22
 H10
M  END
>  <ref_pdb>  (417) 
x0051_0B

>  <ref_mols>  (417) 
x0687_0B,x0680_0B

>  <original SMILES>  (417) 
[H]c1nc([H])c2c(c1[H])N(C(=O)C([H])([H])[H])C([H])([H])C2([H])[H]

>  <index>  (417) 
3103

>  <∆∆G>  (417) 
-5.352196

>  <∆G_bound>  (417) 
-5.131112

>  <∆G_unbound>  (417) 
0.221084

>  <comRMSD>  (417) 
0.760141

>  <N_constrained_atoms>  (417) 
14.0

>  <N_unconstrained_atoms>  (417) 
1.0

>  <runtime>  (417) 
17.279216

>  <LE>  (417) 
0.356813

>  <percent_hybrid>  (417) 
38.0

>  <dist>  (417) 
1.0

>  <ecfp4>  (417) 
0.547619

>  <daylight>  (417) 
0.925926

>  <topodist>  (417) 
1.0

>  <mces>  (417) 
13.0

>  <tdn>  (417) 
1.0

>  <tup>  (417) 
0.0

>  <rdn>  (417) 
0.0

>  <rup>  (417) 
0.0

>  <ldn>  (417) 
0.0

>  <lup>  (417) 
0.0

>  <mut>  (417) 
0.0

>  <maj>  (417) 
0.0

>  <min>  (417) 
0.0

>  <hyb>  (417) 
0.0

>  <sub>  (417) 
1.0

>  <query_index>  (417) 
316.0

>  <max_hit_Tanimoto>  (417) 
0.483235

>  <largest_ring>  (417) 
6

>  <N_interactions_kept>  (417) 
4.0

>  <N_interactions_lost>  (417) 
2.0

>  <interaction_uniqueness_metric>  (417) 
0.018496

>  <ad_hoc_penalty>  (417) 
-1.722288

>  <N_rotatable_bonds>  (417) 
1

>  <N_HA>  (417) 
12

>  <cluster>  (417) 
3349

>  <N_interactions>  (417) 
2

>  <Enamine>  (417) 
1

>  <Mcule>  (417) 
0

>  <N_PAINS>  (417) 
0

>  <UFF_Gibbs>  (417) 
53.849528

>  <strain_per_HA>  (417) 
4.487461

>  <intxn_scored>  (417) 
8.0

>  <saltbridge:HIS:51>  (417) 
0

>  <pistack:HIS:51>  (417) 
0

>  <hydroph_interaction:HIS:51>  (417) 
0

>  <hbond:ALA:132>  (417) 
0

>  <hbond:SER:135>  (417) 
0

>  <hydroph_interaction:TYR:150>  (417) 
0

>  <pistack:TYR:161>  (417) 
2

>  <hydroph_interaction:TYR:161>  (417) 
0

>  <hydroph_interaction:ASP:83>  (417) 
0

>  <hbond:TYR:130>  (417) 
0

>  <hydroph_interaction:ALA:132>  (417) 
0

>  <hbond:HIS:51>  (417) 
0

>  <hbond:ASP:129>  (417) 
0

>  <hbond:TYR:150>  (417) 
0

>  <hbond:GLY:151>  (417) 
0

>  <hbond:TYR:161>  (417) 
0

>  <hydroph_interaction:TYR:130>  (417) 
0

>  <hydroph_interaction:PRO:131>  (417) 
0

>  <hydroph_interaction:ASP:129>  (417) 
0

>  <saltbridge:ASP:75>  (417) 
0

>  <saltbridge:ASP:83>  (417) 
0

>  <hbond:ASN:152>  (417) 
0

>  <hydroph_interaction:ASN:152>  (417) 
0

>  <halogenbond:TYR:150>  (417) 
0

>  <hbond:ASP:83>  (417) 
0

>  <hydroph_interaction:VAL:155>  (417) 
0

>  <pication:TYR:161>  (417) 
0

>  <hbond:PRO:131>  (417) 
0

>  <saltbridge:ASP:129>  (417) 
0

>  <hbond:THR:134>  (417) 
0

>  <pication:HIS:51>  (417) 
0

>  <hbond:SER:81>  (417) 
0

>  <hydroph_interaction:THR:134>  (417) 
0

>  <hydroph_interaction:MET:49>  (417) 
0

$$$$
PV-006785857181
     RDKit          3D

 31 31  0  0  0  0  0  0  0  0999 V2000
   -3.6550    3.7740  -13.8050 C   0  0  0  0  0  0  0  0  0  0  0  0
   -3.7660    4.5590  -15.0590 C   0  0  0  0  0  0  0  0  0  0  0  0
   -2.7370    4.8350  -15.9250 C   0  0  0  0  0  0  0  0  0  0  0  0
   -5.0960    5.1330  -15.4820 C   0  0  0  0  0  0  0  0  0  0  0  0
   -6.0670    5.2340  -14.4030 C   0  0  0  0  0  0  0  0  0  0  0  0
   -7.1780    6.0140  -14.6830 C   0  0  0  0  0  0  0  0  0  0  0  0
   -7.0660    7.4030  -14.5490 C   0  0  0  0  0  0  0  0  0  0  0  0
   -7.6380    5.6970  -16.0310 N   0  0  0  0  0  0  0  0  0  0  0  0
   -8.8570    5.1890  -16.3820 C   0  0  0  0  0  0  0  0  0  0  0  0
   -8.8160    5.0590  -17.7680 C   0  0  0  0  0  0  0  0  0  0  0  0
   -9.9400    4.5370  -18.6100 C   0  0  0  0  0  0  0  0  0  0  0  0
   -7.5420    5.5120  -18.1450 C   0  0  0  0  0  0  0  0  0  0  0  0
   -6.8240    5.9010  -17.0900 N   0  0  0  0  0  0  0  0  0  0  0  0
   -2.6970    3.3490  -13.4850 H   0  0  0  0  0  0  0  0  0  0  0  0
   -4.5300    3.5980  -13.1710 H   0  0  0  0  0  0  0  0  0  0  0  0
   -2.8760    5.8810  -16.2030 H   0  0  0  0  0  0  0  0  0  0  0  0
   -1.6760    4.7640  -15.7280 H   0  0  0  0  0  0  0  0  0  0  0  0
   -2.8320    4.3080  -16.8660 H   0  0  0  0  0  0  0  0  0  0  0  0
   -5.4270    4.6040  -16.3670 H   0  0  0  0  0  0  0  0  0  0  0  0
   -4.9000    6.1570  -15.8340 H   0  0  0  0  0  0  0  0  0  0  0  0
   -5.6420    5.4070  -13.4220 H   0  0  0  0  0  0  0  0  0  0  0  0
   -6.4490    4.2090  -14.2940 H   0  0  0  0  0  0  0  0  0  0  0  0
   -7.9980    5.6920  -14.0330 H   0  0  0  0  0  0  0  0  0  0  0  0
   -6.7150    7.8660  -15.4760 H   0  0  0  0  0  0  0  0  0  0  0  0
   -8.0330    7.8530  -14.3010 H   0  0  0  0  0  0  0  0  0  0  0  0
   -6.3620    7.6720  -13.7520 H   0  0  0  0  0  0  0  0  0  0  0  0
   -9.6270    4.9680  -15.6530 H   0  0  0  0  0  0  0  0  0  0  0  0
   -9.7680    3.4870  -18.8600 H   0  0  0  0  0  0  0  0  0  0  0  0
  -10.0180    5.1030  -19.5480 H   0  0  0  0  0  0  0  0  0  0  0  0
  -10.8910    4.6240  -18.0830 H   0  0  0  0  0  0  0  0  0  0  0  0
   -7.1120    5.5740  -19.1400 H   0  0  0  0  0  0  0  0  0  0  0  0
  1  2  2  3
  2  3  1  0
  2  4  1  0
  4  5  1  0
  5  6  1  0
  6  7  1  0
  6  8  1  0
  8  9  1  0
  9 10  2  0
 10 11  1  0
 10 12  1  0
 12 13  2  0
 13  8  1  0
  1 14  1  0
  1 15  1  0
  3 16  1  0
  3 17  1  0
  3 18  1  0
  4 19  1  0
  4 20  1  0
  5 21  1  0
  5 22  1  0
  6 23  1  0
  7 24  1  0
  7 25  1  0
  7 26  1  0
  9 27  1  0
 11 28  1  0
 11 29  1  0
 11 30  1  0
 12 31  1  0
A    1
 C1 
A    2
 C2 
A    3
 C3 
A    4
 C4 
A    5
 C5 
A    6
 C6 
A    7
 C7 
A    8
 N1 
A    9
 C8 
A   10
 C9 
A   11
 C10
A   12
 C11
A   13
 N2 
A   14
 H1 
A   15
 H2 
A   16
 H3 
A   17
 H4 
A   18
 H5 
A   19
 H6 
A   20
 H7 
A   21
 H8 
A   22
 H9 
A   23
 H10
A   24
 H11
A   25
 H12
A   26
 H13
A   27
 H14
A   28
 H15
A   29
 H16
A   30
 H17
A   31
 H18
M  END
>  <ref_pdb>  (418) 
x0051_0B

>  <ref_mols>  (418) 
x0969_0B,x0693_0B

>  <original SMILES>  (418) 
[H]C([H])=C(C([H])([H])[H])C([H])([H])C([H])([H])C([H])(n1nc([H])c(C([H])([H])[H])c1[H])C([H])([H])[H]

>  <index>  (418) 
2590

>  <∆∆G>  (418) 
-6.517347

>  <∆G_bound>  (418) 
-6.911853

>  <∆G_unbound>  (418) 
-0.394506

>  <comRMSD>  (418) 
0.784324

>  <N_constrained_atoms>  (418) 
9.0

>  <N_unconstrained_atoms>  (418) 
6.0

>  <runtime>  (418) 
30.768003

>  <LE>  (418) 
0.43449

>  <percent_hybrid>  (418) 
0.0

>  <dist>  (418) 
5.0

>  <ecfp4>  (418) 
0.16129

>  <daylight>  (418) 
0.209091

>  <topodist>  (418) 
2.0

>  <mces>  (418) 
13.0

>  <tdn>  (418) 
0.0

>  <tup>  (418) 
0.0

>  <rdn>  (418) 
1.0

>  <rup>  (418) 
0.0

>  <ldn>  (418) 
1.0

>  <lup>  (418) 
0.0

>  <mut>  (418) 
2.0

>  <maj>  (418) 
2.0

>  <min>  (418) 
0.0

>  <hyb>  (418) 
1.0

>  <sub>  (418) 
1.0

>  <query_index>  (418) 
104.0

>  <max_hit_Tanimoto>  (418) 
0.263242

>  <largest_ring>  (418) 
5

>  <N_interactions_kept>  (418) 
2.0

>  <N_interactions_lost>  (418) 
2.5

>  <interaction_uniqueness_metric>  (418) 
0.10001

>  <ad_hoc_penalty>  (418) 
-2.096809

>  <N_rotatable_bonds>  (418) 
7

>  <N_HA>  (418) 
13

>  <cluster>  (418) 
3833

>  <N_interactions>  (418) 
7

>  <Enamine>  (418) 
1

>  <Mcule>  (418) 
0

>  <N_PAINS>  (418) 
0

>  <UFF_Gibbs>  (418) 
97.742634

>  <strain_per_HA>  (418) 
7.518664

>  <intxn_scored>  (418) 
8.0

>  <saltbridge:HIS:51>  (418) 
0

>  <pistack:HIS:51>  (418) 
0

>  <hydroph_interaction:HIS:51>  (418) 
0

>  <hbond:ALA:132>  (418) 
0

>  <hbond:SER:135>  (418) 
0

>  <hydroph_interaction:TYR:150>  (418) 
1

>  <pistack:TYR:161>  (418) 
1

>  <hydroph_interaction:TYR:161>  (418) 
3

>  <hydroph_interaction:ASP:83>  (418) 
0

>  <hbond:TYR:130>  (418) 
0

>  <hydroph_interaction:ALA:132>  (418) 
1

>  <hbond:HIS:51>  (418) 
0

>  <hbond:ASP:129>  (418) 
0

>  <hbond:TYR:150>  (418) 
0

>  <hbond:GLY:151>  (418) 
0

>  <hbond:TYR:161>  (418) 
0

>  <hydroph_interaction:TYR:130>  (418) 
0

>  <hydroph_interaction:PRO:131>  (418) 
0

>  <hydroph_interaction:ASP:129>  (418) 
0

>  <saltbridge:ASP:75>  (418) 
0

>  <saltbridge:ASP:83>  (418) 
0

>  <hbond:ASN:152>  (418) 
0

>  <hydroph_interaction:ASN:152>  (418) 
0

>  <halogenbond:TYR:150>  (418) 
0

>  <hbond:ASP:83>  (418) 
0

>  <hydroph_interaction:VAL:155>  (418) 
1

>  <pication:TYR:161>  (418) 
0

>  <hbond:PRO:131>  (418) 
0

>  <saltbridge:ASP:129>  (418) 
0

>  <hbond:THR:134>  (418) 
0

>  <pication:HIS:51>  (418) 
0

>  <hbond:SER:81>  (418) 
0

>  <hydroph_interaction:THR:134>  (418) 
0

>  <hydroph_interaction:MET:49>  (418) 
0

$$$$
CSSS00000210388
     RDKit          3D

 19 20  0  0  0  0  0  0  0  0999 V2000
   -9.6650    4.9170  -19.9430 O   0  0  0  0  0  0  0  0  0  0  0  0
   -9.0500    5.0110  -18.7460 C   0  0  0  0  0  0  0  0  0  0  0  0
  -10.0150    4.8950  -17.5900 C   0  0  0  0  0  0  0  0  0  0  0  0
   -9.3700    5.0050  -16.2250 C   0  0  0  0  0  0  0  0  0  0  0  0
   -7.9900    5.1930  -16.1130 C   0  0  0  0  0  0  0  0  0  0  0  0
   -7.1660    5.2900  -17.2440 C   0  0  0  0  0  0  0  0  0  0  0  0
   -5.7140    5.4900  -17.0190 C   0  0  0  0  0  0  0  0  0  0  0  0
   -4.8590    5.5940  -18.1050 C   0  0  0  0  0  0  0  0  0  0  0  0
   -5.3620    5.5100  -19.3870 C   0  0  0  0  0  0  0  0  0  0  0  0
   -6.7300    5.3200  -19.6210 C   0  0  0  0  0  0  0  0  0  0  0  0
   -7.6660    5.2040  -18.5680 C   0  0  0  0  0  0  0  0  0  0  0  0
   -9.2660    5.5400  -20.5890 H   0  0  0  0  0  0  0  0  0  0  0  0
  -11.0770    4.7470  -17.7490 H   0  0  0  0  0  0  0  0  0  0  0  0
   -9.9800    4.9340  -15.3260 H   0  0  0  0  0  0  0  0  0  0  0  0
   -7.5560    5.2650  -15.1150 H   0  0  0  0  0  0  0  0  0  0  0  0
   -5.3070    5.5570  -16.0110 H   0  0  0  0  0  0  0  0  0  0  0  0
   -3.7940    5.7420  -17.9470 H   0  0  0  0  0  0  0  0  0  0  0  0
   -4.6850    5.5930  -20.2310 H   0  0  0  0  0  0  0  0  0  0  0  0
   -7.0410    5.2640  -20.6610 H   0  0  0  0  0  0  0  0  0  0  0  0
  1  2  1  0
  2  3  2  0
  3  4  1  0
  4  5  2  0
  5  6  1  0
  6  7  2  0
  7  8  1  0
  8  9  2  0
  9 10  1  0
 10 11  2  0
 11  2  1  0
 11  6  1  0
  1 12  1  0
  3 13  1  0
  4 14  1  0
  5 15  1  0
  7 16  1  0
  8 17  1  0
  9 18  1  0
 10 19  1  0
A    1
 O1 
A    2
 C1 
A    3
 C2 
A    4
 C3 
A    5
 C4 
A    6
 C5 
A    7
 C6 
A    8
 C7 
A    9
 C8 
A   10
 C9 
A   11
 C10
A   12
 H1 
A   13
 H2 
A   14
 H3 
A   15
 H4 
A   16
 H5 
A   17
 H6 
A   18
 H7 
A   19
 H8 
M  END
>  <ref_pdb>  (419) 
x0051_0B

>  <ref_mols>  (419) 
x0727_0B,x0800_0B

>  <original SMILES>  (419) 
[H]Oc1c([H])c([H])c([H])c2c([H])c([H])c([H])c([H])c12

>  <index>  (419) 
2520

>  <∆∆G>  (419) 
-6.191179

>  <∆G_bound>  (419) 
-6.194836

>  <∆G_unbound>  (419) 
-0.003657

>  <comRMSD>  (419) 
0.706236

>  <N_constrained_atoms>  (419) 
14.0

>  <N_unconstrained_atoms>  (419) 
0.0

>  <runtime>  (419) 
21.433808

>  <LE>  (419) 
0.442227

>  <percent_hybrid>  (419) 
43.0

>  <dist>  (419) 
3.0

>  <ecfp4>  (419) 
0.482759

>  <daylight>  (419) 
0.5

>  <topodist>  (419) 
2.0

>  <mces>  (419) 
12.0

>  <tdn>  (419) 
2.0

>  <tup>  (419) 
0.0

>  <rdn>  (419) 
0.0

>  <rup>  (419) 
0.0

>  <ldn>  (419) 
0.0

>  <lup>  (419) 
0.0

>  <mut>  (419) 
1.0

>  <maj>  (419) 
1.0

>  <min>  (419) 
0.0

>  <hyb>  (419) 
0.0

>  <sub>  (419) 
1.0

>  <query_index>  (419) 
67.0

>  <max_hit_Tanimoto>  (419) 
0.152439

>  <largest_ring>  (419) 
6

>  <N_interactions_kept>  (419) 
1.0

>  <N_interactions_lost>  (419) 
3.0

>  <interaction_uniqueness_metric>  (419) 
0.050721

>  <ad_hoc_penalty>  (419) 
-6.992382

>  <N_rotatable_bonds>  (419) 
1

>  <N_HA>  (419) 
11

>  <cluster>  (419) 
3897

>  <N_interactions>  (419) 
4

>  <Enamine>  (419) 
1

>  <Mcule>  (419) 
0

>  <N_PAINS>  (419) 
0

>  <UFF_Gibbs>  (419) 
28.028176

>  <strain_per_HA>  (419) 
2.548016

>  <intxn_scored>  (419) 
8.0

>  <saltbridge:HIS:51>  (419) 
0

>  <pistack:HIS:51>  (419) 
0

>  <hydroph_interaction:HIS:51>  (419) 
0

>  <hbond:ALA:132>  (419) 
0

>  <hbond:SER:135>  (419) 
0

>  <hydroph_interaction:TYR:150>  (419) 
0

>  <pistack:TYR:161>  (419) 
1

>  <hydroph_interaction:TYR:161>  (419) 
2

>  <hydroph_interaction:ASP:83>  (419) 
0

>  <hbond:TYR:130>  (419) 
1

>  <hydroph_interaction:ALA:132>  (419) 
0

>  <hbond:HIS:51>  (419) 
0

>  <hbond:ASP:129>  (419) 
0

>  <hbond:TYR:150>  (419) 
0

>  <hbond:GLY:151>  (419) 
0

>  <hbond:TYR:161>  (419) 
0

>  <hydroph_interaction:TYR:130>  (419) 
0

>  <hydroph_interaction:PRO:131>  (419) 
0

>  <hydroph_interaction:ASP:129>  (419) 
0

>  <saltbridge:ASP:75>  (419) 
0

>  <saltbridge:ASP:83>  (419) 
0

>  <hbond:ASN:152>  (419) 
0

>  <hydroph_interaction:ASN:152>  (419) 
0

>  <halogenbond:TYR:150>  (419) 
0

>  <hbond:ASP:83>  (419) 
0

>  <hydroph_interaction:VAL:155>  (419) 
0

>  <pication:TYR:161>  (419) 
0

>  <hbond:PRO:131>  (419) 
0

>  <saltbridge:ASP:129>  (419) 
0

>  <hbond:THR:134>  (419) 
0

>  <pication:HIS:51>  (419) 
0

>  <hbond:SER:81>  (419) 
0

>  <hydroph_interaction:THR:134>  (419) 
0

>  <hydroph_interaction:MET:49>  (419) 
0

$$$$
CSSS00000039685
     RDKit          3D

 20 21  0  0  0  0  0  0  0  0999 V2000
   -9.9800    5.0060  -15.1720 O   0  0  0  0  0  0  0  0  0  0  0  0
   -9.2740    5.0610  -16.1590 C   0  0  0  0  0  0  0  0  0  0  0  0
   -7.7800    5.2300  -16.1440 C   0  0  0  0  0  0  0  0  0  0  0  0
   -7.0860    5.2740  -17.3360 C   0  0  0  0  0  0  0  0  0  0  0  0
   -5.6280    5.4360  -17.1880 C   0  0  0  0  0  0  0  0  0  0  0  0
   -4.9010    5.4850  -18.3790 C   0  0  0  0  0  0  0  0  0  0  0  0
   -5.5060    5.3880  -19.6330 C   0  0  0  0  0  0  0  0  0  0  0  0
   -6.8930    5.2370  -19.7460 C   0  0  0  0  0  0  0  0  0  0  0  0
   -7.6920    5.1750  -18.6040 C   0  0  0  0  0  0  0  0  0  0  0  0
   -9.0830    5.0180  -18.6740 C   0  0  0  0  0  0  0  0  0  0  0  0
   -9.7280    4.9270  -19.8620 O   0  0  0  0  0  0  0  0  0  0  0  0
   -9.8370    4.9610  -17.5150 C   0  0  0  0  0  0  0  0  0  0  0  0
  -10.0790    4.0560  -14.9760 H   0  0  0  0  0  0  0  0  0  0  0  0
   -7.2440    5.3110  -15.2060 H   0  0  0  0  0  0  0  0  0  0  0  0
   -5.1500    5.5100  -16.2130 H   0  0  0  0  0  0  0  0  0  0  0  0
   -3.8210    5.6020  -18.2340 H   0  0  0  0  0  0  0  0  0  0  0  0
   -4.8840    5.4340  -20.5260 H   0  0  0  0  0  0  0  0  0  0  0  0
   -7.3430    5.1600  -20.7320 H   0  0  0  0  0  0  0  0  0  0  0  0
   -9.3240    5.5430  -20.5180 H   0  0  0  0  0  0  0  0  0  0  0  0
  -10.9080    4.8390  -17.6160 H   0  0  0  0  0  0  0  0  0  0  0  0
  1  2  1  0
  2  3  2  0
  3  4  1  0
  4  5  2  0
  5  6  1  0
  6  7  2  0
  7  8  1  0
  8  9  2  0
  9 10  1  0
 10 11  1  0
 10 12  2  0
 12  2  1  0
  9  4  1  0
  1 13  1  0
  3 14  1  0
  5 15  1  0
  6 16  1  0
  7 17  1  0
  8 18  1  0
 11 19  1  0
 12 20  1  0
A    1
 O1 
A    2
 C1 
A    3
 C2 
A    4
 C3 
A    5
 C4 
A    6
 C5 
A    7
 C6 
A    8
 C7 
A    9
 C8 
A   10
 C9 
A   11
 O2 
A   12
 C10
A   13
 H1 
A   14
 H2 
A   15
 H3 
A   16
 H4 
A   17
 H5 
A   18
 H6 
A   19
 H7 
A   20
 H8 
M  END
>  <ref_pdb>  (420) 
x0051_0B

>  <ref_mols>  (420) 
x0727_0B,x0800_0B

>  <original SMILES>  (420) 
[H]Oc1c([H])c(O[H])c2c([H])c([H])c([H])c([H])c2c1[H]

>  <index>  (420) 
3052

>  <∆∆G>  (420) 
-6.317605

>  <∆G_bound>  (420) 
-6.259898

>  <∆G_unbound>  (420) 
0.057707

>  <comRMSD>  (420) 
0.788905

>  <N_constrained_atoms>  (420) 
14.0

>  <N_unconstrained_atoms>  (420) 
1.0

>  <runtime>  (420) 
27.908396

>  <LE>  (420) 
0.421174

>  <percent_hybrid>  (420) 
43.0

>  <dist>  (420) 
3.0

>  <ecfp4>  (420) 
0.40625

>  <daylight>  (420) 
0.470588

>  <topodist>  (420) 
3.0

>  <mces>  (420) 
12.0

>  <tdn>  (420) 
2.0

>  <tup>  (420) 
1.0

>  <rdn>  (420) 
0.0

>  <rup>  (420) 
0.0

>  <ldn>  (420) 
0.0

>  <lup>  (420) 
0.0

>  <mut>  (420) 
0.0

>  <maj>  (420) 
0.0

>  <min>  (420) 
0.0

>  <hyb>  (420) 
0.0

>  <sub>  (420) 
2.0

>  <query_index>  (420) 
67.0

>  <max_hit_Tanimoto>  (420) 
0.151429

>  <largest_ring>  (420) 
6

>  <N_interactions_kept>  (420) 
1.0

>  <N_interactions_lost>  (420) 
3.0

>  <interaction_uniqueness_metric>  (420) 
0.094722

>  <ad_hoc_penalty>  (420) 
-2.382858

>  <N_rotatable_bonds>  (420) 
2

>  <N_HA>  (420) 
12

>  <cluster>  (420) 
3396

>  <N_interactions>  (420) 
4

>  <Enamine>  (420) 
1

>  <Mcule>  (420) 
0

>  <N_PAINS>  (420) 
0

>  <UFF_Gibbs>  (420) 
58.990033

>  <strain_per_HA>  (420) 
4.915836

>  <intxn_scored>  (420) 
8.0

>  <saltbridge:HIS:51>  (420) 
0

>  <pistack:HIS:51>  (420) 
0

>  <hydroph_interaction:HIS:51>  (420) 
0

>  <hbond:ALA:132>  (420) 
0

>  <hbond:SER:135>  (420) 
1

>  <hydroph_interaction:TYR:150>  (420) 
0

>  <pistack:TYR:161>  (420) 
1

>  <hydroph_interaction:TYR:161>  (420) 
1

>  <hydroph_interaction:ASP:83>  (420) 
0

>  <hbond:TYR:130>  (420) 
1

>  <hydroph_interaction:ALA:132>  (420) 
0

>  <hbond:HIS:51>  (420) 
0

>  <hbond:ASP:129>  (420) 
0

>  <hbond:TYR:150>  (420) 
0

>  <hbond:GLY:151>  (420) 
0

>  <hbond:TYR:161>  (420) 
0

>  <hydroph_interaction:TYR:130>  (420) 
0

>  <hydroph_interaction:PRO:131>  (420) 
0

>  <hydroph_interaction:ASP:129>  (420) 
0

>  <saltbridge:ASP:75>  (420) 
0

>  <saltbridge:ASP:83>  (420) 
0

>  <hbond:ASN:152>  (420) 
0

>  <hydroph_interaction:ASN:152>  (420) 
0

>  <halogenbond:TYR:150>  (420) 
0

>  <hbond:ASP:83>  (420) 
0

>  <hydroph_interaction:VAL:155>  (420) 
0

>  <pication:TYR:161>  (420) 
0

>  <hbond:PRO:131>  (420) 
0

>  <saltbridge:ASP:129>  (420) 
0

>  <hbond:THR:134>  (420) 
0

>  <pication:HIS:51>  (420) 
0

>  <hbond:SER:81>  (420) 
0

>  <hydroph_interaction:THR:134>  (420) 
0

>  <hydroph_interaction:MET:49>  (420) 
0

$$$$
CSSS00011202845
     RDKit          3D

 20 21  0  0  0  0  0  0  0  0999 V2000
   -5.2430    7.3740  -20.8000 C   0  0  0  0  0  0  0  0  0  0  0  0
   -5.3940    5.9880  -21.3330 C   0  0  0  0  0  0  0  0  0  0  0  0
   -4.9850    5.6690  -22.4410 O   0  0  0  0  0  0  0  0  0  0  0  0
   -6.0270    5.1110  -20.4900 N   0  0  0  0  0  0  0  0  0  0  0  0
   -6.1810    5.3510  -19.0770 C   0  0  0  0  0  0  0  0  0  0  0  0
   -4.9430    5.7710  -18.2930 C   0  0  0  0  0  0  0  0  0  0  0  0
   -3.2950    6.0010  -18.9400 Cl  0  0  0  0  0  0  0  0  0  0  0  0
   -5.2020    5.9940  -16.8370 C   0  0  0  0  0  0  0  0  0  0  0  0
   -6.4730    5.8220  -16.2800 C   0  0  0  0  0  0  0  0  0  0  0  0
   -7.5690    5.4250  -17.0790 C   0  0  0  0  0  0  0  0  0  0  0  0
   -8.8230    5.2300  -16.6300 N   0  0  0  0  0  0  0  0  0  0  0  0
   -9.7320    4.7620  -17.9360 S   0  0  0  0  0  0  0  0  0  0  0  0
   -8.5510    4.8130  -19.0880 N   0  0  0  0  0  0  0  0  0  0  0  0
   -7.4200    5.1930  -18.4590 C   0  0  0  0  0  0  0  0  0  0  0  0
   -4.2000    7.5990  -20.5640 H   0  0  0  0  0  0  0  0  0  0  0  0
   -5.6000    8.1170  -21.5240 H   0  0  0  0  0  0  0  0  0  0  0  0
   -5.8430    7.5150  -19.8920 H   0  0  0  0  0  0  0  0  0  0  0  0
   -6.6060    4.3850  -20.8980 H   0  0  0  0  0  0  0  0  0  0  0  0
   -4.3340    6.2970  -16.2590 H   0  0  0  0  0  0  0  0  0  0  0  0
   -6.6160    5.9940  -15.2130 H   0  0  0  0  0  0  0  0  0  0  0  0
  1  2  1  0
  2  3  2  0
  2  4  1  0
  4  5  1  0
  5  6  2  0
  6  7  1  0
  6  8  1  0
  8  9  2  0
  9 10  1  0
 10 11  2  0
 11 12  1  0
 12 13  1  0
 13 14  2  0
 14  5  1  0
 14 10  1  0
  1 15  1  0
  1 16  1  0
  1 17  1  0
  4 18  1  0
  8 19  1  0
  9 20  1  0
A    1
 C1 
A    2
 C2 
A    3
 O1 
A    4
 N1 
A    5
 C3 
A    6
 C4 
A    7
CL1 
A    8
 C5 
A    9
 C6 
A   10
 C7 
A   11
 N2 
A   12
 S1 
A   13
 N3 
A   14
 C8 
A   15
 H1 
A   16
 H2 
A   17
 H3 
A   18
 H4 
A   19
 H5 
A   20
 H6 
M  END
>  <ref_pdb>  (421) 
x0051_0B

>  <ref_mols>  (421) 
x0051_0B,x0101_0B

>  <original SMILES>  (421) 
[H]c1c(Cl)c(N([H])C(=O)C([H])([H])[H])c2nsnc2c1[H]

>  <index>  (421) 
2684

>  <∆∆G>  (421) 
-5.185683

>  <∆G_bound>  (421) 
-4.380472

>  <∆G_unbound>  (421) 
0.805212

>  <comRMSD>  (421) 
0.475118

>  <N_constrained_atoms>  (421) 
14.0

>  <N_unconstrained_atoms>  (421) 
0.0

>  <runtime>  (421) 
19.348285

>  <LE>  (421) 
0.370406

>  <percent_hybrid>  (421) 
34.0

>  <dist>  (421) 
9.0

>  <ecfp4>  (421) 
0.126761

>  <daylight>  (421) 
0.193416

>  <topodist>  (421) 
4.0

>  <mces>  (421) 
15.0

>  <tdn>  (421) 
2.0

>  <tup>  (421) 
0.0

>  <rdn>  (421) 
1.0

>  <rup>  (421) 
0.0

>  <ldn>  (421) 
1.0

>  <lup>  (421) 
0.0

>  <mut>  (421) 
3.0

>  <maj>  (421) 
3.0

>  <min>  (421) 
0.0

>  <hyb>  (421) 
2.0

>  <sub>  (421) 
0.0

>  <query_index>  (421) 
294.0

>  <max_hit_Tanimoto>  (421) 
0.187568

>  <largest_ring>  (421) 
6

>  <N_interactions_kept>  (421) 
3.0

>  <N_interactions_lost>  (421) 
2.0

>  <interaction_uniqueness_metric>  (421) 
0.05757

>  <ad_hoc_penalty>  (421) 
-5.928036

>  <N_rotatable_bonds>  (421) 
2

>  <N_HA>  (421) 
14

>  <cluster>  (421) 
3743

>  <N_interactions>  (421) 
3

>  <Enamine>  (421) 
1

>  <Mcule>  (421) 
0

>  <N_PAINS>  (421) 
0

>  <UFF_Gibbs>  (421) 
38.751632

>  <strain_per_HA>  (421) 
2.767974

>  <intxn_scored>  (421) 
8.0

>  <saltbridge:HIS:51>  (421) 
0

>  <pistack:HIS:51>  (421) 
0

>  <hydroph_interaction:HIS:51>  (421) 
0

>  <hbond:ALA:132>  (421) 
0

>  <hbond:SER:135>  (421) 
0

>  <hydroph_interaction:TYR:150>  (421) 
0

>  <pistack:TYR:161>  (421) 
2

>  <hydroph_interaction:TYR:161>  (421) 
0

>  <hydroph_interaction:ASP:83>  (421) 
0

>  <hbond:TYR:130>  (421) 
0

>  <hydroph_interaction:ALA:132>  (421) 
0

>  <hbond:HIS:51>  (421) 
0

>  <hbond:ASP:129>  (421) 
1

>  <hbond:TYR:150>  (421) 
0

>  <hbond:GLY:151>  (421) 
0

>  <hbond:TYR:161>  (421) 
0

>  <hydroph_interaction:TYR:130>  (421) 
0

>  <hydroph_interaction:PRO:131>  (421) 
0

>  <hydroph_interaction:ASP:129>  (421) 
0

>  <saltbridge:ASP:75>  (421) 
0

>  <saltbridge:ASP:83>  (421) 
0

>  <hbond:ASN:152>  (421) 
0

>  <hydroph_interaction:ASN:152>  (421) 
0

>  <halogenbond:TYR:150>  (421) 
0

>  <hbond:ASP:83>  (421) 
0

>  <hydroph_interaction:VAL:155>  (421) 
0

>  <pication:TYR:161>  (421) 
0

>  <hbond:PRO:131>  (421) 
0

>  <saltbridge:ASP:129>  (421) 
0

>  <hbond:THR:134>  (421) 
0

>  <pication:HIS:51>  (421) 
0

>  <hbond:SER:81>  (421) 
0

>  <hydroph_interaction:THR:134>  (421) 
0

>  <hydroph_interaction:MET:49>  (421) 
0

$$$$
CSSB00000738552
     RDKit          3D

 28 28  0  0  0  0  0  0  0  0999 V2000
   -2.2760    4.6130  -19.2570 C   0  0  0  0  0  0  0  0  0  0  0  0
   -3.0770    5.8060  -19.7500 C   0  0  0  0  0  0  0  0  0  0  0  0
   -2.9850    7.0390  -18.8470 C   0  0  0  0  0  0  0  0  0  0  0  0
   -4.4730    5.5100  -19.9950 N   0  0  0  0  0  0  0  0  0  0  0  0
   -5.3930    5.4280  -18.9690 C   0  0  0  0  0  0  0  0  0  0  0  0
   -5.0740    5.2960  -17.8020 O   0  0  0  0  0  0  0  0  0  0  0  0
   -6.6710    5.5070  -19.4350 N   0  0  0  0  0  0  0  0  0  0  0  0
   -7.7660    5.2580  -18.6100 C   0  0  0  0  0  0  0  0  0  0  0  0
   -9.0280    4.8620  -19.0390 C   0  0  0  0  0  0  0  0  0  0  0  0
  -10.0340    4.6380  -18.1340 C   0  0  0  0  0  0  0  0  0  0  0  0
   -9.7830    4.8060  -16.7740 C   0  0  0  0  0  0  0  0  0  0  0  0
   -8.5460    5.2010  -16.3220 C   0  0  0  0  0  0  0  0  0  0  0  0
   -7.5270    5.4300  -17.2390 C   0  0  0  0  0  0  0  0  0  0  0  0
   -8.3520    5.3630  -14.9110 C   0  0  0  0  0  0  0  0  0  0  0  0
   -8.2530    5.4880  -13.7610 N   0  0  0  0  0  0  0  0  0  0  0  0
   -2.7940    4.0340  -18.4880 H   0  0  0  0  0  0  0  0  0  0  0  0
   -2.0200    3.9390  -20.0840 H   0  0  0  0  0  0  0  0  0  0  0  0
   -1.3370    4.9660  -18.8170 H   0  0  0  0  0  0  0  0  0  0  0  0
   -2.6550    6.0900  -20.7200 H   0  0  0  0  0  0  0  0  0  0  0  0
   -3.1890    6.7880  -17.8010 H   0  0  0  0  0  0  0  0  0  0  0  0
   -2.0040    7.5160  -18.9130 H   0  0  0  0  0  0  0  0  0  0  0  0
   -3.7490    7.7450  -19.1880 H   0  0  0  0  0  0  0  0  0  0  0  0
   -4.8470    5.8420  -20.8700 H   0  0  0  0  0  0  0  0  0  0  0  0
   -6.7070    5.1090  -20.3720 H   0  0  0  0  0  0  0  0  0  0  0  0
   -9.1630    4.7430  -20.1170 H   0  0  0  0  0  0  0  0  0  0  0  0
  -11.0150    4.3320  -18.4760 H   0  0  0  0  0  0  0  0  0  0  0  0
  -10.5620    4.6250  -16.0520 H   0  0  0  0  0  0  0  0  0  0  0  0
   -6.5520    5.7400  -16.8770 H   0  0  0  0  0  0  0  0  0  0  0  0
  1  2  1  0
  2  3  1  0
  2  4  1  0
  4  5  1  0
  5  6  2  0
  5  7  1  0
  7  8  1  0
  8  9  2  0
  9 10  1  0
 10 11  2  0
 11 12  1  0
 12 13  2  0
 12 14  1  0
 14 15  3  0
 13  8  1  0
  1 16  1  0
  1 17  1  0
  1 18  1  0
  2 19  1  0
  3 20  1  0
  3 21  1  0
  3 22  1  0
  4 23  1  0
  7 24  1  0
  9 25  1  0
 10 26  1  0
 11 27  1  0
 13 28  1  0
A    1
 C1 
A    2
 C2 
A    3
 C3 
A    4
 N1 
A    5
 C4 
A    6
 O1 
A    7
 N2 
A    8
 C5 
A    9
 C6 
A   10
 C7 
A   11
 C8 
A   12
 C9 
A   13
 C10
A   14
 C11
A   15
 N3 
A   16
 H1 
A   17
 H2 
A   18
 H3 
A   19
 H4 
A   20
 H5 
A   21
 H6 
A   22
 H7 
A   23
 H8 
A   24
 H9 
A   25
 H10
A   26
 H11
A   27
 H12
A   28
 H13
M  END
>  <ref_pdb>  (422) 
x0051_0B

>  <ref_mols>  (422) 
x0089_0B,x0951_0B

>  <original SMILES>  (422) 
[H]c1c([H])c(C#N)c([H])c(N([H])C(=O)N([H])C([H])(C([H])([H])[H])C([H])([H])[H])c1[H]

>  <index>  (422) 
3093

>  <∆∆G>  (422) 
-6.186999

>  <∆G_bound>  (422) 
-5.891234

>  <∆G_unbound>  (422) 
0.295765

>  <comRMSD>  (422) 
0.609669

>  <N_constrained_atoms>  (422) 
16.0

>  <N_unconstrained_atoms>  (422) 
0.0

>  <runtime>  (422) 
43.066461

>  <LE>  (422) 
0.386687

>  <percent_hybrid>  (422) 
30.0

>  <dist>  (422) 
8.0

>  <ecfp4>  (422) 
0.206349

>  <daylight>  (422) 
0.439252

>  <topodist>  (422) 
4.0

>  <mces>  (422) 
15.0

>  <tdn>  (422) 
3.0

>  <tup>  (422) 
0.0

>  <rdn>  (422) 
0.0

>  <rup>  (422) 
0.0

>  <ldn>  (422) 
1.0

>  <lup>  (422) 
0.0

>  <mut>  (422) 
1.0

>  <maj>  (422) 
1.0

>  <min>  (422) 
0.0

>  <hyb>  (422) 
3.0

>  <sub>  (422) 
0.0

>  <query_index>  (422) 
292.0

>  <max_hit_Tanimoto>  (422) 
0.110236

>  <largest_ring>  (422) 
6

>  <N_interactions_kept>  (422) 
0.0

>  <N_interactions_lost>  (422) 
3.5

>  <interaction_uniqueness_metric>  (422) 
0.117496

>  <ad_hoc_penalty>  (422) 
-1.420307

>  <N_rotatable_bonds>  (422) 
4

>  <N_HA>  (422) 
15

>  <cluster>  (422) 
3359

>  <N_interactions>  (422) 
6

>  <Enamine>  (422) 
1

>  <Mcule>  (422) 
0

>  <N_PAINS>  (422) 
0

>  <UFF_Gibbs>  (422) 
87.012753

>  <strain_per_HA>  (422) 
5.80085

>  <intxn_scored>  (422) 
8.0

>  <saltbridge:HIS:51>  (422) 
0

>  <pistack:HIS:51>  (422) 
0

>  <hydroph_interaction:HIS:51>  (422) 
0

>  <hbond:ALA:132>  (422) 
0

>  <hbond:SER:135>  (422) 
0

>  <hydroph_interaction:TYR:150>  (422) 
1

>  <pistack:TYR:161>  (422) 
1

>  <hydroph_interaction:TYR:161>  (422) 
1

>  <hydroph_interaction:ASP:83>  (422) 
0

>  <hbond:TYR:130>  (422) 
1

>  <hydroph_interaction:ALA:132>  (422) 
1

>  <hbond:HIS:51>  (422) 
0

>  <hbond:ASP:129>  (422) 
0

>  <hbond:TYR:150>  (422) 
0

>  <hbond:GLY:151>  (422) 
0

>  <hbond:TYR:161>  (422) 
0

>  <hydroph_interaction:TYR:130>  (422) 
0

>  <hydroph_interaction:PRO:131>  (422) 
0

>  <hydroph_interaction:ASP:129>  (422) 
0

>  <saltbridge:ASP:75>  (422) 
0

>  <saltbridge:ASP:83>  (422) 
0

>  <hbond:ASN:152>  (422) 
0

>  <hydroph_interaction:ASN:152>  (422) 
0

>  <halogenbond:TYR:150>  (422) 
0

>  <hbond:ASP:83>  (422) 
0

>  <hydroph_interaction:VAL:155>  (422) 
1

>  <pication:TYR:161>  (422) 
0

>  <hbond:PRO:131>  (422) 
0

>  <saltbridge:ASP:129>  (422) 
0

>  <hbond:THR:134>  (422) 
0

>  <pication:HIS:51>  (422) 
0

>  <hbond:SER:81>  (422) 
0

>  <hydroph_interaction:THR:134>  (422) 
0

>  <hydroph_interaction:MET:49>  (422) 
0

$$$$
CSCS03437696575
     RDKit          3D

 36 39  0  0  0  0  0  0  0  0999 V2000
   -9.6070    2.5200   -8.5340 C   0  0  0  0  0  0  0  0  0  0  0  0
   -9.0090    3.2940   -9.7070 C   0  0  0  0  0  0  0  0  0  0  0  0
   -8.2910    4.5650   -9.3730 N   0  0  0  0  0  0  0  0  0  0  0  0
   -7.7980    4.8720   -8.0070 C   0  0  0  0  0  0  0  0  0  0  0  0
   -8.6940    4.3610   -6.8980 C   0  0  0  0  0  0  0  0  0  0  0  0
   -8.6920    2.6780   -6.9770 S   0  0  0  0  0  0  0  0  0  0  0  0
   -8.6050    5.7230  -10.0830 C   0  0  0  0  0  0  0  0  0  0  0  0
   -8.5800    5.6880  -11.5000 C   0  0  0  0  0  0  0  0  0  0  0  0
   -8.2660    4.5190  -12.7440 S   0  0  0  0  0  0  0  0  0  0  0  0
   -8.5210    5.6520  -14.0490 C   0  0  0  0  0  0  0  0  0  0  0  0
   -8.8570    6.9040  -13.4990 C   0  0  0  0  0  0  0  0  0  0  0  0
   -8.8980    6.9610  -12.0900 C   0  0  0  0  0  0  0  0  0  0  0  0
   -9.2010    8.0980  -11.4200 N   0  0  0  0  0  0  0  0  0  0  0  0
   -9.1890    7.9710  -10.1060 C   0  0  0  0  0  0  0  0  0  0  0  0
   -8.9110    6.8690   -9.4210 N   0  0  0  0  0  0  0  0  0  0  0  0
   -8.4080    5.3610  -15.5330 C   0  0  0  0  0  0  0  0  0  0  0  0
   -7.1070    5.5660  -16.3510 C   0  0  0  0  0  0  0  0  0  0  0  0
   -7.0880    5.2700  -17.8510 C   0  0  0  0  0  0  0  0  0  0  0  0
   -8.3170    4.7710  -18.5930 C   0  0  0  0  0  0  0  0  0  0  0  0
   -9.6120    4.5470  -17.8520 C   0  0  0  0  0  0  0  0  0  0  0  0
   -9.6220    4.8450  -16.3390 C   0  0  0  0  0  0  0  0  0  0  0  0
   -9.6330    1.4630   -8.7610 H   0  0  0  0  0  0  0  0  0  0  0  0
  -10.6310    2.8550   -8.3580 H   0  0  0  0  0  0  0  0  0  0  0  0
   -8.2950    2.6150  -10.1910 H   0  0  0  0  0  0  0  0  0  0  0  0
   -9.8020    3.4780  -10.4400 H   0  0  0  0  0  0  0  0  0  0  0  0
   -7.6710    5.9510   -7.8850 H   0  0  0  0  0  0  0  0  0  0  0  0
   -6.8020    4.4250   -7.8760 H   0  0  0  0  0  0  0  0  0  0  0  0
   -9.7190    4.7180   -7.0190 H   0  0  0  0  0  0  0  0  0  0  0  0
   -8.3200    4.6720   -5.9150 H   0  0  0  0  0  0  0  0  0  0  0  0
   -9.0670    7.7700  -14.1130 H   0  0  0  0  0  0  0  0  0  0  0  0
   -9.4270    8.8600   -9.5290 H   0  0  0  0  0  0  0  0  0  0  0  0
   -6.1610    5.9200  -15.9490 H   0  0  0  0  0  0  0  0  0  0  0  0
   -6.1680    5.4140  -18.4330 H   0  0  0  0  0  0  0  0  0  0  0  0
   -8.2710    4.5690  -19.6740 H   0  0  0  0  0  0  0  0  0  0  0  0
  -10.4980    4.1910  -18.3650 H   0  0  0  0  0  0  0  0  0  0  0  0
  -10.5820    4.6560  -15.8750 H   0  0  0  0  0  0  0  0  0  0  0  0
  1  2  1  0
  2  3  1  0
  3  4  1  0
  4  5  1  0
  5  6  1  0
  3  7  1  0
  7  8  2  0
  8  9  1  0
  9 10  1  0
 10 11  2  0
 11 12  1  0
 12 13  2  0
 13 14  1  0
 14 15  2  0
 10 16  1  0
 16 17  2  0
 17 18  1  0
 18 19  2  0
 19 20  1  0
 20 21  2  0
  6  1  1  0
 15  7  1  0
 12  8  1  0
 21 16  1  0
  1 22  1  0
  1 23  1  0
  2 24  1  0
  2 25  1  0
  4 26  1  0
  4 27  1  0
  5 28  1  0
  5 29  1  0
 11 30  1  0
 14 31  1  0
 17 32  1  0
 18 33  1  0
 19 34  1  0
 20 35  1  0
 21 36  1  0
A    1
 C1 
A    2
 C2 
A    3
 N1 
A    4
 C3 
A    5
 C4 
A    6
 S1 
A    7
 C5 
A    8
 C6 
A    9
 S2 
A   10
 C7 
A   11
 C8 
A   12
 C9 
A   13
 N2 
A   14
 C10
A   15
 N3 
A   16
 C11
A   17
 C12
A   18
 C13
A   19
 C14
A   20
 C15
A   21
 C16
A   22
 H1 
A   23
 H2 
A   24
 H3 
A   25
 H4 
A   26
 H5 
A   27
 H6 
A   28
 H7 
A   29
 H8 
A   30
 H9 
A   31
 H10
A   32
 H11
A   33
 H12
A   34
 H13
A   35
 H14
A   36
 H15
M  END
>  <ref_pdb>  (423) 
x0051_0B

>  <ref_mols>  (423) 
x0404_0B,x0951_0B

>  <original SMILES>  (423) 
[H]c1nc(N2C([H])([H])C([H])([H])SC([H])([H])C2([H])[H])c2sc(-c3c([H])c([H])c([H])c([H])c3[H])c([H])c2n1

>  <index>  (423) 
1556

>  <∆∆G>  (423) 
-7.437116

>  <∆G_bound>  (423) 
-6.882607

>  <∆G_unbound>  (423) 
0.554509

>  <comRMSD>  (423) 
0.765862

>  <N_constrained_atoms>  (423) 
20.0

>  <N_unconstrained_atoms>  (423) 
3.0

>  <runtime>  (423) 
72.489598

>  <LE>  (423) 
0.323353

>  <percent_hybrid>  (423) 
42.0

>  <dist>  (423) 
10.0

>  <ecfp4>  (423) 
0.12987

>  <daylight>  (423) 
0.208481

>  <topodist>  (423) 
4.0

>  <mces>  (423) 
23.0

>  <tdn>  (423) 
2.0

>  <tup>  (423) 
0.0

>  <rdn>  (423) 
1.0

>  <rup>  (423) 
1.0

>  <ldn>  (423) 
0.0

>  <lup>  (423) 
0.0

>  <mut>  (423) 
6.0

>  <maj>  (423) 
6.0

>  <min>  (423) 
0.0

>  <hyb>  (423) 
0.0

>  <sub>  (423) 
2.0

>  <query_index>  (423) 
58.0

>  <max_hit_Tanimoto>  (423) 
0.187983

>  <largest_ring>  (423) 
6

>  <N_interactions_kept>  (423) 
2.0

>  <N_interactions_lost>  (423) 
2.0

>  <interaction_uniqueness_metric>  (423) 
0.053272

>  <ad_hoc_penalty>  (423) 
-9.714008

>  <N_rotatable_bonds>  (423) 
2

>  <N_HA>  (423) 
21

>  <cluster>  (423) 
4789

>  <N_interactions>  (423) 
3

>  <Enamine>  (423) 
1

>  <Mcule>  (423) 
0

>  <N_PAINS>  (423) 
0

>  <UFF_Gibbs>  (423) 
112.366119

>  <strain_per_HA>  (423) 
5.350768

>  <intxn_scored>  (423) 
8.0

>  <saltbridge:HIS:51>  (423) 
0

>  <pistack:HIS:51>  (423) 
2

>  <hydroph_interaction:HIS:51>  (423) 
0

>  <hbond:ALA:132>  (423) 
0

>  <hbond:SER:135>  (423) 
0

>  <hydroph_interaction:TYR:150>  (423) 
0

>  <pistack:TYR:161>  (423) 
1

>  <hydroph_interaction:TYR:161>  (423) 
0

>  <hydroph_interaction:ASP:83>  (423) 
0

>  <hbond:TYR:130>  (423) 
0

>  <hydroph_interaction:ALA:132>  (423) 
0

>  <hbond:HIS:51>  (423) 
0

>  <hbond:ASP:129>  (423) 
0

>  <hbond:TYR:150>  (423) 
0

>  <hbond:GLY:151>  (423) 
0

>  <hbond:TYR:161>  (423) 
0

>  <hydroph_interaction:TYR:130>  (423) 
0

>  <hydroph_interaction:PRO:131>  (423) 
0

>  <hydroph_interaction:ASP:129>  (423) 
0

>  <saltbridge:ASP:75>  (423) 
0

>  <saltbridge:ASP:83>  (423) 
0

>  <hbond:ASN:152>  (423) 
0

>  <hydroph_interaction:ASN:152>  (423) 
0

>  <halogenbond:TYR:150>  (423) 
0

>  <hbond:ASP:83>  (423) 
0

>  <hydroph_interaction:VAL:155>  (423) 
0

>  <pication:TYR:161>  (423) 
0

>  <hbond:PRO:131>  (423) 
0

>  <saltbridge:ASP:129>  (423) 
0

>  <hbond:THR:134>  (423) 
0

>  <pication:HIS:51>  (423) 
0

>  <hbond:SER:81>  (423) 
0

>  <hydroph_interaction:THR:134>  (423) 
0

>  <hydroph_interaction:MET:49>  (423) 
0

$$$$
CSCS00039519952
     RDKit          3D

 39 41  0  0  0  0  0  0  0  0999 V2000
   -9.9720    5.0750  -14.8710 C   0  0  0  0  0  0  0  0  0  0  0  0
   -9.2570    5.0850  -16.2140 C   0  0  0  0  0  0  0  0  0  0  0  0
   -7.7900    5.3850  -16.0410 C   0  0  0  0  0  0  0  0  0  0  0  0
   -7.0560    5.4600  -17.3430 C   0  0  0  0  0  0  0  0  0  0  0  0
   -5.6000    5.7750  -17.2760 C   0  0  0  0  0  0  0  0  0  0  0  0
   -4.8900    5.9050  -18.5480 C   0  0  0  0  0  0  0  0  0  0  0  0
   -5.6330    5.7160  -19.7060 C   0  0  0  0  0  0  0  0  0  0  0  0
   -6.9600    5.3870  -19.7270 N   0  0  0  0  0  0  0  0  0  0  0  0
   -7.6600    5.2660  -18.5840 C   0  0  0  0  0  0  0  0  0  0  0  0
   -9.0340    4.9500  -18.6460 C   0  0  0  0  0  0  0  0  0  0  0  0
   -9.8210    4.8650  -17.4790 C   0  0  0  0  0  0  0  0  0  0  0  0
   -4.9620    5.9120  -21.0250 C   0  0  0  0  0  0  0  0  0  0  0  0
   -5.7090    5.3870  -22.1980 C   0  0  0  0  0  0  0  0  0  0  0  0
   -5.5510    6.5000  -23.2100 C   0  0  0  0  0  0  0  0  0  0  0  0
   -4.0480    6.7090  -23.4730 C   0  0  0  0  0  0  0  0  0  0  0  0
   -3.1210    5.7510  -22.6760 C   0  0  0  0  0  0  0  0  0  0  0  0
   -3.4850    5.5920  -21.1870 C   0  0  0  0  0  0  0  0  0  0  0  0
   -4.8350    5.9770  -16.0350 C   0  0  0  0  0  0  0  0  0  0  0  0
   -5.2140    7.0920  -15.3860 O   0  0  0  0  0  0  0  0  0  0  0  0
   -3.9470    5.2690  -15.6030 O   0  0  0  0  0  0  0  0  0  0  0  0
  -10.8850    4.4860  -14.9180 H   0  0  0  0  0  0  0  0  0  0  0  0
   -9.3360    4.6520  -14.0890 H   0  0  0  0  0  0  0  0  0  0  0  0
  -10.2500    6.0900  -14.5720 H   0  0  0  0  0  0  0  0  0  0  0  0
   -7.3390    5.5420  -15.0640 H   0  0  0  0  0  0  0  0  0  0  0  0
   -3.8340    6.1510  -18.5920 H   0  0  0  0  0  0  0  0  0  0  0  0
   -9.4950    4.7870  -19.6190 H   0  0  0  0  0  0  0  0  0  0  0  0
  -10.8760    4.6370  -17.5840 H   0  0  0  0  0  0  0  0  0  0  0  0
   -5.0030    7.0020  -21.1640 H   0  0  0  0  0  0  0  0  0  0  0  0
   -5.2540    4.4580  -22.5430 H   0  0  0  0  0  0  0  0  0  0  0  0
   -6.7570    5.1830  -21.9770 H   0  0  0  0  0  0  0  0  0  0  0  0
   -6.0960    6.2950  -24.1340 H   0  0  0  0  0  0  0  0  0  0  0  0
   -5.9810    7.4220  -22.7990 H   0  0  0  0  0  0  0  0  0  0  0  0
   -3.8520    6.5850  -24.5450 H   0  0  0  0  0  0  0  0  0  0  0  0
   -3.7850    7.7450  -23.2250 H   0  0  0  0  0  0  0  0  0  0  0  0
   -3.1380    4.7620  -23.1540 H   0  0  0  0  0  0  0  0  0  0  0  0
   -2.0880    6.1110  -22.7520 H   0  0  0  0  0  0  0  0  0  0  0  0
   -2.8730    6.2690  -20.5750 H   0  0  0  0  0  0  0  0  0  0  0  0
   -3.2440    4.5760  -20.8720 H   0  0  0  0  0  0  0  0  0  0  0  0
   -4.5260    7.2070  -14.6970 H   0  0  0  0  0  0  0  0  0  0  0  0
  1  2  1  0
  2  3  2  0
  3  4  1  0
  4  5  2  0
  5  6  1  0
  6  7  2  0
  7  8  1  0
  8  9  2  0
  9 10  1  0
 10 11  2  0
  7 12  1  0
 12 13  1  0
 13 14  1  0
 14 15  1  0
 15 16  1  0
 16 17  1  0
  5 18  1  0
 18 19  1  0
 18 20  2  0
 11  2  1  0
  9  4  1  0
 17 12  1  0
  1 21  1  0
  1 22  1  0
  1 23  1  0
  3 24  1  0
  6 25  1  0
 10 26  1  0
 11 27  1  0
 12 28  1  0
 13 29  1  0
 13 30  1  0
 14 31  1  0
 14 32  1  0
 15 33  1  0
 15 34  1  0
 16 35  1  0
 16 36  1  0
 17 37  1  0
 17 38  1  0
 19 39  1  0
A    1
 C1 
A    2
 C2 
A    3
 C3 
A    4
 C4 
A    5
 C5 
A    6
 C6 
A    7
 C7 
A    8
 N1 
A    9
 C8 
A   10
 C9 
A   11
 C10
A   12
 C11
A   13
 C12
A   14
 C13
A   15
 C14
A   16
 C15
A   17
 C16
A   18
 C17
A   19
 O1 
A   20
 O2 
A   21
 H1 
A   22
 H2 
A   23
 H3 
A   24
 H4 
A   25
 H5 
A   26
 H6 
A   27
 H7 
A   28
 H8 
A   29
 H9 
A   30
 H10
A   31
 H11
A   32
 H12
A   33
 H13
A   34
 H14
A   35
 H15
A   36
 H16
A   37
 H17
A   38
 H18
A   39
 H19
M  END
>  <ref_pdb>  (424) 
x0051_0B

>  <ref_mols>  (424) 
x0101_0B,x0429_0B

>  <original SMILES>  (424) 
[H]OC(=O)c1c([H])c(C2([H])C([H])([H])C([H])([H])C([H])([H])C([H])([H])C2([H])[H])nc2c([H])c([H])c(C([H])([H])[H])c([H])c12

>  <index>  (424) 
2762

>  <∆∆G>  (424) 
-6.048896

>  <∆G_bound>  (424) 
-5.384443

>  <∆G_unbound>  (424) 
0.664453

>  <comRMSD>  (424) 
0.696584

>  <N_constrained_atoms>  (424) 
21.0

>  <N_unconstrained_atoms>  (424) 
3.0

>  <runtime>  (424) 
35.428297

>  <LE>  (424) 
0.252037

>  <percent_hybrid>  (424) 
47.0

>  <dist>  (424) 
11.0

>  <ecfp4>  (424) 
0.128205

>  <daylight>  (424) 
0.307692

>  <topodist>  (424) 
4.0

>  <mces>  (424) 
21.0

>  <tdn>  (424) 
1.0

>  <tup>  (424) 
0.0

>  <rdn>  (424) 
1.0

>  <rup>  (424) 
1.0

>  <ldn>  (424) 
1.0

>  <lup>  (424) 
0.0

>  <mut>  (424) 
6.0

>  <maj>  (424) 
6.0

>  <min>  (424) 
0.0

>  <hyb>  (424) 
1.0

>  <sub>  (424) 
2.0

>  <query_index>  (424) 
278.0

>  <max_hit_Tanimoto>  (424) 
0.264674

>  <largest_ring>  (424) 
6

>  <N_interactions_kept>  (424) 
2.0

>  <N_interactions_lost>  (424) 
2.0

>  <interaction_uniqueness_metric>  (424) 
0.055232

>  <ad_hoc_penalty>  (424) 
-3.930667

>  <N_rotatable_bonds>  (424) 
3

>  <N_HA>  (424) 
20

>  <cluster>  (424) 
436

>  <N_interactions>  (424) 
3

>  <Enamine>  (424) 
1

>  <Mcule>  (424) 
0

>  <N_PAINS>  (424) 
0

>  <UFF_Gibbs>  (424) 
85.706832

>  <strain_per_HA>  (424) 
4.285342

>  <intxn_scored>  (424) 
8.0

>  <saltbridge:HIS:51>  (424) 
0

>  <pistack:HIS:51>  (424) 
0

>  <hydroph_interaction:HIS:51>  (424) 
0

>  <hbond:ALA:132>  (424) 
0

>  <hbond:SER:135>  (424) 
0

>  <hydroph_interaction:TYR:150>  (424) 
0

>  <pistack:TYR:161>  (424) 
2

>  <hydroph_interaction:TYR:161>  (424) 
0

>  <hydroph_interaction:ASP:83>  (424) 
0

>  <hbond:TYR:130>  (424) 
0

>  <hydroph_interaction:ALA:132>  (424) 
0

>  <hbond:HIS:51>  (424) 
0

>  <hbond:ASP:129>  (424) 
0

>  <hbond:TYR:150>  (424) 
0

>  <hbond:GLY:151>  (424) 
0

>  <hbond:TYR:161>  (424) 
0

>  <hydroph_interaction:TYR:130>  (424) 
0

>  <hydroph_interaction:PRO:131>  (424) 
0

>  <hydroph_interaction:ASP:129>  (424) 
1

>  <saltbridge:ASP:75>  (424) 
0

>  <saltbridge:ASP:83>  (424) 
0

>  <hbond:ASN:152>  (424) 
0

>  <hydroph_interaction:ASN:152>  (424) 
0

>  <halogenbond:TYR:150>  (424) 
0

>  <hbond:ASP:83>  (424) 
0

>  <hydroph_interaction:VAL:155>  (424) 
0

>  <pication:TYR:161>  (424) 
0

>  <hbond:PRO:131>  (424) 
0

>  <saltbridge:ASP:129>  (424) 
0

>  <hbond:THR:134>  (424) 
0

>  <pication:HIS:51>  (424) 
0

>  <hbond:SER:81>  (424) 
0

>  <hydroph_interaction:THR:134>  (424) 
0

>  <hydroph_interaction:MET:49>  (424) 
0

$$$$
CSSS00000014588
     RDKit          3D

 26 27  0  0  0  0  0  0  0  0999 V2000
   -5.8500    6.7230  -23.3430 C   0  0  0  0  0  0  0  0  0  0  0  0
   -5.2560    5.5940  -22.4680 C   0  0  0  0  0  0  0  0  0  0  0  0
   -5.2150    6.1480  -21.0570 C   0  0  0  0  0  0  0  0  0  0  0  0
   -4.6590    7.2060  -20.7770 O   0  0  0  0  0  0  0  0  0  0  0  0
   -5.8850    5.2910  -20.2150 N   0  0  0  0  0  0  0  0  0  0  0  0
   -5.9910    5.4000  -18.8410 C   0  0  0  0  0  0  0  0  0  0  0  0
   -4.9240    5.6610  -17.9930 C   0  0  0  0  0  0  0  0  0  0  0  0
   -3.6110    5.8230  -18.4610 C   0  0  0  0  0  0  0  0  0  0  0  0
   -5.1390    5.7690  -16.6010 C   0  0  0  0  0  0  0  0  0  0  0  0
   -6.3960    5.6160  -16.0270 C   0  0  0  0  0  0  0  0  0  0  0  0
   -7.4800    5.3340  -16.8700 C   0  0  0  0  0  0  0  0  0  0  0  0
   -8.7670    5.1380  -16.4710 N   0  0  0  0  0  0  0  0  0  0  0  0
   -9.6330    4.8200  -17.8470 S   0  0  0  0  0  0  0  0  0  0  0  0
   -8.4090    4.9510  -18.9540 N   0  0  0  0  0  0  0  0  0  0  0  0
   -7.2860    5.2290  -18.2550 C   0  0  0  0  0  0  0  0  0  0  0  0
   -5.0680    7.1990  -23.9380 H   0  0  0  0  0  0  0  0  0  0  0  0
   -6.6100    6.3360  -24.0180 H   0  0  0  0  0  0  0  0  0  0  0  0
   -6.3330    7.4870  -22.7240 H   0  0  0  0  0  0  0  0  0  0  0  0
   -5.8630    4.6950  -22.5940 H   0  0  0  0  0  0  0  0  0  0  0  0
   -4.2310    5.3880  -22.7930 H   0  0  0  0  0  0  0  0  0  0  0  0
   -6.5460    4.6640  -20.6580 H   0  0  0  0  0  0  0  0  0  0  0  0
   -3.5040    5.3090  -19.4230 H   0  0  0  0  0  0  0  0  0  0  0  0
   -2.8010    5.4210  -17.8560 H   0  0  0  0  0  0  0  0  0  0  0  0
   -3.4310    6.8830  -18.6500 H   0  0  0  0  0  0  0  0  0  0  0  0
   -4.2930    5.9810  -15.9390 H   0  0  0  0  0  0  0  0  0  0  0  0
   -6.5370    5.7040  -14.9580 H   0  0  0  0  0  0  0  0  0  0  0  0
  1  2  1  0
  2  3  1  0
  3  4  2  0
  3  5  1  0
  5  6  1  0
  6  7  2  0
  7  8  1  0
  7  9  1  0
  9 10  2  0
 10 11  1  0
 11 12  2  0
 12 13  1  0
 13 14  1  0
 14 15  2  0
 15  6  1  0
 15 11  1  0
  1 16  1  0
  1 17  1  0
  1 18  1  0
  2 19  1  0
  2 20  1  0
  5 21  1  0
  8 22  1  0
  8 23  1  0
  8 24  1  0
  9 25  1  0
 10 26  1  0
A    1
 C1 
A    2
 C2 
A    3
 C3 
A    4
 O1 
A    5
 N1 
A    6
 C4 
A    7
 C5 
A    8
 C6 
A    9
 C7 
A   10
 C8 
A   11
 C9 
A   12
 N2 
A   13
 S1 
A   14
 N3 
A   15
 C10
A   16
 H1 
A   17
 H2 
A   18
 H3 
A   19
 H4 
A   20
 H5 
A   21
 H6 
A   22
 H7 
A   23
 H8 
A   24
 H9 
A   25
 H10
A   26
 H11
M  END
>  <ref_pdb>  (425) 
x0051_0B

>  <ref_mols>  (425) 
x0051_0B,x0101_0B

>  <original SMILES>  (425) 
[H]c1c(C([H])([H])[H])c(N([H])C(=O)C([H])([H])C([H])([H])[H])c2nsnc2c1[H]

>  <index>  (425) 
3238

>  <∆∆G>  (425) 
-6.093831

>  <∆G_bound>  (425) 
-5.736368

>  <∆G_unbound>  (425) 
0.357463

>  <comRMSD>  (425) 
0.766605

>  <N_constrained_atoms>  (425) 
17.0

>  <N_unconstrained_atoms>  (425) 
0.0

>  <runtime>  (425) 
29.360141

>  <LE>  (425) 
0.358461

>  <percent_hybrid>  (425) 
40.0

>  <dist>  (425) 
8.0

>  <ecfp4>  (425) 
0.138889

>  <daylight>  (425) 
0.203252

>  <topodist>  (425) 
3.0

>  <mces>  (425) 
16.0

>  <tdn>  (425) 
1.0

>  <tup>  (425) 
0.0

>  <rdn>  (425) 
1.0

>  <rup>  (425) 
0.0

>  <ldn>  (425) 
1.0

>  <lup>  (425) 
0.0

>  <mut>  (425) 
4.0

>  <maj>  (425) 
4.0

>  <min>  (425) 
0.0

>  <hyb>  (425) 
1.0

>  <sub>  (425) 
1.0

>  <query_index>  (425) 
294.0

>  <max_hit_Tanimoto>  (425) 
0.184069

>  <largest_ring>  (425) 
6

>  <N_interactions_kept>  (425) 
3.0

>  <N_interactions_lost>  (425) 
2.0

>  <interaction_uniqueness_metric>  (425) 
0.055232

>  <ad_hoc_penalty>  (425) 
-3.299867

>  <N_rotatable_bonds>  (425) 
4

>  <N_HA>  (425) 
15

>  <cluster>  (425) 
3220

>  <N_interactions>  (425) 
3

>  <Enamine>  (425) 
1

>  <Mcule>  (425) 
0

>  <N_PAINS>  (425) 
0

>  <UFF_Gibbs>  (425) 
40.05509

>  <strain_per_HA>  (425) 
2.670339

>  <intxn_scored>  (425) 
8.0

>  <saltbridge:HIS:51>  (425) 
0

>  <pistack:HIS:51>  (425) 
0

>  <hydroph_interaction:HIS:51>  (425) 
0

>  <hbond:ALA:132>  (425) 
0

>  <hbond:SER:135>  (425) 
0

>  <hydroph_interaction:TYR:150>  (425) 
0

>  <pistack:TYR:161>  (425) 
2

>  <hydroph_interaction:TYR:161>  (425) 
0

>  <hydroph_interaction:ASP:83>  (425) 
0

>  <hbond:TYR:130>  (425) 
0

>  <hydroph_interaction:ALA:132>  (425) 
0

>  <hbond:HIS:51>  (425) 
0

>  <hbond:ASP:129>  (425) 
0

>  <hbond:TYR:150>  (425) 
0

>  <hbond:GLY:151>  (425) 
0

>  <hbond:TYR:161>  (425) 
0

>  <hydroph_interaction:TYR:130>  (425) 
0

>  <hydroph_interaction:PRO:131>  (425) 
0

>  <hydroph_interaction:ASP:129>  (425) 
1

>  <saltbridge:ASP:75>  (425) 
0

>  <saltbridge:ASP:83>  (425) 
0

>  <hbond:ASN:152>  (425) 
0

>  <hydroph_interaction:ASN:152>  (425) 
0

>  <halogenbond:TYR:150>  (425) 
0

>  <hbond:ASP:83>  (425) 
0

>  <hydroph_interaction:VAL:155>  (425) 
0

>  <pication:TYR:161>  (425) 
0

>  <hbond:PRO:131>  (425) 
0

>  <saltbridge:ASP:129>  (425) 
0

>  <hbond:THR:134>  (425) 
0

>  <pication:HIS:51>  (425) 
0

>  <hbond:SER:81>  (425) 
0

>  <hydroph_interaction:THR:134>  (425) 
0

>  <hydroph_interaction:MET:49>  (425) 
0

$$$$
CSSS00028228658
     RDKit          3D

 47 51  0  0  0  0  0  0  0  0999 V2000
   -3.3610    9.4090  -20.9440 O   0  0  0  0  0  0  0  0  0  0  0  0
   -4.1400    8.5180  -21.2760 C   0  0  0  0  0  0  0  0  0  0  0  0
   -5.1600    7.9340  -20.3020 C   0  0  0  0  0  0  0  0  0  0  0  0
   -6.2060    7.2740  -20.9470 C   0  0  0  0  0  0  0  0  0  0  0  0
   -6.1580    5.4540  -20.7150 S   0  0  0  0  0  0  0  0  0  0  0  0
   -6.2860    5.3940  -19.0010 C   0  0  0  0  0  0  0  0  0  0  0  0
   -5.2850    5.5390  -18.1690 N   0  0  0  0  0  0  0  0  0  0  0  0
   -5.7770    5.4480  -16.8940 N   0  0  0  0  0  0  0  0  0  0  0  0
   -7.0730    5.2480  -16.9770 C   0  0  0  0  0  0  0  0  0  0  0  0
   -8.0590    5.0950  -15.9910 C   0  0  0  0  0  0  0  0  0  0  0  0
   -9.3900    4.8960  -16.3540 C   0  0  0  0  0  0  0  0  0  0  0  0
   -9.7670    4.8290  -17.7530 C   0  0  0  0  0  0  0  0  0  0  0  0
   -8.7830    4.9800  -18.7200 C   0  0  0  0  0  0  0  0  0  0  0  0
   -7.4600    5.1940  -18.3130 N   0  0  0  0  0  0  0  0  0  0  0  0
   -4.2250    7.9250  -22.5030 N   0  0  0  0  0  0  0  0  0  0  0  0
   -5.0890    8.2670  -23.5300 C   0  0  0  0  0  0  0  0  0  0  0  0
   -5.8300    7.2920  -24.1290 C   0  0  0  0  0  0  0  0  0  0  0  0
   -6.6810    7.5970  -25.1270 C   0  0  0  0  0  0  0  0  0  0  0  0
   -6.8050    9.0210  -25.5640 C   0  0  0  0  0  0  0  0  0  0  0  0
   -6.0470   10.0110  -24.9570 C   0  0  0  0  0  0  0  0  0  0  0  0
   -5.1790    9.6210  -23.9260 C   0  0  0  0  0  0  0  0  0  0  0  0
   -7.7900    9.1330  -26.5770 C   0  0  0  0  0  0  0  0  0  0  0  0
   -8.1810    7.9830  -27.0150 N   0  0  0  0  0  0  0  0  0  0  0  0
   -9.2290    8.1210  -27.8280 C   0  0  0  0  0  0  0  0  0  0  0  0
   -9.9150    7.0550  -28.4090 C   0  0  0  0  0  0  0  0  0  0  0  0
  -11.0170    7.3250  -29.2000 C   0  0  0  0  0  0  0  0  0  0  0  0
  -11.4130    8.6410  -29.4080 C   0  0  0  0  0  0  0  0  0  0  0  0
  -10.7190    9.7160  -28.8420 C   0  0  0  0  0  0  0  0  0  0  0  0
   -9.6190    9.4340  -28.0480 C   0  0  0  0  0  0  0  0  0  0  0  0
   -8.5730   10.5140  -27.2080 S   0  0  0  0  0  0  0  0  0  0  0  0
   -5.5520    8.7670  -19.7060 H   0  0  0  0  0  0  0  0  0  0  0  0
   -4.6320    7.2540  -19.6250 H   0  0  0  0  0  0  0  0  0  0  0  0
   -7.1410    7.6280  -20.5060 H   0  0  0  0  0  0  0  0  0  0  0  0
   -6.3470    7.4100  -22.0120 H   0  0  0  0  0  0  0  0  0  0  0  0
   -7.7600    5.1410  -14.9520 H   0  0  0  0  0  0  0  0  0  0  0  0
  -10.1630    4.7820  -15.6020 H   0  0  0  0  0  0  0  0  0  0  0  0
  -10.7990    4.6660  -18.0580 H   0  0  0  0  0  0  0  0  0  0  0  0
   -9.0170    4.9390  -19.7800 H   0  0  0  0  0  0  0  0  0  0  0  0
   -3.8470    6.9870  -22.5630 H   0  0  0  0  0  0  0  0  0  0  0  0
   -5.7290    6.2660  -23.7910 H   0  0  0  0  0  0  0  0  0  0  0  0
   -7.2580    6.7920  -25.5750 H   0  0  0  0  0  0  0  0  0  0  0  0
   -6.1220   11.0570  -25.2560 H   0  0  0  0  0  0  0  0  0  0  0  0
   -4.5820   10.3880  -23.4390 H   0  0  0  0  0  0  0  0  0  0  0  0
   -9.5880    6.0350  -28.2260 H   0  0  0  0  0  0  0  0  0  0  0  0
  -11.5690    6.5060  -29.6560 H   0  0  0  0  0  0  0  0  0  0  0  0
  -12.2820    8.8450  -30.0300 H   0  0  0  0  0  0  0  0  0  0  0  0
  -11.0370   10.7420  -29.0180 H   0  0  0  0  0  0  0  0  0  0  0  0
  1  2  2  0
  2  3  1  0
  3  4  1  0
  4  5  1  0
  5  6  1  0
  6  7  2  0
  7  8  1  0
  8  9  2  0
  9 10  1  0
 10 11  2  0
 11 12  1  0
 12 13  2  0
 13 14  1  0
  2 15  1  0
 15 16  1  0
 16 17  2  0
 17 18  1  0
 18 19  2  0
 19 20  1  0
 20 21  2  0
 19 22  1  0
 22 23  2  0
 23 24  1  0
 24 25  2  0
 25 26  1  0
 26 27  2  0
 27 28  1  0
 28 29  2  0
 29 30  1  0
 14  6  1  0
 14  9  1  0
 21 16  1  0
 30 22  1  0
 29 24  1  0
  3 31  1  0
  3 32  1  0
  4 33  1  0
  4 34  1  0
 10 35  1  0
 11 36  1  0
 12 37  1  0
 13 38  1  0
 15 39  1  0
 17 40  1  0
 18 41  1  0
 20 42  1  0
 21 43  1  0
 25 44  1  0
 26 45  1  0
 27 46  1  0
 28 47  1  0
A    1
 O1 
A    2
 C1 
A    3
 C2 
A    4
 C3 
A    5
 S1 
A    6
 C4 
A    7
 N1 
A    8
 N2 
A    9
 C5 
A   10
 C6 
A   11
 C7 
A   12
 C8 
A   13
 C9 
A   14
 N3 
A   15
 N4 
A   16
 C10
A   17
 C11
A   18
 C12
A   19
 C13
A   20
 C14
A   21
 C15
A   22
 C16
A   23
 N5 
A   24
 C17
A   25
 C18
A   26
 C19
A   27
 C20
A   28
 C21
A   29
 C22
A   30
 S2 
A   31
 H1 
A   32
 H2 
A   33
 H3 
A   34
 H4 
A   35
 H5 
A   36
 H6 
A   37
 H7 
A   38
 H8 
A   39
 H9 
A   40
 H10
A   41
 H11
A   42
 H12
A   43
 H13
A   44
 H14
A   45
 H15
A   46
 H16
A   47
 H17
M  END
>  <ref_pdb>  (426) 
x0051_0B

>  <ref_mols>  (426) 
x0846_1B,x0435_0B

>  <original SMILES>  (426) 
[H]c1c([H])c(N([H])C(=O)C([H])([H])C([H])([H])Sc2nnc3c([H])c([H])c([H])c([H])n23)c([H])c([H])c1-c1nc2c([H])c([H])c([H])c([H])c2s1

>  <index>  (426) 
3019

>  <∆∆G>  (426) 
-6.480646

>  <∆G_bound>  (426) 
-5.836041

>  <∆G_unbound>  (426) 
0.644605

>  <comRMSD>  (426) 
0.902676

>  <N_constrained_atoms>  (426) 
28.0

>  <N_unconstrained_atoms>  (426) 
3.0

>  <runtime>  (426) 
58.373852

>  <LE>  (426) 
0.209053

>  <percent_hybrid>  (426) 
36.0

>  <dist>  (426) 
11.0

>  <ecfp4>  (426) 
0.290323

>  <daylight>  (426) 
0.282895

>  <topodist>  (426) 
4.0

>  <mces>  (426) 
32.0

>  <tdn>  (426) 
1.0

>  <tup>  (426) 
0.0

>  <rdn>  (426) 
1.0

>  <rup>  (426) 
1.0

>  <ldn>  (426) 
0.0

>  <lup>  (426) 
1.0

>  <mut>  (426) 
6.0

>  <maj>  (426) 
6.0

>  <min>  (426) 
0.0

>  <hyb>  (426) 
1.0

>  <sub>  (426) 
0.0

>  <query_index>  (426) 
130.0

>  <max_hit_Tanimoto>  (426) 
0.255947

>  <largest_ring>  (426) 
6

>  <N_interactions_kept>  (426) 
1.5

>  <N_interactions_lost>  (426) 
1.5

>  <interaction_uniqueness_metric>  (426) 
0.072335

>  <ad_hoc_penalty>  (426) 
-3.023957

>  <N_rotatable_bonds>  (426) 
6

>  <N_HA>  (426) 
30

>  <cluster>  (426) 
3427

>  <N_interactions>  (426) 
3

>  <Enamine>  (426) 
1

>  <Mcule>  (426) 
0

>  <N_PAINS>  (426) 
0

>  <UFF_Gibbs>  (426) 
126.618537

>  <strain_per_HA>  (426) 
4.220618

>  <intxn_scored>  (426) 
8.0

>  <saltbridge:HIS:51>  (426) 
0

>  <pistack:HIS:51>  (426) 
0

>  <hydroph_interaction:HIS:51>  (426) 
0

>  <hbond:ALA:132>  (426) 
0

>  <hbond:SER:135>  (426) 
0

>  <hydroph_interaction:TYR:150>  (426) 
0

>  <pistack:TYR:161>  (426) 
2

>  <hydroph_interaction:TYR:161>  (426) 
0

>  <hydroph_interaction:ASP:83>  (426) 
0

>  <hbond:TYR:130>  (426) 
0

>  <hydroph_interaction:ALA:132>  (426) 
0

>  <hbond:HIS:51>  (426) 
0

>  <hbond:ASP:129>  (426) 
0

>  <hbond:TYR:150>  (426) 
0

>  <hbond:GLY:151>  (426) 
0

>  <hbond:TYR:161>  (426) 
0

>  <hydroph_interaction:TYR:130>  (426) 
0

>  <hydroph_interaction:PRO:131>  (426) 
1

>  <hydroph_interaction:ASP:129>  (426) 
0

>  <saltbridge:ASP:75>  (426) 
0

>  <saltbridge:ASP:83>  (426) 
0

>  <hbond:ASN:152>  (426) 
0

>  <hydroph_interaction:ASN:152>  (426) 
0

>  <halogenbond:TYR:150>  (426) 
0

>  <hbond:ASP:83>  (426) 
0

>  <hydroph_interaction:VAL:155>  (426) 
0

>  <pication:TYR:161>  (426) 
0

>  <hbond:PRO:131>  (426) 
0

>  <saltbridge:ASP:129>  (426) 
0

>  <hbond:THR:134>  (426) 
0

>  <pication:HIS:51>  (426) 
0

>  <hbond:SER:81>  (426) 
0

>  <hydroph_interaction:THR:134>  (426) 
0

>  <hydroph_interaction:MET:49>  (426) 
0

$$$$
CSCS00030732234
     RDKit          3D

 34 36  0  0  0  0  0  0  0  0999 V2000
   -6.0640    5.2000  -20.0890 C   0  0  0  0  0  0  0  0  0  0  0  0
   -6.3950    5.7680  -18.7430 C   0  0  0  0  0  0  0  0  0  0  0  0
   -5.3890    5.6210  -17.6180 N   0  0  0  0  0  0  0  0  0  0  0  0
   -5.8340    6.3450  -16.3730 C   0  0  0  0  0  0  0  0  0  0  0  0
   -7.0600    5.9060  -15.8980 C   0  0  0  0  0  0  0  0  0  0  0  0
   -8.0420    5.4640  -16.9150 C   0  0  0  0  0  0  0  0  0  0  0  0
   -7.7580    5.3870  -18.2490 C   0  0  0  0  0  0  0  0  0  0  0  0
   -8.8910    4.9280  -18.9950 C   0  0  0  0  0  0  0  0  0  0  0  0
   -9.9730    4.6910  -18.1830 C   0  0  0  0  0  0  0  0  0  0  0  0
   -9.6220    5.0120  -16.5430 S   0  0  0  0  0  0  0  0  0  0  0  0
   -3.7140    5.5990  -17.8640 S   0  0  0  0  0  6  0  0  0  0  0  0
   -3.2590    6.9170  -18.2430 O   0  0  0  0  0  0  0  0  0  0  0  0
   -3.4070    4.4840  -18.6990 O   0  0  0  0  0  0  0  0  0  0  0  0
   -2.9350    5.1870  -16.3250 C   0  0  0  0  0  0  0  0  0  0  0  0
   -3.6540    4.4820  -15.3630 C   0  0  0  0  0  0  0  0  0  0  0  0
   -3.0510    4.1410  -14.1490 C   0  0  0  0  0  0  0  0  0  0  0  0
   -1.7310    4.5090  -13.9020 C   0  0  0  0  0  0  0  0  0  0  0  0
   -1.0090    5.2160  -14.8600 C   0  0  0  0  0  0  0  0  0  0  0  0
   -1.6100    5.5570  -16.0750 C   0  0  0  0  0  0  0  0  0  0  0  0
   -6.2250    5.9470  -20.8750 H   0  0  0  0  0  0  0  0  0  0  0  0
   -5.0160    4.8980  -20.1440 H   0  0  0  0  0  0  0  0  0  0  0  0
   -6.6990    4.3350  -20.3000 H   0  0  0  0  0  0  0  0  0  0  0  0
   -6.4500    6.8550  -18.9250 H   0  0  0  0  0  0  0  0  0  0  0  0
   -5.0800    6.2910  -15.5820 H   0  0  0  0  0  0  0  0  0  0  0  0
   -5.9060    7.4110  -16.6270 H   0  0  0  0  0  0  0  0  0  0  0  0
   -7.4970    6.7080  -15.2910 H   0  0  0  0  0  0  0  0  0  0  0  0
   -6.8890    5.0750  -15.2060 H   0  0  0  0  0  0  0  0  0  0  0  0
   -8.9200    4.7810  -20.0690 H   0  0  0  0  0  0  0  0  0  0  0  0
  -10.9580    4.3460  -18.4690 H   0  0  0  0  0  0  0  0  0  0  0  0
   -4.6830    4.1920  -15.5430 H   0  0  0  0  0  0  0  0  0  0  0  0
   -3.6150    3.5890  -13.3990 H   0  0  0  0  0  0  0  0  0  0  0  0
   -1.2620    4.2420  -12.9550 H   0  0  0  0  0  0  0  0  0  0  0  0
    0.0210    5.5040  -14.6650 H   0  0  0  0  0  0  0  0  0  0  0  0
   -1.0350    6.1070  -16.8140 H   0  0  0  0  0  0  0  0  0  0  0  0
  1  2  1  0
  2  3  1  0
  3  4  1  0
  4  5  1  0
  5  6  1  0
  6  7  2  0
  7  8  1  0
  8  9  2  0
  9 10  1  0
  3 11  1  0
 11 12  2  0
 11 13  2  0
 11 14  1  0
 14 15  2  0
 15 16  1  0
 16 17  2  0
 17 18  1  0
 18 19  2  0
  7  2  1  0
 10  6  1  0
 19 14  1  0
  1 20  1  0
  1 21  1  0
  1 22  1  0
  2 23  1  0
  4 24  1  0
  4 25  1  0
  5 26  1  0
  5 27  1  0
  8 28  1  0
  9 29  1  0
 15 30  1  0
 16 31  1  0
 17 32  1  0
 18 33  1  0
 19 34  1  0
A    1
 C1 
A    2
 C2 
A    3
 N1 
A    4
 C3 
A    5
 C4 
A    6
 C5 
A    7
 C6 
A    8
 C7 
A    9
 C8 
A   10
 S1 
A   11
 S2 
A   12
 O1 
A   13
 O2 
A   14
 C9 
A   15
 C10
A   16
 C11
A   17
 C12
A   18
 C13
A   19
 C14
A   20
 H1 
A   21
 H2 
A   22
 H3 
A   23
 H4 
A   24
 H5 
A   25
 H6 
A   26
 H7 
A   27
 H8 
A   28
 H9 
A   29
 H10
A   30
 H11
A   31
 H12
A   32
 H13
A   33
 H14
A   34
 H15
M  END
>  <ref_pdb>  (427) 
x0051_0B

>  <ref_mols>  (427) 
x0472_0B,x0852_0B

>  <original SMILES>  (427) 
[H]c1sc2c(c1[H])C([H])(C([H])([H])[H])N(S(=O)(=O)c1c([H])c([H])c([H])c([H])c1[H])C([H])([H])C2([H])[H]

>  <index>  (427) 
3141

>  <∆∆G>  (427) 
-7.121341

>  <∆G_bound>  (427) 
-7.934234

>  <∆G_unbound>  (427) 
-0.812893

>  <comRMSD>  (427) 
0.752651

>  <N_constrained_atoms>  (427) 
19.0

>  <N_unconstrained_atoms>  (427) 
4.0

>  <runtime>  (427) 
17.848433

>  <LE>  (427) 
0.309624

>  <percent_hybrid>  (427) 
46.0

>  <dist>  (427) 
9.0

>  <ecfp4>  (427) 
0.190476

>  <daylight>  (427) 
0.346032

>  <topodist>  (427) 
4.0

>  <mces>  (427) 
21.0

>  <tdn>  (427) 
3.0

>  <tup>  (427) 
0.0

>  <rdn>  (427) 
1.0

>  <rup>  (427) 
0.0

>  <ldn>  (427) 
0.0

>  <lup>  (427) 
0.0

>  <mut>  (427) 
4.0

>  <maj>  (427) 
4.0

>  <min>  (427) 
0.0

>  <hyb>  (427) 
1.0

>  <sub>  (427) 
2.0

>  <query_index>  (427) 
178.0

>  <max_hit_Tanimoto>  (427) 
0.370544

>  <largest_ring>  (427) 
6

>  <N_interactions_kept>  (427) 
3.0

>  <N_interactions_lost>  (427) 
3.5

>  <interaction_uniqueness_metric>  (427) 
0.144347

>  <ad_hoc_penalty>  (427) 
-4.289074

>  <N_rotatable_bonds>  (427) 
3

>  <N_HA>  (427) 
19

>  <cluster>  (427) 
3312

>  <N_interactions>  (427) 
5

>  <Enamine>  (427) 
1

>  <Mcule>  (427) 
0

>  <N_PAINS>  (427) 
0

>  <UFF_Gibbs>  (427) 
59.516088

>  <strain_per_HA>  (427) 
3.132426

>  <intxn_scored>  (427) 
8.0

>  <saltbridge:HIS:51>  (427) 
0

>  <pistack:HIS:51>  (427) 
0

>  <hydroph_interaction:HIS:51>  (427) 
0

>  <hbond:ALA:132>  (427) 
0

>  <hbond:SER:135>  (427) 
0

>  <hydroph_interaction:TYR:150>  (427) 
0

>  <pistack:TYR:161>  (427) 
1

>  <hydroph_interaction:TYR:161>  (427) 
2

>  <hydroph_interaction:ASP:83>  (427) 
0

>  <hbond:TYR:130>  (427) 
0

>  <hydroph_interaction:ALA:132>  (427) 
0

>  <hbond:HIS:51>  (427) 
0

>  <hbond:ASP:129>  (427) 
0

>  <hbond:TYR:150>  (427) 
0

>  <hbond:GLY:151>  (427) 
0

>  <hbond:TYR:161>  (427) 
0

>  <hydroph_interaction:TYR:130>  (427) 
0

>  <hydroph_interaction:PRO:131>  (427) 
0

>  <hydroph_interaction:ASP:129>  (427) 
0

>  <saltbridge:ASP:75>  (427) 
0

>  <saltbridge:ASP:83>  (427) 
0

>  <hbond:ASN:152>  (427) 
0

>  <hydroph_interaction:ASN:152>  (427) 
0

>  <halogenbond:TYR:150>  (427) 
0

>  <hbond:ASP:83>  (427) 
0

>  <hydroph_interaction:VAL:155>  (427) 
1

>  <pication:TYR:161>  (427) 
1

>  <hbond:PRO:131>  (427) 
0

>  <saltbridge:ASP:129>  (427) 
0

>  <hbond:THR:134>  (427) 
0

>  <pication:HIS:51>  (427) 
0

>  <hbond:SER:81>  (427) 
0

>  <hydroph_interaction:THR:134>  (427) 
0

>  <hydroph_interaction:MET:49>  (427) 
0

$$$$
Z3869289190
     RDKit          3D

 27 28  0  0  0  0  0  0  0  0999 V2000
   -2.8820    4.5050  -16.0250 C   0  0  0  0  0  0  0  0  0  0  0  0
   -3.7530    5.5710  -15.3840 C   0  0  0  0  0  0  0  0  0  0  0  0
   -5.1560    5.2560  -15.5940 N   0  0  0  0  0  0  0  0  0  0  0  0
   -5.6070    5.2930  -16.9190 C   0  0  0  0  0  0  0  0  0  0  0  0
   -4.7000    5.4420  -17.9640 N   0  0  0  0  0  0  0  0  0  0  0  0
   -5.0700    5.4880  -19.2930 C   0  0  0  0  0  0  0  0  0  0  0  0
   -6.5010    5.3690  -19.5410 C   0  0  0  0  0  0  0  0  0  0  0  0
   -7.3840    5.2260  -18.5160 C   0  0  0  0  0  0  0  0  0  0  0  0
   -8.6410    5.1410  -18.9660 N   0  0  0  0  0  0  0  0  0  0  0  0
   -9.6080    5.0090  -18.0500 C   0  0  0  0  0  0  0  0  0  0  0  0
  -10.8450    4.9860  -18.5770 C   0  0  0  0  0  0  0  0  0  0  0  0
   -9.3570    4.9390  -16.6790 C   0  0  0  0  0  0  0  0  0  0  0  0
   -8.0300    5.0270  -16.2700 C   0  0  0  0  0  0  0  0  0  0  0  0
   -6.9900    5.1810  -17.1850 C   0  0  0  0  0  0  0  0  0  0  0  0
   -2.9470    3.5640  -15.4750 H   0  0  0  0  0  0  0  0  0  0  0  0
   -1.8350    4.8260  -16.0210 H   0  0  0  0  0  0  0  0  0  0  0  0
   -3.1670    4.3080  -17.0590 H   0  0  0  0  0  0  0  0  0  0  0  0
   -3.3710    5.7550  -14.3690 H   0  0  0  0  0  0  0  0  0  0  0  0
   -3.5670    6.5190  -15.9000 H   0  0  0  0  0  0  0  0  0  0  0  0
   -5.7590    5.8300  -15.0240 H   0  0  0  0  0  0  0  0  0  0  0  0
   -4.3080    5.6050  -20.0580 H   0  0  0  0  0  0  0  0  0  0  0  0
   -6.9620    5.3850  -20.5330 H   0  0  0  0  0  0  0  0  0  0  0  0
  -11.2720    4.0100  -18.4810 H   0  0  0  0  0  0  0  0  0  0  0  0
  -10.8880    5.2760  -19.6190 H   0  0  0  0  0  0  0  0  0  0  0  0
  -11.5490    5.6480  -18.1320 H   0  0  0  0  0  0  0  0  0  0  0  0
  -10.1560    4.8280  -15.9570 H   0  0  0  0  0  0  0  0  0  0  0  0
   -7.8920    4.9680  -15.1850 H   0  0  0  0  0  0  0  0  0  0  0  0
  1  2  1  0
  2  3  1  0
  3  4  1  0
  4  5  2  0
  5  6  1  0
  6  7  2  0
  7  8  1  0
  8  9  2  0
  9 10  1  0
 10 11  1  0
 10 12  2  0
 12 13  1  0
 13 14  2  0
 14  4  1  0
 14  8  1  0
  1 15  1  0
  1 16  1  0
  1 17  1  0
  2 18  1  0
  2 19  1  0
  3 20  1  0
  6 21  1  0
  7 22  1  0
 11 23  1  0
 11 24  1  0
 11 25  1  0
 12 26  1  0
 13 27  1  0
A    1
 C1 
A    2
 C2 
A    3
 N1 
A    4
 C3 
A    5
 N2 
A    6
 C4 
A    7
 C5 
A    8
 C6 
A    9
 N3 
A   10
 C7 
A   11
 C8 
A   12
 C9 
A   13
 C10
A   14
 C11
A   15
 H1 
A   16
 H2 
A   17
 H3 
A   18
 H4 
A   19
 H5 
A   20
 H6 
A   21
 H7 
A   22
 H8 
A   23
 H9 
A   24
 H10
A   25
 H11
A   26
 H12
A   27
 H13
M  END
>  <ref_pdb>  (428) 
x0051_0B

>  <ref_mols>  (428) 
x0727_0B,x0605_0B

>  <original SMILES>  (428) 
[H]c1nc(N([H])C([H])([H])C([H])([H])[H])c2c([H])c([H])c(C([H])([H])[H])nc2c1[H]

>  <index>  (428) 
2940

>  <∆∆G>  (428) 
-6.847207

>  <∆G_bound>  (428) 
-6.942101

>  <∆G_unbound>  (428) 
-0.094893

>  <comRMSD>  (428) 
0.582346

>  <N_constrained_atoms>  (428) 
13.0

>  <N_unconstrained_atoms>  (428) 
1.0

>  <runtime>  (428) 
29.735829

>  <LE>  (428) 
0.489086

>  <percent_hybrid>  (428) 
20.0

>  <dist>  (428) 
2.0

>  <ecfp4>  (428) 
0.297872

>  <daylight>  (428) 
0.584158

>  <topodist>  (428) 
1.0

>  <mces>  (428) 
14.0

>  <tdn>  (428) 
0.0

>  <tup>  (428) 
1.0

>  <rdn>  (428) 
0.0

>  <rup>  (428) 
0.0

>  <ldn>  (428) 
0.0

>  <lup>  (428) 
0.0

>  <mut>  (428) 
1.0

>  <maj>  (428) 
1.0

>  <min>  (428) 
0.0

>  <hyb>  (428) 
0.0

>  <sub>  (428) 
1.0

>  <query_index>  (428) 
74.0

>  <max_hit_Tanimoto>  (428) 
0.37415

>  <largest_ring>  (428) 
6

>  <N_interactions_kept>  (428) 
0.0

>  <N_interactions_lost>  (428) 
3.5

>  <interaction_uniqueness_metric>  (428) 
0.078036

>  <ad_hoc_penalty>  (428) 
-3.3921

>  <N_rotatable_bonds>  (428) 
4

>  <N_HA>  (428) 
14

>  <cluster>  (428) 
3502

>  <N_interactions>  (428) 
6

>  <Enamine>  (428) 
1

>  <Mcule>  (428) 
0

>  <N_PAINS>  (428) 
0

>  <UFF_Gibbs>  (428) 
58.581348

>  <strain_per_HA>  (428) 
4.184382

>  <intxn_scored>  (428) 
7.5

>  <saltbridge:HIS:51>  (428) 
0

>  <pistack:HIS:51>  (428) 
0

>  <hydroph_interaction:HIS:51>  (428) 
0

>  <hbond:ALA:132>  (428) 
0

>  <hbond:SER:135>  (428) 
0

>  <hydroph_interaction:TYR:150>  (428) 
1

>  <pistack:TYR:161>  (428) 
1

>  <hydroph_interaction:TYR:161>  (428) 
3

>  <hydroph_interaction:ASP:83>  (428) 
0

>  <hbond:TYR:130>  (428) 
0

>  <hydroph_interaction:ALA:132>  (428) 
0

>  <hbond:HIS:51>  (428) 
0

>  <hbond:ASP:129>  (428) 
0

>  <hbond:TYR:150>  (428) 
0

>  <hbond:GLY:151>  (428) 
0

>  <hbond:TYR:161>  (428) 
0

>  <hydroph_interaction:TYR:130>  (428) 
0

>  <hydroph_interaction:PRO:131>  (428) 
0

>  <hydroph_interaction:ASP:129>  (428) 
0

>  <saltbridge:ASP:75>  (428) 
0

>  <saltbridge:ASP:83>  (428) 
0

>  <hbond:ASN:152>  (428) 
0

>  <hydroph_interaction:ASN:152>  (428) 
0

>  <halogenbond:TYR:150>  (428) 
0

>  <hbond:ASP:83>  (428) 
0

>  <hydroph_interaction:VAL:155>  (428) 
1

>  <pication:TYR:161>  (428) 
0

>  <hbond:PRO:131>  (428) 
0

>  <saltbridge:ASP:129>  (428) 
0

>  <hbond:THR:134>  (428) 
0

>  <pication:HIS:51>  (428) 
0

>  <hbond:SER:81>  (428) 
0

>  <hydroph_interaction:THR:134>  (428) 
0

>  <hydroph_interaction:MET:49>  (428) 
0

$$$$
Z4349353620
     RDKit          3D

 48 51  0  0  0  0  0  0  0  0999 V2000
   -9.6070    4.5870  -18.4690 C   0  0  0  0  0  0  0  0  0  0  0  0
   -8.7670    5.1430  -17.3430 C   0  0  0  0  0  0  0  0  0  0  0  0
   -9.1710    5.2850  -16.0170 C   0  0  0  0  0  0  0  0  0  0  0  0
   -8.1920    5.8390  -15.2090 C   0  0  0  0  0  0  0  0  0  0  0  0
   -8.2860    6.1520  -13.7830 C   0  0  0  0  0  0  0  0  0  0  0  0
   -8.0330    7.3070  -13.4430 O   0  0  0  0  0  0  0  0  0  0  0  0
   -8.6710    5.1450  -12.8470 O   0  0  0  0  0  0  0  0  0  0  0  0
   -8.7200    5.3550  -11.4410 C   0  0  0  0  0  0  0  0  0  0  0  0
   -8.8940    4.3590  -10.2710 C   0  0  0  0  0  0  0  0  0  0  0  0
   -9.0520    2.9880  -10.3470 C   0  0  0  0  0  0  0  0  0  0  0  0
   -9.4240    2.3400   -9.1440 C   0  0  0  0  0  0  0  0  0  0  0  0
   -9.5100    3.0400   -7.9110 C   0  0  0  0  0  0  0  0  0  0  0  0
   -9.0000    4.3480   -7.8000 C   0  0  0  0  0  0  0  0  0  0  0  0
   -8.8730    5.0010   -9.0820 N   0  0  0  0  0  0  0  0  0  0  0  0
   -8.7160    6.3340   -9.2400 N   0  0  0  0  0  0  0  0  0  0  0  0
   -8.6270    6.5510  -10.6600 C   0  0  0  0  0  0  0  0  0  0  0  0
   -7.1090    6.0540  -16.0600 N   0  0  0  0  0  0  0  0  0  0  0  0
   -7.4750    5.6300  -17.3450 N   0  0  0  0  0  0  0  0  0  0  0  0
   -6.5440    5.7170  -18.5190 C   0  0  0  0  0  0  0  0  0  0  0  0
   -6.6670    6.9730  -19.3860 C   0  0  0  0  0  0  0  0  0  0  0  0
   -5.6950    7.0900  -20.3890 C   0  0  0  0  0  0  0  0  0  0  0  0
   -4.4110    6.7080  -20.0320 C   0  0  0  0  0  0  0  0  0  0  0  0
   -4.3670    5.4440  -19.4610 C   0  0  0  0  0  0  0  0  0  0  0  0
   -5.0640    5.4490  -18.2440 C   0  0  0  0  0  0  0  0  0  0  0  0
   -9.4290    3.5180  -18.6060 H   0  0  0  0  0  0  0  0  0  0  0  0
   -9.3830    5.1130  -19.4040 H   0  0  0  0  0  0  0  0  0  0  0  0
  -10.6780    4.7100  -18.2700 H   0  0  0  0  0  0  0  0  0  0  0  0
  -10.1520    5.0020  -15.6420 H   0  0  0  0  0  0  0  0  0  0  0  0
   -9.6430    2.6590  -11.2020 H   0  0  0  0  0  0  0  0  0  0  0  0
   -8.0680    2.5770  -10.5850 H   0  0  0  0  0  0  0  0  0  0  0  0
   -8.6470    1.5900   -9.0020 H   0  0  0  0  0  0  0  0  0  0  0  0
  -10.2990    1.7510   -9.0390 H   0  0  0  0  0  0  0  0  0  0  0  0
   -8.8820    2.4580   -7.2280 H   0  0  0  0  0  0  0  0  0  0  0  0
  -10.5090    2.9210   -7.5080 H   0  0  0  0  0  0  0  0  0  0  0  0
   -7.9920    4.3310   -7.3670 H   0  0  0  0  0  0  0  0  0  0  0  0
   -9.6340    4.9570   -7.1700 H   0  0  0  0  0  0  0  0  0  0  0  0
   -8.4980    7.5660  -11.0160 H   0  0  0  0  0  0  0  0  0  0  0  0
   -6.8270    4.9030  -19.1970 H   0  0  0  0  0  0  0  0  0  0  0  0
   -6.5370    7.8310  -18.7420 H   0  0  0  0  0  0  0  0  0  0  0  0
   -7.6600    7.0480  -19.8300 H   0  0  0  0  0  0  0  0  0  0  0  0
   -6.0080    6.4820  -21.2490 H   0  0  0  0  0  0  0  0  0  0  0  0
   -5.6870    8.1260  -20.7440 H   0  0  0  0  0  0  0  0  0  0  0  0
   -3.7940    6.6840  -20.9380 H   0  0  0  0  0  0  0  0  0  0  0  0
   -3.9910    7.5160  -19.4360 H   0  0  0  0  0  0  0  0  0  0  0  0
   -3.3730    5.0730  -19.2180 H   0  0  0  0  0  0  0  0  0  0  0  0
   -4.7150    4.7030  -20.1580 H   0  0  0  0  0  0  0  0  0  0  0  0
   -4.9640    4.5800  -17.6060 H   0  0  0  0  0  0  0  0  0  0  0  0
   -4.6550    6.2760  -17.6540 H   0  0  0  0  0  0  0  0  0  0  0  0
  1  2  1  0
  2  3  2  0
  3  4  1  0
  4  5  1  0
  5  6  2  0
  5  7  1  0
  7  8  1  0
  8  9  2  0
  9 10  1  0
 10 11  1  0
 11 12  1  0
 12 13  1  0
 13 14  1  0
 14 15  1  0
 15 16  2  0
  4 17  2  0
 17 18  1  0
 18 19  1  0
 19 20  1  0
 20 21  1  0
 21 22  1  0
 22 23  1  0
 23 24  1  0
 18  2  1  0
 16  8  1  0
 14  9  1  0
 24 19  1  0
  1 25  1  0
  1 26  1  0
  1 27  1  0
  3 28  1  0
 10 29  1  0
 10 30  1  0
 11 31  1  0
 11 32  1  0
 12 33  1  0
 12 34  1  0
 13 35  1  0
 13 36  1  0
 16 37  1  0
 19 38  1  0
 20 39  1  0
 20 40  1  0
 21 41  1  0
 21 42  1  0
 22 43  1  0
 22 44  1  0
 23 45  1  0
 23 46  1  0
 24 47  1  0
 24 48  1  0
A    1
 C1 
A    2
 C2 
A    3
 C3 
A    4
 C4 
A    5
 C5 
A    6
 O1 
A    7
 O2 
A    8
 C6 
A    9
 C7 
A   10
 C8 
A   11
 C9 
A   12
 C10
A   13
 C11
A   14
 N1 
A   15
 N2 
A   16
 C12
A   17
 N3 
A   18
 N4 
A   19
 C13
A   20
 C14
A   21
 C15
A   22
 C16
A   23
 C17
A   24
 C18
A   25
 H1 
A   26
 H2 
A   27
 H3 
A   28
 H4 
A   29
 H5 
A   30
 H6 
A   31
 H7 
A   32
 H8 
A   33
 H9 
A   34
 H10
A   35
 H11
A   36
 H12
A   37
 H13
A   38
 H14
A   39
 H15
A   40
 H16
A   41
 H17
A   42
 H18
A   43
 H19
A   44
 H20
A   45
 H21
A   46
 H22
A   47
 H23
A   48
 H24
M  END
>  <ref_pdb>  (429) 
x0051_0B

>  <ref_mols>  (429) 
x0969_1B,x0917_0B

>  <original SMILES>  (429) 
[H]c1nn2c(c1OC(=O)c1nn(C3([H])C([H])([H])C([H])([H])C([H])([H])C([H])([H])C3([H])[H])c(C([H])([H])[H])c1[H])C([H])([H])C([H])([H])C([H])([H])C2([H])[H]

>  <index>  (429) 
11

>  <∆∆G>  (429) 
-6.879139

>  <∆G_bound>  (429) 
-5.73057

>  <∆G_unbound>  (429) 
1.148568

>  <comRMSD>  (429) 
0.613583

>  <N_constrained_atoms>  (429) 
24.0

>  <N_unconstrained_atoms>  (429) 
0.0

>  <runtime>  (429) 
54.409879

>  <LE>  (429) 
0.286631

>  <percent_hybrid>  (429) 
40.0

>  <dist>  (429) 
8.0

>  <ecfp4>  (429) 
0.177778

>  <daylight>  (429) 
0.218085

>  <topodist>  (429) 
1.0

>  <mces>  (429) 
27.0

>  <tdn>  (429) 
1.0

>  <tup>  (429) 
0.0

>  <rdn>  (429) 
0.0

>  <rup>  (429) 
0.0

>  <ldn>  (429) 
0.0

>  <lup>  (429) 
0.0

>  <mut>  (429) 
6.0

>  <maj>  (429) 
6.0

>  <min>  (429) 
0.0

>  <hyb>  (429) 
1.0

>  <sub>  (429) 
0.0

>  <query_index>  (429) 
70.0

>  <max_hit_Tanimoto>  (429) 
0.259707

>  <largest_ring>  (429) 
0

>  <N_interactions_kept>  (429) 
3.0

>  <N_interactions_lost>  (429) 
1.0

>  <interaction_uniqueness_metric>  (429) 
0.207918

>  <ad_hoc_penalty>  (429) 
-41.314873

>  <N_rotatable_bonds>  (429) 
4

>  <N_HA>  (429) 
24

>  <cluster>  (429) 
6206

>  <N_interactions>  (429) 
8

>  <Enamine>  (429) 
1

>  <Mcule>  (429) 
0

>  <N_PAINS>  (429) 
0

>  <UFF_Gibbs>  (429) 
156.974533

>  <strain_per_HA>  (429) 
6.540606

>  <intxn_scored>  (429) 
7.5

>  <saltbridge:HIS:51>  (429) 
1

>  <pistack:HIS:51>  (429) 
1

>  <hydroph_interaction:HIS:51>  (429) 
1

>  <hbond:ALA:132>  (429) 
0

>  <hbond:SER:135>  (429) 
0

>  <hydroph_interaction:TYR:150>  (429) 
1

>  <pistack:TYR:161>  (429) 
0

>  <hydroph_interaction:TYR:161>  (429) 
3

>  <hydroph_interaction:ASP:83>  (429) 
0

>  <hbond:TYR:130>  (429) 
0

>  <hydroph_interaction:ALA:132>  (429) 
1

>  <hbond:HIS:51>  (429) 
0

>  <hbond:ASP:129>  (429) 
0

>  <hbond:TYR:150>  (429) 
0

>  <hbond:GLY:151>  (429) 
0

>  <hbond:TYR:161>  (429) 
0

>  <hydroph_interaction:TYR:130>  (429) 
0

>  <hydroph_interaction:PRO:131>  (429) 
0

>  <hydroph_interaction:ASP:129>  (429) 
0

>  <saltbridge:ASP:75>  (429) 
0

>  <saltbridge:ASP:83>  (429) 
0

>  <hbond:ASN:152>  (429) 
0

>  <hydroph_interaction:ASN:152>  (429) 
0

>  <halogenbond:TYR:150>  (429) 
0

>  <hbond:ASP:83>  (429) 
0

>  <hydroph_interaction:VAL:155>  (429) 
0

>  <pication:TYR:161>  (429) 
0

>  <hbond:PRO:131>  (429) 
0

>  <saltbridge:ASP:129>  (429) 
0

>  <hbond:THR:134>  (429) 
0

>  <pication:HIS:51>  (429) 
0

>  <hbond:SER:81>  (429) 
0

>  <hydroph_interaction:THR:134>  (429) 
0

>  <hydroph_interaction:MET:49>  (429) 
0

$$$$
Z4241302572
     RDKit          3D

 49 52  0  0  0  0  0  0  0  0999 V2000
   -4.7760    5.7980  -17.1490 C   0  0  0  0  0  0  0  0  0  0  0  0
   -5.9450    5.4830  -17.9610 N   0  0  0  0  0  0  0  0  0  0  0  0
   -5.7340    5.2810  -19.3690 C   0  0  0  0  0  0  0  0  0  0  0  0
   -6.8460    4.9980  -19.9770 N   0  0  0  0  0  0  0  0  0  0  0  0
   -7.7900    5.0200  -18.9530 C   0  0  0  0  0  0  0  0  0  0  0  0
   -9.2350    4.7690  -19.0490 C   0  0  0  0  0  0  0  0  0  0  0  0
  -10.0610    4.8150  -17.9460 C   0  0  0  0  0  0  0  0  0  0  0  0
   -9.4170    5.1520  -16.5960 C   0  0  0  0  0  0  0  0  0  0  0  0
   -8.0350    5.3990  -16.5200 C   0  0  0  0  0  0  0  0  0  0  0  0
   -7.5010    5.7450  -15.1250 C   0  0  0  0  0  0  0  0  0  0  0  0
   -7.8520    7.1240  -14.7930 N   0  0  0  0  0  0  0  0  0  0  0  0
   -9.0650    7.3390  -13.9780 C   0  0  0  0  0  0  0  0  0  0  0  0
  -10.0060    8.0330  -14.2690 O   0  0  0  0  0  0  0  0  0  0  0  0
   -8.9580    6.5330  -12.7080 C   0  0  0  0  0  0  0  0  0  0  0  0
   -8.7180    7.1880  -11.4960 C   0  0  0  0  0  0  0  0  0  0  0  0
   -8.5930    6.4690  -10.3130 C   0  0  0  0  0  0  0  0  0  0  0  0
   -8.7170    4.9530  -10.3260 C   0  0  0  0  0  0  0  0  0  0  0  0
   -8.5830    4.1970   -9.1490 N   0  0  0  0  0  0  0  0  0  0  0  0
   -8.8220    2.7670   -9.2050 C   0  0  0  0  0  0  0  0  0  0  0  0
   -9.7110    2.4140   -8.0350 C   0  0  0  0  0  0  0  0  0  0  0  0
   -9.3140    3.1140   -6.7410 C   0  0  0  0  0  0  0  0  0  0  0  0
   -8.8970    4.5730   -6.8900 C   0  0  0  0  0  0  0  0  0  0  0  0
   -8.0580    4.7310   -7.9700 C   0  0  0  0  0  0  0  0  0  0  0  0
   -6.9710    5.2920   -7.8330 O   0  0  0  0  0  0  0  0  0  0  0  0
   -8.9660    4.3190  -11.5380 C   0  0  0  0  0  0  0  0  0  0  0  0
   -9.0930    5.1500  -12.7880 C   0  0  0  0  0  0  0  0  0  0  0  0
   -7.2630    5.3200  -17.6880 C   0  0  0  0  0  0  0  0  0  0  0  0
   -4.8250    5.2650  -16.1920 H   0  0  0  0  0  0  0  0  0  0  0  0
   -4.6970    6.8720  -16.9400 H   0  0  0  0  0  0  0  0  0  0  0  0
   -3.8530    5.4660  -17.6320 H   0  0  0  0  0  0  0  0  0  0  0  0
   -4.7160    5.3780  -19.7560 H   0  0  0  0  0  0  0  0  0  0  0  0
   -9.6280    4.5460  -20.0240 H   0  0  0  0  0  0  0  0  0  0  0  0
  -11.1240    4.6230  -18.0410 H   0  0  0  0  0  0  0  0  0  0  0  0
  -10.0110    5.2090  -15.6890 H   0  0  0  0  0  0  0  0  0  0  0  0
   -7.9660    5.0900  -14.3850 H   0  0  0  0  0  0  0  0  0  0  0  0
   -6.4320    5.6350  -14.9570 H   0  0  0  0  0  0  0  0  0  0  0  0
   -7.5910    7.8420  -15.4560 H   0  0  0  0  0  0  0  0  0  0  0  0
   -8.6230    8.2690  -11.4720 H   0  0  0  0  0  0  0  0  0  0  0  0
   -8.4040    7.0250   -9.3940 H   0  0  0  0  0  0  0  0  0  0  0  0
   -9.2740    2.4200  -10.1380 H   0  0  0  0  0  0  0  0  0  0  0  0
   -7.8500    2.2520   -9.1190 H   0  0  0  0  0  0  0  0  0  0  0  0
  -10.7300    2.7450   -8.2700 H   0  0  0  0  0  0  0  0  0  0  0  0
   -9.7500    1.3330   -7.8830 H   0  0  0  0  0  0  0  0  0  0  0  0
   -8.5110    2.5650   -6.2370 H   0  0  0  0  0  0  0  0  0  0  0  0
  -10.1890    3.0970   -6.0800 H   0  0  0  0  0  0  0  0  0  0  0  0
   -8.3850    4.9080   -5.9800 H   0  0  0  0  0  0  0  0  0  0  0  0
   -9.7630    5.2230   -7.0250 H   0  0  0  0  0  0  0  0  0  0  0  0
   -9.0720    3.2410  -11.6310 H   0  0  0  0  0  0  0  0  0  0  0  0
   -9.2860    4.6490  -13.7350 H   0  0  0  0  0  0  0  0  0  0  0  0
  1  2  1  0
  2  3  1  0
  3  4  2  0
  4  5  1  0
  5  6  2  0
  6  7  1  0
  7  8  2  0
  8  9  1  0
  9 10  1  0
 10 11  1  0
 11 12  1  0
 12 13  2  0
 12 14  1  0
 14 15  2  0
 15 16  1  0
 16 17  2  0
 17 18  1  0
 18 19  1  0
 19 20  1  0
 20 21  1  0
 21 22  1  0
 22 23  1  0
 23 24  2  0
 17 25  1  0
 25 26  2  0
  9 27  2  0
 27  2  1  0
 27  5  1  0
 26 14  1  0
 23 18  1  0
  1 28  1  0
  1 29  1  0
  1 30  1  0
  3 31  1  0
  6 32  1  0
  7 33  1  0
  8 34  1  0
 10 35  1  0
 10 36  1  0
 11 37  1  0
 15 38  1  0
 16 39  1  0
 19 40  1  0
 19 41  1  0
 20 42  1  0
 20 43  1  0
 21 44  1  0
 21 45  1  0
 22 46  1  0
 22 47  1  0
 25 48  1  0
 26 49  1  0
A    1
 C1 
A    2
 N1 
A    3
 C2 
A    4
 N2 
A    5
 C3 
A    6
 C4 
A    7
 C5 
A    8
 C6 
A    9
 C7 
A   10
 C8 
A   11
 N3 
A   12
 C9 
A   13
 O1 
A   14
 C10
A   15
 C11
A   16
 C12
A   17
 C13
A   18
 N4 
A   19
 C14
A   20
 C15
A   21
 C16
A   22
 C17
A   23
 C18
A   24
 O2 
A   25
 C19
A   26
 C20
A   27
 C21
A   28
 H1 
A   29
 H2 
A   30
 H3 
A   31
 H4 
A   32
 H5 
A   33
 H6 
A   34
 H7 
A   35
 H8 
A   36
 H9 
A   37
 H10
A   38
 H11
A   39
 H12
A   40
 H13
A   41
 H14
A   42
 H15
A   43
 H16
A   44
 H17
A   45
 H18
A   46
 H19
A   47
 H20
A   48
 H21
A   49
 H22
M  END
>  <ref_pdb>  (430) 
x0051_0B

>  <ref_mols>  (430) 
x0490_0B,x0404_0B

>  <original SMILES>  (430) 
[H]c1c([H])c(N2C(=O)C([H])([H])C([H])([H])C([H])([H])C2([H])[H])c([H])c([H])c1C(=O)N([H])C([H])([H])c1c([H])c([H])c([H])c2nc([H])n(C([H])([H])[H])c12

>  <index>  (430) 
2055

>  <∆∆G>  (430) 
-8.654782

>  <∆G_bound>  (430) 
-8.003253

>  <∆G_unbound>  (430) 
0.651529

>  <comRMSD>  (430) 
0.67063

>  <N_constrained_atoms>  (430) 
26.0

>  <N_unconstrained_atoms>  (430) 
2.0

>  <runtime>  (430) 
83.884783

>  <LE>  (430) 
0.309099

>  <percent_hybrid>  (430) 
43.0

>  <dist>  (430) 
8.0

>  <ecfp4>  (430) 
0.238636

>  <daylight>  (430) 
0.3

>  <topodist>  (430) 
3.0

>  <mces>  (430) 
29.0

>  <tdn>  (430) 
2.0

>  <tup>  (430) 
1.0

>  <rdn>  (430) 
0.0

>  <rup>  (430) 
0.0

>  <ldn>  (430) 
0.0

>  <lup>  (430) 
0.0

>  <mut>  (430) 
3.0

>  <maj>  (430) 
3.0

>  <min>  (430) 
0.0

>  <hyb>  (430) 
2.0

>  <sub>  (430) 
1.0

>  <query_index>  (430) 
10.0

>  <max_hit_Tanimoto>  (430) 
0.308642

>  <largest_ring>  (430) 
6

>  <N_interactions_kept>  (430) 
1.5

>  <N_interactions_lost>  (430) 
3.0

>  <interaction_uniqueness_metric>  (430) 
0.116343

>  <ad_hoc_penalty>  (430) 
-3.962233

>  <N_rotatable_bonds>  (430) 
5

>  <N_HA>  (430) 
27

>  <cluster>  (430) 
4336

>  <N_interactions>  (430) 
5

>  <Enamine>  (430) 
1

>  <Mcule>  (430) 
0

>  <N_PAINS>  (430) 
0

>  <UFF_Gibbs>  (430) 
238.615441

>  <strain_per_HA>  (430) 
8.837609

>  <intxn_scored>  (430) 
7.5

>  <saltbridge:HIS:51>  (430) 
0

>  <pistack:HIS:51>  (430) 
1

>  <hydroph_interaction:HIS:51>  (430) 
1

>  <hbond:ALA:132>  (430) 
0

>  <hbond:SER:135>  (430) 
0

>  <hydroph_interaction:TYR:150>  (430) 
1

>  <pistack:TYR:161>  (430) 
1

>  <hydroph_interaction:TYR:161>  (430) 
0

>  <hydroph_interaction:ASP:83>  (430) 
0

>  <hbond:TYR:130>  (430) 
0

>  <hydroph_interaction:ALA:132>  (430) 
1

>  <hbond:HIS:51>  (430) 
0

>  <hbond:ASP:129>  (430) 
0

>  <hbond:TYR:150>  (430) 
0

>  <hbond:GLY:151>  (430) 
0

>  <hbond:TYR:161>  (430) 
0

>  <hydroph_interaction:TYR:130>  (430) 
0

>  <hydroph_interaction:PRO:131>  (430) 
0

>  <hydroph_interaction:ASP:129>  (430) 
0

>  <saltbridge:ASP:75>  (430) 
0

>  <saltbridge:ASP:83>  (430) 
0

>  <hbond:ASN:152>  (430) 
0

>  <hydroph_interaction:ASN:152>  (430) 
0

>  <halogenbond:TYR:150>  (430) 
0

>  <hbond:ASP:83>  (430) 
0

>  <hydroph_interaction:VAL:155>  (430) 
0

>  <pication:TYR:161>  (430) 
0

>  <hbond:PRO:131>  (430) 
0

>  <saltbridge:ASP:129>  (430) 
0

>  <hbond:THR:134>  (430) 
0

>  <pication:HIS:51>  (430) 
0

>  <hbond:SER:81>  (430) 
0

>  <hydroph_interaction:THR:134>  (430) 
0

>  <hydroph_interaction:MET:49>  (430) 
0

$$$$
CSSS00011934143
     RDKit          3D

 31 32  0  0  0  0  0  0  0  0999 V2000
  -11.1140    4.9500  -18.5550 C   0  0  0  0  0  0  0  0  0  0  0  0
   -9.7090    4.9870  -18.1170 C   0  0  0  0  0  0  0  0  0  0  0  0
   -9.3140    4.9310  -16.6320 C   0  0  0  0  0  0  0  0  0  0  0  0
   -7.8210    5.0550  -16.3870 C   0  0  0  0  0  0  0  0  0  0  0  0
   -6.9330    5.2170  -17.6130 C   0  0  0  0  0  0  0  0  0  0  0  0
   -5.5700    5.3710  -17.7350 N   0  0  0  0  0  0  0  0  0  0  0  0
   -5.2900    5.4820  -19.0660 C   0  0  0  0  0  0  0  0  0  0  0  0
   -6.4330    5.3940  -19.7920 C   0  0  0  0  0  0  0  0  0  0  0  0
   -7.4630    5.2360  -18.9230 C   0  0  0  0  0  0  0  0  0  0  0  0
   -8.8020    5.1160  -19.1370 C   0  0  0  0  0  0  0  0  0  0  0  0
   -4.0130    5.6830  -19.8660 C   0  0  0  0  0  0  0  0  0  0  0  0
   -2.8390    5.0370  -19.1600 C   0  0  0  0  0  0  0  0  0  0  0  0
   -3.7360    7.1950  -19.9540 C   0  0  0  0  0  0  0  0  0  0  0  0
   -4.1630    5.1210  -21.3020 C   0  0  0  0  0  0  0  0  0  0  0  0
  -11.6360    5.7180  -18.0660 H   0  0  0  0  0  0  0  0  0  0  0  0
  -11.6250    4.0150  -18.4270 H   0  0  0  0  0  0  0  0  0  0  0  0
  -11.1410    5.2670  -19.5940 H   0  0  0  0  0  0  0  0  0  0  0  0
  -10.0990    4.8210  -15.8680 H   0  0  0  0  0  0  0  0  0  0  0  0
   -7.4050    5.0360  -15.3830 H   0  0  0  0  0  0  0  0  0  0  0  0
   -4.9080    5.4010  -16.9700 H   0  0  0  0  0  0  0  0  0  0  0  0
   -6.5290    5.4480  -20.8730 H   0  0  0  0  0  0  0  0  0  0  0  0
   -9.1170    5.1480  -20.1830 H   0  0  0  0  0  0  0  0  0  0  0  0
   -2.2920    4.3870  -19.8470 H   0  0  0  0  0  0  0  0  0  0  0  0
   -2.0940    5.6820  -18.7030 H   0  0  0  0  0  0  0  0  0  0  0  0
   -3.2110    4.3910  -18.3560 H   0  0  0  0  0  0  0  0  0  0  0  0
   -3.4780    7.6050  -18.9710 H   0  0  0  0  0  0  0  0  0  0  0  0
   -4.6150    7.7350  -20.3200 H   0  0  0  0  0  0  0  0  0  0  0  0
   -2.9040    7.4170  -20.6290 H   0  0  0  0  0  0  0  0  0  0  0  0
   -5.0820    4.5350  -21.4140 H   0  0  0  0  0  0  0  0  0  0  0  0
   -4.1980    5.9300  -22.0380 H   0  0  0  0  0  0  0  0  0  0  0  0
   -3.3230    4.4690  -21.5780 H   0  0  0  0  0  0  0  0  0  0  0  0
  1  2  1  0
  2  3  2  0
  3  4  1  0
  4  5  2  0
  5  6  1  0
  6  7  1  0
  7  8  2  0
  8  9  1  0
  9 10  2  0
  7 11  1  0
 11 12  1  0
 11 13  1  0
 11 14  1  0
 10  2  1  0
  9  5  1  0
  1 15  1  0
  1 16  1  0
  1 17  1  0
  3 18  1  0
  4 19  1  0
  6 20  1  0
  8 21  1  0
 10 22  1  0
 12 23  1  0
 12 24  1  0
 12 25  1  0
 13 26  1  0
 13 27  1  0
 13 28  1  0
 14 29  1  0
 14 30  1  0
 14 31  1  0
A    1
 C1 
A    2
 C2 
A    3
 C3 
A    4
 C4 
A    5
 C5 
A    6
 N1 
A    7
 C6 
A    8
 C7 
A    9
 C8 
A   10
 C9 
A   11
 C10
A   12
 C11
A   13
 C12
A   14
 C13
A   15
 H1 
A   16
 H2 
A   17
 H3 
A   18
 H4 
A   19
 H5 
A   20
 H6 
A   21
 H7 
A   22
 H8 
A   23
 H9 
A   24
 H10
A   25
 H11
A   26
 H12
A   27
 H13
A   28
 H14
A   29
 H15
A   30
 H16
A   31
 H17
M  END
>  <ref_pdb>  (431) 
x0051_0B

>  <ref_mols>  (431) 
x0089_0B,x0605_0B

>  <original SMILES>  (431) 
[H]c1c(C([H])([H])[H])c([H])c2c([H])c(C(C([H])([H])[H])(C([H])([H])[H])C([H])([H])[H])n([H])c2c1[H]

>  <index>  (431) 
1907

>  <∆∆G>  (431) 
-7.583693

>  <∆G_bound>  (431) 
-7.81634

>  <∆G_unbound>  (431) 
-0.232647

>  <comRMSD>  (431) 
0.836972

>  <N_constrained_atoms>  (431) 
15.0

>  <N_unconstrained_atoms>  (431) 
2.0

>  <runtime>  (431) 
29.154475

>  <LE>  (431) 
0.4461

>  <percent_hybrid>  (431) 
25.0

>  <dist>  (431) 
4.0

>  <ecfp4>  (431) 
0.188679

>  <daylight>  (431) 
0.302752

>  <topodist>  (431) 
3.0

>  <mces>  (431) 
14.0

>  <tdn>  (431) 
1.0

>  <tup>  (431) 
1.0

>  <rdn>  (431) 
0.0

>  <rup>  (431) 
0.0

>  <ldn>  (431) 
1.0

>  <lup>  (431) 
0.0

>  <mut>  (431) 
1.0

>  <maj>  (431) 
1.0

>  <min>  (431) 
0.0

>  <hyb>  (431) 
0.0

>  <sub>  (431) 
2.0

>  <query_index>  (431) 
118.0

>  <max_hit_Tanimoto>  (431) 
0.182796

>  <largest_ring>  (431) 
6

>  <N_interactions_kept>  (431) 
0.0

>  <N_interactions_lost>  (431) 
3.5

>  <interaction_uniqueness_metric>  (431) 
0.044868

>  <ad_hoc_penalty>  (431) 
-6.848015

>  <N_rotatable_bonds>  (431) 
1

>  <N_HA>  (431) 
14

>  <cluster>  (431) 
4468

>  <N_interactions>  (431) 
5

>  <Enamine>  (431) 
1

>  <Mcule>  (431) 
0

>  <N_PAINS>  (431) 
0

>  <UFF_Gibbs>  (431) 
83.764975

>  <strain_per_HA>  (431) 
5.983212

>  <intxn_scored>  (431) 
7.5

>  <saltbridge:HIS:51>  (431) 
0

>  <pistack:HIS:51>  (431) 
0

>  <hydroph_interaction:HIS:51>  (431) 
0

>  <hbond:ALA:132>  (431) 
0

>  <hbond:SER:135>  (431) 
0

>  <hydroph_interaction:TYR:150>  (431) 
1

>  <pistack:TYR:161>  (431) 
1

>  <hydroph_interaction:TYR:161>  (431) 
3

>  <hydroph_interaction:ASP:83>  (431) 
0

>  <hbond:TYR:130>  (431) 
0

>  <hydroph_interaction:ALA:132>  (431) 
0

>  <hbond:HIS:51>  (431) 
0

>  <hbond:ASP:129>  (431) 
0

>  <hbond:TYR:150>  (431) 
0

>  <hbond:GLY:151>  (431) 
0

>  <hbond:TYR:161>  (431) 
0

>  <hydroph_interaction:TYR:130>  (431) 
0

>  <hydroph_interaction:PRO:131>  (431) 
0

>  <hydroph_interaction:ASP:129>  (431) 
0

>  <saltbridge:ASP:75>  (431) 
0

>  <saltbridge:ASP:83>  (431) 
0

>  <hbond:ASN:152>  (431) 
0

>  <hydroph_interaction:ASN:152>  (431) 
0

>  <halogenbond:TYR:150>  (431) 
0

>  <hbond:ASP:83>  (431) 
0

>  <hydroph_interaction:VAL:155>  (431) 
0

>  <pication:TYR:161>  (431) 
0

>  <hbond:PRO:131>  (431) 
0

>  <saltbridge:ASP:129>  (431) 
0

>  <hbond:THR:134>  (431) 
0

>  <pication:HIS:51>  (431) 
0

>  <hbond:SER:81>  (431) 
0

>  <hydroph_interaction:THR:134>  (431) 
0

>  <hydroph_interaction:MET:49>  (431) 
0

$$$$
CSSS00121685199
     RDKit          3D

 47 49  0  0  0  0  0  0  0  0999 V2000
   -6.8060    4.6870  -20.8560 O   0  0  0  0  0  0  0  0  0  0  0  0
   -6.1560    5.5000  -20.2060 C   0  0  0  0  0  0  0  0  0  0  0  0
   -6.2680    5.5960  -18.7360 C   0  0  0  0  0  0  0  0  0  0  0  0
   -7.5040    5.2960  -18.1640 C   0  0  0  0  0  0  0  0  0  0  0  0
   -8.6640    4.9550  -18.8990 C   0  0  0  0  0  0  0  0  0  0  0  0
   -9.9000    4.6580  -18.1280 C   0  0  0  0  0  0  0  0  0  0  0  0
   -9.8040    4.7470  -16.6020 C   0  0  0  0  0  0  0  0  0  0  0  0
   -8.6250    5.0930  -15.9820 C   0  0  0  0  0  0  0  0  0  0  0  0
   -7.5140    5.3560  -16.7720 C   0  0  0  0  0  0  0  0  0  0  0  0
   -5.1780    6.4720  -20.7050 N   0  0  0  0  0  0  0  0  0  0  0  0
   -5.3950    7.4790  -21.6540 C   0  0  0  0  0  0  0  0  0  0  0  0
   -5.9130    7.0370  -22.8550 C   0  0  0  0  0  0  0  0  0  0  0  0
   -6.1840    7.9350  -23.8750 C   0  0  0  0  0  0  0  0  0  0  0  0
   -5.9360    9.2960  -23.7050 C   0  0  0  0  0  0  0  0  0  0  0  0
   -5.4060    9.7560  -22.4940 C   0  0  0  0  0  0  0  0  0  0  0  0
   -5.1350    8.8470  -21.4680 C   0  0  0  0  0  0  0  0  0  0  0  0
   -6.2380   10.2360  -24.8070 C   0  0  0  0  0  0  0  0  0  0  0  0
   -6.1690   11.4500  -24.6430 O   0  0  0  0  0  0  0  0  0  0  0  0
   -6.5980    9.6280  -25.9970 N   0  0  0  0  0  0  0  0  0  0  0  0
   -7.4610   10.2690  -26.9740 C   0  0  0  0  0  0  0  0  0  0  0  0
   -8.3500    9.3520  -27.8050 C   0  0  0  0  0  0  0  0  0  0  0  0
   -8.4530    7.9880  -27.6150 C   0  0  0  0  0  0  0  0  0  0  0  0
   -9.7460    7.5850  -27.8990 C   0  0  0  0  0  0  0  0  0  0  0  0
  -10.6230    8.6590  -28.0060 C   0  0  0  0  0  0  0  0  0  0  0  0
   -9.7640    9.7760  -27.7200 O   0  0  0  0  0  0  0  0  0  0  0  0
   -5.9840    6.6240  -18.4680 H   0  0  0  0  0  0  0  0  0  0  0  0
   -5.5030    4.9720  -18.2540 H   0  0  0  0  0  0  0  0  0  0  0  0
   -8.6500    4.9110  -19.9830 H   0  0  0  0  0  0  0  0  0  0  0  0
  -10.8260    4.3890  -18.6220 H   0  0  0  0  0  0  0  0  0  0  0  0
  -10.6590    4.5360  -15.9820 H   0  0  0  0  0  0  0  0  0  0  0  0
   -8.5640    5.1550  -14.9010 H   0  0  0  0  0  0  0  0  0  0  0  0
   -6.5930    5.6230  -16.2590 H   0  0  0  0  0  0  0  0  0  0  0  0
   -4.2600    6.4550  -20.2800 H   0  0  0  0  0  0  0  0  0  0  0  0
   -6.1200    5.9790  -23.0190 H   0  0  0  0  0  0  0  0  0  0  0  0
   -6.5950    7.5550  -24.8060 H   0  0  0  0  0  0  0  0  0  0  0  0
   -5.2050   10.8180  -22.3460 H   0  0  0  0  0  0  0  0  0  0  0  0
   -4.7280    9.2330  -20.5400 H   0  0  0  0  0  0  0  0  0  0  0  0
   -6.0470    8.8590  -26.3510 H   0  0  0  0  0  0  0  0  0  0  0  0
   -6.7670   10.7740  -27.6560 H   0  0  0  0  0  0  0  0  0  0  0  0
   -8.0610   11.0440  -26.4950 H   0  0  0  0  0  0  0  0  0  0  0  0
   -8.0680    9.5130  -28.8530 H   0  0  0  0  0  0  0  0  0  0  0  0
   -7.7870    7.4570  -28.3030 H   0  0  0  0  0  0  0  0  0  0  0  0
   -8.1420    7.7030  -26.6050 H   0  0  0  0  0  0  0  0  0  0  0  0
   -9.7240    7.0790  -28.8700 H   0  0  0  0  0  0  0  0  0  0  0  0
  -10.1170    6.8440  -27.1900 H   0  0  0  0  0  0  0  0  0  0  0  0
  -11.0110    8.7630  -29.0250 H   0  0  0  0  0  0  0  0  0  0  0  0
  -11.4710    8.7300  -27.3300 H   0  0  0  0  0  0  0  0  0  0  0  0
  1  2  2  0
  2  3  1  0
  3  4  1  0
  4  5  2  0
  5  6  1  0
  6  7  2  0
  7  8  1  0
  8  9  2  0
  2 10  1  0
 10 11  1  0
 11 12  2  0
 12 13  1  0
 13 14  2  0
 14 15  1  0
 15 16  2  0
 14 17  1  0
 17 18  2  0
 17 19  1  0
 19 20  1  0
 20 21  1  0
 21 22  1  0
 22 23  1  0
 23 24  1  0
 24 25  1  0
  9  4  1  0
 16 11  1  0
 25 21  1  0
  3 26  1  0
  3 27  1  0
  5 28  1  0
  6 29  1  0
  7 30  1  0
  8 31  1  0
  9 32  1  0
 10 33  1  0
 12 34  1  0
 13 35  1  0
 15 36  1  0
 16 37  1  0
 19 38  1  0
 20 39  1  0
 20 40  1  0
 21 41  1  0
 22 42  1  0
 22 43  1  0
 23 44  1  0
 23 45  1  0
 24 46  1  0
 24 47  1  0
A    1
 O1 
A    2
 C1 
A    3
 C2 
A    4
 C3 
A    5
 C4 
A    6
 C5 
A    7
 C6 
A    8
 C7 
A    9
 C8 
A   10
 N1 
A   11
 C9 
A   12
 C10
A   13
 C11
A   14
 C12
A   15
 C13
A   16
 C14
A   17
 C15
A   18
 O2 
A   19
 N2 
A   20
 C16
A   21
 C17
A   22
 C18
A   23
 C19
A   24
 C20
A   25
 O3 
A   26
 H1 
A   27
 H2 
A   28
 H3 
A   29
 H4 
A   30
 H5 
A   31
 H6 
A   32
 H7 
A   33
 H8 
A   34
 H9 
A   35
 H10
A   36
 H11
A   37
 H12
A   38
 H13
A   39
 H14
A   40
 H15
A   41
 H16
A   42
 H17
A   43
 H18
A   44
 H19
A   45
 H20
A   46
 H21
A   47
 H22
M  END
>  <ref_pdb>  (432) 
x0051_0B

>  <ref_mols>  (432) 
x0846_1B,x0382_0B

>  <original SMILES>  (432) 
[H]c1c([H])c([H])c(C([H])([H])C(=O)N([H])c2c([H])c([H])c(C(=O)N([H])C([H])([H])C3([H])OC([H])([H])C([H])([H])C3([H])[H])c([H])c2[H])c([H])c1[H]

>  <index>  (432) 
448

>  <∆∆G>  (432) 
-8.026231

>  <∆G_bound>  (432) 
-7.073555

>  <∆G_unbound>  (432) 
0.952676

>  <comRMSD>  (432) 
0.923718

>  <N_constrained_atoms>  (432) 
24.0

>  <N_unconstrained_atoms>  (432) 
4.0

>  <runtime>  (432) 
60.809838

>  <LE>  (432) 
0.286651

>  <percent_hybrid>  (432) 
30.0

>  <dist>  (432) 
10.0

>  <ecfp4>  (432) 
0.2

>  <daylight>  (432) 
0.263393

>  <topodist>  (432) 
5.0

>  <mces>  (432) 
26.0

>  <tdn>  (432) 
1.0

>  <tup>  (432) 
1.0

>  <rdn>  (432) 
1.0

>  <rup>  (432) 
0.0

>  <ldn>  (432) 
2.0

>  <lup>  (432) 
0.0

>  <mut>  (432) 
4.0

>  <maj>  (432) 
4.0

>  <min>  (432) 
0.0

>  <hyb>  (432) 
1.0

>  <sub>  (432) 
2.0

>  <query_index>  (432) 
353.0

>  <max_hit_Tanimoto>  (432) 
0.18509

>  <largest_ring>  (432) 
0

>  <N_interactions_kept>  (432) 
1.0

>  <N_interactions_lost>  (432) 
0.5

>  <interaction_uniqueness_metric>  (432) 
0.062354

>  <ad_hoc_penalty>  (432) 
-20.535081

>  <N_rotatable_bonds>  (432) 
6

>  <N_HA>  (432) 
25

>  <cluster>  (432) 
5812

>  <N_interactions>  (432) 
4

>  <Enamine>  (432) 
1

>  <Mcule>  (432) 
0

>  <N_PAINS>  (432) 
0

>  <UFF_Gibbs>  (432) 
119.39463

>  <strain_per_HA>  (432) 
4.775785

>  <intxn_scored>  (432) 
7.5

>  <saltbridge:HIS:51>  (432) 
0

>  <pistack:HIS:51>  (432) 
0

>  <hydroph_interaction:HIS:51>  (432) 
0

>  <hbond:ALA:132>  (432) 
0

>  <hbond:SER:135>  (432) 
0

>  <hydroph_interaction:TYR:150>  (432) 
1

>  <pistack:TYR:161>  (432) 
1

>  <hydroph_interaction:TYR:161>  (432) 
1

>  <hydroph_interaction:ASP:83>  (432) 
0

>  <hbond:TYR:130>  (432) 
1

>  <hydroph_interaction:ALA:132>  (432) 
0

>  <hbond:HIS:51>  (432) 
0

>  <hbond:ASP:129>  (432) 
0

>  <hbond:TYR:150>  (432) 
0

>  <hbond:GLY:151>  (432) 
0

>  <hbond:TYR:161>  (432) 
0

>  <hydroph_interaction:TYR:130>  (432) 
0

>  <hydroph_interaction:PRO:131>  (432) 
0

>  <hydroph_interaction:ASP:129>  (432) 
0

>  <saltbridge:ASP:75>  (432) 
0

>  <saltbridge:ASP:83>  (432) 
0

>  <hbond:ASN:152>  (432) 
0

>  <hydroph_interaction:ASN:152>  (432) 
0

>  <halogenbond:TYR:150>  (432) 
0

>  <hbond:ASP:83>  (432) 
0

>  <hydroph_interaction:VAL:155>  (432) 
0

>  <pication:TYR:161>  (432) 
0

>  <hbond:PRO:131>  (432) 
0

>  <saltbridge:ASP:129>  (432) 
0

>  <hbond:THR:134>  (432) 
0

>  <pication:HIS:51>  (432) 
0

>  <hbond:SER:81>  (432) 
0

>  <hydroph_interaction:THR:134>  (432) 
0

>  <hydroph_interaction:MET:49>  (432) 
0

$$$$
CSSB00009817101
     RDKit          3D

 20 21  0  0  0  0  0  0  0  0999 V2000
   -5.4550    5.5100  -15.6490 N   0  0  0  0  0  0  0  0  0  0  0  0
   -6.0200    5.3850  -17.0140 C   0  0  0  0  0  0  0  0  0  0  0  0
   -4.9580    5.4630  -18.0990 C   0  0  0  0  0  0  0  0  0  0  0  0
   -3.1250    5.6800  -17.7070 Br  0  0  0  0  0  0  0  0  0  0  0  0
   -5.4010    5.3500  -19.5900 C   0  0  0  0  0  0  0  0  0  0  0  0
   -6.8810    5.1590  -19.8570 C   0  0  0  0  0  0  0  0  0  0  0  0
   -7.7840    5.0960  -18.6430 C   0  0  0  0  0  0  0  0  0  0  0  0
   -9.2180    4.8870  -19.0730 C   0  0  0  0  0  0  0  0  0  0  0  0
  -10.2360    4.8010  -17.9090 C   0  0  0  0  0  0  0  0  0  0  0  0
   -9.7180    4.9280  -16.5930 C   0  0  0  0  0  0  0  0  0  0  0  0
   -8.3680    5.1180  -16.3530 C   0  0  0  0  0  0  0  0  0  0  0  0
   -7.3850    5.2040  -17.3050 C   0  0  0  0  0  0  0  0  0  0  0  0
   -5.4020    6.4900  -15.3840 H   0  0  0  0  0  0  0  0  0  0  0  0
   -6.1170    5.0710  -15.0000 H   0  0  0  0  0  0  0  0  0  0  0  0
   -4.6930    5.4000  -20.4090 H   0  0  0  0  0  0  0  0  0  0  0  0
   -7.2540    5.0680  -20.8740 H   0  0  0  0  0  0  0  0  0  0  0  0
   -9.5290    4.8020  -20.1130 H   0  0  0  0  0  0  0  0  0  0  0  0
  -11.2940    4.6530  -18.0940 H   0  0  0  0  0  0  0  0  0  0  0  0
  -10.3830    4.8750  -15.7390 H   0  0  0  0  0  0  0  0  0  0  0  0
   -8.0710    5.2010  -15.3010 H   0  0  0  0  0  0  0  0  0  0  0  0
  1  2  1  0
  2  3  2  0
  3  4  1  0
  3  5  1  0
  5  6  2  0
  6  7  1  0
  7  8  2  0
  8  9  1  0
  9 10  2  0
 10 11  1  0
 11 12  2  0
 12  2  1  0
 12  7  1  0
  1 13  1  0
  1 14  1  0
  5 15  1  0
  6 16  1  0
  8 17  1  0
  9 18  1  0
 10 19  1  0
 11 20  1  0
A    1
 N1 
A    2
 C1 
A    3
 C2 
A    4
BR1 
A    5
 C3 
A    6
 C4 
A    7
 C5 
A    8
 C6 
A    9
 C7 
A   10
 C8 
A   11
 C9 
A   12
 C10
A   13
 H1 
A   14
 H2 
A   15
 H3 
A   16
 H4 
A   17
 H5 
A   18
 H6 
A   19
 H7 
A   20
 H8 
M  END
>  <ref_pdb>  (433) 
x0051_0B

>  <ref_mols>  (433) 
x0727_0B,x0800_0B

>  <original SMILES>  (433) 
[H]c1c([H])c([H])c2c(N([H])[H])c(Br)c([H])c([H])c2c1[H]

>  <index>  (433) 
2979

>  <∆∆G>  (433) 
-6.986123

>  <∆G_bound>  (433) 
-6.979451

>  <∆G_unbound>  (433) 
0.006672

>  <comRMSD>  (433) 
0.970509

>  <N_constrained_atoms>  (433) 
15.0

>  <N_unconstrained_atoms>  (433) 
0.0

>  <runtime>  (433) 
18.642507

>  <LE>  (433) 
0.465742

>  <percent_hybrid>  (433) 
43.0

>  <dist>  (433) 
2.0

>  <ecfp4>  (433) 
0.27027

>  <daylight>  (433) 
0.380952

>  <topodist>  (433) 
1.0

>  <mces>  (433) 
13.0

>  <tdn>  (433) 
1.0

>  <tup>  (433) 
0.0

>  <rdn>  (433) 
0.0

>  <rup>  (433) 
0.0

>  <ldn>  (433) 
0.0

>  <lup>  (433) 
0.0

>  <mut>  (433) 
1.0

>  <maj>  (433) 
1.0

>  <min>  (433) 
0.0

>  <hyb>  (433) 
0.0

>  <sub>  (433) 
1.0

>  <query_index>  (433) 
67.0

>  <max_hit_Tanimoto>  (433) 
0.23219

>  <largest_ring>  (433) 
6

>  <N_interactions_kept>  (433) 
0.0

>  <N_interactions_lost>  (433) 
4.0

>  <interaction_uniqueness_metric>  (433) 
0.044868

>  <ad_hoc_penalty>  (433) 
-0.238762

>  <N_rotatable_bonds>  (433) 
1

>  <N_HA>  (433) 
12

>  <cluster>  (433) 
3465

>  <N_interactions>  (433) 
5

>  <Enamine>  (433) 
1

>  <Mcule>  (433) 
0

>  <N_PAINS>  (433) 
0

>  <UFF_Gibbs>  (433) 
82.189793

>  <strain_per_HA>  (433) 
6.849149

>  <intxn_scored>  (433) 
7.5

>  <saltbridge:HIS:51>  (433) 
0

>  <pistack:HIS:51>  (433) 
0

>  <hydroph_interaction:HIS:51>  (433) 
0

>  <hbond:ALA:132>  (433) 
0

>  <hbond:SER:135>  (433) 
0

>  <hydroph_interaction:TYR:150>  (433) 
1

>  <pistack:TYR:161>  (433) 
1

>  <hydroph_interaction:TYR:161>  (433) 
3

>  <hydroph_interaction:ASP:83>  (433) 
0

>  <hbond:TYR:130>  (433) 
0

>  <hydroph_interaction:ALA:132>  (433) 
0

>  <hbond:HIS:51>  (433) 
0

>  <hbond:ASP:129>  (433) 
0

>  <hbond:TYR:150>  (433) 
0

>  <hbond:GLY:151>  (433) 
0

>  <hbond:TYR:161>  (433) 
0

>  <hydroph_interaction:TYR:130>  (433) 
0

>  <hydroph_interaction:PRO:131>  (433) 
0

>  <hydroph_interaction:ASP:129>  (433) 
0

>  <saltbridge:ASP:75>  (433) 
0

>  <saltbridge:ASP:83>  (433) 
0

>  <hbond:ASN:152>  (433) 
0

>  <hydroph_interaction:ASN:152>  (433) 
0

>  <halogenbond:TYR:150>  (433) 
0

>  <hbond:ASP:83>  (433) 
0

>  <hydroph_interaction:VAL:155>  (433) 
0

>  <pication:TYR:161>  (433) 
0

>  <hbond:PRO:131>  (433) 
0

>  <saltbridge:ASP:129>  (433) 
0

>  <hbond:THR:134>  (433) 
0

>  <pication:HIS:51>  (433) 
0

>  <hbond:SER:81>  (433) 
0

>  <hydroph_interaction:THR:134>  (433) 
0

>  <hydroph_interaction:MET:49>  (433) 
0

$$$$
PV-003007666075
     RDKit          3D

 26 26  0  0  0  0  0  0  0  0999 V2000
  -11.0920    5.0680  -18.6940 C   0  0  0  0  0  0  0  0  0  0  0  0
   -9.6410    5.0170  -19.0310 C   0  0  0  0  0  0  0  0  0  0  0  0
   -8.6670    5.1400  -17.8590 C   0  0  0  0  0  0  0  0  0  0  0  0
   -9.1170    5.2300  -16.4620 C   0  0  0  0  0  0  0  0  0  0  0  0
   -7.2510    5.2050  -18.0940 C   0  0  0  0  0  0  0  0  0  0  0  0
   -6.3340    5.1380  -17.0850 C   0  0  0  0  0  0  0  0  0  0  0  0
   -6.7430    5.0080  -15.7780 O   0  0  0  0  0  0  0  0  0  0  0  0
   -4.9720    5.2000  -17.3670 C   0  0  0  0  0  0  0  0  0  0  0  0
   -4.0050    5.1230  -16.3740 C   0  0  0  0  0  0  0  0  0  0  0  0
   -4.5280    5.3410  -18.6920 C   0  0  0  0  0  0  0  0  0  0  0  0
   -5.4820    5.4120  -19.6910 C   0  0  0  0  0  0  0  0  0  0  0  0
   -6.8520    5.3450  -19.4200 C   0  0  0  0  0  0  0  0  0  0  0  0
  -11.4950    4.1010  -18.4470 H   0  0  0  0  0  0  0  0  0  0  0  0
  -11.6600    5.4930  -19.5160 H   0  0  0  0  0  0  0  0  0  0  0  0
  -11.1980    5.7100  -17.8510 H   0  0  0  0  0  0  0  0  0  0  0  0
   -9.3030    4.9460  -20.0680 H   0  0  0  0  0  0  0  0  0  0  0  0
  -10.1600    5.0320  -16.2470 H   0  0  0  0  0  0  0  0  0  0  0  0
   -8.9120    6.2260  -16.0580 H   0  0  0  0  0  0  0  0  0  0  0  0
   -8.5390    4.5270  -15.8540 H   0  0  0  0  0  0  0  0  0  0  0  0
   -6.8060    4.0600  -15.5750 H   0  0  0  0  0  0  0  0  0  0  0  0
   -3.1410    4.5110  -16.6230 H   0  0  0  0  0  0  0  0  0  0  0  0
   -4.3720    4.6550  -15.4660 H   0  0  0  0  0  0  0  0  0  0  0  0
   -3.5910    6.0900  -16.1170 H   0  0  0  0  0  0  0  0  0  0  0  0
   -3.4690    5.3930  -18.9380 H   0  0  0  0  0  0  0  0  0  0  0  0
   -5.0360    5.5220  -20.6860 H   0  0  0  0  0  0  0  0  0  0  0  0
   -7.5850    5.4000  -20.2340 H   0  0  0  0  0  0  0  0  0  0  0  0
  1  2  1  0
  2  3  2  3
  3  4  1  0
  3  5  1  0
  5  6  2  0
  6  7  1  0
  6  8  1  0
  8  9  1  0
  8 10  2  0
 10 11  1  0
 11 12  2  0
 12  5  1  0
  1 13  1  0
  1 14  1  0
  1 15  1  0
  2 16  1  0
  4 17  1  0
  4 18  1  0
  4 19  1  0
  7 20  1  0
  9 21  1  0
  9 22  1  0
  9 23  1  0
 10 24  1  0
 11 25  1  0
 12 26  1  0
A    1
 C1 
A    2
 C2 
A    3
 C3 
A    4
 C4 
A    5
 C5 
A    6
 C6 
A    7
 O1 
A    8
 C7 
A    9
 C8 
A   10
 C9 
A   11
 C10
A   12
 C11
A   13
 H1 
A   14
 H2 
A   15
 H3 
A   16
 H4 
A   17
 H5 
A   18
 H6 
A   19
 H7 
A   20
 H8 
A   21
 H9 
A   22
 H10
A   23
 H11
A   24
 H12
A   25
 H13
A   26
 H14
M  END
>  <ref_pdb>  (434) 
x0051_0B

>  <ref_mols>  (434) 
x0425_0B,x0435_0B

>  <original SMILES>  (434) 
[H]Oc1c(C(=C([H])C([H])([H])[H])C([H])([H])[H])c([H])c([H])c([H])c1C([H])([H])[H]

>  <index>  (434) 
2465

>  <∆∆G>  (434) 
-7.239412

>  <∆G_bound>  (434) 
-7.450196

>  <∆G_unbound>  (434) 
-0.210784

>  <comRMSD>  (434) 
0.871226

>  <N_constrained_atoms>  (434) 
13.0

>  <N_unconstrained_atoms>  (434) 
1.0

>  <runtime>  (434) 
28.430654

>  <LE>  (434) 
0.517101

>  <percent_hybrid>  (434) 
40.0

>  <dist>  (434) 
4.0

>  <ecfp4>  (434) 
0.204082

>  <daylight>  (434) 
0.138298

>  <topodist>  (434) 
2.0

>  <mces>  (434) 
12.0

>  <tdn>  (434) 
1.0

>  <tup>  (434) 
0.0

>  <rdn>  (434) 
1.0

>  <rup>  (434) 
0.0

>  <ldn>  (434) 
0.0

>  <lup>  (434) 
0.0

>  <mut>  (434) 
1.0

>  <maj>  (434) 
1.0

>  <min>  (434) 
0.0

>  <hyb>  (434) 
1.0

>  <sub>  (434) 
1.0

>  <query_index>  (434) 
107.0

>  <max_hit_Tanimoto>  (434) 
0.107383

>  <largest_ring>  (434) 
6

>  <N_interactions_kept>  (434) 
1.0

>  <N_interactions_lost>  (434) 
2.5

>  <interaction_uniqueness_metric>  (434) 
0.044868

>  <ad_hoc_penalty>  (434) 
-0.243897

>  <N_rotatable_bonds>  (434) 
5

>  <N_HA>  (434) 
12

>  <cluster>  (434) 
3951

>  <N_interactions>  (434) 
5

>  <Enamine>  (434) 
1

>  <Mcule>  (434) 
0

>  <N_PAINS>  (434) 
0

>  <UFF_Gibbs>  (434) 
114.948885

>  <strain_per_HA>  (434) 
9.579074

>  <intxn_scored>  (434) 
7.5

>  <saltbridge:HIS:51>  (434) 
0

>  <pistack:HIS:51>  (434) 
0

>  <hydroph_interaction:HIS:51>  (434) 
0

>  <hbond:ALA:132>  (434) 
0

>  <hbond:SER:135>  (434) 
0

>  <hydroph_interaction:TYR:150>  (434) 
1

>  <pistack:TYR:161>  (434) 
1

>  <hydroph_interaction:TYR:161>  (434) 
3

>  <hydroph_interaction:ASP:83>  (434) 
0

>  <hbond:TYR:130>  (434) 
0

>  <hydroph_interaction:ALA:132>  (434) 
0

>  <hbond:HIS:51>  (434) 
0

>  <hbond:ASP:129>  (434) 
0

>  <hbond:TYR:150>  (434) 
0

>  <hbond:GLY:151>  (434) 
0

>  <hbond:TYR:161>  (434) 
0

>  <hydroph_interaction:TYR:130>  (434) 
0

>  <hydroph_interaction:PRO:131>  (434) 
0

>  <hydroph_interaction:ASP:129>  (434) 
0

>  <saltbridge:ASP:75>  (434) 
0

>  <saltbridge:ASP:83>  (434) 
0

>  <hbond:ASN:152>  (434) 
0

>  <hydroph_interaction:ASN:152>  (434) 
0

>  <halogenbond:TYR:150>  (434) 
0

>  <hbond:ASP:83>  (434) 
0

>  <hydroph_interaction:VAL:155>  (434) 
0

>  <pication:TYR:161>  (434) 
0

>  <hbond:PRO:131>  (434) 
0

>  <saltbridge:ASP:129>  (434) 
0

>  <hbond:THR:134>  (434) 
0

>  <pication:HIS:51>  (434) 
0

>  <hbond:SER:81>  (434) 
0

>  <hydroph_interaction:THR:134>  (434) 
0

>  <hydroph_interaction:MET:49>  (434) 
0

$$$$
Z2763624602
     RDKit          3D

 32 33  0  0  0  0  0  0  0  0999 V2000
   -3.5660    4.4620  -15.2130 C   0  0  0  0  0  0  0  0  0  0  0  0
   -3.9360    5.2290  -16.4740 C   0  0  0  0  0  0  0  0  0  0  0  0
   -5.1690    5.7590  -16.3840 N   0  0  0  0  0  0  0  0  0  0  0  0
   -5.2850    7.0040  -15.7710 C   0  0  0  0  0  0  0  0  0  0  0  0
   -4.2500    7.3010  -14.6660 C   0  0  0  0  0  0  0  0  0  0  0  0
   -4.1610    6.2530  -13.7490 N   0  0  0  0  0  0  0  0  0  0  0  0
   -5.9030    5.5910  -17.5740 C   0  0  0  0  0  0  0  0  0  0  0  0
   -5.1370    5.7170  -18.6830 N   0  0  0  0  0  0  0  0  0  0  0  0
   -5.7230    5.5630  -19.8580 C   0  0  0  0  0  0  0  0  0  0  0  0
   -7.0010    5.2950  -20.0460 N   0  0  0  0  0  0  0  0  0  0  0  0
   -7.7670    5.1700  -18.9670 C   0  0  0  0  0  0  0  0  0  0  0  0
   -9.1130    4.8830  -19.2430 C   0  0  0  0  0  0  0  0  0  0  0  0
  -10.0160    4.7270  -18.2140 C   0  0  0  0  0  0  0  0  0  0  0  0
   -9.5950    4.8580  -16.9070 C   0  0  0  0  0  0  0  0  0  0  0  0
   -8.2750    5.1440  -16.6180 C   0  0  0  0  0  0  0  0  0  0  0  0
   -7.9800    5.2820  -14.5350 I   0  0  0  0  0  0  0  0  0  0  0  0
   -7.3160    5.3050  -17.6290 C   0  0  0  0  0  0  0  0  0  0  0  0
   -2.8230    5.0120  -14.6300 H   0  0  0  0  0  0  0  0  0  0  0  0
   -3.1100    3.5020  -15.4740 H   0  0  0  0  0  0  0  0  0  0  0  0
   -4.4430    4.3090  -14.5750 H   0  0  0  0  0  0  0  0  0  0  0  0
   -3.9350    4.5230  -17.3110 H   0  0  0  0  0  0  0  0  0  0  0  0
   -3.1760    5.9900  -16.6710 H   0  0  0  0  0  0  0  0  0  0  0  0
   -5.2970    7.8080  -16.5120 H   0  0  0  0  0  0  0  0  0  0  0  0
   -6.2630    7.0060  -15.2790 H   0  0  0  0  0  0  0  0  0  0  0  0
   -3.2660    7.5030  -15.1020 H   0  0  0  0  0  0  0  0  0  0  0  0
   -4.5710    8.2020  -14.1300 H   0  0  0  0  0  0  0  0  0  0  0  0
   -4.2530    6.6810  -12.8220 H   0  0  0  0  0  0  0  0  0  0  0  0
   -4.9860    5.6610  -13.8480 H   0  0  0  0  0  0  0  0  0  0  0  0
   -5.0970    5.6650  -20.7500 H   0  0  0  0  0  0  0  0  0  0  0  0
   -9.4580    4.7800  -20.2710 H   0  0  0  0  0  0  0  0  0  0  0  0
  -11.0580    4.5060  -18.4330 H   0  0  0  0  0  0  0  0  0  0  0  0
  -10.3030    4.7360  -16.0930 H   0  0  0  0  0  0  0  0  0  0  0  0
  1  2  1  0
  2  3  1  0
  3  4  1  0
  4  5  1  0
  5  6  1  0
  3  7  1  0
  7  8  2  0
  8  9  1  0
  9 10  2  0
 10 11  1  0
 11 12  2  0
 12 13  1  0
 13 14  2  0
 14 15  1  0
 15 16  1  0
 15 17  2  0
 17  7  1  0
 17 11  1  0
  1 18  1  0
  1 19  1  0
  1 20  1  0
  2 21  1  0
  2 22  1  0
  4 23  1  0
  4 24  1  0
  5 25  1  0
  5 26  1  0
  6 27  1  0
  6 28  1  0
  9 29  1  0
 12 30  1  0
 13 31  1  0
 14 32  1  0
A    1
 C1 
A    2
 C2 
A    3
 N1 
A    4
 C3 
A    5
 C4 
A    6
 N2 
A    7
 C5 
A    8
 N3 
A    9
 C6 
A   10
 N4 
A   11
 C7 
A   12
 C8 
A   13
 C9 
A   14
 C10
A   15
 C11
A   16
 I1 
A   17
 C12
A   18
 H1 
A   19
 H2 
A   20
 H3 
A   21
 H4 
A   22
 H5 
A   23
 H6 
A   24
 H7 
A   25
 H8 
A   26
 H9 
A   27
 H10
A   28
 H11
A   29
 H12
A   30
 H13
A   31
 H14
A   32
 H15
M  END
>  <ref_pdb>  (435) 
x0051_0B

>  <ref_mols>  (435) 
x0429_0B,x0693_0B

>  <original SMILES>  (435) 
[H]c1nc(N(C([H])([H])C([H])([H])[H])C([H])([H])C([H])([H])N([H])[H])c2c(I)c([H])c([H])c([H])c2n1

>  <index>  (435) 
2296

>  <∆∆G>  (435) 
-6.249299

>  <∆G_bound>  (435) 
-5.464081

>  <∆G_unbound>  (435) 
0.785218

>  <comRMSD>  (435) 
0.571148

>  <N_constrained_atoms>  (435) 
18.0

>  <N_unconstrained_atoms>  (435) 
0.0

>  <runtime>  (435) 
23.0262

>  <LE>  (435) 
0.347183

>  <percent_hybrid>  (435) 
20.0

>  <dist>  (435) 
3.0

>  <ecfp4>  (435) 
0.280702

>  <daylight>  (435) 
0.495868

>  <topodist>  (435) 
1.0

>  <mces>  (435) 
18.0

>  <tdn>  (435) 
0.0

>  <tup>  (435) 
0.0

>  <rdn>  (435) 
1.0

>  <rup>  (435) 
0.0

>  <ldn>  (435) 
0.0

>  <lup>  (435) 
0.0

>  <mut>  (435) 
2.0

>  <maj>  (435) 
2.0

>  <min>  (435) 
0.0

>  <hyb>  (435) 
0.0

>  <sub>  (435) 
2.0

>  <query_index>  (435) 
179.0

>  <max_hit_Tanimoto>  (435) 
0.420986

>  <largest_ring>  (435) 
6

>  <N_interactions_kept>  (435) 
2.5

>  <N_interactions_lost>  (435) 
2.0

>  <interaction_uniqueness_metric>  (435) 
0.044868

>  <ad_hoc_penalty>  (435) 
-1.991125

>  <N_rotatable_bonds>  (435) 
6

>  <N_HA>  (435) 
17

>  <cluster>  (435) 
4109

>  <N_interactions>  (435) 
5

>  <Enamine>  (435) 
1

>  <Mcule>  (435) 
0

>  <N_PAINS>  (435) 
0

>  <UFF_Gibbs>  (435) 
147.476881

>  <strain_per_HA>  (435) 
8.675111

>  <intxn_scored>  (435) 
7.5

>  <saltbridge:HIS:51>  (435) 
0

>  <pistack:HIS:51>  (435) 
0

>  <hydroph_interaction:HIS:51>  (435) 
0

>  <hbond:ALA:132>  (435) 
0

>  <hbond:SER:135>  (435) 
0

>  <hydroph_interaction:TYR:150>  (435) 
1

>  <pistack:TYR:161>  (435) 
1

>  <hydroph_interaction:TYR:161>  (435) 
3

>  <hydroph_interaction:ASP:83>  (435) 
0

>  <hbond:TYR:130>  (435) 
0

>  <hydroph_interaction:ALA:132>  (435) 
0

>  <hbond:HIS:51>  (435) 
0

>  <hbond:ASP:129>  (435) 
0

>  <hbond:TYR:150>  (435) 
0

>  <hbond:GLY:151>  (435) 
0

>  <hbond:TYR:161>  (435) 
0

>  <hydroph_interaction:TYR:130>  (435) 
0

>  <hydroph_interaction:PRO:131>  (435) 
0

>  <hydroph_interaction:ASP:129>  (435) 
0

>  <saltbridge:ASP:75>  (435) 
0

>  <saltbridge:ASP:83>  (435) 
0

>  <hbond:ASN:152>  (435) 
0

>  <hydroph_interaction:ASN:152>  (435) 
0

>  <halogenbond:TYR:150>  (435) 
0

>  <hbond:ASP:83>  (435) 
0

>  <hydroph_interaction:VAL:155>  (435) 
0

>  <pication:TYR:161>  (435) 
0

>  <hbond:PRO:131>  (435) 
0

>  <saltbridge:ASP:129>  (435) 
0

>  <hbond:THR:134>  (435) 
0

>  <pication:HIS:51>  (435) 
0

>  <hbond:SER:81>  (435) 
0

>  <hydroph_interaction:THR:134>  (435) 
0

>  <hydroph_interaction:MET:49>  (435) 
0

$$$$
Z4833516010
     RDKit          3D

 49 52  0  0  0  0  0  0  0  0999 V2000
   -4.6070    5.4550  -20.0020 C   0  0  0  0  0  0  0  0  0  0  0  0
   -5.9030    5.3220  -19.3200 C   0  0  0  0  0  0  0  0  0  0  0  0
   -7.1390    4.9860  -19.7870 C   0  0  0  0  0  0  0  0  0  0  0  0
   -8.0450    4.9850  -18.8320 C   0  0  0  0  0  0  0  0  0  0  0  0
   -9.3300    4.7120  -18.9240 C   0  0  0  0  0  0  0  0  0  0  0  0
  -10.1160    4.7800  -17.7190 C   0  0  0  0  0  0  0  0  0  0  0  0
   -9.5150    5.1310  -16.4890 C   0  0  0  0  0  0  0  0  0  0  0  0
   -8.1080    5.4280  -16.4290 C   0  0  0  0  0  0  0  0  0  0  0  0
   -7.4060    5.8230  -15.1320 C   0  0  0  0  0  0  0  0  0  0  0  0
   -7.8330    7.1500  -14.6770 N   0  0  0  0  0  0  0  0  0  0  0  0
   -8.9400    7.2300  -13.9410 C   0  0  0  0  0  0  0  0  0  0  0  0
   -9.9010    7.8850  -14.2680 O   0  0  0  0  0  0  0  0  0  0  0  0
   -8.9160    6.4920  -12.7630 C   0  0  0  0  0  0  0  0  0  0  0  0
   -8.7410    7.1350  -11.5280 C   0  0  0  0  0  0  0  0  0  0  0  0
   -8.6990    6.4550  -10.3060 C   0  0  0  0  0  0  0  0  0  0  0  0
   -8.8450    4.9330  -10.2690 C   0  0  0  0  0  0  0  0  0  0  0  0
   -8.8120    4.2020   -9.1040 N   0  0  0  0  0  0  0  0  0  0  0  0
   -9.0590    2.7500   -9.1430 C   0  0  0  0  0  0  0  0  0  0  0  0
   -9.6600    2.3510   -7.9510 C   0  0  0  0  0  0  0  0  0  0  0  0
   -8.9350    2.7780   -6.7970 O   0  0  0  0  0  0  0  0  0  0  0  0
   -8.8220    4.2020   -6.7360 C   0  0  0  0  0  0  0  0  0  0  0  0
   -8.2010    4.7420   -7.8720 C   0  0  0  0  0  0  0  0  0  0  0  0
   -9.0200    4.3240  -11.5110 C   0  0  0  0  0  0  0  0  0  0  0  0
   -9.0620    5.1090  -12.8160 C   0  0  0  0  0  0  0  0  0  0  0  0
   -7.4240    5.3320  -17.6450 C   0  0  0  0  0  0  0  0  0  0  0  0
   -6.0870    5.5360  -17.9710 N   0  0  0  0  0  0  0  0  0  0  0  0
   -4.6150    4.9030  -20.9470 H   0  0  0  0  0  0  0  0  0  0  0  0
   -4.3840    6.5030  -20.2240 H   0  0  0  0  0  0  0  0  0  0  0  0
   -3.8060    5.0640  -19.3680 H   0  0  0  0  0  0  0  0  0  0  0  0
   -7.4610    4.7340  -20.7880 H   0  0  0  0  0  0  0  0  0  0  0  0
   -9.7430    4.4520  -19.8930 H   0  0  0  0  0  0  0  0  0  0  0  0
  -11.1710    4.5580  -17.7980 H   0  0  0  0  0  0  0  0  0  0  0  0
  -10.0900    5.1870  -15.5750 H   0  0  0  0  0  0  0  0  0  0  0  0
   -6.3200    5.8590  -15.1580 H   0  0  0  0  0  0  0  0  0  0  0  0
   -7.6420    5.1180  -14.3490 H   0  0  0  0  0  0  0  0  0  0  0  0
   -7.6050    7.9280  -15.2810 H   0  0  0  0  0  0  0  0  0  0  0  0
   -8.6400    8.2230  -11.6130 H   0  0  0  0  0  0  0  0  0  0  0  0
   -8.5610    7.0380   -9.3970 H   0  0  0  0  0  0  0  0  0  0  0  0
   -9.7380    2.4830   -9.9610 H   0  0  0  0  0  0  0  0  0  0  0  0
   -8.1060    2.2290   -9.2840 H   0  0  0  0  0  0  0  0  0  0  0  0
   -9.7730    1.2670   -7.9140 H   0  0  0  0  0  0  0  0  0  0  0  0
  -10.6650    2.7820   -7.9010 H   0  0  0  0  0  0  0  0  0  0  0  0
   -9.8420    4.5920   -6.6640 H   0  0  0  0  0  0  0  0  0  0  0  0
   -8.3500    4.4250   -5.7840 H   0  0  0  0  0  0  0  0  0  0  0  0
   -8.1820    5.8280   -7.9670 H   0  0  0  0  0  0  0  0  0  0  0  0
   -7.1530    4.4230   -7.8170 H   0  0  0  0  0  0  0  0  0  0  0  0
   -9.1420    3.2450  -11.6640 H   0  0  0  0  0  0  0  0  0  0  0  0
   -9.2020    4.5760  -13.7570 H   0  0  0  0  0  0  0  0  0  0  0  0
   -5.3720    5.8030  -17.3060 H   0  0  0  0  0  0  0  0  0  0  0  0
  1  2  1  0
  2  3  2  0
  3  4  1  0
  4  5  2  0
  5  6  1  0
  6  7  2  0
  7  8  1  0
  8  9  1  0
  9 10  1  0
 10 11  1  0
 11 12  2  0
 11 13  1  0
 13 14  2  0
 14 15  1  0
 15 16  2  0
 16 17  1  0
 17 18  1  0
 18 19  1  0
 19 20  1  0
 20 21  1  0
 21 22  1  0
 16 23  1  0
 23 24  2  0
  8 25  2  0
 25 26  1  0
 26  2  1  0
 25  4  1  0
 24 13  1  0
 22 17  1  0
  1 27  1  0
  1 28  1  0
  1 29  1  0
  3 30  1  0
  5 31  1  0
  6 32  1  0
  7 33  1  0
  9 34  1  0
  9 35  1  0
 10 36  1  0
 14 37  1  0
 15 38  1  0
 18 39  1  0
 18 40  1  0
 19 41  1  0
 19 42  1  0
 21 43  1  0
 21 44  1  0
 22 45  1  0
 22 46  1  0
 23 47  1  0
 24 48  1  0
 26 49  1  0
A    1
 C1 
A    2
 C2 
A    3
 C3 
A    4
 C4 
A    5
 C5 
A    6
 C6 
A    7
 C7 
A    8
 C8 
A    9
 C9 
A   10
 N1 
A   11
 C10
A   12
 O1 
A   13
 C11
A   14
 C12
A   15
 C13
A   16
 C14
A   17
 N2 
A   18
 C15
A   19
 C16
A   20
 O2 
A   21
 C17
A   22
 C18
A   23
 C19
A   24
 C20
A   25
 C21
A   26
 N3 
A   27
 H1 
A   28
 H2 
A   29
 H3 
A   30
 H4 
A   31
 H5 
A   32
 H6 
A   33
 H7 
A   34
 H8 
A   35
 H9 
A   36
 H10
A   37
 H11
A   38
 H12
A   39
 H13
A   40
 H14
A   41
 H15
A   42
 H16
A   43
 H17
A   44
 H18
A   45
 H19
A   46
 H20
A   47
 H21
A   48
 H22
A   49
 H23
M  END
>  <ref_pdb>  (436) 
x0051_0B

>  <ref_mols>  (436) 
x0443_0B,x0404_0B

>  <original SMILES>  (436) 
[H]c1c([H])c(N2C([H])([H])C([H])([H])OC([H])([H])C2([H])[H])c([H])c([H])c1C(=O)N([H])C([H])([H])c1c([H])c([H])c([H])c2c([H])c(C([H])([H])[H])n([H])c12

>  <index>  (436) 
1589

>  <∆∆G>  (436) 
-9.444586

>  <∆G_bound>  (436) 
-8.819518

>  <∆G_unbound>  (436) 
0.625068

>  <comRMSD>  (436) 
0.624742

>  <N_constrained_atoms>  (436) 
26.0

>  <N_unconstrained_atoms>  (436) 
1.0

>  <runtime>  (436) 
91.59431

>  <LE>  (436) 
0.349799

>  <percent_hybrid>  (436) 
43.0

>  <dist>  (436) 
8.0

>  <ecfp4>  (436) 
0.204545

>  <daylight>  (436) 
0.204633

>  <topodist>  (436) 
2.0

>  <mces>  (436) 
29.0

>  <tdn>  (436) 
2.0

>  <tup>  (436) 
0.0

>  <rdn>  (436) 
0.0

>  <rup>  (436) 
0.0

>  <ldn>  (436) 
0.0

>  <lup>  (436) 
0.0

>  <mut>  (436) 
5.0

>  <maj>  (436) 
5.0

>  <min>  (436) 
0.0

>  <hyb>  (436) 
1.0

>  <sub>  (436) 
1.0

>  <query_index>  (436) 
13.0

>  <max_hit_Tanimoto>  (436) 
0.211285

>  <largest_ring>  (436) 
6

>  <N_interactions_kept>  (436) 
1.5

>  <N_interactions_lost>  (436) 
3.0

>  <interaction_uniqueness_metric>  (436) 
0.116343

>  <ad_hoc_penalty>  (436) 
-10.665237

>  <N_rotatable_bonds>  (436) 
5

>  <N_HA>  (436) 
26

>  <cluster>  (436) 
4758

>  <N_interactions>  (436) 
5

>  <Enamine>  (436) 
1

>  <Mcule>  (436) 
0

>  <N_PAINS>  (436) 
0

>  <UFF_Gibbs>  (436) 
127.57314

>  <strain_per_HA>  (436) 
4.906659

>  <intxn_scored>  (436) 
7.5

>  <saltbridge:HIS:51>  (436) 
0

>  <pistack:HIS:51>  (436) 
1

>  <hydroph_interaction:HIS:51>  (436) 
1

>  <hbond:ALA:132>  (436) 
0

>  <hbond:SER:135>  (436) 
0

>  <hydroph_interaction:TYR:150>  (436) 
1

>  <pistack:TYR:161>  (436) 
1

>  <hydroph_interaction:TYR:161>  (436) 
0

>  <hydroph_interaction:ASP:83>  (436) 
0

>  <hbond:TYR:130>  (436) 
0

>  <hydroph_interaction:ALA:132>  (436) 
1

>  <hbond:HIS:51>  (436) 
0

>  <hbond:ASP:129>  (436) 
0

>  <hbond:TYR:150>  (436) 
0

>  <hbond:GLY:151>  (436) 
0

>  <hbond:TYR:161>  (436) 
0

>  <hydroph_interaction:TYR:130>  (436) 
0

>  <hydroph_interaction:PRO:131>  (436) 
0

>  <hydroph_interaction:ASP:129>  (436) 
0

>  <saltbridge:ASP:75>  (436) 
0

>  <saltbridge:ASP:83>  (436) 
0

>  <hbond:ASN:152>  (436) 
0

>  <hydroph_interaction:ASN:152>  (436) 
0

>  <halogenbond:TYR:150>  (436) 
0

>  <hbond:ASP:83>  (436) 
0

>  <hydroph_interaction:VAL:155>  (436) 
0

>  <pication:TYR:161>  (436) 
0

>  <hbond:PRO:131>  (436) 
0

>  <saltbridge:ASP:129>  (436) 
0

>  <hbond:THR:134>  (436) 
0

>  <pication:HIS:51>  (436) 
0

>  <hbond:SER:81>  (436) 
0

>  <hydroph_interaction:THR:134>  (436) 
0

>  <hydroph_interaction:MET:49>  (436) 
0

$$$$
Z2480340197
     RDKit          3D

 49 51  0  0  0  0  0  0  0  0999 V2000
   -2.4660    5.2190  -21.9780 C   0  0  0  0  0  0  0  0  0  0  0  0
   -3.8990    5.0340  -21.7850 N   0  0  0  0  0  0  0  0  0  0  0  0
   -4.3020    5.2690  -20.4200 C   0  0  0  0  0  0  0  0  0  0  0  0
   -3.3570    5.1340  -19.3600 O   0  0  0  0  0  0  0  0  0  0  0  0
   -5.6130    5.5990  -20.1560 C   0  0  0  0  0  0  0  0  0  0  0  0
   -5.8330    5.6860  -18.7460 O   0  0  0  0  0  0  0  0  0  0  0  0
   -7.1030    5.3930  -18.3310 C   0  0  0  0  0  0  0  0  0  0  0  0
   -8.1270    4.8860  -19.1970 C   0  0  0  0  0  0  0  0  0  0  0  0
   -9.4010    4.5870  -18.8100 C   0  0  0  0  0  0  0  0  0  0  0  0
   -9.7530    4.7820  -17.4820 C   0  0  0  0  0  0  0  0  0  0  0  0
   -8.7140    5.3260  -16.4810 C   0  0  0  0  0  0  0  0  0  0  0  0
   -9.0790    5.5270  -15.1200 C   0  0  0  0  0  0  0  0  0  0  0  0
   -8.1780    6.4190  -14.2800 C   0  0  0  0  0  0  0  0  0  0  0  0
   -7.1900    7.0220  -14.6840 O   0  0  0  0  0  0  0  0  0  0  0  0
   -8.6330    6.4710  -12.9720 O   0  0  0  0  0  0  0  0  0  0  0  0
   -8.7120    5.2290  -12.2310 C   0  0  0  0  0  0  0  0  0  0  0  0
   -8.7820    5.4850  -10.7050 C   0  0  0  0  0  0  0  0  0  0  0  0
   -8.9870    4.3750   -9.8960 C   0  0  0  0  0  0  0  0  0  0  0  0
   -9.1410    3.0480  -10.2610 C   0  0  0  0  0  0  0  0  0  0  0  0
   -9.4140    2.1110   -9.2550 C   0  0  0  0  0  0  0  0  0  0  0  0
   -9.7360    2.6710   -7.8280 C   0  0  0  0  0  0  0  0  0  0  0  0
   -9.2130    3.9440   -7.4890 C   0  0  0  0  0  0  0  0  0  0  0  0
   -9.0140    4.8180   -8.6290 N   0  0  0  0  0  0  0  0  0  0  0  0
   -8.8340    6.1640   -8.5250 N   0  0  0  0  0  0  0  0  0  0  0  0
   -8.6950    6.5780   -9.8060 C   0  0  0  0  0  0  0  0  0  0  0  0
   -7.4140    5.6070  -16.9730 C   0  0  0  0  0  0  0  0  0  0  0  0
   -2.2950    5.5840  -22.9970 H   0  0  0  0  0  0  0  0  0  0  0  0
   -1.9710    4.2440  -21.8810 H   0  0  0  0  0  0  0  0  0  0  0  0
   -2.0010    5.9160  -21.2750 H   0  0  0  0  0  0  0  0  0  0  0  0
   -4.3050    4.1890  -22.2380 H   0  0  0  0  0  0  0  0  0  0  0  0
   -6.3640    4.8990  -20.5020 H   0  0  0  0  0  0  0  0  0  0  0  0
   -5.8570    6.5470  -20.6490 H   0  0  0  0  0  0  0  0  0  0  0  0
   -7.9140    4.7120  -20.2560 H   0  0  0  0  0  0  0  0  0  0  0  0
  -10.1020    4.2160  -19.5160 H   0  0  0  0  0  0  0  0  0  0  0  0
  -10.7440    4.5580  -17.1410 H   0  0  0  0  0  0  0  0  0  0  0  0
  -10.0140    6.0970  -15.1970 H   0  0  0  0  0  0  0  0  0  0  0  0
   -9.4000    4.6240  -14.6030 H   0  0  0  0  0  0  0  0  0  0  0  0
   -7.7670    4.7340  -12.4360 H   0  0  0  0  0  0  0  0  0  0  0  0
   -9.4700    4.5770  -12.6650 H   0  0  0  0  0  0  0  0  0  0  0  0
   -9.8940    2.9410  -11.0490 H   0  0  0  0  0  0  0  0  0  0  0  0
   -8.1900    2.7790  -10.7380 H   0  0  0  0  0  0  0  0  0  0  0  0
   -8.5840    1.4080   -9.1700 H   0  0  0  0  0  0  0  0  0  0  0  0
  -10.2440    1.4830   -9.5750 H   0  0  0  0  0  0  0  0  0  0  0  0
  -10.8210    2.6820   -7.7010 H   0  0  0  0  0  0  0  0  0  0  0  0
   -9.3710    1.9540   -7.0890 H   0  0  0  0  0  0  0  0  0  0  0  0
   -8.2360    3.8390   -7.0090 H   0  0  0  0  0  0  0  0  0  0  0  0
   -9.8920    4.4470   -6.7910 H   0  0  0  0  0  0  0  0  0  0  0  0
   -8.5380    7.6320  -10.0190 H   0  0  0  0  0  0  0  0  0  0  0  0
   -6.6450    5.9920  -16.3100 H   0  0  0  0  0  0  0  0  0  0  0  0
  1  2  1  0
  2  3  1  0
  3  4  2  0
  3  5  1  0
  5  6  1  0
  6  7  1  0
  7  8  2  0
  8  9  1  0
  9 10  2  0
 10 11  1  0
 11 12  1  0
 12 13  1  0
 13 14  2  0
 13 15  1  0
 15 16  1  0
 16 17  1  0
 17 18  2  0
 18 19  1  0
 19 20  1  0
 20 21  1  0
 21 22  1  0
 22 23  1  0
 23 24  1  0
 24 25  2  0
 11 26  2  0
 26  7  1  0
 25 17  1  0
 23 18  1  0
  1 27  1  0
  1 28  1  0
  1 29  1  0
  2 30  1  0
  5 31  1  0
  5 32  1  0
  8 33  1  0
  9 34  1  0
 10 35  1  0
 12 36  1  0
 12 37  1  0
 16 38  1  0
 16 39  1  0
 19 40  1  0
 19 41  1  0
 20 42  1  0
 20 43  1  0
 21 44  1  0
 21 45  1  0
 22 46  1  0
 22 47  1  0
 25 48  1  0
 26 49  1  0
A    1
 C1 
A    2
 N1 
A    3
 C2 
A    4
 O1 
A    5
 C3 
A    6
 O2 
A    7
 C4 
A    8
 C5 
A    9
 C6 
A   10
 C7 
A   11
 C8 
A   12
 C9 
A   13
 C10
A   14
 O3 
A   15
 O4 
A   16
 C11
A   17
 C12
A   18
 C13
A   19
 C14
A   20
 C15
A   21
 C16
A   22
 C17
A   23
 N2 
A   24
 N3 
A   25
 C18
A   26
 C19
A   27
 H1 
A   28
 H2 
A   29
 H3 
A   30
 H4 
A   31
 H5 
A   32
 H6 
A   33
 H7 
A   34
 H8 
A   35
 H9 
A   36
 H10
A   37
 H11
A   38
 H12
A   39
 H13
A   40
 H14
A   41
 H15
A   42
 H16
A   43
 H17
A   44
 H18
A   45
 H19
A   46
 H20
A   47
 H21
A   48
 H22
A   49
 H23
M  END
>  <ref_pdb>  (437) 
x0051_0B

>  <ref_mols>  (437) 
x0969_1B,x0904_0B

>  <original SMILES>  (437) 
[H]c1nn2c(c1C([H])([H])OC(=O)C([H])([H])c1c([H])c([H])c([H])c(OC([H])([H])C(=O)N([H])C([H])([H])[H])c1[H])C([H])([H])C([H])([H])C([H])([H])C2([H])[H]

>  <index>  (437) 
1198

>  <∆∆G>  (437) 
-8.627643

>  <∆G_bound>  (437) 
-7.684883

>  <∆G_unbound>  (437) 
0.94276

>  <comRMSD>  (437) 
0.399909

>  <N_constrained_atoms>  (437) 
24.0

>  <N_unconstrained_atoms>  (437) 
3.0

>  <runtime>  (437) 
104.716501

>  <LE>  (437) 
0.319542

>  <percent_hybrid>  (437) 
42.0

>  <dist>  (437) 
5.0

>  <ecfp4>  (437) 
0.410256

>  <daylight>  (437) 
0.416667

>  <topodist>  (437) 
2.0

>  <mces>  (437) 
27.0

>  <tdn>  (437) 
1.0

>  <tup>  (437) 
1.0

>  <rdn>  (437) 
0.0

>  <rup>  (437) 
0.0

>  <ldn>  (437) 
0.0

>  <lup>  (437) 
0.0

>  <mut>  (437) 
2.0

>  <maj>  (437) 
2.0

>  <min>  (437) 
0.0

>  <hyb>  (437) 
1.0

>  <sub>  (437) 
1.0

>  <query_index>  (437) 
111.0

>  <max_hit_Tanimoto>  (437) 
0.320829

>  <largest_ring>  (437) 
6

>  <N_interactions_kept>  (437) 
1.0

>  <N_interactions_lost>  (437) 
2.5

>  <interaction_uniqueness_metric>  (437) 
0.171601

>  <ad_hoc_penalty>  (437) 
-10.651289

>  <N_rotatable_bonds>  (437) 
8

>  <N_HA>  (437) 
26

>  <cluster>  (437) 
5116

>  <N_interactions>  (437) 
7

>  <Enamine>  (437) 
1

>  <Mcule>  (437) 
0

>  <N_PAINS>  (437) 
0

>  <UFF_Gibbs>  (437) 
215.396443

>  <strain_per_HA>  (437) 
8.284479

>  <intxn_scored>  (437) 
7.5

>  <saltbridge:HIS:51>  (437) 
0

>  <pistack:HIS:51>  (437) 
1

>  <hydroph_interaction:HIS:51>  (437) 
1

>  <hbond:ALA:132>  (437) 
0

>  <hbond:SER:135>  (437) 
0

>  <hydroph_interaction:TYR:150>  (437) 
1

>  <pistack:TYR:161>  (437) 
1

>  <hydroph_interaction:TYR:161>  (437) 
0

>  <hydroph_interaction:ASP:83>  (437) 
0

>  <hbond:TYR:130>  (437) 
0

>  <hydroph_interaction:ALA:132>  (437) 
1

>  <hbond:HIS:51>  (437) 
0

>  <hbond:ASP:129>  (437) 
2

>  <hbond:TYR:150>  (437) 
0

>  <hbond:GLY:151>  (437) 
0

>  <hbond:TYR:161>  (437) 
0

>  <hydroph_interaction:TYR:130>  (437) 
0

>  <hydroph_interaction:PRO:131>  (437) 
0

>  <hydroph_interaction:ASP:129>  (437) 
0

>  <saltbridge:ASP:75>  (437) 
0

>  <saltbridge:ASP:83>  (437) 
0

>  <hbond:ASN:152>  (437) 
0

>  <hydroph_interaction:ASN:152>  (437) 
0

>  <halogenbond:TYR:150>  (437) 
0

>  <hbond:ASP:83>  (437) 
0

>  <hydroph_interaction:VAL:155>  (437) 
0

>  <pication:TYR:161>  (437) 
0

>  <hbond:PRO:131>  (437) 
0

>  <saltbridge:ASP:129>  (437) 
0

>  <hbond:THR:134>  (437) 
0

>  <pication:HIS:51>  (437) 
0

>  <hbond:SER:81>  (437) 
0

>  <hydroph_interaction:THR:134>  (437) 
0

>  <hydroph_interaction:MET:49>  (437) 
0

$$$$
CSSB00009860907
     RDKit          3D

 20 21  0  0  0  0  0  0  0  0999 V2000
   -5.4690    5.4910  -15.8060 N   0  0  0  0  0  0  0  0  0  0  0  0
   -5.9760    5.3800  -17.1260 C   0  0  0  0  0  0  0  0  0  0  0  0
   -5.0240    5.4450  -18.2960 C   0  0  0  0  0  0  0  0  0  0  0  0
   -3.3300    5.6420  -18.0710 Cl  0  0  0  0  0  0  0  0  0  0  0  0
   -5.5600    5.3340  -19.5730 C   0  0  0  0  0  0  0  0  0  0  0  0
   -6.9280    5.1610  -19.7690 C   0  0  0  0  0  0  0  0  0  0  0  0
   -7.8210    5.0910  -18.6960 C   0  0  0  0  0  0  0  0  0  0  0  0
   -9.1870    4.9030  -18.9490 C   0  0  0  0  0  0  0  0  0  0  0  0
  -10.0900    4.8260  -17.9000 C   0  0  0  0  0  0  0  0  0  0  0  0
   -9.6450    4.9370  -16.5890 C   0  0  0  0  0  0  0  0  0  0  0  0
   -8.2960    5.1240  -16.3270 C   0  0  0  0  0  0  0  0  0  0  0  0
   -7.3560    5.2030  -17.3650 C   0  0  0  0  0  0  0  0  0  0  0  0
   -6.0840    5.0780  -15.1110 H   0  0  0  0  0  0  0  0  0  0  0  0
   -4.5200    5.1240  -15.7370 H   0  0  0  0  0  0  0  0  0  0  0  0
   -4.9080    5.3770  -20.4420 H   0  0  0  0  0  0  0  0  0  0  0  0
   -7.2950    5.0740  -20.7880 H   0  0  0  0  0  0  0  0  0  0  0  0
   -9.5530    4.8150  -19.9700 H   0  0  0  0  0  0  0  0  0  0  0  0
  -11.1460    4.6810  -18.1070 H   0  0  0  0  0  0  0  0  0  0  0  0
  -10.3360    4.8790  -15.7550 H   0  0  0  0  0  0  0  0  0  0  0  0
   -7.9820    5.2060  -15.2880 H   0  0  0  0  0  0  0  0  0  0  0  0
  1  2  1  0
  2  3  2  0
  3  4  1  0
  3  5  1  0
  5  6  2  0
  6  7  1  0
  7  8  2  0
  8  9  1  0
  9 10  2  0
 10 11  1  0
 11 12  2  0
 12  2  1  0
 12  7  1  0
  1 13  1  0
  1 14  1  0
  5 15  1  0
  6 16  1  0
  8 17  1  0
  9 18  1  0
 10 19  1  0
 11 20  1  0
A    1
 N1 
A    2
 C1 
A    3
 C2 
A    4
CL1 
A    5
 C3 
A    6
 C4 
A    7
 C5 
A    8
 C6 
A    9
 C7 
A   10
 C8 
A   11
 C9 
A   12
 C10
A   13
 H1 
A   14
 H2 
A   15
 H3 
A   16
 H4 
A   17
 H5 
A   18
 H6 
A   19
 H7 
A   20
 H8 
M  END
>  <ref_pdb>  (438) 
x0051_0B

>  <ref_mols>  (438) 
x0727_0B,x0800_0B

>  <original SMILES>  (438) 
[H]c1c([H])c([H])c2c(N([H])[H])c(Cl)c([H])c([H])c2c1[H]

>  <index>  (438) 
3002

>  <∆∆G>  (438) 
-6.949568

>  <∆G_bound>  (438) 
-6.936896

>  <∆G_unbound>  (438) 
0.012672

>  <comRMSD>  (438) 
0.707917

>  <N_constrained_atoms>  (438) 
15.0

>  <N_unconstrained_atoms>  (438) 
0.0

>  <runtime>  (438) 
17.194927

>  <LE>  (438) 
0.463305

>  <percent_hybrid>  (438) 
38.0

>  <dist>  (438) 
2.0

>  <ecfp4>  (438) 
0.27027

>  <daylight>  (438) 
0.380952

>  <topodist>  (438) 
1.0

>  <mces>  (438) 
13.0

>  <tdn>  (438) 
1.0

>  <tup>  (438) 
0.0

>  <rdn>  (438) 
0.0

>  <rup>  (438) 
0.0

>  <ldn>  (438) 
0.0

>  <lup>  (438) 
0.0

>  <mut>  (438) 
1.0

>  <maj>  (438) 
1.0

>  <min>  (438) 
0.0

>  <hyb>  (438) 
0.0

>  <sub>  (438) 
1.0

>  <query_index>  (438) 
67.0

>  <max_hit_Tanimoto>  (438) 
0.228117

>  <largest_ring>  (438) 
6

>  <N_interactions_kept>  (438) 
0.0

>  <N_interactions_lost>  (438) 
4.0

>  <interaction_uniqueness_metric>  (438) 
0.044868

>  <ad_hoc_penalty>  (438) 
-5.498781

>  <N_rotatable_bonds>  (438) 
1

>  <N_HA>  (438) 
12

>  <cluster>  (438) 
3442

>  <N_interactions>  (438) 
5

>  <Enamine>  (438) 
1

>  <Mcule>  (438) 
0

>  <N_PAINS>  (438) 
0

>  <UFF_Gibbs>  (438) 
17.704704

>  <strain_per_HA>  (438) 
1.475392

>  <intxn_scored>  (438) 
7.5

>  <saltbridge:HIS:51>  (438) 
0

>  <pistack:HIS:51>  (438) 
0

>  <hydroph_interaction:HIS:51>  (438) 
0

>  <hbond:ALA:132>  (438) 
0

>  <hbond:SER:135>  (438) 
0

>  <hydroph_interaction:TYR:150>  (438) 
1

>  <pistack:TYR:161>  (438) 
1

>  <hydroph_interaction:TYR:161>  (438) 
3

>  <hydroph_interaction:ASP:83>  (438) 
0

>  <hbond:TYR:130>  (438) 
0

>  <hydroph_interaction:ALA:132>  (438) 
0

>  <hbond:HIS:51>  (438) 
0

>  <hbond:ASP:129>  (438) 
0

>  <hbond:TYR:150>  (438) 
0

>  <hbond:GLY:151>  (438) 
0

>  <hbond:TYR:161>  (438) 
0

>  <hydroph_interaction:TYR:130>  (438) 
0

>  <hydroph_interaction:PRO:131>  (438) 
0

>  <hydroph_interaction:ASP:129>  (438) 
0

>  <saltbridge:ASP:75>  (438) 
0

>  <saltbridge:ASP:83>  (438) 
0

>  <hbond:ASN:152>  (438) 
0

>  <hydroph_interaction:ASN:152>  (438) 
0

>  <halogenbond:TYR:150>  (438) 
0

>  <hbond:ASP:83>  (438) 
0

>  <hydroph_interaction:VAL:155>  (438) 
0

>  <pication:TYR:161>  (438) 
0

>  <hbond:PRO:131>  (438) 
0

>  <saltbridge:ASP:129>  (438) 
0

>  <hbond:THR:134>  (438) 
0

>  <pication:HIS:51>  (438) 
0

>  <hbond:SER:81>  (438) 
0

>  <hydroph_interaction:THR:134>  (438) 
0

>  <hydroph_interaction:MET:49>  (438) 
0

$$$$
Z3501272072
     RDKit          3D

 46 48  0  0  0  0  0  0  0  0999 V2000
   -4.2140    5.1220  -17.2030 C   0  0  0  0  0  0  0  0  0  0  0  0
   -5.2730    5.5960  -16.3790 O   0  0  0  0  0  0  0  0  0  0  0  0
   -6.5450    5.4250  -16.8360 C   0  0  0  0  0  0  0  0  0  0  0  0
   -6.9470    5.1640  -18.2820 C   0  0  0  0  0  0  0  0  0  0  0  0
   -8.3910    4.9860  -18.6430 C   0  0  0  0  0  0  0  0  0  0  0  0
   -9.3070    5.1060  -17.4550 C   0  0  0  0  0  0  0  0  0  0  0  0
  -10.6330    4.8910  -18.1240 C   0  0  0  0  0  0  0  0  0  0  0  0
   -8.9020    5.3690  -16.0910 C   0  0  0  0  0  0  0  0  0  0  0  0
   -9.7190    5.5240  -14.9270 C   0  0  0  0  0  0  0  0  0  0  0  0
   -9.1050    5.9600  -13.6060 N   0  0  0  0  0  0  0  0  0  0  0  0
   -9.7430    7.1650  -13.0950 C   0  0  0  0  0  0  0  0  0  0  0  0
   -8.9120    4.9160  -12.5470 C   0  0  0  0  0  0  0  0  0  0  0  0
   -8.8960    5.3720  -11.0660 C   0  0  0  0  0  0  0  0  0  0  0  0
   -8.9920    4.3230   -9.9840 C   0  0  0  0  0  0  0  0  0  0  0  0
   -9.1010    2.9040  -10.2380 C   0  0  0  0  0  0  0  0  0  0  0  0
   -9.6700    2.1930   -9.0720 N   0  0  0  0  0  0  0  0  0  0  0  0
   -9.5430    2.7700   -7.6990 C   0  0  0  0  0  0  0  0  0  0  0  0
   -9.0370    4.2220   -7.5530 C   0  0  0  0  0  0  0  0  0  0  0  0
   -8.9600    4.9360   -8.8100 N   0  0  0  0  0  0  0  0  0  0  0  0
   -8.8480    6.2960   -8.9240 N   0  0  0  0  0  0  0  0  0  0  0  0
   -8.8120    6.5580  -10.2730 C   0  0  0  0  0  0  0  0  0  0  0  0
   -7.5260    5.5110  -15.8490 C   0  0  0  0  0  0  0  0  0  0  0  0
   -3.5500    5.9400  -17.5080 H   0  0  0  0  0  0  0  0  0  0  0  0
   -3.6080    4.3670  -16.6910 H   0  0  0  0  0  0  0  0  0  0  0  0
   -4.6480    4.6800  -18.1050 H   0  0  0  0  0  0  0  0  0  0  0  0
   -6.1780    5.1010  -19.0590 H   0  0  0  0  0  0  0  0  0  0  0  0
   -8.7450    4.7920  -19.6610 H   0  0  0  0  0  0  0  0  0  0  0  0
  -10.4550    4.2140  -18.9490 H   0  0  0  0  0  0  0  0  0  0  0  0
  -11.1860    5.7410  -18.5330 H   0  0  0  0  0  0  0  0  0  0  0  0
  -11.3130    4.3770  -17.4800 H   0  0  0  0  0  0  0  0  0  0  0  0
  -10.3270    4.6280  -14.7850 H   0  0  0  0  0  0  0  0  0  0  0  0
  -10.4800    6.2780  -15.1580 H   0  0  0  0  0  0  0  0  0  0  0  0
   -9.9160    7.1380  -12.0160 H   0  0  0  0  0  0  0  0  0  0  0  0
  -10.7100    7.3170  -13.5740 H   0  0  0  0  0  0  0  0  0  0  0  0
   -9.1480    8.0570  -13.3300 H   0  0  0  0  0  0  0  0  0  0  0  0
   -7.9430    4.4280  -12.7090 H   0  0  0  0  0  0  0  0  0  0  0  0
   -9.6090    4.1260  -12.8040 H   0  0  0  0  0  0  0  0  0  0  0  0
   -8.1240    2.4720  -10.4740 H   0  0  0  0  0  0  0  0  0  0  0  0
   -9.7380    2.7270  -11.1110 H   0  0  0  0  0  0  0  0  0  0  0  0
  -10.6590    1.9920   -9.2630 H   0  0  0  0  0  0  0  0  0  0  0  0
   -9.0110    2.0310   -7.1110 H   0  0  0  0  0  0  0  0  0  0  0  0
  -10.5520    2.7700   -7.2640 H   0  0  0  0  0  0  0  0  0  0  0  0
   -8.0570    4.2750   -7.0700 H   0  0  0  0  0  0  0  0  0  0  0  0
   -9.7410    4.7710   -6.9160 H   0  0  0  0  0  0  0  0  0  0  0  0
   -8.7270    7.5950  -10.6170 H   0  0  0  0  0  0  0  0  0  0  0  0
   -7.1890    5.7050  -14.8250 H   0  0  0  0  0  0  0  0  0  0  0  0
  1  2  1  0
  2  3  1  0
  3  4  2  0
  4  5  1  0
  5  6  2  0
  6  7  1  0
  6  8  1  0
  8  9  1  0
  9 10  1  0
 10 11  1  0
 10 12  1  0
 12 13  1  0
 13 14  2  0
 14 15  1  0
 15 16  1  0
 16 17  1  0
 17 18  1  0
 18 19  1  0
 19 20  1  0
 20 21  2  0
  8 22  2  0
 22  3  1  0
 21 13  1  0
 19 14  1  0
  1 23  1  0
  1 24  1  0
  1 25  1  0
  4 26  1  0
  5 27  1  0
  7 28  1  0
  7 29  1  0
  7 30  1  0
  9 31  1  0
  9 32  1  0
 11 33  1  0
 11 34  1  0
 11 35  1  0
 12 36  1  0
 12 37  1  0
 15 38  1  0
 15 39  1  0
 16 40  1  0
 17 41  1  0
 17 42  1  0
 18 43  1  0
 18 44  1  0
 21 45  1  0
 22 46  1  0
A    1
 C1 
A    2
 O1 
A    3
 C2 
A    4
 C3 
A    5
 C4 
A    6
 C5 
A    7
 C6 
A    8
 C7 
A    9
 C8 
A   10
 N1 
A   11
 C9 
A   12
 C10
A   13
 C11
A   14
 C12
A   15
 C13
A   16
 N2 
A   17
 C14
A   18
 C15
A   19
 N3 
A   20
 N4 
A   21
 C16
A   22
 C17
A   23
 H1 
A   24
 H2 
A   25
 H3 
A   26
 H4 
A   27
 H5 
A   28
 H6 
A   29
 H7 
A   30
 H8 
A   31
 H9 
A   32
 H10
A   33
 H11
A   34
 H12
A   35
 H13
A   36
 H14
A   37
 H15
A   38
 H16
A   39
 H17
A   40
 H18
A   41
 H19
A   42
 H20
A   43
 H21
A   44
 H22
A   45
 H23
A   46
 H24
M  END
>  <ref_pdb>  (439) 
x0051_0B

>  <ref_mols>  (439) 
x0969_1B,x0553_0B

>  <original SMILES>  (439) 
[H]c1nn2c(c1C([H])([H])N(C([H])([H])[H])C([H])([H])c1c([H])c(OC([H])([H])[H])c([H])c([H])c1C([H])([H])[H])C([H])([H])N([H])C([H])([H])C2([H])[H]

>  <index>  (439) 
2317

>  <∆∆G>  (439) 
-6.843277

>  <∆G_bound>  (439) 
-7.235213

>  <∆G_unbound>  (439) 
-0.391935

>  <comRMSD>  (439) 
0.678872

>  <N_constrained_atoms>  (439) 
19.0

>  <N_unconstrained_atoms>  (439) 
4.0

>  <runtime>  (439) 
35.569306

>  <LE>  (439) 
0.297534

>  <percent_hybrid>  (439) 
48.0

>  <dist>  (439) 
4.0

>  <ecfp4>  (439) 
0.492958

>  <daylight>  (439) 
0.560185

>  <topodist>  (439) 
1.0

>  <mces>  (439) 
23.0

>  <tdn>  (439) 
0.0

>  <tup>  (439) 
1.0

>  <rdn>  (439) 
0.0

>  <rup>  (439) 
0.0

>  <ldn>  (439) 
0.0

>  <lup>  (439) 
0.0

>  <mut>  (439) 
3.0

>  <maj>  (439) 
3.0

>  <min>  (439) 
0.0

>  <hyb>  (439) 
0.0

>  <sub>  (439) 
0.0

>  <query_index>  (439) 
376.0

>  <max_hit_Tanimoto>  (439) 
0.602302

>  <largest_ring>  (439) 
6

>  <N_interactions_kept>  (439) 
1.5

>  <N_interactions_lost>  (439) 
1.0

>  <interaction_uniqueness_metric>  (439) 
0.130744

>  <ad_hoc_penalty>  (439) 
-3.374174

>  <N_rotatable_bonds>  (439) 
8

>  <N_HA>  (439) 
22

>  <cluster>  (439) 
4089

>  <N_interactions>  (439) 
4

>  <Enamine>  (439) 
1

>  <Mcule>  (439) 
0

>  <N_PAINS>  (439) 
0

>  <UFF_Gibbs>  (439) 
179.802429

>  <strain_per_HA>  (439) 
8.172838

>  <intxn_scored>  (439) 
7.5

>  <saltbridge:HIS:51>  (439) 
0

>  <pistack:HIS:51>  (439) 
1

>  <hydroph_interaction:HIS:51>  (439) 
0

>  <hbond:ALA:132>  (439) 
0

>  <hbond:SER:135>  (439) 
0

>  <hydroph_interaction:TYR:150>  (439) 
1

>  <pistack:TYR:161>  (439) 
1

>  <hydroph_interaction:TYR:161>  (439) 
0

>  <hydroph_interaction:ASP:83>  (439) 
0

>  <hbond:TYR:130>  (439) 
0

>  <hydroph_interaction:ALA:132>  (439) 
0

>  <hbond:HIS:51>  (439) 
1

>  <hbond:ASP:129>  (439) 
0

>  <hbond:TYR:150>  (439) 
0

>  <hbond:GLY:151>  (439) 
0

>  <hbond:TYR:161>  (439) 
0

>  <hydroph_interaction:TYR:130>  (439) 
0

>  <hydroph_interaction:PRO:131>  (439) 
0

>  <hydroph_interaction:ASP:129>  (439) 
0

>  <saltbridge:ASP:75>  (439) 
0

>  <saltbridge:ASP:83>  (439) 
0

>  <hbond:ASN:152>  (439) 
0

>  <hydroph_interaction:ASN:152>  (439) 
0

>  <halogenbond:TYR:150>  (439) 
0

>  <hbond:ASP:83>  (439) 
0

>  <hydroph_interaction:VAL:155>  (439) 
0

>  <pication:TYR:161>  (439) 
0

>  <hbond:PRO:131>  (439) 
0

>  <saltbridge:ASP:129>  (439) 
0

>  <hbond:THR:134>  (439) 
0

>  <pication:HIS:51>  (439) 
0

>  <hbond:SER:81>  (439) 
0

>  <hydroph_interaction:THR:134>  (439) 
0

>  <hydroph_interaction:MET:49>  (439) 
0

$$$$
Z55176748
     RDKit          3D

 28 29  0  0  0  0  0  0  0  0999 V2000
  -11.1970    4.9710  -18.5730 C   0  0  0  0  0  0  0  0  0  0  0  0
   -9.7730    4.9710  -18.2570 C   0  0  0  0  0  0  0  0  0  0  0  0
   -9.3350    4.9520  -16.8000 C   0  0  0  0  0  0  0  0  0  0  0  0
   -7.9840    5.0240  -16.4970 C   0  0  0  0  0  0  0  0  0  0  0  0
   -7.1140    5.1180  -17.5780 C   0  0  0  0  0  0  0  0  0  0  0  0
   -5.4470    5.2500  -17.3640 S   0  0  0  0  0  0  0  0  0  0  0  0
   -5.2440    5.3080  -19.0660 C   0  0  0  0  0  0  0  0  0  0  0  0
   -4.0410    5.4290  -19.7400 N   0  0  0  0  0  0  0  0  0  0  0  0
   -2.8020    5.3740  -19.1700 C   0  0  0  0  0  0  0  0  0  0  0  0
   -1.8760    4.5160  -19.9640 C   0  0  0  0  0  0  0  0  0  0  0  0
   -2.3090    6.6620  -19.0310 C   0  0  0  0  0  0  0  0  0  0  0  0
   -6.3420    5.2290  -19.7950 N   0  0  0  0  0  0  0  0  0  0  0  0
   -7.4420    5.1250  -18.9170 C   0  0  0  0  0  0  0  0  0  0  0  0
   -8.8900    5.0340  -19.3000 C   0  0  0  0  0  0  0  0  0  0  0  0
  -11.6900    4.0300  -18.4020 H   0  0  0  0  0  0  0  0  0  0  0  0
  -11.6350    5.7050  -17.9710 H   0  0  0  0  0  0  0  0  0  0  0  0
  -11.3810    5.3210  -19.5840 H   0  0  0  0  0  0  0  0  0  0  0  0
  -10.1220    4.8920  -16.0420 H   0  0  0  0  0  0  0  0  0  0  0  0
   -7.6260    5.0170  -15.4690 H   0  0  0  0  0  0  0  0  0  0  0  0
   -4.1020    6.1500  -20.4440 H   0  0  0  0  0  0  0  0  0  0  0  0
   -3.0050    5.0530  -18.1510 H   0  0  0  0  0  0  0  0  0  0  0  0
   -1.8080    3.4650  -19.6750 H   0  0  0  0  0  0  0  0  0  0  0  0
   -2.2470    4.4720  -20.9960 H   0  0  0  0  0  0  0  0  0  0  0  0
   -0.8400    4.8310  -20.0430 H   0  0  0  0  0  0  0  0  0  0  0  0
   -2.8950    7.4050  -19.5840 H   0  0  0  0  0  0  0  0  0  0  0  0
   -2.3540    6.9750  -17.9910 H   0  0  0  0  0  0  0  0  0  0  0  0
   -1.2650    6.7340  -19.3660 H   0  0  0  0  0  0  0  0  0  0  0  0
   -9.2080    5.0400  -20.3340 H   0  0  0  0  0  0  0  0  0  0  0  0
  1  2  1  0
  2  3  2  0
  3  4  1  0
  4  5  2  0
  5  6  1  0
  6  7  1  0
  7  8  1  0
  8  9  1  0
  9 10  1  0
  9 11  1  0
  7 12  2  0
 12 13  1  0
 13 14  2  0
 14  2  1  0
 13  5  1  0
  1 15  1  0
  1 16  1  0
  1 17  1  0
  3 18  1  0
  4 19  1  0
  8 20  1  0
  9 21  1  0
 10 22  1  0
 10 23  1  0
 10 24  1  0
 11 25  1  0
 11 26  1  0
 11 27  1  0
 14 28  1  0
A    1
 C1 
A    2
 C2 
A    3
 C3 
A    4
 C4 
A    5
 C5 
A    6
 S1 
A    7
 C6 
A    8
 N1 
A    9
 C7 
A   10
 C8 
A   11
 C9 
A   12
 N2 
A   13
 C10
A   14
 C11
A   15
 H1 
A   16
 H2 
A   17
 H3 
A   18
 H4 
A   19
 H5 
A   20
 H6 
A   21
 H7 
A   22
 H8 
A   23
 H9 
A   24
 H10
A   25
 H11
A   26
 H12
A   27
 H13
A   28
 H14
M  END
>  <ref_pdb>  (440) 
x0051_0B

>  <ref_mols>  (440) 
x0089_0B,x0605_0B

>  <original SMILES>  (440) 
[H]c1c(C([H])([H])[H])c([H])c2nc(N([H])C([H])(C([H])([H])[H])C([H])([H])[H])sc2c1[H]

>  <index>  (440) 
3308

>  <∆∆G>  (440) 
-6.991117

>  <∆G_bound>  (440) 
-7.205636

>  <∆G_unbound>  (440) 
-0.214519

>  <comRMSD>  (440) 
0.813387

>  <N_constrained_atoms>  (440) 
15.0

>  <N_unconstrained_atoms>  (440) 
0.0

>  <runtime>  (440) 
30.665248

>  <LE>  (440) 
0.466074

>  <percent_hybrid>  (440) 
25.0

>  <dist>  (440) 
2.0

>  <ecfp4>  (440) 
0.404255

>  <daylight>  (440) 
0.347518

>  <topodist>  (440) 
1.0

>  <mces>  (440) 
15.0

>  <tdn>  (440) 
1.0

>  <tup>  (440) 
0.0

>  <rdn>  (440) 
0.0

>  <rup>  (440) 
0.0

>  <ldn>  (440) 
0.0

>  <lup>  (440) 
0.0

>  <mut>  (440) 
1.0

>  <maj>  (440) 
1.0

>  <min>  (440) 
0.0

>  <hyb>  (440) 
0.0

>  <sub>  (440) 
1.0

>  <query_index>  (440) 
118.0

>  <max_hit_Tanimoto>  (440) 
0.250789

>  <largest_ring>  (440) 
6

>  <N_interactions_kept>  (440) 
0.0

>  <N_interactions_lost>  (440) 
3.5

>  <interaction_uniqueness_metric>  (440) 
0.078036

>  <ad_hoc_penalty>  (440) 
-0.315929

>  <N_rotatable_bonds>  (440) 
5

>  <N_HA>  (440) 
14

>  <cluster>  (440) 
3152

>  <N_interactions>  (440) 
6

>  <Enamine>  (440) 
1

>  <Mcule>  (440) 
0

>  <N_PAINS>  (440) 
0

>  <UFF_Gibbs>  (440) 
76.564883

>  <strain_per_HA>  (440) 
5.46892

>  <intxn_scored>  (440) 
7.5

>  <saltbridge:HIS:51>  (440) 
0

>  <pistack:HIS:51>  (440) 
0

>  <hydroph_interaction:HIS:51>  (440) 
0

>  <hbond:ALA:132>  (440) 
0

>  <hbond:SER:135>  (440) 
0

>  <hydroph_interaction:TYR:150>  (440) 
1

>  <pistack:TYR:161>  (440) 
1

>  <hydroph_interaction:TYR:161>  (440) 
3

>  <hydroph_interaction:ASP:83>  (440) 
0

>  <hbond:TYR:130>  (440) 
0

>  <hydroph_interaction:ALA:132>  (440) 
0

>  <hbond:HIS:51>  (440) 
0

>  <hbond:ASP:129>  (440) 
0

>  <hbond:TYR:150>  (440) 
0

>  <hbond:GLY:151>  (440) 
0

>  <hbond:TYR:161>  (440) 
0

>  <hydroph_interaction:TYR:130>  (440) 
0

>  <hydroph_interaction:PRO:131>  (440) 
0

>  <hydroph_interaction:ASP:129>  (440) 
0

>  <saltbridge:ASP:75>  (440) 
0

>  <saltbridge:ASP:83>  (440) 
0

>  <hbond:ASN:152>  (440) 
0

>  <hydroph_interaction:ASN:152>  (440) 
0

>  <halogenbond:TYR:150>  (440) 
0

>  <hbond:ASP:83>  (440) 
0

>  <hydroph_interaction:VAL:155>  (440) 
1

>  <pication:TYR:161>  (440) 
0

>  <hbond:PRO:131>  (440) 
0

>  <saltbridge:ASP:129>  (440) 
0

>  <hbond:THR:134>  (440) 
0

>  <pication:HIS:51>  (440) 
0

>  <hbond:SER:81>  (440) 
0

>  <hydroph_interaction:THR:134>  (440) 
0

>  <hydroph_interaction:MET:49>  (440) 
0

$$$$
Z2853453318
     RDKit          3D

 46 49  0  0  0  0  0  0  0  0999 V2000
   -9.2970    4.9170  -19.2450 C   0  0  0  0  0  0  0  0  0  0  0  0
  -10.3020    4.7110  -18.1380 C   0  0  0  0  0  0  0  0  0  0  0  0
   -9.7440    4.7850  -16.8080 N   0  0  0  0  0  0  0  0  0  0  0  0
   -8.4160    5.0130  -16.5890 C   0  0  0  0  0  0  0  0  0  0  0  0
   -7.5050    5.2170  -17.6180 C   0  0  0  0  0  0  0  0  0  0  0  0
   -7.9580    5.1640  -18.9530 C   0  0  0  0  0  0  0  0  0  0  0  0
   -6.0610    5.4870  -17.3220 C   0  0  0  0  0  0  0  0  0  0  0  0
   -5.7650    5.6320  -15.9510 C   0  0  0  0  0  0  0  0  0  0  0  0
   -6.7670    6.0170  -15.0210 C   0  0  0  0  0  0  0  0  0  0  0  0
   -7.9320    5.0320  -15.1390 C   0  0  0  0  0  0  0  0  0  0  0  0
   -9.0010    5.2240  -14.2980 N   0  0  0  0  0  0  0  0  0  0  0  0
   -8.5930    5.0030  -13.0520 C   0  0  0  0  0  0  0  0  0  0  0  0
   -8.6750    5.9980  -12.0570 C   0  0  0  0  0  0  0  0  0  0  0  0
   -8.7650    5.7370  -10.6620 C   0  0  0  0  0  0  0  0  0  0  0  0
   -8.9200    4.4830   -9.8380 C   0  0  0  0  0  0  0  0  0  0  0  0
   -9.0270    3.0440  -10.2750 C   0  0  0  0  0  0  0  0  0  0  0  0
   -8.6280    2.2130   -9.0700 C   0  0  0  0  0  0  0  0  0  0  0  0
   -9.5290    2.5920   -7.8820 C   0  0  0  0  0  0  0  0  0  0  0  0
   -9.0990    3.9880   -7.4350 C   0  0  0  0  0  0  0  0  0  0  0  0
   -8.9490    4.8870   -8.5700 N   0  0  0  0  0  0  0  0  0  0  0  0
   -8.8290    6.2320   -8.4210 N   0  0  0  0  0  0  0  0  0  0  0  0
   -8.7190    6.7410   -9.6730 C   0  0  0  0  0  0  0  0  0  0  0  0
   -9.7160    4.8600  -20.2550 H   0  0  0  0  0  0  0  0  0  0  0  0
  -11.3700    4.5210  -18.2920 H   0  0  0  0  0  0  0  0  0  0  0  0
   -7.2600    5.3160  -19.7720 H   0  0  0  0  0  0  0  0  0  0  0  0
   -5.4640    4.6620  -17.7320 H   0  0  0  0  0  0  0  0  0  0  0  0
   -5.7380    6.3890  -17.8480 H   0  0  0  0  0  0  0  0  0  0  0  0
   -4.9490    6.3570  -15.8700 H   0  0  0  0  0  0  0  0  0  0  0  0
   -5.3230    4.6820  -15.6250 H   0  0  0  0  0  0  0  0  0  0  0  0
   -6.3320    5.8870  -14.0240 H   0  0  0  0  0  0  0  0  0  0  0  0
   -6.9200    7.0980  -15.1060 H   0  0  0  0  0  0  0  0  0  0  0  0
   -7.5660    4.0260  -14.9590 H   0  0  0  0  0  0  0  0  0  0  0  0
   -9.6030    4.4180  -14.5450 H   0  0  0  0  0  0  0  0  0  0  0  0
   -9.1750    4.1450  -12.6930 H   0  0  0  0  0  0  0  0  0  0  0  0
   -7.5560    4.6480  -13.0930 H   0  0  0  0  0  0  0  0  0  0  0  0
   -9.5300    6.6340  -12.3140 H   0  0  0  0  0  0  0  0  0  0  0  0
   -7.8130    6.6630  -12.1940 H   0  0  0  0  0  0  0  0  0  0  0  0
  -10.0370    2.7870  -10.6020 H   0  0  0  0  0  0  0  0  0  0  0  0
   -8.3370    2.8560  -11.1100 H   0  0  0  0  0  0  0  0  0  0  0  0
   -8.8400    1.1860   -9.3210 H   0  0  0  0  0  0  0  0  0  0  0  0
   -7.5680    2.2000   -8.8600 H   0  0  0  0  0  0  0  0  0  0  0  0
   -9.2500    1.9130   -7.0690 H   0  0  0  0  0  0  0  0  0  0  0  0
  -10.5970    2.4270   -8.0040 H   0  0  0  0  0  0  0  0  0  0  0  0
   -8.1350    3.8970   -6.9200 H   0  0  0  0  0  0  0  0  0  0  0  0
   -9.8400    4.4320   -6.7620 H   0  0  0  0  0  0  0  0  0  0  0  0
   -8.6140    7.8110   -9.8000 H   0  0  0  0  0  0  0  0  0  0  0  0
  1  2  2  0
  2  3  1  0
  3  4  2  0
  4  5  1  0
  5  6  2  0
  5  7  1  0
  7  8  1  0
  8  9  1  0
  9 10  1  0
 10 11  1  0
 11 12  1  0
 12 13  1  0
 13 14  1  0
 14 15  2  0
 15 16  1  0
 16 17  1  0
 17 18  1  0
 18 19  1  0
 19 20  1  0
 20 21  1  0
 21 22  2  0
  6  1  1  0
 10  4  1  0
 22 14  1  0
 20 15  1  0
  1 23  1  0
  2 24  1  0
  6 25  1  0
  7 26  1  0
  7 27  1  0
  8 28  1  0
  8 29  1  0
  9 30  1  0
  9 31  1  0
 10 32  1  0
 11 33  1  0
 12 34  1  0
 12 35  1  0
 13 36  1  0
 13 37  1  0
 16 38  1  0
 16 39  1  0
 17 40  1  0
 17 41  1  0
 18 42  1  0
 18 43  1  0
 19 44  1  0
 19 45  1  0
 22 46  1  0
A    1
 C1 
A    2
 C2 
A    3
 N1 
A    4
 C3 
A    5
 C4 
A    6
 C5 
A    7
 C6 
A    8
 C7 
A    9
 C8 
A   10
 C9 
A   11
 N2 
A   12
 C10
A   13
 C11
A   14
 C12
A   15
 C13
A   16
 C14
A   17
 C15
A   18
 C16
A   19
 C17
A   20
 N3 
A   21
 N4 
A   22
 C18
A   23
 H1 
A   24
 H2 
A   25
 H3 
A   26
 H4 
A   27
 H5 
A   28
 H6 
A   29
 H7 
A   30
 H8 
A   31
 H9 
A   32
 H10
A   33
 H11
A   34
 H12
A   35
 H13
A   36
 H14
A   37
 H15
A   38
 H16
A   39
 H17
A   40
 H18
A   41
 H19
A   42
 H20
A   43
 H21
A   44
 H22
A   45
 H23
A   46
 H24
M  END
>  <ref_pdb>  (441) 
x0051_0B

>  <ref_mols>  (441) 
x0969_1B,x0455_0B

>  <original SMILES>  (441) 
[H]c1nc2c(c([H])c1[H])C([H])([H])C([H])([H])C([H])([H])C2([H])N([H])C([H])([H])C([H])([H])c1c([H])nn2c1C([H])([H])C([H])([H])C([H])([H])C2([H])[H]

>  <index>  (441) 
36

>  <∆∆G>  (441) 
-6.687224

>  <∆G_bound>  (441) 
-6.069476

>  <∆G_unbound>  (441) 
0.617748

>  <comRMSD>  (441) 
0.37756

>  <N_constrained_atoms>  (441) 
20.0

>  <N_unconstrained_atoms>  (441) 
2.0

>  <runtime>  (441) 
55.931594

>  <LE>  (441) 
0.303965

>  <percent_hybrid>  (441) 
50.0

>  <dist>  (441) 
4.0

>  <ecfp4>  (441) 
0.381579

>  <daylight>  (441) 
0.340845

>  <topodist>  (441) 
0.0

>  <mces>  (441) 
25.0

>  <tdn>  (441) 
0.0

>  <tup>  (441) 
0.0

>  <rdn>  (441) 
0.0

>  <rup>  (441) 
0.0

>  <ldn>  (441) 
0.0

>  <lup>  (441) 
0.0

>  <mut>  (441) 
4.0

>  <maj>  (441) 
4.0

>  <min>  (441) 
0.0

>  <hyb>  (441) 
0.0

>  <sub>  (441) 
0.0

>  <query_index>  (441) 
204.0

>  <max_hit_Tanimoto>  (441) 
0.333333

>  <largest_ring>  (441) 
0

>  <N_interactions_kept>  (441) 
1.5

>  <N_interactions_lost>  (441) 
1.0

>  <interaction_uniqueness_metric>  (441) 
0.221084

>  <ad_hoc_penalty>  (441) 
-34.842781

>  <N_rotatable_bonds>  (441) 
4

>  <N_HA>  (441) 
22

>  <cluster>  (441) 
6183

>  <N_interactions>  (441) 
7

>  <Enamine>  (441) 
1

>  <Mcule>  (441) 
0

>  <N_PAINS>  (441) 
0

>  <UFF_Gibbs>  (441) 
131.425993

>  <strain_per_HA>  (441) 
5.973909

>  <intxn_scored>  (441) 
7.5

>  <saltbridge:HIS:51>  (441) 
0

>  <pistack:HIS:51>  (441) 
1

>  <hydroph_interaction:HIS:51>  (441) 
0

>  <hbond:ALA:132>  (441) 
0

>  <hbond:SER:135>  (441) 
0

>  <hydroph_interaction:TYR:150>  (441) 
1

>  <pistack:TYR:161>  (441) 
0

>  <hydroph_interaction:TYR:161>  (441) 
2

>  <hydroph_interaction:ASP:83>  (441) 
1

>  <hbond:TYR:130>  (441) 
0

>  <hydroph_interaction:ALA:132>  (441) 
0

>  <hbond:HIS:51>  (441) 
0

>  <hbond:ASP:129>  (441) 
0

>  <hbond:TYR:150>  (441) 
0

>  <hbond:GLY:151>  (441) 
1

>  <hbond:TYR:161>  (441) 
1

>  <hydroph_interaction:TYR:130>  (441) 
0

>  <hydroph_interaction:PRO:131>  (441) 
0

>  <hydroph_interaction:ASP:129>  (441) 
0

>  <saltbridge:ASP:75>  (441) 
0

>  <saltbridge:ASP:83>  (441) 
0

>  <hbond:ASN:152>  (441) 
0

>  <hydroph_interaction:ASN:152>  (441) 
0

>  <halogenbond:TYR:150>  (441) 
0

>  <hbond:ASP:83>  (441) 
0

>  <hydroph_interaction:VAL:155>  (441) 
0

>  <pication:TYR:161>  (441) 
0

>  <hbond:PRO:131>  (441) 
0

>  <saltbridge:ASP:129>  (441) 
0

>  <hbond:THR:134>  (441) 
0

>  <pication:HIS:51>  (441) 
0

>  <hbond:SER:81>  (441) 
0

>  <hydroph_interaction:THR:134>  (441) 
0

>  <hydroph_interaction:MET:49>  (441) 
0

$$$$
CSSS00011216734
     RDKit          3D

 22 23  0  0  0  0  0  0  0  0999 V2000
   -5.7240    5.4460  -16.2690 C   0  0  0  0  0  0  0  0  0  0  0  0
   -5.5860    5.3960  -17.7760 C   0  0  0  0  0  0  0  0  0  0  0  0
   -4.1870    5.5270  -18.2290 C   0  0  0  0  0  0  0  0  0  0  0  0
   -3.9090    5.4980  -19.5900 C   0  0  0  0  0  0  0  0  0  0  0  0
   -4.9290    5.3480  -20.5380 C   0  0  0  0  0  0  0  0  0  0  0  0
   -6.2570    5.2200  -20.1220 C   0  0  0  0  0  0  0  0  0  0  0  0
   -6.5800    5.2420  -18.7510 C   0  0  0  0  0  0  0  0  0  0  0  0
   -8.0220    5.0780  -18.3660 C   0  0  0  0  0  0  0  0  0  0  0  0
   -8.3270    5.1230  -16.9550 N   0  0  0  0  0  0  0  0  0  0  0  0
   -9.6870    4.9250  -16.9500 N   0  0  0  0  0  0  0  0  0  0  0  0
  -10.2460    4.7710  -18.1910 C   0  0  0  0  0  0  0  0  0  0  0  0
   -9.1970    4.8660  -19.1040 C   0  0  0  0  0  0  0  0  0  0  0  0
   -6.4420    4.6940  -15.9300 H   0  0  0  0  0  0  0  0  0  0  0  0
   -6.0910    6.4270  -15.9550 H   0  0  0  0  0  0  0  0  0  0  0  0
   -4.7520    5.2830  -15.7930 H   0  0  0  0  0  0  0  0  0  0  0  0
   -3.3710    5.6450  -17.5240 H   0  0  0  0  0  0  0  0  0  0  0  0
   -2.8810    5.5920  -19.9760 H   0  0  0  0  0  0  0  0  0  0  0  0
   -4.6460    5.3340  -21.5790 H   0  0  0  0  0  0  0  0  0  0  0  0
   -7.0620    5.0980  -20.8360 H   0  0  0  0  0  0  0  0  0  0  0  0
  -10.1550    4.9090  -16.0480 H   0  0  0  0  0  0  0  0  0  0  0  0
  -11.3040    4.6110  -18.3210 H   0  0  0  0  0  0  0  0  0  0  0  0
   -9.4140    4.7680  -20.1740 H   0  0  0  0  0  0  0  0  0  0  0  0
  1  2  1  0
  2  3  2  0
  3  4  1  0
  4  5  2  0
  5  6  1  0
  6  7  2  0
  7  8  1  0
  8  9  2  0
  9 10  1  0
 10 11  1  0
 11 12  2  0
  7  2  1  0
 12  8  1  0
  1 13  1  0
  1 14  1  0
  1 15  1  0
  3 16  1  0
  4 17  1  0
  5 18  1  0
  6 19  1  0
 10 20  1  0
 11 21  1  0
 12 22  1  0
A    1
 C1 
A    2
 C2 
A    3
 C3 
A    4
 C4 
A    5
 C5 
A    6
 C6 
A    7
 C7 
A    8
 C8 
A    9
 N1 
A   10
 N2 
A   11
 C9 
A   12
 C10
A   13
 H1 
A   14
 H2 
A   15
 H3 
A   16
 H4 
A   17
 H5 
A   18
 H6 
A   19
 H7 
A   20
 H8 
A   21
 H9 
A   22
 H10
M  END
>  <ref_pdb>  (442) 
x0051_0B

>  <ref_mols>  (442) 
x0680_0B,x0386_0B

>  <original SMILES>  (442) 
[H]c1c([H])c([H])c(C([H])([H])[H])c(-c2nn([H])c([H])c2[H])c1[H]

>  <index>  (442) 
683

>  <∆∆G>  (442) 
-6.457289

>  <∆G_bound>  (442) 
-6.517018

>  <∆G_unbound>  (442) 
-0.059729

>  <comRMSD>  (442) 
0.560208

>  <N_constrained_atoms>  (442) 
13.0

>  <N_unconstrained_atoms>  (442) 
0.0

>  <runtime>  (442) 
25.533092

>  <LE>  (442) 
0.496715

>  <percent_hybrid>  (442) 
25.0

>  <dist>  (442) 
3.0

>  <ecfp4>  (442) 
0.25

>  <daylight>  (442) 
0.18705

>  <topodist>  (442) 
0.0

>  <mces>  (442) 
13.0

>  <tdn>  (442) 
0.0

>  <tup>  (442) 
0.0

>  <rdn>  (442) 
0.0

>  <rup>  (442) 
0.0

>  <ldn>  (442) 
0.0

>  <lup>  (442) 
0.0

>  <mut>  (442) 
3.0

>  <maj>  (442) 
3.0

>  <min>  (442) 
0.0

>  <hyb>  (442) 
0.0

>  <sub>  (442) 
0.0

>  <query_index>  (442) 
296.0

>  <max_hit_Tanimoto>  (442) 
0.117647

>  <largest_ring>  (442) 
6

>  <N_interactions_kept>  (442) 
2.0

>  <N_interactions_lost>  (442) 
2.0

>  <interaction_uniqueness_metric>  (442) 
0.044868

>  <ad_hoc_penalty>  (442) 
-19.20535

>  <N_rotatable_bonds>  (442) 
2

>  <N_HA>  (442) 
12

>  <cluster>  (442) 
5592

>  <N_interactions>  (442) 
5

>  <Enamine>  (442) 
1

>  <Mcule>  (442) 
0

>  <N_PAINS>  (442) 
0

>  <UFF_Gibbs>  (442) 
33.378199

>  <strain_per_HA>  (442) 
2.781517

>  <intxn_scored>  (442) 
7.5

>  <saltbridge:HIS:51>  (442) 
0

>  <pistack:HIS:51>  (442) 
0

>  <hydroph_interaction:HIS:51>  (442) 
0

>  <hbond:ALA:132>  (442) 
0

>  <hbond:SER:135>  (442) 
0

>  <hydroph_interaction:TYR:150>  (442) 
1

>  <pistack:TYR:161>  (442) 
1

>  <hydroph_interaction:TYR:161>  (442) 
3

>  <hydroph_interaction:ASP:83>  (442) 
0

>  <hbond:TYR:130>  (442) 
0

>  <hydroph_interaction:ALA:132>  (442) 
0

>  <hbond:HIS:51>  (442) 
0

>  <hbond:ASP:129>  (442) 
0

>  <hbond:TYR:150>  (442) 
0

>  <hbond:GLY:151>  (442) 
0

>  <hbond:TYR:161>  (442) 
0

>  <hydroph_interaction:TYR:130>  (442) 
0

>  <hydroph_interaction:PRO:131>  (442) 
0

>  <hydroph_interaction:ASP:129>  (442) 
0

>  <saltbridge:ASP:75>  (442) 
0

>  <saltbridge:ASP:83>  (442) 
0

>  <hbond:ASN:152>  (442) 
0

>  <hydroph_interaction:ASN:152>  (442) 
0

>  <halogenbond:TYR:150>  (442) 
0

>  <hbond:ASP:83>  (442) 
0

>  <hydroph_interaction:VAL:155>  (442) 
0

>  <pication:TYR:161>  (442) 
0

>  <hbond:PRO:131>  (442) 
0

>  <saltbridge:ASP:129>  (442) 
0

>  <hbond:THR:134>  (442) 
0

>  <pication:HIS:51>  (442) 
0

>  <hbond:SER:81>  (442) 
0

>  <hydroph_interaction:THR:134>  (442) 
0

>  <hydroph_interaction:MET:49>  (442) 
0

$$$$
PV-002754135817
     RDKit          3D

 24 24  0  0  0  0  0  0  0  0999 V2000
   -8.3370    5.5390  -15.2320 C   0  0  0  0  0  0  0  0  0  0  0  0
   -9.2350    5.1600  -16.3610 C   0  0  0  0  0  0  0  0  0  0  0  0
   -8.8860    5.0080  -17.6930 C   0  0  0  0  0  0  0  0  0  0  0  0
   -9.8170    4.6490  -18.6660 C   0  0  0  0  0  0  0  0  0  0  0  0
   -7.5090    5.2030  -18.1560 C   0  0  0  0  0  0  0  0  0  0  0  0
   -6.3440    5.0920  -17.1920 C   0  0  0  0  0  0  0  0  0  0  0  0
   -5.0430    5.2670  -17.6290 C   0  0  0  0  0  0  0  0  0  0  0  0
   -3.9180    5.1420  -16.6710 C   0  0  0  0  0  0  0  0  0  0  0  0
   -4.9370    5.5600  -19.0320 C   0  0  0  0  0  0  0  0  0  0  0  0
   -6.0540    5.6480  -19.8470 C   0  0  0  0  0  0  0  0  0  0  0  0
   -7.3270    5.4780  -19.4470 N   0  0  0  0  0  0  0  0  0  0  0  0
   -7.6320    6.3110  -15.5520 H   0  0  0  0  0  0  0  0  0  0  0  0
   -8.9040    5.9390  -14.3850 H   0  0  0  0  0  0  0  0  0  0  0  0
   -7.7890    4.6590  -14.8770 H   0  0  0  0  0  0  0  0  0  0  0  0
  -10.2760    4.9900  -16.0820 H   0  0  0  0  0  0  0  0  0  0  0  0
   -9.7980    3.6290  -19.0240 H   0  0  0  0  0  0  0  0  0  0  0  0
   -9.7130    5.2830  -19.5560 H   0  0  0  0  0  0  0  0  0  0  0  0
  -10.8270    4.8420  -18.2820 H   0  0  0  0  0  0  0  0  0  0  0  0
   -6.5350    4.8650  -16.1480 H   0  0  0  0  0  0  0  0  0  0  0  0
   -3.1650    4.4650  -17.0920 H   0  0  0  0  0  0  0  0  0  0  0  0
   -4.2780    4.6490  -15.7610 H   0  0  0  0  0  0  0  0  0  0  0  0
   -3.4030    6.0470  -16.3650 H   0  0  0  0  0  0  0  0  0  0  0  0
   -3.9590    5.7140  -19.4800 H   0  0  0  0  0  0  0  0  0  0  0  0
   -5.9460    5.8700  -20.9040 H   0  0  0  0  0  0  0  0  0  0  0  0
  1  2  1  0
  2  3  2  3
  3  4  1  0
  3  5  1  0
  5  6  2  0
  6  7  1  0
  7  8  1  0
  7  9  2  0
  9 10  1  0
 10 11  2  0
 11  5  1  0
  1 12  1  0
  1 13  1  0
  1 14  1  0
  2 15  1  0
  4 16  1  0
  4 17  1  0
  4 18  1  0
  6 19  1  0
  8 20  1  0
  8 21  1  0
  8 22  1  0
  9 23  1  0
 10 24  1  0
A    1
 C1 
A    2
 C2 
A    3
 C3 
A    4
 C4 
A    5
 C5 
A    6
 C6 
A    7
 C7 
A    8
 C8 
A    9
 C9 
A   10
 C10
A   11
 N1 
A   12
 H1 
A   13
 H2 
A   14
 H3 
A   15
 H4 
A   16
 H5 
A   17
 H6 
A   18
 H7 
A   19
 H8 
A   20
 H9 
A   21
 H10
A   22
 H11
A   23
 H12
A   24
 H13
M  END
>  <ref_pdb>  (443) 
x0051_0B

>  <ref_mols>  (443) 
x0425_0B,x0969_0B

>  <original SMILES>  (443) 
[H]C(=C(c1nc([H])c([H])c(C([H])([H])[H])c1[H])C([H])([H])[H])C([H])([H])[H]

>  <index>  (443) 
2611

>  <∆∆G>  (443) 
-7.443436

>  <∆G_bound>  (443) 
-7.827065

>  <∆G_unbound>  (443) 
-0.38363

>  <comRMSD>  (443) 
0.658213

>  <N_constrained_atoms>  (443) 
13.0

>  <N_unconstrained_atoms>  (443) 
0.0

>  <runtime>  (443) 
26.01976

>  <LE>  (443) 
0.572572

>  <percent_hybrid>  (443) 
40.0

>  <dist>  (443) 
3.0

>  <ecfp4>  (443) 
0.270833

>  <daylight>  (443) 
0.237288

>  <topodist>  (443) 
2.0

>  <mces>  (443) 
11.0

>  <tdn>  (443) 
1.0

>  <tup>  (443) 
0.0

>  <rdn>  (443) 
1.0

>  <rup>  (443) 
0.0

>  <ldn>  (443) 
0.0

>  <lup>  (443) 
0.0

>  <mut>  (443) 
1.0

>  <maj>  (443) 
1.0

>  <min>  (443) 
0.0

>  <hyb>  (443) 
0.0

>  <sub>  (443) 
2.0

>  <query_index>  (443) 
188.0

>  <max_hit_Tanimoto>  (443) 
0.169892

>  <largest_ring>  (443) 
6

>  <N_interactions_kept>  (443) 
0.0

>  <N_interactions_lost>  (443) 
3.0

>  <interaction_uniqueness_metric>  (443) 
0.044868

>  <ad_hoc_penalty>  (443) 
-3.551472

>  <N_rotatable_bonds>  (443) 
4

>  <N_HA>  (443) 
11

>  <cluster>  (443) 
3813

>  <N_interactions>  (443) 
5

>  <Enamine>  (443) 
1

>  <Mcule>  (443) 
0

>  <N_PAINS>  (443) 
0

>  <UFF_Gibbs>  (443) 
59.906884

>  <strain_per_HA>  (443) 
5.44608

>  <intxn_scored>  (443) 
7.5

>  <saltbridge:HIS:51>  (443) 
0

>  <pistack:HIS:51>  (443) 
0

>  <hydroph_interaction:HIS:51>  (443) 
0

>  <hbond:ALA:132>  (443) 
0

>  <hbond:SER:135>  (443) 
0

>  <hydroph_interaction:TYR:150>  (443) 
1

>  <pistack:TYR:161>  (443) 
1

>  <hydroph_interaction:TYR:161>  (443) 
3

>  <hydroph_interaction:ASP:83>  (443) 
0

>  <hbond:TYR:130>  (443) 
0

>  <hydroph_interaction:ALA:132>  (443) 
0

>  <hbond:HIS:51>  (443) 
0

>  <hbond:ASP:129>  (443) 
0

>  <hbond:TYR:150>  (443) 
0

>  <hbond:GLY:151>  (443) 
0

>  <hbond:TYR:161>  (443) 
0

>  <hydroph_interaction:TYR:130>  (443) 
0

>  <hydroph_interaction:PRO:131>  (443) 
0

>  <hydroph_interaction:ASP:129>  (443) 
0

>  <saltbridge:ASP:75>  (443) 
0

>  <saltbridge:ASP:83>  (443) 
0

>  <hbond:ASN:152>  (443) 
0

>  <hydroph_interaction:ASN:152>  (443) 
0

>  <halogenbond:TYR:150>  (443) 
0

>  <hbond:ASP:83>  (443) 
0

>  <hydroph_interaction:VAL:155>  (443) 
0

>  <pication:TYR:161>  (443) 
0

>  <hbond:PRO:131>  (443) 
0

>  <saltbridge:ASP:129>  (443) 
0

>  <hbond:THR:134>  (443) 
0

>  <pication:HIS:51>  (443) 
0

>  <hbond:SER:81>  (443) 
0

>  <hydroph_interaction:THR:134>  (443) 
0

>  <hydroph_interaction:MET:49>  (443) 
0

$$$$
Z2782231880
     RDKit          3D

 41 43  0  0  0  0  0  0  0  0999 V2000
  -10.5870    4.6630  -18.4310 C   0  0  0  0  0  0  0  0  0  0  0  0
   -9.2830    4.9360  -17.8110 C   0  0  0  0  0  0  0  0  0  0  0  0
   -8.1670    5.1680  -18.6270 C   0  0  0  0  0  0  0  0  0  0  0  0
   -6.9130    5.4290  -18.1030 C   0  0  0  0  0  0  0  0  0  0  0  0
   -5.8340    5.6520  -18.9460 C   0  0  0  0  0  0  0  0  0  0  0  0
   -6.7840    5.4520  -16.6690 C   0  0  0  0  0  0  0  0  0  0  0  0
   -7.8740    5.2230  -15.8460 C   0  0  0  0  0  0  0  0  0  0  0  0
   -7.4760    5.2840  -14.4390 O   0  0  0  0  0  0  0  0  0  0  0  0
   -8.1720    6.0020  -13.4830 C   0  0  0  0  0  0  0  0  0  0  0  0
   -8.1550    7.2270  -13.3920 O   0  0  0  0  0  0  0  0  0  0  0  0
   -8.9600    5.0810  -12.5230 C   0  0  0  0  0  0  0  0  0  0  0  0
   -8.9030    5.3300  -10.9810 C   0  0  0  0  0  0  0  0  0  0  0  0
   -8.9820    4.3560   -9.9990 C   0  0  0  0  0  0  0  0  0  0  0  0
   -9.1280    2.8770  -10.1010 C   0  0  0  0  0  0  0  0  0  0  0  0
   -9.4190    2.2310   -8.7930 C   0  0  0  0  0  0  0  0  0  0  0  0
   -9.4730    2.9310   -7.5410 C   0  0  0  0  0  0  0  0  0  0  0  0
   -8.9550    4.3640   -7.4790 C   0  0  0  0  0  0  0  0  0  0  0  0
   -8.9050    4.9950   -8.7870 N   0  0  0  0  0  0  0  0  0  0  0  0
   -8.7740    6.3300   -8.9020 N   0  0  0  0  0  0  0  0  0  0  0  0
   -8.7730    6.5360  -10.2320 C   0  0  0  0  0  0  0  0  0  0  0  0
   -9.1430    4.9640  -16.3940 C   0  0  0  0  0  0  0  0  0  0  0  0
  -10.8970    5.4850  -19.0830 H   0  0  0  0  0  0  0  0  0  0  0  0
  -11.3400    4.5070  -17.6820 H   0  0  0  0  0  0  0  0  0  0  0  0
  -10.4800    3.7700  -19.0210 H   0  0  0  0  0  0  0  0  0  0  0  0
   -8.2790    5.1460  -19.7110 H   0  0  0  0  0  0  0  0  0  0  0  0
   -5.7860    6.7250  -19.1620 H   0  0  0  0  0  0  0  0  0  0  0  0
   -4.8460    5.3580  -18.5960 H   0  0  0  0  0  0  0  0  0  0  0  0
   -5.9520    5.1580  -19.9140 H   0  0  0  0  0  0  0  0  0  0  0  0
   -5.8520    5.6410  -16.1220 H   0  0  0  0  0  0  0  0  0  0  0  0
   -8.6280    4.0540  -12.7250 H   0  0  0  0  0  0  0  0  0  0  0  0
  -10.0030    5.1000  -12.8420 H   0  0  0  0  0  0  0  0  0  0  0  0
   -9.9330    2.6290  -10.8030 H   0  0  0  0  0  0  0  0  0  0  0  0
   -8.2080    2.4550  -10.5220 H   0  0  0  0  0  0  0  0  0  0  0  0
   -8.7240    1.4030   -8.6800 H   0  0  0  0  0  0  0  0  0  0  0  0
  -10.3840    1.7640   -8.8700 H   0  0  0  0  0  0  0  0  0  0  0  0
  -10.5150    2.9240   -7.1980 H   0  0  0  0  0  0  0  0  0  0  0  0
   -8.9230    2.3520   -6.8110 H   0  0  0  0  0  0  0  0  0  0  0  0
   -9.6120    4.9790   -6.8580 H   0  0  0  0  0  0  0  0  0  0  0  0
   -7.9440    4.3840   -7.0550 H   0  0  0  0  0  0  0  0  0  0  0  0
   -8.6810    7.5630  -10.6060 H   0  0  0  0  0  0  0  0  0  0  0  0
   -9.9970    4.7850  -15.7450 H   0  0  0  0  0  0  0  0  0  0  0  0
  1  2  1  0
  2  3  2  0
  3  4  1  0
  4  5  1  0
  4  6  2  0
  6  7  1  0
  7  8  1  0
  8  9  1  0
  9 10  2  0
  9 11  1  0
 11 12  1  0
 12 13  2  0
 13 14  1  0
 14 15  1  0
 15 16  1  0
 16 17  1  0
 17 18  1  0
 18 19  1  0
 19 20  2  0
  7 21  2  0
 21  2  1  0
 20 12  1  0
 18 13  1  0
  1 22  1  0
  1 23  1  0
  1 24  1  0
  3 25  1  0
  5 26  1  0
  5 27  1  0
  5 28  1  0
  6 29  1  0
 11 30  1  0
 11 31  1  0
 14 32  1  0
 14 33  1  0
 15 34  1  0
 15 35  1  0
 16 36  1  0
 16 37  1  0
 17 38  1  0
 17 39  1  0
 20 40  1  0
 21 41  1  0
A    1
 C1 
A    2
 C2 
A    3
 C3 
A    4
 C4 
A    5
 C5 
A    6
 C6 
A    7
 C7 
A    8
 O1 
A    9
 C8 
A   10
 O2 
A   11
 C9 
A   12
 C10
A   13
 C11
A   14
 C12
A   15
 C13
A   16
 C14
A   17
 C15
A   18
 N1 
A   19
 N2 
A   20
 C16
A   21
 C17
A   22
 H1 
A   23
 H2 
A   24
 H3 
A   25
 H4 
A   26
 H5 
A   27
 H6 
A   28
 H7 
A   29
 H8 
A   30
 H9 
A   31
 H10
A   32
 H11
A   33
 H12
A   34
 H13
A   35
 H14
A   36
 H15
A   37
 H16
A   38
 H17
A   39
 H18
A   40
 H19
A   41
 H20
M  END
>  <ref_pdb>  (444) 
x0051_0B

>  <ref_mols>  (444) 
x0589_0B,x0969_1B

>  <original SMILES>  (444) 
[H]c1nn2c(c1C([H])([H])C(=O)Oc1c([H])c(C([H])([H])[H])c([H])c(C([H])([H])[H])c1[H])C([H])([H])C([H])([H])C([H])([H])C2([H])[H]

>  <index>  (444) 
488

>  <∆∆G>  (444) 
-8.696989

>  <∆G_bound>  (444) 
-7.719679

>  <∆G_unbound>  (444) 
0.97731

>  <comRMSD>  (444) 
0.528835

>  <N_constrained_atoms>  (444) 
18.0

>  <N_unconstrained_atoms>  (444) 
3.0

>  <runtime>  (444) 
51.337618

>  <LE>  (444) 
0.414142

>  <percent_hybrid>  (444) 
45.0

>  <dist>  (444) 
4.0

>  <ecfp4>  (444) 
0.393939

>  <daylight>  (444) 
0.476

>  <topodist>  (444) 
1.0

>  <mces>  (444) 
22.0

>  <tdn>  (444) 
0.0

>  <tup>  (444) 
1.0

>  <rdn>  (444) 
0.0

>  <rup>  (444) 
0.0

>  <ldn>  (444) 
0.0

>  <lup>  (444) 
0.0

>  <mut>  (444) 
2.0

>  <maj>  (444) 
2.0

>  <min>  (444) 
0.0

>  <hyb>  (444) 
1.0

>  <sub>  (444) 
0.0

>  <query_index>  (444) 
379.0

>  <max_hit_Tanimoto>  (444) 
0.308247

>  <largest_ring>  (444) 
0

>  <N_interactions_kept>  (444) 
1.5

>  <N_interactions_lost>  (444) 
1.0

>  <interaction_uniqueness_metric>  (444) 
0.066414

>  <ad_hoc_penalty>  (444) 
-21.429825

>  <N_rotatable_bonds>  (444) 
5

>  <N_HA>  (444) 
21

>  <cluster>  (444) 
5773

>  <N_interactions>  (444) 
4

>  <Enamine>  (444) 
1

>  <Mcule>  (444) 
0

>  <N_PAINS>  (444) 
0

>  <UFF_Gibbs>  (444) 
71.351022

>  <strain_per_HA>  (444) 
3.397668

>  <intxn_scored>  (444) 
7.5

>  <saltbridge:HIS:51>  (444) 
0

>  <pistack:HIS:51>  (444) 
1

>  <hydroph_interaction:HIS:51>  (444) 
0

>  <hbond:ALA:132>  (444) 
0

>  <hbond:SER:135>  (444) 
0

>  <hydroph_interaction:TYR:150>  (444) 
1

>  <pistack:TYR:161>  (444) 
1

>  <hydroph_interaction:TYR:161>  (444) 
1

>  <hydroph_interaction:ASP:83>  (444) 
0

>  <hbond:TYR:130>  (444) 
0

>  <hydroph_interaction:ALA:132>  (444) 
0

>  <hbond:HIS:51>  (444) 
0

>  <hbond:ASP:129>  (444) 
0

>  <hbond:TYR:150>  (444) 
0

>  <hbond:GLY:151>  (444) 
0

>  <hbond:TYR:161>  (444) 
0

>  <hydroph_interaction:TYR:130>  (444) 
0

>  <hydroph_interaction:PRO:131>  (444) 
0

>  <hydroph_interaction:ASP:129>  (444) 
0

>  <saltbridge:ASP:75>  (444) 
0

>  <saltbridge:ASP:83>  (444) 
0

>  <hbond:ASN:152>  (444) 
0

>  <hydroph_interaction:ASN:152>  (444) 
0

>  <halogenbond:TYR:150>  (444) 
0

>  <hbond:ASP:83>  (444) 
0

>  <hydroph_interaction:VAL:155>  (444) 
0

>  <pication:TYR:161>  (444) 
0

>  <hbond:PRO:131>  (444) 
0

>  <saltbridge:ASP:129>  (444) 
0

>  <hbond:THR:134>  (444) 
0

>  <pication:HIS:51>  (444) 
0

>  <hbond:SER:81>  (444) 
0

>  <hydroph_interaction:THR:134>  (444) 
0

>  <hydroph_interaction:MET:49>  (444) 
0

$$$$
PV-002967303923
     RDKit          3D

 29 30  0  0  0  0  0  0  0  0999 V2000
   -3.2240    4.3710  -15.3400 C   0  0  0  0  0  0  0  0  0  0  0  0
   -2.7350    5.2910  -16.4840 C   0  0  0  0  0  0  0  0  0  0  0  0
   -3.7380    5.2340  -17.6360 C   0  0  2  0  0  0  0  0  0  0  0  0
   -3.3070    6.0730  -18.8440 C   0  0  0  0  0  0  0  0  0  0  0  0
   -5.1120    5.6810  -17.1270 C   0  0  0  0  0  0  0  0  0  0  0  0
   -6.1590    5.4860  -18.0950 N   0  0  0  0  0  0  0  0  0  0  0  0
   -5.8770    5.5100  -19.4140 N   0  0  0  0  0  0  0  0  0  0  0  0
   -7.0080    5.3050  -20.0670 N   0  0  0  0  0  0  0  0  0  0  0  0
   -7.9960    5.1530  -19.1390 C   0  0  0  0  0  0  0  0  0  0  0  0
   -9.4370    4.9040  -19.2930 C   0  0  0  0  0  0  0  0  0  0  0  0
  -10.2690    4.7790  -18.1910 C   0  0  0  0  0  0  0  0  0  0  0  0
   -9.6310    4.9120  -16.8170 C   0  0  0  0  0  0  0  0  0  0  0  0
   -8.2550    5.1520  -16.6880 C   0  0  0  0  0  0  0  0  0  0  0  0
   -7.4790    5.2650  -17.8560 C   0  0  0  0  0  0  0  0  0  0  0  0
   -3.0250    3.3230  -15.5640 H   0  0  0  0  0  0  0  0  0  0  0  0
   -4.2990    4.4820  -15.1730 H   0  0  0  0  0  0  0  0  0  0  0  0
   -2.7210    4.5910  -14.3960 H   0  0  0  0  0  0  0  0  0  0  0  0
   -2.7140    6.3200  -16.1020 H   0  0  0  0  0  0  0  0  0  0  0  0
   -1.7330    4.9990  -16.8130 H   0  0  0  0  0  0  0  0  0  0  0  0
   -3.8380    4.2140  -17.9960 H   0  0  0  0  0  0  0  0  0  0  0  0
   -3.2790    5.4720  -19.7660 H   0  0  0  0  0  0  0  0  0  0  0  0
   -2.3100    6.5090  -18.6810 H   0  0  0  0  0  0  0  0  0  0  0  0
   -4.0040    6.9130  -18.9810 H   0  0  0  0  0  0  0  0  0  0  0  0
   -5.3960    5.1120  -16.2400 H   0  0  0  0  0  0  0  0  0  0  0  0
   -5.1120    6.7400  -16.8510 H   0  0  0  0  0  0  0  0  0  0  0  0
   -9.8410    4.8210  -20.3050 H   0  0  0  0  0  0  0  0  0  0  0  0
  -11.3360    4.5940  -18.3070 H   0  0  0  0  0  0  0  0  0  0  0  0
  -10.2420    4.8200  -15.9240 H   0  0  0  0  0  0  0  0  0  0  0  0
   -7.8100    5.2440  -15.7010 H   0  0  0  0  0  0  0  0  0  0  0  0
  1  2  1  0
  2  3  1  0
  3  4  1  0
  3  5  1  0
  5  6  1  0
  6  7  1  0
  7  8  2  0
  8  9  1  0
  9 10  2  0
 10 11  1  0
 11 12  2  0
 12 13  1  0
 13 14  2  0
 14  6  1  0
 14  9  1  0
  1 15  1  0
  1 16  1  0
  1 17  1  0
  2 18  1  0
  2 19  1  0
  3 20  1  6
  4 21  1  0
  4 22  1  0
  4 23  1  0
  5 24  1  0
  5 25  1  0
 10 26  1  0
 11 27  1  0
 12 28  1  0
 13 29  1  0
A    1
 C1 
A    2
 C2 
A    3
 C3 
A    4
 C4 
A    5
 C5 
A    6
 N1 
A    7
 N2 
A    8
 N3 
A    9
 C6 
A   10
 C7 
A   11
 C8 
A   12
 C9 
A   13
 C10
A   14
 C11
A   15
 H1 
A   16
 H2 
A   17
 H3 
A   18
 H4 
A   19
 H5 
A   20
 H6 
A   21
 H7 
A   22
 H8 
A   23
 H9 
A   24
 H10
A   25
 H11
A   26
 H12
A   27
 H13
A   28
 H14
A   29
 H15
M  END
>  <ref_pdb>  (445) 
x0051_0B

>  <ref_mols>  (445) 
x0490_0B,x0472_0B

>  <original SMILES>  (445) 
[H]c1c([H])c([H])c2c(nnn2C([H])([H])[C@@]([H])(C([H])([H])[H])C([H])([H])C([H])([H])[H])c1[H]

>  <index>  (445) 
2438

>  <∆∆G>  (445) 
-6.724614

>  <∆G_bound>  (445) 
-6.752047

>  <∆G_unbound>  (445) 
-0.027432

>  <comRMSD>  (445) 
0.443007

>  <N_constrained_atoms>  (445) 
16.0

>  <N_unconstrained_atoms>  (445) 
0.0

>  <runtime>  (445) 
23.248045

>  <LE>  (445) 
0.420288

>  <percent_hybrid>  (445) 
38.0

>  <dist>  (445) 
2.0

>  <ecfp4>  (445) 
0.375

>  <daylight>  (445) 
0.333333

>  <topodist>  (445) 
0.0

>  <mces>  (445) 
15.0

>  <tdn>  (445) 
0.0

>  <tup>  (445) 
0.0

>  <rdn>  (445) 
0.0

>  <rup>  (445) 
0.0

>  <ldn>  (445) 
0.0

>  <lup>  (445) 
0.0

>  <mut>  (445) 
2.0

>  <maj>  (445) 
2.0

>  <min>  (445) 
0.0

>  <hyb>  (445) 
0.0

>  <sub>  (445) 
0.0

>  <query_index>  (445) 
228.0

>  <max_hit_Tanimoto>  (445) 
0.280142

>  <largest_ring>  (445) 
6

>  <N_interactions_kept>  (445) 
1.0

>  <N_interactions_lost>  (445) 
3.0

>  <interaction_uniqueness_metric>  (445) 
0.078036

>  <ad_hoc_penalty>  (445) 
-5.436961

>  <N_rotatable_bonds>  (445) 
5

>  <N_HA>  (445) 
14

>  <cluster>  (445) 
3975

>  <N_interactions>  (445) 
6

>  <Enamine>  (445) 
1

>  <Mcule>  (445) 
0

>  <N_PAINS>  (445) 
0

>  <UFF_Gibbs>  (445) 
66.888279

>  <strain_per_HA>  (445) 
4.777734

>  <intxn_scored>  (445) 
7.5

>  <saltbridge:HIS:51>  (445) 
0

>  <pistack:HIS:51>  (445) 
0

>  <hydroph_interaction:HIS:51>  (445) 
0

>  <hbond:ALA:132>  (445) 
0

>  <hbond:SER:135>  (445) 
0

>  <hydroph_interaction:TYR:150>  (445) 
1

>  <pistack:TYR:161>  (445) 
1

>  <hydroph_interaction:TYR:161>  (445) 
3

>  <hydroph_interaction:ASP:83>  (445) 
0

>  <hbond:TYR:130>  (445) 
0

>  <hydroph_interaction:ALA:132>  (445) 
0

>  <hbond:HIS:51>  (445) 
0

>  <hbond:ASP:129>  (445) 
0

>  <hbond:TYR:150>  (445) 
0

>  <hbond:GLY:151>  (445) 
0

>  <hbond:TYR:161>  (445) 
0

>  <hydroph_interaction:TYR:130>  (445) 
0

>  <hydroph_interaction:PRO:131>  (445) 
0

>  <hydroph_interaction:ASP:129>  (445) 
0

>  <saltbridge:ASP:75>  (445) 
0

>  <saltbridge:ASP:83>  (445) 
0

>  <hbond:ASN:152>  (445) 
0

>  <hydroph_interaction:ASN:152>  (445) 
0

>  <halogenbond:TYR:150>  (445) 
0

>  <hbond:ASP:83>  (445) 
0

>  <hydroph_interaction:VAL:155>  (445) 
1

>  <pication:TYR:161>  (445) 
0

>  <hbond:PRO:131>  (445) 
0

>  <saltbridge:ASP:129>  (445) 
0

>  <hbond:THR:134>  (445) 
0

>  <pication:HIS:51>  (445) 
0

>  <hbond:SER:81>  (445) 
0

>  <hydroph_interaction:THR:134>  (445) 
0

>  <hydroph_interaction:MET:49>  (445) 
0

$$$$
Z4453659916
     RDKit          3D

 41 43  0  0  0  0  0  0  0  0999 V2000
   -5.7670    5.5940  -19.0810 C   0  0  0  0  0  0  0  0  0  0  0  0
   -6.9150    5.3570  -18.1570 C   0  0  0  0  0  0  0  0  0  0  0  0
   -8.1680    5.1450  -18.6780 C   0  0  0  0  0  0  0  0  0  0  0  0
   -9.2910    4.9130  -17.7150 C   0  0  0  0  0  0  0  0  0  0  0  0
  -10.5590    4.7010  -18.4010 C   0  0  0  0  0  0  0  0  0  0  0  0
   -9.0790    4.9100  -16.3380 C   0  0  0  0  0  0  0  0  0  0  0  0
   -7.7780    5.1240  -15.8440 C   0  0  0  0  0  0  0  0  0  0  0  0
   -7.4150    5.1290  -14.3440 C   0  0  0  0  0  0  0  0  0  0  0  0
   -8.5600    4.8420  -13.4110 C   0  0  0  0  0  0  0  0  0  0  0  0
   -8.8050    6.2750  -12.3090 S   0  0  0  0  0  0  0  0  0  0  0  0
   -8.8740    5.8030  -10.6220 C   0  0  0  0  0  0  0  0  0  0  0  0
   -9.0260    4.4950   -9.9310 C   0  0  0  0  0  0  0  0  0  0  0  0
   -9.1530    3.1930  -10.3920 C   0  0  0  0  0  0  0  0  0  0  0  0
   -8.9280    2.2090   -9.3250 N   0  0  0  0  0  0  0  0  0  0  0  0
   -9.6330    2.5470   -8.0760 C   0  0  0  0  0  0  0  0  0  0  0  0
   -9.1770    3.8850   -7.5170 C   0  0  0  0  0  0  0  0  0  0  0  0
   -9.0270    4.8280   -8.6000 N   0  0  0  0  0  0  0  0  0  0  0  0
   -8.8800    6.1360   -8.3430 N   0  0  0  0  0  0  0  0  0  0  0  0
   -8.7910    6.7130   -9.5480 C   0  0  0  0  0  0  0  0  0  0  0  0
   -6.7280    5.3450  -16.7630 C   0  0  0  0  0  0  0  0  0  0  0  0
   -5.9280    5.0630  -20.0190 H   0  0  0  0  0  0  0  0  0  0  0  0
   -5.6720    6.6660  -19.2700 H   0  0  0  0  0  0  0  0  0  0  0  0
   -4.8410    5.2210  -18.6350 H   0  0  0  0  0  0  0  0  0  0  0  0
   -8.3500    5.1440  -19.7510 H   0  0  0  0  0  0  0  0  0  0  0  0
  -10.8520    5.4330  -19.1500 H   0  0  0  0  0  0  0  0  0  0  0  0
  -11.4180    4.5310  -17.7870 H   0  0  0  0  0  0  0  0  0  0  0  0
  -10.3970    3.7690  -18.9070 H   0  0  0  0  0  0  0  0  0  0  0  0
   -9.9120    4.7400  -15.6600 H   0  0  0  0  0  0  0  0  0  0  0  0
   -6.6520    4.3570  -14.1840 H   0  0  0  0  0  0  0  0  0  0  0  0
   -6.9610    6.0860  -14.0710 H   0  0  0  0  0  0  0  0  0  0  0  0
   -9.4940    4.6960  -13.9640 H   0  0  0  0  0  0  0  0  0  0  0  0
   -8.3590    3.9480  -12.8120 H   0  0  0  0  0  0  0  0  0  0  0  0
   -8.4190    2.9990  -11.1800 H   0  0  0  0  0  0  0  0  0  0  0  0
  -10.1330    3.0270  -10.8370 H   0  0  0  0  0  0  0  0  0  0  0  0
   -7.9260    2.2140   -9.1470 H   0  0  0  0  0  0  0  0  0  0  0  0
  -10.7080    2.5770   -8.2620 H   0  0  0  0  0  0  0  0  0  0  0  0
   -9.4670    1.7550   -7.3360 H   0  0  0  0  0  0  0  0  0  0  0  0
   -8.2230    3.8020   -6.9980 H   0  0  0  0  0  0  0  0  0  0  0  0
   -9.9250    4.3010   -6.8350 H   0  0  0  0  0  0  0  0  0  0  0  0
   -8.6720    7.7880   -9.5890 H   0  0  0  0  0  0  0  0  0  0  0  0
   -5.7180    5.5130  -16.3720 H   0  0  0  0  0  0  0  0  0  0  0  0
  1  2  1  0
  2  3  2  0
  3  4  1  0
  4  5  1  0
  4  6  2  0
  6  7  1  0
  7  8  1  0
  8  9  1  0
  9 10  1  0
 10 11  1  0
 11 12  2  0
 12 13  1  0
 13 14  1  0
 14 15  1  0
 15 16  1  0
 16 17  1  0
 17 18  1  0
 18 19  2  0
  7 20  2  0
 20  2  1  0
 19 11  1  0
 17 12  1  0
  1 21  1  0
  1 22  1  0
  1 23  1  0
  3 24  1  0
  5 25  1  0
  5 26  1  0
  5 27  1  0
  6 28  1  0
  8 29  1  0
  8 30  1  0
  9 31  1  0
  9 32  1  0
 13 33  1  0
 13 34  1  0
 14 35  1  0
 15 36  1  0
 15 37  1  0
 16 38  1  0
 16 39  1  0
 19 40  1  0
 20 41  1  0
A    1
 C1 
A    2
 C2 
A    3
 C3 
A    4
 C4 
A    5
 C5 
A    6
 C6 
A    7
 C7 
A    8
 C8 
A    9
 C9 
A   10
 S1 
A   11
 C10
A   12
 C11
A   13
 C12
A   14
 N1 
A   15
 C13
A   16
 C14
A   17
 N2 
A   18
 N3 
A   19
 C15
A   20
 C16
A   21
 H1 
A   22
 H2 
A   23
 H3 
A   24
 H4 
A   25
 H5 
A   26
 H6 
A   27
 H7 
A   28
 H8 
A   29
 H9 
A   30
 H10
A   31
 H11
A   32
 H12
A   33
 H13
A   34
 H14
A   35
 H15
A   36
 H16
A   37
 H17
A   38
 H18
A   39
 H19
A   40
 H20
A   41
 H21
M  END
>  <ref_pdb>  (446) 
x0051_0B

>  <ref_mols>  (446) 
x0589_0B,x0969_1B

>  <original SMILES>  (446) 
[H]c1nn2c(c1SC([H])([H])C([H])([H])c1c([H])c(C([H])([H])[H])c([H])c(C([H])([H])[H])c1[H])C([H])([H])N([H])C([H])([H])C2([H])[H]

>  <index>  (446) 
2432

>  <∆∆G>  (446) 
-7.664545

>  <∆G_bound>  (446) 
-7.678666

>  <∆G_unbound>  (446) 
-0.01412

>  <comRMSD>  (446) 
0.414825

>  <N_constrained_atoms>  (446) 
18.0

>  <N_unconstrained_atoms>  (446) 
2.0

>  <runtime>  (446) 
47.473122

>  <LE>  (446) 
0.383227

>  <percent_hybrid>  (446) 
45.0

>  <dist>  (446) 
3.0

>  <ecfp4>  (446) 
0.4375

>  <daylight>  (446) 
0.432099

>  <topodist>  (446) 
0.0

>  <mces>  (446) 
22.0

>  <tdn>  (446) 
0.0

>  <tup>  (446) 
0.0

>  <rdn>  (446) 
0.0

>  <rup>  (446) 
0.0

>  <ldn>  (446) 
0.0

>  <lup>  (446) 
0.0

>  <mut>  (446) 
3.0

>  <maj>  (446) 
3.0

>  <min>  (446) 
0.0

>  <hyb>  (446) 
0.0

>  <sub>  (446) 
0.0

>  <query_index>  (446) 
379.0

>  <max_hit_Tanimoto>  (446) 
0.469849

>  <largest_ring>  (446) 
6

>  <N_interactions_kept>  (446) 
0.5

>  <N_interactions_lost>  (446) 
2.0

>  <interaction_uniqueness_metric>  (446) 
0.163981

>  <ad_hoc_penalty>  (446) 
-6.805807

>  <N_rotatable_bonds>  (446) 
6

>  <N_HA>  (446) 
20

>  <cluster>  (446) 
3980

>  <N_interactions>  (446) 
4

>  <Enamine>  (446) 
1

>  <Mcule>  (446) 
0

>  <N_PAINS>  (446) 
0

>  <UFF_Gibbs>  (446) 
90.745986

>  <strain_per_HA>  (446) 
4.537299

>  <intxn_scored>  (446) 
7.5

>  <saltbridge:HIS:51>  (446) 
0

>  <pistack:HIS:51>  (446) 
0

>  <hydroph_interaction:HIS:51>  (446) 
0

>  <hbond:ALA:132>  (446) 
0

>  <hbond:SER:135>  (446) 
0

>  <hydroph_interaction:TYR:150>  (446) 
1

>  <pistack:TYR:161>  (446) 
1

>  <hydroph_interaction:TYR:161>  (446) 
1

>  <hydroph_interaction:ASP:83>  (446) 
0

>  <hbond:TYR:130>  (446) 
0

>  <hydroph_interaction:ALA:132>  (446) 
0

>  <hbond:HIS:51>  (446) 
0

>  <hbond:ASP:129>  (446) 
0

>  <hbond:TYR:150>  (446) 
0

>  <hbond:GLY:151>  (446) 
0

>  <hbond:TYR:161>  (446) 
0

>  <hydroph_interaction:TYR:130>  (446) 
0

>  <hydroph_interaction:PRO:131>  (446) 
0

>  <hydroph_interaction:ASP:129>  (446) 
0

>  <saltbridge:ASP:75>  (446) 
0

>  <saltbridge:ASP:83>  (446) 
0

>  <hbond:ASN:152>  (446) 
0

>  <hydroph_interaction:ASN:152>  (446) 
0

>  <halogenbond:TYR:150>  (446) 
0

>  <hbond:ASP:83>  (446) 
1

>  <hydroph_interaction:VAL:155>  (446) 
0

>  <pication:TYR:161>  (446) 
0

>  <hbond:PRO:131>  (446) 
0

>  <saltbridge:ASP:129>  (446) 
0

>  <hbond:THR:134>  (446) 
0

>  <pication:HIS:51>  (446) 
0

>  <hbond:SER:81>  (446) 
0

>  <hydroph_interaction:THR:134>  (446) 
0

>  <hydroph_interaction:MET:49>  (446) 
0

$$$$
CSSS00011935185
     RDKit          3D

 21 22  0  0  0  0  0  0  0  0999 V2000
   -6.7740    4.6970  -14.6840 O   0  0  0  0  0  0  0  0  0  0  0  0
   -8.0170    5.3080  -14.9970 C   0  0  0  0  0  0  0  0  0  0  0  0
   -8.3570    5.1550  -16.4590 C   0  0  0  0  0  0  0  0  0  0  0  0
   -9.6860    4.8710  -16.8060 C   0  0  0  0  0  0  0  0  0  0  0  0
  -10.0960    4.7140  -18.1330 C   0  0  0  0  0  0  0  0  0  0  0  0
   -9.1560    4.8400  -19.1300 C   0  0  0  0  0  0  0  0  0  0  0  0
   -7.8170    5.1190  -18.8330 C   0  0  0  0  0  0  0  0  0  0  0  0
   -6.8490    5.2460  -19.8180 C   0  0  0  0  0  0  0  0  0  0  0  0
   -5.3980    5.5460  -19.5110 C   0  0  0  0  0  0  0  0  0  0  0  0
   -5.0650    5.6910  -18.2160 N   0  0  0  0  0  0  0  0  0  0  0  0
   -6.0440    5.5580  -17.2770 C   0  0  0  0  0  0  0  0  0  0  0  0
   -7.3990    5.2820  -17.4910 C   0  0  0  0  0  0  0  0  0  0  0  0
   -6.9390    3.7270  -14.6040 H   0  0  0  0  0  0  0  0  0  0  0  0
   -7.9700    6.3700  -14.7340 H   0  0  0  0  0  0  0  0  0  0  0  0
   -8.8150    4.8490  -14.4010 H   0  0  0  0  0  0  0  0  0  0  0  0
  -10.4140    4.7710  -16.0080 H   0  0  0  0  0  0  0  0  0  0  0  0
  -11.1310    4.4980  -18.3730 H   0  0  0  0  0  0  0  0  0  0  0  0
   -9.4670    4.7190  -20.1650 H   0  0  0  0  0  0  0  0  0  0  0  0
   -7.0340    5.1430  -20.8900 H   0  0  0  0  0  0  0  0  0  0  0  0
   -4.6300    5.6470  -20.2710 H   0  0  0  0  0  0  0  0  0  0  0  0
   -5.6670    5.6900  -16.2690 H   0  0  0  0  0  0  0  0  0  0  0  0
  1  2  1  0
  2  3  1  0
  3  4  2  0
  4  5  1  0
  5  6  2  0
  6  7  1  0
  7  8  2  0
  8  9  1  0
  9 10  2  0
 10 11  1  0
 11 12  2  0
 12  3  1  0
 12  7  1  0
  1 13  1  0
  2 14  1  0
  2 15  1  0
  4 16  1  0
  5 17  1  0
  6 18  1  0
  8 19  1  0
  9 20  1  0
 11 21  1  0
A    1
 O1 
A    2
 C1 
A    3
 C2 
A    4
 C3 
A    5
 C4 
A    6
 C5 
A    7
 C6 
A    8
 C7 
A    9
 C8 
A   10
 N1 
A   11
 C9 
A   12
 C10
A   13
 H1 
A   14
 H2 
A   15
 H3 
A   16
 H4 
A   17
 H5 
A   18
 H6 
A   19
 H7 
A   20
 H8 
A   21
 H9 
M  END
>  <ref_pdb>  (447) 
x0051_0B

>  <ref_mols>  (447) 
x0727_0B,x0455_0B

>  <original SMILES>  (447) 
[H]OC([H])([H])c1c([H])c([H])c([H])c2c([H])c([H])nc([H])c12

>  <index>  (447) 
1843

>  <∆∆G>  (447) 
-6.781186

>  <∆G_bound>  (447) 
-6.429271

>  <∆G_unbound>  (447) 
0.351915

>  <comRMSD>  (447) 
0.298756

>  <N_constrained_atoms>  (447) 
13.0

>  <N_unconstrained_atoms>  (447) 
0.0

>  <runtime>  (447) 
17.056679

>  <LE>  (447) 
0.52163

>  <percent_hybrid>  (447) 
40.0

>  <dist>  (447) 
4.0

>  <ecfp4>  (447) 
0.288889

>  <daylight>  (447) 
0.427083

>  <topodist>  (447) 
3.0

>  <mces>  (447) 
13.0

>  <tdn>  (447) 
2.0

>  <tup>  (447) 
0.0

>  <rdn>  (447) 
1.0

>  <rup>  (447) 
0.0

>  <ldn>  (447) 
0.0

>  <lup>  (447) 
0.0

>  <mut>  (447) 
1.0

>  <maj>  (447) 
1.0

>  <min>  (447) 
0.0

>  <hyb>  (447) 
0.0

>  <sub>  (447) 
1.0

>  <query_index>  (447) 
57.0

>  <max_hit_Tanimoto>  (447) 
0.321951

>  <largest_ring>  (447) 
6

>  <N_interactions_kept>  (447) 
0.0

>  <N_interactions_lost>  (447) 
3.0

>  <interaction_uniqueness_metric>  (447) 
0.044868

>  <ad_hoc_penalty>  (447) 
-11.421524

>  <N_rotatable_bonds>  (447) 
2

>  <N_HA>  (447) 
12

>  <cluster>  (447) 
4528

>  <N_interactions>  (447) 
5

>  <Enamine>  (447) 
1

>  <Mcule>  (447) 
0

>  <N_PAINS>  (447) 
0

>  <UFF_Gibbs>  (447) 
20.896062

>  <strain_per_HA>  (447) 
1.741338

>  <intxn_scored>  (447) 
7.5

>  <saltbridge:HIS:51>  (447) 
0

>  <pistack:HIS:51>  (447) 
0

>  <hydroph_interaction:HIS:51>  (447) 
0

>  <hbond:ALA:132>  (447) 
0

>  <hbond:SER:135>  (447) 
0

>  <hydroph_interaction:TYR:150>  (447) 
1

>  <pistack:TYR:161>  (447) 
1

>  <hydroph_interaction:TYR:161>  (447) 
3

>  <hydroph_interaction:ASP:83>  (447) 
0

>  <hbond:TYR:130>  (447) 
0

>  <hydroph_interaction:ALA:132>  (447) 
0

>  <hbond:HIS:51>  (447) 
0

>  <hbond:ASP:129>  (447) 
0

>  <hbond:TYR:150>  (447) 
0

>  <hbond:GLY:151>  (447) 
0

>  <hbond:TYR:161>  (447) 
0

>  <hydroph_interaction:TYR:130>  (447) 
0

>  <hydroph_interaction:PRO:131>  (447) 
0

>  <hydroph_interaction:ASP:129>  (447) 
0

>  <saltbridge:ASP:75>  (447) 
0

>  <saltbridge:ASP:83>  (447) 
0

>  <hbond:ASN:152>  (447) 
0

>  <hydroph_interaction:ASN:152>  (447) 
0

>  <halogenbond:TYR:150>  (447) 
0

>  <hbond:ASP:83>  (447) 
0

>  <hydroph_interaction:VAL:155>  (447) 
0

>  <pication:TYR:161>  (447) 
0

>  <hbond:PRO:131>  (447) 
0

>  <saltbridge:ASP:129>  (447) 
0

>  <hbond:THR:134>  (447) 
0

>  <pication:HIS:51>  (447) 
0

>  <hbond:SER:81>  (447) 
0

>  <hydroph_interaction:THR:134>  (447) 
0

>  <hydroph_interaction:MET:49>  (447) 
0

$$$$
CSSB00013062287
     RDKit          3D

 24 25  0  0  0  0  0  0  0  0999 V2000
   -6.8140    4.7880  -20.9760 O   0  0  0  0  0  0  0  0  0  0  0  0
   -6.6080    5.5370  -19.8110 C   0  0  0  0  0  0  0  0  0  0  0  0
   -7.6350    5.2720  -18.7330 C   0  0  0  0  0  0  0  0  0  0  0  0
   -9.0040    4.9050  -19.2570 C   0  0  0  0  0  0  0  0  0  0  0  0
  -10.1330    4.6360  -18.2170 C   0  0  0  0  0  0  0  0  0  0  0  0
   -9.7040    4.7680  -16.8760 C   0  0  0  0  0  0  0  0  0  0  0  0
   -8.2880    5.1370  -16.4510 C   0  0  0  0  0  0  0  0  0  0  0  0
   -7.3340    5.3680  -17.3980 C   0  0  0  0  0  0  0  0  0  0  0  0
   -6.0680    5.7000  -17.0860 O   0  0  0  0  0  0  0  0  0  0  0  0
   -5.7350    6.0680  -15.7280 C   0  0  0  0  0  0  0  0  0  0  0  0
   -6.5700    5.1800  -14.7740 C   0  0  0  0  0  0  0  0  0  0  0  0
   -7.9450    5.2490  -14.9980 C   0  0  0  0  0  0  0  0  0  0  0  0
   -7.4780    5.3060  -21.4840 H   0  0  0  0  0  0  0  0  0  0  0  0
   -5.5960    5.3380  -19.4480 H   0  0  0  0  0  0  0  0  0  0  0  0
   -6.6250    6.5870  -20.1190 H   0  0  0  0  0  0  0  0  0  0  0  0
   -9.1350    4.8520  -20.3440 H   0  0  0  0  0  0  0  0  0  0  0  0
  -11.1360    4.3760  -18.5790 H   0  0  0  0  0  0  0  0  0  0  0  0
  -10.4090    4.6000  -16.0680 H   0  0  0  0  0  0  0  0  0  0  0  0
   -5.8650    7.1440  -15.5590 H   0  0  0  0  0  0  0  0  0  0  0  0
   -4.6900    5.8010  -15.5460 H   0  0  0  0  0  0  0  0  0  0  0  0
   -6.2640    4.1370  -14.8670 H   0  0  0  0  0  0  0  0  0  0  0  0
   -6.3810    5.4620  -13.7320 H   0  0  0  0  0  0  0  0  0  0  0  0
   -8.4260    4.4430  -14.4310 H   0  0  0  0  0  0  0  0  0  0  0  0
   -8.3400    6.1980  -14.6190 H   0  0  0  0  0  0  0  0  0  0  0  0
  1  2  1  0
  2  3  1  0
  3  4  2  0
  4  5  1  0
  5  6  2  0
  6  7  1  0
  7  8  2  0
  8  9  1  0
  9 10  1  0
 10 11  1  0
 11 12  1  0
  8  3  1  0
 12  7  1  0
  1 13  1  0
  2 14  1  0
  2 15  1  0
  4 16  1  0
  5 17  1  0
  6 18  1  0
 10 19  1  0
 10 20  1  0
 11 21  1  0
 11 22  1  0
 12 23  1  0
 12 24  1  0
A    1
 O1 
A    2
 C1 
A    3
 C2 
A    4
 C3 
A    5
 C4 
A    6
 C5 
A    7
 C6 
A    8
 C7 
A    9
 O2 
A   10
 C8 
A   11
 C9 
A   12
 C10
A   13
 H1 
A   14
 H2 
A   15
 H3 
A   16
 H4 
A   17
 H5 
A   18
 H6 
A   19
 H7 
A   20
 H8 
A   21
 H9 
A   22
 H10
A   23
 H11
A   24
 H12
M  END
>  <ref_pdb>  (448) 
x0051_0B

>  <ref_mols>  (448) 
x0455_0B,x0382_0B

>  <original SMILES>  (448) 
[H]OC([H])([H])c1c([H])c([H])c([H])c2c1OC([H])([H])C([H])([H])C2([H])[H]

>  <index>  (448) 
818

>  <∆∆G>  (448) 
-6.023108

>  <∆G_bound>  (448) 
-5.842285

>  <∆G_unbound>  (448) 
0.180822

>  <comRMSD>  (448) 
0.799868

>  <N_constrained_atoms>  (448) 
12.0

>  <N_unconstrained_atoms>  (448) 
0.0

>  <runtime>  (448) 
19.624252

>  <LE>  (448) 
0.501926

>  <percent_hybrid>  (448) 
29.0

>  <dist>  (448) 
2.0

>  <ecfp4>  (448) 
0.272727

>  <daylight>  (448) 
0.201149

>  <topodist>  (448) 
0.0

>  <mces>  (448) 
13.0

>  <tdn>  (448) 
0.0

>  <tup>  (448) 
0.0

>  <rdn>  (448) 
0.0

>  <rup>  (448) 
0.0

>  <ldn>  (448) 
0.0

>  <lup>  (448) 
0.0

>  <mut>  (448) 
2.0

>  <maj>  (448) 
2.0

>  <min>  (448) 
0.0

>  <hyb>  (448) 
0.0

>  <sub>  (448) 
0.0

>  <query_index>  (448) 
293.0

>  <max_hit_Tanimoto>  (448) 
0.152838

>  <largest_ring>  (448) 
6

>  <N_interactions_kept>  (448) 
0.0

>  <N_interactions_lost>  (448) 
1.5

>  <interaction_uniqueness_metric>  (448) 
0.062354

>  <ad_hoc_penalty>  (448) 
-16.349697

>  <N_rotatable_bonds>  (448) 
2

>  <N_HA>  (448) 
12

>  <cluster>  (448) 
5468

>  <N_interactions>  (448) 
4

>  <Enamine>  (448) 
1

>  <Mcule>  (448) 
0

>  <N_PAINS>  (448) 
0

>  <UFF_Gibbs>  (448) 
54.234569

>  <strain_per_HA>  (448) 
4.519547

>  <intxn_scored>  (448) 
7.5

>  <saltbridge:HIS:51>  (448) 
0

>  <pistack:HIS:51>  (448) 
0

>  <hydroph_interaction:HIS:51>  (448) 
0

>  <hbond:ALA:132>  (448) 
0

>  <hbond:SER:135>  (448) 
0

>  <hydroph_interaction:TYR:150>  (448) 
1

>  <pistack:TYR:161>  (448) 
1

>  <hydroph_interaction:TYR:161>  (448) 
1

>  <hydroph_interaction:ASP:83>  (448) 
0

>  <hbond:TYR:130>  (448) 
1

>  <hydroph_interaction:ALA:132>  (448) 
0

>  <hbond:HIS:51>  (448) 
0

>  <hbond:ASP:129>  (448) 
0

>  <hbond:TYR:150>  (448) 
0

>  <hbond:GLY:151>  (448) 
0

>  <hbond:TYR:161>  (448) 
0

>  <hydroph_interaction:TYR:130>  (448) 
0

>  <hydroph_interaction:PRO:131>  (448) 
0

>  <hydroph_interaction:ASP:129>  (448) 
0

>  <saltbridge:ASP:75>  (448) 
0

>  <saltbridge:ASP:83>  (448) 
0

>  <hbond:ASN:152>  (448) 
0

>  <hydroph_interaction:ASN:152>  (448) 
0

>  <halogenbond:TYR:150>  (448) 
0

>  <hbond:ASP:83>  (448) 
0

>  <hydroph_interaction:VAL:155>  (448) 
0

>  <pication:TYR:161>  (448) 
0

>  <hbond:PRO:131>  (448) 
0

>  <saltbridge:ASP:129>  (448) 
0

>  <hbond:THR:134>  (448) 
0

>  <pication:HIS:51>  (448) 
0

>  <hbond:SER:81>  (448) 
0

>  <hydroph_interaction:THR:134>  (448) 
0

>  <hydroph_interaction:MET:49>  (448) 
0

$$$$
Z3221646753
     RDKit          3D

 23 24  0  0  0  0  0  0  0  0999 V2000
   -5.1370    5.1220  -14.9550 C   0  0  0  0  0  0  0  0  0  0  0  0
   -5.9880    5.1410  -16.1800 C   0  0  0  0  0  0  0  0  0  0  0  0
   -7.3310    5.0410  -15.9580 N   0  0  0  0  0  0  0  0  0  0  0  0
   -8.1260    5.0320  -17.0270 C   0  0  0  0  0  0  0  0  0  0  0  0
   -9.5020    4.9060  -16.9000 C   0  0  0  0  0  0  0  0  0  0  0  0
  -10.3210    4.9040  -18.0340 C   0  0  0  0  0  0  0  0  0  0  0  0
   -9.7530    5.0340  -19.2790 C   0  0  0  0  0  0  0  0  0  0  0  0
   -8.3950    5.1420  -19.4030 C   0  0  0  0  0  0  0  0  0  0  0  0
   -7.5770    5.1450  -18.3230 C   0  0  0  0  0  0  0  0  0  0  0  0
   -6.2750    5.2510  -18.5610 N   0  0  0  0  0  0  0  0  0  0  0  0
   -5.4780    5.2390  -17.4720 C   0  0  0  0  0  0  0  0  0  0  0  0
   -4.0240    5.3280  -17.8030 C   0  0  0  0  0  0  0  0  0  0  0  0
   -3.1870    5.1840  -16.7360 N   0  0  0  0  0  0  0  0  0  0  0  0
   -3.5810    5.4990  -18.9310 O   0  0  0  0  0  0  0  0  0  0  0  0
   -4.6640    6.0970  -14.7930 H   0  0  0  0  0  0  0  0  0  0  0  0
   -5.7280    4.8420  -14.0800 H   0  0  0  0  0  0  0  0  0  0  0  0
   -4.3350    4.3840  -15.0570 H   0  0  0  0  0  0  0  0  0  0  0  0
   -9.9360    4.8090  -15.9090 H   0  0  0  0  0  0  0  0  0  0  0  0
  -11.3950    4.8080  -17.9500 H   0  0  0  0  0  0  0  0  0  0  0  0
  -10.3420    5.0580  -20.1750 H   0  0  0  0  0  0  0  0  0  0  0  0
   -7.9490    5.2310  -20.3830 H   0  0  0  0  0  0  0  0  0  0  0  0
   -2.5690    4.3890  -16.6860 H   0  0  0  0  0  0  0  0  0  0  0  0
   -3.1770    5.8910  -16.0100 H   0  0  0  0  0  0  0  0  0  0  0  0
  1  2  1  0
  2  3  2  0
  3  4  1  0
  4  5  2  0
  5  6  1  0
  6  7  2  0
  7  8  1  0
  8  9  2  0
  9 10  1  0
 10 11  2  0
 11 12  1  0
 12 13  1  0
 12 14  2  0
 11  2  1  0
  9  4  1  0
  1 15  1  0
  1 16  1  0
  1 17  1  0
  5 18  1  0
  6 19  1  0
  7 20  1  0
  8 21  1  0
 13 22  1  0
 13 23  1  0
A    1
 C1 
A    2
 C2 
A    3
 N1 
A    4
 C3 
A    5
 C4 
A    6
 C5 
A    7
 C6 
A    8
 C7 
A    9
 C8 
A   10
 N2 
A   11
 C9 
A   12
 C10
A   13
 N3 
A   14
 O1 
A   15
 H1 
A   16
 H2 
A   17
 H3 
A   18
 H4 
A   19
 H5 
A   20
 H6 
A   21
 H7 
A   22
 H8 
A   23
 H9 
M  END
>  <ref_pdb>  (449) 
x0051_0B

>  <ref_mols>  (449) 
x0435_0B,x0800_0B

>  <original SMILES>  (449) 
[H]c1c([H])c([H])c2nc(C([H])([H])[H])c(C(=O)N([H])[H])nc2c1[H]

>  <index>  (449) 
2457

>  <∆∆G>  (449) 
-5.867222

>  <∆G_bound>  (449) 
-5.705486

>  <∆G_unbound>  (449) 
0.161735

>  <comRMSD>  (449) 
0.750411

>  <N_constrained_atoms>  (449) 
13.0

>  <N_unconstrained_atoms>  (449) 
1.0

>  <runtime>  (449) 
30.75187

>  <LE>  (449) 
0.419087

>  <percent_hybrid>  (449) 
34.0

>  <dist>  (449) 
3.0

>  <ecfp4>  (449) 
0.09434

>  <daylight>  (449) 
0.519685

>  <topodist>  (449) 
1.0

>  <mces>  (449) 
14.0

>  <tdn>  (449) 
0.0

>  <tup>  (449) 
0.0

>  <rdn>  (449) 
0.0

>  <rup>  (449) 
0.0

>  <ldn>  (449) 
0.0

>  <lup>  (449) 
1.0

>  <mut>  (449) 
2.0

>  <maj>  (449) 
2.0

>  <min>  (449) 
0.0

>  <hyb>  (449) 
0.0

>  <sub>  (449) 
0.0

>  <query_index>  (449) 
290.0

>  <max_hit_Tanimoto>  (449) 
0.245819

>  <largest_ring>  (449) 
6

>  <N_interactions_kept>  (449) 
1.0

>  <N_interactions_lost>  (449) 
3.0

>  <interaction_uniqueness_metric>  (449) 
0.044868

>  <ad_hoc_penalty>  (449) 
-6.949266

>  <N_rotatable_bonds>  (449) 
2

>  <N_HA>  (449) 
14

>  <cluster>  (449) 
3958

>  <N_interactions>  (449) 
5

>  <Enamine>  (449) 
1

>  <Mcule>  (449) 
0

>  <N_PAINS>  (449) 
0

>  <UFF_Gibbs>  (449) 
40.537996

>  <strain_per_HA>  (449) 
2.895571

>  <intxn_scored>  (449) 
7.5

>  <saltbridge:HIS:51>  (449) 
0

>  <pistack:HIS:51>  (449) 
0

>  <hydroph_interaction:HIS:51>  (449) 
0

>  <hbond:ALA:132>  (449) 
0

>  <hbond:SER:135>  (449) 
0

>  <hydroph_interaction:TYR:150>  (449) 
1

>  <pistack:TYR:161>  (449) 
1

>  <hydroph_interaction:TYR:161>  (449) 
3

>  <hydroph_interaction:ASP:83>  (449) 
0

>  <hbond:TYR:130>  (449) 
0

>  <hydroph_interaction:ALA:132>  (449) 
0

>  <hbond:HIS:51>  (449) 
0

>  <hbond:ASP:129>  (449) 
0

>  <hbond:TYR:150>  (449) 
0

>  <hbond:GLY:151>  (449) 
0

>  <hbond:TYR:161>  (449) 
0

>  <hydroph_interaction:TYR:130>  (449) 
0

>  <hydroph_interaction:PRO:131>  (449) 
0

>  <hydroph_interaction:ASP:129>  (449) 
0

>  <saltbridge:ASP:75>  (449) 
0

>  <saltbridge:ASP:83>  (449) 
0

>  <hbond:ASN:152>  (449) 
0

>  <hydroph_interaction:ASN:152>  (449) 
0

>  <halogenbond:TYR:150>  (449) 
0

>  <hbond:ASP:83>  (449) 
0

>  <hydroph_interaction:VAL:155>  (449) 
0

>  <pication:TYR:161>  (449) 
0

>  <hbond:PRO:131>  (449) 
0

>  <saltbridge:ASP:129>  (449) 
0

>  <hbond:THR:134>  (449) 
0

>  <pication:HIS:51>  (449) 
0

>  <hbond:SER:81>  (449) 
0

>  <hydroph_interaction:THR:134>  (449) 
0

>  <hydroph_interaction:MET:49>  (449) 
0

$$$$
PV-004330282377
     RDKit          3D

 30 31  0  0  0  0  0  0  0  0999 V2000
   -4.0290    4.9930  -15.5290 C   0  0  0  0  0  0  0  0  0  0  0  0
   -5.3230    5.4000  -15.8080 N   0  0  0  0  0  0  0  0  0  0  0  0
   -5.7900    5.9090  -17.0340 C   0  0  0  0  0  0  0  0  0  0  0  0
   -4.9890    5.6500  -18.1050 C   0  0  0  0  0  0  0  0  0  0  0  0
   -5.3260    5.6960  -19.4470 C   0  0  0  0  0  0  0  0  0  0  0  0
   -6.6550    5.6110  -19.8600 C   0  0  0  0  0  0  0  0  0  0  0  0
   -6.9270    4.7670  -20.9130 C   0  0  0  0  0  0  0  0  0  0  0  0
   -7.6100    5.3560  -18.7050 C   0  0  0  0  0  0  0  0  0  0  0  0
   -8.9280    4.9740  -19.0080 C   0  0  0  0  0  0  0  0  0  0  0  0
   -9.8860    4.7380  -17.8670 C   0  0  0  0  0  0  0  0  0  0  0  0
   -9.4420    4.8990  -16.5610 C   0  0  0  0  0  0  0  0  0  0  0  0
   -8.1290    5.2680  -16.3010 C   0  0  0  0  0  0  0  0  0  0  0  0
   -7.2220    5.4970  -17.3430 C   0  0  0  0  0  0  0  0  0  0  0  0
   -3.6010    4.5030  -16.4080 H   0  0  0  0  0  0  0  0  0  0  0  0
   -3.3770    5.8260  -15.2450 H   0  0  0  0  0  0  0  0  0  0  0  0
   -4.0290    4.2780  -14.7030 H   0  0  0  0  0  0  0  0  0  0  0  0
   -5.9890    4.7080  -15.4620 H   0  0  0  0  0  0  0  0  0  0  0  0
   -5.8650    6.9970  -16.9510 H   0  0  0  0  0  0  0  0  0  0  0  0
   -4.1230    6.3130  -17.9840 H   0  0  0  0  0  0  0  0  0  0  0  0
   -4.5560    4.6500  -17.9700 H   0  0  0  0  0  0  0  0  0  0  0  0
   -4.9500    6.6580  -19.8160 H   0  0  0  0  0  0  0  0  0  0  0  0
   -4.7300    4.9540  -19.9830 H   0  0  0  0  0  0  0  0  0  0  0  0
   -6.8880    6.6150  -20.2400 H   0  0  0  0  0  0  0  0  0  0  0  0
   -6.3330    3.8800  -20.8820 H   0  0  0  0  0  0  0  0  0  0  0  0
   -6.6990    5.2510  -21.8690 H   0  0  0  0  0  0  0  0  0  0  0  0
   -7.9800    4.4560  -20.9130 H   0  0  0  0  0  0  0  0  0  0  0  0
   -9.2630    4.8530  -20.0380 H   0  0  0  0  0  0  0  0  0  0  0  0
  -10.9110    4.4490  -18.0680 H   0  0  0  0  0  0  0  0  0  0  0  0
  -10.1230    4.7340  -15.7290 H   0  0  0  0  0  0  0  0  0  0  0  0
   -7.8160    5.3810  -15.2680 H   0  0  0  0  0  0  0  0  0  0  0  0
  1  2  1  0
  2  3  1  0
  3  4  1  0
  4  5  1  0
  5  6  1  0
  6  7  1  0
  6  8  1  0
  8  9  2  0
  9 10  1  0
 10 11  2  0
 11 12  1  0
 12 13  2  0
 13  3  1  0
 13  8  1  0
  1 14  1  0
  1 15  1  0
  1 16  1  0
  2 17  1  0
  3 18  1  0
  4 19  1  0
  4 20  1  0
  5 21  1  0
  5 22  1  0
  6 23  1  0
  7 24  1  0
  7 25  1  0
  7 26  1  0
  9 27  1  0
 10 28  1  0
 11 29  1  0
 12 30  1  0
A    1
 C1 
A    2
 N1 
A    3
 C2 
A    4
 C3 
A    5
 C4 
A    6
 C5 
A    7
 C6 
A    8
 C7 
A    9
 C8 
A   10
 C9 
A   11
 C10
A   12
 C11
A   13
 C12
A   14
 H1 
A   15
 H2 
A   16
 H3 
A   17
 H4 
A   18
 H5 
A   19
 H6 
A   20
 H7 
A   21
 H8 
A   22
 H9 
A   23
 H10
A   24
 H11
A   25
 H12
A   26
 H13
A   27
 H14
A   28
 H15
A   29
 H16
A   30
 H17
M  END
>  <ref_pdb>  (450) 
x0051_0B

>  <ref_mols>  (450) 
x0727_0B,x0693_0B

>  <original SMILES>  (450) 
[H]c1c([H])c([H])c2c(c1[H])C([H])(N([H])C([H])([H])[H])C([H])([H])C([H])([H])C2([H])C([H])([H])[H]

>  <index>  (450) 
1307

>  <∆∆G>  (450) 
-7.20059

>  <∆G_bound>  (450) 
-7.209116

>  <∆G_unbound>  (450) 
-0.008526

>  <comRMSD>  (450) 
0.759174

>  <N_constrained_atoms>  (450) 
16.0

>  <N_unconstrained_atoms>  (450) 
0.0

>  <runtime>  (450) 
22.192011

>  <LE>  (450) 
0.450037

>  <percent_hybrid>  (450) 
40.0

>  <dist>  (450) 
2.0

>  <ecfp4>  (450) 
0.311111

>  <daylight>  (450) 
0.423077

>  <topodist>  (450) 
1.0

>  <mces>  (450) 
14.0

>  <tdn>  (450) 
1.0

>  <tup>  (450) 
0.0

>  <rdn>  (450) 
0.0

>  <rup>  (450) 
0.0

>  <ldn>  (450) 
0.0

>  <lup>  (450) 
0.0

>  <mut>  (450) 
1.0

>  <maj>  (450) 
1.0

>  <min>  (450) 
0.0

>  <hyb>  (450) 
0.0

>  <sub>  (450) 
1.0

>  <query_index>  (450) 
129.0

>  <max_hit_Tanimoto>  (450) 
0.133028

>  <largest_ring>  (450) 
6

>  <N_interactions_kept>  (450) 
2.5

>  <N_interactions_lost>  (450) 
2.5

>  <interaction_uniqueness_metric>  (450) 
0.044868

>  <ad_hoc_penalty>  (450) 
-3.249573

>  <N_rotatable_bonds>  (450) 
3

>  <N_HA>  (450) 
13

>  <cluster>  (450) 
5019

>  <N_interactions>  (450) 
5

>  <Enamine>  (450) 
1

>  <Mcule>  (450) 
0

>  <N_PAINS>  (450) 
0

>  <UFF_Gibbs>  (450) 
176.573508

>  <strain_per_HA>  (450) 
13.582578

>  <intxn_scored>  (450) 
7.5

>  <saltbridge:HIS:51>  (450) 
0

>  <pistack:HIS:51>  (450) 
0

>  <hydroph_interaction:HIS:51>  (450) 
0

>  <hbond:ALA:132>  (450) 
0

>  <hbond:SER:135>  (450) 
0

>  <hydroph_interaction:TYR:150>  (450) 
1

>  <pistack:TYR:161>  (450) 
1

>  <hydroph_interaction:TYR:161>  (450) 
3

>  <hydroph_interaction:ASP:83>  (450) 
0

>  <hbond:TYR:130>  (450) 
0

>  <hydroph_interaction:ALA:132>  (450) 
0

>  <hbond:HIS:51>  (450) 
0

>  <hbond:ASP:129>  (450) 
0

>  <hbond:TYR:150>  (450) 
0

>  <hbond:GLY:151>  (450) 
0

>  <hbond:TYR:161>  (450) 
0

>  <hydroph_interaction:TYR:130>  (450) 
0

>  <hydroph_interaction:PRO:131>  (450) 
0

>  <hydroph_interaction:ASP:129>  (450) 
0

>  <saltbridge:ASP:75>  (450) 
0

>  <saltbridge:ASP:83>  (450) 
0

>  <hbond:ASN:152>  (450) 
0

>  <hydroph_interaction:ASN:152>  (450) 
0

>  <halogenbond:TYR:150>  (450) 
0

>  <hbond:ASP:83>  (450) 
0

>  <hydroph_interaction:VAL:155>  (450) 
0

>  <pication:TYR:161>  (450) 
0

>  <hbond:PRO:131>  (450) 
0

>  <saltbridge:ASP:129>  (450) 
0

>  <hbond:THR:134>  (450) 
0

>  <pication:HIS:51>  (450) 
0

>  <hbond:SER:81>  (450) 
0

>  <hydroph_interaction:THR:134>  (450) 
0

>  <hydroph_interaction:MET:49>  (450) 
0

$$$$
CSSB00009842633
     RDKit          3D

 19 20  0  0  0  0  0  0  0  0999 V2000
   -5.3490    5.6470  -15.8790 N   0  0  0  0  0  0  0  0  0  0  0  0
   -5.8650    5.5150  -17.1950 C   0  0  0  0  0  0  0  0  0  0  0  0
   -4.9560    5.6320  -18.1810 N   0  0  0  0  0  0  0  0  0  0  0  0
   -5.3920    5.5150  -19.4490 C   0  0  0  0  0  0  0  0  0  0  0  0
   -6.7160    5.2810  -19.7840 C   0  0  0  0  0  0  0  0  0  0  0  0
   -7.6620    5.1540  -18.7770 C   0  0  0  0  0  0  0  0  0  0  0  0
   -8.9990    4.9130  -19.0870 C   0  0  0  0  0  0  0  0  0  0  0  0
   -9.9250    4.7950  -18.0550 C   0  0  0  0  0  0  0  0  0  0  0  0
  -11.1990    4.5760  -18.3570 F   0  0  0  0  0  0  0  0  0  0  0  0
   -9.5210    4.9100  -16.7120 C   0  0  0  0  0  0  0  0  0  0  0  0
   -8.1920    5.1470  -16.4050 C   0  0  0  0  0  0  0  0  0  0  0  0
   -7.2440    5.2730  -17.4260 C   0  0  0  0  0  0  0  0  0  0  0  0
   -5.2080    4.7630  -15.4030 H   0  0  0  0  0  0  0  0  0  0  0  0
   -5.8980    6.2960  -15.3200 H   0  0  0  0  0  0  0  0  0  0  0  0
   -4.6290    5.6160  -20.2170 H   0  0  0  0  0  0  0  0  0  0  0  0
   -7.0440    5.1880  -20.8120 H   0  0  0  0  0  0  0  0  0  0  0  0
   -9.3410    4.8160  -20.1140 H   0  0  0  0  0  0  0  0  0  0  0  0
  -10.2490    4.8120  -15.9130 H   0  0  0  0  0  0  0  0  0  0  0  0
   -7.8760    5.2350  -15.3690 H   0  0  0  0  0  0  0  0  0  0  0  0
  1  2  1  0
  2  3  2  0
  3  4  1  0
  4  5  2  0
  5  6  1  0
  6  7  2  0
  7  8  1  0
  8  9  1  0
  8 10  2  0
 10 11  1  0
 11 12  2  0
 12  2  1  0
 12  6  1  0
  1 13  1  0
  1 14  1  0
  4 15  1  0
  5 16  1  0
  7 17  1  0
 10 18  1  0
 11 19  1  0
A    1
 N1 
A    2
 C1 
A    3
 N2 
A    4
 C2 
A    5
 C3 
A    6
 C4 
A    7
 C5 
A    8
 C6 
A    9
 F1 
A   10
 C7 
A   11
 C8 
A   12
 C9 
A   13
 H1 
A   14
 H2 
A   15
 H3 
A   16
 H4 
A   17
 H5 
A   18
 H6 
A   19
 H7 
M  END
>  <ref_pdb>  (451) 
x0051_0B

>  <ref_mols>  (451) 
x0727_0B,x0605_0B

>  <original SMILES>  (451) 
[H]c1nc(N([H])[H])c2c([H])c([H])c(F)c([H])c2c1[H]

>  <index>  (451) 
2990

>  <∆∆G>  (451) 
-5.299019

>  <∆G_bound>  (451) 
-5.139789

>  <∆G_unbound>  (451) 
0.15923

>  <comRMSD>  (451) 
0.511248

>  <N_constrained_atoms>  (451) 
13.0

>  <N_unconstrained_atoms>  (451) 
0.0

>  <runtime>  (451) 
18.258281

>  <LE>  (451) 
0.407617

>  <percent_hybrid>  (451) 
34.0

>  <dist>  (451) 
2.0

>  <ecfp4>  (451) 
0.302326

>  <daylight>  (451) 
0.577465

>  <topodist>  (451) 
1.0

>  <mces>  (451) 
13.0

>  <tdn>  (451) 
1.0

>  <tup>  (451) 
0.0

>  <rdn>  (451) 
0.0

>  <rup>  (451) 
0.0

>  <ldn>  (451) 
0.0

>  <lup>  (451) 
0.0

>  <mut>  (451) 
1.0

>  <maj>  (451) 
1.0

>  <min>  (451) 
0.0

>  <hyb>  (451) 
0.0

>  <sub>  (451) 
1.0

>  <query_index>  (451) 
74.0

>  <max_hit_Tanimoto>  (451) 
0.648649

>  <largest_ring>  (451) 
6

>  <N_interactions_kept>  (451) 
0.0

>  <N_interactions_lost>  (451) 
3.5

>  <interaction_uniqueness_metric>  (451) 
0.044868

>  <ad_hoc_penalty>  (451) 
-5.721052

>  <N_rotatable_bonds>  (451) 
1

>  <N_HA>  (451) 
12

>  <cluster>  (451) 
3454

>  <N_interactions>  (451) 
5

>  <Enamine>  (451) 
1

>  <Mcule>  (451) 
0

>  <N_PAINS>  (451) 
0

>  <UFF_Gibbs>  (451) 
15.864076

>  <strain_per_HA>  (451) 
1.322006

>  <intxn_scored>  (451) 
7.5

>  <saltbridge:HIS:51>  (451) 
0

>  <pistack:HIS:51>  (451) 
0

>  <hydroph_interaction:HIS:51>  (451) 
0

>  <hbond:ALA:132>  (451) 
0

>  <hbond:SER:135>  (451) 
0

>  <hydroph_interaction:TYR:150>  (451) 
1

>  <pistack:TYR:161>  (451) 
1

>  <hydroph_interaction:TYR:161>  (451) 
3

>  <hydroph_interaction:ASP:83>  (451) 
0

>  <hbond:TYR:130>  (451) 
0

>  <hydroph_interaction:ALA:132>  (451) 
0

>  <hbond:HIS:51>  (451) 
0

>  <hbond:ASP:129>  (451) 
0

>  <hbond:TYR:150>  (451) 
0

>  <hbond:GLY:151>  (451) 
0

>  <hbond:TYR:161>  (451) 
0

>  <hydroph_interaction:TYR:130>  (451) 
0

>  <hydroph_interaction:PRO:131>  (451) 
0

>  <hydroph_interaction:ASP:129>  (451) 
0

>  <saltbridge:ASP:75>  (451) 
0

>  <saltbridge:ASP:83>  (451) 
0

>  <hbond:ASN:152>  (451) 
0

>  <hydroph_interaction:ASN:152>  (451) 
0

>  <halogenbond:TYR:150>  (451) 
0

>  <hbond:ASP:83>  (451) 
0

>  <hydroph_interaction:VAL:155>  (451) 
0

>  <pication:TYR:161>  (451) 
0

>  <hbond:PRO:131>  (451) 
0

>  <saltbridge:ASP:129>  (451) 
0

>  <hbond:THR:134>  (451) 
0

>  <pication:HIS:51>  (451) 
0

>  <hbond:SER:81>  (451) 
0

>  <hydroph_interaction:THR:134>  (451) 
0

>  <hydroph_interaction:MET:49>  (451) 
0

$$$$
CSSB00010169907
     RDKit          3D

 31 33  0  0  0  0  0  0  0  0999 V2000
   -9.1720    6.5550  -13.3630 C   0  0  0  0  0  0  0  0  0  0  0  0
   -8.1350    5.5010  -13.6210 C   0  0  0  0  0  0  0  0  0  0  0  0
   -7.6250    5.3650  -14.9180 C   0  0  0  0  0  0  0  0  0  0  0  0
   -6.2400    5.4230  -15.0140 N   0  0  0  0  0  0  0  0  0  0  0  0
   -6.0820    5.2440  -16.4200 N   0  0  0  0  0  0  0  0  0  0  0  0
   -4.8420    5.1700  -17.0920 C   0  0  0  0  0  0  0  0  0  0  0  0
   -3.7180    4.6920  -16.4260 C   0  0  0  0  0  0  0  0  0  0  0  0
   -3.0010    5.9110  -16.5250 C   0  0  0  0  0  0  0  0  0  0  0  0
   -4.0040    6.5460  -17.1590 C   0  0  0  0  0  0  0  0  0  0  0  0
   -7.2320    5.1210  -17.0640 C   0  0  0  0  0  0  0  0  0  0  0  0
   -7.4110    4.9410  -18.5340 C   0  0  0  0  0  0  0  0  0  0  0  0
   -8.8550    4.7870  -19.0040 C   0  0  0  0  0  0  0  0  0  0  0  0
   -9.1530    4.6110  -20.2810 F   0  0  0  0  0  0  0  0  0  0  0  0
   -9.8680    4.8360  -18.0080 C   0  0  0  0  0  0  0  0  0  0  0  0
   -9.6340    5.0200  -16.6500 C   0  0  0  0  0  0  0  0  0  0  0  0
   -8.2460    5.1730  -16.1540 C   0  0  0  0  0  0  0  0  0  0  0  0
  -10.0810    6.3270  -13.9310 H   0  0  0  0  0  0  0  0  0  0  0  0
   -9.4250    6.6020  -12.2990 H   0  0  0  0  0  0  0  0  0  0  0  0
   -8.8100    7.5450  -13.6580 H   0  0  0  0  0  0  0  0  0  0  0  0
   -7.3100    5.6750  -12.9230 H   0  0  0  0  0  0  0  0  0  0  0  0
   -8.5770    4.5310  -13.3660 H   0  0  0  0  0  0  0  0  0  0  0  0
   -5.0360    4.7610  -18.0810 H   0  0  0  0  0  0  0  0  0  0  0  0
   -3.8510    4.2430  -15.4440 H   0  0  0  0  0  0  0  0  0  0  0  0
   -3.1800    3.9570  -17.0290 H   0  0  0  0  0  0  0  0  0  0  0  0
   -2.7710    6.3240  -15.5420 H   0  0  0  0  0  0  0  0  0  0  0  0
   -2.0880    5.7680  -17.1100 H   0  0  0  0  0  0  0  0  0  0  0  0
   -3.7610    6.9350  -18.1470 H   0  0  0  0  0  0  0  0  0  0  0  0
   -4.4560    7.3510  -16.5690 H   0  0  0  0  0  0  0  0  0  0  0  0
   -6.5120    4.9230  -19.1640 H   0  0  0  0  0  0  0  0  0  0  0  0
  -10.8940    4.7250  -18.3420 H   0  0  0  0  0  0  0  0  0  0  0  0
  -10.4470    5.0490  -15.9450 H   0  0  0  0  0  0  0  0  0  0  0  0
  1  2  1  0
  2  3  1  0
  3  4  2  0
  4  5  1  0
  5  6  1  0
  6  7  1  0
  7  8  1  0
  8  9  1  0
  5 10  1  0
 10 11  2  0
 11 12  1  0
 12 13  1  0
 12 14  2  0
 14 15  1  0
 15 16  2  0
 16  3  1  0
  9  6  1  0
 16 10  1  0
  1 17  1  0
  1 18  1  0
  1 19  1  0
  2 20  1  0
  2 21  1  0
  6 22  1  0
  7 23  1  0
  7 24  1  0
  8 25  1  0
  8 26  1  0
  9 27  1  0
  9 28  1  0
 11 29  1  0
 14 30  1  0
 15 31  1  0
A    1
 C1 
A    2
 C2 
A    3
 C3 
A    4
 N1 
A    5
 N2 
A    6
 C4 
A    7
 C5 
A    8
 C6 
A    9
 C7 
A   10
 C8 
A   11
 C9 
A   12
 C10
A   13
 F1 
A   14
 C11
A   15
 C12
A   16
 C13
A   17
 H1 
A   18
 H2 
A   19
 H3 
A   20
 H4 
A   21
 H5 
A   22
 H6 
A   23
 H7 
A   24
 H8 
A   25
 H9 
A   26
 H10
A   27
 H11
A   28
 H12
A   29
 H13
A   30
 H14
A   31
 H15
M  END
>  <ref_pdb>  (452) 
x0051_0B

>  <ref_mols>  (452) 
x0951_0B,x0472_0B

>  <original SMILES>  (452) 
[H]c1c(F)c([H])c2c(c(C([H])([H])C([H])([H])[H])nn2C2([H])C([H])([H])C([H])([H])C2([H])[H])c1[H]

>  <index>  (452) 
1409

>  <∆∆G>  (452) 
-5.157741

>  <∆G_bound>  (452) 
-5.070436

>  <∆G_unbound>  (452) 
0.087304

>  <comRMSD>  (452) 
0.953804

>  <N_constrained_atoms>  (452) 
18.0

>  <N_unconstrained_atoms>  (452) 
1.0

>  <runtime>  (452) 
24.130929

>  <LE>  (452) 
0.27146

>  <percent_hybrid>  (452) 
46.0

>  <dist>  (452) 
4.0

>  <ecfp4>  (452) 
0.283333

>  <daylight>  (452) 
0.490798

>  <topodist>  (452) 
3.0

>  <mces>  (452) 
16.0

>  <tdn>  (452) 
0.0

>  <tup>  (452) 
1.0

>  <rdn>  (452) 
0.0

>  <rup>  (452) 
1.0

>  <ldn>  (452) 
1.0

>  <lup>  (452) 
0.0

>  <mut>  (452) 
1.0

>  <maj>  (452) 
1.0

>  <min>  (452) 
0.0

>  <hyb>  (452) 
0.0

>  <sub>  (452) 
2.0

>  <query_index>  (452) 
55.0

>  <max_hit_Tanimoto>  (452) 
0.177509

>  <largest_ring>  (452) 
6

>  <N_interactions_kept>  (452) 
1.0

>  <N_interactions_lost>  (452) 
2.5

>  <interaction_uniqueness_metric>  (452) 
0.078036

>  <ad_hoc_penalty>  (452) 
-10.249905

>  <N_rotatable_bonds>  (452) 
3

>  <N_HA>  (452) 
16

>  <cluster>  (452) 
4925

>  <N_interactions>  (452) 
6

>  <Enamine>  (452) 
1

>  <Mcule>  (452) 
0

>  <N_PAINS>  (452) 
0

>  <UFF_Gibbs>  (452) 
96.984591

>  <strain_per_HA>  (452) 
6.061537

>  <intxn_scored>  (452) 
7.5

>  <saltbridge:HIS:51>  (452) 
0

>  <pistack:HIS:51>  (452) 
0

>  <hydroph_interaction:HIS:51>  (452) 
0

>  <hbond:ALA:132>  (452) 
0

>  <hbond:SER:135>  (452) 
0

>  <hydroph_interaction:TYR:150>  (452) 
1

>  <pistack:TYR:161>  (452) 
1

>  <hydroph_interaction:TYR:161>  (452) 
3

>  <hydroph_interaction:ASP:83>  (452) 
0

>  <hbond:TYR:130>  (452) 
0

>  <hydroph_interaction:ALA:132>  (452) 
0

>  <hbond:HIS:51>  (452) 
0

>  <hbond:ASP:129>  (452) 
0

>  <hbond:TYR:150>  (452) 
0

>  <hbond:GLY:151>  (452) 
0

>  <hbond:TYR:161>  (452) 
0

>  <hydroph_interaction:TYR:130>  (452) 
0

>  <hydroph_interaction:PRO:131>  (452) 
0

>  <hydroph_interaction:ASP:129>  (452) 
0

>  <saltbridge:ASP:75>  (452) 
0

>  <saltbridge:ASP:83>  (452) 
0

>  <hbond:ASN:152>  (452) 
0

>  <hydroph_interaction:ASN:152>  (452) 
0

>  <halogenbond:TYR:150>  (452) 
0

>  <hbond:ASP:83>  (452) 
0

>  <hydroph_interaction:VAL:155>  (452) 
1

>  <pication:TYR:161>  (452) 
0

>  <hbond:PRO:131>  (452) 
0

>  <saltbridge:ASP:129>  (452) 
0

>  <hbond:THR:134>  (452) 
0

>  <pication:HIS:51>  (452) 
0

>  <hbond:SER:81>  (452) 
0

>  <hydroph_interaction:THR:134>  (452) 
0

>  <hydroph_interaction:MET:49>  (452) 
0

$$$$
CSSB00000069788
     RDKit          3D

 20 21  0  0  0  0  0  0  0  0999 V2000
  -10.9960    4.9880  -18.5740 C   0  0  0  0  0  0  0  0  0  0  0  0
   -9.6260    5.0240  -18.0580 C   0  0  0  0  0  0  0  0  0  0  0  0
   -8.5770    5.1410  -19.0840 C   0  0  0  0  0  0  0  0  0  0  0  0
   -7.1700    5.2440  -18.6360 C   0  0  0  0  0  0  0  0  0  0  0  0
   -6.1850    5.3690  -19.6120 C   0  0  0  0  0  0  0  0  0  0  0  0
   -4.7310    5.4810  -19.2240 C   0  0  0  0  0  0  0  0  0  0  0  0
   -4.4980    5.4470  -17.8720 N   0  0  0  0  0  0  0  0  0  0  0  0
   -5.5590    5.3130  -16.8880 C   0  0  0  0  0  0  0  0  0  0  0  0
   -6.8950    5.2110  -17.2430 C   0  0  0  0  0  0  0  0  0  0  0  0
   -7.9470    5.0800  -16.3020 C   0  0  0  0  0  0  0  0  0  0  0  0
   -9.2920    4.9880  -16.7030 C   0  0  0  0  0  0  0  0  0  0  0  0
  -11.5680    5.7190  -18.0700 H   0  0  0  0  0  0  0  0  0  0  0  0
  -10.9700    5.2740  -19.6240 H   0  0  0  0  0  0  0  0  0  0  0  0
  -11.4700    4.0340  -18.4470 H   0  0  0  0  0  0  0  0  0  0  0  0
   -8.8730    5.1610  -20.1360 H   0  0  0  0  0  0  0  0  0  0  0  0
   -6.4510    5.3880  -20.6650 H   0  0  0  0  0  0  0  0  0  0  0  0
   -3.8990    5.5810  -19.9120 H   0  0  0  0  0  0  0  0  0  0  0  0
   -5.1970    5.3000  -15.8510 H   0  0  0  0  0  0  0  0  0  0  0  0
   -7.7240    5.0520  -15.2390 H   0  0  0  0  0  0  0  0  0  0  0  0
  -10.0670    4.8980  -15.9450 H   0  0  0  0  0  0  0  0  0  0  0  0
  1  2  1  0
  2  3  2  0
  3  4  1  0
  4  5  2  0
  5  6  1  0
  6  7  2  0
  7  8  1  0
  8  9  2  0
  9 10  1  0
 10 11  2  0
 11  2  1  0
  9  4  1  0
  1 12  1  0
  1 13  1  0
  1 14  1  0
  3 15  1  0
  5 16  1  0
  6 17  1  0
  8 18  1  0
 10 19  1  0
 11 20  1  0
A    1
 C1 
A    2
 C2 
A    3
 C3 
A    4
 C4 
A    5
 C5 
A    6
 C6 
A    7
 N1 
A    8
 C7 
A    9
 C8 
A   10
 C9 
A   11
 C10
A   12
 H1 
A   13
 H2 
A   14
 H3 
A   15
 H4 
A   16
 H5 
A   17
 H6 
A   18
 H7 
A   19
 H8 
A   20
 H9 
M  END
>  <ref_pdb>  (453) 
x0051_0B

>  <ref_mols>  (453) 
x0727_0B,x0605_0B

>  <original SMILES>  (453) 
[H]c1nc([H])c2c([H])c([H])c(C([H])([H])[H])c([H])c2c1[H]

>  <index>  (453) 
2444

>  <∆∆G>  (453) 
-6.410766

>  <∆G_bound>  (453) 
-6.411684

>  <∆G_unbound>  (453) 
-0.000919

>  <comRMSD>  (453) 
0.712788

>  <N_constrained_atoms>  (453) 
12.0

>  <N_unconstrained_atoms>  (453) 
0.0

>  <runtime>  (453) 
24.730508

>  <LE>  (453) 
0.53423

>  <percent_hybrid>  (453) 
25.0

>  <dist>  (453) 
2.0

>  <ecfp4>  (453) 
0.405405

>  <daylight>  (453) 
0.587302

>  <topodist>  (453) 
2.0

>  <mces>  (453) 
12.0

>  <tdn>  (453) 
2.0

>  <tup>  (453) 
0.0

>  <rdn>  (453) 
0.0

>  <rup>  (453) 
0.0

>  <ldn>  (453) 
0.0

>  <lup>  (453) 
0.0

>  <mut>  (453) 
0.0

>  <maj>  (453) 
0.0

>  <min>  (453) 
0.0

>  <hyb>  (453) 
0.0

>  <sub>  (453) 
1.0

>  <query_index>  (453) 
74.0

>  <max_hit_Tanimoto>  (453) 
0.380062

>  <largest_ring>  (453) 
6

>  <N_interactions_kept>  (453) 
0.0

>  <N_interactions_lost>  (453) 
3.5

>  <interaction_uniqueness_metric>  (453) 
0.044868

>  <ad_hoc_penalty>  (453) 
-7.193491

>  <N_rotatable_bonds>  (453) 
1

>  <N_HA>  (453) 
11

>  <cluster>  (453) 
3969

>  <N_interactions>  (453) 
5

>  <Enamine>  (453) 
1

>  <Mcule>  (453) 
0

>  <N_PAINS>  (453) 
0

>  <UFF_Gibbs>  (453) 
29.878425

>  <strain_per_HA>  (453) 
2.71622

>  <intxn_scored>  (453) 
7.5

>  <saltbridge:HIS:51>  (453) 
0

>  <pistack:HIS:51>  (453) 
0

>  <hydroph_interaction:HIS:51>  (453) 
0

>  <hbond:ALA:132>  (453) 
0

>  <hbond:SER:135>  (453) 
0

>  <hydroph_interaction:TYR:150>  (453) 
1

>  <pistack:TYR:161>  (453) 
1

>  <hydroph_interaction:TYR:161>  (453) 
3

>  <hydroph_interaction:ASP:83>  (453) 
0

>  <hbond:TYR:130>  (453) 
0

>  <hydroph_interaction:ALA:132>  (453) 
0

>  <hbond:HIS:51>  (453) 
0

>  <hbond:ASP:129>  (453) 
0

>  <hbond:TYR:150>  (453) 
0

>  <hbond:GLY:151>  (453) 
0

>  <hbond:TYR:161>  (453) 
0

>  <hydroph_interaction:TYR:130>  (453) 
0

>  <hydroph_interaction:PRO:131>  (453) 
0

>  <hydroph_interaction:ASP:129>  (453) 
0

>  <saltbridge:ASP:75>  (453) 
0

>  <saltbridge:ASP:83>  (453) 
0

>  <hbond:ASN:152>  (453) 
0

>  <hydroph_interaction:ASN:152>  (453) 
0

>  <halogenbond:TYR:150>  (453) 
0

>  <hbond:ASP:83>  (453) 
0

>  <hydroph_interaction:VAL:155>  (453) 
0

>  <pication:TYR:161>  (453) 
0

>  <hbond:PRO:131>  (453) 
0

>  <saltbridge:ASP:129>  (453) 
0

>  <hbond:THR:134>  (453) 
0

>  <pication:HIS:51>  (453) 
0

>  <hbond:SER:81>  (453) 
0

>  <hydroph_interaction:THR:134>  (453) 
0

>  <hydroph_interaction:MET:49>  (453) 
0

$$$$
Z3648312598
     RDKit          3D

 48 51  0  0  0  0  0  0  0  0999 V2000
   -9.5280    4.6790  -18.5540 C   0  0  0  0  0  0  0  0  0  0  0  0
   -8.9620    5.0250  -17.3820 C   0  0  0  0  0  0  0  0  0  0  0  0
   -9.6210    4.8870  -16.2430 N   0  0  0  0  0  0  0  0  0  0  0  0
   -9.0780    5.2300  -15.0390 N   0  0  0  0  0  0  0  0  0  0  0  0
   -7.8420    5.7260  -14.9500 C   0  0  0  0  0  0  0  0  0  0  0  0
   -7.3190    6.0680  -13.6880 N   0  0  0  0  0  0  0  0  0  0  0  0
   -7.6540    5.1050  -12.6300 C   0  0  0  0  0  0  0  0  0  0  0  0
   -8.8150    5.5680  -11.9450 C   0  0  0  0  0  0  0  0  0  0  0  0
   -8.8460    5.5750  -10.5950 C   0  0  0  0  0  0  0  0  0  0  0  0
   -9.0000    4.4200   -9.7640 C   0  0  0  0  0  0  0  0  0  0  0  0
   -9.1470    2.9860  -10.2270 C   0  0  0  0  0  0  0  0  0  0  0  0
   -9.4470    2.0310   -9.0760 C   0  0  0  0  0  0  0  0  0  0  0  0
   -9.7850    2.6350   -7.6970 C   0  0  0  0  0  0  0  0  0  0  0  0
   -9.1360    3.9860   -7.3450 C   0  0  0  0  0  0  0  0  0  0  0  0
   -8.9930    4.8490   -8.4890 N   0  0  0  0  0  0  0  0  0  0  0  0
   -8.8370    6.1840   -8.3770 N   0  0  0  0  0  0  0  0  0  0  0  0
   -8.7510    6.6240   -9.6510 C   0  0  0  0  0  0  0  0  0  0  0  0
   -7.1130    5.8920  -16.0920 C   0  0  0  0  0  0  0  0  0  0  0  0
   -7.6590    5.5470  -17.3250 C   0  0  0  0  0  0  0  0  0  0  0  0
   -6.6810    5.8200  -18.4590 C   0  0  0  0  0  0  0  0  0  0  0  0
   -5.4070    5.2700  -18.4130 C   0  0  0  0  0  0  0  0  0  0  0  0
   -4.4850    5.5110  -19.4290 C   0  0  0  0  0  0  0  0  0  0  0  0
   -4.8320    6.3150  -20.5090 C   0  0  0  0  0  0  0  0  0  0  0  0
   -6.0930    6.8710  -20.5650 C   0  0  0  0  0  0  0  0  0  0  0  0
   -6.9980    6.6170  -19.5500 C   0  0  0  0  0  0  0  0  0  0  0  0
   -9.0200    5.0680  -19.4340 H   0  0  0  0  0  0  0  0  0  0  0  0
  -10.6010    4.8240  -18.6270 H   0  0  0  0  0  0  0  0  0  0  0  0
   -9.4190    3.5950  -18.6350 H   0  0  0  0  0  0  0  0  0  0  0  0
   -7.7480    6.9760  -13.4830 H   0  0  0  0  0  0  0  0  0  0  0  0
   -7.6840    4.1150  -13.0670 H   0  0  0  0  0  0  0  0  0  0  0  0
   -6.8450    5.0920  -11.8900 H   0  0  0  0  0  0  0  0  0  0  0  0
   -9.0540    6.5770  -12.3070 H   0  0  0  0  0  0  0  0  0  0  0  0
   -9.6510    4.9400  -12.2780 H   0  0  0  0  0  0  0  0  0  0  0  0
   -8.2110    2.6780  -10.7090 H   0  0  0  0  0  0  0  0  0  0  0  0
   -9.9320    2.8990  -10.9840 H   0  0  0  0  0  0  0  0  0  0  0  0
  -10.2950    1.4160   -9.3670 H   0  0  0  0  0  0  0  0  0  0  0  0
   -8.6200    1.3390   -8.9710 H   0  0  0  0  0  0  0  0  0  0  0  0
  -10.8690    2.7210   -7.5900 H   0  0  0  0  0  0  0  0  0  0  0  0
   -9.4670    1.9060   -6.9490 H   0  0  0  0  0  0  0  0  0  0  0  0
   -9.7450    4.5140   -6.6030 H   0  0  0  0  0  0  0  0  0  0  0  0
   -8.1350    3.8430   -6.9330 H   0  0  0  0  0  0  0  0  0  0  0  0
   -8.6250    7.6850   -9.8330 H   0  0  0  0  0  0  0  0  0  0  0  0
   -6.1080    6.2950  -16.0390 H   0  0  0  0  0  0  0  0  0  0  0  0
   -5.1200    4.6470  -17.5730 H   0  0  0  0  0  0  0  0  0  0  0  0
   -3.4930    5.0700  -19.3770 H   0  0  0  0  0  0  0  0  0  0  0  0
   -4.1150    6.5040  -21.3050 H   0  0  0  0  0  0  0  0  0  0  0  0
   -6.3800    7.5030  -21.4040 H   0  0  0  0  0  0  0  0  0  0  0  0
   -7.9610    7.0550  -19.6300 H   0  0  0  0  0  0  0  0  0  0  0  0
  1  2  1  0
  2  3  2  0
  3  4  1  0
  4  5  2  0
  5  6  1  0
  6  7  1  0
  7  8  1  0
  8  9  1  0
  9 10  2  0
 10 11  1  0
 11 12  1  0
 12 13  1  0
 13 14  1  0
 14 15  1  0
 15 16  1  0
 16 17  2  0
  5 18  1  0
 18 19  2  0
 19 20  1  0
 20 21  2  0
 21 22  1  0
 22 23  2  0
 23 24  1  0
 24 25  2  0
 19  2  1  0
 17  9  1  0
 15 10  1  0
 25 20  1  0
  1 26  1  0
  1 27  1  0
  1 28  1  0
  6 29  1  0
  7 30  1  0
  7 31  1  0
  8 32  1  0
  8 33  1  0
 11 34  1  0
 11 35  1  0
 12 36  1  0
 12 37  1  0
 13 38  1  0
 13 39  1  0
 14 40  1  0
 14 41  1  0
 17 42  1  0
 18 43  1  0
 21 44  1  0
 22 45  1  0
 23 46  1  0
 24 47  1  0
 25 48  1  0
A    1
 C1 
A    2
 C2 
A    3
 N1 
A    4
 N2 
A    5
 C3 
A    6
 N3 
A    7
 C4 
A    8
 C5 
A    9
 C6 
A   10
 C7 
A   11
 C8 
A   12
 C9 
A   13
 C10
A   14
 C11
A   15
 N4 
A   16
 N5 
A   17
 C12
A   18
 C13
A   19
 C14
A   20
 C15
A   21
 C16
A   22
 C17
A   23
 C18
A   24
 C19
A   25
 C20
A   26
 H1 
A   27
 H2 
A   28
 H3 
A   29
 H4 
A   30
 H5 
A   31
 H6 
A   32
 H7 
A   33
 H8 
A   34
 H9 
A   35
 H10
A   36
 H11
A   37
 H12
A   38
 H13
A   39
 H14
A   40
 H15
A   41
 H16
A   42
 H17
A   43
 H18
A   44
 H19
A   45
 H20
A   46
 H21
A   47
 H22
A   48
 H23
M  END
>  <ref_pdb>  (454) 
x0051_0B

>  <ref_mols>  (454) 
x0969_1B,x0803_0B

>  <original SMILES>  (454) 
[H]c1nn2c(c1C([H])([H])C([H])([H])N([H])c1nnc(C([H])([H])[H])c(-c3c([H])c([H])c([H])c([H])c3[H])c1[H])C([H])([H])C([H])([H])C([H])([H])C2([H])[H]

>  <index>  (454) 
2537

>  <∆∆G>  (454) 
-7.591309

>  <∆G_bound>  (454) 
-7.444267

>  <∆G_unbound>  (454) 
0.147042

>  <comRMSD>  (454) 
0.483003

>  <N_constrained_atoms>  (454) 
22.0

>  <N_unconstrained_atoms>  (454) 
3.0

>  <runtime>  (454) 
77.294144

>  <LE>  (454) 
0.303652

>  <percent_hybrid>  (454) 
46.0

>  <dist>  (454) 
11.0

>  <ecfp4>  (454) 
0.2

>  <daylight>  (454) 
0.252874

>  <topodist>  (454) 
1.0

>  <mces>  (454) 
27.0

>  <tdn>  (454) 
0.0

>  <tup>  (454) 
0.0

>  <rdn>  (454) 
0.0

>  <rup>  (454) 
0.0

>  <ldn>  (454) 
0.0

>  <lup>  (454) 
1.0

>  <mut>  (454) 
5.0

>  <maj>  (454) 
5.0

>  <min>  (454) 
0.0

>  <hyb>  (454) 
5.0

>  <sub>  (454) 
0.0

>  <query_index>  (454) 
360.0

>  <max_hit_Tanimoto>  (454) 
0.317051

>  <largest_ring>  (454) 
6

>  <N_interactions_kept>  (454) 
3.0

>  <N_interactions_lost>  (454) 
3.0

>  <interaction_uniqueness_metric>  (454) 
0.101203

>  <ad_hoc_penalty>  (454) 
-6.169581

>  <N_rotatable_bonds>  (454) 
6

>  <N_HA>  (454) 
25

>  <cluster>  (454) 
3883

>  <N_interactions>  (454) 
6

>  <Enamine>  (454) 
1

>  <Mcule>  (454) 
0

>  <N_PAINS>  (454) 
0

>  <UFF_Gibbs>  (454) 
96.136202

>  <strain_per_HA>  (454) 
3.845448

>  <intxn_scored>  (454) 
7.5

>  <saltbridge:HIS:51>  (454) 
0

>  <pistack:HIS:51>  (454) 
0

>  <hydroph_interaction:HIS:51>  (454) 
1

>  <hbond:ALA:132>  (454) 
0

>  <hbond:SER:135>  (454) 
0

>  <hydroph_interaction:TYR:150>  (454) 
1

>  <pistack:TYR:161>  (454) 
1

>  <hydroph_interaction:TYR:161>  (454) 
2

>  <hydroph_interaction:ASP:83>  (454) 
0

>  <hbond:TYR:130>  (454) 
0

>  <hydroph_interaction:ALA:132>  (454) 
1

>  <hbond:HIS:51>  (454) 
0

>  <hbond:ASP:129>  (454) 
0

>  <hbond:TYR:150>  (454) 
0

>  <hbond:GLY:151>  (454) 
0

>  <hbond:TYR:161>  (454) 
0

>  <hydroph_interaction:TYR:130>  (454) 
0

>  <hydroph_interaction:PRO:131>  (454) 
0

>  <hydroph_interaction:ASP:129>  (454) 
0

>  <saltbridge:ASP:75>  (454) 
0

>  <saltbridge:ASP:83>  (454) 
0

>  <hbond:ASN:152>  (454) 
0

>  <hydroph_interaction:ASN:152>  (454) 
0

>  <halogenbond:TYR:150>  (454) 
0

>  <hbond:ASP:83>  (454) 
0

>  <hydroph_interaction:VAL:155>  (454) 
0

>  <pication:TYR:161>  (454) 
0

>  <hbond:PRO:131>  (454) 
0

>  <saltbridge:ASP:129>  (454) 
0

>  <hbond:THR:134>  (454) 
0

>  <pication:HIS:51>  (454) 
0

>  <hbond:SER:81>  (454) 
0

>  <hydroph_interaction:THR:134>  (454) 
0

>  <hydroph_interaction:MET:49>  (454) 
0

$$$$
Z5505748080
     RDKit          3D

 29 30  0  0  0  0  0  0  0  0999 V2000
   -3.0330    4.2700  -15.2740 C   0  0  0  0  0  0  0  0  0  0  0  0
   -2.7790    5.3540  -16.3110 C   0  0  0  0  0  0  0  0  0  0  0  0
   -1.3340    5.7080  -16.5440 C   0  0  0  0  0  0  0  0  0  0  0  0
   -0.4680    5.4530  -15.3940 N   0  0  0  0  0  0  0  0  0  0  0  0
   -3.5720    5.1130  -17.7980 S   0  0  0  0  0  0  0  0  0  0  0  0
   -5.1700    5.7590  -17.2430 C   0  0  0  0  0  0  0  0  0  0  0  0
   -6.2230    5.5220  -18.1900 N   0  0  0  0  0  0  0  0  0  0  0  0
   -5.9690    5.5170  -19.5120 N   0  0  0  0  0  0  0  0  0  0  0  0
   -7.1150    5.2750  -20.1280 N   0  0  0  0  0  0  0  0  0  0  0  0
   -8.0800    5.1320  -19.1750 C   0  0  0  0  0  0  0  0  0  0  0  0
   -9.4450    4.8730  -19.2670 C   0  0  0  0  0  0  0  0  0  0  0  0
  -10.2600    4.7590  -18.1370 C   0  0  0  0  0  0  0  0  0  0  0  0
   -9.7210    4.9060  -16.8480 C   0  0  0  0  0  0  0  0  0  0  0  0
   -8.3660    5.1710  -16.6640 C   0  0  0  0  0  0  0  0  0  0  0  0
   -7.5320    5.2830  -17.9200 C   0  0  0  0  0  0  0  0  0  0  0  0
   -3.1100    3.3040  -15.7700 H   0  0  0  0  0  0  0  0  0  0  0  0
   -3.9700    4.4410  -14.7360 H   0  0  0  0  0  0  0  0  0  0  0  0
   -2.2180    4.2100  -14.5500 H   0  0  0  0  0  0  0  0  0  0  0  0
   -3.2310    6.2660  -15.8930 H   0  0  0  0  0  0  0  0  0  0  0  0
   -1.2620    6.7780  -16.7620 H   0  0  0  0  0  0  0  0  0  0  0  0
   -0.8990    5.2100  -17.4110 H   0  0  0  0  0  0  0  0  0  0  0  0
    0.4880    5.7370  -15.6030 H   0  0  0  0  0  0  0  0  0  0  0  0
   -0.7680    5.9960  -14.5870 H   0  0  0  0  0  0  0  0  0  0  0  0
   -5.1100    6.8360  -17.0820 H   0  0  0  0  0  0  0  0  0  0  0  0
   -5.4690    5.2740  -16.3100 H   0  0  0  0  0  0  0  0  0  0  0  0
   -9.7520    4.7820  -20.3210 H   0  0  0  0  0  0  0  0  0  0  0  0
  -11.3190    4.5570  -18.2600 H   0  0  0  0  0  0  0  0  0  0  0  0
  -10.3270    4.8220  -15.9580 H   0  0  0  0  0  0  0  0  0  0  0  0
   -7.9390    5.2880  -15.6720 H   0  0  0  0  0  0  0  0  0  0  0  0
  1  2  1  0
  2  3  1  0
  3  4  1  0
  2  5  1  0
  5  6  1  0
  6  7  1  0
  7  8  1  0
  8  9  2  0
  9 10  1  0
 10 11  2  0
 11 12  1  0
 12 13  2  0
 13 14  1  0
 14 15  2  0
 15  7  1  0
 15 10  1  0
  1 16  1  0
  1 17  1  0
  1 18  1  0
  2 19  1  0
  3 20  1  0
  3 21  1  0
  4 22  1  0
  4 23  1  0
  6 24  1  0
  6 25  1  0
 11 26  1  0
 12 27  1  0
 13 28  1  0
 14 29  1  0
A    1
 C1 
A    2
 C2 
A    3
 C3 
A    4
 N1 
A    5
 S1 
A    6
 C4 
A    7
 N2 
A    8
 N3 
A    9
 N4 
A   10
 C5 
A   11
 C6 
A   12
 C7 
A   13
 C8 
A   14
 C9 
A   15
 C10
A   16
 H1 
A   17
 H2 
A   18
 H3 
A   19
 H4 
A   20
 H5 
A   21
 H6 
A   22
 H7 
A   23
 H8 
A   24
 H9 
A   25
 H10
A   26
 H11
A   27
 H12
A   28
 H13
A   29
 H14
M  END
>  <ref_pdb>  (455) 
x0051_0B

>  <ref_mols>  (455) 
x0490_0B,x0472_0B

>  <original SMILES>  (455) 
[H]c1c([H])c([H])c2c(nnn2C([H])([H])SC([H])(C([H])([H])[H])C([H])([H])N([H])[H])c1[H]

>  <index>  (455) 
3108

>  <∆∆G>  (455) 
-6.972897

>  <∆G_bound>  (455) 
-6.911754

>  <∆G_unbound>  (455) 
0.061143

>  <comRMSD>  (455) 
0.504093

>  <N_constrained_atoms>  (455) 
15.0

>  <N_unconstrained_atoms>  (455) 
2.0

>  <runtime>  (455) 
27.228302

>  <LE>  (455) 
0.41017

>  <percent_hybrid>  (455) 
43.0

>  <dist>  (455) 
2.0

>  <ecfp4>  (455) 
0.372549

>  <daylight>  (455) 
0.233083

>  <topodist>  (455) 
1.0

>  <mces>  (455) 
15.0

>  <tdn>  (455) 
0.0

>  <tup>  (455) 
0.0

>  <rdn>  (455) 
0.0

>  <rup>  (455) 
0.0

>  <ldn>  (455) 
0.0

>  <lup>  (455) 
1.0

>  <mut>  (455) 
1.0

>  <maj>  (455) 
1.0

>  <min>  (455) 
0.0

>  <hyb>  (455) 
0.0

>  <sub>  (455) 
0.0

>  <query_index>  (455) 
228.0

>  <max_hit_Tanimoto>  (455) 
0.226667

>  <largest_ring>  (455) 
6

>  <N_interactions_kept>  (455) 
1.0

>  <N_interactions_lost>  (455) 
3.0

>  <interaction_uniqueness_metric>  (455) 
0.078036

>  <ad_hoc_penalty>  (455) 
-4.044512

>  <N_rotatable_bonds>  (455) 
6

>  <N_HA>  (455) 
15

>  <cluster>  (455) 
3344

>  <N_interactions>  (455) 
6

>  <Enamine>  (455) 
1

>  <Mcule>  (455) 
0

>  <N_PAINS>  (455) 
0

>  <UFF_Gibbs>  (455) 
39.923344

>  <strain_per_HA>  (455) 
2.661556

>  <intxn_scored>  (455) 
7.5

>  <saltbridge:HIS:51>  (455) 
0

>  <pistack:HIS:51>  (455) 
0

>  <hydroph_interaction:HIS:51>  (455) 
0

>  <hbond:ALA:132>  (455) 
0

>  <hbond:SER:135>  (455) 
0

>  <hydroph_interaction:TYR:150>  (455) 
1

>  <pistack:TYR:161>  (455) 
1

>  <hydroph_interaction:TYR:161>  (455) 
3

>  <hydroph_interaction:ASP:83>  (455) 
0

>  <hbond:TYR:130>  (455) 
0

>  <hydroph_interaction:ALA:132>  (455) 
0

>  <hbond:HIS:51>  (455) 
0

>  <hbond:ASP:129>  (455) 
0

>  <hbond:TYR:150>  (455) 
0

>  <hbond:GLY:151>  (455) 
0

>  <hbond:TYR:161>  (455) 
0

>  <hydroph_interaction:TYR:130>  (455) 
0

>  <hydroph_interaction:PRO:131>  (455) 
0

>  <hydroph_interaction:ASP:129>  (455) 
0

>  <saltbridge:ASP:75>  (455) 
0

>  <saltbridge:ASP:83>  (455) 
0

>  <hbond:ASN:152>  (455) 
0

>  <hydroph_interaction:ASN:152>  (455) 
0

>  <halogenbond:TYR:150>  (455) 
0

>  <hbond:ASP:83>  (455) 
0

>  <hydroph_interaction:VAL:155>  (455) 
1

>  <pication:TYR:161>  (455) 
0

>  <hbond:PRO:131>  (455) 
0

>  <saltbridge:ASP:129>  (455) 
0

>  <hbond:THR:134>  (455) 
0

>  <pication:HIS:51>  (455) 
0

>  <hbond:SER:81>  (455) 
0

>  <hydroph_interaction:THR:134>  (455) 
0

>  <hydroph_interaction:MET:49>  (455) 
0

$$$$
CSSS00000077566
     RDKit          3D

 25 26  0  0  0  0  0  0  0  0999 V2000
   -3.9780    5.0050  -15.7000 C   0  0  0  0  0  0  0  0  0  0  0  0
   -5.1990    5.7170  -15.8490 O   0  0  0  0  0  0  0  0  0  0  0  0
   -5.7540    5.5600  -17.1630 C   0  0  0  0  0  0  0  0  0  0  0  0
   -4.8150    5.6230  -18.1830 C   0  0  0  0  0  0  0  0  0  0  0  0
   -5.2260    5.4900  -19.5050 C   0  0  0  0  0  0  0  0  0  0  0  0
   -6.5690    5.2930  -19.8050 C   0  0  0  0  0  0  0  0  0  0  0  0
   -7.5150    5.2220  -18.7960 C   0  0  0  0  0  0  0  0  0  0  0  0
   -7.1120    5.3570  -17.4500 C   0  0  0  0  0  0  0  0  0  0  0  0
   -8.1570    5.2720  -16.4110 C   0  0  0  0  0  0  0  0  0  0  0  0
   -7.8930    5.2650  -15.2110 O   0  0  0  0  0  0  0  0  0  0  0  0
   -9.4850    5.1940  -16.8100 C   0  0  0  0  0  0  0  0  0  0  0  0
   -9.6740    4.6140  -18.0840 C   0  0  0  0  0  0  0  0  0  0  0  0
   -8.8530    5.0110  -19.1280 C   0  0  0  0  0  0  0  0  0  0  0  0
   -3.1550    5.6870  -15.4480 H   0  0  0  0  0  0  0  0  0  0  0  0
   -4.1050    4.2770  -14.8950 H   0  0  0  0  0  0  0  0  0  0  0  0
   -3.7330    4.4410  -16.6040 H   0  0  0  0  0  0  0  0  0  0  0  0
   -3.7610    5.7760  -17.9640 H   0  0  0  0  0  0  0  0  0  0  0  0
   -4.4990    5.5380  -20.3110 H   0  0  0  0  0  0  0  0  0  0  0  0
   -6.8450    5.1960  -20.8510 H   0  0  0  0  0  0  0  0  0  0  0  0
   -9.9190    4.4960  -16.0900 H   0  0  0  0  0  0  0  0  0  0  0  0
  -10.0730    6.0930  -16.6510 H   0  0  0  0  0  0  0  0  0  0  0  0
   -9.7410    3.5500  -18.0630 H   0  0  0  0  0  0  0  0  0  0  0  0
  -10.6870    4.9230  -18.3870 H   0  0  0  0  0  0  0  0  0  0  0  0
   -8.8380    4.1280  -19.7800 H   0  0  0  0  0  0  0  0  0  0  0  0
   -9.3090    5.7630  -19.7630 H   0  0  0  0  0  0  0  0  0  0  0  0
  1  2  1  0
  2  3  1  0
  3  4  2  0
  4  5  1  0
  5  6  2  0
  6  7  1  0
  7  8  2  0
  8  9  1  0
  9 10  2  0
  9 11  1  0
 11 12  1  0
 12 13  1  0
  8  3  1  0
 13  7  1  0
  1 14  1  0
  1 15  1  0
  1 16  1  0
  4 17  1  0
  5 18  1  0
  6 19  1  0
 11 20  1  0
 11 21  1  0
 12 22  1  0
 12 23  1  0
 13 24  1  0
 13 25  1  0
A    1
 C1 
A    2
 O1 
A    3
 C2 
A    4
 C3 
A    5
 C4 
A    6
 C5 
A    7
 C6 
A    8
 C7 
A    9
 C8 
A   10
 O2 
A   11
 C9 
A   12
 C10
A   13
 C11
A   14
 H1 
A   15
 H2 
A   16
 H3 
A   17
 H4 
A   18
 H5 
A   19
 H6 
A   20
 H7 
A   21
 H8 
A   22
 H9 
A   23
 H10
A   24
 H11
A   25
 H12
M  END
>  <ref_pdb>  (456) 
x0051_0B

>  <ref_mols>  (456) 
x0727_0B,x0455_0B

>  <original SMILES>  (456) 
[H]c1c([H])c(OC([H])([H])[H])c2c(c1[H])C([H])([H])C([H])([H])C([H])([H])C2=O

>  <index>  (456) 
2360

>  <∆∆G>  (456) 
-5.914786

>  <∆G_bound>  (456) 
-5.515827

>  <∆G_unbound>  (456) 
0.398959

>  <comRMSD>  (456) 
0.435668

>  <N_constrained_atoms>  (456) 
13.0

>  <N_unconstrained_atoms>  (456) 
0.0

>  <runtime>  (456) 
19.670361

>  <LE>  (456) 
0.454984

>  <percent_hybrid>  (456) 
20.0

>  <dist>  (456) 
5.0

>  <ecfp4>  (456) 
0.188679

>  <daylight>  (456) 
0.212766

>  <topodist>  (456) 
2.0

>  <mces>  (456) 
14.0

>  <tdn>  (456) 
1.0

>  <tup>  (456) 
0.0

>  <rdn>  (456) 
1.0

>  <rup>  (456) 
0.0

>  <ldn>  (456) 
0.0

>  <lup>  (456) 
0.0

>  <mut>  (456) 
2.0

>  <maj>  (456) 
2.0

>  <min>  (456) 
0.0

>  <hyb>  (456) 
1.0

>  <sub>  (456) 
1.0

>  <query_index>  (456) 
57.0

>  <max_hit_Tanimoto>  (456) 
0.164766

>  <largest_ring>  (456) 
6

>  <N_interactions_kept>  (456) 
0.0

>  <N_interactions_lost>  (456) 
3.0

>  <interaction_uniqueness_metric>  (456) 
0.044868

>  <ad_hoc_penalty>  (456) 
-4.772005

>  <N_rotatable_bonds>  (456) 
2

>  <N_HA>  (456) 
13

>  <cluster>  (456) 
4049

>  <N_interactions>  (456) 
5

>  <Enamine>  (456) 
1

>  <Mcule>  (456) 
0

>  <N_PAINS>  (456) 
0

>  <UFF_Gibbs>  (456) 
73.24812

>  <strain_per_HA>  (456) 
5.634471

>  <intxn_scored>  (456) 
7.5

>  <saltbridge:HIS:51>  (456) 
0

>  <pistack:HIS:51>  (456) 
0

>  <hydroph_interaction:HIS:51>  (456) 
0

>  <hbond:ALA:132>  (456) 
0

>  <hbond:SER:135>  (456) 
0

>  <hydroph_interaction:TYR:150>  (456) 
1

>  <pistack:TYR:161>  (456) 
1

>  <hydroph_interaction:TYR:161>  (456) 
3

>  <hydroph_interaction:ASP:83>  (456) 
0

>  <hbond:TYR:130>  (456) 
0

>  <hydroph_interaction:ALA:132>  (456) 
0

>  <hbond:HIS:51>  (456) 
0

>  <hbond:ASP:129>  (456) 
0

>  <hbond:TYR:150>  (456) 
0

>  <hbond:GLY:151>  (456) 
0

>  <hbond:TYR:161>  (456) 
0

>  <hydroph_interaction:TYR:130>  (456) 
0

>  <hydroph_interaction:PRO:131>  (456) 
0

>  <hydroph_interaction:ASP:129>  (456) 
0

>  <saltbridge:ASP:75>  (456) 
0

>  <saltbridge:ASP:83>  (456) 
0

>  <hbond:ASN:152>  (456) 
0

>  <hydroph_interaction:ASN:152>  (456) 
0

>  <halogenbond:TYR:150>  (456) 
0

>  <hbond:ASP:83>  (456) 
0

>  <hydroph_interaction:VAL:155>  (456) 
0

>  <pication:TYR:161>  (456) 
0

>  <hbond:PRO:131>  (456) 
0

>  <saltbridge:ASP:129>  (456) 
0

>  <hbond:THR:134>  (456) 
0

>  <pication:HIS:51>  (456) 
0

>  <hbond:SER:81>  (456) 
0

>  <hydroph_interaction:THR:134>  (456) 
0

>  <hydroph_interaction:MET:49>  (456) 
0

$$$$
CSSB00000210931
     RDKit          3D

 19 19  0  0  0  0  0  0  0  0999 V2000
  -10.6420    4.9540  -18.6050 C   0  0  0  0  0  0  0  0  0  0  0  0
   -9.4220    5.0190  -18.1060 C   0  0  0  0  0  0  0  0  0  0  0  0
   -9.1300    4.9540  -16.6710 C   0  0  0  0  0  0  0  0  0  0  0  0
   -7.7270    5.0690  -16.2030 C   0  0  0  0  0  0  0  0  0  0  0  0
   -6.7170    5.2370  -17.1550 C   0  0  0  0  0  0  0  0  0  0  0  0
   -5.4210    5.3460  -16.7030 C   0  0  0  0  0  0  0  0  0  0  0  0
   -7.0430    5.2890  -18.5310 C   0  0  0  0  0  0  0  0  0  0  0  0
   -6.0650    5.4540  -19.4740 O   0  0  0  0  0  0  0  0  0  0  0  0
   -8.3470    5.1780  -18.9700 C   0  0  0  0  0  0  0  0  0  0  0  0
  -11.3160    5.6210  -18.0850 H   0  0  0  0  0  0  0  0  0  0  0  0
  -11.0430    3.9620  -18.5580 H   0  0  0  0  0  0  0  0  0  0  0  0
  -10.6490    5.2760  -19.6510 H   0  0  0  0  0  0  0  0  0  0  0  0
   -9.9980    4.8240  -16.0080 H   0  0  0  0  0  0  0  0  0  0  0  0
   -7.4990    5.0240  -15.1410 H   0  0  0  0  0  0  0  0  0  0  0  0
   -5.3080    4.8280  -15.7460 H   0  0  0  0  0  0  0  0  0  0  0  0
   -5.1370    6.3930  -16.5490 H   0  0  0  0  0  0  0  0  0  0  0  0
   -4.7280    4.9140  -17.4310 H   0  0  0  0  0  0  0  0  0  0  0  0
   -5.2120    5.1930  -19.0990 H   0  0  0  0  0  0  0  0  0  0  0  0
   -8.4680    5.2350  -20.0550 H   0  0  0  0  0  0  0  0  0  0  0  0
  1  2  1  0
  2  3  2  0
  3  4  1  0
  4  5  2  0
  5  6  1  0
  5  7  1  0
  7  8  1  0
  7  9  2  0
  9  2  1  0
  1 10  1  0
  1 11  1  0
  1 12  1  0
  3 13  1  0
  4 14  1  0
  6 15  1  0
  6 16  1  0
  6 17  1  0
  8 18  1  0
  9 19  1  0
A    1
 C1 
A    2
 C2 
A    3
 C3 
A    4
 C4 
A    5
 C5 
A    6
 C6 
A    7
 C7 
A    8
 O1 
A    9
 C8 
A   10
 H1 
A   11
 H2 
A   12
 H3 
A   13
 H4 
A   14
 H5 
A   15
 H6 
A   16
 H7 
A   17
 H8 
A   18
 H9 
A   19
 H10
M  END
>  <ref_pdb>  (457) 
x0051_0B

>  <ref_mols>  (457) 
x0553_0B,x0382_0B

>  <original SMILES>  (457) 
[H]Oc1c([H])c(C([H])([H])[H])c([H])c([H])c1C([H])([H])[H]

>  <index>  (457) 
1115

>  <∆∆G>  (457) 
-6.328929

>  <∆G_bound>  (457) 
-6.350085

>  <∆G_unbound>  (457) 
-0.021157

>  <comRMSD>  (457) 
0.680545

>  <N_constrained_atoms>  (457) 
10.0

>  <N_unconstrained_atoms>  (457) 
0.0

>  <runtime>  (457) 
24.956193

>  <LE>  (457) 
0.632893

>  <percent_hybrid>  (457) 
25.0

>  <dist>  (457) 
2.0

>  <ecfp4>  (457) 
0.5

>  <daylight>  (457) 
0.705882

>  <topodist>  (457) 
1.0

>  <mces>  (457) 
9.0

>  <tdn>  (457) 
1.0

>  <tup>  (457) 
0.0

>  <rdn>  (457) 
0.0

>  <rup>  (457) 
0.0

>  <ldn>  (457) 
0.0

>  <lup>  (457) 
0.0

>  <mut>  (457) 
0.0

>  <maj>  (457) 
0.0

>  <min>  (457) 
0.0

>  <hyb>  (457) 
1.0

>  <sub>  (457) 
0.0

>  <query_index>  (457) 
348.0

>  <max_hit_Tanimoto>  (457) 
0.11215

>  <largest_ring>  (457) 
6

>  <N_interactions_kept>  (457) 
0.0

>  <N_interactions_lost>  (457) 
1.5

>  <interaction_uniqueness_metric>  (457) 
0.062354

>  <ad_hoc_penalty>  (457) 
-12.397039

>  <N_rotatable_bonds>  (457) 
3

>  <N_HA>  (457) 
9

>  <cluster>  (457) 
5196

>  <N_interactions>  (457) 
4

>  <Enamine>  (457) 
1

>  <Mcule>  (457) 
0

>  <N_PAINS>  (457) 
0

>  <UFF_Gibbs>  (457) 
53.540822

>  <strain_per_HA>  (457) 
5.94898

>  <intxn_scored>  (457) 
7.5

>  <saltbridge:HIS:51>  (457) 
0

>  <pistack:HIS:51>  (457) 
0

>  <hydroph_interaction:HIS:51>  (457) 
0

>  <hbond:ALA:132>  (457) 
0

>  <hbond:SER:135>  (457) 
0

>  <hydroph_interaction:TYR:150>  (457) 
1

>  <pistack:TYR:161>  (457) 
1

>  <hydroph_interaction:TYR:161>  (457) 
1

>  <hydroph_interaction:ASP:83>  (457) 
0

>  <hbond:TYR:130>  (457) 
1

>  <hydroph_interaction:ALA:132>  (457) 
0

>  <hbond:HIS:51>  (457) 
0

>  <hbond:ASP:129>  (457) 
0

>  <hbond:TYR:150>  (457) 
0

>  <hbond:GLY:151>  (457) 
0

>  <hbond:TYR:161>  (457) 
0

>  <hydroph_interaction:TYR:130>  (457) 
0

>  <hydroph_interaction:PRO:131>  (457) 
0

>  <hydroph_interaction:ASP:129>  (457) 
0

>  <saltbridge:ASP:75>  (457) 
0

>  <saltbridge:ASP:83>  (457) 
0

>  <hbond:ASN:152>  (457) 
0

>  <hydroph_interaction:ASN:152>  (457) 
0

>  <halogenbond:TYR:150>  (457) 
0

>  <hbond:ASP:83>  (457) 
0

>  <hydroph_interaction:VAL:155>  (457) 
0

>  <pication:TYR:161>  (457) 
0

>  <hbond:PRO:131>  (457) 
0

>  <saltbridge:ASP:129>  (457) 
0

>  <hbond:THR:134>  (457) 
0

>  <pication:HIS:51>  (457) 
0

>  <hbond:SER:81>  (457) 
0

>  <hydroph_interaction:THR:134>  (457) 
0

>  <hydroph_interaction:MET:49>  (457) 
0

$$$$
PV-005438836261
     RDKit          3D

 24 24  0  0  0  0  0  0  0  0999 V2000
  -10.7430    4.0220  -12.4270 C   0  0  0  0  0  0  0  0  0  0  0  0
   -9.9610    5.1920  -12.9100 C   0  0  0  0  0  0  0  0  0  0  0  0
  -10.0380    5.9790  -14.1720 C   0  0  0  0  0  0  0  0  0  0  0  0
   -9.9510    5.1030  -15.3360 N   0  0  0  0  0  0  0  0  0  0  0  0
   -8.8760    5.2050  -16.2160 C   0  0  0  0  0  0  0  0  0  0  0  0
   -9.1040    4.7950  -17.6920 C   0  0  0  0  0  0  0  0  0  0  0  0
   -8.0210    4.9070  -18.5350 C   0  0  0  0  0  0  0  0  0  0  0  0
   -8.2760    4.4950  -19.9630 C   0  0  0  0  0  0  0  0  0  0  0  0
   -6.7770    5.3580  -18.1350 C   0  0  0  0  0  0  0  0  0  0  0  0
   -6.5830    5.7460  -16.7030 C   0  0  0  0  0  0  0  0  0  0  0  0
   -7.6240    5.6570  -15.8030 C   0  0  0  0  0  0  0  0  0  0  0  0
  -11.5390    3.5790  -13.0320 H   0  0  0  0  0  0  0  0  0  0  0  0
  -10.5440    3.5660  -11.4480 H   0  0  0  0  0  0  0  0  0  0  0  0
   -9.1760    5.5880  -12.2600 H   0  0  0  0  0  0  0  0  0  0  0  0
   -9.2030    6.6840  -14.1960 H   0  0  0  0  0  0  0  0  0  0  0  0
  -10.9600    6.5720  -14.2020 H   0  0  0  0  0  0  0  0  0  0  0  0
  -10.0760    4.1220  -15.0960 H   0  0  0  0  0  0  0  0  0  0  0  0
  -10.0670    4.4370  -18.0470 H   0  0  0  0  0  0  0  0  0  0  0  0
   -7.4910    4.8600  -20.6400 H   0  0  0  0  0  0  0  0  0  0  0  0
   -8.3440    3.4080  -20.0470 H   0  0  0  0  0  0  0  0  0  0  0  0
   -9.2390    4.9040  -20.2940 H   0  0  0  0  0  0  0  0  0  0  0  0
   -5.9510    5.4310  -18.8350 H   0  0  0  0  0  0  0  0  0  0  0  0
   -5.5790    6.0950  -16.4410 H   0  0  0  0  0  0  0  0  0  0  0  0
   -7.4380    5.9470  -14.7740 H   0  0  0  0  0  0  0  0  0  0  0  0
  1  2  2  3
  2  3  1  0
  3  4  1  0
  4  5  1  0
  5  6  2  0
  6  7  1  0
  7  8  1  0
  7  9  2  0
  9 10  1  0
 10 11  2  0
 11  5  1  0
  1 12  1  0
  1 13  1  0
  2 14  1  0
  3 15  1  0
  3 16  1  0
  4 17  1  0
  6 18  1  0
  8 19  1  0
  8 20  1  0
  8 21  1  0
  9 22  1  0
 10 23  1  0
 11 24  1  0
A    1
 C1 
A    2
 C2 
A    3
 C3 
A    4
 N1 
A    5
 C4 
A    6
 C5 
A    7
 C6 
A    8
 C7 
A    9
 C8 
A   10
 C9 
A   11
 C10
A   12
 H1 
A   13
 H2 
A   14
 H3 
A   15
 H4 
A   16
 H5 
A   17
 H6 
A   18
 H7 
A   19
 H8 
A   20
 H9 
A   21
 H10
A   22
 H11
A   23
 H12
A   24
 H13
M  END
>  <ref_pdb>  (458) 
x0051_0B

>  <ref_mols>  (458) 
x0589_0B,x0559_0B

>  <original SMILES>  (458) 
[H]C([H])=C([H])C([H])([H])N([H])c1c([H])c([H])c([H])c(C([H])([H])[H])c1[H]

>  <index>  (458) 
2595

>  <∆∆G>  (458) 
-6.58843

>  <∆G_bound>  (458) 
-6.558859

>  <∆G_unbound>  (458) 
0.029571

>  <comRMSD>  (458) 
0.855663

>  <N_constrained_atoms>  (458) 
9.0

>  <N_unconstrained_atoms>  (458) 
4.0

>  <runtime>  (458) 
36.981365

>  <LE>  (458) 
0.506802

>  <percent_hybrid>  (458) 
34.0

>  <dist>  (458) 
3.0

>  <ecfp4>  (458) 
0.333333

>  <daylight>  (458) 
0.403846

>  <topodist>  (458) 
2.0

>  <mces>  (458) 
9.0

>  <tdn>  (458) 
0.0

>  <tup>  (458) 
1.0

>  <rdn>  (458) 
0.0

>  <rup>  (458) 
0.0

>  <ldn>  (458) 
0.0

>  <lup>  (458) 
1.0

>  <mut>  (458) 
0.0

>  <maj>  (458) 
0.0

>  <min>  (458) 
0.0

>  <hyb>  (458) 
1.0

>  <sub>  (458) 
1.0

>  <query_index>  (458) 
367.0

>  <max_hit_Tanimoto>  (458) 
0.063291

>  <largest_ring>  (458) 
6

>  <N_interactions_kept>  (458) 
1.0

>  <N_interactions_lost>  (458) 
2.5

>  <interaction_uniqueness_metric>  (458) 
0.105721

>  <ad_hoc_penalty>  (458) 
-4.655899

>  <N_rotatable_bonds>  (458) 
4

>  <N_HA>  (458) 
11

>  <cluster>  (458) 
3829

>  <N_interactions>  (458) 
5

>  <Enamine>  (458) 
1

>  <Mcule>  (458) 
0

>  <N_PAINS>  (458) 
0

>  <UFF_Gibbs>  (458) 
55.958212

>  <strain_per_HA>  (458) 
5.08711

>  <intxn_scored>  (458) 
7.5

>  <saltbridge:HIS:51>  (458) 
0

>  <pistack:HIS:51>  (458) 
0

>  <hydroph_interaction:HIS:51>  (458) 
0

>  <hbond:ALA:132>  (458) 
0

>  <hbond:SER:135>  (458) 
2

>  <hydroph_interaction:TYR:150>  (458) 
1

>  <pistack:TYR:161>  (458) 
1

>  <hydroph_interaction:TYR:161>  (458) 
1

>  <hydroph_interaction:ASP:83>  (458) 
0

>  <hbond:TYR:130>  (458) 
0

>  <hydroph_interaction:ALA:132>  (458) 
0

>  <hbond:HIS:51>  (458) 
0

>  <hbond:ASP:129>  (458) 
0

>  <hbond:TYR:150>  (458) 
0

>  <hbond:GLY:151>  (458) 
0

>  <hbond:TYR:161>  (458) 
0

>  <hydroph_interaction:TYR:130>  (458) 
0

>  <hydroph_interaction:PRO:131>  (458) 
0

>  <hydroph_interaction:ASP:129>  (458) 
0

>  <saltbridge:ASP:75>  (458) 
0

>  <saltbridge:ASP:83>  (458) 
0

>  <hbond:ASN:152>  (458) 
0

>  <hydroph_interaction:ASN:152>  (458) 
0

>  <halogenbond:TYR:150>  (458) 
0

>  <hbond:ASP:83>  (458) 
0

>  <hydroph_interaction:VAL:155>  (458) 
0

>  <pication:TYR:161>  (458) 
0

>  <hbond:PRO:131>  (458) 
0

>  <saltbridge:ASP:129>  (458) 
0

>  <hbond:THR:134>  (458) 
0

>  <pication:HIS:51>  (458) 
0

>  <hbond:SER:81>  (458) 
0

>  <hydroph_interaction:THR:134>  (458) 
0

>  <hydroph_interaction:MET:49>  (458) 
0

$$$$
Z1882207691
     RDKit          3D

 52 54  0  0  0  0  0  0  0  0999 V2000
   -4.7260    5.9700  -17.5210 C   0  0  0  0  0  0  0  0  0  0  0  0
   -5.7010    5.6570  -18.5460 N   0  0  0  0  0  0  0  0  0  0  0  0
   -5.1940    5.4020  -19.8350 C   0  0  0  0  0  0  0  0  0  0  0  0
   -3.9890    5.2270  -20.0510 O   0  0  0  0  0  0  0  0  0  0  0  0
   -6.0910    5.3700  -21.0000 C   0  0  0  0  0  0  0  0  0  0  0  0
   -5.5870    5.8240  -22.2550 O   0  0  0  0  0  0  0  0  0  0  0  0
   -5.4910    7.1830  -22.3970 C   0  0  0  0  0  0  0  0  0  0  0  0
   -4.9050    7.8070  -21.2910 C   0  0  0  0  0  0  0  0  0  0  0  0
   -4.7190    9.2690  -21.2620 C   0  0  0  0  0  0  0  0  0  0  0  0
   -5.1400   10.0090  -22.3630 C   0  0  0  0  0  0  0  0  0  0  0  0
   -5.7230    9.3840  -23.4650 C   0  0  0  0  0  0  0  0  0  0  0  0
   -6.1230   10.1850  -24.5450 C   0  0  0  0  0  0  0  0  0  0  0  0
   -6.1540    9.4530  -25.7900 N   0  0  0  0  0  0  0  0  0  0  0  0
   -7.1990    9.6850  -26.6460 C   0  0  0  0  0  0  0  0  0  0  0  0
   -7.7750   10.7590  -26.6780 O   0  0  0  0  0  0  0  0  0  0  0  0
   -7.5090    8.5860  -27.4100 N   0  0  0  0  0  0  0  0  0  0  0  0
   -8.8340    8.2850  -27.7310 C   0  0  0  0  0  0  0  0  0  0  0  0
   -9.7080    9.3730  -27.6520 C   0  0  0  0  0  0  0  0  0  0  0  0
  -11.0660    9.2300  -27.9180 C   0  0  0  0  0  0  0  0  0  0  0  0
  -11.5580    7.9760  -28.2810 C   0  0  0  0  0  0  0  0  0  0  0  0
  -10.6930    6.8900  -28.3710 C   0  0  0  0  0  0  0  0  0  0  0  0
   -9.3300    7.0340  -28.0970 C   0  0  0  0  0  0  0  0  0  0  0  0
   -5.9010    7.9760  -23.4870 C   0  0  0  0  0  0  0  0  0  0  0  0
   -7.0230    5.3190  -18.0350 C   0  0  0  0  0  0  0  0  0  0  0  0
   -8.1340    4.9440  -18.8110 C   0  0  0  0  0  0  0  0  0  0  0  0
   -9.3690    4.6360  -18.2180 C   0  0  0  0  0  0  0  0  0  0  0  0
   -9.5170    4.7020  -16.8410 C   0  0  0  0  0  0  0  0  0  0  0  0
   -8.4460    5.0650  -16.0530 C   0  0  0  0  0  0  0  0  0  0  0  0
   -7.2200    5.3680  -16.6430 C   0  0  0  0  0  0  0  0  0  0  0  0
   -4.5450    5.1360  -16.8340 H   0  0  0  0  0  0  0  0  0  0  0  0
   -5.0640    6.8320  -16.9350 H   0  0  0  0  0  0  0  0  0  0  0  0
   -3.7740    6.2350  -17.9930 H   0  0  0  0  0  0  0  0  0  0  0  0
   -6.9820    5.9330  -20.7230 H   0  0  0  0  0  0  0  0  0  0  0  0
   -6.4360    4.3360  -21.1290 H   0  0  0  0  0  0  0  0  0  0  0  0
   -4.5830    7.2140  -20.4400 H   0  0  0  0  0  0  0  0  0  0  0  0
   -4.2640    9.7550  -20.4010 H   0  0  0  0  0  0  0  0  0  0  0  0
   -5.0140   11.0910  -22.3680 H   0  0  0  0  0  0  0  0  0  0  0  0
   -5.4740   11.0640  -24.6290 H   0  0  0  0  0  0  0  0  0  0  0  0
   -7.1330   10.5570  -24.3640 H   0  0  0  0  0  0  0  0  0  0  0  0
   -5.8490    8.4930  -25.7330 H   0  0  0  0  0  0  0  0  0  0  0  0
   -6.8080    8.3070  -28.0770 H   0  0  0  0  0  0  0  0  0  0  0  0
   -9.3520   10.3580  -27.3730 H   0  0  0  0  0  0  0  0  0  0  0  0
  -11.7300   10.0820  -27.8440 H   0  0  0  0  0  0  0  0  0  0  0  0
  -12.6170    7.8510  -28.4920 H   0  0  0  0  0  0  0  0  0  0  0  0
  -11.0790    5.9120  -28.6550 H   0  0  0  0  0  0  0  0  0  0  0  0
   -8.6940    6.1600  -28.1740 H   0  0  0  0  0  0  0  0  0  0  0  0
   -6.3610    7.5340  -24.3670 H   0  0  0  0  0  0  0  0  0  0  0  0
   -8.0890    4.8750  -19.8930 H   0  0  0  0  0  0  0  0  0  0  0  0
  -10.2070    4.3500  -18.8440 H   0  0  0  0  0  0  0  0  0  0  0  0
  -10.4690    4.4670  -16.3830 H   0  0  0  0  0  0  0  0  0  0  0  0
   -8.5580    5.1150  -14.9720 H   0  0  0  0  0  0  0  0  0  0  0  0
   -6.4240    5.6450  -15.9650 H   0  0  0  0  0  0  0  0  0  0  0  0
  1  2  1  0
  2  3  1  0
  3  4  2  0
  3  5  1  0
  5  6  1  0
  6  7  1  0
  7  8  2  0
  8  9  1  0
  9 10  2  0
 10 11  1  0
 11 12  1  0
 12 13  1  0
 13 14  1  0
 14 15  2  0
 14 16  1  0
 16 17  1  0
 17 18  2  0
 18 19  1  0
 19 20  2  0
 20 21  1  0
 21 22  2  0
 11 23  2  0
  2 24  1  0
 24 25  2  0
 25 26  1  0
 26 27  2  0
 27 28  1  0
 28 29  2  0
 23  7  1  0
 22 17  1  0
 29 24  1  0
  1 30  1  0
  1 31  1  0
  1 32  1  0
  5 33  1  0
  5 34  1  0
  8 35  1  0
  9 36  1  0
 10 37  1  0
 12 38  1  0
 12 39  1  0
 13 40  1  0
 16 41  1  0
 18 42  1  0
 19 43  1  0
 20 44  1  0
 21 45  1  0
 22 46  1  0
 23 47  1  0
 25 48  1  0
 26 49  1  0
 27 50  1  0
 28 51  1  0
 29 52  1  0
A    1
 C1 
A    2
 N1 
A    3
 C2 
A    4
 O1 
A    5
 C3 
A    6
 O2 
A    7
 C4 
A    8
 C5 
A    9
 C6 
A   10
 C7 
A   11
 C8 
A   12
 C9 
A   13
 N2 
A   14
 C10
A   15
 O3 
A   16
 N3 
A   17
 C11
A   18
 C12
A   19
 C13
A   20
 C14
A   21
 C15
A   22
 C16
A   23
 C17
A   24
 C18
A   25
 C19
A   26
 C20
A   27
 C21
A   28
 C22
A   29
 C23
A   30
 H1 
A   31
 H2 
A   32
 H3 
A   33
 H4 
A   34
 H5 
A   35
 H6 
A   36
 H7 
A   37
 H8 
A   38
 H9 
A   39
 H10
A   40
 H11
A   41
 H12
A   42
 H13
A   43
 H14
A   44
 H15
A   45
 H16
A   46
 H17
A   47
 H18
A   48
 H19
A   49
 H20
A   50
 H21
A   51
 H22
A   52
 H23
M  END
>  <ref_pdb>  (459) 
x0051_0B

>  <ref_mols>  (459) 
x0846_1B,x0101_0B

>  <original SMILES>  (459) 
[H]c1c([H])c([H])c(N([H])C(=O)N([H])C([H])([H])c2c([H])c([H])c([H])c(OC([H])([H])C(=O)N(c3c([H])c([H])c([H])c([H])c3[H])C([H])([H])[H])c2[H])c([H])c1[H]

>  <index>  (459) 
1949

>  <∆∆G>  (459) 
-9.341531

>  <∆G_bound>  (459) 
-8.644579

>  <∆G_unbound>  (459) 
0.696952

>  <comRMSD>  (459) 
0.759872

>  <N_constrained_atoms>  (459) 
32.0

>  <N_unconstrained_atoms>  (459) 
1.0

>  <runtime>  (459) 
53.591604

>  <LE>  (459) 
0.283077

>  <percent_hybrid>  (459) 
46.0

>  <dist>  (459) 
9.0

>  <ecfp4>  (459) 
0.178947

>  <daylight>  (459) 
0.359606

>  <topodist>  (459) 
4.0

>  <mces>  (459) 
31.0

>  <tdn>  (459) 
2.0

>  <tup>  (459) 
0.0

>  <rdn>  (459) 
1.0

>  <rup>  (459) 
0.0

>  <ldn>  (459) 
1.0

>  <lup>  (459) 
0.0

>  <mut>  (459) 
4.0

>  <maj>  (459) 
4.0

>  <min>  (459) 
0.0

>  <hyb>  (459) 
1.0

>  <sub>  (459) 
3.0

>  <query_index>  (459) 
236.0

>  <max_hit_Tanimoto>  (459) 
0.229275

>  <largest_ring>  (459) 
6

>  <N_interactions_kept>  (459) 
0.5

>  <N_interactions_lost>  (459) 
3.0

>  <interaction_uniqueness_metric>  (459) 
0.197174

>  <ad_hoc_penalty>  (459) 
-6.420433

>  <N_rotatable_bonds>  (459) 
8

>  <N_HA>  (459) 
29

>  <cluster>  (459) 
4432

>  <N_interactions>  (459) 
6

>  <Enamine>  (459) 
1

>  <Mcule>  (459) 
0

>  <N_PAINS>  (459) 
0

>  <UFF_Gibbs>  (459) 
222.630233

>  <strain_per_HA>  (459) 
7.676905

>  <intxn_scored>  (459) 
7.5

>  <saltbridge:HIS:51>  (459) 
0

>  <pistack:HIS:51>  (459) 
0

>  <hydroph_interaction:HIS:51>  (459) 
0

>  <hbond:ALA:132>  (459) 
0

>  <hbond:SER:135>  (459) 
0

>  <hydroph_interaction:TYR:150>  (459) 
1

>  <pistack:TYR:161>  (459) 
1

>  <hydroph_interaction:TYR:161>  (459) 
0

>  <hydroph_interaction:ASP:83>  (459) 
0

>  <hbond:TYR:130>  (459) 
1

>  <hydroph_interaction:ALA:132>  (459) 
0

>  <hbond:HIS:51>  (459) 
0

>  <hbond:ASP:129>  (459) 
1

>  <hbond:TYR:150>  (459) 
0

>  <hbond:GLY:151>  (459) 
0

>  <hbond:TYR:161>  (459) 
0

>  <hydroph_interaction:TYR:130>  (459) 
1

>  <hydroph_interaction:PRO:131>  (459) 
1

>  <hydroph_interaction:ASP:129>  (459) 
0

>  <saltbridge:ASP:75>  (459) 
0

>  <saltbridge:ASP:83>  (459) 
0

>  <hbond:ASN:152>  (459) 
0

>  <hydroph_interaction:ASN:152>  (459) 
0

>  <halogenbond:TYR:150>  (459) 
0

>  <hbond:ASP:83>  (459) 
0

>  <hydroph_interaction:VAL:155>  (459) 
0

>  <pication:TYR:161>  (459) 
0

>  <hbond:PRO:131>  (459) 
0

>  <saltbridge:ASP:129>  (459) 
0

>  <hbond:THR:134>  (459) 
0

>  <pication:HIS:51>  (459) 
0

>  <hbond:SER:81>  (459) 
0

>  <hydroph_interaction:THR:134>  (459) 
0

>  <hydroph_interaction:MET:49>  (459) 
0

$$$$
PV-002487886287
     RDKit          3D

 21 21  0  0  0  0  0  0  0  0999 V2000
   -8.6840    4.6380  -19.8400 C   0  0  0  0  0  0  0  0  0  0  0  0
   -8.2280    5.0020  -18.4900 C   0  0  0  0  0  0  0  0  0  0  0  0
   -6.9040    5.3810  -18.3040 C   0  0  0  0  0  0  0  0  0  0  0  0
   -6.4560    5.7370  -16.9180 C   0  0  0  0  0  0  0  0  0  0  0  0
   -7.4580    5.6590  -15.8590 C   0  0  0  0  0  0  0  0  0  0  0  0
   -8.7680    5.2800  -16.1050 C   0  0  0  0  0  0  0  0  0  0  0  0
   -9.7200    5.2090  -15.0950 N   0  0  0  0  0  0  0  0  0  0  0  0
   -9.7500    6.0500  -14.0120 C   0  0  0  0  0  0  0  0  0  0  0  0
   -9.0650    5.5270  -12.9500 N   0  0  0  0  0  0  0  0  0  0  0  0
  -10.2810    7.1480  -13.9000 O   0  0  0  0  0  0  0  0  0  0  0  0
   -9.1430    4.9510  -17.4160 C   0  0  0  0  0  0  0  0  0  0  0  0
   -9.5160    5.2730  -20.1410 H   0  0  0  0  0  0  0  0  0  0  0  0
   -7.8520    4.7220  -20.5440 H   0  0  0  0  0  0  0  0  0  0  0  0
   -9.0370    3.6130  -19.8210 H   0  0  0  0  0  0  0  0  0  0  0  0
   -6.2030    5.4160  -19.1350 H   0  0  0  0  0  0  0  0  0  0  0  0
   -5.4210    6.0380  -16.7260 H   0  0  0  0  0  0  0  0  0  0  0  0
   -7.1340    5.9130  -14.8540 H   0  0  0  0  0  0  0  0  0  0  0  0
  -10.0180    4.2590  -14.9040 H   0  0  0  0  0  0  0  0  0  0  0  0
   -8.0840    5.7740  -12.9870 H   0  0  0  0  0  0  0  0  0  0  0  0
   -9.2180    4.5460  -12.7580 H   0  0  0  0  0  0  0  0  0  0  0  0
  -10.1720    4.6430  -17.6220 H   0  0  0  0  0  0  0  0  0  0  0  0
  1  2  1  0
  2  3  2  0
  3  4  1  0
  4  5  2  0
  5  6  1  0
  6  7  1  0
  7  8  1  0
  8  9  1  0
  8 10  2  0
  6 11  2  0
 11  2  1  0
  1 12  1  0
  1 13  1  0
  1 14  1  0
  3 15  1  0
  4 16  1  0
  5 17  1  0
  7 18  1  0
  9 19  1  0
  9 20  1  0
 11 21  1  0
A    1
 C1 
A    2
 C2 
A    3
 C3 
A    4
 C4 
A    5
 C5 
A    6
 C6 
A    7
 N1 
A    8
 C7 
A    9
 N2 
A   10
 O1 
A   11
 C8 
A   12
 H1 
A   13
 H2 
A   14
 H3 
A   15
 H4 
A   16
 H5 
A   17
 H6 
A   18
 H7 
A   19
 H8 
A   20
 H9 
A   21
 H10
M  END
>  <ref_pdb>  (460) 
x0051_0B

>  <ref_mols>  (460) 
x0589_0B,x0559_0B

>  <original SMILES>  (460) 
[H]c1c([H])c(N([H])C(=O)N([H])[H])c([H])c(C([H])([H])[H])c1[H]

>  <index>  (460) 
2416

>  <∆∆G>  (460) 
-6.465382

>  <∆G_bound>  (460) 
-6.314115

>  <∆G_unbound>  (460) 
0.151267

>  <comRMSD>  (460) 
0.971481

>  <N_constrained_atoms>  (460) 
9.0

>  <N_unconstrained_atoms>  (460) 
4.0

>  <runtime>  (460) 
24.338389

>  <LE>  (460) 
0.497337

>  <percent_hybrid>  (460) 
34.0

>  <dist>  (460) 
3.0

>  <ecfp4>  (460) 
0.297297

>  <daylight>  (460) 
0.403846

>  <topodist>  (460) 
2.0

>  <mces>  (460) 
9.0

>  <tdn>  (460) 
0.0

>  <tup>  (460) 
2.0

>  <rdn>  (460) 
0.0

>  <rup>  (460) 
0.0

>  <ldn>  (460) 
0.0

>  <lup>  (460) 
0.0

>  <mut>  (460) 
0.0

>  <maj>  (460) 
0.0

>  <min>  (460) 
0.0

>  <hyb>  (460) 
1.0

>  <sub>  (460) 
1.0

>  <query_index>  (460) 
367.0

>  <max_hit_Tanimoto>  (460) 
0.0625

>  <largest_ring>  (460) 
6

>  <N_interactions_kept>  (460) 
0.0

>  <N_interactions_lost>  (460) 
3.5

>  <interaction_uniqueness_metric>  (460) 
0.143146

>  <ad_hoc_penalty>  (460) 
-6.594233

>  <N_rotatable_bonds>  (460) 
2

>  <N_HA>  (460) 
11

>  <cluster>  (460) 
3995

>  <N_interactions>  (460) 
6

>  <Enamine>  (460) 
1

>  <Mcule>  (460) 
0

>  <N_PAINS>  (460) 
0

>  <UFF_Gibbs>  (460) 
49.800557

>  <strain_per_HA>  (460) 
4.527323

>  <intxn_scored>  (460) 
7.5

>  <saltbridge:HIS:51>  (460) 
0

>  <pistack:HIS:51>  (460) 
0

>  <hydroph_interaction:HIS:51>  (460) 
0

>  <hbond:ALA:132>  (460) 
0

>  <hbond:SER:135>  (460) 
2

>  <hydroph_interaction:TYR:150>  (460) 
1

>  <pistack:TYR:161>  (460) 
1

>  <hydroph_interaction:TYR:161>  (460) 
1

>  <hydroph_interaction:ASP:83>  (460) 
0

>  <hbond:TYR:130>  (460) 
0

>  <hydroph_interaction:ALA:132>  (460) 
0

>  <hbond:HIS:51>  (460) 
0

>  <hbond:ASP:129>  (460) 
0

>  <hbond:TYR:150>  (460) 
0

>  <hbond:GLY:151>  (460) 
1

>  <hbond:TYR:161>  (460) 
0

>  <hydroph_interaction:TYR:130>  (460) 
0

>  <hydroph_interaction:PRO:131>  (460) 
0

>  <hydroph_interaction:ASP:129>  (460) 
0

>  <saltbridge:ASP:75>  (460) 
0

>  <saltbridge:ASP:83>  (460) 
0

>  <hbond:ASN:152>  (460) 
0

>  <hydroph_interaction:ASN:152>  (460) 
0

>  <halogenbond:TYR:150>  (460) 
0

>  <hbond:ASP:83>  (460) 
0

>  <hydroph_interaction:VAL:155>  (460) 
0

>  <pication:TYR:161>  (460) 
0

>  <hbond:PRO:131>  (460) 
0

>  <saltbridge:ASP:129>  (460) 
0

>  <hbond:THR:134>  (460) 
0

>  <pication:HIS:51>  (460) 
0

>  <hbond:SER:81>  (460) 
0

>  <hydroph_interaction:THR:134>  (460) 
0

>  <hydroph_interaction:MET:49>  (460) 
0

$$$$
Z4349352112
     RDKit          3D

 45 48  0  0  0  0  0  0  0  0999 V2000
   -9.7930    4.6520  -18.6650 C   0  0  0  0  0  0  0  0  0  0  0  0
   -9.0940    5.0790  -17.4260 C   0  0  0  0  0  0  0  0  0  0  0  0
   -9.7410    5.0340  -16.2650 N   0  0  0  0  0  0  0  0  0  0  0  0
   -8.8730    5.4880  -15.3490 N   0  0  0  0  0  0  0  0  0  0  0  0
   -9.3690    5.5470  -13.9680 C   0  0  0  0  0  0  0  0  0  0  0  0
   -8.5400    6.1830  -13.0290 C   0  0  0  0  0  0  0  0  0  0  0  0
   -8.0990    7.3240  -13.1240 O   0  0  0  0  0  0  0  0  0  0  0  0
   -8.3330    5.2840  -12.0060 O   0  0  0  0  0  0  0  0  0  0  0  0
   -8.5400    5.4780  -10.6720 C   0  0  0  0  0  0  0  0  0  0  0  0
   -8.8200    4.4020   -9.8690 C   0  0  0  0  0  0  0  0  0  0  0  0
   -8.9700    2.9550  -10.1550 C   0  0  0  0  0  0  0  0  0  0  0  0
   -8.7030    2.2090   -8.8630 C   0  0  0  0  0  0  0  0  0  0  0  0
   -9.6450    2.6930   -7.7780 C   0  0  0  0  0  0  0  0  0  0  0  0
   -9.2460    4.1140   -7.3990 C   0  0  0  0  0  0  0  0  0  0  0  0
   -8.9560    4.9010   -8.5930 N   0  0  0  0  0  0  0  0  0  0  0  0
   -8.7930    6.2320   -8.5190 N   0  0  0  0  0  0  0  0  0  0  0  0
   -8.5400    6.5890   -9.7930 C   0  0  0  0  0  0  0  0  0  0  0  0
   -7.6560    5.8190  -15.9000 C   0  0  0  0  0  0  0  0  0  0  0  0
   -7.7700    5.5660  -17.2680 C   0  0  0  0  0  0  0  0  0  0  0  0
   -6.7190    5.7880  -18.2550 C   0  0  0  0  0  0  0  0  0  0  0  0
   -5.4670    5.1880  -18.1430 C   0  0  0  0  0  0  0  0  0  0  0  0
   -4.4850    5.4240  -19.1100 C   0  0  0  0  0  0  0  0  0  0  0  0
   -4.7410    6.2610  -20.1960 C   0  0  0  0  0  0  0  0  0  0  0  0
   -5.9780    6.8640  -20.3130 C   0  0  0  0  0  0  0  0  0  0  0  0
   -6.9440    6.6220  -19.3540 C   0  0  0  0  0  0  0  0  0  0  0  0
  -10.8660    4.8310  -18.5680 H   0  0  0  0  0  0  0  0  0  0  0  0
   -9.4240    5.2310  -19.5170 H   0  0  0  0  0  0  0  0  0  0  0  0
   -9.6320    3.5900  -18.8550 H   0  0  0  0  0  0  0  0  0  0  0  0
   -9.6560    4.5220  -13.7430 H   0  0  0  0  0  0  0  0  0  0  0  0
  -10.2980    6.1250  -13.9900 H   0  0  0  0  0  0  0  0  0  0  0  0
   -8.2120    2.6530  -10.8860 H   0  0  0  0  0  0  0  0  0  0  0  0
   -9.9190    2.5960  -10.5500 H   0  0  0  0  0  0  0  0  0  0  0  0
   -8.8110    1.1450   -9.0110 H   0  0  0  0  0  0  0  0  0  0  0  0
   -7.6690    2.3910   -8.5490 H   0  0  0  0  0  0  0  0  0  0  0  0
  -10.6740    2.6750   -8.1540 H   0  0  0  0  0  0  0  0  0  0  0  0
   -9.6000    2.0340   -6.9130 H   0  0  0  0  0  0  0  0  0  0  0  0
  -10.0530    4.6230   -6.8610 H   0  0  0  0  0  0  0  0  0  0  0  0
   -8.3490    4.1020   -6.7710 H   0  0  0  0  0  0  0  0  0  0  0  0
   -8.3670    7.6340  -10.0060 H   0  0  0  0  0  0  0  0  0  0  0  0
   -6.8390    6.1970  -15.3040 H   0  0  0  0  0  0  0  0  0  0  0  0
   -5.2420    4.5330  -17.3050 H   0  0  0  0  0  0  0  0  0  0  0  0
   -3.5110    4.9480  -19.0140 H   0  0  0  0  0  0  0  0  0  0  0  0
   -3.9730    6.4390  -20.9430 H   0  0  0  0  0  0  0  0  0  0  0  0
   -6.1950    7.5210  -21.1530 H   0  0  0  0  0  0  0  0  0  0  0  0
   -7.8840    7.0970  -19.4870 H   0  0  0  0  0  0  0  0  0  0  0  0
  1  2  1  0
  2  3  2  0
  3  4  1  0
  4  5  1  0
  5  6  1  0
  6  7  2  0
  6  8  1  0
  8  9  1  0
  9 10  2  0
 10 11  1  0
 11 12  1  0
 12 13  1  0
 13 14  1  0
 14 15  1  0
 15 16  1  0
 16 17  2  0
  4 18  1  0
 18 19  2  0
 19 20  1  0
 20 21  2  0
 21 22  1  0
 22 23  2  0
 23 24  1  0
 24 25  2  0
 19  2  1  0
 17  9  1  0
 15 10  1  0
 25 20  1  0
  1 26  1  0
  1 27  1  0
  1 28  1  0
  5 29  1  0
  5 30  1  0
 11 31  1  0
 11 32  1  0
 12 33  1  0
 12 34  1  0
 13 35  1  0
 13 36  1  0
 14 37  1  0
 14 38  1  0
 17 39  1  0
 18 40  1  0
 21 41  1  0
 22 42  1  0
 23 43  1  0
 24 44  1  0
 25 45  1  0
A    1
 C1 
A    2
 C2 
A    3
 N1 
A    4
 N2 
A    5
 C3 
A    6
 C4 
A    7
 O1 
A    8
 O2 
A    9
 C5 
A   10
 C6 
A   11
 C7 
A   12
 C8 
A   13
 C9 
A   14
 C10
A   15
 N3 
A   16
 N4 
A   17
 C11
A   18
 C12
A   19
 C13
A   20
 C14
A   21
 C15
A   22
 C16
A   23
 C17
A   24
 C18
A   25
 C19
A   26
 H1 
A   27
 H2 
A   28
 H3 
A   29
 H4 
A   30
 H5 
A   31
 H6 
A   32
 H7 
A   33
 H8 
A   34
 H9 
A   35
 H10
A   36
 H11
A   37
 H12
A   38
 H13
A   39
 H14
A   40
 H15
A   41
 H16
A   42
 H17
A   43
 H18
A   44
 H19
A   45
 H20
M  END
>  <ref_pdb>  (461) 
x0051_0B

>  <ref_mols>  (461) 
x0969_1B,x0803_0B

>  <original SMILES>  (461) 
[H]c1nn2c(c1OC(=O)C([H])([H])n1nc(C([H])([H])[H])c(-c3c([H])c([H])c([H])c([H])c3[H])c1[H])C([H])([H])C([H])([H])C([H])([H])C2([H])[H]

>  <index>  (461) 
25

>  <∆∆G>  (461) 
-8.608371

>  <∆G_bound>  (461) 
-8.043291

>  <∆G_unbound>  (461) 
0.565081

>  <comRMSD>  (461) 
0.482132

>  <N_constrained_atoms>  (461) 
22.0

>  <N_unconstrained_atoms>  (461) 
3.0

>  <runtime>  (461) 
66.044672

>  <LE>  (461) 
0.344335

>  <percent_hybrid>  (461) 
46.0

>  <dist>  (461) 
10.0

>  <ecfp4>  (461) 
0.26506

>  <daylight>  (461) 
0.245014

>  <topodist>  (461) 
1.0

>  <mces>  (461) 
27.0

>  <tdn>  (461) 
0.0

>  <tup>  (461) 
1.0

>  <rdn>  (461) 
0.0

>  <rup>  (461) 
0.0

>  <ldn>  (461) 
0.0

>  <lup>  (461) 
0.0

>  <mut>  (461) 
4.0

>  <maj>  (461) 
4.0

>  <min>  (461) 
0.0

>  <hyb>  (461) 
5.0

>  <sub>  (461) 
0.0

>  <query_index>  (461) 
360.0

>  <max_hit_Tanimoto>  (461) 
0.265039

>  <largest_ring>  (461) 
0

>  <N_interactions_kept>  (461) 
5.0

>  <N_interactions_lost>  (461) 
1.0

>  <interaction_uniqueness_metric>  (461) 
0.232813

>  <ad_hoc_penalty>  (461) 
-41.39526

>  <N_rotatable_bonds>  (461) 
5

>  <N_HA>  (461) 
25

>  <cluster>  (461) 
6193

>  <N_interactions>  (461) 
7

>  <Enamine>  (461) 
1

>  <Mcule>  (461) 
0

>  <N_PAINS>  (461) 
0

>  <UFF_Gibbs>  (461) 
56.278974

>  <strain_per_HA>  (461) 
2.251159

>  <intxn_scored>  (461) 
7.5

>  <saltbridge:HIS:51>  (461) 
1

>  <pistack:HIS:51>  (461) 
1

>  <hydroph_interaction:HIS:51>  (461) 
0

>  <hbond:ALA:132>  (461) 
0

>  <hbond:SER:135>  (461) 
0

>  <hydroph_interaction:TYR:150>  (461) 
1

>  <pistack:TYR:161>  (461) 
0

>  <hydroph_interaction:TYR:161>  (461) 
3

>  <hydroph_interaction:ASP:83>  (461) 
1

>  <hbond:TYR:130>  (461) 
0

>  <hydroph_interaction:ALA:132>  (461) 
0

>  <hbond:HIS:51>  (461) 
0

>  <hbond:ASP:129>  (461) 
0

>  <hbond:TYR:150>  (461) 
0

>  <hbond:GLY:151>  (461) 
0

>  <hbond:TYR:161>  (461) 
0

>  <hydroph_interaction:TYR:130>  (461) 
0

>  <hydroph_interaction:PRO:131>  (461) 
0

>  <hydroph_interaction:ASP:129>  (461) 
0

>  <saltbridge:ASP:75>  (461) 
0

>  <saltbridge:ASP:83>  (461) 
0

>  <hbond:ASN:152>  (461) 
0

>  <hydroph_interaction:ASN:152>  (461) 
0

>  <halogenbond:TYR:150>  (461) 
0

>  <hbond:ASP:83>  (461) 
0

>  <hydroph_interaction:VAL:155>  (461) 
0

>  <pication:TYR:161>  (461) 
0

>  <hbond:PRO:131>  (461) 
0

>  <saltbridge:ASP:129>  (461) 
0

>  <hbond:THR:134>  (461) 
0

>  <pication:HIS:51>  (461) 
0

>  <hbond:SER:81>  (461) 
0

>  <hydroph_interaction:THR:134>  (461) 
0

>  <hydroph_interaction:MET:49>  (461) 
0

$$$$
Z2898299153
     RDKit          3D

 35 36  0  0  0  0  0  0  0  0999 V2000
   -2.2800    4.7790  -21.7100 C   0  0  0  0  0  0  0  0  0  0  0  0
   -3.5760    5.3630  -21.4070 N   0  0  0  0  0  0  0  0  0  0  0  0
   -4.5490    5.2750  -22.4650 C   0  0  0  0  0  0  0  0  0  0  0  0
   -4.0830    5.4680  -20.1220 C   0  0  0  0  0  0  0  0  0  0  0  0
   -3.4220    5.1590  -19.1380 O   0  0  0  0  0  0  0  0  0  0  0  0
   -5.3790    5.9380  -20.0570 N   0  0  0  0  0  0  0  0  0  0  0  0
   -6.2390    4.9120  -19.6050 O   0  0  0  0  0  0  0  0  0  0  0  0
   -7.4020    5.4530  -18.9860 C   0  0  0  0  0  0  0  0  0  0  0  0
   -8.5610    4.5260  -19.3700 C   0  0  0  0  0  0  0  0  0  0  0  0
   -9.7230    4.5950  -18.6140 C   0  0  0  0  0  0  0  0  0  0  0  0
   -9.5950    4.9890  -17.1600 C   0  0  0  0  0  0  0  0  0  0  0  0
   -8.2190    5.1950  -16.6170 C   0  0  0  0  0  0  0  0  0  0  0  0
   -7.9910    5.1620  -15.2510 C   0  0  0  0  0  0  0  0  0  0  0  0
   -6.6990    5.3570  -14.7780 C   0  0  0  0  0  0  0  0  0  0  0  0
   -5.6490    5.5840  -15.6460 C   0  0  0  0  0  0  0  0  0  0  0  0
   -5.8850    5.6160  -17.0140 C   0  0  0  0  0  0  0  0  0  0  0  0
   -7.1530    5.4240  -17.5040 C   0  0  0  0  0  0  0  0  0  0  0  0
   -1.8980    4.2610  -20.8260 H   0  0  0  0  0  0  0  0  0  0  0  0
   -1.5810    5.5530  -22.0380 H   0  0  0  0  0  0  0  0  0  0  0  0
   -2.4230    4.0480  -22.5180 H   0  0  0  0  0  0  0  0  0  0  0  0
   -4.0150    5.1220  -23.4060 H   0  0  0  0  0  0  0  0  0  0  0  0
   -5.2210    4.4190  -22.3250 H   0  0  0  0  0  0  0  0  0  0  0  0
   -5.1470    6.1880  -22.5080 H   0  0  0  0  0  0  0  0  0  0  0  0
   -5.4650    6.7690  -19.4860 H   0  0  0  0  0  0  0  0  0  0  0  0
   -7.5550    6.4930  -19.2940 H   0  0  0  0  0  0  0  0  0  0  0  0
   -8.2200    3.4870  -19.3880 H   0  0  0  0  0  0  0  0  0  0  0  0
   -8.7900    4.7480  -20.4180 H   0  0  0  0  0  0  0  0  0  0  0  0
  -10.3890    3.7690  -18.7260 H   0  0  0  0  0  0  0  0  0  0  0  0
  -10.2940    5.3970  -19.0870 H   0  0  0  0  0  0  0  0  0  0  0  0
  -10.1140    4.2420  -16.5630 H   0  0  0  0  0  0  0  0  0  0  0  0
  -10.1480    5.9130  -16.9840 H   0  0  0  0  0  0  0  0  0  0  0  0
   -8.8100    4.9850  -14.5600 H   0  0  0  0  0  0  0  0  0  0  0  0
   -6.5060    5.3330  -13.7080 H   0  0  0  0  0  0  0  0  0  0  0  0
   -4.6440    5.7350  -15.2660 H   0  0  0  0  0  0  0  0  0  0  0  0
   -5.0540    5.7940  -17.6920 H   0  0  0  0  0  0  0  0  0  0  0  0
  1  2  1  0
  2  3  1  0
  2  4  1  0
  4  5  2  0
  4  6  1  0
  6  7  1  0
  7  8  1  0
  8  9  1  0
  9 10  1  0
 10 11  1  0
 11 12  1  0
 12 13  2  0
 13 14  1  0
 14 15  2  0
 15 16  1  0
 16 17  2  0
 17  8  1  0
 17 12  1  0
  1 18  1  0
  1 19  1  0
  1 20  1  0
  3 21  1  0
  3 22  1  0
  3 23  1  0
  6 24  1  0
  8 25  1  0
  9 26  1  0
  9 27  1  0
 10 28  1  0
 10 29  1  0
 11 30  1  0
 11 31  1  0
 13 32  1  0
 14 33  1  0
 15 34  1  0
 16 35  1  0
A    1
 C1 
A    2
 N1 
A    3
 C2 
A    4
 C3 
A    5
 O1 
A    6
 N2 
A    7
 O2 
A    8
 C4 
A    9
 C5 
A   10
 C6 
A   11
 C7 
A   12
 C8 
A   13
 C9 
A   14
 C10
A   15
 C11
A   16
 C12
A   17
 C13
A   18
 H1 
A   19
 H2 
A   20
 H3 
A   21
 H4 
A   22
 H5 
A   23
 H6 
A   24
 H7 
A   25
 H8 
A   26
 H9 
A   27
 H10
A   28
 H11
A   29
 H12
A   30
 H13
A   31
 H14
A   32
 H15
A   33
 H16
A   34
 H17
A   35
 H18
M  END
>  <ref_pdb>  (462) 
x0051_0B

>  <ref_mols>  (462) 
x0904_0B,x0455_0B

>  <original SMILES>  (462) 
[H]c1c([H])c([H])c2c(c1[H])C([H])([H])C([H])([H])C([H])([H])C2([H])ON([H])C(=O)N(C([H])([H])[H])C([H])([H])[H]

>  <index>  (462) 
2759

>  <∆∆G>  (462) 
-6.768803

>  <∆G_bound>  (462) 
-6.258419

>  <∆G_unbound>  (462) 
0.510384

>  <comRMSD>  (462) 
0.627272

>  <N_constrained_atoms>  (462) 
18.0

>  <N_unconstrained_atoms>  (462) 
0.0

>  <runtime>  (462) 
35.514095

>  <LE>  (462) 
0.376045

>  <percent_hybrid>  (462) 
34.0

>  <dist>  (462) 
5.0

>  <ecfp4>  (462) 
0.225806

>  <daylight>  (462) 
0.126263

>  <topodist>  (462) 
0.0

>  <mces>  (462) 
18.0

>  <tdn>  (462) 
0.0

>  <tup>  (462) 
0.0

>  <rdn>  (462) 
0.0

>  <rup>  (462) 
0.0

>  <ldn>  (462) 
0.0

>  <lup>  (462) 
0.0

>  <mut>  (462) 
2.0

>  <maj>  (462) 
2.0

>  <min>  (462) 
0.0

>  <hyb>  (462) 
3.0

>  <sub>  (462) 
0.0

>  <query_index>  (462) 
160.0

>  <max_hit_Tanimoto>  (462) 
0.159091

>  <largest_ring>  (462) 
6

>  <N_interactions_kept>  (462) 
0.5

>  <N_interactions_lost>  (462) 
2.5

>  <interaction_uniqueness_metric>  (462) 
0.062354

>  <ad_hoc_penalty>  (462) 
-3.602844

>  <N_rotatable_bonds>  (462) 
4

>  <N_HA>  (462) 
17

>  <cluster>  (462) 
3674

>  <N_interactions>  (462) 
4

>  <Enamine>  (462) 
1

>  <Mcule>  (462) 
0

>  <N_PAINS>  (462) 
0

>  <UFF_Gibbs>  (462) 
80.065561

>  <strain_per_HA>  (462) 
4.709739

>  <intxn_scored>  (462) 
7.5

>  <saltbridge:HIS:51>  (462) 
0

>  <pistack:HIS:51>  (462) 
0

>  <hydroph_interaction:HIS:51>  (462) 
0

>  <hbond:ALA:132>  (462) 
0

>  <hbond:SER:135>  (462) 
0

>  <hydroph_interaction:TYR:150>  (462) 
1

>  <pistack:TYR:161>  (462) 
1

>  <hydroph_interaction:TYR:161>  (462) 
1

>  <hydroph_interaction:ASP:83>  (462) 
0

>  <hbond:TYR:130>  (462) 
1

>  <hydroph_interaction:ALA:132>  (462) 
0

>  <hbond:HIS:51>  (462) 
0

>  <hbond:ASP:129>  (462) 
0

>  <hbond:TYR:150>  (462) 
0

>  <hbond:GLY:151>  (462) 
0

>  <hbond:TYR:161>  (462) 
0

>  <hydroph_interaction:TYR:130>  (462) 
0

>  <hydroph_interaction:PRO:131>  (462) 
0

>  <hydroph_interaction:ASP:129>  (462) 
0

>  <saltbridge:ASP:75>  (462) 
0

>  <saltbridge:ASP:83>  (462) 
0

>  <hbond:ASN:152>  (462) 
0

>  <hydroph_interaction:ASN:152>  (462) 
0

>  <halogenbond:TYR:150>  (462) 
0

>  <hbond:ASP:83>  (462) 
0

>  <hydroph_interaction:VAL:155>  (462) 
0

>  <pication:TYR:161>  (462) 
0

>  <hbond:PRO:131>  (462) 
0

>  <saltbridge:ASP:129>  (462) 
0

>  <hbond:THR:134>  (462) 
0

>  <pication:HIS:51>  (462) 
0

>  <hbond:SER:81>  (462) 
0

>  <hydroph_interaction:THR:134>  (462) 
0

>  <hydroph_interaction:MET:49>  (462) 
0

$$$$
Z5221593269
     RDKit          3D

 52 54  0  0  0  0  0  0  0  0999 V2000
   -7.7750    3.7390  -12.6310 C   0  0  0  0  0  0  0  0  0  0  0  0
   -8.4190    5.0760  -12.5550 C   0  0  0  0  0  0  0  0  0  0  0  0
   -9.4500    5.1440  -13.6770 N   0  0  0  0  0  0  0  0  0  0  0  0
   -9.1900    5.9570  -14.8410 C   0  0  0  0  0  0  0  0  0  0  0  0
   -8.8510    5.5050  -16.1810 C   0  0  0  0  0  0  0  0  0  0  0  0
   -9.7250    4.7950  -17.0190 C   0  0  0  0  0  0  0  0  0  0  0  0
   -9.3910    4.4130  -18.3100 C   0  0  0  0  0  0  0  0  0  0  0  0
   -8.1720    4.6990  -18.8520 C   0  0  0  0  0  0  0  0  0  0  0  0
   -7.2300    5.3810  -18.1050 C   0  0  0  0  0  0  0  0  0  0  0  0
   -5.9690    5.7240  -18.5220 O   0  0  0  0  0  0  0  0  0  0  0  0
   -5.6980    5.6570  -19.9190 C   0  0  0  0  0  0  0  0  0  0  0  0
   -4.3360    5.4020  -20.0700 C   0  0  0  0  0  0  0  0  0  0  0  0
   -3.6280    5.1460  -19.1000 O   0  0  0  0  0  0  0  0  0  0  0  0
   -3.7890    5.4360  -21.3520 N   0  0  0  0  0  0  0  0  0  0  0  0
   -2.4530    4.8920  -21.4490 C   0  0  0  0  0  0  0  0  0  0  0  0
   -4.6030    5.3100  -22.5310 C   0  0  0  0  0  0  0  0  0  0  0  0
   -7.5700    5.7850  -16.7710 C   0  0  0  0  0  0  0  0  0  0  0  0
   -8.6460    5.3110  -11.1420 C   0  0  0  0  0  0  0  0  0  0  0  0
   -8.8290    4.3500  -10.1370 C   0  0  0  0  0  0  0  0  0  0  0  0
   -8.8640    3.0260  -10.2350 O   0  0  0  0  0  0  0  0  0  0  0  0
   -9.4450    2.2570   -9.1640 C   0  0  0  0  0  0  0  0  0  0  0  0
   -9.5800    2.8340   -7.9050 C   0  0  0  0  0  0  0  0  0  0  0  0
   -9.1420    4.2610   -7.6460 C   0  0  0  0  0  0  0  0  0  0  0  0
   -8.9640    4.9800   -8.9200 N   0  0  0  0  0  0  0  0  0  0  0  0
   -8.9130    6.3170   -8.9680 N   0  0  0  0  0  0  0  0  0  0  0  0
   -8.7110    6.5360  -10.4100 C   0  0  0  0  0  0  0  0  0  0  0  0
   -7.3160    3.4680  -11.6750 H   0  0  0  0  0  0  0  0  0  0  0  0
   -6.9900    3.7380  -13.3920 H   0  0  0  0  0  0  0  0  0  0  0  0
   -8.5080    2.9640  -12.8720 H   0  0  0  0  0  0  0  0  0  0  0  0
   -7.6470    5.7970  -12.8440 H   0  0  0  0  0  0  0  0  0  0  0  0
  -10.4030    5.3080  -13.3120 H   0  0  0  0  0  0  0  0  0  0  0  0
   -8.3760    6.6350  -14.5650 H   0  0  0  0  0  0  0  0  0  0  0  0
  -10.0660    6.5970  -14.9890 H   0  0  0  0  0  0  0  0  0  0  0  0
  -10.7010    4.5380  -16.6450 H   0  0  0  0  0  0  0  0  0  0  0  0
  -10.0990    3.8690  -18.9310 H   0  0  0  0  0  0  0  0  0  0  0  0
   -7.9390    4.3850  -19.8730 H   0  0  0  0  0  0  0  0  0  0  0  0
   -6.0500    6.6010  -20.3300 H   0  0  0  0  0  0  0  0  0  0  0  0
   -6.3580    4.8860  -20.3040 H   0  0  0  0  0  0  0  0  0  0  0  0
   -1.7440    5.6760  -21.7400 H   0  0  0  0  0  0  0  0  0  0  0  0
   -2.1420    4.4650  -20.4990 H   0  0  0  0  0  0  0  0  0  0  0  0
   -2.3990    4.0670  -22.1710 H   0  0  0  0  0  0  0  0  0  0  0  0
   -5.3680    4.5320  -22.4070 H   0  0  0  0  0  0  0  0  0  0  0  0
   -3.9500    5.0440  -23.3760 H   0  0  0  0  0  0  0  0  0  0  0  0
   -5.0940    6.2690  -22.7270 H   0  0  0  0  0  0  0  0  0  0  0  0
   -6.8230    6.3320  -16.1860 H   0  0  0  0  0  0  0  0  0  0  0  0
  -10.4200    1.9520   -9.5140 H   0  0  0  0  0  0  0  0  0  0  0  0
   -8.8330    1.3610   -9.0660 H   0  0  0  0  0  0  0  0  0  0  0  0
  -10.6450    2.7730   -7.6450 H   0  0  0  0  0  0  0  0  0  0  0  0
   -9.0750    2.1990   -7.1890 H   0  0  0  0  0  0  0  0  0  0  0  0
   -8.1870    4.2710   -7.1140 H   0  0  0  0  0  0  0  0  0  0  0  0
   -9.8850    4.8100   -7.0590 H   0  0  0  0  0  0  0  0  0  0  0  0
   -8.6220    7.5480  -10.7820 H   0  0  0  0  0  0  0  0  0  0  0  0
  1  2  1  0
  2  3  1  0
  3  4  1  0
  4  5  1  0
  5  6  2  0
  6  7  1  0
  7  8  2  0
  8  9  1  0
  9 10  1  0
 10 11  1  0
 11 12  1  0
 12 13  2  0
 12 14  1  0
 14 15  1  0
 14 16  1  0
  9 17  2  0
  2 18  1  0
 18 19  2  0
 19 20  1  0
 20 21  1  0
 21 22  1  0
 22 23  1  0
 23 24  1  0
 24 25  1  0
 25 26  2  0
 17  5  1  0
 26 18  1  0
 24 19  1  0
  1 27  1  0
  1 28  1  0
  1 29  1  0
  2 30  1  0
  3 31  1  0
  4 32  1  0
  4 33  1  0
  6 34  1  0
  7 35  1  0
  8 36  1  0
 11 37  1  0
 11 38  1  0
 15 39  1  0
 15 40  1  0
 15 41  1  0
 16 42  1  0
 16 43  1  0
 16 44  1  0
 17 45  1  0
 21 46  1  0
 21 47  1  0
 22 48  1  0
 22 49  1  0
 23 50  1  0
 23 51  1  0
 26 52  1  0
A    1
 C1 
A    2
 C2 
A    3
 N1 
A    4
 C3 
A    5
 C4 
A    6
 C5 
A    7
 C6 
A    8
 C7 
A    9
 C8 
A   10
 O1 
A   11
 C9 
A   12
 C10
A   13
 O2 
A   14
 N2 
A   15
 C11
A   16
 C12
A   17
 C13
A   18
 C14
A   19
 C15
A   20
 O3 
A   21
 C16
A   22
 C17
A   23
 C18
A   24
 N3 
A   25
 N4 
A   26
 C19
A   27
 H1 
A   28
 H2 
A   29
 H3 
A   30
 H4 
A   31
 H5 
A   32
 H6 
A   33
 H7 
A   34
 H8 
A   35
 H9 
A   36
 H10
A   37
 H11
A   38
 H12
A   39
 H13
A   40
 H14
A   41
 H15
A   42
 H16
A   43
 H17
A   44
 H18
A   45
 H19
A   46
 H20
A   47
 H21
A   48
 H22
A   49
 H23
A   50
 H24
A   51
 H25
A   52
 H26
M  END
>  <ref_pdb>  (463) 
x0051_0B

>  <ref_mols>  (463) 
x0969_1B,x0904_0B

>  <original SMILES>  (463) 
[H]c1nn2c(c1C([H])(N([H])C([H])([H])c1c([H])c([H])c([H])c(OC([H])([H])C(=O)N(C([H])([H])[H])C([H])([H])[H])c1[H])C([H])([H])[H])OC([H])([H])C([H])([H])C2([H])[H]

>  <index>  (463) 
3256

>  <∆∆G>  (463) 
-8.292631

>  <∆G_bound>  (463) 
-7.775721

>  <∆G_unbound>  (463) 
0.51691

>  <comRMSD>  (463) 
0.618954

>  <N_constrained_atoms>  (463) 
24.0

>  <N_unconstrained_atoms>  (463) 
2.0

>  <runtime>  (463) 
85.851

>  <LE>  (463) 
0.318947

>  <percent_hybrid>  (463) 
42.0

>  <dist>  (463) 
5.0

>  <ecfp4>  (463) 
0.493333

>  <daylight>  (463) 
0.366102

>  <topodist>  (463) 
2.0

>  <mces>  (463) 
27.0

>  <tdn>  (463) 
0.0

>  <tup>  (463) 
1.0

>  <rdn>  (463) 
0.0

>  <rup>  (463) 
0.0

>  <ldn>  (463) 
1.0

>  <lup>  (463) 
0.0

>  <mut>  (463) 
3.0

>  <maj>  (463) 
3.0

>  <min>  (463) 
0.0

>  <hyb>  (463) 
0.0

>  <sub>  (463) 
1.0

>  <query_index>  (463) 
111.0

>  <max_hit_Tanimoto>  (463) 
0.254743

>  <largest_ring>  (463) 
6

>  <N_interactions_kept>  (463) 
1.0

>  <N_interactions_lost>  (463) 
2.5

>  <interaction_uniqueness_metric>  (463) 
0.153767

>  <ad_hoc_penalty>  (463) 
-0.729022

>  <N_rotatable_bonds>  (463) 
10

>  <N_HA>  (463) 
26

>  <cluster>  (463) 
3202

>  <N_interactions>  (463) 
6

>  <Enamine>  (463) 
1

>  <Mcule>  (463) 
0

>  <N_PAINS>  (463) 
0

>  <UFF_Gibbs>  (463) 
163.252641

>  <strain_per_HA>  (463) 
6.278948

>  <intxn_scored>  (463) 
7.5

>  <saltbridge:HIS:51>  (463) 
0

>  <pistack:HIS:51>  (463) 
1

>  <hydroph_interaction:HIS:51>  (463) 
1

>  <hbond:ALA:132>  (463) 
0

>  <hbond:SER:135>  (463) 
0

>  <hydroph_interaction:TYR:150>  (463) 
1

>  <pistack:TYR:161>  (463) 
1

>  <hydroph_interaction:TYR:161>  (463) 
0

>  <hydroph_interaction:ASP:83>  (463) 
0

>  <hbond:TYR:130>  (463) 
0

>  <hydroph_interaction:ALA:132>  (463) 
1

>  <hbond:HIS:51>  (463) 
0

>  <hbond:ASP:129>  (463) 
0

>  <hbond:TYR:150>  (463) 
0

>  <hbond:GLY:151>  (463) 
1

>  <hbond:TYR:161>  (463) 
0

>  <hydroph_interaction:TYR:130>  (463) 
0

>  <hydroph_interaction:PRO:131>  (463) 
0

>  <hydroph_interaction:ASP:129>  (463) 
0

>  <saltbridge:ASP:75>  (463) 
0

>  <saltbridge:ASP:83>  (463) 
0

>  <hbond:ASN:152>  (463) 
0

>  <hydroph_interaction:ASN:152>  (463) 
0

>  <halogenbond:TYR:150>  (463) 
0

>  <hbond:ASP:83>  (463) 
0

>  <hydroph_interaction:VAL:155>  (463) 
0

>  <pication:TYR:161>  (463) 
0

>  <hbond:PRO:131>  (463) 
0

>  <saltbridge:ASP:129>  (463) 
0

>  <hbond:THR:134>  (463) 
0

>  <pication:HIS:51>  (463) 
0

>  <hbond:SER:81>  (463) 
0

>  <hydroph_interaction:THR:134>  (463) 
0

>  <hydroph_interaction:MET:49>  (463) 
0

$$$$
Z2122239232
     RDKit          3D

 48 52  0  0  0  0  0  0  0  0999 V2000
   -6.7100    6.9280  -26.9280 C   0  0  0  0  0  0  0  0  0  0  0  0
   -7.5610    8.0740  -27.0680 N   0  0  0  0  0  0  0  0  0  0  0  0
   -7.3390    9.3480  -26.6630 C   0  0  0  0  0  0  0  0  0  0  0  0
   -6.2560    9.8820  -26.0050 N   0  0  0  0  0  0  0  0  0  0  0  0
   -6.3120   10.4220  -24.7380 C   0  0  0  0  0  0  0  0  0  0  0  0
   -6.7150   11.5430  -24.4500 O   0  0  0  0  0  0  0  0  0  0  0  0
   -5.8680    9.6060  -23.6810 C   0  0  0  0  0  0  0  0  0  0  0  0
   -6.1390    8.1410  -23.6580 C   0  0  0  0  0  0  0  0  0  0  0  0
   -5.6650    7.3940  -22.5590 C   0  0  0  0  0  0  0  0  0  0  0  0
   -4.9580    8.0170  -21.5170 C   0  0  0  0  0  0  0  0  0  0  0  0
   -4.4730    7.3190  -20.4100 C   0  0  0  0  0  0  0  0  0  0  0  0
   -4.7270    5.5400  -20.6020 S   0  0  0  0  0  0  0  0  0  0  0  0
   -6.0560    5.3590  -19.5300 C   0  0  0  0  0  0  0  0  0  0  0  0
   -6.0710    5.3270  -18.2130 N   0  0  0  0  0  0  0  0  0  0  0  0
   -7.4050    5.1590  -17.9090 C   0  0  0  0  0  0  0  0  0  0  0  0
   -8.1020    5.0450  -16.6260 C   0  0  0  0  0  0  0  0  0  0  0  0
   -9.5740    4.8650  -16.6500 C   0  0  0  0  0  0  0  0  0  0  0  0
  -10.2290    4.8110  -17.8890 C   0  0  0  0  0  0  0  0  0  0  0  0
   -9.5440    4.9270  -19.0980 C   0  0  0  0  0  0  0  0  0  0  0  0
   -8.1740    5.0940  -19.0610 C   0  0  0  0  0  0  0  0  0  0  0  0
   -7.2880    5.2320  -20.0710 N   0  0  0  0  0  0  0  0  0  0  0  0
   -4.7140    9.3930  -21.5630 C   0  0  0  0  0  0  0  0  0  0  0  0
   -5.1590   10.1750  -22.6220 C   0  0  0  0  0  0  0  0  0  0  0  0
   -8.3610   10.1270  -26.9680 N   0  0  0  0  0  0  0  0  0  0  0  0
   -9.2830    9.3150  -27.5660 C   0  0  0  0  0  0  0  0  0  0  0  0
  -10.5660    9.5690  -28.0640 C   0  0  0  0  0  0  0  0  0  0  0  0
  -11.2620    8.4890  -28.6110 C   0  0  0  0  0  0  0  0  0  0  0  0
  -10.6570    7.2380  -28.6430 C   0  0  0  0  0  0  0  0  0  0  0  0
   -9.4230    6.9490  -28.1800 N   0  0  0  0  0  0  0  0  0  0  0  0
   -8.8020    8.0200  -27.6530 C   0  0  0  0  0  0  0  0  0  0  0  0
   -5.6840    7.2250  -27.1600 H   0  0  0  0  0  0  0  0  0  0  0  0
   -6.7680    6.5620  -25.9000 H   0  0  0  0  0  0  0  0  0  0  0  0
   -7.0500    6.1530  -27.6190 H   0  0  0  0  0  0  0  0  0  0  0  0
   -5.5460   10.2200  -26.6430 H   0  0  0  0  0  0  0  0  0  0  0  0
   -6.6880    7.6540  -24.4610 H   0  0  0  0  0  0  0  0  0  0  0  0
   -5.8520    6.3220  -22.5160 H   0  0  0  0  0  0  0  0  0  0  0  0
   -3.3930    7.5020  -20.3470 H   0  0  0  0  0  0  0  0  0  0  0  0
   -4.8630    7.5970  -19.4310 H   0  0  0  0  0  0  0  0  0  0  0  0
   -7.5510    5.0890  -15.6930 H   0  0  0  0  0  0  0  0  0  0  0  0
  -10.1320    4.7750  -15.7200 H   0  0  0  0  0  0  0  0  0  0  0  0
  -11.3050    4.6780  -17.9200 H   0  0  0  0  0  0  0  0  0  0  0  0
  -10.0640    4.8910  -20.0420 H   0  0  0  0  0  0  0  0  0  0  0  0
   -7.5180    5.2430  -21.0570 H   0  0  0  0  0  0  0  0  0  0  0  0
   -4.1640    9.8700  -20.7530 H   0  0  0  0  0  0  0  0  0  0  0  0
   -4.9390   11.2460  -22.6010 H   0  0  0  0  0  0  0  0  0  0  0  0
  -10.9980   10.5620  -28.0230 H   0  0  0  0  0  0  0  0  0  0  0  0
  -12.2640    8.6250  -29.0100 H   0  0  0  0  0  0  0  0  0  0  0  0
  -11.1860    6.3890  -29.0700 H   0  0  0  0  0  0  0  0  0  0  0  0
  1  2  1  0
  2  3  1  0
  3  4  1  0
  4  5  1  0
  5  6  2  0
  5  7  1  0
  7  8  2  0
  8  9  1  0
  9 10  2  0
 10 11  1  0
 11 12  1  0
 12 13  1  0
 13 14  2  0
 14 15  1  0
 15 16  2  0
 16 17  1  0
 17 18  2  0
 18 19  1  0
 19 20  2  0
 20 21  1  0
 10 22  1  0
 22 23  2  0
  3 24  2  0
 24 25  1  0
 25 26  2  0
 26 27  1  0
 27 28  2  0
 28 29  1  0
 29 30  2  0
 30  2  1  0
 23  7  1  0
 21 13  1  0
 20 15  1  0
 30 25  1  0
  1 31  1  0
  1 32  1  0
  1 33  1  0
  4 34  1  0
  8 35  1  0
  9 36  1  0
 11 37  1  0
 11 38  1  0
 16 39  1  0
 17 40  1  0
 18 41  1  0
 19 42  1  0
 21 43  1  0
 22 44  1  0
 23 45  1  0
 26 46  1  0
 27 47  1  0
 28 48  1  0
A    1
 C1 
A    2
 N1 
A    3
 C2 
A    4
 N2 
A    5
 C3 
A    6
 O1 
A    7
 C4 
A    8
 C5 
A    9
 C6 
A   10
 C7 
A   11
 C8 
A   12
 S1 
A   13
 C9 
A   14
 N3 
A   15
 C10
A   16
 C11
A   17
 C12
A   18
 C13
A   19
 C14
A   20
 C15
A   21
 N4 
A   22
 C16
A   23
 C17
A   24
 N5 
A   25
 C18
A   26
 C19
A   27
 C20
A   28
 C21
A   29
 N6 
A   30
 C22
A   31
 H1 
A   32
 H2 
A   33
 H3 
A   34
 H4 
A   35
 H5 
A   36
 H6 
A   37
 H7 
A   38
 H8 
A   39
 H9 
A   40
 H10
A   41
 H11
A   42
 H12
A   43
 H13
A   44
 H14
A   45
 H15
A   46
 H16
A   47
 H17
A   48
 H18
M  END
>  <ref_pdb>  (464) 
x0051_0B

>  <ref_mols>  (464) 
x0846_1B,x0490_0B

>  <original SMILES>  (464) 
[H]c1nc2c(nc(N([H])C(=O)c3c([H])c([H])c(C([H])([H])Sc4nc5c([H])c([H])c([H])c([H])c5n4[H])c([H])c3[H])n2C([H])([H])[H])c([H])c1[H]

>  <index>  (464) 
1569

>  <∆∆G>  (464) 
-9.184303

>  <∆G_bound>  (464) 
-8.636532

>  <∆G_unbound>  (464) 
0.547771

>  <comRMSD>  (464) 
0.323536

>  <N_constrained_atoms>  (464) 
27.0

>  <N_unconstrained_atoms>  (464) 
4.0

>  <runtime>  (464) 
61.703072

>  <LE>  (464) 
0.296268

>  <percent_hybrid>  (464) 
34.0

>  <dist>  (464) 
7.0

>  <ecfp4>  (464) 
0.2

>  <daylight>  (464) 
0.372951

>  <topodist>  (464) 
3.0

>  <mces>  (464) 
33.0

>  <tdn>  (464) 
2.0

>  <tup>  (464) 
1.0

>  <rdn>  (464) 
0.0

>  <rup>  (464) 
0.0

>  <ldn>  (464) 
0.0

>  <lup>  (464) 
0.0

>  <mut>  (464) 
4.0

>  <maj>  (464) 
4.0

>  <min>  (464) 
0.0

>  <hyb>  (464) 
0.0

>  <sub>  (464) 
2.0

>  <query_index>  (464) 
51.0

>  <max_hit_Tanimoto>  (464) 
0.349899

>  <largest_ring>  (464) 
6

>  <N_interactions_kept>  (464) 
0.5

>  <N_interactions_lost>  (464) 
2.5

>  <interaction_uniqueness_metric>  (464) 
0.116192

>  <ad_hoc_penalty>  (464) 
-12.442652

>  <N_rotatable_bonds>  (464) 
6

>  <N_HA>  (464) 
30

>  <cluster>  (464) 
4777

>  <N_interactions>  (464) 
5

>  <Enamine>  (464) 
1

>  <Mcule>  (464) 
0

>  <N_PAINS>  (464) 
0

>  <UFF_Gibbs>  (464) 
95.52007

>  <strain_per_HA>  (464) 
3.184002

>  <intxn_scored>  (464) 
7.5

>  <saltbridge:HIS:51>  (464) 
0

>  <pistack:HIS:51>  (464) 
0

>  <hydroph_interaction:HIS:51>  (464) 
0

>  <hbond:ALA:132>  (464) 
0

>  <hbond:SER:135>  (464) 
0

>  <hydroph_interaction:TYR:150>  (464) 
1

>  <pistack:TYR:161>  (464) 
1

>  <hydroph_interaction:TYR:161>  (464) 
1

>  <hydroph_interaction:ASP:83>  (464) 
0

>  <hbond:TYR:130>  (464) 
1

>  <hydroph_interaction:ALA:132>  (464) 
0

>  <hbond:HIS:51>  (464) 
0

>  <hbond:ASP:129>  (464) 
0

>  <hbond:TYR:150>  (464) 
0

>  <hbond:GLY:151>  (464) 
0

>  <hbond:TYR:161>  (464) 
0

>  <hydroph_interaction:TYR:130>  (464) 
0

>  <hydroph_interaction:PRO:131>  (464) 
1

>  <hydroph_interaction:ASP:129>  (464) 
0

>  <saltbridge:ASP:75>  (464) 
0

>  <saltbridge:ASP:83>  (464) 
0

>  <hbond:ASN:152>  (464) 
0

>  <hydroph_interaction:ASN:152>  (464) 
0

>  <halogenbond:TYR:150>  (464) 
0

>  <hbond:ASP:83>  (464) 
0

>  <hydroph_interaction:VAL:155>  (464) 
0

>  <pication:TYR:161>  (464) 
0

>  <hbond:PRO:131>  (464) 
0

>  <saltbridge:ASP:129>  (464) 
0

>  <hbond:THR:134>  (464) 
0

>  <pication:HIS:51>  (464) 
0

>  <hbond:SER:81>  (464) 
0

>  <hydroph_interaction:THR:134>  (464) 
0

>  <hydroph_interaction:MET:49>  (464) 
0

$$$$
Z27747936
     RDKit          3D

 46 49  0  0  0  0  0  0  0  0999 V2000
   -4.1710    5.7570  -21.4940 O   0  0  0  0  0  0  0  0  0  0  0  0
   -5.2400    6.3500  -21.4070 C   0  0  0  0  0  0  0  0  0  0  0  0
   -6.2570    6.0080  -20.5440 N   0  0  0  0  0  0  0  0  0  0  0  0
   -5.9910    5.7190  -19.1480 C   0  0  0  0  0  0  0  0  0  0  0  0
   -7.1620    5.4010  -18.3830 C   0  0  0  0  0  0  0  0  0  0  0  0
   -7.0920    5.5300  -16.9980 C   0  0  0  0  0  0  0  0  0  0  0  0
   -8.1930    5.2350  -16.1960 C   0  0  0  0  0  0  0  0  0  0  0  0
   -9.3780    4.8080  -16.7810 C   0  0  0  0  0  0  0  0  0  0  0  0
   -9.4660    4.6710  -18.1650 C   0  0  0  0  0  0  0  0  0  0  0  0
   -8.3610    4.9670  -18.9680 C   0  0  0  0  0  0  0  0  0  0  0  0
   -5.4980    7.5160  -22.2510 C   0  0  0  0  0  0  0  0  0  0  0  0
   -6.1100    7.3460  -23.4960 C   0  0  0  0  0  0  0  0  0  0  0  0
   -6.3470    8.4460  -24.2810 C   0  0  0  0  0  0  0  0  0  0  0  0
   -5.9780    9.7230  -23.8510 C   0  0  0  0  0  0  0  0  0  0  0  0
   -6.2420   10.9050  -24.7350 C   0  0  0  0  0  0  0  0  0  0  0  0
   -5.8710   10.5120  -26.4720 S   0  0  0  0  0  0  0  0  0  0  0  0
   -7.2630    9.6420  -26.9960 C   0  0  0  0  0  0  0  0  0  0  0  0
   -7.3530    8.3700  -27.3070 N   0  0  0  0  0  0  0  0  0  0  0  0
   -8.6680    8.1850  -27.6600 C   0  0  0  0  0  0  0  0  0  0  0  0
   -9.3410    7.0280  -28.0790 C   0  0  0  0  0  0  0  0  0  0  0  0
  -10.7080    7.1140  -28.3730 C   0  0  0  0  0  0  0  0  0  0  0  0
  -11.3900    8.3250  -28.2560 C   0  0  0  0  0  0  0  0  0  0  0  0
  -10.7380    9.4920  -27.8470 C   0  0  0  0  0  0  0  0  0  0  0  0
   -9.3760    9.3810  -27.5570 C   0  0  0  0  0  0  0  0  0  0  0  0
   -8.4460   10.2900  -27.1340 N   0  0  0  0  0  0  0  0  0  0  0  0
   -5.3620    9.8910  -22.6000 C   0  0  0  0  0  0  0  0  0  0  0  0
   -5.1220    8.7810  -21.7920 C   0  0  0  0  0  0  0  0  0  0  0  0
   -7.2170    6.1720  -20.8520 H   0  0  0  0  0  0  0  0  0  0  0  0
   -5.5160    6.6120  -18.7280 H   0  0  0  0  0  0  0  0  0  0  0  0
   -5.2580    4.9060  -19.0670 H   0  0  0  0  0  0  0  0  0  0  0  0
   -6.1660    5.8670  -16.5280 H   0  0  0  0  0  0  0  0  0  0  0  0
   -8.1210    5.3400  -15.1170 H   0  0  0  0  0  0  0  0  0  0  0  0
  -10.2330    4.5800  -16.1550 H   0  0  0  0  0  0  0  0  0  0  0  0
  -10.3950    4.3370  -18.6190 H   0  0  0  0  0  0  0  0  0  0  0  0
   -8.4450    4.8580  -20.0470 H   0  0  0  0  0  0  0  0  0  0  0  0
   -6.4020    6.3580  -23.8500 H   0  0  0  0  0  0  0  0  0  0  0  0
   -6.8270    8.2980  -25.2440 H   0  0  0  0  0  0  0  0  0  0  0  0
   -7.2790   11.2250  -24.6160 H   0  0  0  0  0  0  0  0  0  0  0  0
   -5.5910   11.7320  -24.4350 H   0  0  0  0  0  0  0  0  0  0  0  0
   -8.8080    6.0890  -28.1670 H   0  0  0  0  0  0  0  0  0  0  0  0
  -11.2410    6.2250  -28.6950 H   0  0  0  0  0  0  0  0  0  0  0  0
  -12.4540    8.3660  -28.4900 H   0  0  0  0  0  0  0  0  0  0  0  0
  -11.2760   10.4370  -27.7600 H   0  0  0  0  0  0  0  0  0  0  0  0
   -8.5970   11.2700  -26.9510 H   0  0  0  0  0  0  0  0  0  0  0  0
   -5.0660   10.8790  -22.2480 H   0  0  0  0  0  0  0  0  0  0  0  0
   -4.6490    8.8990  -20.8210 H   0  0  0  0  0  0  0  0  0  0  0  0
  1  2  2  0
  2  3  1  0
  3  4  1  0
  4  5  1  0
  5  6  2  0
  6  7  1  0
  7  8  2  0
  8  9  1  0
  9 10  2  0
  2 11  1  0
 11 12  2  0
 12 13  1  0
 13 14  2  0
 14 15  1  0
 15 16  1  0
 16 17  1  0
 17 18  2  0
 18 19  1  0
 19 20  2  0
 20 21  1  0
 21 22  2  0
 22 23  1  0
 23 24  2  0
 24 25  1  0
 14 26  1  0
 26 27  2  0
 10  5  1  0
 27 11  1  0
 25 17  1  0
 24 19  1  0
  3 28  1  0
  4 29  1  0
  4 30  1  0
  6 31  1  0
  7 32  1  0
  8 33  1  0
  9 34  1  0
 10 35  1  0
 12 36  1  0
 13 37  1  0
 15 38  1  0
 15 39  1  0
 20 40  1  0
 21 41  1  0
 22 42  1  0
 23 43  1  0
 25 44  1  0
 26 45  1  0
 27 46  1  0
A    1
 O1 
A    2
 C1 
A    3
 N1 
A    4
 C2 
A    5
 C3 
A    6
 C4 
A    7
 C5 
A    8
 C6 
A    9
 C7 
A   10
 C8 
A   11
 C9 
A   12
 C10
A   13
 C11
A   14
 C12
A   15
 C13
A   16
 S1 
A   17
 C14
A   18
 N2 
A   19
 C15
A   20
 C16
A   21
 C17
A   22
 C18
A   23
 C19
A   24
 C20
A   25
 N3 
A   26
 C21
A   27
 C22
A   28
 H1 
A   29
 H2 
A   30
 H3 
A   31
 H4 
A   32
 H5 
A   33
 H6 
A   34
 H7 
A   35
 H8 
A   36
 H9 
A   37
 H10
A   38
 H11
A   39
 H12
A   40
 H13
A   41
 H14
A   42
 H15
A   43
 H16
A   44
 H17
A   45
 H18
A   46
 H19
M  END
>  <ref_pdb>  (465) 
x0051_0B

>  <ref_mols>  (465) 
x0589_0B,x0846_1B

>  <original SMILES>  (465) 
[H]c1c([H])c([H])c(C([H])([H])N([H])C(=O)c2c([H])c([H])c(C([H])([H])Sc3nc4c([H])c([H])c([H])c([H])c4n3[H])c([H])c2[H])c([H])c1[H]

>  <index>  (465) 
311

>  <∆∆G>  (465) 
-9.526142

>  <∆G_bound>  (465) 
-9.117528

>  <∆G_unbound>  (465) 
0.408614

>  <comRMSD>  (465) 
0.622604

>  <N_constrained_atoms>  (465) 
26.0

>  <N_unconstrained_atoms>  (465) 
2.0

>  <runtime>  (465) 
54.841311

>  <LE>  (465) 
0.340219

>  <percent_hybrid>  (465) 
31.0

>  <dist>  (465) 
6.0

>  <ecfp4>  (465) 
0.319444

>  <daylight>  (465) 
0.320225

>  <topodist>  (465) 
3.0

>  <mces>  (465) 
29.0

>  <tdn>  (465) 
2.0

>  <tup>  (465) 
1.0

>  <rdn>  (465) 
0.0

>  <rup>  (465) 
0.0

>  <ldn>  (465) 
0.0

>  <lup>  (465) 
0.0

>  <mut>  (465) 
2.0

>  <maj>  (465) 
2.0

>  <min>  (465) 
0.0

>  <hyb>  (465) 
1.0

>  <sub>  (465) 
2.0

>  <query_index>  (465) 
340.0

>  <max_hit_Tanimoto>  (465) 
0.325301

>  <largest_ring>  (465) 
0

>  <N_interactions_kept>  (465) 
0.0

>  <N_interactions_lost>  (465) 
2.0

>  <interaction_uniqueness_metric>  (465) 
0.197174

>  <ad_hoc_penalty>  (465) 
-26.960078

>  <N_rotatable_bonds>  (465) 
6

>  <N_HA>  (465) 
27

>  <cluster>  (465) 
107

>  <N_interactions>  (465) 
6

>  <Enamine>  (465) 
1

>  <Mcule>  (465) 
0

>  <N_PAINS>  (465) 
0

>  <UFF_Gibbs>  (465) 
56.35225

>  <strain_per_HA>  (465) 
2.08712

>  <intxn_scored>  (465) 
7.5

>  <saltbridge:HIS:51>  (465) 
0

>  <pistack:HIS:51>  (465) 
0

>  <hydroph_interaction:HIS:51>  (465) 
0

>  <hbond:ALA:132>  (465) 
0

>  <hbond:SER:135>  (465) 
0

>  <hydroph_interaction:TYR:150>  (465) 
1

>  <pistack:TYR:161>  (465) 
1

>  <hydroph_interaction:TYR:161>  (465) 
0

>  <hydroph_interaction:ASP:83>  (465) 
0

>  <hbond:TYR:130>  (465) 
1

>  <hydroph_interaction:ALA:132>  (465) 
0

>  <hbond:HIS:51>  (465) 
0

>  <hbond:ASP:129>  (465) 
1

>  <hbond:TYR:150>  (465) 
0

>  <hbond:GLY:151>  (465) 
0

>  <hbond:TYR:161>  (465) 
0

>  <hydroph_interaction:TYR:130>  (465) 
1

>  <hydroph_interaction:PRO:131>  (465) 
1

>  <hydroph_interaction:ASP:129>  (465) 
0

>  <saltbridge:ASP:75>  (465) 
0

>  <saltbridge:ASP:83>  (465) 
0

>  <hbond:ASN:152>  (465) 
0

>  <hydroph_interaction:ASN:152>  (465) 
0

>  <halogenbond:TYR:150>  (465) 
0

>  <hbond:ASP:83>  (465) 
0

>  <hydroph_interaction:VAL:155>  (465) 
0

>  <pication:TYR:161>  (465) 
0

>  <hbond:PRO:131>  (465) 
0

>  <saltbridge:ASP:129>  (465) 
0

>  <hbond:THR:134>  (465) 
0

>  <pication:HIS:51>  (465) 
0

>  <hbond:SER:81>  (465) 
0

>  <hydroph_interaction:THR:134>  (465) 
0

>  <hydroph_interaction:MET:49>  (465) 
0

$$$$
CSSS00000065890
     RDKit          3D

 22 23  0  0  0  0  0  0  0  0999 V2000
   -3.7120    5.4460  -17.9980 C   0  0  0  0  0  0  0  0  0  0  0  0
   -5.1780    5.3270  -18.2300 C   0  0  0  0  0  0  0  0  0  0  0  0
   -6.0700    5.2970  -17.1620 C   0  0  0  0  0  0  0  0  0  0  0  0
   -5.4660    5.4010  -15.8380 N   0  0  0  0  0  0  0  0  0  0  0  0
   -7.4440    5.1630  -17.3890 C   0  0  0  0  0  0  0  0  0  0  0  0
   -8.2580    5.1280  -16.3020 N   0  0  0  0  0  0  0  0  0  0  0  0
   -9.5670    4.9850  -16.5370 C   0  0  0  0  0  0  0  0  0  0  0  0
  -10.1940    4.8640  -17.9180 C   0  0  0  0  0  0  0  0  0  0  0  0
   -9.3090    4.9150  -18.9760 C   0  0  0  0  0  0  0  0  0  0  0  0
   -7.9340    5.0630  -18.7060 C   0  0  0  0  0  0  0  0  0  0  0  0
   -7.0390    5.1100  -19.7770 C   0  0  0  0  0  0  0  0  0  0  0  0
   -5.6770    5.2400  -19.5280 C   0  0  0  0  0  0  0  0  0  0  0  0
   -3.3810    4.7360  -17.2310 H   0  0  0  0  0  0  0  0  0  0  0  0
   -3.1690    5.2360  -18.9250 H   0  0  0  0  0  0  0  0  0  0  0  0
   -3.4500    6.4490  -17.6490 H   0  0  0  0  0  0  0  0  0  0  0  0
   -5.1660    6.3420  -15.6150 H   0  0  0  0  0  0  0  0  0  0  0  0
   -6.1200    5.0270  -15.1610 H   0  0  0  0  0  0  0  0  0  0  0  0
  -10.2900    4.9420  -15.7140 H   0  0  0  0  0  0  0  0  0  0  0  0
  -11.2670    4.7510  -18.0550 H   0  0  0  0  0  0  0  0  0  0  0  0
   -9.6740    4.8380  -19.9970 H   0  0  0  0  0  0  0  0  0  0  0  0
   -7.4120    5.0350  -20.7940 H   0  0  0  0  0  0  0  0  0  0  0  0
   -5.0530    5.2600  -20.4280 H   0  0  0  0  0  0  0  0  0  0  0  0
  1  2  1  0
  2  3  2  0
  3  4  1  0
  3  5  1  0
  5  6  2  0
  6  7  1  0
  7  8  2  0
  8  9  1  0
  9 10  2  0
 10 11  1  0
 11 12  2  0
 12  2  1  0
 10  5  1  0
  1 13  1  0
  1 14  1  0
  1 15  1  0
  4 16  1  0
  4 17  1  0
  7 18  1  0
  8 19  1  0
  9 20  1  0
 11 21  1  0
 12 22  1  0
A    1
 C1 
A    2
 C2 
A    3
 C3 
A    4
 N1 
A    5
 C4 
A    6
 N2 
A    7
 C5 
A    8
 C6 
A    9
 C7 
A   10
 C8 
A   11
 C9 
A   12
 C10
A   13
 H1 
A   14
 H2 
A   15
 H3 
A   16
 H4 
A   17
 H5 
A   18
 H6 
A   19
 H7 
A   20
 H8 
A   21
 H9 
A   22
 H10
M  END
>  <ref_pdb>  (466) 
x0051_0B

>  <ref_mols>  (466) 
x0727_0B,x0800_0B

>  <original SMILES>  (466) 
[H]c1nc2c(N([H])[H])c(C([H])([H])[H])c([H])c([H])c2c([H])c1[H]

>  <index>  (466) 
3728

>  <∆∆G>  (466) 
-6.741991

>  <∆G_bound>  (466) 
-6.716832

>  <∆G_unbound>  (466) 
0.025159

>  <comRMSD>  (466) 
0.701783

>  <N_constrained_atoms>  (466) 
15.0

>  <N_unconstrained_atoms>  (466) 
0.0

>  <runtime>  (466) 
22.387026

>  <LE>  (466) 
0.449466

>  <percent_hybrid>  (466) 
43.0

>  <dist>  (466) 
3.0

>  <ecfp4>  (466) 
0.104167

>  <daylight>  (466) 
0.225352

>  <topodist>  (466) 
1.0

>  <mces>  (466) 
13.0

>  <tdn>  (466) 
1.0

>  <tup>  (466) 
0.0

>  <rdn>  (466) 
0.0

>  <rup>  (466) 
0.0

>  <ldn>  (466) 
0.0

>  <lup>  (466) 
0.0

>  <mut>  (466) 
2.0

>  <maj>  (466) 
2.0

>  <min>  (466) 
0.0

>  <hyb>  (466) 
0.0

>  <sub>  (466) 
1.0

>  <query_index>  (466) 
67.0

>  <max_hit_Tanimoto>  (466) 
0.305835

>  <largest_ring>  (466) 
6

>  <N_interactions_kept>  (466) 
0.0

>  <N_interactions_lost>  (466) 
4.0

>  <interaction_uniqueness_metric>  (466) 
0.044868

>  <ad_hoc_penalty>  (466) 
-1.004654

>  <N_rotatable_bonds>  (466) 
2

>  <N_HA>  (466) 
12

>  <cluster>  (466) 
2756

>  <N_interactions>  (466) 
5

>  <Enamine>  (466) 
1

>  <Mcule>  (466) 
0

>  <N_PAINS>  (466) 
0

>  <UFF_Gibbs>  (466) 
29.09406

>  <strain_per_HA>  (466) 
2.424505

>  <intxn_scored>  (466) 
7.5

>  <saltbridge:HIS:51>  (466) 
0

>  <pistack:HIS:51>  (466) 
0

>  <hydroph_interaction:HIS:51>  (466) 
0

>  <hbond:ALA:132>  (466) 
0

>  <hbond:SER:135>  (466) 
0

>  <hydroph_interaction:TYR:150>  (466) 
1

>  <pistack:TYR:161>  (466) 
1

>  <hydroph_interaction:TYR:161>  (466) 
3

>  <hydroph_interaction:ASP:83>  (466) 
0

>  <hbond:TYR:130>  (466) 
0

>  <hydroph_interaction:ALA:132>  (466) 
0

>  <hbond:HIS:51>  (466) 
0

>  <hbond:ASP:129>  (466) 
0

>  <hbond:TYR:150>  (466) 
0

>  <hbond:GLY:151>  (466) 
0

>  <hbond:TYR:161>  (466) 
0

>  <hydroph_interaction:TYR:130>  (466) 
0

>  <hydroph_interaction:PRO:131>  (466) 
0

>  <hydroph_interaction:ASP:129>  (466) 
0

>  <saltbridge:ASP:75>  (466) 
0

>  <saltbridge:ASP:83>  (466) 
0

>  <hbond:ASN:152>  (466) 
0

>  <hydroph_interaction:ASN:152>  (466) 
0

>  <halogenbond:TYR:150>  (466) 
0

>  <hbond:ASP:83>  (466) 
0

>  <hydroph_interaction:VAL:155>  (466) 
0

>  <pication:TYR:161>  (466) 
0

>  <hbond:PRO:131>  (466) 
0

>  <saltbridge:ASP:129>  (466) 
0

>  <hbond:THR:134>  (466) 
0

>  <pication:HIS:51>  (466) 
0

>  <hbond:SER:81>  (466) 
0

>  <hydroph_interaction:THR:134>  (466) 
0

>  <hydroph_interaction:MET:49>  (466) 
0

$$$$
Z4341239669
     RDKit          3D

 26 27  0  0  0  0  0  0  0  0999 V2000
   -6.1010    5.4840  -14.9490 N   0  0  0  0  0  0  0  0  0  0  0  0
   -5.3130    5.3940  -16.0490 C   0  0  0  0  0  0  0  0  0  0  0  0
   -4.1230    5.1390  -15.8830 O   0  0  0  0  0  0  0  0  0  0  0  0
   -5.9110    5.5910  -17.2840 N   0  0  0  0  0  0  0  0  0  0  0  0
   -4.9310    5.4270  -18.3790 C   0  0  0  0  0  0  0  0  0  0  0  0
   -5.4740    5.5070  -19.7620 C   0  0  0  0  0  0  0  0  0  0  0  0
   -6.8350    5.3450  -19.9850 C   0  0  0  0  0  0  0  0  0  0  0  0
   -7.7570    5.1780  -18.8270 C   0  0  0  0  0  0  0  0  0  0  0  0
   -9.0910    4.8920  -19.0530 C   0  0  0  0  0  0  0  0  0  0  0  0
   -9.4890    4.7610  -20.3400 O   0  0  0  0  0  0  0  0  0  0  0  0
  -10.1430    4.7180  -17.9600 C   0  0  0  0  0  0  0  0  0  0  0  0
   -9.7540    4.8460  -16.5980 C   0  0  0  0  0  0  0  0  0  0  0  0
   -8.2730    5.1510  -16.4150 C   0  0  0  0  0  0  0  0  0  0  0  0
   -7.2760    5.3150  -17.5370 C   0  0  0  0  0  0  0  0  0  0  0  0
   -6.5660    4.6280  -14.6750 H   0  0  0  0  0  0  0  0  0  0  0  0
   -5.6480    5.9820  -14.1920 H   0  0  0  0  0  0  0  0  0  0  0  0
   -4.1570    6.1600  -18.1780 H   0  0  0  0  0  0  0  0  0  0  0  0
   -4.4340    4.4630  -18.2640 H   0  0  0  0  0  0  0  0  0  0  0  0
   -4.9360    4.7650  -20.3610 H   0  0  0  0  0  0  0  0  0  0  0  0
   -5.1950    6.4960  -20.1550 H   0  0  0  0  0  0  0  0  0  0  0  0
   -6.9800    4.5170  -20.6960 H   0  0  0  0  0  0  0  0  0  0  0  0
   -7.1640    6.2410  -20.4910 H   0  0  0  0  0  0  0  0  0  0  0  0
   -9.1470    5.5000  -20.8690 H   0  0  0  0  0  0  0  0  0  0  0  0
  -11.1700    4.5000  -18.2340 H   0  0  0  0  0  0  0  0  0  0  0  0
  -10.4240    4.7390  -15.7600 H   0  0  0  0  0  0  0  0  0  0  0  0
   -7.9050    5.2580  -15.3930 H   0  0  0  0  0  0  0  0  0  0  0  0
  1  2  1  0
  2  3  2  0
  2  4  1  0
  4  5  1  0
  5  6  1  0
  6  7  1  0
  7  8  1  0
  8  9  2  0
  9 10  1  0
  9 11  1  0
 11 12  2  0
 12 13  1  0
 13 14  2  0
 14  4  1  0
 14  8  1  0
  1 15  1  0
  1 16  1  0
  5 17  1  0
  5 18  1  0
  6 19  1  0
  6 20  1  0
  7 21  1  0
  7 22  1  0
 10 23  1  0
 11 24  1  0
 12 25  1  0
 13 26  1  0
A    1
 N1 
A    2
 C1 
A    3
 O1 
A    4
 N2 
A    5
 C2 
A    6
 C3 
A    7
 C4 
A    8
 C5 
A    9
 C6 
A   10
 O2 
A   11
 C7 
A   12
 C8 
A   13
 C9 
A   14
 C10
A   15
 H1 
A   16
 H2 
A   17
 H3 
A   18
 H4 
A   19
 H5 
A   20
 H6 
A   21
 H7 
A   22
 H8 
A   23
 H9 
A   24
 H10
A   25
 H11
A   26
 H12
M  END
>  <ref_pdb>  (467) 
x0051_0B

>  <ref_mols>  (467) 
x0443_0B,x0455_0B

>  <original SMILES>  (467) 
[H]Oc1c([H])c([H])c([H])c2c1C([H])([H])C([H])([H])C([H])([H])N2C(=O)N([H])[H]

>  <index>  (467) 
413

>  <∆∆G>  (467) 
-5.241136

>  <∆G_bound>  (467) 
-4.696065

>  <∆G_unbound>  (467) 
0.545071

>  <comRMSD>  (467) 
0.607964

>  <N_constrained_atoms>  (467) 
13.0

>  <N_unconstrained_atoms>  (467) 
2.0

>  <runtime>  (467) 
22.216789

>  <LE>  (467) 
0.349409

>  <percent_hybrid>  (467) 
40.0

>  <dist>  (467) 
4.0

>  <ecfp4>  (467) 
0.218182

>  <daylight>  (467) 
0.537931

>  <topodist>  (467) 
2.0

>  <mces>  (467) 
14.0

>  <tdn>  (467) 
0.0

>  <tup>  (467) 
1.0

>  <rdn>  (467) 
1.0

>  <rup>  (467) 
0.0

>  <ldn>  (467) 
0.0

>  <lup>  (467) 
0.0

>  <mut>  (467) 
1.0

>  <maj>  (467) 
1.0

>  <min>  (467) 
0.0

>  <hyb>  (467) 
1.0

>  <sub>  (467) 
2.0

>  <query_index>  (467) 
244.0

>  <max_hit_Tanimoto>  (467) 
0.281707

>  <largest_ring>  (467) 
0

>  <N_interactions_kept>  (467) 
1.0

>  <N_interactions_lost>  (467) 
2.0

>  <interaction_uniqueness_metric>  (467) 
0.066241

>  <ad_hoc_penalty>  (467) 
-14.280496

>  <N_rotatable_bonds>  (467) 
1

>  <N_HA>  (467) 
14

>  <cluster>  (467) 
5842

>  <N_interactions>  (467) 
6

>  <Enamine>  (467) 
1

>  <Mcule>  (467) 
0

>  <N_PAINS>  (467) 
0

>  <UFF_Gibbs>  (467) 
163.092084

>  <strain_per_HA>  (467) 
11.649435

>  <intxn_scored>  (467) 
7.5

>  <saltbridge:HIS:51>  (467) 
0

>  <pistack:HIS:51>  (467) 
0

>  <hydroph_interaction:HIS:51>  (467) 
0

>  <hbond:ALA:132>  (467) 
0

>  <hbond:SER:135>  (467) 
0

>  <hydroph_interaction:TYR:150>  (467) 
1

>  <pistack:TYR:161>  (467) 
0

>  <hydroph_interaction:TYR:161>  (467) 
3

>  <hydroph_interaction:ASP:83>  (467) 
0

>  <hbond:TYR:130>  (467) 
2

>  <hydroph_interaction:ALA:132>  (467) 
0

>  <hbond:HIS:51>  (467) 
0

>  <hbond:ASP:129>  (467) 
0

>  <hbond:TYR:150>  (467) 
0

>  <hbond:GLY:151>  (467) 
0

>  <hbond:TYR:161>  (467) 
0

>  <hydroph_interaction:TYR:130>  (467) 
0

>  <hydroph_interaction:PRO:131>  (467) 
0

>  <hydroph_interaction:ASP:129>  (467) 
0

>  <saltbridge:ASP:75>  (467) 
0

>  <saltbridge:ASP:83>  (467) 
0

>  <hbond:ASN:152>  (467) 
0

>  <hydroph_interaction:ASN:152>  (467) 
0

>  <halogenbond:TYR:150>  (467) 
0

>  <hbond:ASP:83>  (467) 
0

>  <hydroph_interaction:VAL:155>  (467) 
0

>  <pication:TYR:161>  (467) 
0

>  <hbond:PRO:131>  (467) 
0

>  <saltbridge:ASP:129>  (467) 
0

>  <hbond:THR:134>  (467) 
0

>  <pication:HIS:51>  (467) 
0

>  <hbond:SER:81>  (467) 
0

>  <hydroph_interaction:THR:134>  (467) 
0

>  <hydroph_interaction:MET:49>  (467) 
0

$$$$
CSSS00046142521
     RDKit          3D

 36 38  0  0  0  0  0  0  0  0999 V2000
  -10.5980    4.5770  -20.3730 C   0  0  0  0  0  0  0  0  0  0  0  0
   -9.6450    4.7910  -19.2250 C   0  0  0  0  0  0  0  0  0  0  0  0
  -10.2250    4.7730  -17.9010 C   0  0  0  0  0  0  0  0  0  0  0  0
   -9.5790    4.9680  -16.7100 C   0  0  0  0  0  0  0  0  0  0  0  0
   -8.1690    5.2220  -16.8300 C   0  0  0  0  0  0  0  0  0  0  0  0
   -7.6010    5.2210  -18.1300 C   0  0  0  0  0  0  0  0  0  0  0  0
   -8.3020    5.0100  -19.3130 C   0  0  0  0  0  0  0  0  0  0  0  0
   -7.3590    5.4810  -15.6960 N   0  0  0  0  0  0  0  0  0  0  0  0
   -7.7380    4.8690  -14.5320 N   0  0  0  0  0  0  0  0  0  0  0  0
   -8.1090    5.7260  -13.6700 C   0  0  0  0  0  0  0  0  0  0  0  0
   -8.1290    7.0670  -14.0340 C   0  0  0  0  0  0  0  0  0  0  0  0
   -6.9540    7.5380  -14.6410 C   0  0  0  0  0  0  0  0  0  0  0  0
   -6.5570    6.6360  -15.6280 C   0  0  0  0  0  0  0  0  0  0  0  0
   -5.5840    6.9220  -16.3280 O   0  0  0  0  0  0  0  0  0  0  0  0
   -8.4360    5.3800  -12.2780 C   0  0  0  0  0  0  0  0  0  0  0  0
   -8.4670    3.9780  -11.7790 C   0  0  0  0  0  0  0  0  0  0  0  0
   -8.7410    3.7280  -10.4450 C   0  0  0  0  0  0  0  0  0  0  0  0
   -8.9860    4.7850   -9.5820 C   0  0  0  0  0  0  0  0  0  0  0  0
   -8.9680    6.1130  -10.0470 C   0  0  0  0  0  0  0  0  0  0  0  0
   -8.6980    6.4050  -11.3810 C   0  0  0  0  0  0  0  0  0  0  0  0
  -10.8460    5.5370  -20.7960 H   0  0  0  0  0  0  0  0  0  0  0  0
  -10.1530    3.9750  -21.1660 H   0  0  0  0  0  0  0  0  0  0  0  0
  -11.5350    4.1240  -20.0390 H   0  0  0  0  0  0  0  0  0  0  0  0
  -11.2930    4.5910  -17.8440 H   0  0  0  0  0  0  0  0  0  0  0  0
  -10.1140    4.9380  -15.7650 H   0  0  0  0  0  0  0  0  0  0  0  0
   -6.5390    5.4000  -18.2630 H   0  0  0  0  0  0  0  0  0  0  0  0
   -7.7860    5.0320  -20.2710 H   0  0  0  0  0  0  0  0  0  0  0  0
   -8.3320    7.6520  -13.1320 H   0  0  0  0  0  0  0  0  0  0  0  0
   -8.9580    7.2410  -14.7230 H   0  0  0  0  0  0  0  0  0  0  0  0
   -6.1350    7.6320  -13.9190 H   0  0  0  0  0  0  0  0  0  0  0  0
   -7.1270    8.5190  -15.0880 H   0  0  0  0  0  0  0  0  0  0  0  0
   -8.2580    3.1990  -12.5200 H   0  0  0  0  0  0  0  0  0  0  0  0
   -8.7600    2.7040  -10.0750 H   0  0  0  0  0  0  0  0  0  0  0  0
   -9.1970    4.5810   -8.5340 H   0  0  0  0  0  0  0  0  0  0  0  0
   -9.1660    6.9260   -9.3510 H   0  0  0  0  0  0  0  0  0  0  0  0
   -8.6920    7.4470  -11.6830 H   0  0  0  0  0  0  0  0  0  0  0  0
  1  2  1  0
  2  3  2  0
  3  4  1  0
  4  5  2  0
  5  6  1  0
  6  7  2  0
  5  8  1  0
  8  9  1  0
  9 10  2  0
 10 11  1  0
 11 12  1  0
 12 13  1  0
 13 14  2  0
 10 15  1  0
 15 16  2  0
 16 17  1  0
 17 18  2  0
 18 19  1  0
 19 20  2  0
  7  2  1  0
 13  8  1  0
 20 15  1  0
  1 21  1  0
  1 22  1  0
  1 23  1  0
  3 24  1  0
  4 25  1  0
  6 26  1  0
  7 27  1  0
 11 28  1  0
 11 29  1  0
 12 30  1  0
 12 31  1  0
 16 32  1  0
 17 33  1  0
 18 34  1  0
 19 35  1  0
 20 36  1  0
A    1
 C1 
A    2
 C2 
A    3
 C3 
A    4
 C4 
A    5
 C5 
A    6
 C6 
A    7
 C7 
A    8
 N1 
A    9
 N2 
A   10
 C8 
A   11
 C9 
A   12
 C10
A   13
 C11
A   14
 O1 
A   15
 C12
A   16
 C13
A   17
 C14
A   18
 C15
A   19
 C16
A   20
 C17
A   21
 H1 
A   22
 H2 
A   23
 H3 
A   24
 H4 
A   25
 H5 
A   26
 H6 
A   27
 H7 
A   28
 H8 
A   29
 H9 
A   30
 H10
A   31
 H11
A   32
 H12
A   33
 H13
A   34
 H14
A   35
 H15
A   36
 H16
M  END
>  <ref_pdb>  (468) 
x0051_0B

>  <ref_mols>  (468) 
x1098_0B,x0455_0B

>  <original SMILES>  (468) 
[H]c1c([H])c([H])c(C2=NN(c3c([H])c([H])c(C([H])([H])[H])c([H])c3[H])C(=O)C([H])([H])C2([H])[H])c([H])c1[H]

>  <index>  (468) 
1372

>  <∆∆G>  (468) 
-8.987016

>  <∆G_bound>  (468) 
-8.868467

>  <∆G_unbound>  (468) 
0.118549

>  <comRMSD>  (468) 
0.897998

>  <N_constrained_atoms>  (468) 
16.0

>  <N_unconstrained_atoms>  (468) 
5.0

>  <runtime>  (468) 
66.959784

>  <LE>  (468) 
0.427953

>  <percent_hybrid>  (468) 
0.0

>  <dist>  (468) 
10.0

>  <ecfp4>  (468) 
0.142857

>  <daylight>  (468) 
0.224066

>  <topodist>  (468) 
4.0

>  <mces>  (468) 
20.0

>  <tdn>  (468) 
1.0

>  <tup>  (468) 
0.0

>  <rdn>  (468) 
1.0

>  <rup>  (468) 
1.0

>  <ldn>  (468) 
0.0

>  <lup>  (468) 
1.0

>  <mut>  (468) 
3.0

>  <maj>  (468) 
3.0

>  <min>  (468) 
0.0

>  <hyb>  (468) 
3.0

>  <sub>  (468) 
2.0

>  <query_index>  (468) 
72.0

>  <max_hit_Tanimoto>  (468) 
0.211987

>  <largest_ring>  (468) 
6

>  <N_interactions_kept>  (468) 
1.0

>  <N_interactions_lost>  (468) 
4.0

>  <interaction_uniqueness_metric>  (468) 
0.206174

>  <ad_hoc_penalty>  (468) 
-8.616477

>  <N_rotatable_bonds>  (468) 
3

>  <N_HA>  (468) 
20

>  <cluster>  (468) 
4960

>  <N_interactions>  (468) 
7

>  <Enamine>  (468) 
1

>  <Mcule>  (468) 
0

>  <N_PAINS>  (468) 
0

>  <UFF_Gibbs>  (468) 
187.600644

>  <strain_per_HA>  (468) 
9.380032

>  <intxn_scored>  (468) 
7.5

>  <saltbridge:HIS:51>  (468) 
0

>  <pistack:HIS:51>  (468) 
1

>  <hydroph_interaction:HIS:51>  (468) 
1

>  <hbond:ALA:132>  (468) 
0

>  <hbond:SER:135>  (468) 
0

>  <hydroph_interaction:TYR:150>  (468) 
1

>  <pistack:TYR:161>  (468) 
0

>  <hydroph_interaction:TYR:161>  (468) 
1

>  <hydroph_interaction:ASP:83>  (468) 
0

>  <hbond:TYR:130>  (468) 
0

>  <hydroph_interaction:ALA:132>  (468) 
1

>  <hbond:HIS:51>  (468) 
0

>  <hbond:ASP:129>  (468) 
0

>  <hbond:TYR:150>  (468) 
0

>  <hbond:GLY:151>  (468) 
0

>  <hbond:TYR:161>  (468) 
1

>  <hydroph_interaction:TYR:130>  (468) 
1

>  <hydroph_interaction:PRO:131>  (468) 
0

>  <hydroph_interaction:ASP:129>  (468) 
0

>  <saltbridge:ASP:75>  (468) 
0

>  <saltbridge:ASP:83>  (468) 
0

>  <hbond:ASN:152>  (468) 
0

>  <hydroph_interaction:ASN:152>  (468) 
0

>  <halogenbond:TYR:150>  (468) 
0

>  <hbond:ASP:83>  (468) 
0

>  <hydroph_interaction:VAL:155>  (468) 
0

>  <pication:TYR:161>  (468) 
0

>  <hbond:PRO:131>  (468) 
0

>  <saltbridge:ASP:129>  (468) 
0

>  <hbond:THR:134>  (468) 
0

>  <pication:HIS:51>  (468) 
0

>  <hbond:SER:81>  (468) 
0

>  <hydroph_interaction:THR:134>  (468) 
0

>  <hydroph_interaction:MET:49>  (468) 
0

$$$$
Z4191451848
     RDKit          3D

 27 28  0  0  0  0  0  0  0  0999 V2000
   -2.3000    4.7940  -19.6310 C   0  0  0  0  0  0  0  0  0  0  0  0
   -3.4710    5.3600  -18.9120 C   0  0  0  0  0  0  0  0  0  0  0  0
   -4.5650    5.6690  -19.6210 N   0  0  0  0  0  0  0  0  0  0  0  0
   -5.8110    5.4660  -19.1230 C   0  0  0  0  0  0  0  0  0  0  0  0
   -6.8900    5.2490  -19.8290 N   0  0  0  0  0  0  0  0  0  0  0  0
   -7.9190    5.1020  -18.9410 C   0  0  0  0  0  0  0  0  0  0  0  0
   -9.3560    4.8400  -19.2450 C   0  0  0  0  0  0  0  0  0  0  0  0
  -10.1950    4.7320  -18.1310 C   0  0  0  0  0  0  0  0  0  0  0  0
   -9.6360    4.8750  -16.7190 C   0  0  0  0  0  0  0  0  0  0  0  0
   -8.2810    5.1180  -16.5220 C   0  0  0  0  0  0  0  0  0  0  0  0
   -7.7180    5.2490  -15.2620 C   0  0  0  0  0  0  0  0  0  0  0  0
   -7.1760    5.3450  -14.2430 N   0  0  0  0  0  0  0  0  0  0  0  0
   -7.4530    5.2290  -17.6360 C   0  0  0  0  0  0  0  0  0  0  0  0
   -6.1050    5.4620  -17.7730 N   0  0  0  0  0  0  0  0  0  0  0  0
   -5.2030    5.6590  -16.6690 C   0  0  0  0  0  0  0  0  0  0  0  0
   -1.4310    5.4480  -19.5080 H   0  0  0  0  0  0  0  0  0  0  0  0
   -2.0320    3.8060  -19.2580 H   0  0  0  0  0  0  0  0  0  0  0  0
   -2.5160    4.6960  -20.6990 H   0  0  0  0  0  0  0  0  0  0  0  0
   -3.1500    6.2140  -18.3050 H   0  0  0  0  0  0  0  0  0  0  0  0
   -3.8260    4.6000  -18.1980 H   0  0  0  0  0  0  0  0  0  0  0  0
   -4.4090    6.3430  -20.3600 H   0  0  0  0  0  0  0  0  0  0  0  0
   -9.6090    4.7600  -20.3060 H   0  0  0  0  0  0  0  0  0  0  0  0
  -11.2560    4.5440  -18.2840 H   0  0  0  0  0  0  0  0  0  0  0  0
  -10.3000    4.7840  -15.8620 H   0  0  0  0  0  0  0  0  0  0  0  0
   -5.7000    6.1720  -15.8460 H   0  0  0  0  0  0  0  0  0  0  0  0
   -4.3740    6.2870  -17.0020 H   0  0  0  0  0  0  0  0  0  0  0  0
   -4.8480    4.6830  -16.3340 H   0  0  0  0  0  0  0  0  0  0  0  0
  1  2  1  0
  2  3  1  0
  3  4  1  0
  4  5  2  0
  5  6  1  0
  6  7  2  0
  7  8  1  0
  8  9  2  0
  9 10  1  0
 10 11  1  0
 11 12  3  0
 10 13  2  0
 13 14  1  0
 14 15  1  0
 14  4  1  0
 13  6  1  0
  1 16  1  0
  1 17  1  0
  1 18  1  0
  2 19  1  0
  2 20  1  0
  3 21  1  0
  7 22  1  0
  8 23  1  0
  9 24  1  0
 15 25  1  0
 15 26  1  0
 15 27  1  0
A    1
 C1 
A    2
 C2 
A    3
 N1 
A    4
 C3 
A    5
 N2 
A    6
 C4 
A    7
 C5 
A    8
 C6 
A    9
 C7 
A   10
 C8 
A   11
 C9 
A   12
 N3 
A   13
 C10
A   14
 N4 
A   15
 C11
A   16
 H1 
A   17
 H2 
A   18
 H3 
A   19
 H4 
A   20
 H5 
A   21
 H6 
A   22
 H7 
A   23
 H8 
A   24
 H9 
A   25
 H10
A   26
 H11
A   27
 H12
M  END
>  <ref_pdb>  (469) 
x0051_0B

>  <ref_mols>  (469) 
x0089_0B,x0455_0B

>  <original SMILES>  (469) 
[H]c1c([H])c(C#N)c2c(nc(N([H])C([H])([H])C([H])([H])[H])n2C([H])([H])[H])c1[H]

>  <index>  (469) 
2790

>  <∆∆G>  (469) 
-6.840734

>  <∆G_bound>  (469) 
-6.919376

>  <∆G_unbound>  (469) 
-0.078641

>  <comRMSD>  (469) 
0.544233

>  <N_constrained_atoms>  (469) 
16.0

>  <N_unconstrained_atoms>  (469) 
0.0

>  <runtime>  (469) 
24.600724

>  <LE>  (469) 
0.427546

>  <percent_hybrid>  (469) 
34.0

>  <dist>  (469) 
4.0

>  <ecfp4>  (469) 
0.305085

>  <daylight>  (469) 
0.528736

>  <topodist>  (469) 
2.0

>  <mces>  (469) 
16.0

>  <tdn>  (469) 
1.0

>  <tup>  (469) 
0.0

>  <rdn>  (469) 
1.0

>  <rup>  (469) 
0.0

>  <ldn>  (469) 
0.0

>  <lup>  (469) 
0.0

>  <mut>  (469) 
1.0

>  <maj>  (469) 
1.0

>  <min>  (469) 
0.0

>  <hyb>  (469) 
1.0

>  <sub>  (469) 
2.0

>  <query_index>  (469) 
166.0

>  <max_hit_Tanimoto>  (469) 
0.363893

>  <largest_ring>  (469) 
6

>  <N_interactions_kept>  (469) 
0.0

>  <N_interactions_lost>  (469) 
3.0

>  <interaction_uniqueness_metric>  (469) 
0.044868

>  <ad_hoc_penalty>  (469) 
-2.876892

>  <N_rotatable_bonds>  (469) 
4

>  <N_HA>  (469) 
15

>  <cluster>  (469) 
3645

>  <N_interactions>  (469) 
5

>  <Enamine>  (469) 
1

>  <Mcule>  (469) 
0

>  <N_PAINS>  (469) 
0

>  <UFF_Gibbs>  (469) 
76.598342

>  <strain_per_HA>  (469) 
5.106556

>  <intxn_scored>  (469) 
7.5

>  <saltbridge:HIS:51>  (469) 
0

>  <pistack:HIS:51>  (469) 
0

>  <hydroph_interaction:HIS:51>  (469) 
0

>  <hbond:ALA:132>  (469) 
0

>  <hbond:SER:135>  (469) 
0

>  <hydroph_interaction:TYR:150>  (469) 
1

>  <pistack:TYR:161>  (469) 
1

>  <hydroph_interaction:TYR:161>  (469) 
3

>  <hydroph_interaction:ASP:83>  (469) 
0

>  <hbond:TYR:130>  (469) 
0

>  <hydroph_interaction:ALA:132>  (469) 
0

>  <hbond:HIS:51>  (469) 
0

>  <hbond:ASP:129>  (469) 
0

>  <hbond:TYR:150>  (469) 
0

>  <hbond:GLY:151>  (469) 
0

>  <hbond:TYR:161>  (469) 
0

>  <hydroph_interaction:TYR:130>  (469) 
0

>  <hydroph_interaction:PRO:131>  (469) 
0

>  <hydroph_interaction:ASP:129>  (469) 
0

>  <saltbridge:ASP:75>  (469) 
0

>  <saltbridge:ASP:83>  (469) 
0

>  <hbond:ASN:152>  (469) 
0

>  <hydroph_interaction:ASN:152>  (469) 
0

>  <halogenbond:TYR:150>  (469) 
0

>  <hbond:ASP:83>  (469) 
0

>  <hydroph_interaction:VAL:155>  (469) 
0

>  <pication:TYR:161>  (469) 
0

>  <hbond:PRO:131>  (469) 
0

>  <saltbridge:ASP:129>  (469) 
0

>  <hbond:THR:134>  (469) 
0

>  <pication:HIS:51>  (469) 
0

>  <hbond:SER:81>  (469) 
0

>  <hydroph_interaction:THR:134>  (469) 
0

>  <hydroph_interaction:MET:49>  (469) 
0

$$$$
Z2090792053
     RDKit          3D

 50 53  0  0  0  0  0  0  0  0999 V2000
  -10.0550    5.0020  -15.7660 O   0  0  0  0  0  0  0  0  0  0  0  0
   -9.4160    4.8900  -16.7880 C   0  0  0  0  0  0  0  0  0  0  0  0
   -9.8940    4.7000  -18.2150 C   0  0  0  0  0  0  0  0  0  0  0  0
   -8.7090    4.9760  -19.0290 C   0  0  0  0  0  0  0  0  0  0  0  0
   -7.6480    5.5770  -18.1140 C   0  0  0  0  0  0  0  0  0  0  0  0
   -6.2440    5.1970  -18.4520 C   0  0  0  0  0  0  0  0  0  0  0  0
   -6.2920    4.9630  -19.9790 C   0  0  0  0  0  0  0  0  0  0  0  0
   -6.3600    6.1880  -20.6980 N   0  0  0  0  0  0  0  0  0  0  0  0
   -5.1970    6.5720  -21.4900 C   0  0  0  0  0  0  0  0  0  0  0  0
   -3.9330    5.9080  -21.4880 O   0  0  0  0  0  0  0  0  0  0  0  0
   -5.4430    7.7560  -22.3180 C   0  0  0  0  0  0  0  0  0  0  0  0
   -6.1580    7.5820  -23.6400 C   0  0  0  0  0  0  0  0  0  0  0  0
   -6.3870    8.6900  -24.3940 C   0  0  0  0  0  0  0  0  0  0  0  0
   -5.9660    9.9400  -23.9480 C   0  0  0  0  0  0  0  0  0  0  0  0
   -6.2410   10.9980  -24.7880 C   0  0  0  0  0  0  0  0  0  0  0  0
   -5.8380   10.5870  -26.5160 S   0  0  0  0  0  0  0  0  0  0  0  0
   -7.2220    9.7040  -27.0290 C   0  0  0  0  0  0  0  0  0  0  0  0
   -7.3250    8.3670  -27.3700 N   0  0  0  0  0  0  0  0  0  0  0  0
   -8.7210    8.2320  -27.7060 C   0  0  0  0  0  0  0  0  0  0  0  0
   -9.3810    6.9400  -28.1520 C   0  0  0  0  0  0  0  0  0  0  0  0
  -10.8500    7.0460  -28.4360 C   0  0  0  0  0  0  0  0  0  0  0  0
  -11.4760    8.3060  -28.2700 C   0  0  0  0  0  0  0  0  0  0  0  0
  -10.7960    9.4850  -27.8510 C   0  0  0  0  0  0  0  0  0  0  0  0
   -9.4160    9.4090  -27.5770 C   0  0  0  0  0  0  0  0  0  0  0  0
   -8.4520   10.3290  -27.1530 N   0  0  0  0  0  0  0  0  0  0  0  0
   -5.2980   10.1050  -22.7160 C   0  0  0  0  0  0  0  0  0  0  0  0
   -5.0360    9.0170  -21.8990 C   0  0  0  0  0  0  0  0  0  0  0  0
   -8.0500    4.9370  -16.8880 N   0  0  0  0  0  0  0  0  0  0  0  0
  -10.7210    5.3720  -18.4530 H   0  0  0  0  0  0  0  0  0  0  0  0
  -10.1800    3.6870  -18.3980 H   0  0  0  0  0  0  0  0  0  0  0  0
   -8.9850    5.7130  -19.7890 H   0  0  0  0  0  0  0  0  0  0  0  0
   -8.3700    4.0840  -19.5660 H   0  0  0  0  0  0  0  0  0  0  0  0
   -7.7360    6.6210  -17.8900 H   0  0  0  0  0  0  0  0  0  0  0  0
   -5.7730    4.4510  -17.8340 H   0  0  0  0  0  0  0  0  0  0  0  0
   -5.6300    6.0960  -18.2970 H   0  0  0  0  0  0  0  0  0  0  0  0
   -7.1500    4.3440  -20.2740 H   0  0  0  0  0  0  0  0  0  0  0  0
   -5.3880    4.4510  -20.2850 H   0  0  0  0  0  0  0  0  0  0  0  0
   -7.2590    6.4050  -21.1220 H   0  0  0  0  0  0  0  0  0  0  0  0
   -6.4820    6.6010  -23.9770 H   0  0  0  0  0  0  0  0  0  0  0  0
   -6.9010    8.5820  -25.3430 H   0  0  0  0  0  0  0  0  0  0  0  0
   -7.2930   11.2690  -24.6870 H   0  0  0  0  0  0  0  0  0  0  0  0
   -5.6300   11.8610  -24.5010 H   0  0  0  0  0  0  0  0  0  0  0  0
   -8.7330    6.0580  -28.2230 H   0  0  0  0  0  0  0  0  0  0  0  0
  -11.4150    6.1750  -28.7610 H   0  0  0  0  0  0  0  0  0  0  0  0
  -12.5440    8.3810  -28.4760 H   0  0  0  0  0  0  0  0  0  0  0  0
  -11.3390   10.4170  -27.7460 H   0  0  0  0  0  0  0  0  0  0  0  0
   -8.6150   11.3030  -26.9580 H   0  0  0  0  0  0  0  0  0  0  0  0
   -4.9790   11.0930  -22.3890 H   0  0  0  0  0  0  0  0  0  0  0  0
   -4.5210    9.1640  -20.9510 H   0  0  0  0  0  0  0  0  0  0  0  0
   -7.4680    4.3240  -16.3240 H   0  0  0  0  0  0  0  0  0  0  0  0
  1  2  2  0
  2  3  1  0
  3  4  1  0
  4  5  1  0
  5  6  1  0
  6  7  1  0
  7  8  1  0
  8  9  1  0
  9 10  2  0
  9 11  1  0
 11 12  2  0
 12 13  1  0
 13 14  2  0
 14 15  1  0
 15 16  1  0
 16 17  1  0
 17 18  2  0
 18 19  1  0
 19 20  2  0
 20 21  1  0
 21 22  2  0
 22 23  1  0
 23 24  2  0
 24 25  1  0
 14 26  1  0
 26 27  2  0
  5 28  1  0
 28  2  1  0
 27 11  1  0
 25 17  1  0
 24 19  1  0
  3 29  1  0
  3 30  1  0
  4 31  1  0
  4 32  1  0
  5 33  1  0
  6 34  1  0
  6 35  1  0
  7 36  1  0
  7 37  1  0
  8 38  1  0
 12 39  1  0
 13 40  1  0
 15 41  1  0
 15 42  1  0
 20 43  1  0
 21 44  1  0
 22 45  1  0
 23 46  1  0
 25 47  1  0
 26 48  1  0
 27 49  1  0
 28 50  1  0
A    1
 O1 
A    2
 C1 
A    3
 C2 
A    4
 C3 
A    5
 C4 
A    6
 C5 
A    7
 C6 
A    8
 N1 
A    9
 C7 
A   10
 O2 
A   11
 C8 
A   12
 C9 
A   13
 C10
A   14
 C11
A   15
 C12
A   16
 S1 
A   17
 C13
A   18
 N2 
A   19
 C14
A   20
 C15
A   21
 C16
A   22
 C17
A   23
 C18
A   24
 C19
A   25
 N3 
A   26
 C20
A   27
 C21
A   28
 N4 
A   29
 H1 
A   30
 H2 
A   31
 H3 
A   32
 H4 
A   33
 H5 
A   34
 H6 
A   35
 H7 
A   36
 H8 
A   37
 H9 
A   38
 H10
A   39
 H11
A   40
 H12
A   41
 H13
A   42
 H14
A   43
 H15
A   44
 H16
A   45
 H17
A   46
 H18
A   47
 H19
A   48
 H20
A   49
 H21
A   50
 H22
M  END
>  <ref_pdb>  (470) 
x0051_0B

>  <ref_mols>  (470) 
x0846_1B,x0382_0B

>  <original SMILES>  (470) 
[H]c1c([H])c(C([H])([H])Sc2nc3c([H])c([H])c([H])c([H])c3n2[H])c([H])c([H])c1C(=O)N([H])C([H])([H])C([H])([H])C1([H])N([H])C(=O)C([H])([H])C1([H])[H]

>  <index>  (470) 
688

>  <∆∆G>  (470) 
-5.596093

>  <∆G_bound>  (470) 
-4.770107

>  <∆G_unbound>  (470) 
0.825986

>  <comRMSD>  (470) 
0.680014

>  <N_constrained_atoms>  (470) 
25.0

>  <N_unconstrained_atoms>  (470) 
3.0

>  <runtime>  (470) 
40.309861

>  <LE>  (470) 
0.19986

>  <percent_hybrid>  (470) 
28.0

>  <dist>  (470) 
8.0

>  <ecfp4>  (470) 
0.25

>  <daylight>  (470) 
0.308756

>  <topodist>  (470) 
3.0

>  <mces>  (470) 
29.0

>  <tdn>  (470) 
1.0

>  <tup>  (470) 
2.0

>  <rdn>  (470) 
0.0

>  <rup>  (470) 
0.0

>  <ldn>  (470) 
0.0

>  <lup>  (470) 
0.0

>  <mut>  (470) 
4.0

>  <maj>  (470) 
4.0

>  <min>  (470) 
0.0

>  <hyb>  (470) 
1.0

>  <sub>  (470) 
1.0

>  <query_index>  (470) 
353.0

>  <max_hit_Tanimoto>  (470) 
0.301813

>  <largest_ring>  (470) 
6

>  <N_interactions_kept>  (470) 
0.0

>  <N_interactions_lost>  (470) 
1.5

>  <interaction_uniqueness_metric>  (470) 
0.200522

>  <ad_hoc_penalty>  (470) 
-9.775342

>  <N_rotatable_bonds>  (470) 
7

>  <N_HA>  (470) 
28

>  <cluster>  (470) 
5588

>  <N_interactions>  (470) 
7

>  <Enamine>  (470) 
1

>  <Mcule>  (470) 
0

>  <N_PAINS>  (470) 
0

>  <UFF_Gibbs>  (470) 
387.105536

>  <strain_per_HA>  (470) 
13.825198

>  <intxn_scored>  (470) 
7.5

>  <saltbridge:HIS:51>  (470) 
0

>  <pistack:HIS:51>  (470) 
0

>  <hydroph_interaction:HIS:51>  (470) 
0

>  <hbond:ALA:132>  (470) 
0

>  <hbond:SER:135>  (470) 
0

>  <hydroph_interaction:TYR:150>  (470) 
1

>  <pistack:TYR:161>  (470) 
0

>  <hydroph_interaction:TYR:161>  (470) 
2

>  <hydroph_interaction:ASP:83>  (470) 
0

>  <hbond:TYR:130>  (470) 
1

>  <hydroph_interaction:ALA:132>  (470) 
0

>  <hbond:HIS:51>  (470) 
0

>  <hbond:ASP:129>  (470) 
0

>  <hbond:TYR:150>  (470) 
0

>  <hbond:GLY:151>  (470) 
0

>  <hbond:TYR:161>  (470) 
1

>  <hydroph_interaction:TYR:130>  (470) 
1

>  <hydroph_interaction:PRO:131>  (470) 
1

>  <hydroph_interaction:ASP:129>  (470) 
0

>  <saltbridge:ASP:75>  (470) 
0

>  <saltbridge:ASP:83>  (470) 
0

>  <hbond:ASN:152>  (470) 
0

>  <hydroph_interaction:ASN:152>  (470) 
0

>  <halogenbond:TYR:150>  (470) 
0

>  <hbond:ASP:83>  (470) 
0

>  <hydroph_interaction:VAL:155>  (470) 
0

>  <pication:TYR:161>  (470) 
0

>  <hbond:PRO:131>  (470) 
0

>  <saltbridge:ASP:129>  (470) 
0

>  <hbond:THR:134>  (470) 
0

>  <pication:HIS:51>  (470) 
0

>  <hbond:SER:81>  (470) 
0

>  <hydroph_interaction:THR:134>  (470) 
0

>  <hydroph_interaction:MET:49>  (470) 
0

$$$$
CSSS00121605657
     RDKit          3D

 42 42  0  0  0  0  0  0  0  0999 V2000
   -8.8680    6.3580  -10.6170 C   0  0  0  0  0  0  0  0  0  0  0  0
   -8.5620    4.8900  -10.6220 C   0  0  0  0  0  0  0  0  0  0  0  0
   -8.5310    4.1820  -11.8230 C   0  0  0  0  0  0  0  0  0  0  0  0
   -9.1040    4.7860  -12.9350 C   0  0  0  0  0  0  0  0  0  0  0  0
   -8.2710    4.6020  -14.0830 O   0  0  0  0  0  0  0  0  0  0  0  0
   -8.1970    5.6800  -14.8960 C   0  0  0  0  0  0  0  0  0  0  0  0
   -7.9430    6.8160  -14.5340 O   0  0  0  0  0  0  0  0  0  0  0  0
   -8.4570    5.3460  -16.3410 C   0  0  0  0  0  0  0  0  0  0  0  0
   -9.6710    4.7540  -16.9210 C   0  0  0  0  0  0  0  0  0  0  0  0
   -9.7180    4.5340  -18.3020 C   0  0  0  0  0  0  0  0  0  0  0  0
   -8.6440    4.8600  -19.1220 C   0  0  0  0  0  0  0  0  0  0  0  0
   -7.4810    5.4250  -18.5750 C   0  0  0  0  0  0  0  0  0  0  0  0
   -6.3080    5.8270  -19.2640 N   0  0  0  0  0  0  0  0  0  0  0  0
   -5.5910    5.2340  -20.2740 C   0  0  0  0  0  0  0  0  0  0  0  0
   -6.0300    4.5260  -21.1630 O   0  0  0  0  0  0  0  0  0  0  0  0
   -4.2410    5.5580  -20.1600 N   0  0  0  0  0  0  0  0  0  0  0  0
   -3.6150    5.7140  -18.8620 C   0  0  0  0  0  0  0  0  0  0  0  0
   -2.4800    4.7830  -18.6070 C   0  0  0  0  0  0  0  0  0  0  0  0
   -1.7430    4.3130  -19.7060 C   0  0  0  0  0  0  0  0  0  0  0  0
   -7.4110    5.6530  -17.2040 C   0  0  0  0  0  0  0  0  0  0  0  0
   -8.0270    6.9350  -11.0130 H   0  0  0  0  0  0  0  0  0  0  0  0
   -9.7350    6.5790  -11.2450 H   0  0  0  0  0  0  0  0  0  0  0  0
   -9.0760    6.6910   -9.5970 H   0  0  0  0  0  0  0  0  0  0  0  0
   -7.5830    4.7540  -10.1420 H   0  0  0  0  0  0  0  0  0  0  0  0
   -9.2880    4.3940   -9.9660 H   0  0  0  0  0  0  0  0  0  0  0  0
   -7.4950    3.9860  -12.1180 H   0  0  0  0  0  0  0  0  0  0  0  0
   -9.0210    3.2080  -11.6970 H   0  0  0  0  0  0  0  0  0  0  0  0
   -9.2480    5.8580  -12.7580 H   0  0  0  0  0  0  0  0  0  0  0  0
  -10.0840    4.3470  -13.1400 H   0  0  0  0  0  0  0  0  0  0  0  0
  -10.5180    4.4910  -16.3030 H   0  0  0  0  0  0  0  0  0  0  0  0
  -10.6080    4.1020  -18.7340 H   0  0  0  0  0  0  0  0  0  0  0  0
   -8.7400    4.6670  -20.1880 H   0  0  0  0  0  0  0  0  0  0  0  0
   -5.9120    6.6990  -18.9520 H   0  0  0  0  0  0  0  0  0  0  0  0
   -3.6460    5.2620  -20.9210 H   0  0  0  0  0  0  0  0  0  0  0  0
   -3.2790    6.7540  -18.7900 H   0  0  0  0  0  0  0  0  0  0  0  0
   -4.3800    5.5570  -18.0920 H   0  0  0  0  0  0  0  0  0  0  0  0
   -1.7520    5.3680  -18.0350 H   0  0  0  0  0  0  0  0  0  0  0  0
   -2.7300    3.9890  -17.9140 H   0  0  0  0  0  0  0  0  0  0  0  0
   -1.6630    3.2400  -19.8590 H   0  0  0  0  0  0  0  0  0  0  0  0
   -0.7140    4.6780  -19.6390 H   0  0  0  0  0  0  0  0  0  0  0  0
   -2.1640    4.7190  -20.6300 H   0  0  0  0  0  0  0  0  0  0  0  0
   -6.5100    6.0920  -16.7800 H   0  0  0  0  0  0  0  0  0  0  0  0
  1  2  1  0
  2  3  1  0
  3  4  1  0
  4  5  1  0
  5  6  1  0
  6  7  2  0
  6  8  1  0
  8  9  2  0
  9 10  1  0
 10 11  2  0
 11 12  1  0
 12 13  1  0
 13 14  1  0
 14 15  2  0
 14 16  1  0
 16 17  1  0
 17 18  1  0
 18 19  1  0
 12 20  2  0
 20  8  1  0
  1 21  1  0
  1 22  1  0
  1 23  1  0
  2 24  1  0
  2 25  1  0
  3 26  1  0
  3 27  1  0
  4 28  1  0
  4 29  1  0
  9 30  1  0
 10 31  1  0
 11 32  1  0
 13 33  1  0
 16 34  1  0
 17 35  1  0
 17 36  1  0
 18 37  1  0
 18 38  1  0
 19 39  1  0
 19 40  1  0
 19 41  1  0
 20 42  1  0
A    1
 C1 
A    2
 C2 
A    3
 C3 
A    4
 C4 
A    5
 O1 
A    6
 C5 
A    7
 O2 
A    8
 C6 
A    9
 C7 
A   10
 C8 
A   11
 C9 
A   12
 C10
A   13
 N1 
A   14
 C11
A   15
 O3 
A   16
 N2 
A   17
 C12
A   18
 C13
A   19
 C14
A   20
 C15
A   21
 H1 
A   22
 H2 
A   23
 H3 
A   24
 H4 
A   25
 H5 
A   26
 H6 
A   27
 H7 
A   28
 H8 
A   29
 H9 
A   30
 H10
A   31
 H11
A   32
 H12
A   33
 H13
A   34
 H14
A   35
 H15
A   36
 H16
A   37
 H17
A   38
 H18
A   39
 H19
A   40
 H20
A   41
 H21
A   42
 H22
M  END
>  <ref_pdb>  (471) 
x0051_0B

>  <ref_mols>  (471) 
x0443_0B,x1098_0B

>  <original SMILES>  (471) 
[H]c1c([H])c(C(=O)OC([H])([H])C([H])([H])C([H])([H])C([H])([H])[H])c([H])c(N([H])C(=O)N([H])C([H])([H])C([H])([H])C([H])([H])[H])c1[H]

>  <index>  (471) 
181

>  <∆∆G>  (471) 
-7.628281

>  <∆G_bound>  (471) 
-7.045885

>  <∆G_unbound>  (471) 
0.582396

>  <comRMSD>  (471) 
0.823203

>  <N_constrained_atoms>  (471) 
19.0

>  <N_unconstrained_atoms>  (471) 
5.0

>  <runtime>  (471) 
53.164015

>  <LE>  (471) 
0.317845

>  <percent_hybrid>  (471) 
19.0

>  <dist>  (471) 
12.0

>  <ecfp4>  (471) 
0.139535

>  <daylight>  (471) 
0.162698

>  <topodist>  (471) 
4.0

>  <mces>  (471) 
20.0

>  <tdn>  (471) 
2.0

>  <tup>  (471) 
0.0

>  <rdn>  (471) 
2.0

>  <rup>  (471) 
0.0

>  <ldn>  (471) 
0.0

>  <lup>  (471) 
0.0

>  <mut>  (471) 
5.0

>  <maj>  (471) 
5.0

>  <min>  (471) 
0.0

>  <hyb>  (471) 
3.0

>  <sub>  (471) 
2.0

>  <query_index>  (471) 
80.0

>  <max_hit_Tanimoto>  (471) 
0.206683

>  <largest_ring>  (471) 
0

>  <N_interactions_kept>  (471) 
4.0

>  <N_interactions_lost>  (471) 
2.0

>  <interaction_uniqueness_metric>  (471) 
0.276099

>  <ad_hoc_penalty>  (471) 
-23.402151

>  <N_rotatable_bonds>  (471) 
9

>  <N_HA>  (471) 
20

>  <cluster>  (471) 
6055

>  <N_interactions>  (471) 
10

>  <Enamine>  (471) 
1

>  <Mcule>  (471) 
0

>  <N_PAINS>  (471) 
0

>  <UFF_Gibbs>  (471) 
190.227216

>  <strain_per_HA>  (471) 
9.511361

>  <intxn_scored>  (471) 
7.5

>  <saltbridge:HIS:51>  (471) 
1

>  <pistack:HIS:51>  (471) 
0

>  <hydroph_interaction:HIS:51>  (471) 
1

>  <hbond:ALA:132>  (471) 
0

>  <hbond:SER:135>  (471) 
0

>  <hydroph_interaction:TYR:150>  (471) 
1

>  <pistack:TYR:161>  (471) 
0

>  <hydroph_interaction:TYR:161>  (471) 
3

>  <hydroph_interaction:ASP:83>  (471) 
0

>  <hbond:TYR:130>  (471) 
1

>  <hydroph_interaction:ALA:132>  (471) 
1

>  <hbond:HIS:51>  (471) 
0

>  <hbond:ASP:129>  (471) 
1

>  <hbond:TYR:150>  (471) 
0

>  <hbond:GLY:151>  (471) 
0

>  <hbond:TYR:161>  (471) 
0

>  <hydroph_interaction:TYR:130>  (471) 
0

>  <hydroph_interaction:PRO:131>  (471) 
0

>  <hydroph_interaction:ASP:129>  (471) 
0

>  <saltbridge:ASP:75>  (471) 
0

>  <saltbridge:ASP:83>  (471) 
0

>  <hbond:ASN:152>  (471) 
0

>  <hydroph_interaction:ASN:152>  (471) 
0

>  <halogenbond:TYR:150>  (471) 
0

>  <hbond:ASP:83>  (471) 
0

>  <hydroph_interaction:VAL:155>  (471) 
1

>  <pication:TYR:161>  (471) 
0

>  <hbond:PRO:131>  (471) 
0

>  <saltbridge:ASP:129>  (471) 
0

>  <hbond:THR:134>  (471) 
0

>  <pication:HIS:51>  (471) 
0

>  <hbond:SER:81>  (471) 
0

>  <hydroph_interaction:THR:134>  (471) 
0

>  <hydroph_interaction:MET:49>  (471) 
0

$$$$
CSSB00160513173
     RDKit          3D

 32 34  0  0  0  0  0  0  0  0999 V2000
   -2.7510    4.9500  -19.5960 O   0  0  0  0  0  0  0  0  0  0  0  0
   -3.5110    5.7390  -19.0330 C   0  0  0  0  0  0  0  0  0  0  0  0
   -5.0050    5.5420  -18.8820 C   0  0  0  0  0  0  0  0  0  0  0  0
   -5.6080    5.5190  -17.6160 C   0  0  0  0  0  0  0  0  0  0  0  0
   -5.0170    5.6720  -16.3580 N   0  0  0  0  0  0  0  0  0  0  0  0
   -5.2510    6.9040  -15.5750 C   0  0  0  0  0  0  0  0  0  0  0  0
   -4.1890    7.0690  -14.6860 C   0  0  0  0  0  0  0  0  0  0  0  0
   -3.9200    5.8560  -13.9630 O   0  0  0  0  0  0  0  0  0  0  0  0
   -3.4750    4.7720  -14.7950 C   0  0  0  0  0  0  0  0  0  0  0  0
   -3.6680    5.0970  -16.1370 C   0  0  0  0  0  0  0  0  0  0  0  0
   -7.1460    5.2760  -17.6770 C   0  0  0  0  0  0  0  0  0  0  0  0
   -7.9480    5.2210  -16.3570 C   0  0  0  0  0  0  0  0  0  0  0  0
   -9.4490    4.9700  -16.4750 C   0  0  0  0  0  0  0  0  0  0  0  0
  -10.0740    4.7890  -17.8350 C   0  0  0  0  0  0  0  0  0  0  0  0
   -9.1840    4.8630  -19.0610 C   0  0  0  0  0  0  0  0  0  0  0  0
   -7.8090    5.0950  -18.9150 C   0  0  0  0  0  0  0  0  0  0  0  0
   -7.0970    5.1380  -20.1110 O   0  0  0  0  0  0  0  0  0  0  0  0
   -5.7440    5.3820  -20.1500 C   0  0  0  0  0  0  0  0  0  0  0  0
   -5.1630    5.4720  -21.2300 O   0  0  0  0  0  0  0  0  0  0  0  0
   -3.1820    6.6780  -18.5760 H   0  0  0  0  0  0  0  0  0  0  0  0
   -5.2390    7.7590  -16.2630 H   0  0  0  0  0  0  0  0  0  0  0  0
   -6.2590    6.8600  -15.1700 H   0  0  0  0  0  0  0  0  0  0  0  0
   -4.3250    7.8180  -13.9090 H   0  0  0  0  0  0  0  0  0  0  0  0
   -3.2300    7.3270  -15.1320 H   0  0  0  0  0  0  0  0  0  0  0  0
   -4.0200    3.9040  -14.4330 H   0  0  0  0  0  0  0  0  0  0  0  0
   -2.4560    4.5860  -14.4650 H   0  0  0  0  0  0  0  0  0  0  0  0
   -2.9720    5.8100  -16.5700 H   0  0  0  0  0  0  0  0  0  0  0  0
   -3.5580    4.1810  -16.7240 H   0  0  0  0  0  0  0  0  0  0  0  0
   -7.4870    5.3490  -15.3820 H   0  0  0  0  0  0  0  0  0  0  0  0
  -10.0730    4.9190  -15.5720 H   0  0  0  0  0  0  0  0  0  0  0  0
  -11.1500    4.6080  -17.9360 H   0  0  0  0  0  0  0  0  0  0  0  0
   -9.6090    4.7360  -20.0510 H   0  0  0  0  0  0  0  0  0  0  0  0
  1  2  2  0
  2  3  1  0
  3  4  2  0
  4  5  1  0
  5  6  1  0
  6  7  1  0
  7  8  1  0
  8  9  1  0
  9 10  1  0
  4 11  1  0
 11 12  2  0
 12 13  1  0
 13 14  2  0
 14 15  1  0
 15 16  2  0
 16 17  1  0
 17 18  1  0
 18 19  2  0
 18  3  1  0
 10  5  1  0
 16 11  1  0
  2 20  1  0
  6 21  1  0
  6 22  1  0
  7 23  1  0
  7 24  1  0
  9 25  1  0
  9 26  1  0
 10 27  1  0
 10 28  1  0
 12 29  1  0
 13 30  1  0
 14 31  1  0
 15 32  1  0
A    1
 O1 
A    2
 C1 
A    3
 C2 
A    4
 C3 
A    5
 N1 
A    6
 C4 
A    7
 C5 
A    8
 O2 
A    9
 C6 
A   10
 C7 
A   11
 C8 
A   12
 C9 
A   13
 C10
A   14
 C11
A   15
 C12
A   16
 C13
A   17
 O3 
A   18
 C14
A   19
 O4 
A   20
 H1 
A   21
 H2 
A   22
 H3 
A   23
 H4 
A   24
 H5 
A   25
 H6 
A   26
 H7 
A   27
 H8 
A   28
 H9 
A   29
 H10
A   30
 H11
A   31
 H12
A   32
 H13
M  END
>  <ref_pdb>  (472) 
x0051_0B

>  <ref_mols>  (472) 
x0429_0B,x0089_0B

>  <original SMILES>  (472) 
[H]C(=O)c1c(N2C([H])([H])C([H])([H])OC([H])([H])C2([H])[H])c2c([H])c([H])c([H])c([H])c2oc1=O

>  <index>  (472) 
2319

>  <∆∆G>  (472) 
-5.553923

>  <∆G_bound>  (472) 
-3.309564

>  <∆G_unbound>  (472) 
2.244359

>  <comRMSD>  (472) 
0.400232

>  <N_constrained_atoms>  (472) 
19.0

>  <N_unconstrained_atoms>  (472) 
1.0

>  <runtime>  (472) 
21.873206

>  <LE>  (472) 
0.277696

>  <percent_hybrid>  (472) 
34.0

>  <dist>  (472) 
7.0

>  <ecfp4>  (472) 
0.115942

>  <daylight>  (472) 
0.117647

>  <topodist>  (472) 
3.0

>  <mces>  (472) 
20.0

>  <tdn>  (472) 
1.0

>  <tup>  (472) 
1.0

>  <rdn>  (472) 
0.0

>  <rup>  (472) 
0.0

>  <ldn>  (472) 
1.0

>  <lup>  (472) 
0.0

>  <mut>  (472) 
3.0

>  <maj>  (472) 
3.0

>  <min>  (472) 
0.0

>  <hyb>  (472) 
1.0

>  <sub>  (472) 
1.0

>  <query_index>  (472) 
103.0

>  <max_hit_Tanimoto>  (472) 
0.292169

>  <largest_ring>  (472) 
6

>  <N_interactions_kept>  (472) 
0.0

>  <N_interactions_lost>  (472) 
3.5

>  <interaction_uniqueness_metric>  (472) 
0.083941

>  <ad_hoc_penalty>  (472) 
-4.564697

>  <N_rotatable_bonds>  (472) 
2

>  <N_HA>  (472) 
19

>  <cluster>  (472) 
4087

>  <N_interactions>  (472) 
6

>  <Enamine>  (472) 
1

>  <Mcule>  (472) 
0

>  <N_PAINS>  (472) 
0

>  <UFF_Gibbs>  (472) 
120.993085

>  <strain_per_HA>  (472) 
6.368057

>  <intxn_scored>  (472) 
7.5

>  <saltbridge:HIS:51>  (472) 
0

>  <pistack:HIS:51>  (472) 
0

>  <hydroph_interaction:HIS:51>  (472) 
0

>  <hbond:ALA:132>  (472) 
0

>  <hbond:SER:135>  (472) 
0

>  <hydroph_interaction:TYR:150>  (472) 
1

>  <pistack:TYR:161>  (472) 
1

>  <hydroph_interaction:TYR:161>  (472) 
3

>  <hydroph_interaction:ASP:83>  (472) 
0

>  <hbond:TYR:130>  (472) 
0

>  <hydroph_interaction:ALA:132>  (472) 
0

>  <hbond:HIS:51>  (472) 
0

>  <hbond:ASP:129>  (472) 
1

>  <hbond:TYR:150>  (472) 
0

>  <hbond:GLY:151>  (472) 
0

>  <hbond:TYR:161>  (472) 
0

>  <hydroph_interaction:TYR:130>  (472) 
0

>  <hydroph_interaction:PRO:131>  (472) 
0

>  <hydroph_interaction:ASP:129>  (472) 
0

>  <saltbridge:ASP:75>  (472) 
0

>  <saltbridge:ASP:83>  (472) 
0

>  <hbond:ASN:152>  (472) 
0

>  <hydroph_interaction:ASN:152>  (472) 
0

>  <halogenbond:TYR:150>  (472) 
0

>  <hbond:ASP:83>  (472) 
0

>  <hydroph_interaction:VAL:155>  (472) 
0

>  <pication:TYR:161>  (472) 
0

>  <hbond:PRO:131>  (472) 
0

>  <saltbridge:ASP:129>  (472) 
0

>  <hbond:THR:134>  (472) 
0

>  <pication:HIS:51>  (472) 
0

>  <hbond:SER:81>  (472) 
0

>  <hydroph_interaction:THR:134>  (472) 
0

>  <hydroph_interaction:MET:49>  (472) 
0

$$$$
Z2853452587
     RDKit          3D

 44 46  0  0  0  0  0  0  0  0999 V2000
   -5.3920    4.7440  -14.5350 C   0  0  0  0  0  0  0  0  0  0  0  0
   -6.7240    5.0970  -14.7190 C   0  0  0  0  0  0  0  0  0  0  0  0
   -7.1070    6.3600  -14.0340 N   0  0  0  0  0  0  0  0  0  0  0  0
   -8.3260    6.3880  -13.1790 C   0  0  0  0  0  0  0  0  0  0  0  0
   -8.4910    5.3400  -12.2520 C   0  0  0  0  0  0  0  0  0  0  0  0
   -8.6140    5.6020  -10.7550 C   0  0  0  0  0  0  0  0  0  0  0  0
   -8.9090    4.4400   -9.8290 C   0  0  0  0  0  0  0  0  0  0  0  0
   -9.1310    2.9900  -10.0750 C   0  0  0  0  0  0  0  0  0  0  0  0
   -9.4790    2.1300   -8.8660 C   0  0  0  0  0  0  0  0  0  0  0  0
   -9.5730    2.9070   -7.5790 C   0  0  0  0  0  0  0  0  0  0  0  0
   -9.1620    4.3440   -7.3470 C   0  0  0  0  0  0  0  0  0  0  0  0
   -8.9330    5.0320   -8.5920 N   0  0  0  0  0  0  0  0  0  0  0  0
   -8.7130    6.3720   -8.6050 N   0  0  0  0  0  0  0  0  0  0  0  0
   -8.5240    6.7170   -9.8940 C   0  0  0  0  0  0  0  0  0  0  0  0
   -7.1140    5.1330  -16.2000 C   0  0  0  0  0  0  0  0  0  0  0  0
   -6.1050    5.3390  -17.3440 C   0  0  0  0  0  0  0  0  0  0  0  0
   -6.6290    5.3380  -18.6450 C   0  0  0  0  0  0  0  0  0  0  0  0
   -7.9840    5.1580  -18.8920 C   0  0  0  0  0  0  0  0  0  0  0  0
   -8.8830    4.9730  -17.8510 C   0  0  0  0  0  0  0  0  0  0  0  0
  -10.2450    4.8030  -18.1850 C   0  0  0  0  0  0  0  0  0  0  0  0
  -11.3330    4.6980  -18.4990 N   0  0  0  0  0  0  0  0  0  0  0  0
   -8.4640    4.9600  -16.5260 C   0  0  0  0  0  0  0  0  0  0  0  0
   -4.7250    5.4350  -14.0330 H   0  0  0  0  0  0  0  0  0  0  0  0
   -4.9330    4.5510  -15.5110 H   0  0  0  0  0  0  0  0  0  0  0  0
   -5.3240    3.8060  -13.9750 H   0  0  0  0  0  0  0  0  0  0  0  0
   -7.3100    4.2750  -14.2870 H   0  0  0  0  0  0  0  0  0  0  0  0
   -6.3140    6.6930  -13.4870 H   0  0  0  0  0  0  0  0  0  0  0  0
   -8.4080    7.3550  -12.6680 H   0  0  0  0  0  0  0  0  0  0  0  0
   -9.1850    6.3600  -13.8630 H   0  0  0  0  0  0  0  0  0  0  0  0
   -7.6480    4.6490  -12.3890 H   0  0  0  0  0  0  0  0  0  0  0  0
   -9.3760    4.7590  -12.5410 H   0  0  0  0  0  0  0  0  0  0  0  0
   -8.2240    2.5870  -10.5420 H   0  0  0  0  0  0  0  0  0  0  0  0
   -9.9320    2.8690  -10.8140 H   0  0  0  0  0  0  0  0  0  0  0  0
   -8.7640    1.3190   -8.7680 H   0  0  0  0  0  0  0  0  0  0  0  0
  -10.4460    1.6830   -9.0250 H   0  0  0  0  0  0  0  0  0  0  0  0
   -8.9990    2.3180   -6.8560 H   0  0  0  0  0  0  0  0  0  0  0  0
  -10.6100    2.8220   -7.2350 H   0  0  0  0  0  0  0  0  0  0  0  0
   -9.9420    4.8970   -6.8130 H   0  0  0  0  0  0  0  0  0  0  0  0
   -8.2350    4.3840   -6.7650 H   0  0  0  0  0  0  0  0  0  0  0  0
   -8.3270    7.7500  -10.1450 H   0  0  0  0  0  0  0  0  0  0  0  0
   -5.0400    5.4790  -17.1780 H   0  0  0  0  0  0  0  0  0  0  0  0
   -5.9560    5.4800  -19.4880 H   0  0  0  0  0  0  0  0  0  0  0  0
   -8.3390    5.1660  -19.9220 H   0  0  0  0  0  0  0  0  0  0  0  0
   -9.1930    4.8130  -15.7290 H   0  0  0  0  0  0  0  0  0  0  0  0
  1  2  1  0
  2  3  1  0
  3  4  1  0
  4  5  1  0
  5  6  1  0
  6  7  2  0
  7  8  1  0
  8  9  1  0
  9 10  1  0
 10 11  1  0
 11 12  1  0
 12 13  1  0
 13 14  2  0
  2 15  1  0
 15 16  2  0
 16 17  1  0
 17 18  2  0
 18 19  1  0
 19 20  1  0
 20 21  3  0
 19 22  2  0
 14  6  1  0
 12  7  1  0
 22 15  1  0
  1 23  1  0
  1 24  1  0
  1 25  1  0
  2 26  1  0
  3 27  1  0
  4 28  1  0
  4 29  1  0
  5 30  1  0
  5 31  1  0
  8 32  1  0
  8 33  1  0
  9 34  1  0
  9 35  1  0
 10 36  1  0
 10 37  1  0
 11 38  1  0
 11 39  1  0
 14 40  1  0
 16 41  1  0
 17 42  1  0
 18 43  1  0
 22 44  1  0
A    1
 C1 
A    2
 C2 
A    3
 N1 
A    4
 C3 
A    5
 C4 
A    6
 C5 
A    7
 C6 
A    8
 C7 
A    9
 C8 
A   10
 C9 
A   11
 C10
A   12
 N2 
A   13
 N3 
A   14
 C11
A   15
 C12
A   16
 C13
A   17
 C14
A   18
 C15
A   19
 C16
A   20
 C17
A   21
 N4 
A   22
 C18
A   23
 H1 
A   24
 H2 
A   25
 H3 
A   26
 H4 
A   27
 H5 
A   28
 H6 
A   29
 H7 
A   30
 H8 
A   31
 H9 
A   32
 H10
A   33
 H11
A   34
 H12
A   35
 H13
A   36
 H14
A   37
 H15
A   38
 H16
A   39
 H17
A   40
 H18
A   41
 H19
A   42
 H20
A   43
 H21
A   44
 H22
M  END
>  <ref_pdb>  (473) 
x0051_0B

>  <ref_mols>  (473) 
x0605_0B,x0969_1B

>  <original SMILES>  (473) 
[H]c1nn2c(c1C([H])([H])C([H])([H])N([H])C([H])(c1c([H])c([H])c([H])c(C#N)c1[H])C([H])([H])[H])C([H])([H])C([H])([H])C([H])([H])C2([H])[H]

>  <index>  (473) 
2662

>  <∆∆G>  (473) 
-5.939589

>  <∆G_bound>  (473) 
-5.800987

>  <∆G_unbound>  (473) 
0.138602

>  <comRMSD>  (473) 
0.469004

>  <N_constrained_atoms>  (473) 
19.0

>  <N_unconstrained_atoms>  (473) 
3.0

>  <runtime>  (473) 
63.560393

>  <LE>  (473) 
0.269981

>  <percent_hybrid>  (473) 
48.0

>  <dist>  (473) 
5.0

>  <ecfp4>  (473) 
0.294872

>  <daylight>  (473) 
0.334586

>  <topodist>  (473) 
1.0

>  <mces>  (473) 
23.0

>  <tdn>  (473) 
0.0

>  <tup>  (473) 
1.0

>  <rdn>  (473) 
0.0

>  <rup>  (473) 
0.0

>  <ldn>  (473) 
0.0

>  <lup>  (473) 
0.0

>  <mut>  (473) 
3.0

>  <maj>  (473) 
3.0

>  <min>  (473) 
0.0

>  <hyb>  (473) 
1.0

>  <sub>  (473) 
1.0

>  <query_index>  (473) 
307.0

>  <max_hit_Tanimoto>  (473) 
0.342275

>  <largest_ring>  (473) 
6

>  <N_interactions_kept>  (473) 
1.5

>  <N_interactions_lost>  (473) 
1.5

>  <interaction_uniqueness_metric>  (473) 
0.088237

>  <ad_hoc_penalty>  (473) 
-4.254666

>  <N_rotatable_bonds>  (473) 
6

>  <N_HA>  (473) 
22

>  <cluster>  (473) 
3763

>  <N_interactions>  (473) 
4

>  <Enamine>  (473) 
1

>  <Mcule>  (473) 
0

>  <N_PAINS>  (473) 
0

>  <UFF_Gibbs>  (473) 
109.364408

>  <strain_per_HA>  (473) 
4.971109

>  <intxn_scored>  (473) 
7.5

>  <saltbridge:HIS:51>  (473) 
0

>  <pistack:HIS:51>  (473) 
1

>  <hydroph_interaction:HIS:51>  (473) 
1

>  <hbond:ALA:132>  (473) 
0

>  <hbond:SER:135>  (473) 
0

>  <hydroph_interaction:TYR:150>  (473) 
0

>  <pistack:TYR:161>  (473) 
1

>  <hydroph_interaction:TYR:161>  (473) 
1

>  <hydroph_interaction:ASP:83>  (473) 
0

>  <hbond:TYR:130>  (473) 
0

>  <hydroph_interaction:ALA:132>  (473) 
0

>  <hbond:HIS:51>  (473) 
0

>  <hbond:ASP:129>  (473) 
0

>  <hbond:TYR:150>  (473) 
0

>  <hbond:GLY:151>  (473) 
0

>  <hbond:TYR:161>  (473) 
0

>  <hydroph_interaction:TYR:130>  (473) 
0

>  <hydroph_interaction:PRO:131>  (473) 
0

>  <hydroph_interaction:ASP:129>  (473) 
0

>  <saltbridge:ASP:75>  (473) 
0

>  <saltbridge:ASP:83>  (473) 
0

>  <hbond:ASN:152>  (473) 
0

>  <hydroph_interaction:ASN:152>  (473) 
0

>  <halogenbond:TYR:150>  (473) 
0

>  <hbond:ASP:83>  (473) 
0

>  <hydroph_interaction:VAL:155>  (473) 
0

>  <pication:TYR:161>  (473) 
0

>  <hbond:PRO:131>  (473) 
0

>  <saltbridge:ASP:129>  (473) 
0

>  <hbond:THR:134>  (473) 
0

>  <pication:HIS:51>  (473) 
0

>  <hbond:SER:81>  (473) 
0

>  <hydroph_interaction:THR:134>  (473) 
0

>  <hydroph_interaction:MET:49>  (473) 
0

$$$$
Z1272795092
     RDKit          3D

 42 44  0  0  0  0  0  0  0  0999 V2000
   -6.4600    5.5940  -18.8770 C   0  0  0  0  0  0  0  0  0  0  0  0
   -7.8120    5.2830  -18.2560 C   0  0  0  0  0  0  0  0  0  0  0  0
   -8.0820    5.7540  -16.8320 C   0  0  0  0  0  0  0  0  0  0  0  0
   -7.1380    6.5020  -16.0630 C   0  0  0  0  0  0  0  0  0  0  0  0
   -7.4270    7.2520  -14.6970 C   0  0  0  0  0  0  0  0  0  0  0  0
   -8.7910    7.1610  -14.0690 C   0  0  0  0  0  0  0  0  0  0  0  0
   -9.7880    7.6770  -14.5120 O   0  0  0  0  0  0  0  0  0  0  0  0
   -8.8330    6.4190  -12.9000 C   0  0  0  0  0  0  0  0  0  0  0  0
   -8.7080    7.0280  -11.6450 C   0  0  0  0  0  0  0  0  0  0  0  0
   -8.7130    6.3630  -10.4240 C   0  0  0  0  0  0  0  0  0  0  0  0
   -8.8500    4.9700  -10.4230 C   0  0  0  0  0  0  0  0  0  0  0  0
   -8.8360    4.3210   -9.1290 N   0  0  0  0  0  0  0  0  0  0  0  0
   -8.9890    2.8610   -9.2230 C   0  0  0  0  0  0  0  0  0  0  0  0
   -9.6210    2.4490   -8.0610 C   0  0  0  0  0  0  0  0  0  0  0  0
   -9.2160    3.1420   -6.7440 C   0  0  0  0  0  0  0  0  0  0  0  0
   -8.7770    4.4510   -6.8370 C   0  0  0  0  0  0  0  0  0  0  0  0
   -8.1330    4.8760   -7.9840 C   0  0  0  0  0  0  0  0  0  0  0  0
   -8.9890    4.2890  -11.6370 C   0  0  0  0  0  0  0  0  0  0  0  0
   -8.9810    5.0460  -12.9420 C   0  0  0  0  0  0  0  0  0  0  0  0
   -9.6670    5.2310  -16.4600 S   0  0  0  0  0  0  0  0  0  0  0  0
   -9.8410    4.5450  -18.0460 C   0  0  0  0  0  0  0  0  0  0  0  0
   -8.8290    4.6160  -18.8880 N   0  0  0  0  0  0  0  0  0  0  0  0
   -6.3590    5.0740  -19.8380 H   0  0  0  0  0  0  0  0  0  0  0  0
   -5.6390    5.2530  -18.2370 H   0  0  0  0  0  0  0  0  0  0  0  0
   -6.3330    6.6650  -19.0630 H   0  0  0  0  0  0  0  0  0  0  0  0
   -6.1260    6.5840  -16.4580 H   0  0  0  0  0  0  0  0  0  0  0  0
   -6.6320    7.8090  -14.2090 H   0  0  0  0  0  0  0  0  0  0  0  0
   -8.5940    8.1180  -11.6210 H   0  0  0  0  0  0  0  0  0  0  0  0
   -8.6080    6.9020   -9.4870 H   0  0  0  0  0  0  0  0  0  0  0  0
   -8.0000    2.4060   -9.2460 H   0  0  0  0  0  0  0  0  0  0  0  0
   -9.4570    2.6120  -10.1700 H   0  0  0  0  0  0  0  0  0  0  0  0
  -10.6980    2.5970   -8.1960 H   0  0  0  0  0  0  0  0  0  0  0  0
   -9.4910    1.3750   -7.9460 H   0  0  0  0  0  0  0  0  0  0  0  0
   -8.4300    2.5560   -6.2510 H   0  0  0  0  0  0  0  0  0  0  0  0
  -10.0910    3.1270   -6.0850 H   0  0  0  0  0  0  0  0  0  0  0  0
   -9.6540    5.0990   -6.6950 H   0  0  0  0  0  0  0  0  0  0  0  0
   -8.1280    4.6540   -5.9770 H   0  0  0  0  0  0  0  0  0  0  0  0
   -8.1170    5.9700   -8.0380 H   0  0  0  0  0  0  0  0  0  0  0  0
   -7.0980    4.5160   -7.9310 H   0  0  0  0  0  0  0  0  0  0  0  0
   -9.1010    3.2090  -11.6710 H   0  0  0  0  0  0  0  0  0  0  0  0
   -9.0870    4.4970  -13.8750 H   0  0  0  0  0  0  0  0  0  0  0  0
  -10.7580    4.0690  -18.3430 H   0  0  0  0  0  0  0  0  0  0  0  0
  1  2  1  0
  2  3  2  0
  3  4  1  0
  4  5  2  3
  5  6  1  0
  6  7  2  0
  6  8  1  0
  8  9  2  0
  9 10  1  0
 10 11  2  0
 11 12  1  0
 12 13  1  0
 13 14  1  0
 14 15  1  0
 15 16  1  0
 16 17  1  0
 11 18  1  0
 18 19  2  0
  3 20  1  0
 20 21  1  0
 21 22  2  0
 22  2  1  0
 19  8  1  0
 17 12  1  0
  1 23  1  0
  1 24  1  0
  1 25  1  0
  4 26  1  0
  5 27  1  0
  9 28  1  0
 10 29  1  0
 13 30  1  0
 13 31  1  0
 14 32  1  0
 14 33  1  0
 15 34  1  0
 15 35  1  0
 16 36  1  0
 16 37  1  0
 17 38  1  0
 17 39  1  0
 18 40  1  0
 19 41  1  0
 21 42  1  0
A    1
 C1 
A    2
 C2 
A    3
 C3 
A    4
 C4 
A    5
 C5 
A    6
 C6 
A    7
 O1 
A    8
 C7 
A    9
 C8 
A   10
 C9 
A   11
 C10
A   12
 N1 
A   13
 C11
A   14
 C12
A   15
 C13
A   16
 C14
A   17
 C15
A   18
 C16
A   19
 C17
A   20
 S1 
A   21
 C18
A   22
 N2 
A   23
 H1 
A   24
 H2 
A   25
 H3 
A   26
 H4 
A   27
 H5 
A   28
 H6 
A   29
 H7 
A   30
 H8 
A   31
 H9 
A   32
 H10
A   33
 H11
A   34
 H12
A   35
 H13
A   36
 H14
A   37
 H15
A   38
 H16
A   39
 H17
A   40
 H18
A   41
 H19
A   42
 H20
M  END
>  <ref_pdb>  (474) 
x0051_0B

>  <ref_mols>  (474) 
x0386_0B,x0404_0B

>  <original SMILES>  (474) 
[H]C(C(=O)c1c([H])c([H])c(N2C([H])([H])C([H])([H])C([H])([H])C([H])([H])C2([H])[H])c([H])c1[H])=C([H])c1sc([H])nc1C([H])([H])[H]

>  <index>  (474) 
852

>  <∆∆G>  (474) 
-6.717739

>  <∆G_bound>  (474) 
-5.961976

>  <∆G_unbound>  (474) 
0.755763

>  <comRMSD>  (474) 
0.798871

>  <N_constrained_atoms>  (474) 
22.0

>  <N_unconstrained_atoms>  (474) 
1.0

>  <runtime>  (474) 
87.06437

>  <LE>  (474) 
0.292076

>  <percent_hybrid>  (474) 
32.0

>  <dist>  (474) 
7.0

>  <ecfp4>  (474) 
0.217949

>  <daylight>  (474) 
0.179104

>  <topodist>  (474) 
2.0

>  <mces>  (474) 
24.0

>  <tdn>  (474) 
2.0

>  <tup>  (474) 
0.0

>  <rdn>  (474) 
0.0

>  <rup>  (474) 
0.0

>  <ldn>  (474) 
0.0

>  <lup>  (474) 
0.0

>  <mut>  (474) 
5.0

>  <maj>  (474) 
4.0

>  <min>  (474) 
1.0

>  <hyb>  (474) 
0.0

>  <sub>  (474) 
1.0

>  <query_index>  (474) 
109.0

>  <max_hit_Tanimoto>  (474) 
0.23594

>  <largest_ring>  (474) 
6

>  <N_interactions_kept>  (474) 
2.5

>  <N_interactions_lost>  (474) 
1.0

>  <interaction_uniqueness_metric>  (474) 
0.072865

>  <ad_hoc_penalty>  (474) 
-13.016457

>  <N_rotatable_bonds>  (474) 
5

>  <N_HA>  (474) 
22

>  <cluster>  (474) 
5439

>  <N_interactions>  (474) 
4

>  <Enamine>  (474) 
1

>  <Mcule>  (474) 
0

>  <N_PAINS>  (474) 
0

>  <UFF_Gibbs>  (474) 
170.059977

>  <strain_per_HA>  (474) 
7.729999

>  <intxn_scored>  (474) 
7.5

>  <saltbridge:HIS:51>  (474) 
0

>  <pistack:HIS:51>  (474) 
1

>  <hydroph_interaction:HIS:51>  (474) 
0

>  <hbond:ALA:132>  (474) 
0

>  <hbond:SER:135>  (474) 
0

>  <hydroph_interaction:TYR:150>  (474) 
0

>  <pistack:TYR:161>  (474) 
1

>  <hydroph_interaction:TYR:161>  (474) 
1

>  <hydroph_interaction:ASP:83>  (474) 
0

>  <hbond:TYR:130>  (474) 
0

>  <hydroph_interaction:ALA:132>  (474) 
1

>  <hbond:HIS:51>  (474) 
0

>  <hbond:ASP:129>  (474) 
0

>  <hbond:TYR:150>  (474) 
0

>  <hbond:GLY:151>  (474) 
0

>  <hbond:TYR:161>  (474) 
0

>  <hydroph_interaction:TYR:130>  (474) 
0

>  <hydroph_interaction:PRO:131>  (474) 
0

>  <hydroph_interaction:ASP:129>  (474) 
0

>  <saltbridge:ASP:75>  (474) 
0

>  <saltbridge:ASP:83>  (474) 
0

>  <hbond:ASN:152>  (474) 
0

>  <hydroph_interaction:ASN:152>  (474) 
0

>  <halogenbond:TYR:150>  (474) 
0

>  <hbond:ASP:83>  (474) 
0

>  <hydroph_interaction:VAL:155>  (474) 
0

>  <pication:TYR:161>  (474) 
0

>  <hbond:PRO:131>  (474) 
0

>  <saltbridge:ASP:129>  (474) 
0

>  <hbond:THR:134>  (474) 
0

>  <pication:HIS:51>  (474) 
0

>  <hbond:SER:81>  (474) 
0

>  <hydroph_interaction:THR:134>  (474) 
0

>  <hydroph_interaction:MET:49>  (474) 
0

$$$$
Z2761262228
     RDKit          3D

 45 47  0  0  0  0  0  0  0  0999 V2000
  -10.5870    4.6530  -18.4040 C   0  0  0  0  0  0  0  0  0  0  0  0
   -9.3050    4.9600  -17.6990 C   0  0  0  0  0  0  0  0  0  0  0  0
   -8.1420    5.1610  -18.6570 C   0  0  0  0  0  0  0  0  0  0  0  0
   -6.8150    5.4720  -18.0010 C   0  0  0  0  0  0  0  0  0  0  0  0
   -5.7350    5.6570  -18.8910 C   0  0  0  0  0  0  0  0  0  0  0  0
   -6.7010    5.5600  -16.6130 C   0  0  0  0  0  0  0  0  0  0  0  0
   -7.9450    5.3400  -15.7020 C   0  0  0  0  0  0  0  0  0  0  0  0
   -7.6230    5.4740  -14.1750 C   0  0  0  0  0  0  0  0  0  0  0  0
   -8.7810    5.4350  -13.2480 N   0  0  0  0  0  0  0  0  0  0  0  0
   -8.7250    6.4700  -12.1890 C   0  0  0  0  0  0  0  0  0  0  0  0
   -8.8050    6.0150  -10.8260 C   0  0  0  0  0  0  0  0  0  0  0  0
   -8.9930    4.6810  -10.2410 C   0  0  0  0  0  0  0  0  0  0  0  0
   -9.1460    3.4470  -11.0730 C   0  0  0  0  0  0  0  0  0  0  0  0
   -9.0070    2.2390  -10.3000 N   0  0  0  0  0  0  0  0  0  0  0  0
   -7.8150    1.6070  -10.8640 C   0  0  0  0  0  0  0  0  0  0  0  0
   -9.2820    2.2830   -8.9060 C   0  0  0  0  0  0  0  0  0  0  0  0
   -9.1740    3.5940   -8.0740 C   0  0  0  0  0  0  0  0  0  0  0  0
   -9.0020    4.7590   -8.9160 N   0  0  0  0  0  0  0  0  0  0  0  0
   -8.8370    6.0240   -8.4760 N   0  0  0  0  0  0  0  0  0  0  0  0
   -8.7210    6.7710   -9.6130 C   0  0  0  0  0  0  0  0  0  0  0  0
   -9.1860    5.0500  -16.2940 C   0  0  0  0  0  0  0  0  0  0  0  0
  -10.3770    3.7220  -18.8950 H   0  0  0  0  0  0  0  0  0  0  0  0
  -10.8360    5.4270  -19.1370 H   0  0  0  0  0  0  0  0  0  0  0  0
  -11.4140    4.5140  -17.7330 H   0  0  0  0  0  0  0  0  0  0  0  0
   -8.2550    5.0860  -19.7390 H   0  0  0  0  0  0  0  0  0  0  0  0
   -5.4210    6.6380  -19.2220 H   0  0  0  0  0  0  0  0  0  0  0  0
   -5.9580    5.0830  -19.7970 H   0  0  0  0  0  0  0  0  0  0  0  0
   -4.8390    5.2100  -18.4460 H   0  0  0  0  0  0  0  0  0  0  0  0
   -5.7380    5.7840  -16.1580 H   0  0  0  0  0  0  0  0  0  0  0  0
   -7.0770    6.4170  -14.0430 H   0  0  0  0  0  0  0  0  0  0  0  0
   -6.9140    4.6730  -13.9310 H   0  0  0  0  0  0  0  0  0  0  0  0
   -8.8090    4.5150  -12.8150 H   0  0  0  0  0  0  0  0  0  0  0  0
   -7.7690    6.9970  -12.2980 H   0  0  0  0  0  0  0  0  0  0  0  0
   -9.4940    7.2270  -12.3790 H   0  0  0  0  0  0  0  0  0  0  0  0
   -8.3410    3.4520  -11.8180 H   0  0  0  0  0  0  0  0  0  0  0  0
  -10.0530    3.4400  -11.6470 H   0  0  0  0  0  0  0  0  0  0  0  0
   -6.8890    2.1240  -10.6700 H   0  0  0  0  0  0  0  0  0  0  0  0
   -7.9110    1.5750  -11.9500 H   0  0  0  0  0  0  0  0  0  0  0  0
   -7.7140    0.5850  -10.5660 H   0  0  0  0  0  0  0  0  0  0  0  0
   -8.7100    1.5070   -8.4050 H   0  0  0  0  0  0  0  0  0  0  0  0
  -10.3120    1.9350   -8.7960 H   0  0  0  0  0  0  0  0  0  0  0  0
  -10.0720    3.7310   -7.4710 H   0  0  0  0  0  0  0  0  0  0  0  0
   -8.3180    3.5720   -7.3980 H   0  0  0  0  0  0  0  0  0  0  0  0
   -8.5800    7.8390   -9.5160 H   0  0  0  0  0  0  0  0  0  0  0  0
  -10.0630    4.8930  -15.6690 H   0  0  0  0  0  0  0  0  0  0  0  0
  1  2  1  0
  2  3  2  0
  3  4  1  0
  4  5  1  0
  4  6  2  0
  6  7  1  0
  7  8  1  0
  8  9  1  0
  9 10  1  0
 10 11  1  0
 11 12  2  0
 12 13  1  0
 13 14  1  0
 14 15  1  0
 14 16  1  0
 16 17  1  0
 17 18  1  0
 18 19  1  0
 19 20  2  0
  7 21  2  0
 21  2  1  0
 20 11  1  0
 18 12  1  0
  1 22  1  0
  1 23  1  0
  1 24  1  0
  3 25  1  0
  5 26  1  0
  5 27  1  0
  5 28  1  0
  6 29  1  0
  8 30  1  0
  8 31  1  0
  9 32  1  0
 10 33  1  0
 10 34  1  0
 13 35  1  0
 13 36  1  0
 15 37  1  0
 15 38  1  0
 15 39  1  0
 16 40  1  0
 16 41  1  0
 17 42  1  0
 17 43  1  0
 20 44  1  0
 21 45  1  0
A    1
 C1 
A    2
 C2 
A    3
 C3 
A    4
 C4 
A    5
 C5 
A    6
 C6 
A    7
 C7 
A    8
 C8 
A    9
 N1 
A   10
 C9 
A   11
 C10
A   12
 C11
A   13
 C12
A   14
 N2 
A   15
 C13
A   16
 C14
A   17
 C15
A   18
 N3 
A   19
 N4 
A   20
 C16
A   21
 C17
A   22
 H1 
A   23
 H2 
A   24
 H3 
A   25
 H4 
A   26
 H5 
A   27
 H6 
A   28
 H7 
A   29
 H8 
A   30
 H9 
A   31
 H10
A   32
 H11
A   33
 H12
A   34
 H13
A   35
 H14
A   36
 H15
A   37
 H16
A   38
 H17
A   39
 H18
A   40
 H19
A   41
 H20
A   42
 H21
A   43
 H22
A   44
 H23
A   45
 H24
M  END
>  <ref_pdb>  (475) 
x0051_0B

>  <ref_mols>  (475) 
x0589_0B,x0969_1B

>  <original SMILES>  (475) 
[H]c1nn2c(c1C([H])([H])N([H])C([H])([H])c1c([H])c(C([H])([H])[H])c([H])c(C([H])([H])[H])c1[H])C([H])([H])N(C([H])([H])[H])C([H])([H])C2([H])[H]

>  <index>  (475) 
549

>  <∆∆G>  (475) 
-6.160329

>  <∆G_bound>  (475) 
-5.857972

>  <∆G_unbound>  (475) 
0.302358

>  <comRMSD>  (475) 
0.705053

>  <N_constrained_atoms>  (475) 
18.0

>  <N_unconstrained_atoms>  (475) 
3.0

>  <runtime>  (475) 
40.54631

>  <LE>  (475) 
0.293349

>  <percent_hybrid>  (475) 
45.0

>  <dist>  (475) 
4.0

>  <ecfp4>  (475) 
0.373134

>  <daylight>  (475) 
0.561321

>  <topodist>  (475) 
1.0

>  <mces>  (475) 
22.0

>  <tdn>  (475) 
0.0

>  <tup>  (475) 
1.0

>  <rdn>  (475) 
0.0

>  <rup>  (475) 
0.0

>  <ldn>  (475) 
0.0

>  <lup>  (475) 
0.0

>  <mut>  (475) 
3.0

>  <maj>  (475) 
3.0

>  <min>  (475) 
0.0

>  <hyb>  (475) 
0.0

>  <sub>  (475) 
1.0

>  <query_index>  (475) 
379.0

>  <max_hit_Tanimoto>  (475) 
0.666195

>  <largest_ring>  (475) 
6

>  <N_interactions_kept>  (475) 
1.5

>  <N_interactions_lost>  (475) 
1.0

>  <interaction_uniqueness_metric>  (475) 
0.312319

>  <ad_hoc_penalty>  (475) 
-15.928787

>  <N_rotatable_bonds>  (475) 
7

>  <N_HA>  (475) 
21

>  <cluster>  (475) 
5716

>  <N_interactions>  (475) 
6

>  <Enamine>  (475) 
1

>  <Mcule>  (475) 
0

>  <N_PAINS>  (475) 
0

>  <UFF_Gibbs>  (475) 
221.8603

>  <strain_per_HA>  (475) 
10.564776

>  <intxn_scored>  (475) 
7.5

>  <saltbridge:HIS:51>  (475) 
0

>  <pistack:HIS:51>  (475) 
0

>  <hydroph_interaction:HIS:51>  (475) 
0

>  <hbond:ALA:132>  (475) 
0

>  <hbond:SER:135>  (475) 
0

>  <hydroph_interaction:TYR:150>  (475) 
1

>  <pistack:TYR:161>  (475) 
1

>  <hydroph_interaction:TYR:161>  (475) 
1

>  <hydroph_interaction:ASP:83>  (475) 
0

>  <hbond:TYR:130>  (475) 
0

>  <hydroph_interaction:ALA:132>  (475) 
0

>  <hbond:HIS:51>  (475) 
0

>  <hbond:ASP:129>  (475) 
0

>  <hbond:TYR:150>  (475) 
0

>  <hbond:GLY:151>  (475) 
1

>  <hbond:TYR:161>  (475) 
0

>  <hydroph_interaction:TYR:130>  (475) 
0

>  <hydroph_interaction:PRO:131>  (475) 
0

>  <hydroph_interaction:ASP:129>  (475) 
0

>  <saltbridge:ASP:75>  (475) 
1

>  <saltbridge:ASP:83>  (475) 
1

>  <hbond:ASN:152>  (475) 
0

>  <hydroph_interaction:ASN:152>  (475) 
0

>  <halogenbond:TYR:150>  (475) 
0

>  <hbond:ASP:83>  (475) 
0

>  <hydroph_interaction:VAL:155>  (475) 
0

>  <pication:TYR:161>  (475) 
0

>  <hbond:PRO:131>  (475) 
0

>  <saltbridge:ASP:129>  (475) 
0

>  <hbond:THR:134>  (475) 
0

>  <pication:HIS:51>  (475) 
0

>  <hbond:SER:81>  (475) 
0

>  <hydroph_interaction:THR:134>  (475) 
0

>  <hydroph_interaction:MET:49>  (475) 
0

$$$$
CSSS00010097187
     RDKit          3D

 20 21  0  0  0  0  0  0  0  0999 V2000
   -5.5990    5.7000  -15.4380 N   0  0  0  0  0  0  0  0  0  0  0  0
   -5.8900    5.4950  -16.8050 C   0  0  0  0  0  0  0  0  0  0  0  0
   -4.7400    5.5370  -17.7780 C   0  0  0  0  0  0  0  0  0  0  0  0
   -3.1100    5.8120  -17.3180 Cl  0  0  0  0  0  0  0  0  0  0  0  0
   -5.0750    5.3170  -19.2120 C   0  0  0  0  0  0  0  0  0  0  0  0
   -6.3990    5.0840  -19.5720 C   0  0  0  0  0  0  0  0  0  0  0  0
   -6.5590    4.8250  -21.2660 Cl  0  0  0  0  0  0  0  0  0  0  0  0
   -7.4660    5.0510  -18.6270 C   0  0  0  0  0  0  0  0  0  0  0  0
   -8.7770    4.8070  -19.0390 C   0  0  0  0  0  0  0  0  0  0  0  0
   -9.8090    4.7640  -18.1000 C   0  0  0  0  0  0  0  0  0  0  0  0
   -9.5240    4.9660  -16.7440 C   0  0  0  0  0  0  0  0  0  0  0  0
   -8.2160    5.2140  -16.3220 C   0  0  0  0  0  0  0  0  0  0  0  0
   -7.1810    5.2590  -17.2410 C   0  0  0  0  0  0  0  0  0  0  0  0
   -6.1940    5.1720  -14.8080 H   0  0  0  0  0  0  0  0  0  0  0  0
   -5.5710    6.6900  -15.1970 H   0  0  0  0  0  0  0  0  0  0  0  0
   -4.2920    5.3320  -19.9660 H   0  0  0  0  0  0  0  0  0  0  0  0
   -9.0050    4.6470  -20.0900 H   0  0  0  0  0  0  0  0  0  0  0  0
  -10.8270    4.5730  -18.4340 H   0  0  0  0  0  0  0  0  0  0  0  0
  -10.3180    4.9320  -16.0090 H   0  0  0  0  0  0  0  0  0  0  0  0
   -8.0430    5.3650  -15.2600 H   0  0  0  0  0  0  0  0  0  0  0  0
  1  2  1  0
  2  3  2  0
  3  4  1  0
  3  5  1  0
  5  6  2  0
  6  7  1  0
  6  8  1  0
  8  9  2  0
  9 10  1  0
 10 11  2  0
 11 12  1  0
 12 13  2  0
 13  2  1  0
 13  8  1  0
  1 14  1  0
  1 15  1  0
  5 16  1  0
  9 17  1  0
 10 18  1  0
 11 19  1  0
 12 20  1  0
A    1
 N1 
A    2
 C1 
A    3
 C2 
A    4
CL1 
A    5
 C3 
A    6
 C4 
A    7
CL2 
A    8
 C5 
A    9
 C6 
A   10
 C7 
A   11
 C8 
A   12
 C9 
A   13
 C10
A   14
 H1 
A   15
 H2 
A   16
 H3 
A   17
 H4 
A   18
 H5 
A   19
 H6 
A   20
 H7 
M  END
>  <ref_pdb>  (476) 
x0051_0B

>  <ref_mols>  (476) 
x0727_0B,x0800_0B

>  <original SMILES>  (476) 
[H]c1c([H])c([H])c2c(N([H])[H])c(Cl)c([H])c(Cl)c2c1[H]

>  <index>  (476) 
3732

>  <∆∆G>  (476) 
-5.933188

>  <∆G_bound>  (476) 
-5.877393

>  <∆G_unbound>  (476) 
0.055795

>  <comRMSD>  (476) 
0.927931

>  <N_constrained_atoms>  (476) 
15.0

>  <N_unconstrained_atoms>  (476) 
1.0

>  <runtime>  (476) 
17.273861

>  <LE>  (476) 
0.370824

>  <percent_hybrid>  (476) 
43.0

>  <dist>  (476) 
3.0

>  <ecfp4>  (476) 
0.179487

>  <daylight>  (476) 
0.355556

>  <topodist>  (476) 
2.0

>  <mces>  (476) 
13.0

>  <tdn>  (476) 
1.0

>  <tup>  (476) 
1.0

>  <rdn>  (476) 
0.0

>  <rup>  (476) 
0.0

>  <ldn>  (476) 
0.0

>  <lup>  (476) 
0.0

>  <mut>  (476) 
1.0

>  <maj>  (476) 
1.0

>  <min>  (476) 
0.0

>  <hyb>  (476) 
0.0

>  <sub>  (476) 
2.0

>  <query_index>  (476) 
67.0

>  <max_hit_Tanimoto>  (476) 
0.207852

>  <largest_ring>  (476) 
6

>  <N_interactions_kept>  (476) 
0.0

>  <N_interactions_lost>  (476) 
4.0

>  <interaction_uniqueness_metric>  (476) 
0.044868

>  <ad_hoc_penalty>  (476) 
-1.234961

>  <N_rotatable_bonds>  (476) 
1

>  <N_HA>  (476) 
13

>  <cluster>  (476) 
2752

>  <N_interactions>  (476) 
5

>  <Enamine>  (476) 
1

>  <Mcule>  (476) 
0

>  <N_PAINS>  (476) 
0

>  <UFF_Gibbs>  (476) 
28.207502

>  <strain_per_HA>  (476) 
2.169808

>  <intxn_scored>  (476) 
7.5

>  <saltbridge:HIS:51>  (476) 
0

>  <pistack:HIS:51>  (476) 
0

>  <hydroph_interaction:HIS:51>  (476) 
0

>  <hbond:ALA:132>  (476) 
0

>  <hbond:SER:135>  (476) 
0

>  <hydroph_interaction:TYR:150>  (476) 
1

>  <pistack:TYR:161>  (476) 
1

>  <hydroph_interaction:TYR:161>  (476) 
3

>  <hydroph_interaction:ASP:83>  (476) 
0

>  <hbond:TYR:130>  (476) 
0

>  <hydroph_interaction:ALA:132>  (476) 
0

>  <hbond:HIS:51>  (476) 
0

>  <hbond:ASP:129>  (476) 
0

>  <hbond:TYR:150>  (476) 
0

>  <hbond:GLY:151>  (476) 
0

>  <hbond:TYR:161>  (476) 
0

>  <hydroph_interaction:TYR:130>  (476) 
0

>  <hydroph_interaction:PRO:131>  (476) 
0

>  <hydroph_interaction:ASP:129>  (476) 
0

>  <saltbridge:ASP:75>  (476) 
0

>  <saltbridge:ASP:83>  (476) 
0

>  <hbond:ASN:152>  (476) 
0

>  <hydroph_interaction:ASN:152>  (476) 
0

>  <halogenbond:TYR:150>  (476) 
0

>  <hbond:ASP:83>  (476) 
0

>  <hydroph_interaction:VAL:155>  (476) 
0

>  <pication:TYR:161>  (476) 
0

>  <hbond:PRO:131>  (476) 
0

>  <saltbridge:ASP:129>  (476) 
0

>  <hbond:THR:134>  (476) 
0

>  <pication:HIS:51>  (476) 
0

>  <hbond:SER:81>  (476) 
0

>  <hydroph_interaction:THR:134>  (476) 
0

>  <hydroph_interaction:MET:49>  (476) 
0

$$$$
CSSS00020605339
     RDKit          3D

 20 21  0  0  0  0  0  0  0  0999 V2000
   -6.1850    5.1730  -14.6450 Br  0  0  0  0  0  0  0  0  0  0  0  0
   -8.0710    5.3740  -15.0450 C   0  0  0  0  0  0  0  0  0  0  0  0
   -8.3460    5.1870  -16.5130 C   0  0  0  0  0  0  0  0  0  0  0  0
   -9.6620    4.8670  -16.8620 C   0  0  0  0  0  0  0  0  0  0  0  0
  -10.0470    4.6760  -18.1830 C   0  0  0  0  0  0  0  0  0  0  0  0
   -9.1010    4.7990  -19.1910 C   0  0  0  0  0  0  0  0  0  0  0  0
   -7.7700    5.1140  -18.8840 C   0  0  0  0  0  0  0  0  0  0  0  0
   -6.8250    5.2290  -19.9070 C   0  0  0  0  0  0  0  0  0  0  0  0
   -5.5180    5.5360  -19.5890 C   0  0  0  0  0  0  0  0  0  0  0  0
   -5.0800    5.7380  -18.3400 N   0  0  0  0  0  0  0  0  0  0  0  0
   -6.0060    5.6240  -17.3600 C   0  0  0  0  0  0  0  0  0  0  0  0
   -7.3680    5.3150  -17.5430 C   0  0  0  0  0  0  0  0  0  0  0  0
   -8.5950    4.6260  -14.4400 H   0  0  0  0  0  0  0  0  0  0  0  0
   -8.3890    6.3580  -14.6860 H   0  0  0  0  0  0  0  0  0  0  0  0
  -10.4060    4.7650  -16.0830 H   0  0  0  0  0  0  0  0  0  0  0  0
  -11.0770    4.4330  -18.4260 H   0  0  0  0  0  0  0  0  0  0  0  0
   -9.4090    4.6460  -20.2220 H   0  0  0  0  0  0  0  0  0  0  0  0
   -7.0960    5.0780  -20.9470 H   0  0  0  0  0  0  0  0  0  0  0  0
   -4.7620    5.6300  -20.3660 H   0  0  0  0  0  0  0  0  0  0  0  0
   -5.5840    5.7990  -16.3780 H   0  0  0  0  0  0  0  0  0  0  0  0
  1  2  1  0
  2  3  1  0
  3  4  2  0
  4  5  1  0
  5  6  2  0
  6  7  1  0
  7  8  2  0
  8  9  1  0
  9 10  2  0
 10 11  1  0
 11 12  2  0
 12  3  1  0
 12  7  1  0
  2 13  1  0
  2 14  1  0
  4 15  1  0
  5 16  1  0
  6 17  1  0
  8 18  1  0
  9 19  1  0
 11 20  1  0
A    1
BR1 
A    2
 C1 
A    3
 C2 
A    4
 C3 
A    5
 C4 
A    6
 C5 
A    7
 C6 
A    8
 C7 
A    9
 C8 
A   10
 N1 
A   11
 C9 
A   12
 C10
A   13
 H1 
A   14
 H2 
A   15
 H3 
A   16
 H4 
A   17
 H5 
A   18
 H6 
A   19
 H7 
A   20
 H8 
M  END
>  <ref_pdb>  (477) 
x0051_0B

>  <ref_mols>  (477) 
x0727_0B,x0455_0B

>  <original SMILES>  (477) 
[H]c1nc([H])c2c(C([H])([H])Br)c([H])c([H])c([H])c2c1[H]

>  <index>  (477) 
1758

>  <∆∆G>  (477) 
-5.938683

>  <∆G_bound>  (477) 
-5.702851

>  <∆G_unbound>  (477) 
0.235833

>  <comRMSD>  (477) 
0.340578

>  <N_constrained_atoms>  (477) 
13.0

>  <N_unconstrained_atoms>  (477) 
0.0

>  <runtime>  (477) 
20.132687

>  <LE>  (477) 
0.456822

>  <percent_hybrid>  (477) 
40.0

>  <dist>  (477) 
4.0

>  <ecfp4>  (477) 
0.288889

>  <daylight>  (477) 
0.40404

>  <topodist>  (477) 
3.0

>  <mces>  (477) 
13.0

>  <tdn>  (477) 
2.0

>  <tup>  (477) 
0.0

>  <rdn>  (477) 
1.0

>  <rup>  (477) 
0.0

>  <ldn>  (477) 
0.0

>  <lup>  (477) 
0.0

>  <mut>  (477) 
1.0

>  <maj>  (477) 
1.0

>  <min>  (477) 
0.0

>  <hyb>  (477) 
0.0

>  <sub>  (477) 
1.0

>  <query_index>  (477) 
57.0

>  <max_hit_Tanimoto>  (477) 
0.317961

>  <largest_ring>  (477) 
6

>  <N_interactions_kept>  (477) 
0.0

>  <N_interactions_lost>  (477) 
3.0

>  <interaction_uniqueness_metric>  (477) 
0.044868

>  <ad_hoc_penalty>  (477) 
-2.770059

>  <N_rotatable_bonds>  (477) 
1

>  <N_HA>  (477) 
12

>  <cluster>  (477) 
4606

>  <N_interactions>  (477) 
5

>  <Enamine>  (477) 
1

>  <Mcule>  (477) 
0

>  <N_PAINS>  (477) 
0

>  <UFF_Gibbs>  (477) 
130.335647

>  <strain_per_HA>  (477) 
10.861304

>  <intxn_scored>  (477) 
7.5

>  <saltbridge:HIS:51>  (477) 
0

>  <pistack:HIS:51>  (477) 
0

>  <hydroph_interaction:HIS:51>  (477) 
0

>  <hbond:ALA:132>  (477) 
0

>  <hbond:SER:135>  (477) 
0

>  <hydroph_interaction:TYR:150>  (477) 
1

>  <pistack:TYR:161>  (477) 
1

>  <hydroph_interaction:TYR:161>  (477) 
3

>  <hydroph_interaction:ASP:83>  (477) 
0

>  <hbond:TYR:130>  (477) 
0

>  <hydroph_interaction:ALA:132>  (477) 
0

>  <hbond:HIS:51>  (477) 
0

>  <hbond:ASP:129>  (477) 
0

>  <hbond:TYR:150>  (477) 
0

>  <hbond:GLY:151>  (477) 
0

>  <hbond:TYR:161>  (477) 
0

>  <hydroph_interaction:TYR:130>  (477) 
0

>  <hydroph_interaction:PRO:131>  (477) 
0

>  <hydroph_interaction:ASP:129>  (477) 
0

>  <saltbridge:ASP:75>  (477) 
0

>  <saltbridge:ASP:83>  (477) 
0

>  <hbond:ASN:152>  (477) 
0

>  <hydroph_interaction:ASN:152>  (477) 
0

>  <halogenbond:TYR:150>  (477) 
0

>  <hbond:ASP:83>  (477) 
0

>  <hydroph_interaction:VAL:155>  (477) 
0

>  <pication:TYR:161>  (477) 
0

>  <hbond:PRO:131>  (477) 
0

>  <saltbridge:ASP:129>  (477) 
0

>  <hbond:THR:134>  (477) 
0

>  <pication:HIS:51>  (477) 
0

>  <hbond:SER:81>  (477) 
0

>  <hydroph_interaction:THR:134>  (477) 
0

>  <hydroph_interaction:MET:49>  (477) 
0

$$$$
CSSS00011934093
     RDKit          3D

 18 19  0  0  0  0  0  0  0  0999 V2000
   -7.9370    5.2280  -15.0000 O   0  0  0  0  0  0  0  0  0  0  0  0
   -8.2500    5.1450  -16.3310 C   0  0  0  0  0  0  0  0  0  0  0  0
   -9.6900    4.9020  -16.6150 C   0  0  0  0  0  0  0  0  0  0  0  0
  -10.1670    4.7820  -18.0740 C   0  0  0  0  0  0  0  0  0  0  0  0
   -9.2250    4.9060  -19.0860 C   0  0  0  0  0  0  0  0  0  0  0  0
   -7.7440    5.1580  -18.7200 C   0  0  0  0  0  0  0  0  0  0  0  0
   -6.7910    5.2800  -19.7180 C   0  0  0  0  0  0  0  0  0  0  0  0
   -5.4210    5.5040  -19.5410 C   0  0  0  0  0  0  0  0  0  0  0  0
   -4.9800    5.6130  -18.2670 N   0  0  0  0  0  0  0  0  0  0  0  0
   -5.9350    5.4930  -17.2200 C   0  0  0  0  0  0  0  0  0  0  0  0
   -7.3120    5.2680  -17.3810 C   0  0  0  0  0  0  0  0  0  0  0  0
   -8.4100    4.5410  -14.5040 H   0  0  0  0  0  0  0  0  0  0  0  0
  -10.3900    4.8090  -15.7900 H   0  0  0  0  0  0  0  0  0  0  0  0
  -11.2160    4.6060  -18.3060 H   0  0  0  0  0  0  0  0  0  0  0  0
   -9.5420    4.8240  -20.1250 H   0  0  0  0  0  0  0  0  0  0  0  0
   -7.1560    5.1880  -20.7480 H   0  0  0  0  0  0  0  0  0  0  0  0
   -4.7070    5.5940  -20.3530 H   0  0  0  0  0  0  0  0  0  0  0  0
   -5.4850    5.5930  -16.2370 H   0  0  0  0  0  0  0  0  0  0  0  0
  1  2  1  0
  2  3  2  0
  3  4  1  0
  4  5  2  0
  5  6  1  0
  6  7  2  0
  7  8  1  0
  8  9  2  0
  9 10  1  0
 10 11  2  0
 11  2  1  0
 11  6  1  0
  1 12  1  0
  3 13  1  0
  4 14  1  0
  5 15  1  0
  7 16  1  0
  8 17  1  0
 10 18  1  0
A    1
 O1 
A    2
 C1 
A    3
 C2 
A    4
 C3 
A    5
 C4 
A    6
 C5 
A    7
 C6 
A    8
 C7 
A    9
 N1 
A   10
 C8 
A   11
 C9 
A   12
 H1 
A   13
 H2 
A   14
 H3 
A   15
 H4 
A   16
 H5 
A   17
 H6 
A   18
 H7 
M  END
>  <ref_pdb>  (478) 
x0051_0B

>  <ref_mols>  (478) 
x0727_0B,x0455_0B

>  <original SMILES>  (478) 
[H]Oc1c([H])c([H])c([H])c2c([H])c([H])nc([H])c12

>  <index>  (478) 
1705

>  <∆∆G>  (478) 
-6.106223

>  <∆G_bound>  (478) 
-5.970055

>  <∆G_unbound>  (478) 
0.136168

>  <comRMSD>  (478) 
0.25288

>  <N_constrained_atoms>  (478) 
12.0

>  <N_unconstrained_atoms>  (478) 
0.0

>  <runtime>  (478) 
17.572073

>  <LE>  (478) 
0.508852

>  <percent_hybrid>  (478) 
25.0

>  <dist>  (478) 
5.0

>  <ecfp4>  (478) 
0.222222

>  <daylight>  (478) 
0.28

>  <topodist>  (478) 
4.0

>  <mces>  (478) 
12.0

>  <tdn>  (478) 
3.0

>  <tup>  (478) 
0.0

>  <rdn>  (478) 
1.0

>  <rup>  (478) 
0.0

>  <ldn>  (478) 
0.0

>  <lup>  (478) 
0.0

>  <mut>  (478) 
1.0

>  <maj>  (478) 
1.0

>  <min>  (478) 
0.0

>  <hyb>  (478) 
0.0

>  <sub>  (478) 
1.0

>  <query_index>  (478) 
57.0

>  <max_hit_Tanimoto>  (478) 
0.336066

>  <largest_ring>  (478) 
6

>  <N_interactions_kept>  (478) 
0.0

>  <N_interactions_lost>  (478) 
3.0

>  <interaction_uniqueness_metric>  (478) 
0.044868

>  <ad_hoc_penalty>  (478) 
-9.627839

>  <N_rotatable_bonds>  (478) 
1

>  <N_HA>  (478) 
11

>  <cluster>  (478) 
4656

>  <N_interactions>  (478) 
5

>  <Enamine>  (478) 
1

>  <Mcule>  (478) 
0

>  <N_PAINS>  (478) 
0

>  <UFF_Gibbs>  (478) 
47.566726

>  <strain_per_HA>  (478) 
4.324248

>  <intxn_scored>  (478) 
7.5

>  <saltbridge:HIS:51>  (478) 
0

>  <pistack:HIS:51>  (478) 
0

>  <hydroph_interaction:HIS:51>  (478) 
0

>  <hbond:ALA:132>  (478) 
0

>  <hbond:SER:135>  (478) 
0

>  <hydroph_interaction:TYR:150>  (478) 
1

>  <pistack:TYR:161>  (478) 
1

>  <hydroph_interaction:TYR:161>  (478) 
3

>  <hydroph_interaction:ASP:83>  (478) 
0

>  <hbond:TYR:130>  (478) 
0

>  <hydroph_interaction:ALA:132>  (478) 
0

>  <hbond:HIS:51>  (478) 
0

>  <hbond:ASP:129>  (478) 
0

>  <hbond:TYR:150>  (478) 
0

>  <hbond:GLY:151>  (478) 
0

>  <hbond:TYR:161>  (478) 
0

>  <hydroph_interaction:TYR:130>  (478) 
0

>  <hydroph_interaction:PRO:131>  (478) 
0

>  <hydroph_interaction:ASP:129>  (478) 
0

>  <saltbridge:ASP:75>  (478) 
0

>  <saltbridge:ASP:83>  (478) 
0

>  <hbond:ASN:152>  (478) 
0

>  <hydroph_interaction:ASN:152>  (478) 
0

>  <halogenbond:TYR:150>  (478) 
0

>  <hbond:ASP:83>  (478) 
0

>  <hydroph_interaction:VAL:155>  (478) 
0

>  <pication:TYR:161>  (478) 
0

>  <hbond:PRO:131>  (478) 
0

>  <saltbridge:ASP:129>  (478) 
0

>  <hbond:THR:134>  (478) 
0

>  <pication:HIS:51>  (478) 
0

>  <hbond:SER:81>  (478) 
0

>  <hydroph_interaction:THR:134>  (478) 
0

>  <hydroph_interaction:MET:49>  (478) 
0

$$$$
Z2480319974
     RDKit          3D

 49 51  0  0  0  0  0  0  0  0999 V2000
   -2.4420    4.9420  -21.6920 C   0  0  0  0  0  0  0  0  0  0  0  0
   -3.8010    5.3400  -21.3430 N   0  0  0  0  0  0  0  0  0  0  0  0
   -4.6850    5.3810  -22.4780 C   0  0  0  0  0  0  0  0  0  0  0  0
   -4.2390    5.3760  -20.0100 C   0  0  0  0  0  0  0  0  0  0  0  0
   -3.4830    5.0860  -19.0850 O   0  0  0  0  0  0  0  0  0  0  0  0
   -5.5750    5.7320  -19.7670 C   0  0  0  0  0  0  0  0  0  0  0  0
   -5.9410    5.8300  -18.3910 O   0  0  0  0  0  0  0  0  0  0  0  0
   -7.2100    5.4680  -18.0310 C   0  0  0  0  0  0  0  0  0  0  0  0
   -8.2060    4.8360  -18.9500 C   0  0  0  0  0  0  0  0  0  0  0  0
   -9.4500    4.5200  -18.4470 C   0  0  0  0  0  0  0  0  0  0  0  0
   -9.7580    4.7950  -17.1160 C   0  0  0  0  0  0  0  0  0  0  0  0
   -8.8740    5.4000  -16.2000 C   0  0  0  0  0  0  0  0  0  0  0  0
   -9.3080    5.7160  -14.7530 C   0  0  0  0  0  0  0  0  0  0  0  0
  -10.1070    6.6260  -14.5770 O   0  0  0  0  0  0  0  0  0  0  0  0
   -8.8000    5.0000  -13.6620 O   0  0  0  0  0  0  0  0  0  0  0  0
   -8.2130    5.8790  -12.6400 C   0  0  0  0  0  0  0  0  0  0  0  0
   -8.5200    5.8060  -11.0660 C   0  0  0  0  0  0  0  0  0  0  0  0
   -8.7180    4.5380  -10.2400 C   0  0  0  0  0  0  0  0  0  0  0  0
   -8.7280    3.1010  -10.5310 C   0  0  0  0  0  0  0  0  0  0  0  0
   -9.3590    2.2440   -9.4250 C   0  0  0  0  0  0  0  0  0  0  0  0
   -9.6040    2.8010   -8.0150 C   0  0  0  0  0  0  0  0  0  0  0  0
   -9.1090    4.2140   -7.7650 C   0  0  0  0  0  0  0  0  0  0  0  0
   -8.9040    5.0120   -8.9610 N   0  0  0  0  0  0  0  0  0  0  0  0
   -8.8760    6.3560   -8.8530 N   0  0  0  0  0  0  0  0  0  0  0  0
   -8.6530    6.8250  -10.0940 C   0  0  0  0  0  0  0  0  0  0  0  0
   -7.5790    5.7300  -16.6860 C   0  0  0  0  0  0  0  0  0  0  0  0
   -1.9300    5.7750  -22.1820 H   0  0  0  0  0  0  0  0  0  0  0  0
   -1.8580    4.6550  -20.8120 H   0  0  0  0  0  0  0  0  0  0  0  0
   -2.4990    4.0940  -22.3800 H   0  0  0  0  0  0  0  0  0  0  0  0
   -5.3860    4.5410  -22.4230 H   0  0  0  0  0  0  0  0  0  0  0  0
   -4.0990    5.2730  -23.3940 H   0  0  0  0  0  0  0  0  0  0  0  0
   -5.2380    6.3250  -22.4810 H   0  0  0  0  0  0  0  0  0  0  0  0
   -6.1960    4.9270  -20.1800 H   0  0  0  0  0  0  0  0  0  0  0  0
   -5.8370    6.6500  -20.3080 H   0  0  0  0  0  0  0  0  0  0  0  0
   -7.9580    4.6290  -19.9890 H   0  0  0  0  0  0  0  0  0  0  0  0
  -10.1680    4.0620  -19.0990 H   0  0  0  0  0  0  0  0  0  0  0  0
  -10.7460    4.5210  -16.7860 H   0  0  0  0  0  0  0  0  0  0  0  0
   -8.4430    6.9060  -12.9550 H   0  0  0  0  0  0  0  0  0  0  0  0
   -7.1250    5.7670  -12.7330 H   0  0  0  0  0  0  0  0  0  0  0  0
   -7.7060    2.7670  -10.7250 H   0  0  0  0  0  0  0  0  0  0  0  0
   -9.2840    2.9200  -11.4600 H   0  0  0  0  0  0  0  0  0  0  0  0
  -10.3370    1.9650   -9.8010 H   0  0  0  0  0  0  0  0  0  0  0  0
   -8.7690    1.3330   -9.3320 H   0  0  0  0  0  0  0  0  0  0  0  0
  -10.6810    2.7590   -7.8150 H   0  0  0  0  0  0  0  0  0  0  0  0
   -9.1370    2.1340   -7.2810 H   0  0  0  0  0  0  0  0  0  0  0  0
   -8.1360    4.1770   -7.2690 H   0  0  0  0  0  0  0  0  0  0  0  0
   -9.8050    4.7500   -7.1100 H   0  0  0  0  0  0  0  0  0  0  0  0
   -8.5890    7.8950  -10.2360 H   0  0  0  0  0  0  0  0  0  0  0  0
   -6.8530    6.1970  -16.0210 H   0  0  0  0  0  0  0  0  0  0  0  0
  1  2  1  0
  2  3  1  0
  2  4  1  0
  4  5  2  0
  4  6  1  0
  6  7  1  0
  7  8  1  0
  8  9  2  0
  9 10  1  0
 10 11  2  0
 11 12  1  0
 12 13  1  0
 13 14  2  0
 13 15  1  0
 15 16  1  0
 16 17  1  0
 17 18  2  0
 18 19  1  0
 19 20  1  0
 20 21  1  0
 21 22  1  0
 22 23  1  0
 23 24  1  0
 24 25  2  0
 12 26  2  0
 26  8  1  0
 25 17  1  0
 23 18  1  0
  1 27  1  0
  1 28  1  0
  1 29  1  0
  3 30  1  0
  3 31  1  0
  3 32  1  0
  6 33  1  0
  6 34  1  0
  9 35  1  0
 10 36  1  0
 11 37  1  0
 16 38  1  0
 16 39  1  0
 19 40  1  0
 19 41  1  0
 20 42  1  0
 20 43  1  0
 21 44  1  0
 21 45  1  0
 22 46  1  0
 22 47  1  0
 25 48  1  0
 26 49  1  0
A    1
 C1 
A    2
 N1 
A    3
 C2 
A    4
 C3 
A    5
 O1 
A    6
 C4 
A    7
 O2 
A    8
 C5 
A    9
 C6 
A   10
 C7 
A   11
 C8 
A   12
 C9 
A   13
 C10
A   14
 O3 
A   15
 O4 
A   16
 C11
A   17
 C12
A   18
 C13
A   19
 C14
A   20
 C15
A   21
 C16
A   22
 C17
A   23
 N2 
A   24
 N3 
A   25
 C18
A   26
 C19
A   27
 H1 
A   28
 H2 
A   29
 H3 
A   30
 H4 
A   31
 H5 
A   32
 H6 
A   33
 H7 
A   34
 H8 
A   35
 H9 
A   36
 H10
A   37
 H11
A   38
 H12
A   39
 H13
A   40
 H14
A   41
 H15
A   42
 H16
A   43
 H17
A   44
 H18
A   45
 H19
A   46
 H20
A   47
 H21
A   48
 H22
A   49
 H23
M  END
>  <ref_pdb>  (479) 
x0051_0B

>  <ref_mols>  (479) 
x0969_1B,x0904_0B

>  <original SMILES>  (479) 
[H]c1nn2c(c1C([H])([H])OC(=O)c1c([H])c([H])c([H])c(OC([H])([H])C(=O)N(C([H])([H])[H])C([H])([H])[H])c1[H])C([H])([H])C([H])([H])C([H])([H])C2([H])[H]

>  <index>  (479) 
205

>  <∆∆G>  (479) 
-7.326908

>  <∆G_bound>  (479) 
-6.717418

>  <∆G_unbound>  (479) 
0.60949

>  <comRMSD>  (479) 
0.614806

>  <N_constrained_atoms>  (479) 
24.0

>  <N_unconstrained_atoms>  (479) 
2.0

>  <runtime>  (479) 
81.377849

>  <LE>  (479) 
0.281804

>  <percent_hybrid>  (479) 
42.0

>  <dist>  (479) 
4.0

>  <ecfp4>  (479) 
0.573529

>  <daylight>  (479) 
0.407666

>  <topodist>  (479) 
2.0

>  <mces>  (479) 
27.0

>  <tdn>  (479) 
0.0

>  <tup>  (479) 
1.0

>  <rdn>  (479) 
0.0

>  <rup>  (479) 
0.0

>  <ldn>  (479) 
1.0

>  <lup>  (479) 
0.0

>  <mut>  (479) 
1.0

>  <maj>  (479) 
1.0

>  <min>  (479) 
0.0

>  <hyb>  (479) 
1.0

>  <sub>  (479) 
0.0

>  <query_index>  (479) 
111.0

>  <max_hit_Tanimoto>  (479) 
0.319728

>  <largest_ring>  (479) 
0

>  <N_interactions_kept>  (479) 
2.0

>  <N_interactions_lost>  (479) 
1.5

>  <interaction_uniqueness_metric>  (479) 
0.252824

>  <ad_hoc_penalty>  (479) 
-27.622972

>  <N_rotatable_bonds>  (479) 
8

>  <N_HA>  (479) 
26

>  <cluster>  (479) 
6032

>  <N_interactions>  (479) 
8

>  <Enamine>  (479) 
1

>  <Mcule>  (479) 
0

>  <N_PAINS>  (479) 
0

>  <UFF_Gibbs>  (479) 
117.883112

>  <strain_per_HA>  (479) 
4.533966

>  <intxn_scored>  (479) 
7.5

>  <saltbridge:HIS:51>  (479) 
1

>  <pistack:HIS:51>  (479) 
1

>  <hydroph_interaction:HIS:51>  (479) 
1

>  <hbond:ALA:132>  (479) 
0

>  <hbond:SER:135>  (479) 
1

>  <hydroph_interaction:TYR:150>  (479) 
1

>  <pistack:TYR:161>  (479) 
0

>  <hydroph_interaction:TYR:161>  (479) 
2

>  <hydroph_interaction:ASP:83>  (479) 
0

>  <hbond:TYR:130>  (479) 
0

>  <hydroph_interaction:ALA:132>  (479) 
1

>  <hbond:HIS:51>  (479) 
0

>  <hbond:ASP:129>  (479) 
0

>  <hbond:TYR:150>  (479) 
0

>  <hbond:GLY:151>  (479) 
0

>  <hbond:TYR:161>  (479) 
0

>  <hydroph_interaction:TYR:130>  (479) 
0

>  <hydroph_interaction:PRO:131>  (479) 
0

>  <hydroph_interaction:ASP:129>  (479) 
0

>  <saltbridge:ASP:75>  (479) 
0

>  <saltbridge:ASP:83>  (479) 
0

>  <hbond:ASN:152>  (479) 
0

>  <hydroph_interaction:ASN:152>  (479) 
0

>  <halogenbond:TYR:150>  (479) 
0

>  <hbond:ASP:83>  (479) 
0

>  <hydroph_interaction:VAL:155>  (479) 
0

>  <pication:TYR:161>  (479) 
0

>  <hbond:PRO:131>  (479) 
0

>  <saltbridge:ASP:129>  (479) 
0

>  <hbond:THR:134>  (479) 
0

>  <pication:HIS:51>  (479) 
0

>  <hbond:SER:81>  (479) 
0

>  <hydroph_interaction:THR:134>  (479) 
0

>  <hydroph_interaction:MET:49>  (479) 
0

$$$$
Z1618269643
     RDKit          3D

 33 35  0  0  0  0  0  0  0  0999 V2000
   -3.6600    5.6000  -18.8520 C   0  0  0  0  0  0  0  0  0  0  0  0
   -4.9930    5.4380  -18.7830 C   0  0  0  0  0  0  0  0  0  0  0  0
   -5.7940    5.2550  -20.0030 C   0  0  0  0  0  0  0  0  0  0  0  0
   -7.1120    5.0760  -20.0720 N   0  0  0  0  0  0  0  0  0  0  0  0
   -7.7820    5.0560  -18.9170 C   0  0  0  0  0  0  0  0  0  0  0  0
   -9.1650    4.8540  -19.0040 C   0  0  0  0  0  0  0  0  0  0  0  0
   -9.9860    4.8140  -17.7590 C   0  0  0  0  0  0  0  0  0  0  0  0
   -9.3670    4.9800  -16.5330 C   0  0  0  0  0  0  0  0  0  0  0  0
   -7.9750    5.1830  -16.4720 C   0  0  0  0  0  0  0  0  0  0  0  0
   -7.1580    5.2250  -17.6410 C   0  0  0  0  0  0  0  0  0  0  0  0
   -5.7280    5.4220  -17.5870 C   0  0  0  0  0  0  0  0  0  0  0  0
   -5.1030    5.5890  -16.3390 N   0  0  0  0  0  0  0  0  0  0  0  0
   -5.2250    6.9500  -15.8010 C   0  0  0  0  0  0  0  0  0  0  0  0
   -4.4730    7.0700  -14.4850 C   0  0  0  0  0  0  0  0  0  0  0  0
   -3.5990    5.9040  -13.9630 C   0  0  0  0  0  0  0  0  0  0  0  0
   -3.5250    4.7370  -14.7490 C   0  0  0  0  0  0  0  0  0  0  0  0
   -3.7700    5.0190  -16.2220 C   0  0  0  0  0  0  0  0  0  0  0  0
   -3.0420    4.7950  -18.4380 H   0  0  0  0  0  0  0  0  0  0  0  0
   -3.2380    5.7860  -19.8460 H   0  0  0  0  0  0  0  0  0  0  0  0
   -3.3700    6.4800  -18.2700 H   0  0  0  0  0  0  0  0  0  0  0  0
   -5.2260    5.2680  -20.9380 H   0  0  0  0  0  0  0  0  0  0  0  0
   -9.6410    4.7270  -19.9740 H   0  0  0  0  0  0  0  0  0  0  0  0
  -11.0600    4.6520  -17.9090 H   0  0  0  0  0  0  0  0  0  0  0  0
   -9.9500    4.9540  -15.6170 H   0  0  0  0  0  0  0  0  0  0  0  0
   -7.5150    5.3070  -15.4940 H   0  0  0  0  0  0  0  0  0  0  0  0
   -6.2810    7.2040  -15.8000 H   0  0  0  0  0  0  0  0  0  0  0  0
   -4.7560    7.6580  -16.4920 H   0  0  0  0  0  0  0  0  0  0  0  0
   -4.5690    7.9970  -13.9260 H   0  0  0  0  0  0  0  0  0  0  0  0
   -3.0520    5.9640  -13.0270 H   0  0  0  0  0  0  0  0  0  0  0  0
   -2.5400    4.2710  -14.6300 H   0  0  0  0  0  0  0  0  0  0  0  0
   -4.2710    4.0220  -14.3780 H   0  0  0  0  0  0  0  0  0  0  0  0
   -3.0050    5.7150  -16.5820 H   0  0  0  0  0  0  0  0  0  0  0  0
   -3.6750    4.0880  -16.7880 H   0  0  0  0  0  0  0  0  0  0  0  0
  1  2  1  0
  2  3  2  0
  3  4  1  0
  4  5  2  0
  5  6  1  0
  6  7  2  0
  7  8  1  0
  8  9  2  0
  9 10  1  0
 10 11  2  0
 11 12  1  0
 12 13  1  0
 13 14  1  0
 14 15  2  0
 15 16  1  0
 16 17  1  0
 11  2  1  0
 10  5  1  0
 17 12  1  0
  1 18  1  0
  1 19  1  0
  1 20  1  0
  3 21  1  0
  6 22  1  0
  7 23  1  0
  8 24  1  0
  9 25  1  0
 13 26  1  0
 13 27  1  0
 14 28  1  0
 15 29  1  0
 16 30  1  0
 16 31  1  0
 17 32  1  0
 17 33  1  0
A    1
 C1 
A    2
 C2 
A    3
 C3 
A    4
 N1 
A    5
 C4 
A    6
 C5 
A    7
 C6 
A    8
 C7 
A    9
 C8 
A   10
 C9 
A   11
 C10
A   12
 N2 
A   13
 C11
A   14
 C12
A   15
 C13
A   16
 C14
A   17
 C15
A   18
 H1 
A   19
 H2 
A   20
 H3 
A   21
 H4 
A   22
 H5 
A   23
 H6 
A   24
 H7 
A   25
 H8 
A   26
 H9 
A   27
 H10
A   28
 H11
A   29
 H12
A   30
 H13
A   31
 H14
A   32
 H15
A   33
 H16
M  END
>  <ref_pdb>  (480) 
x0051_0B

>  <ref_mols>  (480) 
x0429_0B,x0051_0B

>  <original SMILES>  (480) 
[H]C1=C([H])C([H])([H])C([H])([H])N(c2c(C([H])([H])[H])c([H])nc3c([H])c([H])c([H])c([H])c23)C1([H])[H]

>  <index>  (480) 
1707

>  <∆∆G>  (480) 
-6.548172

>  <∆G_bound>  (480) 
-6.334345

>  <∆G_unbound>  (480) 
0.213827

>  <comRMSD>  (480) 
0.550763

>  <N_constrained_atoms>  (480) 
19.0

>  <N_unconstrained_atoms>  (480) 
0.0

>  <runtime>  (480) 
20.729605

>  <LE>  (480) 
0.344641

>  <percent_hybrid>  (480) 
30.0

>  <dist>  (480) 
4.0

>  <ecfp4>  (480) 
0.234375

>  <daylight>  (480) 
0.373494

>  <topodist>  (480) 
2.0

>  <mces>  (480) 
19.0

>  <tdn>  (480) 
1.0

>  <tup>  (480) 
0.0

>  <rdn>  (480) 
0.0

>  <rup>  (480) 
0.0

>  <ldn>  (480) 
1.0

>  <lup>  (480) 
0.0

>  <mut>  (480) 
1.0

>  <maj>  (480) 
1.0

>  <min>  (480) 
0.0

>  <hyb>  (480) 
1.0

>  <sub>  (480) 
1.0

>  <query_index>  (480) 
194.0

>  <max_hit_Tanimoto>  (480) 
0.585014

>  <largest_ring>  (480) 
6

>  <N_interactions_kept>  (480) 
1.0

>  <N_interactions_lost>  (480) 
3.0

>  <interaction_uniqueness_metric>  (480) 
0.044868

>  <ad_hoc_penalty>  (480) 
-8.51289

>  <N_rotatable_bonds>  (480) 
2

>  <N_HA>  (480) 
17

>  <cluster>  (480) 
4654

>  <N_interactions>  (480) 
5

>  <Enamine>  (480) 
1

>  <Mcule>  (480) 
0

>  <N_PAINS>  (480) 
0

>  <UFF_Gibbs>  (480) 
92.037849

>  <strain_per_HA>  (480) 
5.413991

>  <intxn_scored>  (480) 
7.5

>  <saltbridge:HIS:51>  (480) 
0

>  <pistack:HIS:51>  (480) 
0

>  <hydroph_interaction:HIS:51>  (480) 
0

>  <hbond:ALA:132>  (480) 
0

>  <hbond:SER:135>  (480) 
0

>  <hydroph_interaction:TYR:150>  (480) 
1

>  <pistack:TYR:161>  (480) 
1

>  <hydroph_interaction:TYR:161>  (480) 
3

>  <hydroph_interaction:ASP:83>  (480) 
0

>  <hbond:TYR:130>  (480) 
0

>  <hydroph_interaction:ALA:132>  (480) 
0

>  <hbond:HIS:51>  (480) 
0

>  <hbond:ASP:129>  (480) 
0

>  <hbond:TYR:150>  (480) 
0

>  <hbond:GLY:151>  (480) 
0

>  <hbond:TYR:161>  (480) 
0

>  <hydroph_interaction:TYR:130>  (480) 
0

>  <hydroph_interaction:PRO:131>  (480) 
0

>  <hydroph_interaction:ASP:129>  (480) 
0

>  <saltbridge:ASP:75>  (480) 
0

>  <saltbridge:ASP:83>  (480) 
0

>  <hbond:ASN:152>  (480) 
0

>  <hydroph_interaction:ASN:152>  (480) 
0

>  <halogenbond:TYR:150>  (480) 
0

>  <hbond:ASP:83>  (480) 
0

>  <hydroph_interaction:VAL:155>  (480) 
0

>  <pication:TYR:161>  (480) 
0

>  <hbond:PRO:131>  (480) 
0

>  <saltbridge:ASP:129>  (480) 
0

>  <hbond:THR:134>  (480) 
0

>  <pication:HIS:51>  (480) 
0

>  <hbond:SER:81>  (480) 
0

>  <hydroph_interaction:THR:134>  (480) 
0

>  <hydroph_interaction:MET:49>  (480) 
0

$$$$
Z1083027216
     RDKit          3D

 46 49  0  0  0  0  0  0  0  0999 V2000
   -4.0620    5.7540  -21.5410 O   0  0  0  0  0  0  0  0  0  0  0  0
   -5.1590    6.2980  -21.4580 C   0  0  0  0  0  0  0  0  0  0  0  0
   -6.2380    5.8170  -20.6100 N   0  0  0  0  0  0  0  0  0  0  0  0
   -5.9080    5.7040  -19.1810 C   0  0  0  0  0  0  0  0  0  0  0  0
   -7.1080    5.4100  -18.2960 C   0  0  0  0  0  0  0  0  0  0  0  0
   -8.3450    4.9630  -19.0320 C   0  0  0  0  0  0  0  0  0  0  0  0
   -9.5750    4.6560  -18.2000 C   0  0  0  0  0  0  0  0  0  0  0  0
   -9.4510    4.8240  -16.6770 C   0  0  0  0  0  0  0  0  0  0  0  0
   -8.1180    5.2850  -16.0740 C   0  0  0  0  0  0  0  0  0  0  0  0
   -7.0470    5.5450  -16.9080 C   0  0  0  0  0  0  0  0  0  0  0  0
   -5.4310    7.5140  -22.2340 C   0  0  0  0  0  0  0  0  0  0  0  0
   -6.1250    7.3580  -23.5690 C   0  0  0  0  0  0  0  0  0  0  0  0
   -6.3950    8.4720  -24.3230 C   0  0  0  0  0  0  0  0  0  0  0  0
   -6.0230    9.7250  -23.8410 C   0  0  0  0  0  0  0  0  0  0  0  0
   -6.3860   11.1190  -24.8570 S   0  0  0  0  0  0  0  0  0  0  0  0
   -6.1070   10.3040  -26.4700 C   0  0  0  0  0  0  0  0  0  0  0  0
   -7.2450    9.6350  -26.9410 C   0  0  0  0  0  0  0  0  0  0  0  0
   -7.3500    8.3620  -27.2780 N   0  0  0  0  0  0  0  0  0  0  0  0
   -8.6550    8.1790  -27.6610 C   0  0  0  0  0  0  0  0  0  0  0  0
   -9.3230    7.0240  -28.1040 C   0  0  0  0  0  0  0  0  0  0  0  0
  -10.6830    7.1180  -28.4250 C   0  0  0  0  0  0  0  0  0  0  0  0
  -11.3660    8.3320  -28.3100 C   0  0  0  0  0  0  0  0  0  0  0  0
  -10.7130    9.4870  -27.8780 C   0  0  0  0  0  0  0  0  0  0  0  0
   -9.3630    9.3730  -27.5630 C   0  0  0  0  0  0  0  0  0  0  0  0
   -8.4430   10.2790  -27.1090 N   0  0  0  0  0  0  0  0  0  0  0  0
   -5.3790    9.8920  -22.6010 C   0  0  0  0  0  0  0  0  0  0  0  0
   -5.0810    8.7940  -21.7930 C   0  0  0  0  0  0  0  0  0  0  0  0
   -7.1920    6.0680  -20.8760 H   0  0  0  0  0  0  0  0  0  0  0  0
   -5.4590    6.6460  -18.8480 H   0  0  0  0  0  0  0  0  0  0  0  0
   -5.1180    4.9570  -19.1380 H   0  0  0  0  0  0  0  0  0  0  0  0
   -8.3740    4.8600  -20.1160 H   0  0  0  0  0  0  0  0  0  0  0  0
  -10.5070    4.3340  -18.6470 H   0  0  0  0  0  0  0  0  0  0  0  0
  -10.2440    4.6450  -15.9390 H   0  0  0  0  0  0  0  0  0  0  0  0
   -8.0300    5.4030  -14.9970 H   0  0  0  0  0  0  0  0  0  0  0  0
   -6.1500    5.8650  -16.3730 H   0  0  0  0  0  0  0  0  0  0  0  0
   -6.4050    6.3690  -23.9200 H   0  0  0  0  0  0  0  0  0  0  0  0
   -6.8940    8.3630  -25.2800 H   0  0  0  0  0  0  0  0  0  0  0  0
   -5.7490   11.0400  -27.1990 H   0  0  0  0  0  0  0  0  0  0  0  0
   -5.3010    9.5770  -26.3280 H   0  0  0  0  0  0  0  0  0  0  0  0
   -8.7890    6.0820  -28.1910 H   0  0  0  0  0  0  0  0  0  0  0  0
  -11.2140    6.2330  -28.7660 H   0  0  0  0  0  0  0  0  0  0  0  0
  -12.4220    8.3800  -28.5630 H   0  0  0  0  0  0  0  0  0  0  0  0
  -11.2690   10.4190  -27.7990 H   0  0  0  0  0  0  0  0  0  0  0  0
   -8.6230   11.2520  -26.9240 H   0  0  0  0  0  0  0  0  0  0  0  0
   -5.1050   10.8890  -22.2570 H   0  0  0  0  0  0  0  0  0  0  0  0
   -4.5840    8.9530  -20.8430 H   0  0  0  0  0  0  0  0  0  0  0  0
  1  2  2  0
  2  3  1  0
  3  4  1  0
  4  5  1  0
  5  6  2  0
  6  7  1  0
  7  8  2  0
  8  9  1  0
  9 10  2  0
  2 11  1  0
 11 12  2  0
 12 13  1  0
 13 14  2  0
 14 15  1  0
 15 16  1  0
 16 17  1  0
 17 18  2  0
 18 19  1  0
 19 20  2  0
 20 21  1  0
 21 22  2  0
 22 23  1  0
 23 24  2  0
 24 25  1  0
 14 26  1  0
 26 27  2  0
 10  5  1  0
 27 11  1  0
 25 17  1  0
 24 19  1  0
  3 28  1  0
  4 29  1  0
  4 30  1  0
  6 31  1  0
  7 32  1  0
  8 33  1  0
  9 34  1  0
 10 35  1  0
 12 36  1  0
 13 37  1  0
 16 38  1  0
 16 39  1  0
 20 40  1  0
 21 41  1  0
 22 42  1  0
 23 43  1  0
 25 44  1  0
 26 45  1  0
 27 46  1  0
A    1
 O1 
A    2
 C1 
A    3
 N1 
A    4
 C2 
A    5
 C3 
A    6
 C4 
A    7
 C5 
A    8
 C6 
A    9
 C7 
A   10
 C8 
A   11
 C9 
A   12
 C10
A   13
 C11
A   14
 C12
A   15
 S1 
A   16
 C13
A   17
 C14
A   18
 N2 
A   19
 C15
A   20
 C16
A   21
 C17
A   22
 C18
A   23
 C19
A   24
 C20
A   25
 N3 
A   26
 C21
A   27
 C22
A   28
 H1 
A   29
 H2 
A   30
 H3 
A   31
 H4 
A   32
 H5 
A   33
 H6 
A   34
 H7 
A   35
 H8 
A   36
 H9 
A   37
 H10
A   38
 H11
A   39
 H12
A   40
 H13
A   41
 H14
A   42
 H15
A   43
 H16
A   44
 H17
A   45
 H18
A   46
 H19
M  END
>  <ref_pdb>  (481) 
x0051_0B

>  <ref_mols>  (481) 
x0589_0B,x0846_1B

>  <original SMILES>  (481) 
[H]c1c([H])c([H])c(C([H])([H])N([H])C(=O)c2c([H])c([H])c(SC([H])([H])c3nc4c([H])c([H])c([H])c([H])c4n3[H])c([H])c2[H])c([H])c1[H]

>  <index>  (481) 
288

>  <∆∆G>  (481) 
-9.667995

>  <∆G_bound>  (481) 
-8.972165

>  <∆G_unbound>  (481) 
0.69583

>  <comRMSD>  (481) 
0.612236

>  <N_constrained_atoms>  (481) 
26.0

>  <N_unconstrained_atoms>  (481) 
2.0

>  <runtime>  (481) 
37.391982

>  <LE>  (481) 
0.345286

>  <percent_hybrid>  (481) 
31.0

>  <dist>  (481) 
7.0

>  <ecfp4>  (481) 
0.297297

>  <daylight>  (481) 
0.32967

>  <topodist>  (481) 
3.0

>  <mces>  (481) 
29.0

>  <tdn>  (481) 
2.0

>  <tup>  (481) 
1.0

>  <rdn>  (481) 
0.0

>  <rup>  (481) 
0.0

>  <ldn>  (481) 
0.0

>  <lup>  (481) 
0.0

>  <mut>  (481) 
3.0

>  <maj>  (481) 
3.0

>  <min>  (481) 
0.0

>  <hyb>  (481) 
1.0

>  <sub>  (481) 
2.0

>  <query_index>  (481) 
340.0

>  <max_hit_Tanimoto>  (481) 
0.335821

>  <largest_ring>  (481) 
0

>  <N_interactions_kept>  (481) 
0.0

>  <N_interactions_lost>  (481) 
2.0

>  <interaction_uniqueness_metric>  (481) 
0.197174

>  <ad_hoc_penalty>  (481) 
-24.797321

>  <N_rotatable_bonds>  (481) 
6

>  <N_HA>  (481) 
27

>  <cluster>  (481) 
5954

>  <N_interactions>  (481) 
6

>  <Enamine>  (481) 
1

>  <Mcule>  (481) 
0

>  <N_PAINS>  (481) 
0

>  <UFF_Gibbs>  (481) 
126.520809

>  <strain_per_HA>  (481) 
4.685956

>  <intxn_scored>  (481) 
7.5

>  <saltbridge:HIS:51>  (481) 
0

>  <pistack:HIS:51>  (481) 
0

>  <hydroph_interaction:HIS:51>  (481) 
0

>  <hbond:ALA:132>  (481) 
0

>  <hbond:SER:135>  (481) 
0

>  <hydroph_interaction:TYR:150>  (481) 
1

>  <pistack:TYR:161>  (481) 
1

>  <hydroph_interaction:TYR:161>  (481) 
0

>  <hydroph_interaction:ASP:83>  (481) 
0

>  <hbond:TYR:130>  (481) 
1

>  <hydroph_interaction:ALA:132>  (481) 
0

>  <hbond:HIS:51>  (481) 
0

>  <hbond:ASP:129>  (481) 
1

>  <hbond:TYR:150>  (481) 
0

>  <hbond:GLY:151>  (481) 
0

>  <hbond:TYR:161>  (481) 
0

>  <hydroph_interaction:TYR:130>  (481) 
1

>  <hydroph_interaction:PRO:131>  (481) 
1

>  <hydroph_interaction:ASP:129>  (481) 
0

>  <saltbridge:ASP:75>  (481) 
0

>  <saltbridge:ASP:83>  (481) 
0

>  <hbond:ASN:152>  (481) 
0

>  <hydroph_interaction:ASN:152>  (481) 
0

>  <halogenbond:TYR:150>  (481) 
0

>  <hbond:ASP:83>  (481) 
0

>  <hydroph_interaction:VAL:155>  (481) 
0

>  <pication:TYR:161>  (481) 
0

>  <hbond:PRO:131>  (481) 
0

>  <saltbridge:ASP:129>  (481) 
0

>  <hbond:THR:134>  (481) 
0

>  <pication:HIS:51>  (481) 
0

>  <hbond:SER:81>  (481) 
0

>  <hydroph_interaction:THR:134>  (481) 
0

>  <hydroph_interaction:MET:49>  (481) 
0

$$$$
PV-002860140225
     RDKit          3D

 38 40  0  0  0  0  0  0  0  0999 V2000
  -10.5260    4.6210  -18.3570 C   0  0  0  0  0  0  0  0  0  0  0  0
   -9.2510    4.9350  -17.6450 C   0  0  0  0  0  0  0  0  0  0  0  0
   -8.1280    5.1080  -18.6420 C   0  0  0  0  0  0  0  0  0  0  0  0
   -6.8230    5.4350  -17.9800 C   0  0  0  0  0  0  0  0  0  0  0  0
   -5.4400    5.6760  -18.9640 Cl  0  0  0  0  0  0  0  0  0  0  0  0
   -6.7460    5.5450  -16.5750 C   0  0  0  0  0  0  0  0  0  0  0  0
   -7.8220    5.3730  -15.6780 C   0  0  0  0  0  0  0  0  0  0  0  0
   -7.5320    5.5430  -14.2790 C   0  0  0  0  0  0  0  0  0  0  0  0
   -6.5190    6.5320  -14.0770 O   0  0  0  0  0  0  0  0  0  0  0  0
   -8.1890    4.8130  -13.3160 O   0  0  0  0  0  0  0  0  0  0  0  0
   -8.9030    5.6140  -12.3320 C   0  0  0  0  0  0  0  0  0  0  0  0
   -8.8730    5.5300  -10.8640 C   0  0  0  0  0  0  0  0  0  0  0  0
   -8.9350    4.3980  -10.0350 C   0  0  0  0  0  0  0  0  0  0  0  0
   -9.0240    3.0220  -10.3860 C   0  0  0  0  0  0  0  0  0  0  0  0
   -8.6140    2.2290   -9.1520 C   0  0  0  0  0  0  0  0  0  0  0  0
   -9.3950    2.6840   -7.9250 C   0  0  0  0  0  0  0  0  0  0  0  0
   -8.9670    3.9620   -7.5670 C   0  0  0  0  0  0  0  0  0  0  0  0
   -8.9020    4.8270   -8.7370 N   0  0  0  0  0  0  0  0  0  0  0  0
   -8.8060    6.1640   -8.6300 N   0  0  0  0  0  0  0  0  0  0  0  0
   -8.7910    6.5870   -9.9100 C   0  0  0  0  0  0  0  0  0  0  0  0
   -9.0890    5.0630  -16.2380 C   0  0  0  0  0  0  0  0  0  0  0  0
  -10.3660    3.6900  -18.8710 H   0  0  0  0  0  0  0  0  0  0  0  0
  -10.7680    5.3920  -19.0950 H   0  0  0  0  0  0  0  0  0  0  0  0
  -11.3560    4.4890  -17.6860 H   0  0  0  0  0  0  0  0  0  0  0  0
   -8.2490    5.0110  -19.7170 H   0  0  0  0  0  0  0  0  0  0  0  0
   -5.7740    5.7840  -16.1520 H   0  0  0  0  0  0  0  0  0  0  0  0
   -9.9530    5.6330  -12.6220 H   0  0  0  0  0  0  0  0  0  0  0  0
   -8.5680    6.6300  -12.5690 H   0  0  0  0  0  0  0  0  0  0  0  0
  -10.0450    2.7680  -10.6770 H   0  0  0  0  0  0  0  0  0  0  0  0
   -8.3600    2.7810  -11.2240 H   0  0  0  0  0  0  0  0  0  0  0  0
   -7.5470    2.3890   -8.9640 H   0  0  0  0  0  0  0  0  0  0  0  0
   -8.7420    1.1710   -9.3200 H   0  0  0  0  0  0  0  0  0  0  0  0
   -9.2430    1.9890   -7.0950 H   0  0  0  0  0  0  0  0  0  0  0  0
  -10.4690    2.6920   -8.1550 H   0  0  0  0  0  0  0  0  0  0  0  0
   -9.6700    4.4270   -6.8670 H   0  0  0  0  0  0  0  0  0  0  0  0
   -7.9730    3.9240   -7.1070 H   0  0  0  0  0  0  0  0  0  0  0  0
   -8.7230    7.6490  -10.1020 H   0  0  0  0  0  0  0  0  0  0  0  0
   -9.9620    4.9210  -15.5930 H   0  0  0  0  0  0  0  0  0  0  0  0
  1  2  1  0
  2  3  2  0
  3  4  1  0
  4  5  1  0
  4  6  2  0
  6  7  1  0
  7  8  1  0
  8  9  2  0
  8 10  1  0
 10 11  1  0
 11 12  1  0
 12 13  2  0
 13 14  1  0
 14 15  1  0
 15 16  1  0
 16 17  1  0
 17 18  1  0
 18 19  1  0
 19 20  2  0
  7 21  2  0
 21  2  1  0
 20 12  1  0
 18 13  1  0
  1 22  1  0
  1 23  1  0
  1 24  1  0
  3 25  1  0
  6 26  1  0
 11 27  1  0
 11 28  1  0
 14 29  1  0
 14 30  1  0
 15 31  1  0
 15 32  1  0
 16 33  1  0
 16 34  1  0
 17 35  1  0
 17 36  1  0
 20 37  1  0
 21 38  1  0
A    1
 C1 
A    2
 C2 
A    3
 C3 
A    4
 C4 
A    5
CL1 
A    6
 C5 
A    7
 C6 
A    8
 C7 
A    9
 O1 
A   10
 O2 
A   11
 C8 
A   12
 C9 
A   13
 C10
A   14
 C11
A   15
 C12
A   16
 C13
A   17
 C14
A   18
 N1 
A   19
 N2 
A   20
 C15
A   21
 C16
A   22
 H1 
A   23
 H2 
A   24
 H3 
A   25
 H4 
A   26
 H5 
A   27
 H6 
A   28
 H7 
A   29
 H8 
A   30
 H9 
A   31
 H10
A   32
 H11
A   33
 H12
A   34
 H13
A   35
 H14
A   36
 H15
A   37
 H16
A   38
 H17
M  END
>  <ref_pdb>  (482) 
x0051_0B

>  <ref_mols>  (482) 
x0969_1B,x0589_0B

>  <original SMILES>  (482) 
[H]c1nn2c(c1C([H])([H])OC(=O)c1c([H])c(Cl)c([H])c(C([H])([H])[H])c1[H])C([H])([H])C([H])([H])C([H])([H])C2([H])[H]

>  <index>  (482) 
306

>  <∆∆G>  (482) 
-8.412166

>  <∆G_bound>  (482) 
-7.630356

>  <∆G_unbound>  (482) 
0.78181

>  <comRMSD>  (482) 
0.479952

>  <N_constrained_atoms>  (482) 
18.0

>  <N_unconstrained_atoms>  (482) 
3.0

>  <runtime>  (482) 
53.681826

>  <LE>  (482) 
0.400579

>  <percent_hybrid>  (482) 
45.0

>  <dist>  (482) 
4.0

>  <ecfp4>  (482) 
0.342466

>  <daylight>  (482) 
0.437751

>  <topodist>  (482) 
1.0

>  <mces>  (482) 
22.0

>  <tdn>  (482) 
0.0

>  <tup>  (482) 
1.0

>  <rdn>  (482) 
0.0

>  <rup>  (482) 
0.0

>  <ldn>  (482) 
0.0

>  <lup>  (482) 
0.0

>  <mut>  (482) 
2.0

>  <maj>  (482) 
1.0

>  <min>  (482) 
1.0

>  <hyb>  (482) 
1.0

>  <sub>  (482) 
0.0

>  <query_index>  (482) 
380.0

>  <max_hit_Tanimoto>  (482) 
0.32716

>  <largest_ring>  (482) 
0

>  <N_interactions_kept>  (482) 
1.5

>  <N_interactions_lost>  (482) 
1.0

>  <interaction_uniqueness_metric>  (482) 
0.141238

>  <ad_hoc_penalty>  (482) 
-23.279717

>  <N_rotatable_bonds>  (482) 
4

>  <N_HA>  (482) 
21

>  <cluster>  (482) 
528

>  <N_interactions>  (482) 
4

>  <Enamine>  (482) 
1

>  <Mcule>  (482) 
0

>  <N_PAINS>  (482) 
0

>  <UFF_Gibbs>  (482) 
109.382778

>  <strain_per_HA>  (482) 
5.208704

>  <intxn_scored>  (482) 
7.5

>  <saltbridge:HIS:51>  (482) 
0

>  <pistack:HIS:51>  (482) 
1

>  <hydroph_interaction:HIS:51>  (482) 
0

>  <hbond:ALA:132>  (482) 
0

>  <hbond:SER:135>  (482) 
0

>  <hydroph_interaction:TYR:150>  (482) 
1

>  <pistack:TYR:161>  (482) 
1

>  <hydroph_interaction:TYR:161>  (482) 
0

>  <hydroph_interaction:ASP:83>  (482) 
1

>  <hbond:TYR:130>  (482) 
0

>  <hydroph_interaction:ALA:132>  (482) 
0

>  <hbond:HIS:51>  (482) 
0

>  <hbond:ASP:129>  (482) 
0

>  <hbond:TYR:150>  (482) 
0

>  <hbond:GLY:151>  (482) 
0

>  <hbond:TYR:161>  (482) 
0

>  <hydroph_interaction:TYR:130>  (482) 
0

>  <hydroph_interaction:PRO:131>  (482) 
0

>  <hydroph_interaction:ASP:129>  (482) 
0

>  <saltbridge:ASP:75>  (482) 
0

>  <saltbridge:ASP:83>  (482) 
0

>  <hbond:ASN:152>  (482) 
0

>  <hydroph_interaction:ASN:152>  (482) 
0

>  <halogenbond:TYR:150>  (482) 
0

>  <hbond:ASP:83>  (482) 
0

>  <hydroph_interaction:VAL:155>  (482) 
0

>  <pication:TYR:161>  (482) 
0

>  <hbond:PRO:131>  (482) 
0

>  <saltbridge:ASP:129>  (482) 
0

>  <hbond:THR:134>  (482) 
0

>  <pication:HIS:51>  (482) 
0

>  <hbond:SER:81>  (482) 
0

>  <hydroph_interaction:THR:134>  (482) 
0

>  <hydroph_interaction:MET:49>  (482) 
0

$$$$
CSCS03437706644
     RDKit          3D

 33 35  0  0  0  0  0  0  0  0999 V2000
   -8.1720    5.8900   -8.0960 C   0  0  0  0  0  0  0  0  0  0  0  0
   -8.4170    5.6440   -9.5730 C   0  0  0  0  0  0  0  0  0  0  0  0
   -8.5050    4.2090  -10.0350 C   0  0  0  0  0  0  0  0  0  0  0  0
   -8.7510    3.9340  -11.5000 C   0  0  0  0  0  0  0  0  0  0  0  0
   -8.9010    5.1460  -12.4190 C   0  0  0  0  0  0  0  0  0  0  0  0
   -9.2220    4.8820  -14.1250 S   0  0  0  0  0  0  0  0  0  0  0  0
   -7.9980    5.6500  -15.2340 C   0  0  0  0  0  0  0  0  0  0  0  0
   -6.5460    5.2130  -15.1640 C   0  0  0  0  0  0  0  0  0  0  0  0
   -5.9580    5.6770  -16.8100 S   0  0  0  0  0  6  0  0  0  0  0  0
   -5.8280    7.0940  -16.9150 O   0  0  0  0  0  0  0  0  0  0  0  0
   -4.9420    4.7620  -17.2690 O   0  0  0  0  0  0  0  0  0  0  0  0
   -7.4670    5.2750  -17.5730 C   0  0  0  0  0  0  0  0  0  0  0  0
   -7.7250    4.9800  -18.9060 C   0  0  0  0  0  0  0  0  0  0  0  0
   -9.0300    4.6630  -19.2850 C   0  0  0  0  0  0  0  0  0  0  0  0
  -10.0350    4.6460  -18.3070 C   0  0  0  0  0  0  0  0  0  0  0  0
   -9.7320    4.9530  -16.9810 C   0  0  0  0  0  0  0  0  0  0  0  0
   -8.4510    5.2790  -16.6150 C   0  0  0  0  0  0  0  0  0  0  0  0
   -8.8020    6.4390  -11.8910 C   0  0  0  0  0  0  0  0  0  0  0  0
   -8.5680    6.6790  -10.5180 C   0  0  0  0  0  0  0  0  0  0  0  0
   -7.5140    5.1240   -7.6690 H   0  0  0  0  0  0  0  0  0  0  0  0
   -7.7290    6.8710   -7.9150 H   0  0  0  0  0  0  0  0  0  0  0  0
   -9.1200    5.8590   -7.5510 H   0  0  0  0  0  0  0  0  0  0  0  0
   -8.3960    3.3740   -9.3320 H   0  0  0  0  0  0  0  0  0  0  0  0
   -8.8270    2.9140  -11.8970 H   0  0  0  0  0  0  0  0  0  0  0  0
   -8.0680    6.7410  -15.1650 H   0  0  0  0  0  0  0  0  0  0  0  0
   -6.3110    4.1600  -15.0470 H   0  0  0  0  0  0  0  0  0  0  0  0
   -5.9780    5.7820  -14.4260 H   0  0  0  0  0  0  0  0  0  0  0  0
   -6.8990    5.0020  -19.6130 H   0  0  0  0  0  0  0  0  0  0  0  0
   -9.2600    4.4300  -20.3200 H   0  0  0  0  0  0  0  0  0  0  0  0
  -11.0620    4.3950  -18.5840 H   0  0  0  0  0  0  0  0  0  0  0  0
  -10.4990    4.9360  -16.2340 H   0  0  0  0  0  0  0  0  0  0  0  0
   -8.9110    7.2980  -12.5490 H   0  0  0  0  0  0  0  0  0  0  0  0
   -8.5060    7.7120  -10.1810 H   0  0  0  0  0  0  0  0  0  0  0  0
  1  2  1  0
  2  3  2  0
  3  4  1  0
  4  5  2  0
  5  6  1  0
  6  7  1  0
  7  8  1  0
  8  9  1  0
  9 10  2  0
  9 11  2  0
  9 12  1  0
 12 13  2  0
 13 14  1  0
 14 15  2  0
 15 16  1  0
 16 17  2  0
  5 18  1  0
 18 19  2  0
 19  2  1  0
 17  7  1  0
 17 12  1  0
  1 20  1  0
  1 21  1  0
  1 22  1  0
  3 23  1  0
  4 24  1  0
  7 25  1  0
  8 26  1  0
  8 27  1  0
 13 28  1  0
 14 29  1  0
 15 30  1  0
 16 31  1  0
 18 32  1  0
 19 33  1  0
A    1
 C1 
A    2
 C2 
A    3
 C3 
A    4
 C4 
A    5
 C5 
A    6
 S1 
A    7
 C6 
A    8
 C7 
A    9
 S2 
A   10
 O1 
A   11
 O2 
A   12
 C8 
A   13
 C9 
A   14
 C10
A   15
 C11
A   16
 C12
A   17
 C13
A   18
 C14
A   19
 C15
A   20
 H1 
A   21
 H2 
A   22
 H3 
A   23
 H4 
A   24
 H5 
A   25
 H6 
A   26
 H7 
A   27
 H8 
A   28
 H9 
A   29
 H10
A   30
 H11
A   31
 H12
A   32
 H13
A   33
 H14
M  END
>  <ref_pdb>  (483) 
x0051_0B

>  <ref_mols>  (483) 
x1098_0B,x0455_0B

>  <original SMILES>  (483) 
[H]c1c([H])c([H])c2c(c1[H])C([H])(Sc1c([H])c([H])c(C([H])([H])[H])c([H])c1[H])C([H])([H])S2(=O)=O

>  <index>  (483) 
582

>  <∆∆G>  (483) 
-7.652226

>  <∆G_bound>  (483) 
-7.56563

>  <∆G_unbound>  (483) 
0.086596

>  <comRMSD>  (483) 
0.682583

>  <N_constrained_atoms>  (483) 
18.0

>  <N_unconstrained_atoms>  (483) 
2.0

>  <runtime>  (483) 
72.365422

>  <LE>  (483) 
0.382611

>  <percent_hybrid>  (483) 
12.0

>  <dist>  (483) 
9.0

>  <ecfp4>  (483) 
0.097222

>  <daylight>  (483) 
0.126087

>  <topodist>  (483) 
3.0

>  <mces>  (483) 
20.0

>  <tdn>  (483) 
1.0

>  <tup>  (483) 
0.0

>  <rdn>  (483) 
0.0

>  <rup>  (483) 
0.0

>  <ldn>  (483) 
1.0

>  <lup>  (483) 
1.0

>  <mut>  (483) 
6.0

>  <maj>  (483) 
6.0

>  <min>  (483) 
0.0

>  <hyb>  (483) 
0.0

>  <sub>  (483) 
1.0

>  <query_index>  (483) 
72.0

>  <max_hit_Tanimoto>  (483) 
0.202128

>  <largest_ring>  (483) 
6

>  <N_interactions_kept>  (483) 
3.0

>  <N_interactions_lost>  (483) 
2.0

>  <interaction_uniqueness_metric>  (483) 
0.116343

>  <ad_hoc_penalty>  (483) 
-20.219672

>  <N_rotatable_bonds>  (483) 
3

>  <N_HA>  (483) 
19

>  <cluster>  (483) 
5686

>  <N_interactions>  (483) 
5

>  <Enamine>  (483) 
1

>  <Mcule>  (483) 
0

>  <N_PAINS>  (483) 
0

>  <UFF_Gibbs>  (483) 
73.453726

>  <strain_per_HA>  (483) 
3.865986

>  <intxn_scored>  (483) 
7.5

>  <saltbridge:HIS:51>  (483) 
0

>  <pistack:HIS:51>  (483) 
1

>  <hydroph_interaction:HIS:51>  (483) 
1

>  <hbond:ALA:132>  (483) 
0

>  <hbond:SER:135>  (483) 
0

>  <hydroph_interaction:TYR:150>  (483) 
1

>  <pistack:TYR:161>  (483) 
1

>  <hydroph_interaction:TYR:161>  (483) 
0

>  <hydroph_interaction:ASP:83>  (483) 
0

>  <hbond:TYR:130>  (483) 
0

>  <hydroph_interaction:ALA:132>  (483) 
1

>  <hbond:HIS:51>  (483) 
0

>  <hbond:ASP:129>  (483) 
0

>  <hbond:TYR:150>  (483) 
0

>  <hbond:GLY:151>  (483) 
0

>  <hbond:TYR:161>  (483) 
0

>  <hydroph_interaction:TYR:130>  (483) 
0

>  <hydroph_interaction:PRO:131>  (483) 
0

>  <hydroph_interaction:ASP:129>  (483) 
0

>  <saltbridge:ASP:75>  (483) 
0

>  <saltbridge:ASP:83>  (483) 
0

>  <hbond:ASN:152>  (483) 
0

>  <hydroph_interaction:ASN:152>  (483) 
0

>  <halogenbond:TYR:150>  (483) 
0

>  <hbond:ASP:83>  (483) 
0

>  <hydroph_interaction:VAL:155>  (483) 
0

>  <pication:TYR:161>  (483) 
0

>  <hbond:PRO:131>  (483) 
0

>  <saltbridge:ASP:129>  (483) 
0

>  <hbond:THR:134>  (483) 
0

>  <pication:HIS:51>  (483) 
0

>  <hbond:SER:81>  (483) 
0

>  <hydroph_interaction:THR:134>  (483) 
0

>  <hydroph_interaction:MET:49>  (483) 
0

$$$$
Z4192072491
     RDKit          3D

 33 34  0  0  0  0  0  0  0  0999 V2000
   -1.7440    4.1070  -19.5670 C   0  0  0  0  0  0  0  0  0  0  0  0
   -2.4520    4.9260  -20.6360 C   0  0  0  0  0  0  0  0  0  0  0  0
   -3.5280    5.8690  -20.0760 C   0  0  2  0  0  0  0  0  0  0  0  0
   -2.9640    7.1990  -19.5810 C   0  0  0  0  0  0  0  0  0  0  0  0
   -4.2020    5.2950  -18.9570 N   0  0  0  0  0  0  0  0  0  0  0  0
   -5.6530    5.2210  -18.7660 C   0  0  0  0  0  0  0  0  0  0  0  0
   -6.6550    5.1080  -19.6220 N   0  0  0  0  0  0  0  0  0  0  0  0
   -7.7800    5.0440  -18.8230 C   0  0  0  0  0  0  0  0  0  0  0  0
   -9.2580    4.8900  -19.1630 C   0  0  0  0  0  0  0  0  0  0  0  0
  -10.3050    4.8350  -18.0620 C   0  0  0  0  0  0  0  0  0  0  0  0
   -9.7340    4.9530  -16.6610 C   0  0  0  0  0  0  0  0  0  0  0  0
   -8.3600    5.0960  -16.4370 C   0  0  0  0  0  0  0  0  0  0  0  0
   -7.8460    5.1980  -15.1580 C   0  0  0  0  0  0  0  0  0  0  0  0
   -7.3340    5.2730  -14.1250 N   0  0  0  0  0  0  0  0  0  0  0  0
   -7.4450    5.1370  -17.4810 C   0  0  0  0  0  0  0  0  0  0  0  0
   -6.0980    5.2530  -17.4840 N   0  0  0  0  0  0  0  0  0  0  0  0
   -5.2840    5.3720  -16.3030 C   0  0  0  0  0  0  0  0  0  0  0  0
   -2.3670    4.0600  -18.6690 H   0  0  0  0  0  0  0  0  0  0  0  0
   -0.7880    4.5610  -19.3040 H   0  0  0  0  0  0  0  0  0  0  0  0
   -1.5470    3.0890  -19.9220 H   0  0  0  0  0  0  0  0  0  0  0  0
   -1.6990    5.5300  -21.1400 H   0  0  0  0  0  0  0  0  0  0  0  0
   -2.8850    4.2470  -21.3790 H   0  0  0  0  0  0  0  0  0  0  0  0
   -4.2640    6.0780  -20.8610 H   0  0  0  0  0  0  0  0  0  0  0  0
   -3.7860    7.9030  -19.4220 H   0  0  0  0  0  0  0  0  0  0  0  0
   -2.2650    7.5790  -20.3310 H   0  0  0  0  0  0  0  0  0  0  0  0
   -2.4320    7.0830  -18.6300 H   0  0  0  0  0  0  0  0  0  0  0  0
   -3.5900    5.1300  -18.1660 H   0  0  0  0  0  0  0  0  0  0  0  0
   -9.5760    4.8140  -20.2110 H   0  0  0  0  0  0  0  0  0  0  0  0
  -11.3670    4.7240  -18.2670 H   0  0  0  0  0  0  0  0  0  0  0  0
  -10.3850    4.9240  -15.7960 H   0  0  0  0  0  0  0  0  0  0  0  0
   -5.6370    4.6410  -15.5720 H   0  0  0  0  0  0  0  0  0  0  0  0
   -5.3490    6.3760  -15.8810 H   0  0  0  0  0  0  0  0  0  0  0  0
   -4.2440    5.1840  -16.5730 H   0  0  0  0  0  0  0  0  0  0  0  0
  1  2  1  0
  2  3  1  0
  3  4  1  0
  3  5  1  0
  5  6  1  0
  6  7  2  0
  7  8  1  0
  8  9  2  0
  9 10  1  0
 10 11  2  0
 11 12  1  0
 12 13  1  0
 13 14  3  0
 12 15  2  0
 15 16  1  0
 16 17  1  0
 16  6  1  0
 15  8  1  0
  1 18  1  0
  1 19  1  0
  1 20  1  0
  2 21  1  0
  2 22  1  0
  3 23  1  6
  4 24  1  0
  4 25  1  0
  4 26  1  0
  5 27  1  0
  9 28  1  0
 10 29  1  0
 11 30  1  0
 17 31  1  0
 17 32  1  0
 17 33  1  0
A    1
 C1 
A    2
 C2 
A    3
 C3 
A    4
 C4 
A    5
 N1 
A    6
 C5 
A    7
 N2 
A    8
 C6 
A    9
 C7 
A   10
 C8 
A   11
 C9 
A   12
 C10
A   13
 C11
A   14
 N3 
A   15
 C12
A   16
 N4 
A   17
 C13
A   18
 H1 
A   19
 H2 
A   20
 H3 
A   21
 H4 
A   22
 H5 
A   23
 H6 
A   24
 H7 
A   25
 H8 
A   26
 H9 
A   27
 H10
A   28
 H11
A   29
 H12
A   30
 H13
A   31
 H14
A   32
 H15
A   33
 H16
M  END
>  <ref_pdb>  (484) 
x0051_0B

>  <ref_mols>  (484) 
x0089_0B,x0455_0B

>  <original SMILES>  (484) 
[H]c1c([H])c(C#N)c2c(nc(N([H])[C@@]([H])(C([H])([H])[H])C([H])([H])C([H])([H])[H])n2C([H])([H])[H])c1[H]

>  <index>  (484) 
2600

>  <∆∆G>  (484) 
-7.562519

>  <∆G_bound>  (484) 
-7.241202

>  <∆G_unbound>  (484) 
0.321317

>  <comRMSD>  (484) 
0.66022

>  <N_constrained_atoms>  (484) 
16.0

>  <N_unconstrained_atoms>  (484) 
1.0

>  <runtime>  (484) 
27.185288

>  <LE>  (484) 
0.444854

>  <percent_hybrid>  (484) 
34.0

>  <dist>  (484) 
4.0

>  <ecfp4>  (484) 
0.344262

>  <daylight>  (484) 
0.52809

>  <topodist>  (484) 
2.0

>  <mces>  (484) 
17.0

>  <tdn>  (484) 
0.0

>  <tup>  (484) 
1.0

>  <rdn>  (484) 
1.0

>  <rup>  (484) 
0.0

>  <ldn>  (484) 
0.0

>  <lup>  (484) 
0.0

>  <mut>  (484) 
1.0

>  <maj>  (484) 
1.0

>  <min>  (484) 
0.0

>  <hyb>  (484) 
1.0

>  <sub>  (484) 
2.0

>  <query_index>  (484) 
166.0

>  <max_hit_Tanimoto>  (484) 
0.361673

>  <largest_ring>  (484) 
6

>  <N_interactions_kept>  (484) 
0.0

>  <N_interactions_lost>  (484) 
3.0

>  <interaction_uniqueness_metric>  (484) 
0.078036

>  <ad_hoc_penalty>  (484) 
-2.783712

>  <N_rotatable_bonds>  (484) 
6

>  <N_HA>  (484) 
17

>  <cluster>  (484) 
3824

>  <N_interactions>  (484) 
6

>  <Enamine>  (484) 
1

>  <Mcule>  (484) 
0

>  <N_PAINS>  (484) 
0

>  <UFF_Gibbs>  (484) 
110.945897

>  <strain_per_HA>  (484) 
6.526229

>  <intxn_scored>  (484) 
7.5

>  <saltbridge:HIS:51>  (484) 
0

>  <pistack:HIS:51>  (484) 
0

>  <hydroph_interaction:HIS:51>  (484) 
0

>  <hbond:ALA:132>  (484) 
0

>  <hbond:SER:135>  (484) 
0

>  <hydroph_interaction:TYR:150>  (484) 
1

>  <pistack:TYR:161>  (484) 
1

>  <hydroph_interaction:TYR:161>  (484) 
3

>  <hydroph_interaction:ASP:83>  (484) 
0

>  <hbond:TYR:130>  (484) 
0

>  <hydroph_interaction:ALA:132>  (484) 
0

>  <hbond:HIS:51>  (484) 
0

>  <hbond:ASP:129>  (484) 
0

>  <hbond:TYR:150>  (484) 
0

>  <hbond:GLY:151>  (484) 
0

>  <hbond:TYR:161>  (484) 
0

>  <hydroph_interaction:TYR:130>  (484) 
0

>  <hydroph_interaction:PRO:131>  (484) 
0

>  <hydroph_interaction:ASP:129>  (484) 
0

>  <saltbridge:ASP:75>  (484) 
0

>  <saltbridge:ASP:83>  (484) 
0

>  <hbond:ASN:152>  (484) 
0

>  <hydroph_interaction:ASN:152>  (484) 
0

>  <halogenbond:TYR:150>  (484) 
0

>  <hbond:ASP:83>  (484) 
0

>  <hydroph_interaction:VAL:155>  (484) 
1

>  <pication:TYR:161>  (484) 
0

>  <hbond:PRO:131>  (484) 
0

>  <saltbridge:ASP:129>  (484) 
0

>  <hbond:THR:134>  (484) 
0

>  <pication:HIS:51>  (484) 
0

>  <hbond:SER:81>  (484) 
0

>  <hydroph_interaction:THR:134>  (484) 
0

>  <hydroph_interaction:MET:49>  (484) 
0

$$$$
Z1272205416
     RDKit          3D

 31 33  0  0  0  0  0  0  0  0999 V2000
   -2.2840    5.5380  -19.2530 N   0  0  0  0  0  0  0  0  0  0  0  0
   -3.4330    5.5290  -19.1050 C   0  0  0  0  0  0  0  0  0  0  0  0
   -4.9390    5.4010  -18.9640 C   0  0  0  0  0  0  0  0  0  0  0  0
   -5.7620    5.2020  -20.2240 C   0  0  0  0  0  0  0  0  0  0  0  0
   -7.1030    5.0530  -20.1720 N   0  0  0  0  0  0  0  0  0  0  0  0
   -7.7540    5.0750  -18.8860 C   0  0  0  0  0  0  0  0  0  0  0  0
   -9.2510    4.8580  -19.0260 C   0  0  0  0  0  0  0  0  0  0  0  0
  -10.0640    4.8460  -17.7300 C   0  0  0  0  0  0  0  0  0  0  0  0
   -9.3810    5.0420  -16.5080 C   0  0  0  0  0  0  0  0  0  0  0  0
   -8.0000    5.2430  -16.4140 C   0  0  0  0  0  0  0  0  0  0  0  0
   -7.1210    5.2610  -17.6440 C   0  0  0  0  0  0  0  0  0  0  0  0
   -5.6880    5.4430  -17.6130 C   0  0  0  0  0  0  0  0  0  0  0  0
   -5.0340    5.6360  -16.3740 N   0  0  0  0  0  0  0  0  0  0  0  0
   -5.3190    6.9350  -15.7270 C   0  0  0  0  0  0  0  0  0  0  0  0
   -4.3590    7.2380  -14.7630 C   0  0  0  0  0  0  0  0  0  0  0  0
   -3.8900    5.8120  -13.7240 S   0  0  0  0  0  0  0  0  0  0  0  0
   -3.2930    4.6860  -15.0280 C   0  0  0  0  0  0  0  0  0  0  0  0
   -3.6550    5.1370  -16.3050 C   0  0  0  0  0  0  0  0  0  0  0  0
   -5.3200    5.1630  -21.2190 H   0  0  0  0  0  0  0  0  0  0  0  0
   -9.7100    4.7180  -20.0020 H   0  0  0  0  0  0  0  0  0  0  0  0
  -11.1360    4.6930  -17.7700 H   0  0  0  0  0  0  0  0  0  0  0  0
   -9.9580    5.0380  -15.5860 H   0  0  0  0  0  0  0  0  0  0  0  0
   -7.5590    5.3840  -15.4310 H   0  0  0  0  0  0  0  0  0  0  0  0
   -5.3830    7.7410  -16.4690 H   0  0  0  0  0  0  0  0  0  0  0  0
   -6.2930    6.8850  -15.2250 H   0  0  0  0  0  0  0  0  0  0  0  0
   -4.7320    8.0240  -14.0960 H   0  0  0  0  0  0  0  0  0  0  0  0
   -3.4520    7.6190  -15.2440 H   0  0  0  0  0  0  0  0  0  0  0  0
   -3.7620    3.7180  -14.8400 H   0  0  0  0  0  0  0  0  0  0  0  0
   -2.2320    4.5350  -14.8380 H   0  0  0  0  0  0  0  0  0  0  0  0
   -3.0350    5.9230  -16.7210 H   0  0  0  0  0  0  0  0  0  0  0  0
   -3.5220    4.2930  -16.9930 H   0  0  0  0  0  0  0  0  0  0  0  0
  1  2  3  0
  2  3  1  0
  3  4  2  0
  4  5  1  0
  5  6  2  0
  6  7  1  0
  7  8  2  0
  8  9  1  0
  9 10  2  0
 10 11  1  0
 11 12  2  0
 12 13  1  0
 13 14  1  0
 14 15  1  0
 15 16  1  0
 16 17  1  0
 17 18  1  0
 12  3  1  0
 11  6  1  0
 18 13  1  0
  4 19  1  0
  7 20  1  0
  8 21  1  0
  9 22  1  0
 10 23  1  0
 14 24  1  0
 14 25  1  0
 15 26  1  0
 15 27  1  0
 17 28  1  0
 17 29  1  0
 18 30  1  0
 18 31  1  0
A    1
 N1 
A    2
 C1 
A    3
 C2 
A    4
 C3 
A    5
 N2 
A    6
 C4 
A    7
 C5 
A    8
 C6 
A    9
 C7 
A   10
 C8 
A   11
 C9 
A   12
 C10
A   13
 N3 
A   14
 C11
A   15
 C12
A   16
 S1 
A   17
 C13
A   18
 C14
A   19
 H1 
A   20
 H2 
A   21
 H3 
A   22
 H4 
A   23
 H5 
A   24
 H6 
A   25
 H7 
A   26
 H8 
A   27
 H9 
A   28
 H10
A   29
 H11
A   30
 H12
A   31
 H13
M  END
>  <ref_pdb>  (485) 
x0051_0B

>  <ref_mols>  (485) 
x0429_0B,x0089_0B

>  <original SMILES>  (485) 
[H]c1nc2c([H])c([H])c([H])c([H])c2c(N2C([H])([H])C([H])([H])SC([H])([H])C2([H])[H])c1C#N

>  <index>  (485) 
2279

>  <∆∆G>  (485) 
-6.232619

>  <∆G_bound>  (485) 
-5.158882

>  <∆G_unbound>  (485) 
1.073736

>  <comRMSD>  (485) 
0.465537

>  <N_constrained_atoms>  (485) 
18.0

>  <N_unconstrained_atoms>  (485) 
0.0

>  <runtime>  (485) 
24.571933

>  <LE>  (485) 
0.346257

>  <percent_hybrid>  (485) 
25.0

>  <dist>  (485) 
5.0

>  <ecfp4>  (485) 
0.381818

>  <daylight>  (485) 
0.40411

>  <topodist>  (485) 
2.0

>  <mces>  (485) 
20.0

>  <tdn>  (485) 
1.0

>  <tup>  (485) 
0.0

>  <rdn>  (485) 
0.0

>  <rup>  (485) 
0.0

>  <ldn>  (485) 
1.0

>  <lup>  (485) 
0.0

>  <mut>  (485) 
2.0

>  <maj>  (485) 
2.0

>  <min>  (485) 
0.0

>  <hyb>  (485) 
1.0

>  <sub>  (485) 
0.0

>  <query_index>  (485) 
103.0

>  <max_hit_Tanimoto>  (485) 
0.56044

>  <largest_ring>  (485) 
6

>  <N_interactions_kept>  (485) 
0.0

>  <N_interactions_lost>  (485) 
3.5

>  <interaction_uniqueness_metric>  (485) 
0.044868

>  <ad_hoc_penalty>  (485) 
-5.672111

>  <N_rotatable_bonds>  (485) 
1

>  <N_HA>  (485) 
18

>  <cluster>  (485) 
4125

>  <N_interactions>  (485) 
5

>  <Enamine>  (485) 
1

>  <Mcule>  (485) 
0

>  <N_PAINS>  (485) 
0

>  <UFF_Gibbs>  (485) 
91.503665

>  <strain_per_HA>  (485) 
5.083537

>  <intxn_scored>  (485) 
7.5

>  <saltbridge:HIS:51>  (485) 
0

>  <pistack:HIS:51>  (485) 
0

>  <hydroph_interaction:HIS:51>  (485) 
0

>  <hbond:ALA:132>  (485) 
0

>  <hbond:SER:135>  (485) 
0

>  <hydroph_interaction:TYR:150>  (485) 
1

>  <pistack:TYR:161>  (485) 
1

>  <hydroph_interaction:TYR:161>  (485) 
3

>  <hydroph_interaction:ASP:83>  (485) 
0

>  <hbond:TYR:130>  (485) 
0

>  <hydroph_interaction:ALA:132>  (485) 
0

>  <hbond:HIS:51>  (485) 
0

>  <hbond:ASP:129>  (485) 
0

>  <hbond:TYR:150>  (485) 
0

>  <hbond:GLY:151>  (485) 
0

>  <hbond:TYR:161>  (485) 
0

>  <hydroph_interaction:TYR:130>  (485) 
0

>  <hydroph_interaction:PRO:131>  (485) 
0

>  <hydroph_interaction:ASP:129>  (485) 
0

>  <saltbridge:ASP:75>  (485) 
0

>  <saltbridge:ASP:83>  (485) 
0

>  <hbond:ASN:152>  (485) 
0

>  <hydroph_interaction:ASN:152>  (485) 
0

>  <halogenbond:TYR:150>  (485) 
0

>  <hbond:ASP:83>  (485) 
0

>  <hydroph_interaction:VAL:155>  (485) 
0

>  <pication:TYR:161>  (485) 
0

>  <hbond:PRO:131>  (485) 
0

>  <saltbridge:ASP:129>  (485) 
0

>  <hbond:THR:134>  (485) 
0

>  <pication:HIS:51>  (485) 
0

>  <hbond:SER:81>  (485) 
0

>  <hydroph_interaction:THR:134>  (485) 
0

>  <hydroph_interaction:MET:49>  (485) 
0

$$$$
CSSS00000077067
     RDKit          3D

 22 24  0  0  0  0  0  0  0  0999 V2000
   -5.0130    5.7110  -15.0830 O   0  0  0  0  0  0  0  0  0  0  0  0
   -4.8320    5.4700  -16.2540 C   0  0  0  0  0  0  0  0  0  0  0  0
   -3.4930    5.2370  -16.8870 C   0  0  0  0  0  0  0  0  0  0  0  0
   -3.6880    5.5230  -18.2770 O   0  0  0  0  0  0  0  0  0  0  0  0
   -5.0270    5.3820  -18.4820 C   0  0  0  0  0  0  0  0  0  0  0  0
   -5.8040    5.3410  -17.3270 C   0  0  0  0  0  0  0  0  0  0  0  0
   -7.1910    5.1940  -17.4020 C   0  0  0  0  0  0  0  0  0  0  0  0
   -8.0530    5.1420  -16.2880 C   0  0  0  0  0  0  0  0  0  0  0  0
   -9.4290    4.9770  -16.4820 C   0  0  0  0  0  0  0  0  0  0  0  0
   -9.9560    4.8620  -17.7750 C   0  0  0  0  0  0  0  0  0  0  0  0
   -9.1140    4.9160  -18.8810 C   0  0  0  0  0  0  0  0  0  0  0  0
   -7.7450    5.0840  -18.6900 C   0  0  0  0  0  0  0  0  0  0  0  0
   -6.9050    5.1320  -19.9490 C   0  0  0  0  0  0  0  0  0  0  0  0
   -5.5400    5.2860  -19.7570 C   0  0  0  0  0  0  0  0  0  0  0  0
   -3.1930    4.1940  -16.7760 H   0  0  0  0  0  0  0  0  0  0  0  0
   -2.7450    5.9200  -16.4800 H   0  0  0  0  0  0  0  0  0  0  0  0
   -7.6690    5.2230  -15.2720 H   0  0  0  0  0  0  0  0  0  0  0  0
  -10.0930    4.9370  -15.6220 H   0  0  0  0  0  0  0  0  0  0  0  0
  -11.0230    4.7340  -17.9200 H   0  0  0  0  0  0  0  0  0  0  0  0
   -9.5350    4.8270  -19.8830 H   0  0  0  0  0  0  0  0  0  0  0  0
   -7.3260    5.0480  -20.9440 H   0  0  0  0  0  0  0  0  0  0  0  0
   -4.8750    5.3250  -20.6140 H   0  0  0  0  0  0  0  0  0  0  0  0
  1  2  2  0
  2  3  1  0
  3  4  1  0
  4  5  1  0
  5  6  2  0
  6  7  1  0
  7  8  2  0
  8  9  1  0
  9 10  2  0
 10 11  1  0
 11 12  2  0
 12 13  1  0
 13 14  2  0
  6  2  1  0
 14  5  1  0
 12  7  1  0
  3 15  1  0
  3 16  1  0
  8 17  1  0
  9 18  1  0
 10 19  1  0
 11 20  1  0
 13 21  1  0
 14 22  1  0
A    1
 O1 
A    2
 C1 
A    3
 C2 
A    4
 O2 
A    5
 C3 
A    6
 C4 
A    7
 C5 
A    8
 C6 
A    9
 C7 
A   10
 C8 
A   11
 C9 
A   12
 C10
A   13
 C11
A   14
 C12
A   15
 H1 
A   16
 H2 
A   17
 H3 
A   18
 H4 
A   19
 H5 
A   20
 H6 
A   21
 H7 
A   22
 H8 
M  END
>  <ref_pdb>  (486) 
x0051_0B

>  <ref_mols>  (486) 
x0727_0B,x0800_0B

>  <original SMILES>  (486) 
[H]c1c([H])c([H])c2c3c(c([H])c([H])c2c1[H])OC([H])([H])C3=O

>  <index>  (486) 
2305

>  <∆∆G>  (486) 
-7.121847

>  <∆G_bound>  (486) 
-6.97177

>  <∆G_unbound>  (486) 
0.150077

>  <comRMSD>  (486) 
0.777846

>  <N_constrained_atoms>  (486) 
16.0

>  <N_unconstrained_atoms>  (486) 
0.0

>  <runtime>  (486) 
19.507802

>  <LE>  (486) 
0.445115

>  <percent_hybrid>  (486) 
45.0

>  <dist>  (486) 
3.0

>  <ecfp4>  (486) 
0.232558

>  <daylight>  (486) 
0.193182

>  <topodist>  (486) 
2.0

>  <mces>  (486) 
14.0

>  <tdn>  (486) 
0.0

>  <tup>  (486) 
1.0

>  <rdn>  (486) 
0.0

>  <rup>  (486) 
1.0

>  <ldn>  (486) 
0.0

>  <lup>  (486) 
0.0

>  <mut>  (486) 
1.0

>  <maj>  (486) 
1.0

>  <min>  (486) 
0.0

>  <hyb>  (486) 
0.0

>  <sub>  (486) 
2.0

>  <query_index>  (486) 
67.0

>  <max_hit_Tanimoto>  (486) 
0.159332

>  <largest_ring>  (486) 
6

>  <N_interactions_kept>  (486) 
0.0

>  <N_interactions_lost>  (486) 
4.0

>  <interaction_uniqueness_metric>  (486) 
0.044868

>  <ad_hoc_penalty>  (486) 
-9.155352

>  <N_rotatable_bonds>  (486) 
0

>  <N_HA>  (486) 
14

>  <cluster>  (486) 
4101

>  <N_interactions>  (486) 
5

>  <Enamine>  (486) 
1

>  <Mcule>  (486) 
0

>  <N_PAINS>  (486) 
0

>  <UFF_Gibbs>  (486) 
20.536222

>  <strain_per_HA>  (486) 
1.466873

>  <intxn_scored>  (486) 
7.5

>  <saltbridge:HIS:51>  (486) 
0

>  <pistack:HIS:51>  (486) 
0

>  <hydroph_interaction:HIS:51>  (486) 
0

>  <hbond:ALA:132>  (486) 
0

>  <hbond:SER:135>  (486) 
0

>  <hydroph_interaction:TYR:150>  (486) 
1

>  <pistack:TYR:161>  (486) 
1

>  <hydroph_interaction:TYR:161>  (486) 
3

>  <hydroph_interaction:ASP:83>  (486) 
0

>  <hbond:TYR:130>  (486) 
0

>  <hydroph_interaction:ALA:132>  (486) 
0

>  <hbond:HIS:51>  (486) 
0

>  <hbond:ASP:129>  (486) 
0

>  <hbond:TYR:150>  (486) 
0

>  <hbond:GLY:151>  (486) 
0

>  <hbond:TYR:161>  (486) 
0

>  <hydroph_interaction:TYR:130>  (486) 
0

>  <hydroph_interaction:PRO:131>  (486) 
0

>  <hydroph_interaction:ASP:129>  (486) 
0

>  <saltbridge:ASP:75>  (486) 
0

>  <saltbridge:ASP:83>  (486) 
0

>  <hbond:ASN:152>  (486) 
0

>  <hydroph_interaction:ASN:152>  (486) 
0

>  <halogenbond:TYR:150>  (486) 
0

>  <hbond:ASP:83>  (486) 
0

>  <hydroph_interaction:VAL:155>  (486) 
0

>  <pication:TYR:161>  (486) 
0

>  <hbond:PRO:131>  (486) 
0

>  <saltbridge:ASP:129>  (486) 
0

>  <hbond:THR:134>  (486) 
0

>  <pication:HIS:51>  (486) 
0

>  <hbond:SER:81>  (486) 
0

>  <hydroph_interaction:THR:134>  (486) 
0

>  <hydroph_interaction:MET:49>  (486) 
0

$$$$
Z5452755124
     RDKit          3D

 48 50  0  0  0  0  0  0  0  0999 V2000
   -2.3870    4.7940  -21.8310 C   0  0  0  0  0  0  0  0  0  0  0  0
   -3.6670    5.3440  -21.4030 N   0  0  0  0  0  0  0  0  0  0  0  0
   -4.7190    5.3400  -22.3940 C   0  0  0  0  0  0  0  0  0  0  0  0
   -4.1280    5.3820  -20.0740 C   0  0  0  0  0  0  0  0  0  0  0  0
   -3.3850    5.0830  -19.1410 O   0  0  0  0  0  0  0  0  0  0  0  0
   -5.4660    5.7550  -19.8220 C   0  0  0  0  0  0  0  0  0  0  0  0
   -5.8310    5.7960  -18.4500 O   0  0  0  0  0  0  0  0  0  0  0  0
   -7.1110    5.4560  -18.1500 C   0  0  0  0  0  0  0  0  0  0  0  0
   -8.1330    5.0010  -19.1410 C   0  0  0  0  0  0  0  0  0  0  0  0
   -9.4090    4.6840  -18.6910 C   0  0  0  0  0  0  0  0  0  0  0  0
   -9.7260    4.7890  -17.3410 C   0  0  0  0  0  0  0  0  0  0  0  0
   -8.7960    5.2100  -16.3850 C   0  0  0  0  0  0  0  0  0  0  0  0
   -9.4160    5.2130  -15.0130 N   0  0  0  0  0  0  0  0  0  0  0  0
   -8.7520    5.8510  -13.8050 C   0  0  0  0  0  0  0  0  0  0  0  0
   -8.2310    6.9650  -13.7520 O   0  0  0  0  0  0  0  0  0  0  0  0
   -8.7890    4.9100  -12.5370 C   0  0  0  0  0  0  0  0  0  0  0  0
   -8.8160    5.3300  -11.1570 C   0  0  0  0  0  0  0  0  0  0  0  0
   -8.9340    4.2980  -10.0550 C   0  0  0  0  0  0  0  0  0  0  0  0
   -9.0260    2.9810  -10.1310 O   0  0  0  0  0  0  0  0  0  0  0  0
   -9.4370    2.2540   -8.9620 C   0  0  0  0  0  0  0  0  0  0  0  0
   -9.5450    2.9700   -7.6130 C   0  0  0  0  0  0  0  0  0  0  0  0
   -9.0100    4.3980   -7.5820 C   0  0  0  0  0  0  0  0  0  0  0  0
   -8.9240    5.0040   -8.8950 N   0  0  0  0  0  0  0  0  0  0  0  0
   -8.8220    6.3450   -9.0710 N   0  0  0  0  0  0  0  0  0  0  0  0
   -8.7590    6.5460  -10.4200 C   0  0  0  0  0  0  0  0  0  0  0  0
   -7.4900    5.5440  -16.7880 C   0  0  0  0  0  0  0  0  0  0  0  0
   -1.8270    4.3160  -21.0190 H   0  0  0  0  0  0  0  0  0  0  0  0
   -1.7710    5.5890  -22.2620 H   0  0  0  0  0  0  0  0  0  0  0  0
   -2.5720    4.0440  -22.6090 H   0  0  0  0  0  0  0  0  0  0  0  0
   -5.2960    4.4090  -22.3390 H   0  0  0  0  0  0  0  0  0  0  0  0
   -5.4010    6.1870  -22.2440 H   0  0  0  0  0  0  0  0  0  0  0  0
   -4.2500    5.4380  -23.3780 H   0  0  0  0  0  0  0  0  0  0  0  0
   -6.0930    4.9880  -20.2700 H   0  0  0  0  0  0  0  0  0  0  0  0
   -5.7060    6.7000  -20.3190 H   0  0  0  0  0  0  0  0  0  0  0  0
   -7.9250    4.9060  -20.2010 H   0  0  0  0  0  0  0  0  0  0  0  0
  -10.1570    4.3580  -19.3860 H   0  0  0  0  0  0  0  0  0  0  0  0
  -10.7380    4.5240  -17.0560 H   0  0  0  0  0  0  0  0  0  0  0  0
   -9.8490    4.3060  -14.8230 H   0  0  0  0  0  0  0  0  0  0  0  0
   -9.5770    4.1580  -12.5820 H   0  0  0  0  0  0  0  0  0  0  0  0
   -7.8730    4.3170  -12.6530 H   0  0  0  0  0  0  0  0  0  0  0  0
  -10.4250    1.8790   -9.1910 H   0  0  0  0  0  0  0  0  0  0  0  0
   -8.7800    1.3910   -8.8530 H   0  0  0  0  0  0  0  0  0  0  0  0
  -10.5960    2.9700   -7.2910 H   0  0  0  0  0  0  0  0  0  0  0  0
   -8.9990    2.3770   -6.8690 H   0  0  0  0  0  0  0  0  0  0  0  0
   -7.9910    4.3910   -7.1680 H   0  0  0  0  0  0  0  0  0  0  0  0
   -9.6220    5.0310   -6.9310 H   0  0  0  0  0  0  0  0  0  0  0  0
   -8.6730    7.5720  -10.8010 H   0  0  0  0  0  0  0  0  0  0  0  0
   -6.7400    5.8730  -16.0750 H   0  0  0  0  0  0  0  0  0  0  0  0
  1  2  1  0
  2  3  1  0
  2  4  1  0
  4  5  2  0
  4  6  1  0
  6  7  1  0
  7  8  1  0
  8  9  2  0
  9 10  1  0
 10 11  2  0
 11 12  1  0
 12 13  1  0
 13 14  1  0
 14 15  2  0
 14 16  1  0
 16 17  1  0
 17 18  2  0
 18 19  1  0
 19 20  1  0
 20 21  1  0
 21 22  1  0
 22 23  1  0
 23 24  1  0
 24 25  2  0
 12 26  2  0
 26  8  1  0
 25 17  1  0
 23 18  1  0
  1 27  1  0
  1 28  1  0
  1 29  1  0
  3 30  1  0
  3 31  1  0
  3 32  1  0
  6 33  1  0
  6 34  1  0
  9 35  1  0
 10 36  1  0
 11 37  1  0
 13 38  1  0
 16 39  1  0
 16 40  1  0
 20 41  1  0
 20 42  1  0
 21 43  1  0
 21 44  1  0
 22 45  1  0
 22 46  1  0
 25 47  1  0
 26 48  1  0
A    1
 C1 
A    2
 N1 
A    3
 C2 
A    4
 C3 
A    5
 O1 
A    6
 C4 
A    7
 O2 
A    8
 C5 
A    9
 C6 
A   10
 C7 
A   11
 C8 
A   12
 C9 
A   13
 N2 
A   14
 C10
A   15
 O3 
A   16
 C11
A   17
 C12
A   18
 C13
A   19
 O4 
A   20
 C14
A   21
 C15
A   22
 C16
A   23
 N3 
A   24
 N4 
A   25
 C17
A   26
 C18
A   27
 H1 
A   28
 H2 
A   29
 H3 
A   30
 H4 
A   31
 H5 
A   32
 H6 
A   33
 H7 
A   34
 H8 
A   35
 H9 
A   36
 H10
A   37
 H11
A   38
 H12
A   39
 H13
A   40
 H14
A   41
 H15
A   42
 H16
A   43
 H17
A   44
 H18
A   45
 H19
A   46
 H20
A   47
 H21
A   48
 H22
M  END
>  <ref_pdb>  (487) 
x0051_0B

>  <ref_mols>  (487) 
x0969_1B,x0904_0B

>  <original SMILES>  (487) 
[H]c1nn2c(c1C([H])([H])C(=O)N([H])c1c([H])c([H])c([H])c(OC([H])([H])C(=O)N(C([H])([H])[H])C([H])([H])[H])c1[H])OC([H])([H])C([H])([H])C2([H])[H]

>  <index>  (487) 
1359

>  <∆∆G>  (487) 
-9.816706

>  <∆G_bound>  (487) 
-8.547856

>  <∆G_unbound>  (487) 
1.26885

>  <comRMSD>  (487) 
0.579171

>  <N_constrained_atoms>  (487) 
24.0

>  <N_unconstrained_atoms>  (487) 
2.0

>  <runtime>  (487) 
79.965561

>  <LE>  (487) 
0.377566

>  <percent_hybrid>  (487) 
42.0

>  <dist>  (487) 
6.0

>  <ecfp4>  (487) 
0.557143

>  <daylight>  (487) 
0.347541

>  <topodist>  (487) 
2.0

>  <mces>  (487) 
27.0

>  <tdn>  (487) 
0.0

>  <tup>  (487) 
1.0

>  <rdn>  (487) 
0.0

>  <rup>  (487) 
0.0

>  <ldn>  (487) 
1.0

>  <lup>  (487) 
0.0

>  <mut>  (487) 
3.0

>  <maj>  (487) 
3.0

>  <min>  (487) 
0.0

>  <hyb>  (487) 
1.0

>  <sub>  (487) 
0.0

>  <query_index>  (487) 
111.0

>  <max_hit_Tanimoto>  (487) 
0.246824

>  <largest_ring>  (487) 
6

>  <N_interactions_kept>  (487) 
1.0

>  <N_interactions_lost>  (487) 
2.5

>  <interaction_uniqueness_metric>  (487) 
0.153767

>  <ad_hoc_penalty>  (487) 
-13.095692

>  <N_rotatable_bonds>  (487) 
8

>  <N_HA>  (487) 
26

>  <cluster>  (487) 
4972

>  <N_interactions>  (487) 
6

>  <Enamine>  (487) 
1

>  <Mcule>  (487) 
0

>  <N_PAINS>  (487) 
0

>  <UFF_Gibbs>  (487) 
116.391193

>  <strain_per_HA>  (487) 
4.476584

>  <intxn_scored>  (487) 
7.5

>  <saltbridge:HIS:51>  (487) 
0

>  <pistack:HIS:51>  (487) 
1

>  <hydroph_interaction:HIS:51>  (487) 
1

>  <hbond:ALA:132>  (487) 
0

>  <hbond:SER:135>  (487) 
0

>  <hydroph_interaction:TYR:150>  (487) 
1

>  <pistack:TYR:161>  (487) 
1

>  <hydroph_interaction:TYR:161>  (487) 
0

>  <hydroph_interaction:ASP:83>  (487) 
0

>  <hbond:TYR:130>  (487) 
0

>  <hydroph_interaction:ALA:132>  (487) 
1

>  <hbond:HIS:51>  (487) 
0

>  <hbond:ASP:129>  (487) 
0

>  <hbond:TYR:150>  (487) 
0

>  <hbond:GLY:151>  (487) 
1

>  <hbond:TYR:161>  (487) 
0

>  <hydroph_interaction:TYR:130>  (487) 
0

>  <hydroph_interaction:PRO:131>  (487) 
0

>  <hydroph_interaction:ASP:129>  (487) 
0

>  <saltbridge:ASP:75>  (487) 
0

>  <saltbridge:ASP:83>  (487) 
0

>  <hbond:ASN:152>  (487) 
0

>  <hydroph_interaction:ASN:152>  (487) 
0

>  <halogenbond:TYR:150>  (487) 
0

>  <hbond:ASP:83>  (487) 
0

>  <hydroph_interaction:VAL:155>  (487) 
0

>  <pication:TYR:161>  (487) 
0

>  <hbond:PRO:131>  (487) 
0

>  <saltbridge:ASP:129>  (487) 
0

>  <hbond:THR:134>  (487) 
0

>  <pication:HIS:51>  (487) 
0

>  <hbond:SER:81>  (487) 
0

>  <hydroph_interaction:THR:134>  (487) 
0

>  <hydroph_interaction:MET:49>  (487) 
0

$$$$
CSSS00000740670
     RDKit          3D

 16 17  0  0  0  0  0  0  0  0999 V2000
   -6.2040    5.5810  -20.1950 N   0  0  0  0  0  0  0  0  0  0  0  0
   -6.4460    5.6250  -18.8250 C   0  0  0  0  0  0  0  0  0  0  0  0
   -7.7870    5.3280  -18.2120 C   0  0  0  0  0  0  0  0  0  0  0  0
   -8.9970    4.9490  -18.9290 C   0  0  0  0  0  0  0  0  0  0  0  0
  -10.1030    4.7340  -18.1700 C   0  0  0  0  0  0  0  0  0  0  0  0
   -9.6650    4.9990  -16.5230 S   0  0  0  0  0  0  0  0  0  0  0  0
   -8.0150    5.3870  -16.8690 C   0  0  0  0  0  0  0  0  0  0  0  0
   -6.9490    5.7270  -16.0890 C   0  0  0  0  0  0  0  0  0  0  0  0
   -5.6810    6.0050  -16.6250 C   0  0  0  0  0  0  0  0  0  0  0  0
   -5.4290    5.9560  -17.9690 N   0  0  0  0  0  0  0  0  0  0  0  0
   -7.0330    5.9120  -20.7120 H   0  0  0  0  0  0  0  0  0  0  0  0
   -5.3150    5.9640  -20.4830 H   0  0  0  0  0  0  0  0  0  0  0  0
   -9.0250    4.8460  -20.0110 H   0  0  0  0  0  0  0  0  0  0  0  0
  -11.1040    4.4510  -18.4630 H   0  0  0  0  0  0  0  0  0  0  0  0
   -7.0820    5.7840  -15.0160 H   0  0  0  0  0  0  0  0  0  0  0  0
   -4.8390    6.2720  -15.9930 H   0  0  0  0  0  0  0  0  0  0  0  0
  1  2  1  0
  2  3  2  0
  3  4  1  0
  4  5  2  0
  5  6  1  0
  6  7  1  0
  7  8  2  0
  8  9  1  0
  9 10  2  0
 10  2  1  0
  7  3  1  0
  1 11  1  0
  1 12  1  0
  4 13  1  0
  5 14  1  0
  8 15  1  0
  9 16  1  0
A    1
 N1 
A    2
 C1 
A    3
 C2 
A    4
 C3 
A    5
 C4 
A    6
 S1 
A    7
 C5 
A    8
 C6 
A    9
 C7 
A   10
 N2 
A   11
 H1 
A   12
 H2 
A   13
 H3 
A   14
 H4 
A   15
 H5 
A   16
 H6 
M  END
>  <ref_pdb>  (488) 
x0051_0B

>  <ref_mols>  (488) 
x0472_0B,x0386_0B

>  <original SMILES>  (488) 
[H]c1nc(N([H])[H])c2c([H])c([H])sc2c1[H]

>  <index>  (488) 
1199

>  <∆∆G>  (488) 
-5.801827

>  <∆G_bound>  (488) 
-5.715936

>  <∆G_unbound>  (488) 
0.085891

>  <comRMSD>  (488) 
0.452332

>  <N_constrained_atoms>  (488) 
10.0

>  <N_unconstrained_atoms>  (488) 
0.0

>  <runtime>  (488) 
21.830143

>  <LE>  (488) 
0.580183

>  <percent_hybrid>  (488) 
25.0

>  <dist>  (488) 
8.0

>  <ecfp4>  (488) 
0.068966

>  <daylight>  (488) 
0.135802

>  <topodist>  (488) 
4.0

>  <mces>  (488) 
11.0

>  <tdn>  (488) 
4.0

>  <tup>  (488) 
0.0

>  <rdn>  (488) 
0.0

>  <rup>  (488) 
0.0

>  <ldn>  (488) 
0.0

>  <lup>  (488) 
0.0

>  <mut>  (488) 
0.0

>  <maj>  (488) 
0.0

>  <min>  (488) 
0.0

>  <hyb>  (488) 
4.0

>  <sub>  (488) 
0.0

>  <query_index>  (488) 
75.0

>  <max_hit_Tanimoto>  (488) 
0.117197

>  <largest_ring>  (488) 
6

>  <N_interactions_kept>  (488) 
1.0

>  <N_interactions_lost>  (488) 
2.0

>  <interaction_uniqueness_metric>  (488) 
0.062354

>  <ad_hoc_penalty>  (488) 
-15.478826

>  <N_rotatable_bonds>  (488) 
1

>  <N_HA>  (488) 
10

>  <cluster>  (488) 
5115

>  <N_interactions>  (488) 
4

>  <Enamine>  (488) 
1

>  <Mcule>  (488) 
0

>  <N_PAINS>  (488) 
0

>  <UFF_Gibbs>  (488) 
22.909372

>  <strain_per_HA>  (488) 
2.290937

>  <intxn_scored>  (488) 
7.5

>  <saltbridge:HIS:51>  (488) 
0

>  <pistack:HIS:51>  (488) 
0

>  <hydroph_interaction:HIS:51>  (488) 
0

>  <hbond:ALA:132>  (488) 
0

>  <hbond:SER:135>  (488) 
0

>  <hydroph_interaction:TYR:150>  (488) 
1

>  <pistack:TYR:161>  (488) 
1

>  <hydroph_interaction:TYR:161>  (488) 
1

>  <hydroph_interaction:ASP:83>  (488) 
0

>  <hbond:TYR:130>  (488) 
1

>  <hydroph_interaction:ALA:132>  (488) 
0

>  <hbond:HIS:51>  (488) 
0

>  <hbond:ASP:129>  (488) 
0

>  <hbond:TYR:150>  (488) 
0

>  <hbond:GLY:151>  (488) 
0

>  <hbond:TYR:161>  (488) 
0

>  <hydroph_interaction:TYR:130>  (488) 
0

>  <hydroph_interaction:PRO:131>  (488) 
0

>  <hydroph_interaction:ASP:129>  (488) 
0

>  <saltbridge:ASP:75>  (488) 
0

>  <saltbridge:ASP:83>  (488) 
0

>  <hbond:ASN:152>  (488) 
0

>  <hydroph_interaction:ASN:152>  (488) 
0

>  <halogenbond:TYR:150>  (488) 
0

>  <hbond:ASP:83>  (488) 
0

>  <hydroph_interaction:VAL:155>  (488) 
0

>  <pication:TYR:161>  (488) 
0

>  <hbond:PRO:131>  (488) 
0

>  <saltbridge:ASP:129>  (488) 
0

>  <hbond:THR:134>  (488) 
0

>  <pication:HIS:51>  (488) 
0

>  <hbond:SER:81>  (488) 
0

>  <hydroph_interaction:THR:134>  (488) 
0

>  <hydroph_interaction:MET:49>  (488) 
0

$$$$
Z5026039150
     RDKit          3D

 52 54  0  0  0  0  0  0  0  0999 V2000
   -2.3980    4.9800  -21.9590 C   0  0  0  0  0  0  0  0  0  0  0  0
   -3.6810    5.3580  -21.6070 N   0  0  0  0  0  0  0  0  0  0  0  0
   -4.1760    5.4130  -20.2870 C   0  0  0  0  0  0  0  0  0  0  0  0
   -3.3410    5.0530  -19.1920 O   0  0  0  0  0  0  0  0  0  0  0  0
   -5.6070    5.8430  -19.9880 C   0  0  0  0  0  0  0  0  0  0  0  0
   -5.9170    5.7810  -18.5940 O   0  0  0  0  0  0  0  0  0  0  0  0
   -7.1990    5.4440  -18.2760 C   0  0  0  0  0  0  0  0  0  0  0  0
   -8.0650    4.7970  -19.1580 C   0  0  0  0  0  0  0  0  0  0  0  0
   -9.4070    4.5140  -18.6380 C   0  0  0  0  0  0  0  0  0  0  0  0
   -9.8210    4.8500  -17.3810 C   0  0  0  0  0  0  0  0  0  0  0  0
   -8.9310    5.5060  -16.5170 C   0  0  0  0  0  0  0  0  0  0  0  0
   -9.4240    5.8430  -15.1990 N   0  0  0  0  0  0  0  0  0  0  0  0
   -8.7940    6.8400  -14.2470 C   0  0  0  0  0  0  0  0  0  0  0  0
   -8.3320    7.9730  -14.3880 O   0  0  0  0  0  0  0  0  0  0  0  0
   -8.8000    6.2730  -12.9670 C   0  0  0  0  0  0  0  0  0  0  0  0
   -8.9300    4.8860  -12.8420 C   0  0  0  0  0  0  0  0  0  0  0  0
   -8.9420    4.3020  -11.4870 C   0  0  0  0  0  0  0  0  0  0  0  0
   -8.8320    5.0320  -10.3120 C   0  0  0  0  0  0  0  0  0  0  0  0
   -8.8730    4.3790   -9.0820 C   0  0  0  0  0  0  0  0  0  0  0  0
   -7.9970    4.6320   -8.0220 C   0  0  0  0  0  0  0  0  0  0  0  0
   -8.3700    4.1290   -6.7600 C   0  0  0  0  0  0  0  0  0  0  0  0
   -8.7270    2.7120   -6.8390 N   0  0  0  0  0  0  0  0  0  0  0  0
   -9.5700    2.3350   -7.9720 C   0  0  0  0  0  0  0  0  0  0  0  0
   -8.9990    2.8710   -9.2750 C   0  0  0  0  0  0  0  0  0  0  0  0
   -8.6990    6.4190  -10.4250 C   0  0  0  0  0  0  0  0  0  0  0  0
   -8.6810    7.0720  -11.8130 C   0  0  0  0  0  0  0  0  0  0  0  0
   -7.6250    5.7970  -16.9630 C   0  0  0  0  0  0  0  0  0  0  0  0
   -1.6690    5.5350  -21.3600 H   0  0  0  0  0  0  0  0  0  0  0  0
   -2.2070    5.1650  -23.0210 H   0  0  0  0  0  0  0  0  0  0  0  0
   -2.2700    3.9080  -21.7700 H   0  0  0  0  0  0  0  0  0  0  0  0
   -4.3930    5.3080  -22.3290 H   0  0  0  0  0  0  0  0  0  0  0  0
   -6.3180    5.1770  -20.4900 H   0  0  0  0  0  0  0  0  0  0  0  0
   -5.7880    6.8510  -20.3770 H   0  0  0  0  0  0  0  0  0  0  0  0
   -7.8910    4.4700  -20.1760 H   0  0  0  0  0  0  0  0  0  0  0  0
  -10.1160    4.0100  -19.2880 H   0  0  0  0  0  0  0  0  0  0  0  0
  -10.8220    4.5940  -17.1020 H   0  0  0  0  0  0  0  0  0  0  0  0
   -9.9800    5.1130  -14.7650 H   0  0  0  0  0  0  0  0  0  0  0  0
   -9.0240    4.2360  -13.7060 H   0  0  0  0  0  0  0  0  0  0  0  0
   -9.0490    3.2120  -11.4140 H   0  0  0  0  0  0  0  0  0  0  0  0
   -9.8290    4.6270   -8.6630 H   0  0  0  0  0  0  0  0  0  0  0  0
   -7.0280    4.2060   -8.3000 H   0  0  0  0  0  0  0  0  0  0  0  0
   -7.8660    5.7190   -7.9400 H   0  0  0  0  0  0  0  0  0  0  0  0
   -7.5430    4.2400   -6.0640 H   0  0  0  0  0  0  0  0  0  0  0  0
   -9.2100    4.7060   -6.3520 H   0  0  0  0  0  0  0  0  0  0  0  0
   -9.1300    2.3750   -5.9620 H   0  0  0  0  0  0  0  0  0  0  0  0
   -9.7590    1.2690   -7.9130 H   0  0  0  0  0  0  0  0  0  0  0  0
  -10.5500    2.7940   -7.8040 H   0  0  0  0  0  0  0  0  0  0  0  0
   -8.0340    2.4230   -9.4860 H   0  0  0  0  0  0  0  0  0  0  0  0
   -9.6640    2.6100  -10.1090 H   0  0  0  0  0  0  0  0  0  0  0  0
   -8.6110    7.0470   -9.5420 H   0  0  0  0  0  0  0  0  0  0  0  0
   -8.5800    8.1520  -11.9010 H   0  0  0  0  0  0  0  0  0  0  0  0
   -6.9170    6.3010  -16.3090 H   0  0  0  0  0  0  0  0  0  0  0  0
  1  2  1  0
  2  3  1  0
  3  4  2  0
  3  5  1  0
  5  6  1  0
  6  7  1  0
  7  8  2  0
  8  9  1  0
  9 10  2  0
 10 11  1  0
 11 12  1  0
 12 13  1  0
 13 14  2  0
 13 15  1  0
 15 16  2  0
 16 17  1  0
 17 18  2  0
 18 19  1  0
 19 20  1  0
 20 21  1  0
 21 22  1  0
 22 23  1  0
 23 24  1  0
 18 25  1  0
 25 26  2  0
 11 27  2  0
 27  7  1  0
 26 15  1  0
 24 19  1  0
  1 28  1  0
  1 29  1  0
  1 30  1  0
  2 31  1  0
  5 32  1  0
  5 33  1  0
  8 34  1  0
  9 35  1  0
 10 36  1  0
 12 37  1  0
 16 38  1  0
 17 39  1  0
 19 40  1  0
 20 41  1  0
 20 42  1  0
 21 43  1  0
 21 44  1  0
 22 45  1  0
 23 46  1  0
 23 47  1  0
 24 48  1  0
 24 49  1  0
 25 50  1  0
 26 51  1  0
 27 52  1  0
A    1
 C1 
A    2
 N1 
A    3
 C2 
A    4
 O1 
A    5
 C3 
A    6
 O2 
A    7
 C4 
A    8
 C5 
A    9
 C6 
A   10
 C7 
A   11
 C8 
A   12
 N2 
A   13
 C9 
A   14
 O3 
A   15
 C10
A   16
 C11
A   17
 C12
A   18
 C13
A   19
 C14
A   20
 C15
A   21
 C16
A   22
 N3 
A   23
 C17
A   24
 C18
A   25
 C19
A   26
 C20
A   27
 C21
A   28
 H1 
A   29
 H2 
A   30
 H3 
A   31
 H4 
A   32
 H5 
A   33
 H6 
A   34
 H7 
A   35
 H8 
A   36
 H9 
A   37
 H10
A   38
 H11
A   39
 H12
A   40
 H13
A   41
 H14
A   42
 H15
A   43
 H16
A   44
 H17
A   45
 H18
A   46
 H19
A   47
 H20
A   48
 H21
A   49
 H22
A   50
 H23
A   51
 H24
A   52
 H25
M  END
>  <ref_pdb>  (489) 
x0051_0B

>  <ref_mols>  (489) 
x0904_0B,x0404_0B

>  <original SMILES>  (489) 
[H]c1c([H])c(OC([H])([H])C(=O)N([H])C([H])([H])[H])c([H])c(N([H])C(=O)c2c([H])c([H])c(C3([H])C([H])([H])C([H])([H])N([H])C([H])([H])C3([H])[H])c([H])c2[H])c1[H]

>  <index>  (489) 
2613

>  <∆∆G>  (489) 
-8.559302

>  <∆G_bound>  (489) 
-7.987218

>  <∆G_unbound>  (489) 
0.572084

>  <comRMSD>  (489) 
0.485281

>  <N_constrained_atoms>  (489) 
28.0

>  <N_unconstrained_atoms>  (489) 
0.0

>  <runtime>  (489) 
107.741122

>  <LE>  (489) 
0.305689

>  <percent_hybrid>  (489) 
49.0

>  <dist>  (489) 
5.0

>  <ecfp4>  (489) 
0.25

>  <daylight>  (489) 
0.357488

>  <topodist>  (489) 
2.0

>  <mces>  (489) 
29.0

>  <tdn>  (489) 
2.0

>  <tup>  (489) 
0.0

>  <rdn>  (489) 
0.0

>  <rup>  (489) 
0.0

>  <ldn>  (489) 
0.0

>  <lup>  (489) 
0.0

>  <mut>  (489) 
2.0

>  <maj>  (489) 
2.0

>  <min>  (489) 
0.0

>  <hyb>  (489) 
1.0

>  <sub>  (489) 
1.0

>  <query_index>  (489) 
19.0

>  <max_hit_Tanimoto>  (489) 
0.260606

>  <largest_ring>  (489) 
6

>  <N_interactions_kept>  (489) 
0.0

>  <N_interactions_lost>  (489) 
4.5

>  <interaction_uniqueness_metric>  (489) 
0.31784

>  <ad_hoc_penalty>  (489) 
-1.651489

>  <N_rotatable_bonds>  (489) 
7

>  <N_HA>  (489) 
27

>  <cluster>  (489) 
3811

>  <N_interactions>  (489) 
8

>  <Enamine>  (489) 
1

>  <Mcule>  (489) 
0

>  <N_PAINS>  (489) 
0

>  <UFF_Gibbs>  (489) 
276.583178

>  <strain_per_HA>  (489) 
10.243821

>  <intxn_scored>  (489) 
7.5

>  <saltbridge:HIS:51>  (489) 
0

>  <pistack:HIS:51>  (489) 
1

>  <hydroph_interaction:HIS:51>  (489) 
1

>  <hbond:ALA:132>  (489) 
0

>  <hbond:SER:135>  (489) 
0

>  <hydroph_interaction:TYR:150>  (489) 
1

>  <pistack:TYR:161>  (489) 
1

>  <hydroph_interaction:TYR:161>  (489) 
0

>  <hydroph_interaction:ASP:83>  (489) 
0

>  <hbond:TYR:130>  (489) 
0

>  <hydroph_interaction:ALA:132>  (489) 
1

>  <hbond:HIS:51>  (489) 
0

>  <hbond:ASP:129>  (489) 
1

>  <hbond:TYR:150>  (489) 
0

>  <hbond:GLY:151>  (489) 
1

>  <hbond:TYR:161>  (489) 
0

>  <hydroph_interaction:TYR:130>  (489) 
0

>  <hydroph_interaction:PRO:131>  (489) 
0

>  <hydroph_interaction:ASP:129>  (489) 
0

>  <saltbridge:ASP:75>  (489) 
0

>  <saltbridge:ASP:83>  (489) 
0

>  <hbond:ASN:152>  (489) 
0

>  <hydroph_interaction:ASN:152>  (489) 
0

>  <halogenbond:TYR:150>  (489) 
0

>  <hbond:ASP:83>  (489) 
0

>  <hydroph_interaction:VAL:155>  (489) 
0

>  <pication:TYR:161>  (489) 
0

>  <hbond:PRO:131>  (489) 
0

>  <saltbridge:ASP:129>  (489) 
0

>  <hbond:THR:134>  (489) 
0

>  <pication:HIS:51>  (489) 
0

>  <hbond:SER:81>  (489) 
1

>  <hydroph_interaction:THR:134>  (489) 
0

>  <hydroph_interaction:MET:49>  (489) 
0

$$$$
Z2368203387
     RDKit          3D

 36 38  0  0  0  0  0  0  0  0999 V2000
   -7.8740    5.1640  -15.1370 C   0  0  0  0  0  0  0  0  0  0  0  0
   -8.2650    5.0950  -16.5730 C   0  0  0  0  0  0  0  0  0  0  0  0
   -9.6000    4.8300  -16.8630 C   0  0  0  0  0  0  0  0  0  0  0  0
  -10.0430    4.7420  -18.1850 C   0  0  0  0  0  0  0  0  0  0  0  0
   -9.0770    4.9380  -19.2270 C   0  0  0  0  0  0  0  0  0  0  0  0
   -7.7590    5.2040  -18.9170 C   0  0  0  0  0  0  0  0  0  0  0  0
   -7.0110    5.3590  -20.0260 N   0  0  0  0  0  0  0  0  0  0  0  0
   -5.6690    5.6310  -19.8110 C   0  0  0  0  0  0  0  0  0  0  0  0
   -5.1000    5.7370  -18.6160 N   0  0  0  0  0  0  0  0  0  0  0  0
   -5.8930    5.5680  -17.5230 C   0  0  0  0  0  0  0  0  0  0  0  0
   -5.2030    5.6750  -16.2820 N   0  0  0  0  0  0  0  0  0  0  0  0
   -3.8300    5.1570  -16.4160 C   0  0  0  0  0  0  0  0  0  0  0  0
   -3.2280    4.7140  -15.2180 C   0  0  0  0  0  0  0  0  0  0  0  0
   -4.0280    4.8800  -14.0930 C   0  0  0  0  0  0  0  0  0  0  0  0
   -4.2140    6.2680  -13.6760 N   0  0  0  0  0  0  0  0  0  0  0  0
   -4.3010    7.2640  -14.7650 C   0  0  0  0  0  0  0  0  0  0  0  0
   -5.3340    7.0160  -15.6850 C   0  0  0  0  0  0  0  0  0  0  0  0
   -7.3050    5.2910  -17.5950 C   0  0  0  0  0  0  0  0  0  0  0  0
   -6.8690    4.7560  -15.0010 H   0  0  0  0  0  0  0  0  0  0  0  0
   -7.8770    6.1990  -14.7790 H   0  0  0  0  0  0  0  0  0  0  0  0
   -8.5770    4.5880  -14.5250 H   0  0  0  0  0  0  0  0  0  0  0  0
  -10.3000    4.6890  -16.0430 H   0  0  0  0  0  0  0  0  0  0  0  0
  -11.0900    4.5340  -18.3990 H   0  0  0  0  0  0  0  0  0  0  0  0
   -9.3840    4.8770  -20.2680 H   0  0  0  0  0  0  0  0  0  0  0  0
   -5.0360    5.7670  -20.6800 H   0  0  0  0  0  0  0  0  0  0  0  0
   -3.8480    4.3410  -17.1430 H   0  0  0  0  0  0  0  0  0  0  0  0
   -3.1770    5.9100  -16.8820 H   0  0  0  0  0  0  0  0  0  0  0  0
   -2.2230    5.0980  -15.0600 H   0  0  0  0  0  0  0  0  0  0  0  0
   -3.0860    3.6330  -15.3210 H   0  0  0  0  0  0  0  0  0  0  0  0
   -5.0080    4.4680  -14.3460 H   0  0  0  0  0  0  0  0  0  0  0  0
   -3.6080    4.3120  -13.2590 H   0  0  0  0  0  0  0  0  0  0  0  0
   -3.4500    6.5290  -13.0530 H   0  0  0  0  0  0  0  0  0  0  0  0
   -4.3940    8.2740  -14.3490 H   0  0  0  0  0  0  0  0  0  0  0  0
   -3.3250    7.2350  -15.2530 H   0  0  0  0  0  0  0  0  0  0  0  0
   -5.2580    7.7640  -16.4870 H   0  0  0  0  0  0  0  0  0  0  0  0
   -6.3100    7.1710  -15.2130 H   0  0  0  0  0  0  0  0  0  0  0  0
  1  2  1  0
  2  3  2  0
  3  4  1  0
  4  5  2  0
  5  6  1  0
  6  7  2  0
  7  8  1  0
  8  9  2  0
  9 10  1  0
 10 11  1  0
 11 12  1  0
 12 13  1  0
 13 14  1  0
 14 15  1  0
 15 16  1  0
 16 17  1  0
 10 18  2  0
 18  2  1  0
 18  6  1  0
 17 11  1  0
  1 19  1  0
  1 20  1  0
  1 21  1  0
  3 22  1  0
  4 23  1  0
  5 24  1  0
  8 25  1  0
 12 26  1  0
 12 27  1  0
 13 28  1  0
 13 29  1  0
 14 30  1  0
 14 31  1  0
 15 32  1  0
 16 33  1  0
 16 34  1  0
 17 35  1  0
 17 36  1  0
A    1
 C1 
A    2
 C2 
A    3
 C3 
A    4
 C4 
A    5
 C5 
A    6
 C6 
A    7
 N1 
A    8
 C7 
A    9
 N2 
A   10
 C8 
A   11
 N3 
A   12
 C9 
A   13
 C10
A   14
 C11
A   15
 N4 
A   16
 C12
A   17
 C13
A   18
 C14
A   19
 H1 
A   20
 H2 
A   21
 H3 
A   22
 H4 
A   23
 H5 
A   24
 H6 
A   25
 H7 
A   26
 H8 
A   27
 H9 
A   28
 H10
A   29
 H11
A   30
 H12
A   31
 H13
A   32
 H14
A   33
 H15
A   34
 H16
A   35
 H17
A   36
 H18
M  END
>  <ref_pdb>  (490) 
x0051_0B

>  <ref_mols>  (490) 
x0429_0B,x0693_0B

>  <original SMILES>  (490) 
[H]c1nc(N2C([H])([H])C([H])([H])N([H])C([H])([H])C([H])([H])C2([H])[H])c2c(C([H])([H])[H])c([H])c([H])c([H])c2n1

>  <index>  (490) 
233

>  <∆∆G>  (490) 
-6.790734

>  <∆G_bound>  (490) 
-6.214204

>  <∆G_unbound>  (490) 
0.57653

>  <comRMSD>  (490) 
0.549842

>  <N_constrained_atoms>  (490) 
18.0

>  <N_unconstrained_atoms>  (490) 
1.0

>  <runtime>  (490) 
24.672945

>  <LE>  (490) 
0.357407

>  <percent_hybrid>  (490) 
20.0

>  <dist>  (490) 
2.0

>  <ecfp4>  (490) 
0.6

>  <daylight>  (490) 
0.529851

>  <topodist>  (490) 
1.0

>  <mces>  (490) 
19.0

>  <tdn>  (490) 
0.0

>  <tup>  (490) 
0.0

>  <rdn>  (490) 
0.0

>  <rup>  (490) 
0.0

>  <ldn>  (490) 
0.0

>  <lup>  (490) 
1.0

>  <mut>  (490) 
1.0

>  <maj>  (490) 
1.0

>  <min>  (490) 
0.0

>  <hyb>  (490) 
0.0

>  <sub>  (490) 
0.0

>  <query_index>  (490) 
179.0

>  <max_hit_Tanimoto>  (490) 
0.403263

>  <largest_ring>  (490) 
0

>  <N_interactions_kept>  (490) 
2.5

>  <N_interactions_lost>  (490) 
2.0

>  <interaction_uniqueness_metric>  (490) 
0.078036

>  <ad_hoc_penalty>  (490) 
-25.370476

>  <N_rotatable_bonds>  (490) 
2

>  <N_HA>  (490) 
18

>  <cluster>  (490) 
6007

>  <N_interactions>  (490) 
6

>  <Enamine>  (490) 
1

>  <Mcule>  (490) 
0

>  <N_PAINS>  (490) 
0

>  <UFF_Gibbs>  (490) 
73.182613

>  <strain_per_HA>  (490) 
4.065701

>  <intxn_scored>  (490) 
7.5

>  <saltbridge:HIS:51>  (490) 
0

>  <pistack:HIS:51>  (490) 
0

>  <hydroph_interaction:HIS:51>  (490) 
0

>  <hbond:ALA:132>  (490) 
0

>  <hbond:SER:135>  (490) 
0

>  <hydroph_interaction:TYR:150>  (490) 
1

>  <pistack:TYR:161>  (490) 
1

>  <hydroph_interaction:TYR:161>  (490) 
3

>  <hydroph_interaction:ASP:83>  (490) 
0

>  <hbond:TYR:130>  (490) 
0

>  <hydroph_interaction:ALA:132>  (490) 
0

>  <hbond:HIS:51>  (490) 
0

>  <hbond:ASP:129>  (490) 
0

>  <hbond:TYR:150>  (490) 
0

>  <hbond:GLY:151>  (490) 
0

>  <hbond:TYR:161>  (490) 
0

>  <hydroph_interaction:TYR:130>  (490) 
0

>  <hydroph_interaction:PRO:131>  (490) 
0

>  <hydroph_interaction:ASP:129>  (490) 
0

>  <saltbridge:ASP:75>  (490) 
0

>  <saltbridge:ASP:83>  (490) 
0

>  <hbond:ASN:152>  (490) 
0

>  <hydroph_interaction:ASN:152>  (490) 
0

>  <halogenbond:TYR:150>  (490) 
0

>  <hbond:ASP:83>  (490) 
0

>  <hydroph_interaction:VAL:155>  (490) 
1

>  <pication:TYR:161>  (490) 
0

>  <hbond:PRO:131>  (490) 
0

>  <saltbridge:ASP:129>  (490) 
0

>  <hbond:THR:134>  (490) 
0

>  <pication:HIS:51>  (490) 
0

>  <hbond:SER:81>  (490) 
0

>  <hydroph_interaction:THR:134>  (490) 
0

>  <hydroph_interaction:MET:49>  (490) 
0

$$$$
CSSS00011471442
     RDKit          3D

 25 26  0  0  0  0  0  0  0  0999 V2000
   -2.4980    5.5010  -20.0180 C   0  0  0  0  0  0  0  0  0  0  0  0
   -3.9120    5.4180  -19.5090 C   0  0  0  0  0  0  0  0  0  0  0  0
   -5.0490    5.2770  -20.4320 C   0  0  0  0  0  0  0  0  0  0  0  0
   -6.3710    5.1790  -20.0430 C   0  0  0  0  0  0  0  0  0  0  0  0
   -6.6460    5.2210  -18.6720 C   0  0  0  0  0  0  0  0  0  0  0  0
   -7.9760    5.0940  -18.2760 C   0  0  0  0  0  0  0  0  0  0  0  0
   -8.3450    5.1880  -16.9900 N   0  0  0  0  0  0  0  0  0  0  0  0
   -9.6640    4.9950  -16.9740 N   0  0  0  0  0  0  0  0  0  0  0  0
  -10.1960    4.7770  -18.2090 C   0  0  0  0  0  0  0  0  0  0  0  0
   -9.1190    4.8360  -19.0860 C   0  0  0  0  0  0  0  0  0  0  0  0
   -5.5830    5.3710  -17.7270 C   0  0  0  0  0  0  0  0  0  0  0  0
   -5.8260    5.4270  -16.2480 C   0  0  0  0  0  0  0  0  0  0  0  0
   -4.2370    5.4650  -18.1560 C   0  0  0  0  0  0  0  0  0  0  0  0
   -1.8500    4.8880  -19.3740 H   0  0  0  0  0  0  0  0  0  0  0  0
   -2.1370    6.5340  -19.9790 H   0  0  0  0  0  0  0  0  0  0  0  0
   -2.4390    5.1030  -21.0370 H   0  0  0  0  0  0  0  0  0  0  0  0
   -4.8390    5.2390  -21.5090 H   0  0  0  0  0  0  0  0  0  0  0  0
   -7.1640    5.0680  -20.7760 H   0  0  0  0  0  0  0  0  0  0  0  0
  -10.1450    5.0240  -16.0760 H   0  0  0  0  0  0  0  0  0  0  0  0
  -11.2650    4.6020  -18.3610 H   0  0  0  0  0  0  0  0  0  0  0  0
   -9.1640    4.7050  -20.1620 H   0  0  0  0  0  0  0  0  0  0  0  0
   -6.5310    4.6630  -15.9360 H   0  0  0  0  0  0  0  0  0  0  0  0
   -4.8840    5.3070  -15.7100 H   0  0  0  0  0  0  0  0  0  0  0  0
   -6.2610    6.3920  -15.9590 H   0  0  0  0  0  0  0  0  0  0  0  0
   -3.4360    5.5730  -17.4160 H   0  0  0  0  0  0  0  0  0  0  0  0
  1  2  1  0
  2  3  2  0
  3  4  1  0
  4  5  2  0
  5  6  1  0
  6  7  2  0
  7  8  1  0
  8  9  1  0
  9 10  2  0
  5 11  1  0
 11 12  1  0
 11 13  2  0
 13  2  1  0
 10  6  1  0
  1 14  1  0
  1 15  1  0
  1 16  1  0
  3 17  1  0
  4 18  1  0
  8 19  1  0
  9 20  1  0
 10 21  1  0
 12 22  1  0
 12 23  1  0
 12 24  1  0
 13 25  1  0
A    1
 C1 
A    2
 C2 
A    3
 C3 
A    4
 C4 
A    5
 C5 
A    6
 C6 
A    7
 N1 
A    8
 N2 
A    9
 C7 
A   10
 C8 
A   11
 C9 
A   12
 C10
A   13
 C11
A   14
 H1 
A   15
 H2 
A   16
 H3 
A   17
 H4 
A   18
 H5 
A   19
 H6 
A   20
 H7 
A   21
 H8 
A   22
 H9 
A   23
 H10
A   24
 H11
A   25
 H12
M  END
>  <ref_pdb>  (491) 
x0051_0B

>  <ref_mols>  (491) 
x0680_0B,x0386_0B

>  <original SMILES>  (491) 
[H]c1c([H])c(C([H])([H])[H])c([H])c(C([H])([H])[H])c1-c1nn([H])c([H])c1[H]

>  <index>  (491) 
894

>  <∆∆G>  (491) 
-6.975277

>  <∆G_bound>  (491) 
-7.17432

>  <∆G_unbound>  (491) 
-0.199043

>  <comRMSD>  (491) 
0.5454

>  <N_constrained_atoms>  (491) 
13.0

>  <N_unconstrained_atoms>  (491) 
1.0

>  <runtime>  (491) 
26.65661

>  <LE>  (491) 
0.498234

>  <percent_hybrid>  (491) 
25.0

>  <dist>  (491) 
4.0

>  <ecfp4>  (491) 
0.211538

>  <daylight>  (491) 
0.17931

>  <topodist>  (491) 
1.0

>  <mces>  (491) 
13.0

>  <tdn>  (491) 
0.0

>  <tup>  (491) 
1.0

>  <rdn>  (491) 
0.0

>  <rup>  (491) 
0.0

>  <ldn>  (491) 
0.0

>  <lup>  (491) 
0.0

>  <mut>  (491) 
3.0

>  <maj>  (491) 
3.0

>  <min>  (491) 
0.0

>  <hyb>  (491) 
0.0

>  <sub>  (491) 
1.0

>  <query_index>  (491) 
296.0

>  <max_hit_Tanimoto>  (491) 
0.116554

>  <largest_ring>  (491) 
6

>  <N_interactions_kept>  (491) 
2.0

>  <N_interactions_lost>  (491) 
2.0

>  <interaction_uniqueness_metric>  (491) 
0.044868

>  <ad_hoc_penalty>  (491) 
-18.192503

>  <N_rotatable_bonds>  (491) 
3

>  <N_HA>  (491) 
13

>  <cluster>  (491) 
5400

>  <N_interactions>  (491) 
5

>  <Enamine>  (491) 
1

>  <Mcule>  (491) 
0

>  <N_PAINS>  (491) 
0

>  <UFF_Gibbs>  (491) 
24.014057

>  <strain_per_HA>  (491) 
1.847235

>  <intxn_scored>  (491) 
7.5

>  <saltbridge:HIS:51>  (491) 
0

>  <pistack:HIS:51>  (491) 
0

>  <hydroph_interaction:HIS:51>  (491) 
0

>  <hbond:ALA:132>  (491) 
0

>  <hbond:SER:135>  (491) 
0

>  <hydroph_interaction:TYR:150>  (491) 
1

>  <pistack:TYR:161>  (491) 
1

>  <hydroph_interaction:TYR:161>  (491) 
3

>  <hydroph_interaction:ASP:83>  (491) 
0

>  <hbond:TYR:130>  (491) 
0

>  <hydroph_interaction:ALA:132>  (491) 
0

>  <hbond:HIS:51>  (491) 
0

>  <hbond:ASP:129>  (491) 
0

>  <hbond:TYR:150>  (491) 
0

>  <hbond:GLY:151>  (491) 
0

>  <hbond:TYR:161>  (491) 
0

>  <hydroph_interaction:TYR:130>  (491) 
0

>  <hydroph_interaction:PRO:131>  (491) 
0

>  <hydroph_interaction:ASP:129>  (491) 
0

>  <saltbridge:ASP:75>  (491) 
0

>  <saltbridge:ASP:83>  (491) 
0

>  <hbond:ASN:152>  (491) 
0

>  <hydroph_interaction:ASN:152>  (491) 
0

>  <halogenbond:TYR:150>  (491) 
0

>  <hbond:ASP:83>  (491) 
0

>  <hydroph_interaction:VAL:155>  (491) 
0

>  <pication:TYR:161>  (491) 
0

>  <hbond:PRO:131>  (491) 
0

>  <saltbridge:ASP:129>  (491) 
0

>  <hbond:THR:134>  (491) 
0

>  <pication:HIS:51>  (491) 
0

>  <hbond:SER:81>  (491) 
0

>  <hydroph_interaction:THR:134>  (491) 
0

>  <hydroph_interaction:MET:49>  (491) 
0

$$$$
Z2213108165
     RDKit          3D

 61 64  0  0  0  0  0  0  0  0999 V2000
  -10.2980    4.6570  -17.9570 C   0  0  0  0  0  0  0  0  0  0  0  0
   -9.0250    5.1090  -17.3760 C   0  0  0  0  0  0  0  0  0  0  0  0
   -7.9880    5.0580  -18.2120 N   0  0  0  0  0  0  0  0  0  0  0  0
   -6.7970    5.4580  -17.7900 C   0  0  0  0  0  0  0  0  0  0  0  0
   -5.7390    5.3940  -18.6690 N   0  0  0  0  0  0  0  0  0  0  0  0
   -6.0320    5.6980  -20.0700 C   0  0  0  0  0  0  0  0  0  0  0  0
   -5.4630    7.0320  -20.3980 C   0  0  0  0  0  0  0  0  0  0  0  0
   -4.2260    7.3650  -19.8450 C   0  0  0  0  0  0  0  0  0  0  0  0
   -3.9720    7.0100  -18.5130 C   0  0  0  0  0  0  0  0  0  0  0  0
   -4.4520    5.5920  -18.1970 C   0  0  0  0  0  0  0  0  0  0  0  0
   -6.5890    5.9170  -16.5610 N   0  0  0  0  0  0  0  0  0  0  0  0
   -7.6290    5.9730  -15.7170 C   0  0  0  0  0  0  0  0  0  0  0  0
   -7.3140    6.4890  -14.4620 C   0  0  0  0  0  0  0  0  0  0  0  0
   -7.9630    7.8060  -14.2750 N   0  0  0  0  0  0  0  0  0  0  0  0
   -9.3300    7.5650  -13.8230 C   0  0  0  0  0  0  0  0  0  0  0  0
   -9.9960    8.7560  -13.5340 C   0  0  0  0  0  0  0  0  0  0  0  0
   -9.1750    6.6730  -12.6290 C   0  0  0  0  0  0  0  0  0  0  0  0
   -9.2350    5.2700  -12.7730 C   0  0  0  0  0  0  0  0  0  0  0  0
   -9.0780    4.4460  -11.6610 C   0  0  0  0  0  0  0  0  0  0  0  0
   -8.8450    5.0850  -10.2940 C   0  0  0  0  0  0  0  0  0  0  0  0
   -8.6830    4.3080   -9.1220 N   0  0  0  0  0  0  0  0  0  0  0  0
   -9.3100    2.9860   -9.1550 C   0  0  0  0  0  0  0  0  0  0  0  0
   -9.7990    2.5420   -7.9070 C   0  0  0  0  0  0  0  0  0  0  0  0
   -9.5780    3.3080   -6.6720 C   0  0  0  0  0  0  0  0  0  0  0  0
   -9.2670    4.6630   -6.9040 O   0  0  0  0  0  0  0  0  0  0  0  0
   -8.4430    4.9820   -7.9200 C   0  0  0  0  0  0  0  0  0  0  0  0
   -7.5760    5.8320   -7.7100 O   0  0  0  0  0  0  0  0  0  0  0  0
   -8.7990    6.4720  -10.2350 C   0  0  0  0  0  0  0  0  0  0  0  0
   -8.9590    7.2440  -11.3670 C   0  0  0  0  0  0  0  0  0  0  0  0
   -8.9110    5.5620  -16.0760 C   0  0  0  0  0  0  0  0  0  0  0  0
  -10.9710    4.3870  -17.1550 H   0  0  0  0  0  0  0  0  0  0  0  0
  -10.1530    3.8040  -18.6220 H   0  0  0  0  0  0  0  0  0  0  0  0
  -10.7730    5.4540  -18.5370 H   0  0  0  0  0  0  0  0  0  0  0  0
   -7.0860    5.5210  -20.3010 H   0  0  0  0  0  0  0  0  0  0  0  0
   -5.5040    4.9510  -20.6850 H   0  0  0  0  0  0  0  0  0  0  0  0
   -6.1960    7.7790  -20.0710 H   0  0  0  0  0  0  0  0  0  0  0  0
   -5.4000    7.1290  -21.4890 H   0  0  0  0  0  0  0  0  0  0  0  0
   -4.0910    8.4470  -19.9400 H   0  0  0  0  0  0  0  0  0  0  0  0
   -3.4470    6.9080  -20.4720 H   0  0  0  0  0  0  0  0  0  0  0  0
   -4.4670    7.7180  -17.8390 H   0  0  0  0  0  0  0  0  0  0  0  0
   -2.8910    7.0860  -18.3180 H   0  0  0  0  0  0  0  0  0  0  0  0
   -3.7830    4.8730  -18.6950 H   0  0  0  0  0  0  0  0  0  0  0  0
   -4.3600    5.3810  -17.1210 H   0  0  0  0  0  0  0  0  0  0  0  0
   -7.5660    5.7830  -13.6660 H   0  0  0  0  0  0  0  0  0  0  0  0
   -6.2310    6.6330  -14.4340 H   0  0  0  0  0  0  0  0  0  0  0  0
   -7.4470    8.2430  -13.4990 H   0  0  0  0  0  0  0  0  0  0  0  0
   -9.9320    7.0690  -14.5980 H   0  0  0  0  0  0  0  0  0  0  0  0
  -10.6870    8.6140  -12.6920 H   0  0  0  0  0  0  0  0  0  0  0  0
  -10.5740    9.1310  -14.3870 H   0  0  0  0  0  0  0  0  0  0  0  0
   -9.2810    9.5390  -13.2470 H   0  0  0  0  0  0  0  0  0  0  0  0
   -9.4030    4.8170  -13.7550 H   0  0  0  0  0  0  0  0  0  0  0  0
   -9.1300    3.3740  -11.8110 H   0  0  0  0  0  0  0  0  0  0  0  0
   -8.5950    2.2690   -9.5670 H   0  0  0  0  0  0  0  0  0  0  0  0
  -10.1720    3.0080   -9.8300 H   0  0  0  0  0  0  0  0  0  0  0  0
   -9.4360    1.5280   -7.7420 H   0  0  0  0  0  0  0  0  0  0  0  0
  -10.8780    2.4520   -8.0160 H   0  0  0  0  0  0  0  0  0  0  0  0
   -8.7170    2.8860   -6.1470 H   0  0  0  0  0  0  0  0  0  0  0  0
  -10.4420    3.2630   -6.0040 H   0  0  0  0  0  0  0  0  0  0  0  0
   -8.6370    7.0050   -9.3000 H   0  0  0  0  0  0  0  0  0  0  0  0
   -8.9140    8.3280  -11.2710 H   0  0  0  0  0  0  0  0  0  0  0  0
   -9.7590    5.6020  -15.3960 H   0  0  0  0  0  0  0  0  0  0  0  0
  1  2  1  0
  2  3  2  0
  3  4  1  0
  4  5  1  0
  5  6  1  0
  6  7  1  0
  7  8  1  0
  8  9  1  0
  9 10  1  0
  4 11  2  0
 11 12  1  0
 12 13  1  0
 13 14  1  0
 14 15  1  0
 15 16  1  0
 15 17  1  0
 17 18  2  0
 18 19  1  0
 19 20  2  0
 20 21  1  0
 21 22  1  0
 22 23  1  0
 23 24  1  0
 24 25  1  0
 25 26  1  0
 26 27  2  0
 20 28  1  0
 28 29  2  0
 12 30  2  0
 30  2  1  0
 10  5  1  0
 29 17  1  0
 26 21  1  0
  1 31  1  0
  1 32  1  0
  1 33  1  0
  6 34  1  0
  6 35  1  0
  7 36  1  0
  7 37  1  0
  8 38  1  0
  8 39  1  0
  9 40  1  0
  9 41  1  0
 10 42  1  0
 10 43  1  0
 13 44  1  0
 13 45  1  0
 14 46  1  0
 15 47  1  0
 16 48  1  0
 16 49  1  0
 16 50  1  0
 18 51  1  0
 19 52  1  0
 22 53  1  0
 22 54  1  0
 23 55  1  0
 23 56  1  0
 24 57  1  0
 24 58  1  0
 28 59  1  0
 29 60  1  0
 30 61  1  0
A    1
 C1 
A    2
 C2 
A    3
 N1 
A    4
 C3 
A    5
 N2 
A    6
 C4 
A    7
 C5 
A    8
 C6 
A    9
 C7 
A   10
 C8 
A   11
 N3 
A   12
 C9 
A   13
 C10
A   14
 N4 
A   15
 C11
A   16
 C12
A   17
 C13
A   18
 C14
A   19
 C15
A   20
 C16
A   21
 N5 
A   22
 C17
A   23
 C18
A   24
 C19
A   25
 O1 
A   26
 C20
A   27
 O2 
A   28
 C21
A   29
 C22
A   30
 C23
A   31
 H1 
A   32
 H2 
A   33
 H3 
A   34
 H4 
A   35
 H5 
A   36
 H6 
A   37
 H7 
A   38
 H8 
A   39
 H9 
A   40
 H10
A   41
 H11
A   42
 H12
A   43
 H13
A   44
 H14
A   45
 H15
A   46
 H16
A   47
 H17
A   48
 H18
A   49
 H19
A   50
 H20
A   51
 H21
A   52
 H22
A   53
 H23
A   54
 H24
A   55
 H25
A   56
 H26
A   57
 H27
A   58
 H28
A   59
 H29
A   60
 H30
A   61
 H31
M  END
>  <ref_pdb>  (492) 
x0051_0B

>  <ref_mols>  (492) 
x0945_0B,x0404_0B

>  <original SMILES>  (492) 
[H]c1c(C([H])([H])[H])nc(N2C([H])([H])C([H])([H])C([H])([H])C([H])([H])C2([H])[H])nc1C([H])([H])N([H])C([H])(c1c([H])c([H])c(N2C(=O)OC([H])([H])C([H])([H])C2([H])[H])c([H])c1[H])C([H])([H])[H]

>  <index>  (492) 
2003

>  <∆∆G>  (492) 
-7.598281

>  <∆G_bound>  (492) 
-5.92558

>  <∆G_unbound>  (492) 
1.6727

>  <comRMSD>  (492) 
0.635944

>  <N_constrained_atoms>  (492) 
26.0

>  <N_unconstrained_atoms>  (492) 
7.0

>  <runtime>  (492) 
83.257173

>  <LE>  (492) 
0.230251

>  <percent_hybrid>  (492) 
48.0

>  <dist>  (492) 
10.0

>  <ecfp4>  (492) 
0.209302

>  <daylight>  (492) 
0.221122

>  <topodist>  (492) 
3.0

>  <mces>  (492) 
32.0

>  <tdn>  (492) 
1.0

>  <tup>  (492) 
1.0

>  <rdn>  (492) 
0.0

>  <rup>  (492) 
0.0

>  <ldn>  (492) 
1.0

>  <lup>  (492) 
0.0

>  <mut>  (492) 
5.0

>  <maj>  (492) 
5.0

>  <min>  (492) 
0.0

>  <hyb>  (492) 
2.0

>  <sub>  (492) 
0.0

>  <query_index>  (492) 
9.0

>  <max_hit_Tanimoto>  (492) 
0.228512

>  <largest_ring>  (492) 
6

>  <N_interactions_kept>  (492) 
1.5

>  <N_interactions_lost>  (492) 
1.5

>  <interaction_uniqueness_metric>  (492) 
0.116343

>  <ad_hoc_penalty>  (492) 
-5.781728

>  <N_rotatable_bonds>  (492) 
8

>  <N_HA>  (492) 
30

>  <cluster>  (492) 
4384

>  <N_interactions>  (492) 
5

>  <Enamine>  (492) 
1

>  <Mcule>  (492) 
0

>  <N_PAINS>  (492) 
0

>  <UFF_Gibbs>  (492) 
218.054335

>  <strain_per_HA>  (492) 
7.268478

>  <intxn_scored>  (492) 
7.5

>  <saltbridge:HIS:51>  (492) 
0

>  <pistack:HIS:51>  (492) 
1

>  <hydroph_interaction:HIS:51>  (492) 
1

>  <hbond:ALA:132>  (492) 
0

>  <hbond:SER:135>  (492) 
0

>  <hydroph_interaction:TYR:150>  (492) 
1

>  <pistack:TYR:161>  (492) 
1

>  <hydroph_interaction:TYR:161>  (492) 
0

>  <hydroph_interaction:ASP:83>  (492) 
0

>  <hbond:TYR:130>  (492) 
0

>  <hydroph_interaction:ALA:132>  (492) 
1

>  <hbond:HIS:51>  (492) 
0

>  <hbond:ASP:129>  (492) 
0

>  <hbond:TYR:150>  (492) 
0

>  <hbond:GLY:151>  (492) 
0

>  <hbond:TYR:161>  (492) 
0

>  <hydroph_interaction:TYR:130>  (492) 
0

>  <hydroph_interaction:PRO:131>  (492) 
0

>  <hydroph_interaction:ASP:129>  (492) 
0

>  <saltbridge:ASP:75>  (492) 
0

>  <saltbridge:ASP:83>  (492) 
0

>  <hbond:ASN:152>  (492) 
0

>  <hydroph_interaction:ASN:152>  (492) 
0

>  <halogenbond:TYR:150>  (492) 
0

>  <hbond:ASP:83>  (492) 
0

>  <hydroph_interaction:VAL:155>  (492) 
0

>  <pication:TYR:161>  (492) 
0

>  <hbond:PRO:131>  (492) 
0

>  <saltbridge:ASP:129>  (492) 
0

>  <hbond:THR:134>  (492) 
0

>  <pication:HIS:51>  (492) 
0

>  <hbond:SER:81>  (492) 
0

>  <hydroph_interaction:THR:134>  (492) 
0

>  <hydroph_interaction:MET:49>  (492) 
0

$$$$
CSSB00009893472
     RDKit          3D

 21 22  0  0  0  0  0  0  0  0999 V2000
   -3.0590    4.7780  -15.6800 Cl  0  0  0  0  0  0  0  0  0  0  0  0
   -4.6160    5.3110  -16.3340 C   0  0  0  0  0  0  0  0  0  0  0  0
   -4.5170    5.4810  -17.6660 C   0  0  0  0  0  0  0  0  0  0  0  0
   -3.4820    5.7400  -18.2780 O   0  0  0  0  0  0  0  0  0  0  0  0
   -5.7620    5.3120  -18.3910 N   0  0  0  0  0  0  0  0  0  0  0  0
   -5.7880    5.2360  -19.7660 C   0  0  0  0  0  0  0  0  0  0  0  0
   -7.0190    5.0680  -20.1690 C   0  0  0  0  0  0  0  0  0  0  0  0
   -7.9380    5.0250  -19.0440 C   0  0  0  0  0  0  0  0  0  0  0  0
   -9.3180    4.8590  -19.0890 C   0  0  0  0  0  0  0  0  0  0  0  0
   -9.9930    4.8460  -17.7870 C   0  0  0  0  0  0  0  0  0  0  0  0
   -9.1570    5.0060  -16.6650 C   0  0  0  0  0  0  0  0  0  0  0  0
   -7.7570    5.1760  -16.6500 C   0  0  0  0  0  0  0  0  0  0  0  0
   -7.1250    5.1830  -17.9050 C   0  0  0  0  0  0  0  0  0  0  0  0
   -5.4040    4.5880  -16.0930 H   0  0  0  0  0  0  0  0  0  0  0  0
   -4.8600    6.2650  -15.8560 H   0  0  0  0  0  0  0  0  0  0  0  0
   -4.9280    5.2990  -20.4200 H   0  0  0  0  0  0  0  0  0  0  0  0
   -7.3000    4.9700  -21.2100 H   0  0  0  0  0  0  0  0  0  0  0  0
   -9.8480    4.7500  -20.0260 H   0  0  0  0  0  0  0  0  0  0  0  0
  -11.0660    4.7220  -17.7090 H   0  0  0  0  0  0  0  0  0  0  0  0
   -9.5750    5.0100  -15.6530 H   0  0  0  0  0  0  0  0  0  0  0  0
   -7.1970    5.2920  -15.7240 H   0  0  0  0  0  0  0  0  0  0  0  0
  1  2  1  0
  2  3  1  0
  3  4  2  0
  3  5  1  0
  5  6  1  0
  6  7  2  0
  7  8  1  0
  8  9  2  0
  9 10  1  0
 10 11  2  0
 11 12  1  0
 12 13  2  0
 13  5  1  0
 13  8  1  0
  2 14  1  0
  2 15  1  0
  6 16  1  0
  7 17  1  0
  9 18  1  0
 10 19  1  0
 11 20  1  0
 12 21  1  0
A    1
CL1 
A    2
 C1 
A    3
 C2 
A    4
 O1 
A    5
 N1 
A    6
 C3 
A    7
 C4 
A    8
 C5 
A    9
 C6 
A   10
 C7 
A   11
 C8 
A   12
 C9 
A   13
 C10
A   14
 H1 
A   15
 H2 
A   16
 H3 
A   17
 H4 
A   18
 H5 
A   19
 H6 
A   20
 H7 
A   21
 H8 
M  END
>  <ref_pdb>  (493) 
x0051_0B

>  <ref_mols>  (493) 
x0490_0B,x0800_0B

>  <original SMILES>  (493) 
[H]c1c([H])c([H])c2c(c1[H])c([H])c([H])n2C(=O)C([H])([H])Cl

>  <index>  (493) 
3321

>  <∆∆G>  (493) 
-6.630934

>  <∆G_bound>  (493) 
-6.332535

>  <∆G_unbound>  (493) 
0.298399

>  <comRMSD>  (493) 
0.763216

>  <N_constrained_atoms>  (493) 
14.0

>  <N_unconstrained_atoms>  (493) 
1.0

>  <runtime>  (493) 
25.829376

>  <LE>  (493) 
0.442062

>  <percent_hybrid>  (493) 
50.0

>  <dist>  (493) 
2.0

>  <ecfp4>  (493) 
0.276596

>  <daylight>  (493) 
0.45977

>  <topodist>  (493) 
1.0

>  <mces>  (493) 
13.0

>  <tdn>  (493) 
0.0

>  <tup>  (493) 
1.0

>  <rdn>  (493) 
0.0

>  <rup>  (493) 
0.0

>  <ldn>  (493) 
0.0

>  <lup>  (493) 
0.0

>  <mut>  (493) 
1.0

>  <maj>  (493) 
1.0

>  <min>  (493) 
0.0

>  <hyb>  (493) 
0.0

>  <sub>  (493) 
1.0

>  <query_index>  (493) 
250.0

>  <max_hit_Tanimoto>  (493) 
0.303435

>  <largest_ring>  (493) 
6

>  <N_interactions_kept>  (493) 
0.0

>  <N_interactions_lost>  (493) 
4.0

>  <interaction_uniqueness_metric>  (493) 
0.044868

>  <ad_hoc_penalty>  (493) 
-1.737041

>  <N_rotatable_bonds>  (493) 
1

>  <N_HA>  (493) 
13

>  <cluster>  (493) 
3140

>  <N_interactions>  (493) 
5

>  <Enamine>  (493) 
1

>  <Mcule>  (493) 
0

>  <N_PAINS>  (493) 
0

>  <UFF_Gibbs>  (493) 
47.535125

>  <strain_per_HA>  (493) 
3.656548

>  <intxn_scored>  (493) 
7.5

>  <saltbridge:HIS:51>  (493) 
0

>  <pistack:HIS:51>  (493) 
0

>  <hydroph_interaction:HIS:51>  (493) 
0

>  <hbond:ALA:132>  (493) 
0

>  <hbond:SER:135>  (493) 
0

>  <hydroph_interaction:TYR:150>  (493) 
1

>  <pistack:TYR:161>  (493) 
1

>  <hydroph_interaction:TYR:161>  (493) 
3

>  <hydroph_interaction:ASP:83>  (493) 
0

>  <hbond:TYR:130>  (493) 
0

>  <hydroph_interaction:ALA:132>  (493) 
0

>  <hbond:HIS:51>  (493) 
0

>  <hbond:ASP:129>  (493) 
0

>  <hbond:TYR:150>  (493) 
0

>  <hbond:GLY:151>  (493) 
0

>  <hbond:TYR:161>  (493) 
0

>  <hydroph_interaction:TYR:130>  (493) 
0

>  <hydroph_interaction:PRO:131>  (493) 
0

>  <hydroph_interaction:ASP:129>  (493) 
0

>  <saltbridge:ASP:75>  (493) 
0

>  <saltbridge:ASP:83>  (493) 
0

>  <hbond:ASN:152>  (493) 
0

>  <hydroph_interaction:ASN:152>  (493) 
0

>  <halogenbond:TYR:150>  (493) 
0

>  <hbond:ASP:83>  (493) 
0

>  <hydroph_interaction:VAL:155>  (493) 
0

>  <pication:TYR:161>  (493) 
0

>  <hbond:PRO:131>  (493) 
0

>  <saltbridge:ASP:129>  (493) 
0

>  <hbond:THR:134>  (493) 
0

>  <pication:HIS:51>  (493) 
0

>  <hbond:SER:81>  (493) 
0

>  <hydroph_interaction:THR:134>  (493) 
0

>  <hydroph_interaction:MET:49>  (493) 
0

$$$$
CSSS00011935177
     RDKit          3D

 18 19  0  0  0  0  0  0  0  0999 V2000
   -7.2150    5.2890  -14.2240 N   0  0  0  0  0  0  0  0  0  0  0  0
   -7.7210    5.2110  -15.2610 C   0  0  0  0  0  0  0  0  0  0  0  0
   -8.2570    5.1010  -16.5400 C   0  0  0  0  0  0  0  0  0  0  0  0
   -9.6280    4.8730  -16.7380 C   0  0  0  0  0  0  0  0  0  0  0  0
  -10.1530    4.7570  -18.0360 C   0  0  0  0  0  0  0  0  0  0  0  0
   -9.1540    4.8830  -19.1840 C   0  0  0  0  0  0  0  0  0  0  0  0
   -7.8170    5.1060  -18.9310 C   0  0  0  0  0  0  0  0  0  0  0  0
   -6.8980    5.2210  -19.9800 C   0  0  0  0  0  0  0  0  0  0  0  0
   -5.5460    5.4510  -19.6980 C   0  0  0  0  0  0  0  0  0  0  0  0
   -5.0530    5.5710  -18.4130 N   0  0  0  0  0  0  0  0  0  0  0  0
   -5.9890    5.4480  -17.4510 C   0  0  0  0  0  0  0  0  0  0  0  0
   -7.3570    5.2200  -17.6110 C   0  0  0  0  0  0  0  0  0  0  0  0
  -10.2970    4.7860  -15.8820 H   0  0  0  0  0  0  0  0  0  0  0  0
  -11.2120    4.5820  -18.2150 H   0  0  0  0  0  0  0  0  0  0  0  0
   -9.5160    4.7970  -20.2080 H   0  0  0  0  0  0  0  0  0  0  0  0
   -7.2060    5.1340  -21.0150 H   0  0  0  0  0  0  0  0  0  0  0  0
   -4.8120    5.5450  -20.4950 H   0  0  0  0  0  0  0  0  0  0  0  0
   -5.6520    5.5300  -16.4150 H   0  0  0  0  0  0  0  0  0  0  0  0
  1  2  3  0
  2  3  1  0
  3  4  2  0
  4  5  1  0
  5  6  2  0
  6  7  1  0
  7  8  2  0
  8  9  1  0
  9 10  2  0
 10 11  1  0
 11 12  2  0
 12  3  1  0
 12  7  1  0
  4 13  1  0
  5 14  1  0
  6 15  1  0
  8 16  1  0
  9 17  1  0
 11 18  1  0
A    1
 N1 
A    2
 C1 
A    3
 C2 
A    4
 C3 
A    5
 C4 
A    6
 C5 
A    7
 C6 
A    8
 C7 
A    9
 C8 
A   10
 N2 
A   11
 C9 
A   12
 C10
A   13
 H1 
A   14
 H2 
A   15
 H3 
A   16
 H4 
A   17
 H5 
A   18
 H6 
M  END
>  <ref_pdb>  (494) 
x0051_0B

>  <ref_mols>  (494) 
x0727_0B,x0455_0B

>  <original SMILES>  (494) 
[H]c1nc([H])c2c(C#N)c([H])c([H])c([H])c2c1[H]

>  <index>  (494) 
1269

>  <∆∆G>  (494) 
-6.091835

>  <∆G_bound>  (494) 
-5.899926

>  <∆G_unbound>  (494) 
0.191909

>  <comRMSD>  (494) 
0.43565

>  <N_constrained_atoms>  (494) 
13.0

>  <N_unconstrained_atoms>  (494) 
0.0

>  <runtime>  (494) 
16.748806

>  <LE>  (494) 
0.468603

>  <percent_hybrid>  (494) 
40.0

>  <dist>  (494) 
5.0

>  <ecfp4>  (494) 
0.208333

>  <daylight>  (494) 
0.427083

>  <topodist>  (494) 
3.0

>  <mces>  (494) 
13.0

>  <tdn>  (494) 
2.0

>  <tup>  (494) 
0.0

>  <rdn>  (494) 
1.0

>  <rup>  (494) 
0.0

>  <ldn>  (494) 
0.0

>  <lup>  (494) 
0.0

>  <mut>  (494) 
1.0

>  <maj>  (494) 
1.0

>  <min>  (494) 
0.0

>  <hyb>  (494) 
1.0

>  <sub>  (494) 
1.0

>  <query_index>  (494) 
57.0

>  <max_hit_Tanimoto>  (494) 
0.32266

>  <largest_ring>  (494) 
6

>  <N_interactions_kept>  (494) 
0.0

>  <N_interactions_lost>  (494) 
3.0

>  <interaction_uniqueness_metric>  (494) 
0.044868

>  <ad_hoc_penalty>  (494) 
-15.239864

>  <N_rotatable_bonds>  (494) 
0

>  <N_HA>  (494) 
12

>  <cluster>  (494) 
5051

>  <N_interactions>  (494) 
5

>  <Enamine>  (494) 
1

>  <Mcule>  (494) 
0

>  <N_PAINS>  (494) 
0

>  <UFF_Gibbs>  (494) 
22.267858

>  <strain_per_HA>  (494) 
1.855655

>  <intxn_scored>  (494) 
7.5

>  <saltbridge:HIS:51>  (494) 
0

>  <pistack:HIS:51>  (494) 
0

>  <hydroph_interaction:HIS:51>  (494) 
0

>  <hbond:ALA:132>  (494) 
0

>  <hbond:SER:135>  (494) 
0

>  <hydroph_interaction:TYR:150>  (494) 
1

>  <pistack:TYR:161>  (494) 
1

>  <hydroph_interaction:TYR:161>  (494) 
3

>  <hydroph_interaction:ASP:83>  (494) 
0

>  <hbond:TYR:130>  (494) 
0

>  <hydroph_interaction:ALA:132>  (494) 
0

>  <hbond:HIS:51>  (494) 
0

>  <hbond:ASP:129>  (494) 
0

>  <hbond:TYR:150>  (494) 
0

>  <hbond:GLY:151>  (494) 
0

>  <hbond:TYR:161>  (494) 
0

>  <hydroph_interaction:TYR:130>  (494) 
0

>  <hydroph_interaction:PRO:131>  (494) 
0

>  <hydroph_interaction:ASP:129>  (494) 
0

>  <saltbridge:ASP:75>  (494) 
0

>  <saltbridge:ASP:83>  (494) 
0

>  <hbond:ASN:152>  (494) 
0

>  <hydroph_interaction:ASN:152>  (494) 
0

>  <halogenbond:TYR:150>  (494) 
0

>  <hbond:ASP:83>  (494) 
0

>  <hydroph_interaction:VAL:155>  (494) 
0

>  <pication:TYR:161>  (494) 
0

>  <hbond:PRO:131>  (494) 
0

>  <saltbridge:ASP:129>  (494) 
0

>  <hbond:THR:134>  (494) 
0

>  <pication:HIS:51>  (494) 
0

>  <hbond:SER:81>  (494) 
0

>  <hydroph_interaction:THR:134>  (494) 
0

>  <hydroph_interaction:MET:49>  (494) 
0

$$$$
Z1767520414
     RDKit          3D

 46 47  0  0  0  0  0  0  0  0999 V2000
   -8.6320    4.4560   -9.2560 C   0  0  0  0  0  0  0  0  0  0  0  0
   -8.0560    5.0550  -10.4680 C   0  0  0  0  0  0  0  0  0  0  0  0
   -8.5580    6.3810  -10.9380 C   0  0  0  0  0  0  0  0  0  0  0  0
   -8.9590    6.3090  -12.3800 C   0  0  0  0  0  0  0  0  0  0  0  0
   -9.0790    4.8950  -12.7800 C   0  0  0  0  0  0  0  0  0  0  0  0
   -8.6860    4.6530  -14.1620 N   0  0  0  0  0  0  0  0  0  0  0  0
   -8.5380    5.7080  -15.0360 C   0  0  0  0  0  0  0  0  0  0  0  0
   -8.4180    6.8660  -14.6770 O   0  0  0  0  0  0  0  0  0  0  0  0
   -8.4960    5.4490  -16.4030 C   0  0  0  0  0  0  0  0  0  0  0  0
   -9.5380    4.8000  -17.0750 C   0  0  0  0  0  0  0  0  0  0  0  0
   -9.4190    4.5760  -18.5110 C   0  0  0  0  0  0  0  0  0  0  0  0
   -8.1780    5.0630  -19.1810 C   0  0  0  0  0  0  0  0  0  0  0  0
   -7.1840    5.6990  -18.4510 C   0  0  0  0  0  0  0  0  0  0  0  0
   -6.0910    6.1220  -19.1340 O   0  0  0  0  0  0  0  0  0  0  0  0
   -5.7330    5.4720  -20.3290 C   0  0  0  0  0  0  0  0  0  0  0  0
   -4.2200    5.3330  -20.3720 C   0  0  0  0  0  0  0  0  0  0  0  0
   -3.6440    5.1140  -19.0900 O   0  0  0  0  0  0  0  0  0  0  0  0
   -3.5040    5.3990  -21.5340 N   0  0  0  0  0  0  0  0  0  0  0  0
   -2.1400    4.8640  -21.6160 C   0  0  0  0  0  0  0  0  0  0  0  0
   -4.2040    5.4480  -22.8130 C   0  0  0  0  0  0  0  0  0  0  0  0
   -7.3510    5.8810  -17.0860 C   0  0  0  0  0  0  0  0  0  0  0  0
   -8.2180    4.1450  -11.7280 C   0  0  0  0  0  0  0  0  0  0  0  0
   -9.5020    5.0230   -8.9220 H   0  0  0  0  0  0  0  0  0  0  0  0
   -7.9000    4.4480   -8.4440 H   0  0  0  0  0  0  0  0  0  0  0  0
   -8.9540    3.4250   -9.4440 H   0  0  0  0  0  0  0  0  0  0  0  0
   -6.9830    5.1750  -10.2790 H   0  0  0  0  0  0  0  0  0  0  0  0
   -9.4180    6.7020  -10.3380 H   0  0  0  0  0  0  0  0  0  0  0  0
   -7.7840    7.1490  -10.8290 H   0  0  0  0  0  0  0  0  0  0  0  0
   -8.2230    6.8270  -13.0040 H   0  0  0  0  0  0  0  0  0  0  0  0
   -9.9140    6.8330  -12.5100 H   0  0  0  0  0  0  0  0  0  0  0  0
  -10.1000    4.5720  -12.6360 H   0  0  0  0  0  0  0  0  0  0  0  0
   -9.0500    3.7940  -14.5610 H   0  0  0  0  0  0  0  0  0  0  0  0
  -10.4000    4.4870  -16.4990 H   0  0  0  0  0  0  0  0  0  0  0  0
  -10.1990    4.0800  -19.0630 H   0  0  0  0  0  0  0  0  0  0  0  0
   -7.9580    4.9650  -20.2490 H   0  0  0  0  0  0  0  0  0  0  0  0
   -6.1850    4.4760  -20.4120 H   0  0  0  0  0  0  0  0  0  0  0  0
   -6.0350    6.0770  -21.1920 H   0  0  0  0  0  0  0  0  0  0  0  0
   -1.6220    5.0480  -20.6680 H   0  0  0  0  0  0  0  0  0  0  0  0
   -1.5550    5.3530  -22.4060 H   0  0  0  0  0  0  0  0  0  0  0  0
   -2.1750    3.7890  -21.8180 H   0  0  0  0  0  0  0  0  0  0  0  0
   -4.3770    6.4730  -23.1600 H   0  0  0  0  0  0  0  0  0  0  0  0
   -5.1910    4.9890  -22.6790 H   0  0  0  0  0  0  0  0  0  0  0  0
   -3.6160    4.8970  -23.5510 H   0  0  0  0  0  0  0  0  0  0  0  0
   -6.5710    6.3840  -16.5050 H   0  0  0  0  0  0  0  0  0  0  0  0
   -8.7420    3.2320  -11.4560 H   0  0  0  0  0  0  0  0  0  0  0  0
   -7.2490    3.8430  -12.1110 H   0  0  0  0  0  0  0  0  0  0  0  0
  1  2  1  0
  2  3  1  0
  3  4  1  0
  4  5  1  0
  5  6  1  0
  6  7  1  0
  7  8  2  0
  7  9  1  0
  9 10  2  0
 10 11  1  0
 11 12  2  0
 12 13  1  0
 13 14  1  0
 14 15  1  0
 15 16  1  0
 16 17  2  0
 16 18  1  0
 18 19  1  0
 18 20  1  0
 13 21  2  0
  5 22  1  0
 22  2  1  0
 21  9  1  0
  1 23  1  0
  1 24  1  0
  1 25  1  0
  2 26  1  0
  3 27  1  0
  3 28  1  0
  4 29  1  0
  4 30  1  0
  5 31  1  0
  6 32  1  0
 10 33  1  0
 11 34  1  0
 12 35  1  0
 15 36  1  0
 15 37  1  0
 19 38  1  0
 19 39  1  0
 19 40  1  0
 20 41  1  0
 20 42  1  0
 20 43  1  0
 21 44  1  0
 22 45  1  0
 22 46  1  0
A    1
 C1 
A    2
 C2 
A    3
 C3 
A    4
 C4 
A    5
 C5 
A    6
 N1 
A    7
 C6 
A    8
 O1 
A    9
 C7 
A   10
 C8 
A   11
 C9 
A   12
 C10
A   13
 C11
A   14
 O2 
A   15
 C12
A   16
 C13
A   17
 O3 
A   18
 N2 
A   19
 C14
A   20
 C15
A   21
 C16
A   22
 C17
A   23
 H1 
A   24
 H2 
A   25
 H3 
A   26
 H4 
A   27
 H5 
A   28
 H6 
A   29
 H7 
A   30
 H8 
A   31
 H9 
A   32
 H10
A   33
 H11
A   34
 H12
A   35
 H13
A   36
 H14
A   37
 H15
A   38
 H16
A   39
 H17
A   40
 H18
A   41
 H19
A   42
 H20
A   43
 H21
A   44
 H22
A   45
 H23
A   46
 H24
M  END
>  <ref_pdb>  (495) 
x0051_0B

>  <ref_mols>  (495) 
x0904_0B,x1098_0B

>  <original SMILES>  (495) 
[H]c1c([H])c(OC([H])([H])C(=O)N(C([H])([H])[H])C([H])([H])[H])c([H])c(C(=O)N([H])C2([H])C([H])([H])C([H])([H])C([H])(C([H])([H])[H])C2([H])[H])c1[H]

>  <index>  (495) 
2344

>  <∆∆G>  (495) 
-7.515344

>  <∆G_bound>  (495) 
-7.324444

>  <∆G_unbound>  (495) 
0.1909

>  <comRMSD>  (495) 
0.578401

>  <N_constrained_atoms>  (495) 
24.0

>  <N_unconstrained_atoms>  (495) 
0.0

>  <runtime>  (495) 
41.469292

>  <LE>  (495) 
0.313139

>  <percent_hybrid>  (495) 
42.0

>  <dist>  (495) 
9.0

>  <ecfp4>  (495) 
0.307692

>  <daylight>  (495) 
0.239362

>  <topodist>  (495) 
3.0

>  <mces>  (495) 
23.0

>  <tdn>  (495) 
3.0

>  <tup>  (495) 
0.0

>  <rdn>  (495) 
0.0

>  <rup>  (495) 
0.0

>  <ldn>  (495) 
0.0

>  <lup>  (495) 
0.0

>  <mut>  (495) 
3.0

>  <maj>  (495) 
3.0

>  <min>  (495) 
0.0

>  <hyb>  (495) 
3.0

>  <sub>  (495) 
0.0

>  <query_index>  (495) 
34.0

>  <max_hit_Tanimoto>  (495) 
0.324561

>  <largest_ring>  (495) 
6

>  <N_interactions_kept>  (495) 
3.0

>  <N_interactions_lost>  (495) 
3.0

>  <interaction_uniqueness_metric>  (495) 
0.147832

>  <ad_hoc_penalty>  (495) 
-1.803696

>  <N_rotatable_bonds>  (495) 
8

>  <N_HA>  (495) 
22

>  <cluster>  (495) 
4064

>  <N_interactions>  (495) 
7

>  <Enamine>  (495) 
1

>  <Mcule>  (495) 
0

>  <N_PAINS>  (495) 
0

>  <UFF_Gibbs>  (495) 
216.11774

>  <strain_per_HA>  (495) 
9.823534

>  <intxn_scored>  (495) 
7.5

>  <saltbridge:HIS:51>  (495) 
0

>  <pistack:HIS:51>  (495) 
0

>  <hydroph_interaction:HIS:51>  (495) 
1

>  <hbond:ALA:132>  (495) 
0

>  <hbond:SER:135>  (495) 
0

>  <hydroph_interaction:TYR:150>  (495) 
1

>  <pistack:TYR:161>  (495) 
0

>  <hydroph_interaction:TYR:161>  (495) 
2

>  <hydroph_interaction:ASP:83>  (495) 
0

>  <hbond:TYR:130>  (495) 
0

>  <hydroph_interaction:ALA:132>  (495) 
1

>  <hbond:HIS:51>  (495) 
0

>  <hbond:ASP:129>  (495) 
0

>  <hbond:TYR:150>  (495) 
0

>  <hbond:GLY:151>  (495) 
0

>  <hbond:TYR:161>  (495) 
2

>  <hydroph_interaction:TYR:130>  (495) 
0

>  <hydroph_interaction:PRO:131>  (495) 
0

>  <hydroph_interaction:ASP:129>  (495) 
0

>  <saltbridge:ASP:75>  (495) 
0

>  <saltbridge:ASP:83>  (495) 
0

>  <hbond:ASN:152>  (495) 
0

>  <hydroph_interaction:ASN:152>  (495) 
0

>  <halogenbond:TYR:150>  (495) 
0

>  <hbond:ASP:83>  (495) 
0

>  <hydroph_interaction:VAL:155>  (495) 
0

>  <pication:TYR:161>  (495) 
0

>  <hbond:PRO:131>  (495) 
0

>  <saltbridge:ASP:129>  (495) 
0

>  <hbond:THR:134>  (495) 
0

>  <pication:HIS:51>  (495) 
0

>  <hbond:SER:81>  (495) 
0

>  <hydroph_interaction:THR:134>  (495) 
0

>  <hydroph_interaction:MET:49>  (495) 
0

$$$$
PV-003832166875
     RDKit          3D

 24 25  0  0  0  0  0  0  0  0999 V2000
   -3.0240    5.5280  -17.3150 C   0  0  0  0  0  0  0  0  0  0  0  0
   -4.2570    5.4290  -18.1580 C   0  0  0  0  0  0  0  0  0  0  0  0
   -4.0000    5.4570  -19.6360 C   0  0  0  0  0  0  0  0  0  0  0  0
   -4.9860    5.3730  -20.5430 N   0  0  0  0  0  0  0  0  0  0  0  0
   -6.2730    5.2460  -20.0310 C   0  0  0  0  0  0  0  0  0  0  0  0
   -6.6110    5.2090  -18.6720 C   0  0  0  0  0  0  0  0  0  0  0  0
   -7.9490    5.0600  -18.3470 C   0  0  0  0  0  0  0  0  0  0  0  0
   -8.3830    5.1370  -17.0380 C   0  0  0  0  0  0  0  0  0  0  0  0
   -9.7260    4.9520  -16.9990 O   0  0  0  0  0  0  0  0  0  0  0  0
  -10.1860    4.7540  -18.2770 C   0  0  0  0  0  0  0  0  0  0  0  0
   -9.1370    4.8030  -19.1980 C   0  0  0  0  0  0  0  0  0  0  0  0
   -5.5790    5.3120  -17.7000 C   0  0  0  0  0  0  0  0  0  0  0  0
   -5.8610    5.2930  -16.2010 C   0  0  0  0  0  0  0  0  0  0  0  0
   -2.1440    5.2230  -17.8870 H   0  0  0  0  0  0  0  0  0  0  0  0
   -2.8970    6.5460  -16.9320 H   0  0  0  0  0  0  0  0  0  0  0  0
   -3.0980    4.8560  -16.4500 H   0  0  0  0  0  0  0  0  0  0  0  0
   -2.9990    5.5470  -20.0470 H   0  0  0  0  0  0  0  0  0  0  0  0
   -7.0440    5.1700  -20.8020 H   0  0  0  0  0  0  0  0  0  0  0  0
   -7.9060    5.3050  -16.0840 H   0  0  0  0  0  0  0  0  0  0  0  0
  -11.2500    4.5960  -18.3670 H   0  0  0  0  0  0  0  0  0  0  0  0
   -9.1940    4.6800  -20.2710 H   0  0  0  0  0  0  0  0  0  0  0  0
   -6.6020    4.5300  -15.9640 H   0  0  0  0  0  0  0  0  0  0  0  0
   -6.2330    6.2600  -15.8460 H   0  0  0  0  0  0  0  0  0  0  0  0
   -4.9490    5.1020  -15.6250 H   0  0  0  0  0  0  0  0  0  0  0  0
  1  2  1  0
  2  3  2  0
  3  4  1  0
  4  5  2  0
  5  6  1  0
  6  7  1  0
  7  8  2  0
  8  9  1  0
  9 10  1  0
 10 11  2  0
  6 12  2  0
 12 13  1  0
 12  2  1  0
 11  7  1  0
  1 14  1  0
  1 15  1  0
  1 16  1  0
  3 17  1  0
  5 18  1  0
  8 19  1  0
 10 20  1  0
 11 21  1  0
 13 22  1  0
 13 23  1  0
 13 24  1  0
A    1
 C1 
A    2
 C2 
A    3
 C3 
A    4
 N1 
A    5
 C4 
A    6
 C5 
A    7
 C6 
A    8
 C7 
A    9
 O1 
A   10
 C8 
A   11
 C9 
A   12
 C10
A   13
 C11
A   14
 H1 
A   15
 H2 
A   16
 H3 
A   17
 H4 
A   18
 H5 
A   19
 H6 
A   20
 H7 
A   21
 H8 
A   22
 H9 
A   23
 H10
A   24
 H11
M  END
>  <ref_pdb>  (496) 
x0051_0B

>  <ref_mols>  (496) 
x0680_0B,x0386_0B

>  <original SMILES>  (496) 
[H]c1nc([H])c(C([H])([H])[H])c(C([H])([H])[H])c1-c1c([H])oc([H])c1[H]

>  <index>  (496) 
816

>  <∆∆G>  (496) 
-7.181895

>  <∆G_bound>  (496) 
-7.405176

>  <∆G_unbound>  (496) 
-0.223281

>  <comRMSD>  (496) 
0.802901

>  <N_constrained_atoms>  (496) 
13.0

>  <N_unconstrained_atoms>  (496) 
1.0

>  <runtime>  (496) 
23.642589

>  <LE>  (496) 
0.512993

>  <percent_hybrid>  (496) 
25.0

>  <dist>  (496) 
2.0

>  <ecfp4>  (496) 
0.340426

>  <daylight>  (496) 
0.465649

>  <topodist>  (496) 
1.0

>  <mces>  (496) 
13.0

>  <tdn>  (496) 
0.0

>  <tup>  (496) 
1.0

>  <rdn>  (496) 
0.0

>  <rup>  (496) 
0.0

>  <ldn>  (496) 
0.0

>  <lup>  (496) 
0.0

>  <mut>  (496) 
1.0

>  <maj>  (496) 
1.0

>  <min>  (496) 
0.0

>  <hyb>  (496) 
0.0

>  <sub>  (496) 
1.0

>  <query_index>  (496) 
296.0

>  <max_hit_Tanimoto>  (496) 
0.172573

>  <largest_ring>  (496) 
6

>  <N_interactions_kept>  (496) 
2.0

>  <N_interactions_lost>  (496) 
2.0

>  <interaction_uniqueness_metric>  (496) 
0.044868

>  <ad_hoc_penalty>  (496) 
-8.032572

>  <N_rotatable_bonds>  (496) 
3

>  <N_HA>  (496) 
13

>  <cluster>  (496) 
5470

>  <N_interactions>  (496) 
5

>  <Enamine>  (496) 
1

>  <Mcule>  (496) 
0

>  <N_PAINS>  (496) 
0

>  <UFF_Gibbs>  (496) 
164.8795

>  <strain_per_HA>  (496) 
12.683038

>  <intxn_scored>  (496) 
7.5

>  <saltbridge:HIS:51>  (496) 
0

>  <pistack:HIS:51>  (496) 
0

>  <hydroph_interaction:HIS:51>  (496) 
0

>  <hbond:ALA:132>  (496) 
0

>  <hbond:SER:135>  (496) 
0

>  <hydroph_interaction:TYR:150>  (496) 
1

>  <pistack:TYR:161>  (496) 
1

>  <hydroph_interaction:TYR:161>  (496) 
3

>  <hydroph_interaction:ASP:83>  (496) 
0

>  <hbond:TYR:130>  (496) 
0

>  <hydroph_interaction:ALA:132>  (496) 
0

>  <hbond:HIS:51>  (496) 
0

>  <hbond:ASP:129>  (496) 
0

>  <hbond:TYR:150>  (496) 
0

>  <hbond:GLY:151>  (496) 
0

>  <hbond:TYR:161>  (496) 
0

>  <hydroph_interaction:TYR:130>  (496) 
0

>  <hydroph_interaction:PRO:131>  (496) 
0

>  <hydroph_interaction:ASP:129>  (496) 
0

>  <saltbridge:ASP:75>  (496) 
0

>  <saltbridge:ASP:83>  (496) 
0

>  <hbond:ASN:152>  (496) 
0

>  <hydroph_interaction:ASN:152>  (496) 
0

>  <halogenbond:TYR:150>  (496) 
0

>  <hbond:ASP:83>  (496) 
0

>  <hydroph_interaction:VAL:155>  (496) 
0

>  <pication:TYR:161>  (496) 
0

>  <hbond:PRO:131>  (496) 
0

>  <saltbridge:ASP:129>  (496) 
0

>  <hbond:THR:134>  (496) 
0

>  <pication:HIS:51>  (496) 
0

>  <hbond:SER:81>  (496) 
0

>  <hydroph_interaction:THR:134>  (496) 
0

>  <hydroph_interaction:MET:49>  (496) 
0

$$$$
CSSB00000102440
     RDKit          3D

 22 23  0  0  0  0  0  0  0  0999 V2000
  -10.9420    4.9750  -18.5910 C   0  0  0  0  0  0  0  0  0  0  0  0
   -9.5650    5.0250  -18.0710 C   0  0  0  0  0  0  0  0  0  0  0  0
   -8.5650    5.1310  -19.0200 C   0  0  0  0  0  0  0  0  0  0  0  0
   -7.2520    5.2410  -18.6510 C   0  0  0  0  0  0  0  0  0  0  0  0
   -6.2840    5.3560  -19.6370 C   0  0  0  0  0  0  0  0  0  0  0  0
   -4.9670    5.4760  -19.2470 C   0  0  0  0  0  0  0  0  0  0  0  0
   -4.5720    5.4850  -17.9610 N   0  0  0  0  0  0  0  0  0  0  0  0
   -5.5250    5.3680  -17.0090 C   0  0  0  0  0  0  0  0  0  0  0  0
   -5.0410    5.3820  -15.6970 N   0  0  0  0  0  0  0  0  0  0  0  0
   -6.8870    5.2420  -17.2930 C   0  0  0  0  0  0  0  0  0  0  0  0
   -7.9160    5.1150  -16.3200 C   0  0  0  0  0  0  0  0  0  0  0  0
   -9.2520    5.0060  -16.7110 C   0  0  0  0  0  0  0  0  0  0  0  0
  -11.5330    5.6900  -18.0780 H   0  0  0  0  0  0  0  0  0  0  0  0
  -10.9300    5.2730  -19.6380 H   0  0  0  0  0  0  0  0  0  0  0  0
  -11.3940    4.0090  -18.4800 H   0  0  0  0  0  0  0  0  0  0  0  0
   -8.8370    5.1390  -20.0730 H   0  0  0  0  0  0  0  0  0  0  0  0
   -6.5390    5.3570  -20.6920 H   0  0  0  0  0  0  0  0  0  0  0  0
   -4.1720    5.5710  -19.9810 H   0  0  0  0  0  0  0  0  0  0  0  0
   -4.1960    4.8320  -15.6190 H   0  0  0  0  0  0  0  0  0  0  0  0
   -5.7890    5.0120  -15.1130 H   0  0  0  0  0  0  0  0  0  0  0  0
   -7.6760    5.1040  -15.2590 H   0  0  0  0  0  0  0  0  0  0  0  0
  -10.0310    4.9180  -15.9540 H   0  0  0  0  0  0  0  0  0  0  0  0
  1  2  1  0
  2  3  2  0
  3  4  1  0
  4  5  2  0
  5  6  1  0
  6  7  2  0
  7  8  1  0
  8  9  1  0
  8 10  2  0
 10 11  1  0
 11 12  2  0
 12  2  1  0
 10  4  1  0
  1 13  1  0
  1 14  1  0
  1 15  1  0
  3 16  1  0
  5 17  1  0
  6 18  1  0
  9 19  1  0
  9 20  1  0
 11 21  1  0
 12 22  1  0
A    1
 C1 
A    2
 C2 
A    3
 C3 
A    4
 C4 
A    5
 C5 
A    6
 C6 
A    7
 N1 
A    8
 C7 
A    9
 N2 
A   10
 C8 
A   11
 C9 
A   12
 C10
A   13
 H1 
A   14
 H2 
A   15
 H3 
A   16
 H4 
A   17
 H5 
A   18
 H6 
A   19
 H7 
A   20
 H8 
A   21
 H9 
A   22
 H10
M  END
>  <ref_pdb>  (497) 
x0051_0B

>  <ref_mols>  (497) 
x0727_0B,x0605_0B

>  <original SMILES>  (497) 
[H]c1nc(N([H])[H])c2c([H])c([H])c(C([H])([H])[H])c([H])c2c1[H]

>  <index>  (497) 
2706

>  <∆∆G>  (497) 
-6.716056

>  <∆G_bound>  (497) 
-6.63764

>  <∆G_unbound>  (497) 
0.078416

>  <comRMSD>  (497) 
0.638898

>  <N_constrained_atoms>  (497) 
14.0

>  <N_unconstrained_atoms>  (497) 
0.0

>  <runtime>  (497) 
25.253446

>  <LE>  (497) 
0.479718

>  <percent_hybrid>  (497) 
29.0

>  <dist>  (497) 
1.0

>  <ecfp4>  (497) 
0.555556

>  <daylight>  (497) 
0.793651

>  <topodist>  (497) 
1.0

>  <mces>  (497) 
13.0

>  <tdn>  (497) 
1.0

>  <tup>  (497) 
0.0

>  <rdn>  (497) 
0.0

>  <rup>  (497) 
0.0

>  <ldn>  (497) 
0.0

>  <lup>  (497) 
0.0

>  <mut>  (497) 
0.0

>  <maj>  (497) 
0.0

>  <min>  (497) 
0.0

>  <hyb>  (497) 
0.0

>  <sub>  (497) 
1.0

>  <query_index>  (497) 
74.0

>  <max_hit_Tanimoto>  (497) 
0.656535

>  <largest_ring>  (497) 
6

>  <N_interactions_kept>  (497) 
0.0

>  <N_interactions_lost>  (497) 
3.5

>  <interaction_uniqueness_metric>  (497) 
0.044868

>  <ad_hoc_penalty>  (497) 
-6.008327

>  <N_rotatable_bonds>  (497) 
2

>  <N_HA>  (497) 
12

>  <cluster>  (497) 
3722

>  <N_interactions>  (497) 
5

>  <Enamine>  (497) 
1

>  <Mcule>  (497) 
0

>  <N_PAINS>  (497) 
0

>  <UFF_Gibbs>  (497) 
29.924741

>  <strain_per_HA>  (497) 
2.493728

>  <intxn_scored>  (497) 
7.5

>  <saltbridge:HIS:51>  (497) 
0

>  <pistack:HIS:51>  (497) 
0

>  <hydroph_interaction:HIS:51>  (497) 
0

>  <hbond:ALA:132>  (497) 
0

>  <hbond:SER:135>  (497) 
0

>  <hydroph_interaction:TYR:150>  (497) 
1

>  <pistack:TYR:161>  (497) 
1

>  <hydroph_interaction:TYR:161>  (497) 
3

>  <hydroph_interaction:ASP:83>  (497) 
0

>  <hbond:TYR:130>  (497) 
0

>  <hydroph_interaction:ALA:132>  (497) 
0

>  <hbond:HIS:51>  (497) 
0

>  <hbond:ASP:129>  (497) 
0

>  <hbond:TYR:150>  (497) 
0

>  <hbond:GLY:151>  (497) 
0

>  <hbond:TYR:161>  (497) 
0

>  <hydroph_interaction:TYR:130>  (497) 
0

>  <hydroph_interaction:PRO:131>  (497) 
0

>  <hydroph_interaction:ASP:129>  (497) 
0

>  <saltbridge:ASP:75>  (497) 
0

>  <saltbridge:ASP:83>  (497) 
0

>  <hbond:ASN:152>  (497) 
0

>  <hydroph_interaction:ASN:152>  (497) 
0

>  <halogenbond:TYR:150>  (497) 
0

>  <hbond:ASP:83>  (497) 
0

>  <hydroph_interaction:VAL:155>  (497) 
0

>  <pication:TYR:161>  (497) 
0

>  <hbond:PRO:131>  (497) 
0

>  <saltbridge:ASP:129>  (497) 
0

>  <hbond:THR:134>  (497) 
0

>  <pication:HIS:51>  (497) 
0

>  <hbond:SER:81>  (497) 
0

>  <hydroph_interaction:THR:134>  (497) 
0

>  <hydroph_interaction:MET:49>  (497) 
0

$$$$
PV-005941073259
     RDKit          3D

 50 53  0  0  0  0  0  0  0  0999 V2000
   -4.2260    5.0990  -18.4470 C   0  0  0  0  0  0  0  0  0  0  0  0
   -4.0150    5.3250  -19.9110 C   0  0  0  0  0  0  0  0  0  0  0  0
   -2.7510    5.5430  -20.4550 C   0  0  0  0  0  0  0  0  0  0  0  0
   -2.6060    5.7600  -21.9090 N   0  0  0  0  0  0  0  0  0  0  0  0
   -3.7970    5.7370  -22.7380 C   0  0  0  0  0  0  0  0  0  0  0  0
   -5.0250    5.5140  -22.1610 C   0  0  0  0  0  0  0  0  0  0  0  0
   -5.1320    5.3120  -20.7900 C   0  0  0  0  0  0  0  0  0  0  0  0
   -6.4170    5.0870  -20.2990 C   0  0  0  0  0  0  0  0  0  0  0  0
   -7.1330    4.3350  -20.9560 O   0  0  0  0  0  0  0  0  0  0  0  0
   -6.7380    5.7240  -19.1210 N   0  0  0  0  0  0  0  0  0  0  0  0
   -7.7900    5.4400  -18.2410 C   0  0  0  0  0  0  0  0  0  0  0  0
   -7.5010    5.6590  -16.7750 C   0  0  0  0  0  0  0  0  0  0  0  0
   -8.4680    5.4270  -15.7860 C   0  0  0  0  0  0  0  0  0  0  0  0
   -8.0420    5.6760  -14.4370 N   0  0  0  0  0  0  0  0  0  0  0  0
   -8.7600    6.1120  -13.3010 C   0  0  0  0  0  0  0  0  0  0  0  0
   -9.2870    7.2120  -13.1340 O   0  0  0  0  0  0  0  0  0  0  0  0
   -8.8140    5.1190  -12.3060 C   0  0  0  0  0  0  0  0  0  0  0  0
   -8.8300    5.3730  -10.9300 C   0  0  0  0  0  0  0  0  0  0  0  0
   -8.9460    4.2670   -9.9530 C   0  0  0  0  0  0  0  0  0  0  0  0
   -9.0490    2.9590  -10.0970 O   0  0  0  0  0  0  0  0  0  0  0  0
   -8.6860    2.3060   -8.8880 C   0  0  0  0  0  0  0  0  0  0  0  0
   -9.4970    2.8220   -7.7050 C   0  0  0  0  0  0  0  0  0  0  0  0
   -9.0280    4.1250   -7.4750 C   0  0  0  0  0  0  0  0  0  0  0  0
   -8.9300    4.8660   -8.7260 N   0  0  0  0  0  0  0  0  0  0  0  0
   -8.8160    6.2140   -8.7730 N   0  0  0  0  0  0  0  0  0  0  0  0
   -8.7580    6.5240  -10.1000 C   0  0  0  0  0  0  0  0  0  0  0  0
   -9.7310    4.9850  -16.1860 C   0  0  0  0  0  0  0  0  0  0  0  0
  -10.0280    4.7700  -17.5460 C   0  0  0  0  0  0  0  0  0  0  0  0
   -9.0460    4.9910  -18.6210 C   0  0  0  0  0  0  0  0  0  0  0  0
   -5.2220    4.6930  -18.2510 H   0  0  0  0  0  0  0  0  0  0  0  0
   -4.1340    6.0450  -17.9030 H   0  0  0  0  0  0  0  0  0  0  0  0
   -3.5000    4.3980  -18.0240 H   0  0  0  0  0  0  0  0  0  0  0  0
   -1.8390    5.5630  -19.8580 H   0  0  0  0  0  0  0  0  0  0  0  0
   -3.6580    5.9010  -23.8000 H   0  0  0  0  0  0  0  0  0  0  0  0
   -5.9210    5.4970  -22.7800 H   0  0  0  0  0  0  0  0  0  0  0  0
   -6.0990    6.4490  -18.8210 H   0  0  0  0  0  0  0  0  0  0  0  0
   -6.5090    6.0090  -16.4760 H   0  0  0  0  0  0  0  0  0  0  0  0
   -7.0980    5.3650  -14.2310 H   0  0  0  0  0  0  0  0  0  0  0  0
   -9.6930    4.5130  -12.5550 H   0  0  0  0  0  0  0  0  0  0  0  0
   -7.9690    4.4350  -12.5050 H   0  0  0  0  0  0  0  0  0  0  0  0
   -8.8470    1.2420   -9.0120 H   0  0  0  0  0  0  0  0  0  0  0  0
   -7.6120    2.4580   -8.7320 H   0  0  0  0  0  0  0  0  0  0  0  0
   -9.1970    2.2280   -6.8420 H   0  0  0  0  0  0  0  0  0  0  0  0
  -10.5710    2.6710   -7.7480 H   0  0  0  0  0  0  0  0  0  0  0  0
   -9.7190    4.6790   -6.8280 H   0  0  0  0  0  0  0  0  0  0  0  0
   -8.0370    4.1060   -7.0090 H   0  0  0  0  0  0  0  0  0  0  0  0
   -8.6670    7.5650  -10.3940 H   0  0  0  0  0  0  0  0  0  0  0  0
  -10.5140    4.7920  -15.4550 H   0  0  0  0  0  0  0  0  0  0  0  0
  -11.0020    4.4260  -17.9110 H   0  0  0  0  0  0  0  0  0  0  0  0
   -9.3290    4.8080  -19.6540 H   0  0  0  0  0  0  0  0  0  0  0  0
  1  2  1  0
  2  3  2  0
  3  4  1  0
  4  5  2  0
  5  6  1  0
  6  7  2  0
  7  8  1  0
  8  9  2  0
  8 10  1  0
 10 11  1  0
 11 12  2  0
 12 13  1  0
 13 14  1  0
 14 15  1  0
 15 16  2  0
 15 17  1  0
 17 18  1  0
 18 19  2  0
 19 20  1  0
 20 21  1  0
 21 22  1  0
 22 23  1  0
 23 24  1  0
 24 25  1  0
 25 26  2  0
 13 27  2  0
 27 28  1  0
 28 29  2  0
  7  2  1  0
 29 11  1  0
 26 18  1  0
 24 19  1  0
  1 30  1  0
  1 31  1  0
  1 32  1  0
  3 33  1  0
  5 34  1  0
  6 35  1  0
 10 36  1  0
 12 37  1  0
 14 38  1  0
 17 39  1  0
 17 40  1  0
 21 41  1  0
 21 42  1  0
 22 43  1  0
 22 44  1  0
 23 45  1  0
 23 46  1  0
 26 47  1  0
 27 48  1  0
 28 49  1  0
 29 50  1  0
A    1
 C1 
A    2
 C2 
A    3
 C3 
A    4
 N1 
A    5
 C4 
A    6
 C5 
A    7
 C6 
A    8
 C7 
A    9
 O1 
A   10
 N2 
A   11
 C8 
A   12
 C9 
A   13
 C10
A   14
 N3 
A   15
 C11
A   16
 O2 
A   17
 C12
A   18
 C13
A   19
 C14
A   20
 O3 
A   21
 C15
A   22
 C16
A   23
 C17
A   24
 N4 
A   25
 N5 
A   26
 C18
A   27
 C19
A   28
 C20
A   29
 C21
A   30
 H1 
A   31
 H2 
A   32
 H3 
A   33
 H4 
A   34
 H5 
A   35
 H6 
A   36
 H7 
A   37
 H8 
A   38
 H9 
A   39
 H10
A   40
 H11
A   41
 H12
A   42
 H13
A   43
 H14
A   44
 H15
A   45
 H16
A   46
 H17
A   47
 H18
A   48
 H19
A   49
 H20
A   50
 H21
M  END
>  <ref_pdb>  (498) 
x0051_0B

>  <ref_mols>  (498) 
x0852_0B,x0969_1B

>  <original SMILES>  (498) 
[H]c1nc([H])c(C([H])([H])[H])c(C(=O)N([H])c2c([H])c([H])c([H])c(N([H])C(=O)C([H])([H])c3c([H])nn4c3OC([H])([H])C([H])([H])C4([H])[H])c2[H])c1[H]

>  <index>  (498) 
198

>  <∆∆G>  (498) 
-8.998019

>  <∆G_bound>  (498) 
-7.912083

>  <∆G_unbound>  (498) 
1.085935

>  <comRMSD>  (498) 
0.399849

>  <N_constrained_atoms>  (498) 
28.0

>  <N_unconstrained_atoms>  (498) 
3.0

>  <runtime>  (498) 
49.790809

>  <LE>  (498) 
0.290259

>  <percent_hybrid>  (498) 
36.0

>  <dist>  (498) 
8.0

>  <ecfp4>  (498) 
0.375

>  <daylight>  (498) 
0.416422

>  <topodist>  (498) 
3.0

>  <mces>  (498) 
31.0

>  <tdn>  (498) 
2.0

>  <tup>  (498) 
1.0

>  <rdn>  (498) 
0.0

>  <rup>  (498) 
0.0

>  <ldn>  (498) 
0.0

>  <lup>  (498) 
0.0

>  <mut>  (498) 
4.0

>  <maj>  (498) 
4.0

>  <min>  (498) 
0.0

>  <hyb>  (498) 
1.0

>  <sub>  (498) 
2.0

>  <query_index>  (498) 
46.0

>  <max_hit_Tanimoto>  (498) 
0.350085

>  <largest_ring>  (498) 
0

>  <N_interactions_kept>  (498) 
4.0

>  <N_interactions_lost>  (498) 
2.0

>  <interaction_uniqueness_metric>  (498) 
0.127758

>  <ad_hoc_penalty>  (498) 
-26.010837

>  <N_rotatable_bonds>  (498) 
6

>  <N_HA>  (498) 
29

>  <cluster>  (498) 
6039

>  <N_interactions>  (498) 
7

>  <Enamine>  (498) 
1

>  <Mcule>  (498) 
0

>  <N_PAINS>  (498) 
0

>  <UFF_Gibbs>  (498) 
144.665428

>  <strain_per_HA>  (498) 
4.988463

>  <intxn_scored>  (498) 
7.5

>  <saltbridge:HIS:51>  (498) 
0

>  <pistack:HIS:51>  (498) 
1

>  <hydroph_interaction:HIS:51>  (498) 
0

>  <hbond:ALA:132>  (498) 
0

>  <hbond:SER:135>  (498) 
0

>  <hydroph_interaction:TYR:150>  (498) 
0

>  <pistack:TYR:161>  (498) 
0

>  <hydroph_interaction:TYR:161>  (498) 
3

>  <hydroph_interaction:ASP:83>  (498) 
0

>  <hbond:TYR:130>  (498) 
1

>  <hydroph_interaction:ALA:132>  (498) 
1

>  <hbond:HIS:51>  (498) 
0

>  <hbond:ASP:129>  (498) 
0

>  <hbond:TYR:150>  (498) 
0

>  <hbond:GLY:151>  (498) 
0

>  <hbond:TYR:161>  (498) 
0

>  <hydroph_interaction:TYR:130>  (498) 
0

>  <hydroph_interaction:PRO:131>  (498) 
0

>  <hydroph_interaction:ASP:129>  (498) 
1

>  <saltbridge:ASP:75>  (498) 
0

>  <saltbridge:ASP:83>  (498) 
0

>  <hbond:ASN:152>  (498) 
0

>  <hydroph_interaction:ASN:152>  (498) 
0

>  <halogenbond:TYR:150>  (498) 
0

>  <hbond:ASP:83>  (498) 
0

>  <hydroph_interaction:VAL:155>  (498) 
0

>  <pication:TYR:161>  (498) 
0

>  <hbond:PRO:131>  (498) 
0

>  <saltbridge:ASP:129>  (498) 
0

>  <hbond:THR:134>  (498) 
0

>  <pication:HIS:51>  (498) 
0

>  <hbond:SER:81>  (498) 
0

>  <hydroph_interaction:THR:134>  (498) 
0

>  <hydroph_interaction:MET:49>  (498) 
0

$$$$
Z1661322569
     RDKit          3D

 36 38  0  0  0  0  0  0  0  0999 V2000
   -3.0940    7.4010  -19.1490 C   0  0  0  0  0  0  0  0  0  0  0  0
   -3.2100    5.6010  -19.0690 S   0  0  0  0  0  0  0  0  0  0  0  0
   -4.9800    5.4220  -18.8750 C   0  0  0  0  0  0  0  0  0  0  0  0
   -5.7640    5.2400  -20.0030 C   0  0  0  0  0  0  0  0  0  0  0  0
   -7.0950    5.0720  -20.0180 N   0  0  0  0  0  0  0  0  0  0  0  0
   -7.8110    5.0620  -18.8760 C   0  0  0  0  0  0  0  0  0  0  0  0
   -9.2030    4.8600  -18.9040 C   0  0  0  0  0  0  0  0  0  0  0  0
   -9.9450    4.8460  -17.7160 C   0  0  0  0  0  0  0  0  0  0  0  0
   -9.2980    5.0390  -16.4700 C   0  0  0  0  0  0  0  0  0  0  0  0
   -7.9160    5.2380  -16.4520 C   0  0  0  0  0  0  0  0  0  0  0  0
   -7.1590    5.2510  -17.6250 C   0  0  0  0  0  0  0  0  0  0  0  0
   -5.7620    5.4390  -17.5690 C   0  0  0  0  0  0  0  0  0  0  0  0
   -5.1240    5.6260  -16.3210 N   0  0  0  0  0  0  0  0  0  0  0  0
   -5.3300    6.9500  -15.7080 C   0  0  0  0  0  0  0  0  0  0  0  0
   -4.5100    7.1280  -14.5860 C   0  0  0  0  0  0  0  0  0  0  0  0
   -3.8160    5.9160  -14.0060 C   0  0  0  0  0  0  0  0  0  0  0  0
   -3.4370    4.7840  -14.9560 C   0  0  0  0  0  0  0  0  0  0  0  0
   -3.7570    5.0920  -16.2790 C   0  0  0  0  0  0  0  0  0  0  0  0
   -2.0490    7.7020  -19.0240 H   0  0  0  0  0  0  0  0  0  0  0  0
   -3.7100    7.8670  -18.3760 H   0  0  0  0  0  0  0  0  0  0  0  0
   -3.4350    7.7750  -20.1190 H   0  0  0  0  0  0  0  0  0  0  0  0
   -5.3160    5.2190  -20.9930 H   0  0  0  0  0  0  0  0  0  0  0  0
   -9.7130    4.7140  -19.8540 H   0  0  0  0  0  0  0  0  0  0  0  0
  -11.0150    4.6880  -17.7640 H   0  0  0  0  0  0  0  0  0  0  0  0
   -9.8650    5.0310  -15.5450 H   0  0  0  0  0  0  0  0  0  0  0  0
   -7.4390    5.3810  -15.4760 H   0  0  0  0  0  0  0  0  0  0  0  0
   -5.1600    7.7730  -16.4130 H   0  0  0  0  0  0  0  0  0  0  0  0
   -6.3800    7.0170  -15.4030 H   0  0  0  0  0  0  0  0  0  0  0  0
   -5.1130    7.5760  -13.7870 H   0  0  0  0  0  0  0  0  0  0  0  0
   -3.7520    7.8800  -14.8300 H   0  0  0  0  0  0  0  0  0  0  0  0
   -4.4490    5.4940  -13.2160 H   0  0  0  0  0  0  0  0  0  0  0  0
   -2.9090    6.2640  -13.4950 H   0  0  0  0  0  0  0  0  0  0  0  0
   -3.9390    3.8570  -14.6480 H   0  0  0  0  0  0  0  0  0  0  0  0
   -2.3540    4.6110  -14.9000 H   0  0  0  0  0  0  0  0  0  0  0  0
   -3.6610    4.2120  -16.9190 H   0  0  0  0  0  0  0  0  0  0  0  0
   -3.0330    5.8200  -16.6650 H   0  0  0  0  0  0  0  0  0  0  0  0
  1  2  1  0
  2  3  1  0
  3  4  2  0
  4  5  1  0
  5  6  2  0
  6  7  1  0
  7  8  2  0
  8  9  1  0
  9 10  2  0
 10 11  1  0
 11 12  2  0
 12 13  1  0
 13 14  1  0
 14 15  1  0
 15 16  1  0
 16 17  1  0
 17 18  1  0
 12  3  1  0
 11  6  1  0
 18 13  1  0
  1 19  1  0
  1 20  1  0
  1 21  1  0
  4 22  1  0
  7 23  1  0
  8 24  1  0
  9 25  1  0
 10 26  1  0
 14 27  1  0
 14 28  1  0
 15 29  1  0
 15 30  1  0
 16 31  1  0
 16 32  1  0
 17 33  1  0
 17 34  1  0
 18 35  1  0
 18 36  1  0
A    1
 C1 
A    2
 S1 
A    3
 C2 
A    4
 C3 
A    5
 N1 
A    6
 C4 
A    7
 C5 
A    8
 C6 
A    9
 C7 
A   10
 C8 
A   11
 C9 
A   12
 C10
A   13
 N2 
A   14
 C11
A   15
 C12
A   16
 C13
A   17
 C14
A   18
 C15
A   19
 H1 
A   20
 H2 
A   21
 H3 
A   22
 H4 
A   23
 H5 
A   24
 H6 
A   25
 H7 
A   26
 H8 
A   27
 H9 
A   28
 H10
A   29
 H11
A   30
 H12
A   31
 H13
A   32
 H14
A   33
 H15
A   34
 H16
A   35
 H17
A   36
 H18
M  END
>  <ref_pdb>  (499) 
x0051_0B

>  <ref_mols>  (499) 
x0429_0B,x0089_0B

>  <original SMILES>  (499) 
[H]c1nc2c([H])c([H])c([H])c([H])c2c(N2C([H])([H])C([H])([H])C([H])([H])C([H])([H])C2([H])[H])c1SC([H])([H])[H]

>  <index>  (499) 
3322

>  <∆∆G>  (499) 
-6.448322

>  <∆G_bound>  (499) 
-6.220948

>  <∆G_unbound>  (499) 
0.227374

>  <comRMSD>  (499) 
0.355323

>  <N_constrained_atoms>  (499) 
18.0

>  <N_unconstrained_atoms>  (499) 
0.0

>  <runtime>  (499) 
24.251926

>  <LE>  (499) 
0.35824

>  <percent_hybrid>  (499) 
25.0

>  <dist>  (499) 
4.0

>  <ecfp4>  (499) 
0.423077

>  <daylight>  (499) 
0.449275

>  <topodist>  (499) 
2.0

>  <mces>  (499) 
20.0

>  <tdn>  (499) 
2.0

>  <tup>  (499) 
0.0

>  <rdn>  (499) 
0.0

>  <rup>  (499) 
0.0

>  <ldn>  (499) 
0.0

>  <lup>  (499) 
0.0

>  <mut>  (499) 
2.0

>  <maj>  (499) 
2.0

>  <min>  (499) 
0.0

>  <hyb>  (499) 
0.0

>  <sub>  (499) 
1.0

>  <query_index>  (499) 
103.0

>  <max_hit_Tanimoto>  (499) 
0.55102

>  <largest_ring>  (499) 
6

>  <N_interactions_kept>  (499) 
0.0

>  <N_interactions_lost>  (499) 
3.5

>  <interaction_uniqueness_metric>  (499) 
0.044868

>  <ad_hoc_penalty>  (499) 
-2.086223

>  <N_rotatable_bonds>  (499) 
3

>  <N_HA>  (499) 
18

>  <cluster>  (499) 
3139

>  <N_interactions>  (499) 
5

>  <Enamine>  (499) 
1

>  <Mcule>  (499) 
0

>  <N_PAINS>  (499) 
0

>  <UFF_Gibbs>  (499) 
59.528105

>  <strain_per_HA>  (499) 
3.307117

>  <intxn_scored>  (499) 
7.5

>  <saltbridge:HIS:51>  (499) 
0

>  <pistack:HIS:51>  (499) 
0

>  <hydroph_interaction:HIS:51>  (499) 
0

>  <hbond:ALA:132>  (499) 
0

>  <hbond:SER:135>  (499) 
0

>  <hydroph_interaction:TYR:150>  (499) 
1

>  <pistack:TYR:161>  (499) 
1

>  <hydroph_interaction:TYR:161>  (499) 
3

>  <hydroph_interaction:ASP:83>  (499) 
0

>  <hbond:TYR:130>  (499) 
0

>  <hydroph_interaction:ALA:132>  (499) 
0

>  <hbond:HIS:51>  (499) 
0

>  <hbond:ASP:129>  (499) 
0

>  <hbond:TYR:150>  (499) 
0

>  <hbond:GLY:151>  (499) 
0

>  <hbond:TYR:161>  (499) 
0

>  <hydroph_interaction:TYR:130>  (499) 
0

>  <hydroph_interaction:PRO:131>  (499) 
0

>  <hydroph_interaction:ASP:129>  (499) 
0

>  <saltbridge:ASP:75>  (499) 
0

>  <saltbridge:ASP:83>  (499) 
0

>  <hbond:ASN:152>  (499) 
0

>  <hydroph_interaction:ASN:152>  (499) 
0

>  <halogenbond:TYR:150>  (499) 
0

>  <hbond:ASP:83>  (499) 
0

>  <hydroph_interaction:VAL:155>  (499) 
0

>  <pication:TYR:161>  (499) 
0

>  <hbond:PRO:131>  (499) 
0

>  <saltbridge:ASP:129>  (499) 
0

>  <hbond:THR:134>  (499) 
0

>  <pication:HIS:51>  (499) 
0

>  <hbond:SER:81>  (499) 
0

>  <hydroph_interaction:THR:134>  (499) 
0

>  <hydroph_interaction:MET:49>  (499) 
0

$$$$
Z1336763293
     RDKit          3D

 24 25  0  0  0  0  0  0  0  0999 V2000
   -5.6140    5.2500  -20.1560 C   0  0  0  0  0  0  0  0  0  0  0  0
   -6.1610    5.2170  -18.7520 C   0  0  0  0  0  0  0  0  0  0  0  0
   -5.3720    5.2570  -17.6170 C   0  0  0  0  0  0  0  0  0  0  0  0
   -3.9080    5.3180  -17.7000 C   0  0  0  0  0  0  0  0  0  0  0  0
   -3.2300    5.0670  -16.5450 N   0  0  0  0  0  0  0  0  0  0  0  0
   -3.3320    5.5600  -18.7490 O   0  0  0  0  0  0  0  0  0  0  0  0
   -6.0070    5.2300  -16.3760 C   0  0  0  0  0  0  0  0  0  0  0  0
   -7.3550    5.1560  -16.2040 N   0  0  0  0  0  0  0  0  0  0  0  0
   -8.1020    5.1030  -17.3070 C   0  0  0  0  0  0  0  0  0  0  0  0
   -9.4830    5.0080  -17.2160 C   0  0  0  0  0  0  0  0  0  0  0  0
  -10.2900    4.9610  -18.3480 C   0  0  0  0  0  0  0  0  0  0  0  0
   -9.6810    5.0080  -19.5760 C   0  0  0  0  0  0  0  0  0  0  0  0
   -8.3320    5.0800  -19.6750 C   0  0  0  0  0  0  0  0  0  0  0  0
   -7.5280    5.1340  -18.5790 C   0  0  0  0  0  0  0  0  0  0  0  0
   -4.5340    5.0860  -20.1830 H   0  0  0  0  0  0  0  0  0  0  0  0
   -5.7540    6.2290  -20.6250 H   0  0  0  0  0  0  0  0  0  0  0  0
   -6.1100    4.4930  -20.7720 H   0  0  0  0  0  0  0  0  0  0  0  0
   -2.3100    5.4820  -16.4630 H   0  0  0  0  0  0  0  0  0  0  0  0
   -3.6920    4.7800  -15.6920 H   0  0  0  0  0  0  0  0  0  0  0  0
   -5.4430    5.2620  -15.4490 H   0  0  0  0  0  0  0  0  0  0  0  0
   -9.9430    4.9740  -16.2330 H   0  0  0  0  0  0  0  0  0  0  0  0
  -11.3700    4.8940  -18.2690 H   0  0  0  0  0  0  0  0  0  0  0  0
  -10.2310    4.9940  -20.4970 H   0  0  0  0  0  0  0  0  0  0  0  0
   -7.8860    5.0950  -20.6560 H   0  0  0  0  0  0  0  0  0  0  0  0
  1  2  1  0
  2  3  2  0
  3  4  1  0
  4  5  1  0
  4  6  2  0
  3  7  1  0
  7  8  2  0
  8  9  1  0
  9 10  2  0
 10 11  1  0
 11 12  2  0
 12 13  1  0
 13 14  2  0
 14  2  1  0
 14  9  1  0
  1 15  1  0
  1 16  1  0
  1 17  1  0
  5 18  1  0
  5 19  1  0
  7 20  1  0
 10 21  1  0
 11 22  1  0
 12 23  1  0
 13 24  1  0
A    1
 C1 
A    2
 C2 
A    3
 C3 
A    4
 C4 
A    5
 N1 
A    6
 O1 
A    7
 C5 
A    8
 N2 
A    9
 C6 
A   10
 C7 
A   11
 C8 
A   12
 C9 
A   13
 C10
A   14
 C11
A   15
 H1 
A   16
 H2 
A   17
 H3 
A   18
 H4 
A   19
 H5 
A   20
 H6 
A   21
 H7 
A   22
 H8 
A   23
 H9 
A   24
 H10
M  END
>  <ref_pdb>  (500) 
x0051_0B

>  <ref_mols>  (500) 
x0435_0B,x0800_0B

>  <original SMILES>  (500) 
[H]c1nc2c([H])c([H])c([H])c([H])c2c(C([H])([H])[H])c1C(=O)N([H])[H]

>  <index>  (500) 
2078

>  <∆∆G>  (500) 
-6.7975

>  <∆G_bound>  (500) 
-6.693442

>  <∆G_unbound>  (500) 
0.104058

>  <comRMSD>  (500) 
0.922787

>  <N_constrained_atoms>  (500) 
12.0

>  <N_unconstrained_atoms>  (500) 
2.0

>  <runtime>  (500) 
30.888604

>  <LE>  (500) 
0.485536

>  <percent_hybrid>  (500) 
20.0

>  <dist>  (500) 
3.0

>  <ecfp4>  (500) 
0.087719

>  <daylight>  (500) 
0.298611

>  <topodist>  (500) 
1.0

>  <mces>  (500) 
14.0

>  <tdn>  (500) 
0.0

>  <tup>  (500) 
0.0

>  <rdn>  (500) 
0.0

>  <rup>  (500) 
0.0

>  <ldn>  (500) 
0.0

>  <lup>  (500) 
1.0

>  <mut>  (500) 
2.0

>  <maj>  (500) 
2.0

>  <min>  (500) 
0.0

>  <hyb>  (500) 
0.0

>  <sub>  (500) 
0.0

>  <query_index>  (500) 
290.0

>  <max_hit_Tanimoto>  (500) 
0.149725

>  <largest_ring>  (500) 
6

>  <N_interactions_kept>  (500) 
1.0

>  <N_interactions_lost>  (500) 
3.0

>  <interaction_uniqueness_metric>  (500) 
0.044868

>  <ad_hoc_penalty>  (500) 
-7.860911

>  <N_rotatable_bonds>  (500) 
2

>  <N_HA>  (500) 
14

>  <cluster>  (500) 
4313

>  <N_interactions>  (500) 
5

>  <Enamine>  (500) 
1

>  <Mcule>  (500) 
0

>  <N_PAINS>  (500) 
0

>  <UFF_Gibbs>  (500) 
55.701341

>  <strain_per_HA>  (500) 
3.978667

>  <intxn_scored>  (500) 
7.5

>  <saltbridge:HIS:51>  (500) 
0

>  <pistack:HIS:51>  (500) 
0

>  <hydroph_interaction:HIS:51>  (500) 
0

>  <hbond:ALA:132>  (500) 
0

>  <hbond:SER:135>  (500) 
0

>  <hydroph_interaction:TYR:150>  (500) 
1

>  <pistack:TYR:161>  (500) 
1

>  <hydroph_interaction:TYR:161>  (500) 
3

>  <hydroph_interaction:ASP:83>  (500) 
0

>  <hbond:TYR:130>  (500) 
0

>  <hydroph_interaction:ALA:132>  (500) 
0

>  <hbond:HIS:51>  (500) 
0

>  <hbond:ASP:129>  (500) 
0

>  <hbond:TYR:150>  (500) 
0

>  <hbond:GLY:151>  (500) 
0

>  <hbond:TYR:161>  (500) 
0

>  <hydroph_interaction:TYR:130>  (500) 
0

>  <hydroph_interaction:PRO:131>  (500) 
0

>  <hydroph_interaction:ASP:129>  (500) 
0

>  <saltbridge:ASP:75>  (500) 
0

>  <saltbridge:ASP:83>  (500) 
0

>  <hbond:ASN:152>  (500) 
0

>  <hydroph_interaction:ASN:152>  (500) 
0

>  <halogenbond:TYR:150>  (500) 
0

>  <hbond:ASP:83>  (500) 
0

>  <hydroph_interaction:VAL:155>  (500) 
0

>  <pication:TYR:161>  (500) 
0

>  <hbond:PRO:131>  (500) 
0

>  <saltbridge:ASP:129>  (500) 
0

>  <hbond:THR:134>  (500) 
0

>  <pication:HIS:51>  (500) 
0

>  <hbond:SER:81>  (500) 
0

>  <hydroph_interaction:THR:134>  (500) 
0

>  <hydroph_interaction:MET:49>  (500) 
0

$$$$
