ver_1.2
     RDKit          2D

  1  0  0  0  0  0  0  0  0  0999 V2000
    0.0000    0.0000    0.0000 C   0  0  0  0  0  0  0  0  0  0  0  0
M  END
>  <submitter_name>  (1) 
wkj12666

>  <submitter_email>  (1) 
ruben.sanchez-garcia@diamond.ac.uk

>  <submitter_institution>  (1) 
Diamond Light Source

>  <generation_date>  (1) 
2023-05-16

>  <method>  (1) 
sq2-instance-0fcfe824-0bb4-415b-9257-87e59c69d906

>  <ref_url>  (1) 
https://data-manager-ui.xchem.diamond.ac.uk/data-manager-ui/data-manager-ui/results/instance/instance-0fcfe824-0bb4-415b-9257-87e59c69d906

>  <IDX>  (1)
Molecule index

>  <DDG>  (1)
Delta deta G

>  <RMSD>  (1)
RMSD from input fragments

>  <ref_mols>  (1)
Input fragments

>  <original SMILES>  (1)
Molecule SMILES

>  <ref_pdb>  (1)
PDB file used

>  <sa_score>  (1)
Synthetic accessibility score (1=easy, 10=very difficult)

>  <SuCOS_Score>  (1)
SuCOS score (0=none, 1=perfect)

>  <SuCOS_FeatureMap_Score>  (1)
SuCOS feature map score (0=none, 1=perfect)

>  <SuCOS_Protrude_Score>  (1)
SuCOS protrude score (0=none, 1=perfect)

>  <o3da_score>  (1)
Open3DAlign score (larger numbers indicate better alignment)

>  <o3da_score_rel>  (1)
Open3DAlign relative score (0=none, 1=perfect)

>  <o3da_align>  (1)
Open3DAlign alignment score (larger numbers indicate better alignment)

$$$$
utsvmfjldkdzfnbv-1
     RDKit          3D

 23 24  0  0  0  0  0  0  0  0999 V2000
  -15.6883    4.4756  -79.9538 C   0  0  0  0  0  0  0  0  0  0  0  0
  -14.9503    5.4078  -78.6314 S   0  0  0  0  0  6  0  0  0  0  0  0
  -15.1044    6.8392  -78.8657 O   0  0  0  0  0  0  0  0  0  0  0  0
  -15.4011    4.8176  -77.3830 O   0  0  0  0  0  0  0  0  0  0  0  0
  -13.2189    5.0439  -78.7835 C   0  0  0  0  0  0  0  0  0  0  0  0
  -12.6325    4.8676  -77.3851 C   0  0  2  0  0  0  0  0  0  0  0  0
  -11.5441    5.7781  -77.1845 O   0  0  0  0  0  0  0  0  0  0  0  0
  -10.3177    5.2373  -79.0757 F   0  0  0  0  0  0  0  0  0  0  0  0
   -5.8875    1.9913  -77.8504 C   0  0  0  0  0  0  0  0  0  0  0  0
   -4.8335    2.1846  -78.4377 O   0  0  0  0  0  0  0  0  0  0  0  0
   -6.0989    0.8185  -77.1999 O   0  0  0  0  0  0  0  0  0  0  0  0
  -12.1737    3.4050  -77.1306 C   0  0  2  0  0  0  0  0  0  0  0  0
  -11.8482    3.1118  -75.6460 C   0  0  1  0  0  0  0  0  0  0  0  0
  -10.4001    2.7139  -75.4524 C   0  0  0  0  0  0  0  0  0  0  0  0
   -9.5296    3.6947  -76.2164 C   0  0  0  0  0  0  0  0  0  0  0  0
   -9.5741    3.4296  -77.7106 C   0  0  1  0  0  0  0  0  0  0  0  0
  -11.0285    2.9594  -78.0872 C   0  0  0  0  0  0  0  0  0  0  0  0
   -9.2206    4.7503  -78.4334 C   0  0  1  0  0  0  0  0  0  0  0  0
   -8.0974    4.6164  -79.4559 C   0  0  0  0  0  0  0  0  0  0  0  0
   -6.8059    4.1323  -78.7849 C   0  0  0  0  0  0  0  0  0  0  0  0
   -7.0402    2.9855  -77.7838 C   0  0  1  0  0  0  0  0  0  0  0  0
   -8.4451    2.3722  -77.9833 C   0  0  0  0  0  0  0  0  0  0  0  0
  -12.0920    4.2962  -74.8755 O   0  0  0  0  0  0  0  0  0  0  0  0
  2  1  1  0
  3  2  2  0
  4  2  2  0
  5  2  1  0
  6  5  1  0
  6  7  1  6
 10  9  2  0
 11  9  1  0
 12  6  1  0
 12 17  1  6
 12 13  1  0
 13 14  1  0
 14 15  1  0
 16 15  1  1
 16 17  1  0
 18 19  1  0
 18  8  1  6
 19 20  1  0
 20 21  1  0
 21 22  1  0
 21  9  1  6
 16 22  1  0
 16 18  1  0
 13 23  1  1
A    1
 C1 
A    2
 S1 
A    3
 O1 
A    4
 O2 
A    5
 C2 
A    6
 C3 
A    7
 O3 
A    8
 F1 
A    9
 C4 
A   10
 O4 
A   11
 O5 
A   12
 C5 
A   13
 C6 
A   14
 C7 
A   15
 C8 
A   16
 C9 
A   17
 C10
A   18
 C11
A   19
 C12
A   20
 C13
A   21
 C14
A   22
 C15
A   23
 O6 
M  END
>  <IDX>  (1) 
1

>  <DDG>  (1) 
-0.63277672475921687

>  <RMSD>  (1) 
0.90182484079684855

>  <original SMILES>  (1) 
CS(=O)(=O)C[C@H](O)C1C[C@@]2(CC[C@H]1O)C[C@@H](C(=O)O)CC[C@@H]2F

>  <ref_mols>  (1) 
x0246_0B,x0208_0A

>  <ref_pdb>  (1) 
nsp13-x0208_0A_apo-desolv.pdb

>  <sa_score>  (1) 
5.208637860205494

>  <SuCOS_Score>  (1) 
0.5502426088549565

>  <SuCOS_FeatureMap_Score>  (1) 
0.29006570671322945

>  <SuCOS_Protrude_Score>  (1) 
0.8056786127589791

>  <o3da_score>  (1) 
138.62870798471383

>  <o3da_score_rel>  (1) 
0.54511701460703021

>  <o3da_align>  (1) 
0.39836286154262401

$$$$
utsvmfjldkdzfnbv-2
     RDKit          3D

 23 24  0  0  0  0  0  0  0  0999 V2000
  -15.8792    4.3029  -79.8623 C   0  0  0  0  0  0  0  0  0  0  0  0
  -15.0475    5.2868  -78.6376 S   0  0  0  0  0  6  0  0  0  0  0  0
  -15.1220    6.7068  -78.9657 O   0  0  0  0  0  0  0  0  0  0  0  0
  -15.4871    4.8148  -77.3369 O   0  0  0  0  0  0  0  0  0  0  0  0
  -13.3496    4.8133  -78.8137 C   0  0  0  0  0  0  0  0  0  0  0  0
  -12.7418    4.7241  -77.4200 C   0  0  2  0  0  0  0  0  0  0  0  0
  -11.7496    5.7405  -77.2512 O   0  0  0  0  0  0  0  0  0  0  0  0
   -9.9876    5.7314  -78.5544 F   0  0  0  0  0  0  0  0  0  0  0  0
   -5.9049    1.9595  -77.8807 C   0  0  0  0  0  0  0  0  0  0  0  0
   -4.8496    2.0991  -78.4815 O   0  0  0  0  0  0  0  0  0  0  0  0
   -6.1032    0.8632  -77.1129 O   0  0  0  0  0  0  0  0  0  0  0  0
  -12.1689    3.3127  -77.1221 C   0  0  2  0  0  0  0  0  0  0  0  0
  -11.7824    3.1142  -75.6447 C   0  0  1  0  0  0  0  0  0  0  0  0
  -10.2904    3.1821  -75.4227 C   0  0  0  0  0  0  0  0  0  0  0  0
   -9.6232    4.1287  -76.4216 C   0  0  0  0  0  0  0  0  0  0  0  0
   -9.6013    3.5010  -77.8149 C   0  0  1  0  0  0  0  0  0  0  0  0
  -11.0239    2.8875  -78.0849 C   0  0  0  0  0  0  0  0  0  0  0  0
   -9.3326    4.5924  -78.9048 C   0  0  2  0  0  0  0  0  0  0  0  0
   -7.8731    4.9662  -79.1560 C   0  0  0  0  0  0  0  0  0  0  0  0
   -6.9715    3.7502  -79.2251 C   0  0  0  0  0  0  0  0  0  0  0  0
   -7.0591    2.9528  -77.9303 C   0  0  1  0  0  0  0  0  0  0  0  0
   -8.4866    2.3798  -77.8068 C   0  0  0  0  0  0  0  0  0  0  0  0
  -12.3911    4.1479  -74.8582 O   0  0  0  0  0  0  0  0  0  0  0  0
  2  1  1  0
  3  2  2  0
  4  2  2  0
  5  2  1  0
  6  5  1  0
  6  7  1  6
 10  9  2  0
 11  9  1  0
 12  6  1  0
 12 17  1  6
 12 13  1  0
 13 14  1  0
 14 15  1  0
 16 15  1  1
 16 17  1  0
 18 19  1  0
 18  8  1  1
 19 20  1  0
 20 21  1  0
 21 22  1  0
 21  9  1  6
 16 22  1  0
 16 18  1  0
 13 23  1  1
A    1
 C1 
A    2
 S1 
A    3
 O1 
A    4
 O2 
A    5
 C2 
A    6
 C3 
A    7
 O3 
A    8
 F1 
A    9
 C4 
A   10
 O4 
A   11
 O5 
A   12
 C5 
A   13
 C6 
A   14
 C7 
A   15
 C8 
A   16
 C9 
A   17
 C10
A   18
 C11
A   19
 C12
A   20
 C13
A   21
 C14
A   22
 C15
A   23
 O6 
M  END
>  <IDX>  (2) 
2

>  <DDG>  (2) 
-0.37565807973461962

>  <RMSD>  (2) 
1.0194438807933262

>  <original SMILES>  (2) 
CS(=O)(=O)C[C@H](O)C1C[C@@]2(CC[C@H]1O)C[C@@H](C(=O)O)CC[C@@H]2F

>  <ref_mols>  (2) 
x0246_0B,x0208_0A

>  <ref_pdb>  (2) 
nsp13-x0208_0A_apo-desolv.pdb

>  <sa_score>  (2) 
5.208637860205494

>  <SuCOS_Score>  (2) 
0.513723383809688

>  <SuCOS_FeatureMap_Score>  (2) 
0.24545249385647508

>  <SuCOS_Protrude_Score>  (2) 
0.7819063512652971

>  <o3da_score>  (2) 
150.13146981659031

>  <o3da_score_rel>  (2) 
0.59034827500527054

>  <o3da_align>  (2) 
0.44516745757216708

$$$$
utsvmfjldkdzfnbv-3
     RDKit          3D

 23 24  0  0  0  0  0  0  0  0999 V2000
  -16.2974    4.5263  -79.8372 C   0  0  0  0  0  0  0  0  0  0  0  0
  -15.2490    5.2613  -78.6086 S   0  0  0  0  0  6  0  0  0  0  0  0
  -15.0544    6.6715  -78.8783 O   0  0  0  0  0  0  0  0  0  0  0  0
  -15.6867    4.8027  -77.3020 O   0  0  0  0  0  0  0  0  0  0  0  0
  -13.6735    4.5376  -78.9154 C   0  0  0  0  0  0  0  0  0  0  0  0
  -12.8310    4.8338  -77.6928 C   0  0  2  0  0  0  0  0  0  0  0  0
  -11.9376    5.9201  -77.9543 O   0  0  0  0  0  0  0  0  0  0  0  0
   -9.7104    5.9809  -78.4886 F   0  0  0  0  0  0  0  0  0  0  0  0
   -5.8740    1.9234  -77.8688 C   0  0  0  0  0  0  0  0  0  0  0  0
   -4.8229    1.9867  -78.4876 O   0  0  0  0  0  0  0  0  0  0  0  0
   -6.1539    0.8311  -77.1207 O   0  0  0  0  0  0  0  0  0  0  0  0
  -12.0724    3.5795  -77.2202 C   0  0  2  0  0  0  0  0  0  0  0  0
  -11.7023    3.6697  -75.7512 C   0  0  1  0  0  0  0  0  0  0  0  0
  -10.2406    3.4043  -75.4912 C   0  0  0  0  0  0  0  0  0  0  0  0
   -9.4082    4.3009  -76.3856 C   0  0  0  0  0  0  0  0  0  0  0  0
   -9.4321    3.7317  -77.7992 C   0  0  1  0  0  0  0  0  0  0  0  0
  -10.8872    3.2277  -78.1393 C   0  0  0  0  0  0  0  0  0  0  0  0
   -9.0642    4.8372  -78.8403 C   0  0  2  0  0  0  0  0  0  0  0  0
   -7.5800    5.1558  -78.9766 C   0  0  0  0  0  0  0  0  0  0  0  0
   -6.7398    3.8987  -79.0922 C   0  0  0  0  0  0  0  0  0  0  0  0
   -6.9376    3.0092  -77.8696 C   0  0  1  0  0  0  0  0  0  0  0  0
   -8.4043    2.5356  -77.8352 C   0  0  0  0  0  0  0  0  0  0  0  0
  -12.0208    5.0030  -75.3255 O   0  0  0  0  0  0  0  0  0  0  0  0
  2  1  1  0
  3  2  2  0
  4  2  2  0
  5  2  1  0
  6  5  1  0
  6  7  1  6
 10  9  2  0
 11  9  1  0
 12  6  1  0
 12 17  1  6
 12 13  1  0
 13 14  1  0
 14 15  1  0
 16 15  1  1
 16 17  1  0
 18 19  1  0
 18  8  1  1
 19 20  1  0
 20 21  1  0
 21 22  1  0
 21  9  1  6
 16 22  1  0
 16 18  1  0
 13 23  1  6
A    1
 C1 
A    2
 S1 
A    3
 O1 
A    4
 O2 
A    5
 C2 
A    6
 C3 
A    7
 O3 
A    8
 F1 
A    9
 C4 
A   10
 O4 
A   11
 O5 
A   12
 C5 
A   13
 C6 
A   14
 C7 
A   15
 C8 
A   16
 C9 
A   17
 C10
A   18
 C11
A   19
 C12
A   20
 C13
A   21
 C14
A   22
 C15
A   23
 O6 
M  END
>  <IDX>  (3) 
3

>  <DDG>  (3) 
-0.40214513791326123

>  <RMSD>  (3) 
1.0006395129029284

>  <original SMILES>  (3) 
CS(=O)(=O)C[C@H](O)C1C[C@@]2(CC[C@H]1O)C[C@@H](C(=O)O)CC[C@@H]2F

>  <ref_mols>  (3) 
x0246_0B,x0208_0A

>  <ref_pdb>  (3) 
nsp13-x0208_0A_apo-desolv.pdb

>  <sa_score>  (3) 
5.208637860205494

>  <SuCOS_Score>  (3) 
0.5216179803517171

>  <SuCOS_FeatureMap_Score>  (3) 
0.2622892178153607

>  <SuCOS_Protrude_Score>  (3) 
0.7808978319322291

>  <o3da_score>  (3) 
162.84413160881283

>  <o3da_score_rel>  (3) 
0.64033711457989406

>  <o3da_align>  (3) 
0.4289221917500618

$$$$
jgubfxnmhcchaznp-1
     RDKit          3D

 29 30  0  0  0  0  0  0  0  0999 V2000
  -15.9177    4.4512  -79.9478 C   0  0  0  0  0  0  0  0  0  0  0  0
  -15.1388    5.3079  -78.6051 S   0  0  0  0  0  6  0  0  0  0  0  0
  -15.1518    6.7281  -78.8948 O   0  0  0  0  0  0  0  0  0  0  0  0
  -15.7315    4.8437  -77.3699 O   0  0  0  0  0  0  0  0  0  0  0  0
  -13.4361    4.8453  -78.6430 C   0  0  0  0  0  0  0  0  0  0  0  0
  -12.6247    4.7590  -77.3455 C   0  0  1  0  0  0  0  0  0  0  0  0
  -12.1828    6.0880  -77.0198 O   0  0  0  0  0  0  0  0  0  0  0  0
  -15.0393    7.3134  -73.6044 C   0  0  0  0  0  0  0  0  0  0  0  0
  -14.0466    5.8845  -73.9901 S   0  0  0  0  0  6  0  0  0  0  0  0
  -12.6523    6.1912  -73.8069 O   0  0  0  0  0  0  0  0  0  0  0  0
  -14.6498    4.7216  -73.3713 O   0  0  0  0  0  0  0  0  0  0  0  0
  -14.2763    5.6205  -75.6336 N   0  0  0  0  0  0  0  0  0  0  0  0
  -13.6868    4.3997  -76.2404 C   0  0  0  0  0  0  0  0  0  0  0  0
   -9.7076    4.5268  -79.6839 F   0  0  0  0  0  0  0  0  0  0  0  0
   -5.6228    2.0613  -77.8318 C   0  0  0  0  0  0  0  0  0  0  0  0
   -4.6353    1.8898  -78.5303 O   0  0  0  0  0  0  0  0  0  0  0  0
   -6.2277    1.0002  -77.2527 O   0  0  0  0  0  0  0  0  0  0  0  0
  -11.3946    3.7796  -77.3057 C   0  0  2  0  0  0  0  0  0  0  0  0
  -11.4818    2.6060  -76.3150 C   0  0  1  0  0  0  0  0  0  0  0  0
  -10.2978    1.6425  -76.4504 C   0  0  0  0  0  0  0  0  0  0  0  0
   -9.4537    1.9305  -77.6956 C   0  0  0  0  0  0  0  0  0  0  0  0
   -8.9138    3.3939  -77.7816 C   0  0  2  0  0  0  0  0  0  0  0  0
   -9.9830    4.3817  -77.2104 C   0  0  0  0  0  0  0  0  0  0  0  0
   -8.6239    3.8434  -79.2347 C   0  0  2  0  0  0  0  0  0  0  0  0
   -7.5052    4.8569  -79.2896 C   0  0  0  0  0  0  0  0  0  0  0  0
   -6.1853    4.2196  -78.9007 C   0  0  0  0  0  0  0  0  0  0  0  0
   -6.2393    3.4289  -77.5840 C   0  0  1  0  0  0  0  0  0  0  0  0
   -7.6302    3.4637  -76.9045 C   0  0  0  0  0  0  0  0  0  0  0  0
  -11.4891    3.1507  -75.0069 O   0  0  0  0  0  0  0  0  0  0  0  0
  2  1  1  0
  3  2  2  0
  4  2  2  0
  5  2  1  0
  6  5  1  0
  6  7  1  1
  9  8  1  0
 10  9  2  0
 11  9  2  0
 12  9  1  0
 13 12  1  0
 13  6  1  0
 16 15  2  0
 17 15  1  0
 18  6  1  0
 18 23  1  1
 18 19  1  0
 19 20  1  0
 20 21  1  0
 22 21  1  6
 22 23  1  0
 24 25  1  0
 24 14  1  1
 25 26  1  0
 26 27  1  0
 27 28  1  0
 27 15  1  6
 22 28  1  0
 22 24  1  0
 19 29  1  1
A    1
 C1 
A    2
 S1 
A    3
 O1 
A    4
 O2 
A    5
 C2 
A    6
 C3 
A    7
 O3 
A    8
 C4 
A    9
 S2 
A   10
 O4 
A   11
 O5 
A   12
 N1 
A   13
 C5 
A   14
 F1 
A   15
 C6 
A   16
 O6 
A   17
 O7 
A   18
 C7 
A   19
 C8 
A   20
 C9 
A   21
 C10
A   22
 C11
A   23
 C12
A   24
 C13
A   25
 C14
A   26
 C15
A   27
 C16
A   28
 C17
A   29
 O8 
M  END
>  <IDX>  (1) 
1

>  <DDG>  (1) 
-1.0856887835035087

>  <RMSD>  (1) 
1.4316553958316198

>  <original SMILES>  (1) 
CS(=O)(=O)C[C@@](O)(CNS(C)(=O)=O)C1C[C@@]2(CC[C@H]1O)C[C@@H](C(=O)O)CC[C@@H]2F

>  <ref_mols>  (1) 
x0246_0B,x0208_0A,x0176_0B

>  <ref_pdb>  (1) 
nsp13-x0208_0A_apo-desolv.pdb

>  <sa_score>  (1) 
5.419959408168827

>  <SuCOS_Score>  (1) 
0.4746716830829226

>  <SuCOS_FeatureMap_Score>  (1) 
0.17014120190025936

>  <SuCOS_Protrude_Score>  (1) 
0.7762988442581394

>  <o3da_score>  (1) 
108.57423312155336

>  <o3da_score_rel>  (1) 
0.28366583529252043

>  <o3da_align>  (1) 
0.32864841050298477

$$$$
jgubfxnmhcchaznp-2
     RDKit          3D

 29 30  0  0  0  0  0  0  0  0999 V2000
  -15.9366    4.5598  -80.0681 C   0  0  0  0  0  0  0  0  0  0  0  0
  -15.2408    5.2341  -78.5839 S   0  0  0  0  0  6  0  0  0  0  0  0
  -14.9828    6.6446  -78.8235 O   0  0  0  0  0  0  0  0  0  0  0  0
  -16.0357    4.8228  -77.4412 O   0  0  0  0  0  0  0  0  0  0  0  0
  -13.6366    4.5535  -78.3896 C   0  0  0  0  0  0  0  0  0  0  0  0
  -12.7037    5.2119  -77.3773 C   0  0  1  0  0  0  0  0  0  0  0  0
  -12.2541    6.4696  -77.9251 O   0  0  0  0  0  0  0  0  0  0  0  0
  -13.9695    7.7954  -73.4128 C   0  0  0  0  0  0  0  0  0  0  0  0
  -12.6079    6.8626  -74.1221 S   0  0  0  0  0  6  0  0  0  0  0  0
  -11.3159    7.5365  -74.0788 O   0  0  0  0  0  0  0  0  0  0  0  0
  -12.7420    5.4823  -73.7483 O   0  0  0  0  0  0  0  0  0  0  0  0
  -13.1167    6.8976  -75.6873 N   0  0  0  0  0  0  0  0  0  0  0  0
  -13.6489    5.6488  -76.2213 C   0  0  0  0  0  0  0  0  0  0  0  0
  -10.1618    4.6582  -78.9859 F   0  0  0  0  0  0  0  0  0  0  0  0
   -5.5571    2.9572  -77.6529 C   0  0  0  0  0  0  0  0  0  0  0  0
   -4.5269    2.9162  -78.3036 O   0  0  0  0  0  0  0  0  0  0  0  0
   -6.0325    1.8285  -77.0969 O   0  0  0  0  0  0  0  0  0  0  0  0
  -11.4784    4.3926  -76.8422 C   0  0  2  0  0  0  0  0  0  0  0  0
  -11.6789    3.5001  -75.6171 C   0  0  1  0  0  0  0  0  0  0  0  0
  -10.4708    2.5761  -75.4717 C   0  0  0  0  0  0  0  0  0  0  0  0
   -9.5692    2.5988  -76.7241 C   0  0  0  0  0  0  0  0  0  0  0  0
   -9.0274    4.0135  -77.1045 C   0  0  2  0  0  0  0  0  0  0  0  0
  -10.1044    5.0516  -76.6813 C   0  0  0  0  0  0  0  0  0  0  0  0
   -8.9311    4.2398  -78.5923 C   0  0  2  0  0  0  0  0  0  0  0  0
   -8.0140    5.3452  -78.9849 C   0  0  0  0  0  0  0  0  0  0  0  0
   -6.5908    4.8978  -78.7852 C   0  0  0  0  0  0  0  0  0  0  0  0
   -6.3513    4.2315  -77.4257 C   0  0  1  0  0  0  0  0  0  0  0  0
   -7.6013    4.1617  -76.5021 C   0  0  0  0  0  0  0  0  0  0  0  0
  -11.8046    4.2973  -74.4495 O   0  0  0  0  0  0  0  0  0  0  0  0
  2  1  1  0
  3  2  2  0
  4  2  2  0
  5  2  1  0
  6  5  1  0
  6  7  1  6
  9  8  1  0
 10  9  2  0
 11  9  2  0
 12  9  1  0
 13 12  1  0
 13  6  1  0
 16 15  2  0
 17 15  1  0
 18  6  1  0
 18 23  1  1
 18 19  1  0
 19 20  1  0
 20 21  1  0
 22 21  1  6
 22 23  1  0
 24 25  1  0
 24 14  1  1
 25 26  1  0
 26 27  1  0
 27 28  1  0
 27 15  1  6
 22 28  1  0
 22 24  1  0
 19 29  1  1
A    1
 C1 
A    2
 S1 
A    3
 O1 
A    4
 O2 
A    5
 C2 
A    6
 C3 
A    7
 O3 
A    8
 C4 
A    9
 S2 
A   10
 O4 
A   11
 O5 
A   12
 N1 
A   13
 C5 
A   14
 F1 
A   15
 C6 
A   16
 O6 
A   17
 O7 
A   18
 C7 
A   19
 C8 
A   20
 C9 
A   21
 C10
A   22
 C11
A   23
 C12
A   24
 C13
A   25
 C14
A   26
 C15
A   27
 C16
A   28
 C17
A   29
 O8 
M  END
>  <IDX>  (2) 
2

>  <DDG>  (2) 
-0.11827988993755145

>  <RMSD>  (2) 
0.7429602022107018

>  <original SMILES>  (2) 
CS(=O)(=O)C[C@@](O)(CNS(C)(=O)=O)C1C[C@@]2(CC[C@H]1O)C[C@@H](C(=O)O)CC[C@@H]2F

>  <ref_mols>  (2) 
x0246_0B,x0208_0A,x0176_0B

>  <ref_pdb>  (2) 
nsp13-x0208_0A_apo-desolv.pdb

>  <sa_score>  (2) 
5.419959408168827

>  <SuCOS_Score>  (2) 
0.6729427131305125

>  <SuCOS_FeatureMap_Score>  (2) 
0.47729012801247483

>  <SuCOS_Protrude_Score>  (2) 
0.8621121843660263

>  <o3da_score>  (2) 
112.72437781563089

>  <o3da_score_rel>  (2) 
0.29450868656011664

>  <o3da_align>  (2) 
0.19742793743316459

$$$$
jgubfxnmhcchaznp-3
     RDKit          3D

 29 30  0  0  0  0  0  0  0  0999 V2000
  -16.0882    4.4460  -79.8216 C   0  0  0  0  0  0  0  0  0  0  0  0
  -15.1850    5.2647  -78.5338 S   0  0  0  0  0  6  0  0  0  0  0  0
  -15.0259    6.6573  -78.9027 O   0  0  0  0  0  0  0  0  0  0  0  0
  -15.8063    4.9246  -77.2709 O   0  0  0  0  0  0  0  0  0  0  0  0
  -13.5390    4.6378  -78.5545 C   0  0  0  0  0  0  0  0  0  0  0  0
  -12.5536    5.0441  -77.4491 C   0  0  1  0  0  0  0  0  0  0  0  0
  -12.0804    6.3814  -77.7230 O   0  0  0  0  0  0  0  0  0  0  0  0
  -13.7357    7.7043  -73.0789 C   0  0  0  0  0  0  0  0  0  0  0  0
  -12.8354    6.3797  -73.8649 S   0  0  0  0  0  6  0  0  0  0  0  0
  -11.4170    6.6094  -73.8274 O   0  0  0  0  0  0  0  0  0  0  0  0
  -13.4033    5.1264  -73.4114 O   0  0  0  0  0  0  0  0  0  0  0  0
  -13.2840    6.4645  -75.4757 N   0  0  0  0  0  0  0  0  0  0  0  0
  -13.4677    5.1732  -76.1725 C   0  0  0  0  0  0  0  0  0  0  0  0
   -9.9319    4.4195  -79.6199 F   0  0  0  0  0  0  0  0  0  0  0  0
   -5.6466    1.8129  -78.0892 C   0  0  0  0  0  0  0  0  0  0  0  0
   -4.6455    1.5606  -78.7528 O   0  0  0  0  0  0  0  0  0  0  0  0
   -6.2541    0.8126  -77.4071 O   0  0  0  0  0  0  0  0  0  0  0  0
  -11.3418    4.0723  -77.1966 C   0  0  2  0  0  0  0  0  0  0  0  0
  -11.4640    3.1242  -75.9987 C   0  0  1  0  0  0  0  0  0  0  0  0
  -10.3111    2.1232  -76.0106 C   0  0  0  0  0  0  0  0  0  0  0  0
   -9.6523    2.0884  -77.3903 C   0  0  0  0  0  0  0  0  0  0  0  0
   -8.9571    3.4256  -77.7746 C   0  0  2  0  0  0  0  0  0  0  0  0
   -9.8845    4.5736  -77.2496 C   0  0  0  0  0  0  0  0  0  0  0  0
   -8.8636    3.6570  -79.2884 C   0  0  2  0  0  0  0  0  0  0  0  0
   -7.6849    4.5000  -79.6640 C   0  0  0  0  0  0  0  0  0  0  0  0
   -6.4079    3.7324  -79.4380 C   0  0  0  0  0  0  0  0  0  0  0  0
   -6.2628    3.2087  -78.0021 C   0  0  1  0  0  0  0  0  0  0  0  0
   -7.5367    3.4157  -77.1246 C   0  0  0  0  0  0  0  0  0  0  0  0
  -11.4445    3.8810  -74.7965 O   0  0  0  0  0  0  0  0  0  0  0  0
  2  1  1  0
  3  2  2  0
  4  2  2  0
  5  2  1  0
  6  5  1  0
  6  7  1  6
  9  8  1  0
 10  9  2  0
 11  9  2  0
 12  9  1  0
 13 12  1  0
 13  6  1  0
 16 15  2  0
 17 15  1  0
 18  6  1  0
 18 23  1  1
 18 19  1  0
 19 20  1  0
 20 21  1  0
 22 21  1  6
 22 23  1  0
 24 25  1  0
 24 14  1  1
 25 26  1  0
 26 27  1  0
 27 28  1  0
 27 15  1  6
 22 28  1  0
 22 24  1  0
 19 29  1  1
A    1
 C1 
A    2
 S1 
A    3
 O1 
A    4
 O2 
A    5
 C2 
A    6
 C3 
A    7
 O3 
A    8
 C4 
A    9
 S2 
A   10
 O4 
A   11
 O5 
A   12
 N1 
A   13
 C5 
A   14
 F1 
A   15
 C6 
A   16
 O6 
A   17
 O7 
A   18
 C7 
A   19
 C8 
A   20
 C9 
A   21
 C10
A   22
 C11
A   23
 C12
A   24
 C13
A   25
 C14
A   26
 C15
A   27
 C16
A   28
 C17
A   29
 O8 
M  END
>  <IDX>  (3) 
3

>  <DDG>  (3) 
-0.89266344191995639

>  <RMSD>  (3) 
0.94980700398953977

>  <original SMILES>  (3) 
CS(=O)(=O)C[C@@](O)(CNS(C)(=O)=O)C1C[C@@]2(CC[C@H]1O)C[C@@H](C(=O)O)CC[C@@H]2F

>  <ref_mols>  (3) 
x0246_0B,x0208_0A,x0176_0B

>  <ref_pdb>  (3) 
nsp13-x0208_0A_apo-desolv.pdb

>  <sa_score>  (3) 
5.419959408168827

>  <SuCOS_Score>  (3) 
0.6058281712282713

>  <SuCOS_FeatureMap_Score>  (3) 
0.37436388168716295

>  <SuCOS_Protrude_Score>  (3) 
0.8331255229201123

>  <o3da_score>  (3) 
152.30397841837024

>  <o3da_score_rel>  (3) 
0.39791609863873462

>  <o3da_align>  (3) 
0.24550208923175296

$$$$
yichbvvfeahvlbyh-1
     RDKit          3D

 32 34  0  0  0  0  0  0  0  0999 V2000
   -4.3357    2.3431  -77.7067 O   0  0  0  0  0  0  0  0  0  0  0  0
   -5.6666    0.5588  -77.7018 O   0  0  0  0  0  0  0  0  0  0  0  0
   -5.6766    1.9529  -77.8468 C   0  0  0  0  0  0  0  0  0  0  0  0
  -16.0703    4.6867  -80.0631 C   0  0  0  0  0  0  0  0  0  0  0  0
  -15.1317    5.3585  -78.7115 S   0  0  0  0  0  6  0  0  0  0  0  0
  -15.0294    6.8044  -78.8599 O   0  0  0  0  0  0  0  0  0  0  0  0
  -15.6476    4.7748  -77.4846 O   0  0  0  0  0  0  0  0  0  0  0  0
  -13.4853    4.6969  -78.8930 C   0  0  0  0  0  0  0  0  0  0  0  0
  -12.8282    4.4872  -77.5344 C   0  0  2  0  0  0  0  0  0  0  0  0
  -11.9815    5.5799  -77.1869 O   0  0  0  0  0  0  0  0  0  0  0  0
   -7.8390    2.9016  -82.0719 F   0  0  0  0  0  0  0  0  0  0  0  0
   -7.4376    2.8378  -79.2768 C   0  0  1  0  0  0  0  0  0  0  0  0
  -10.0182    6.2108  -77.9551 F   0  0  0  0  0  0  0  0  0  0  0  0
  -12.0388    3.1394  -77.3485 C   0  0  2  0  0  0  0  0  0  0  0  0
  -11.7887    2.8312  -75.8629 C   0  0  1  0  0  0  0  0  0  0  0  0
  -10.3633    3.1474  -75.4959 C   0  0  0  0  0  0  0  0  0  0  0  0
   -9.8030    4.3011  -76.3501 C   0  0  0  0  0  0  0  0  0  0  0  0
   -9.5316    3.8912  -77.8057 C   0  0  1  0  0  0  0  0  0  0  0  0
  -10.7287    2.9690  -78.2026 C   0  0  0  0  0  0  0  0  0  0  0  0
   -8.3649    1.8737  -81.3860 C   0  0  0  0  0  0  0  0  0  0  0  0
   -8.2015    1.7891  -80.0109 C   0  0  0  0  0  0  0  0  0  0  0  0
   -8.7653    0.7039  -79.3282 C   0  0  0  0  0  0  0  0  0  0  0  0
   -9.4780   -0.2714  -80.0182 C   0  0  0  0  0  0  0  0  0  0  0  0
   -9.6317   -0.1711  -81.3935 C   0  0  0  0  0  0  0  0  0  0  0  0
   -9.0726    0.9012  -82.0660 C   0  0  0  0  0  0  0  0  0  0  0  0
   -9.5743    5.1689  -78.6957 C   0  0  2  0  0  0  0  0  0  0  0  0
   -8.3015    5.6013  -79.4441 C   0  0  0  0  0  0  0  0  0  0  0  0
   -6.9953    5.4293  -78.6629 C   0  0  0  0  0  0  0  0  0  0  0  0
   -7.1166    4.4714  -77.5001 C   0  0  0  0  0  0  0  0  0  0  0  0
   -8.0390    3.3052  -77.8974 C   0  0  2  0  0  0  0  0  0  0  0  0
  -12.6116    3.6462  -75.0207 O   0  0  0  0  0  0  0  0  0  0  0  0
   -6.0852    2.3255  -79.1488 O   0  0  0  0  0  0  0  0  0  0  0  0
  3  1  1  0
  3  2  1  0
  5  4  1  0
  6  5  2  0
  7  5  2  0
  8  5  1  0
  9  8  1  0
  9 10  1  6
 14  9  1  0
 14 19  1  6
 14 15  1  0
 15 16  1  0
 16 17  1  0
 18 17  1  1
 18 19  1  0
 20 11  1  0
 20 25  2  0
 20 21  1  0
 21 22  2  0
 21 12  1  0
 22 23  1  0
 23 24  2  0
 24 25  1  0
 26 27  1  0
 26 13  1  1
 27 28  1  0
 28 29  1  0
 30 29  1  6
 18 30  1  0
 18 26  1  0
 30 12  1  0
 15 31  1  1
 32  3  1  0
 12 32  1  1
A    1
 O1 
A    2
 O2 
A    3
 C1 
A    4
 C2 
A    5
 S1 
A    6
 O3 
A    7
 O4 
A    8
 C3 
A    9
 C4 
A   10
 O5 
A   11
 F1 
A   12
 C5 
A   13
 F2 
A   14
 C6 
A   15
 C7 
A   16
 C8 
A   17
 C9 
A   18
 C10
A   19
 C11
A   20
 C12
A   21
 C13
A   22
 C14
A   23
 C15
A   24
 C16
A   25
 C17
A   26
 C18
A   27
 C19
A   28
 C20
A   29
 C21
A   30
 C22
A   31
 O6 
A   32
 O7 
M  END
>  <IDX>  (1) 
1

>  <DDG>  (1) 
-1.5149427717370534

>  <RMSD>  (1) 
1.205269250693249

>  <original SMILES>  (1) 
CS(=O)(=O)C[C@H](O)C1C[C@@]2(CC[C@H]1O)[C@@H]([C@@H](OC(O)O)c1ccccc1F)CCC[C@@H]2F

>  <ref_mols>  (1) 
x0246_0B,x0208_0A,x0212_0B

>  <ref_pdb>  (1) 
nsp13-x0208_0A_apo-desolv.pdb

>  <sa_score>  (1) 
5.4521851666569265

>  <SuCOS_Score>  (1) 
0.4767417548846765

>  <SuCOS_FeatureMap_Score>  (1) 
0.1559628639164561

>  <SuCOS_Protrude_Score>  (1) 
0.7901009911553324

>  <o3da_score>  (1) 
166.94447494937322

>  <o3da_score_rel>  (1) 
0.44108027939806399

>  <o3da_align>  (1) 
0.45639000021896936

$$$$
yichbvvfeahvlbyh-2
     RDKit          3D

 32 34  0  0  0  0  0  0  0  0999 V2000
   -4.6409    2.8263  -78.9521 O   0  0  0  0  0  0  0  0  0  0  0  0
   -4.3527    0.8029  -78.0815 O   0  0  0  0  0  0  0  0  0  0  0  0
   -5.1932    1.9116  -78.0276 C   0  0  0  0  0  0  0  0  0  0  0  0
  -16.3771    4.5497  -79.9361 C   0  0  0  0  0  0  0  0  0  0  0  0
  -15.3596    5.3816  -78.7385 S   0  0  0  0  0  6  0  0  0  0  0  0
  -15.2912    6.8022  -79.0573 O   0  0  0  0  0  0  0  0  0  0  0  0
  -15.7673    4.9348  -77.4152 O   0  0  0  0  0  0  0  0  0  0  0  0
  -13.7224    4.7240  -78.9897 C   0  0  0  0  0  0  0  0  0  0  0  0
  -12.8990    4.7850  -77.7150 C   0  0  2  0  0  0  0  0  0  0  0  0
  -11.9873    5.8791  -77.7168 O   0  0  0  0  0  0  0  0  0  0  0  0
   -7.8016    3.0447  -81.7367 F   0  0  0  0  0  0  0  0  0  0  0  0
   -7.3946    2.4522  -78.9614 C   0  0  1  0  0  0  0  0  0  0  0  0
  -10.0268    6.1219  -78.5138 F   0  0  0  0  0  0  0  0  0  0  0  0
  -12.1578    3.4532  -77.3152 C   0  0  2  0  0  0  0  0  0  0  0  0
  -11.9228    3.4061  -75.8048 C   0  0  1  0  0  0  0  0  0  0  0  0
  -10.4553    3.4877  -75.5444 C   0  0  0  0  0  0  0  0  0  0  0  0
   -9.8309    4.5129  -76.5134 C   0  0  0  0  0  0  0  0  0  0  0  0
   -9.5674    3.8791  -77.8736 C   0  0  1  0  0  0  0  0  0  0  0  0
  -10.8588    3.0311  -78.1223 C   0  0  0  0  0  0  0  0  0  0  0  0
   -8.3858    1.9622  -81.1983 C   0  0  0  0  0  0  0  0  0  0  0  0
   -8.2298    1.6315  -79.8688 C   0  0  0  0  0  0  0  0  0  0  0  0
   -8.8668    0.4881  -79.3713 C   0  0  0  0  0  0  0  0  0  0  0  0
   -9.6454   -0.3069  -80.2019 C   0  0  0  0  0  0  0  0  0  0  0  0
   -9.7882    0.0403  -81.5331 C   0  0  0  0  0  0  0  0  0  0  0  0
   -9.1512    1.1760  -82.0063 C   0  0  0  0  0  0  0  0  0  0  0  0
   -9.5017    4.9622  -78.9818 C   0  0  2  0  0  0  0  0  0  0  0  0
   -8.1684    5.2287  -79.6971 C   0  0  0  0  0  0  0  0  0  0  0  0
   -6.9153    5.1229  -78.8264 C   0  0  0  0  0  0  0  0  0  0  0  0
   -7.1393    4.3603  -77.5390 C   0  0  0  0  0  0  0  0  0  0  0  0
   -8.1121    3.1947  -77.7750 C   0  0  2  0  0  0  0  0  0  0  0  0
  -12.4983    4.5437  -75.1581 O   0  0  0  0  0  0  0  0  0  0  0  0
   -6.4732    1.4771  -78.4387 O   0  0  0  0  0  0  0  0  0  0  0  0
  3  1  1  0
  3  2  1  0
  5  4  1  0
  6  5  2  0
  7  5  2  0
  8  5  1  0
  9  8  1  0
  9 10  1  6
 14  9  1  0
 14 19  1  6
 14 15  1  0
 15 16  1  0
 16 17  1  0
 18 17  1  1
 18 19  1  0
 20 11  1  0
 20 25  2  0
 20 21  1  0
 21 22  2  0
 21 12  1  0
 22 23  1  0
 23 24  2  0
 24 25  1  0
 26 27  1  0
 26 13  1  1
 27 28  1  0
 28 29  1  0
 30 29  1  6
 18 30  1  0
 18 26  1  0
 30 12  1  0
 15 31  1  1
 32  3  1  0
 12 32  1  1
A    1
 O1 
A    2
 O2 
A    3
 C1 
A    4
 C2 
A    5
 S1 
A    6
 O3 
A    7
 O4 
A    8
 C3 
A    9
 C4 
A   10
 O5 
A   11
 F1 
A   12
 C5 
A   13
 F2 
A   14
 C6 
A   15
 C7 
A   16
 C8 
A   17
 C9 
A   18
 C10
A   19
 C11
A   20
 C12
A   21
 C13
A   22
 C14
A   23
 C15
A   24
 C16
A   25
 C17
A   26
 C18
A   27
 C19
A   28
 C20
A   29
 C21
A   30
 C22
A   31
 O6 
A   32
 O7 
M  END
>  <IDX>  (2) 
2

>  <DDG>  (2) 
-0.20843944021015925

>  <RMSD>  (2) 
0.94984339060008594

>  <original SMILES>  (2) 
CS(=O)(=O)C[C@H](O)C1C[C@@]2(CC[C@H]1O)[C@@H]([C@@H](OC(O)O)c1ccccc1F)CCC[C@@H]2F

>  <ref_mols>  (2) 
x0246_0B,x0208_0A,x0212_0B

>  <ref_pdb>  (2) 
nsp13-x0208_0A_apo-desolv.pdb

>  <sa_score>  (2) 
5.4521851666569265

>  <SuCOS_Score>  (2) 
0.5430971277143009

>  <SuCOS_FeatureMap_Score>  (2) 
0.24935563383681317

>  <SuCOS_Protrude_Score>  (2) 
0.8332578918300935

>  <o3da_score>  (2) 
164.51108945575086

>  <o3da_score_rel>  (2) 
0.43465108577703737

>  <o3da_align>  (2) 
0.42261019122320143

$$$$
yichbvvfeahvlbyh-3
     RDKit          3D

 32 34  0  0  0  0  0  0  0  0999 V2000
   -4.5071    3.7529  -79.2155 O   0  0  0  0  0  0  0  0  0  0  0  0
   -4.1309    1.7595  -78.3102 O   0  0  0  0  0  0  0  0  0  0  0  0
   -5.1045    2.7584  -78.4026 C   0  0  0  0  0  0  0  0  0  0  0  0
  -16.3251    4.4027  -79.8653 C   0  0  0  0  0  0  0  0  0  0  0  0
  -15.3898    5.3604  -78.6959 S   0  0  0  0  0  6  0  0  0  0  0  0
  -15.4601    6.7734  -79.0446 O   0  0  0  0  0  0  0  0  0  0  0  0
  -15.7406    4.9016  -77.3612 O   0  0  0  0  0  0  0  0  0  0  0  0
  -13.6956    4.8793  -78.9359 C   0  0  0  0  0  0  0  0  0  0  0  0
  -12.9321    4.9514  -77.6253 C   0  0  2  0  0  0  0  0  0  0  0  0
  -12.0686    6.0828  -77.5650 O   0  0  0  0  0  0  0  0  0  0  0  0
   -6.7424    1.9626  -81.8284 F   0  0  0  0  0  0  0  0  0  0  0  0
   -7.4623    2.9035  -79.2665 C   0  0  1  0  0  0  0  0  0  0  0  0
  -10.1956    6.3042  -78.4025 F   0  0  0  0  0  0  0  0  0  0  0  0
  -12.1493    3.6436  -77.2442 C   0  0  2  0  0  0  0  0  0  0  0  0
  -11.8294    3.5882  -75.7407 C   0  0  1  0  0  0  0  0  0  0  0  0
  -10.3554    3.6884  -75.5083 C   0  0  0  0  0  0  0  0  0  0  0  0
   -9.7570    4.6712  -76.5143 C   0  0  0  0  0  0  0  0  0  0  0  0
   -9.6007    4.0634  -77.8905 C   0  0  1  0  0  0  0  0  0  0  0  0
  -10.9128    3.2526  -78.1416 C   0  0  0  0  0  0  0  0  0  0  0  0
   -7.8319    1.4571  -81.2460 C   0  0  0  0  0  0  0  0  0  0  0  0
   -8.2384    1.8835  -80.0037 C   0  0  0  0  0  0  0  0  0  0  0  0
   -9.3864    1.3282  -79.4457 C   0  0  0  0  0  0  0  0  0  0  0  0
  -10.1096    0.3632  -80.1310 C   0  0  0  0  0  0  0  0  0  0  0  0
   -9.6813   -0.0562  -81.3772 C   0  0  0  0  0  0  0  0  0  0  0  0
   -8.5372    0.5002  -81.9157 C   0  0  0  0  0  0  0  0  0  0  0  0
   -9.5505    5.2180  -78.8948 C   0  0  2  0  0  0  0  0  0  0  0  0
   -8.1785    5.6010  -79.4016 C   0  0  0  0  0  0  0  0  0  0  0  0
   -6.9549    5.4477  -78.5219 C   0  0  0  0  0  0  0  0  0  0  0  0
   -7.1934    4.4571  -77.4384 C   0  0  0  0  0  0  0  0  0  0  0  0
   -8.1460    3.3638  -77.9235 C   0  0  2  0  0  0  0  0  0  0  0  0
  -12.3828    4.7068  -75.0533 O   0  0  0  0  0  0  0  0  0  0  0  0
   -6.2115    2.1813  -79.0755 O   0  0  0  0  0  0  0  0  0  0  0  0
  3  1  1  0
  3  2  1  0
  5  4  1  0
  6  5  2  0
  7  5  2  0
  8  5  1  0
  9  8  1  0
  9 10  1  6
 14  9  1  0
 14 19  1  6
 14 15  1  0
 15 16  1  0
 16 17  1  0
 18 17  1  1
 18 19  1  0
 20 11  1  0
 20 25  2  0
 20 21  1  0
 21 22  2  0
 21 12  1  0
 22 23  1  0
 23 24  2  0
 24 25  1  0
 26 27  1  0
 26 13  1  1
 27 28  1  0
 28 29  1  0
 30 29  1  6
 18 30  1  0
 18 26  1  0
 30 12  1  0
 15 31  1  1
 32  3  1  0
 12 32  1  1
A    1
 O1 
A    2
 O2 
A    3
 C1 
A    4
 C2 
A    5
 S1 
A    6
 O3 
A    7
 O4 
A    8
 C3 
A    9
 C4 
A   10
 O5 
A   11
 F1 
A   12
 C5 
A   13
 F2 
A   14
 C6 
A   15
 C7 
A   16
 C8 
A   17
 C9 
A   18
 C10
A   19
 C11
A   20
 C12
A   21
 C13
A   22
 C14
A   23
 C15
A   24
 C16
A   25
 C17
A   26
 C18
A   27
 C19
A   28
 C20
A   29
 C21
A   30
 C22
A   31
 O6 
A   32
 O7 
M  END
>  <IDX>  (3) 
3

>  <DDG>  (3) 
-0.84700296953166454

>  <RMSD>  (3) 
1.2122578246121303

>  <original SMILES>  (3) 
CS(=O)(=O)C[C@H](O)C1C[C@@]2(CC[C@H]1O)[C@@H]([C@@H](OC(O)O)c1ccccc1F)CCC[C@@H]2F

>  <ref_mols>  (3) 
x0246_0B,x0208_0A,x0212_0B

>  <ref_pdb>  (3) 
nsp13-x0208_0A_apo-desolv.pdb

>  <sa_score>  (3) 
5.4521851666569265

>  <SuCOS_Score>  (3) 
0.5009999820387067

>  <SuCOS_FeatureMap_Score>  (3) 
0.20692515526012692

>  <SuCOS_Protrude_Score>  (3) 
0.7893466657208387

>  <o3da_score>  (3) 
133.77678113629077

>  <o3da_score_rel>  (3) 
0.35344865422148747

>  <o3da_align>  (3) 
0.47012163214569402

$$$$
ngeuoldqjicalals-1
     RDKit          3D

 19 19  0  0  0  0  0  0  0  0999 V2000
  -16.0315    4.4571  -79.8832 C   0  0  0  0  0  0  0  0  0  0  0  0
  -15.2166    5.2791  -78.5383 S   0  0  0  0  0  6  0  0  0  0  0  0
  -14.9550    6.6699  -78.8933 O   0  0  0  0  0  0  0  0  0  0  0  0
  -15.9510    4.9506  -77.3293 O   0  0  0  0  0  0  0  0  0  0  0  0
  -13.6390    4.5003  -78.4238 C   0  0  0  0  0  0  0  0  0  0  0  0
  -12.8186    5.1548  -77.3154 C   0  0  1  0  0  0  0  0  0  0  0  0
  -12.2086    6.3268  -77.9384 O   0  0  0  0  0  0  0  0  0  0  0  0
  -13.6728    7.4599  -72.9320 C   0  0  0  0  0  0  0  0  0  0  0  0
  -12.6748    6.3011  -73.8523 S   0  0  0  0  0  6  0  0  0  0  0  0
  -11.2572    6.5191  -73.7199 O   0  0  0  0  0  0  0  0  0  0  0  0
  -13.2497    4.9862  -73.6572 O   0  0  0  0  0  0  0  0  0  0  0  0
  -13.0183    6.7289  -75.4155 N   0  0  0  0  0  0  0  0  0  0  0  0
  -13.7403    5.7219  -76.1993 C   0  0  0  0  0  0  0  0  0  0  0  0
  -11.6747    4.2684  -76.8380 C   0  0  0  0  0  0  0  0  0  0  0  0
  -11.7922    3.4130  -75.7349 C   0  0  0  0  0  0  0  0  0  0  0  0
  -10.7221    2.6107  -75.3411 C   0  0  0  0  0  0  0  0  0  0  0  0
   -9.5205    2.6497  -76.0355 C   0  0  0  0  0  0  0  0  0  0  0  0
   -9.3790    3.4912  -77.1264 C   0  0  0  0  0  0  0  0  0  0  0  0
  -10.4454    4.2927  -77.5263 C   0  0  0  0  0  0  0  0  0  0  0  0
  2  1  1  0
  3  2  2  0
  4  2  2  0
  5  2  1  0
  6  5  1  0
  6  7  1  6
  9  8  1  0
 10  9  2  0
 11  9  2  0
 12  9  1  0
 13 12  1  0
 13  6  1  0
 14  6  1  0
 14 19  2  0
 14 15  1  0
 15 16  2  0
 16 17  1  0
 17 18  2  0
 18 19  1  0
A    1
 C1 
A    2
 S1 
A    3
 O1 
A    4
 O2 
A    5
 C2 
A    6
 C3 
A    7
 O3 
A    8
 C4 
A    9
 S2 
A   10
 O4 
A   11
 O5 
A   12
 N1 
A   13
 C5 
A   14
 C6 
A   15
 C7 
A   16
 C8 
A   17
 C9 
A   18
 C10
A   19
 C11
M  END
>  <IDX>  (1) 
1

>  <DDG>  (1) 
-2.4869396094045575

>  <RMSD>  (1) 
0.4830925595086637

>  <original SMILES>  (1) 
CS(=O)(=O)C[C@@](O)(CNS(C)(=O)=O)c1ccccc1

>  <ref_mols>  (1) 
x0246_0B,x0176_0B

>  <ref_pdb>  (1) 
nsp13-x0208_0A_apo-desolv.pdb

>  <sa_score>  (1) 
3.057180014443875

>  <SuCOS_Score>  (1) 
0.8344010978955629

>  <SuCOS_FeatureMap_Score>  (1) 
0.7861909941988608

>  <SuCOS_Protrude_Score>  (1) 
0.8800420205667994

>  <o3da_score>  (1) 
142.18596080351276

>  <o3da_score_rel>  (1) 
0.56330457424513991

>  <o3da_align>  (1) 
0.12626544776992343

$$$$
ngeuoldqjicalals-2
     RDKit          3D

 19 19  0  0  0  0  0  0  0  0999 V2000
  -16.0321    4.4575  -79.8838 C   0  0  0  0  0  0  0  0  0  0  0  0
  -15.2162    5.2787  -78.5379 S   0  0  0  0  0  6  0  0  0  0  0  0
  -14.9546    6.6693  -78.8940 O   0  0  0  0  0  0  0  0  0  0  0  0
  -15.9506    4.9512  -77.3290 O   0  0  0  0  0  0  0  0  0  0  0  0
  -13.6396    4.5008  -78.4234 C   0  0  0  0  0  0  0  0  0  0  0  0
  -12.8182    5.1554  -77.3150 C   0  0  1  0  0  0  0  0  0  0  0  0
  -12.2092    6.3274  -77.9381 O   0  0  0  0  0  0  0  0  0  0  0  0
  -13.6734    7.4600  -72.9318 C   0  0  0  0  0  0  0  0  0  0  0  0
  -12.6754    6.3011  -73.8520 S   0  0  0  0  0  6  0  0  0  0  0  0
  -11.2569    6.5190  -73.7195 O   0  0  0  0  0  0  0  0  0  0  0  0
  -13.2494    4.9862  -73.6567 O   0  0  0  0  0  0  0  0  0  0  0  0
  -13.0179    6.7287  -75.4153 N   0  0  0  0  0  0  0  0  0  0  0  0
  -13.7400    5.7217  -76.1989 C   0  0  0  0  0  0  0  0  0  0  0  0
  -11.6744    4.2680  -76.8385 C   0  0  0  0  0  0  0  0  0  0  0  0
  -11.7918    3.4148  -75.7345 C   0  0  0  0  0  0  0  0  0  0  0  0
  -10.7218    2.6115  -75.3404 C   0  0  0  0  0  0  0  0  0  0  0  0
   -9.5203    2.6491  -76.0367 C   0  0  0  0  0  0  0  0  0  0  0  0
   -9.3789    3.4894  -77.1286 C   0  0  0  0  0  0  0  0  0  0  0  0
  -10.4452    4.2910  -77.5276 C   0  0  0  0  0  0  0  0  0  0  0  0
  2  1  1  0
  3  2  2  0
  4  2  2  0
  5  2  1  0
  6  5  1  0
  6  7  1  6
  9  8  1  0
 10  9  2  0
 11  9  2  0
 12  9  1  0
 13 12  1  0
 13  6  1  0
 14  6  1  0
 14 19  2  0
 14 15  1  0
 15 16  2  0
 16 17  1  0
 17 18  2  0
 18 19  1  0
A    1
 C1 
A    2
 S1 
A    3
 O1 
A    4
 O2 
A    5
 C2 
A    6
 C3 
A    7
 O3 
A    8
 C4 
A    9
 S2 
A   10
 O4 
A   11
 O5 
A   12
 N1 
A   13
 C5 
A   14
 C6 
A   15
 C7 
A   16
 C8 
A   17
 C9 
A   18
 C10
A   19
 C11
M  END
>  <IDX>  (2) 
2

>  <DDG>  (2) 
-0.57283091493113547

>  <RMSD>  (2) 
0.48331116706582128

>  <original SMILES>  (2) 
CS(=O)(=O)C[C@@](O)(CNS(C)(=O)=O)c1ccccc1

>  <ref_mols>  (2) 
x0246_0B,x0176_0B

>  <ref_pdb>  (2) 
nsp13-x0208_0A_apo-desolv.pdb

>  <sa_score>  (2) 
3.057180014443875

>  <SuCOS_Score>  (2) 
0.8344524821183222

>  <SuCOS_FeatureMap_Score>  (2) 
0.7861174788256798

>  <SuCOS_Protrude_Score>  (2) 
0.8802296022301475

>  <o3da_score>  (2) 
142.19260438810377

>  <o3da_score_rel>  (2) 
0.56333089443574347

>  <o3da_align>  (2) 
0.12571601454577941

$$$$
ngeuoldqjicalals-3
     RDKit          3D

 19 19  0  0  0  0  0  0  0  0999 V2000
  -16.0670    4.5273  -79.9237 C   0  0  0  0  0  0  0  0  0  0  0  0
  -15.2259    5.2594  -78.5432 S   0  0  0  0  0  6  0  0  0  0  0  0
  -14.9708    6.6533  -78.8483 O   0  0  0  0  0  0  0  0  0  0  0  0
  -15.9248    4.8675  -77.3334 O   0  0  0  0  0  0  0  0  0  0  0  0
  -13.6399    4.4983  -78.5136 C   0  0  0  0  0  0  0  0  0  0  0  0
  -12.7772    5.1492  -77.4353 C   0  0  1  0  0  0  0  0  0  0  0  0
  -12.2610    6.3697  -78.0499 O   0  0  0  0  0  0  0  0  0  0  0  0
  -13.4743    7.0739  -72.8488 C   0  0  0  0  0  0  0  0  0  0  0  0
  -12.4750    6.0305  -73.8982 S   0  0  0  0  0  6  0  0  0  0  0  0
  -11.0614    6.2873  -73.7976 O   0  0  0  0  0  0  0  0  0  0  0  0
  -12.9998    4.6847  -73.7933 O   0  0  0  0  0  0  0  0  0  0  0  0
  -12.8872    6.5706  -75.4105 N   0  0  0  0  0  0  0  0  0  0  0  0
  -13.6468    5.6288  -76.2378 C   0  0  0  0  0  0  0  0  0  0  0  0
  -11.5729    4.2859  -77.0865 C   0  0  0  0  0  0  0  0  0  0  0  0
  -11.5980    3.3357  -76.0597 C   0  0  0  0  0  0  0  0  0  0  0  0
  -10.4741    2.5568  -75.7849 C   0  0  0  0  0  0  0  0  0  0  0  0
   -9.3101    2.7172  -76.5250 C   0  0  0  0  0  0  0  0  0  0  0  0
   -9.2590    3.6563  -77.5410 C   0  0  0  0  0  0  0  0  0  0  0  0
  -10.3795    4.4330  -77.8222 C   0  0  0  0  0  0  0  0  0  0  0  0
  2  1  1  0
  3  2  2  0
  4  2  2  0
  5  2  1  0
  6  5  1  0
  6  7  1  6
  9  8  1  0
 10  9  2  0
 11  9  2  0
 12  9  1  0
 13 12  1  0
 13  6  1  0
 14  6  1  0
 14 19  2  0
 14 15  1  0
 15 16  2  0
 16 17  1  0
 17 18  2  0
 18 19  1  0
A    1
 C1 
A    2
 S1 
A    3
 O1 
A    4
 O2 
A    5
 C2 
A    6
 C3 
A    7
 O3 
A    8
 C4 
A    9
 S2 
A   10
 O4 
A   11
 O5 
A   12
 N1 
A   13
 C5 
A   14
 C6 
A   15
 C7 
A   16
 C8 
A   17
 C9 
A   18
 C10
A   19
 C11
M  END
>  <IDX>  (3) 
3

>  <DDG>  (3) 
-2.6386164999317847

>  <RMSD>  (3) 
0.48324794769079726

>  <original SMILES>  (3) 
CS(=O)(=O)C[C@@](O)(CNS(C)(=O)=O)c1ccccc1

>  <ref_mols>  (3) 
x0246_0B,x0176_0B

>  <ref_pdb>  (3) 
nsp13-x0208_0A_apo-desolv.pdb

>  <sa_score>  (3) 
3.057180014443875

>  <SuCOS_Score>  (3) 
0.8355216834243533

>  <SuCOS_FeatureMap_Score>  (3) 
0.7873548190577367

>  <SuCOS_Protrude_Score>  (3) 
0.880990451279325

>  <o3da_score>  (3) 
150.16880915935076

>  <o3da_score_rel>  (3) 
0.59493058689038936

>  <o3da_align>  (3) 
0.18289979466146303

$$$$
iqssexwqthkbbmjf-1
     RDKit          3D

 28 29  0  0  0  0  0  0  0  0999 V2000
  -15.9790    4.5623  -79.9506 C   0  0  0  0  0  0  0  0  0  0  0  0
  -15.1519    5.2386  -78.5334 S   0  0  0  0  0  6  0  0  0  0  0  0
  -14.9952    6.6655  -78.7187 O   0  0  0  0  0  0  0  0  0  0  0  0
  -15.7701    4.6927  -77.3339 O   0  0  0  0  0  0  0  0  0  0  0  0
  -13.5103    4.5948  -78.5834 C   0  0  0  0  0  0  0  0  0  0  0  0
  -12.6811    5.2834  -77.4928 C   0  0  1  0  0  0  0  0  0  0  0  0
  -12.1776    6.5429  -77.9936 O   0  0  0  0  0  0  0  0  0  0  0  0
  -13.5567    6.9125  -72.8431 C   0  0  0  0  0  0  0  0  0  0  0  0
  -12.5042    5.9187  -73.8913 S   0  0  0  0  0  6  0  0  0  0  0  0
  -11.1016    6.2138  -73.7581 O   0  0  0  0  0  0  0  0  0  0  0  0
  -12.9997    4.5610  -73.8485 O   0  0  0  0  0  0  0  0  0  0  0  0
  -12.8783    6.5640  -75.3728 N   0  0  0  0  0  0  0  0  0  0  0  0
  -13.5745    5.6089  -76.2574 C   0  0  0  0  0  0  0  0  0  0  0  0
   -9.9746    3.0272  -79.8244 F   0  0  0  0  0  0  0  0  0  0  0  0
   -7.3293    2.3838  -78.9894 C   0  0  0  0  0  0  0  0  0  0  0  0
   -7.9826    3.6317  -78.5601 N   0  0  0  0  0  0  0  0  0  0  0  0
  -11.4556    4.3760  -77.2115 C   0  0  0  0  0  0  0  0  0  0  0  0
  -11.4642    3.4588  -76.1490 C   0  0  0  0  0  0  0  0  0  0  0  0
  -10.3591    2.6400  -75.9078 C   0  0  0  0  0  0  0  0  0  0  0  0
   -9.2296    2.7182  -76.7125 C   0  0  0  0  0  0  0  0  0  0  0  0
   -9.1618    3.6094  -77.7801 C   0  0  0  0  0  0  0  0  0  0  0  0
  -10.2845    4.4331  -78.0133 C   0  0  0  0  0  0  0  0  0  0  0  0
   -9.5101    1.8354  -80.1707 C   0  0  0  0  0  0  0  0  0  0  0  0
   -8.2311    1.4745  -79.8028 C   0  0  0  0  0  0  0  0  0  0  0  0
   -7.7951    0.2156  -80.2166 C   0  0  0  0  0  0  0  0  0  0  0  0
   -8.6217   -0.6300  -80.9684 C   0  0  0  0  0  0  0  0  0  0  0  0
   -9.9028   -0.2399  -81.3216 C   0  0  0  0  0  0  0  0  0  0  0  0
  -10.3507    0.9969  -80.9177 C   0  0  0  0  0  0  0  0  0  0  0  0
  2  1  1  0
  3  2  2  0
  4  2  2  0
  5  2  1  0
  6  5  1  0
  6  7  1  6
  9  8  1  0
 10  9  2  0
 11  9  2  0
 12  9  1  0
 13 12  1  0
 13  6  1  0
 16 15  1  0
 17  6  1  0
 17 22  2  0
 17 18  1  0
 18 19  2  0
 19 20  1  0
 20 21  2  0
 21 22  1  0
 23 14  1  0
 23 28  2  0
 23 24  1  0
 24 25  2  0
 24 15  1  0
 25 26  1  0
 26 27  2  0
 27 28  1  0
 16 21  1  0
A    1
 C1 
A    2
 S1 
A    3
 O1 
A    4
 O2 
A    5
 C2 
A    6
 C3 
A    7
 O3 
A    8
 C4 
A    9
 S2 
A   10
 O4 
A   11
 O5 
A   12
 N1 
A   13
 C5 
A   14
 F1 
A   15
 C6 
A   16
 N2 
A   17
 C7 
A   18
 C8 
A   19
 C9 
A   20
 C10
A   21
 C11
A   22
 C12
A   23
 C13
A   24
 C14
A   25
 C15
A   26
 C16
A   27
 C17
A   28
 C18
M  END
>  <IDX>  (1) 
1

>  <DDG>  (1) 
-0.73696393787441095

>  <RMSD>  (1) 
0.93178440562794929

>  <original SMILES>  (1) 
CS(=O)(=O)C[C@@](O)(CNS(C)(=O)=O)c1cccc(NCc2ccccc2F)c1

>  <ref_mols>  (1) 
x0246_0B,x0176_0B,x0212_0B

>  <ref_pdb>  (1) 
nsp13-x0208_0A_apo-desolv.pdb

>  <sa_score>  (1) 
3.096763652019269

>  <SuCOS_Score>  (1) 
0.6895535589613945

>  <SuCOS_FeatureMap_Score>  (1) 
0.5303643446067872

>  <SuCOS_Protrude_Score>  (1) 
0.8216084747127588

>  <o3da_score>  (1) 
184.57573523556493

>  <o3da_score_rel>  (1) 
0.49011862970616882

>  <o3da_align>  (1) 
0.28278889994717982

$$$$
iqssexwqthkbbmjf-2
     RDKit          3D

 28 29  0  0  0  0  0  0  0  0999 V2000
  -15.9964    4.5042  -79.9609 C   0  0  0  0  0  0  0  0  0  0  0  0
  -15.1790    5.2278  -78.5601 S   0  0  0  0  0  6  0  0  0  0  0  0
  -14.9675    6.6352  -78.8219 O   0  0  0  0  0  0  0  0  0  0  0  0
  -15.8400    4.7732  -77.3453 O   0  0  0  0  0  0  0  0  0  0  0  0
  -13.5590    4.5316  -78.5324 C   0  0  0  0  0  0  0  0  0  0  0  0
  -12.7129    5.2812  -77.4944 C   0  0  1  0  0  0  0  0  0  0  0  0
  -12.2390    6.5231  -78.0638 O   0  0  0  0  0  0  0  0  0  0  0  0
  -13.6127    6.7673  -72.8446 C   0  0  0  0  0  0  0  0  0  0  0  0
  -12.4815    5.8072  -73.8408 S   0  0  0  0  0  6  0  0  0  0  0  0
  -11.1044    6.1006  -73.5531 O   0  0  0  0  0  0  0  0  0  0  0  0
  -12.9591    4.4417  -73.8668 O   0  0  0  0  0  0  0  0  0  0  0  0
  -12.7580    6.5032  -75.3305 N   0  0  0  0  0  0  0  0  0  0  0  0
  -13.5607    5.6532  -76.2401 C   0  0  0  0  0  0  0  0  0  0  0  0
   -9.9906    3.0054  -79.8432 F   0  0  0  0  0  0  0  0  0  0  0  0
   -7.3463    2.4041  -78.9777 C   0  0  0  0  0  0  0  0  0  0  0  0
   -8.0195    3.6520  -78.5841 N   0  0  0  0  0  0  0  0  0  0  0  0
  -11.4724    4.4055  -77.2009 C   0  0  0  0  0  0  0  0  0  0  0  0
  -11.4529    3.5401  -76.0970 C   0  0  0  0  0  0  0  0  0  0  0  0
  -10.3374    2.7464  -75.8372 C   0  0  0  0  0  0  0  0  0  0  0  0
   -9.2222    2.8018  -76.6696 C   0  0  0  0  0  0  0  0  0  0  0  0
   -9.1825    3.6449  -77.7788 C   0  0  0  0  0  0  0  0  0  0  0  0
  -10.3202    4.4418  -78.0273 C   0  0  0  0  0  0  0  0  0  0  0  0
   -9.4997    1.8263  -80.1921 C   0  0  0  0  0  0  0  0  0  0  0  0
   -8.2198    1.4839  -79.8093 C   0  0  0  0  0  0  0  0  0  0  0  0
   -7.7560    0.2364  -80.2241 C   0  0  0  0  0  0  0  0  0  0  0  0
   -8.5563   -0.6177  -80.9923 C   0  0  0  0  0  0  0  0  0  0  0  0
   -9.8387   -0.2468  -81.3619 C   0  0  0  0  0  0  0  0  0  0  0  0
  -10.3142    0.9782  -80.9568 C   0  0  0  0  0  0  0  0  0  0  0  0
  2  1  1  0
  3  2  2  0
  4  2  2  0
  5  2  1  0
  6  5  1  0
  6  7  1  6
  9  8  1  0
 10  9  2  0
 11  9  2  0
 12  9  1  0
 13 12  1  0
 13  6  1  0
 16 15  1  0
 17  6  1  0
 17 22  2  0
 17 18  1  0
 18 19  2  0
 19 20  1  0
 20 21  2  0
 21 22  1  0
 23 14  1  0
 23 28  2  0
 23 24  1  0
 24 25  2  0
 24 15  1  0
 25 26  1  0
 26 27  2  0
 27 28  1  0
 16 21  1  0
A    1
 C1 
A    2
 S1 
A    3
 O1 
A    4
 O2 
A    5
 C2 
A    6
 C3 
A    7
 O3 
A    8
 C4 
A    9
 S2 
A   10
 O4 
A   11
 O5 
A   12
 N1 
A   13
 C5 
A   14
 F1 
A   15
 C6 
A   16
 N2 
A   17
 C7 
A   18
 C8 
A   19
 C9 
A   20
 C10
A   21
 C11
A   22
 C12
A   23
 C13
A   24
 C14
A   25
 C15
A   26
 C16
A   27
 C17
A   28
 C18
M  END
>  <IDX>  (2) 
2

>  <DDG>  (2) 
-0.14470550794525971

>  <RMSD>  (2) 
0.91924602256414445

>  <original SMILES>  (2) 
CS(=O)(=O)C[C@@](O)(CNS(C)(=O)=O)c1cccc(NCc2ccccc2F)c1

>  <ref_mols>  (2) 
x0246_0B,x0176_0B,x0212_0B

>  <ref_pdb>  (2) 
nsp13-x0208_0A_apo-desolv.pdb

>  <sa_score>  (2) 
3.096763652019269

>  <SuCOS_Score>  (2) 
0.6978334992828934

>  <SuCOS_FeatureMap_Score>  (2) 
0.5431619880343698

>  <SuCOS_Protrude_Score>  (2) 
0.8247226590426838

>  <o3da_score>  (2) 
185.13437703632084

>  <o3da_score_rel>  (2) 
0.49160203571039596

>  <o3da_align>  (2) 
0.2723831995328897

$$$$
iqssexwqthkbbmjf-3
     RDKit          3D

 28 29  0  0  0  0  0  0  0  0999 V2000
  -15.8675    4.2544  -79.7838 C   0  0  0  0  0  0  0  0  0  0  0  0
  -15.0561    5.0897  -78.4494 S   0  0  0  0  0  6  0  0  0  0  0  0
  -15.1806    6.5153  -78.6247 O   0  0  0  0  0  0  0  0  0  0  0  0
  -15.4637    4.4440  -77.2124 O   0  0  0  0  0  0  0  0  0  0  0  0
  -13.3338    4.7651  -78.6555 C   0  0  0  0  0  0  0  0  0  0  0  0
  -12.5512    5.4217  -77.5084 C   0  0  1  0  0  0  0  0  0  0  0  0
  -12.0402    6.7078  -77.9307 O   0  0  0  0  0  0  0  0  0  0  0  0
  -13.4361    6.9507  -72.7490 C   0  0  0  0  0  0  0  0  0  0  0  0
  -12.4460    5.9527  -73.8480 S   0  0  0  0  0  6  0  0  0  0  0  0
  -11.0401    6.2401  -73.7172 O   0  0  0  0  0  0  0  0  0  0  0  0
  -12.9576    4.5957  -73.7939 O   0  0  0  0  0  0  0  0  0  0  0  0
  -12.8576    6.6264  -75.3206 N   0  0  0  0  0  0  0  0  0  0  0  0
  -13.4818    5.6726  -76.2724 C   0  0  0  0  0  0  0  0  0  0  0  0
  -10.2623    2.4357  -79.0815 F   0  0  0  0  0  0  0  0  0  0  0  0
   -7.3732    2.2638  -78.9271 C   0  0  0  0  0  0  0  0  0  0  0  0
   -7.9594    3.5837  -78.6576 N   0  0  0  0  0  0  0  0  0  0  0  0
  -11.3392    4.5001  -77.2410 C   0  0  0  0  0  0  0  0  0  0  0  0
  -11.3357    3.6308  -76.1392 C   0  0  0  0  0  0  0  0  0  0  0  0
  -10.2515    2.7908  -75.8948 C   0  0  0  0  0  0  0  0  0  0  0  0
   -9.1521    2.8009  -76.7421 C   0  0  0  0  0  0  0  0  0  0  0  0
   -9.1024    3.6442  -77.8502 C   0  0  0  0  0  0  0  0  0  0  0  0
  -10.2031    4.4921  -78.0870 C   0  0  0  0  0  0  0  0  0  0  0  0
   -9.6576    1.5049  -79.8085 C   0  0  0  0  0  0  0  0  0  0  0  0
   -8.2651    1.3772  -79.7807 C   0  0  0  0  0  0  0  0  0  0  0  0
   -7.6983    0.3780  -80.5839 C   0  0  0  0  0  0  0  0  0  0  0  0
   -8.4978   -0.4529  -81.3737 C   0  0  0  0  0  0  0  0  0  0  0  0
   -9.8806   -0.3072  -81.3775 C   0  0  0  0  0  0  0  0  0  0  0  0
  -10.4621    0.6756  -80.5905 C   0  0  0  0  0  0  0  0  0  0  0  0
  2  1  1  0
  3  2  2  0
  4  2  2  0
  5  2  1  0
  6  5  1  0
  6  7  1  6
  9  8  1  0
 10  9  2  0
 11  9  2  0
 12  9  1  0
 13 12  1  0
 13  6  1  0
 16 15  1  0
 17  6  1  0
 17 22  2  0
 17 18  1  0
 18 19  2  0
 19 20  1  0
 20 21  2  0
 21 22  1  0
 23 14  1  0
 23 28  2  0
 23 24  1  0
 24 25  2  0
 24 15  1  0
 25 26  1  0
 26 27  2  0
 27 28  1  0
 16 21  1  0
A    1
 C1 
A    2
 S1 
A    3
 O1 
A    4
 O2 
A    5
 C2 
A    6
 C3 
A    7
 O3 
A    8
 C4 
A    9
 S2 
A   10
 O4 
A   11
 O5 
A   12
 N1 
A   13
 C5 
A   14
 F1 
A   15
 C6 
A   16
 N2 
A   17
 C7 
A   18
 C8 
A   19
 C9 
A   20
 C10
A   21
 C11
A   22
 C12
A   23
 C13
A   24
 C14
A   25
 C15
A   26
 C16
A   27
 C17
A   28
 C18
M  END
>  <IDX>  (3) 
3

>  <DDG>  (3) 
-0.62978750275841522

>  <RMSD>  (3) 
1.1510494590341704

>  <original SMILES>  (3) 
CS(=O)(=O)C[C@@](O)(CNS(C)(=O)=O)c1cccc(NCc2ccccc2F)c1

>  <ref_mols>  (3) 
x0246_0B,x0176_0B,x0212_0B

>  <ref_pdb>  (3) 
nsp13-x0208_0A_apo-desolv.pdb

>  <sa_score>  (3) 
3.096763652019269

>  <SuCOS_Score>  (3) 
0.6393527597694999

>  <SuCOS_FeatureMap_Score>  (3) 
0.48035256192902015

>  <SuCOS_Protrude_Score>  (3) 
0.7910899813599024

>  <o3da_score>  (3) 
172.39527029946859

>  <o3da_score_rel>  (3) 
0.45777487240760234

>  <o3da_align>  (3) 
0.38035096295470811

$$$$
yniozkqcqxpcyvyb-1
     RDKit          3D

 22 23  0  0  0  0  0  0  0  0999 V2000
  -16.0619    4.5289  -80.0035 C   0  0  0  0  0  0  0  0  0  0  0  0
  -15.2278    5.2608  -78.6094 S   0  0  0  0  0  6  0  0  0  0  0  0
  -15.0456    6.6831  -78.8334 O   0  0  0  0  0  0  0  0  0  0  0  0
  -15.8858    4.7719  -77.4075 O   0  0  0  0  0  0  0  0  0  0  0  0
  -13.6027    4.5701  -78.5735 C   0  0  0  0  0  0  0  0  0  0  0  0
  -12.7183    5.1771  -77.4921 C   0  0  2  0  0  0  0  0  0  0  0  0
  -12.3841    6.5362  -77.7713 O   0  0  0  0  0  0  0  0  0  0  0  0
  -10.1325    2.9242  -79.5846 F   0  0  0  0  0  0  0  0  0  0  0  0
   -7.4111    2.4047  -78.7348 C   0  0  0  0  0  0  0  0  0  0  0  0
   -8.0337    3.6806  -78.3273 N   0  0  0  0  0  0  0  0  0  0  0  0
  -11.5197    4.3259  -77.1583 C   0  0  0  0  0  0  0  0  0  0  0  0
  -11.5942    3.4199  -76.0885 C   0  0  0  0  0  0  0  0  0  0  0  0
  -10.5061    2.6143  -75.7690 C   0  0  0  0  0  0  0  0  0  0  0  0
   -9.3332    2.7044  -76.5153 C   0  0  0  0  0  0  0  0  0  0  0  0
   -9.2281    3.5967  -77.5795 C   0  0  0  0  0  0  0  0  0  0  0  0
  -10.3273    4.4062  -77.8941 C   0  0  0  0  0  0  0  0  0  0  0  0
   -9.5523    1.8103  -80.0113 C   0  0  0  0  0  0  0  0  0  0  0  0
   -8.2421    1.5145  -79.6407 C   0  0  0  0  0  0  0  0  0  0  0  0
   -7.6944    0.3287  -80.1423 C   0  0  0  0  0  0  0  0  0  0  0  0
   -8.4345   -0.5157  -80.9770 C   0  0  0  0  0  0  0  0  0  0  0  0
   -9.7394   -0.1983  -81.3271 C   0  0  0  0  0  0  0  0  0  0  0  0
  -10.3003    0.9679  -80.8395 C   0  0  0  0  0  0  0  0  0  0  0  0
  2  1  1  0
  3  2  2  0
  4  2  2  0
  5  2  1  0
  6  5  1  0
  6  7  1  6
 10  9  1  0
 11  6  1  0
 11 16  2  0
 11 12  1  0
 12 13  2  0
 13 14  1  0
 14 15  2  0
 15 16  1  0
 17  8  1  0
 17 22  2  0
 17 18  1  0
 18 19  2  0
 18  9  1  0
 19 20  1  0
 20 21  2  0
 21 22  1  0
 10 15  1  0
A    1
 C1 
A    2
 S1 
A    3
 O1 
A    4
 O2 
A    5
 C2 
A    6
 C3 
A    7
 O3 
A    8
 F1 
A    9
 C4 
A   10
 N1 
A   11
 C5 
A   12
 C6 
A   13
 C7 
A   14
 C8 
A   15
 C9 
A   16
 C10
A   17
 C11
A   18
 C12
A   19
 C13
A   20
 C14
A   21
 C15
A   22
 C16
M  END
>  <IDX>  (1) 
1

>  <DDG>  (1) 
-0.62024966166387829

>  <RMSD>  (1) 
1.0633885803069705

>  <original SMILES>  (1) 
CS(=O)(=O)C[C@H](O)c1cccc(NCc2ccccc2F)c1

>  <ref_mols>  (1) 
x0246_0B,x0212_0B

>  <ref_pdb>  (1) 
nsp13-x0208_0A_apo-desolv.pdb

>  <sa_score>  (1) 
2.549876869468033

>  <SuCOS_Score>  (1) 
0.6328024152247945

>  <SuCOS_FeatureMap_Score>  (1) 
0.45968049867585103

>  <SuCOS_Protrude_Score>  (1) 
0.7751966876545995

>  <o3da_score>  (1) 
140.64531909063442

>  <o3da_score_rel>  (1) 
0.56677541442931456

>  <o3da_align>  (1) 
0.36199464924115698

$$$$
yniozkqcqxpcyvyb-2
     RDKit          3D

 22 23  0  0  0  0  0  0  0  0999 V2000
  -16.0088    4.4819  -79.9124 C   0  0  0  0  0  0  0  0  0  0  0  0
  -15.1496    5.2006  -78.5275 S   0  0  0  0  0  6  0  0  0  0  0  0
  -14.9857    6.6279  -78.7338 O   0  0  0  0  0  0  0  0  0  0  0  0
  -15.7793    4.6905  -77.3189 O   0  0  0  0  0  0  0  0  0  0  0  0
  -13.5188    4.5247  -78.5359 C   0  0  0  0  0  0  0  0  0  0  0  0
  -12.6253    5.1129  -77.4506 C   0  0  2  0  0  0  0  0  0  0  0  0
  -12.3097    6.4822  -77.6981 O   0  0  0  0  0  0  0  0  0  0  0  0
  -10.0690    2.9449  -79.5687 F   0  0  0  0  0  0  0  0  0  0  0  0
   -7.2998    2.4571  -78.8197 C   0  0  0  0  0  0  0  0  0  0  0  0
   -7.9198    3.7051  -78.3259 N   0  0  0  0  0  0  0  0  0  0  0  0
  -11.4135    4.2683  -77.1433 C   0  0  0  0  0  0  0  0  0  0  0  0
  -11.4722    3.3311  -76.1025 C   0  0  0  0  0  0  0  0  0  0  0  0
  -10.3714    2.5320  -75.8041 C   0  0  0  0  0  0  0  0  0  0  0  0
   -9.2008    2.6602  -76.5460 C   0  0  0  0  0  0  0  0  0  0  0  0
   -9.1112    3.5840  -77.5830 C   0  0  0  0  0  0  0  0  0  0  0  0
  -10.2221    4.3868  -77.8763 C   0  0  0  0  0  0  0  0  0  0  0  0
   -9.4855    1.8442  -80.0231 C   0  0  0  0  0  0  0  0  0  0  0  0
   -8.1575    1.5659  -79.7010 C   0  0  0  0  0  0  0  0  0  0  0  0
   -7.6119    0.3915  -80.2314 C   0  0  0  0  0  0  0  0  0  0  0  0
   -8.3687   -0.4580  -81.0455 C   0  0  0  0  0  0  0  0  0  0  0  0
   -9.6903   -0.1572  -81.3458 C   0  0  0  0  0  0  0  0  0  0  0  0
  -10.2491    0.9966  -80.8305 C   0  0  0  0  0  0  0  0  0  0  0  0
  2  1  1  0
  3  2  2  0
  4  2  2  0
  5  2  1  0
  6  5  1  0
  6  7  1  6
 10  9  1  0
 11  6  1  0
 11 16  2  0
 11 12  1  0
 12 13  2  0
 13 14  1  0
 14 15  2  0
 15 16  1  0
 17  8  1  0
 17 22  2  0
 17 18  1  0
 18 19  2  0
 18  9  1  0
 19 20  1  0
 20 21  2  0
 21 22  1  0
 10 15  1  0
A    1
 C1 
A    2
 S1 
A    3
 O1 
A    4
 O2 
A    5
 C2 
A    6
 C3 
A    7
 O3 
A    8
 F1 
A    9
 C4 
A   10
 N1 
A   11
 C5 
A   12
 C6 
A   13
 C7 
A   14
 C8 
A   15
 C9 
A   16
 C10
A   17
 C11
A   18
 C12
A   19
 C13
A   20
 C14
A   21
 C15
A   22
 C16
M  END
>  <IDX>  (2) 
2

>  <DDG>  (2) 
-0.55106005274968106

>  <RMSD>  (2) 
1.0732898659559016

>  <original SMILES>  (2) 
CS(=O)(=O)C[C@H](O)c1cccc(NCc2ccccc2F)c1

>  <ref_mols>  (2) 
x0246_0B,x0212_0B

>  <ref_pdb>  (2) 
nsp13-x0208_0A_apo-desolv.pdb

>  <sa_score>  (2) 
2.549876869468033

>  <SuCOS_Score>  (2) 
0.6295779467808469

>  <SuCOS_FeatureMap_Score>  (2) 
0.45758846816703236

>  <SuCOS_Protrude_Score>  (2) 
0.7713017339684187

>  <o3da_score>  (2) 
138.82170711151505

>  <o3da_score_rel>  (2) 
0.55942658517636534

>  <o3da_align>  (2) 
0.42479964794945657

$$$$
yniozkqcqxpcyvyb-3
     RDKit          3D

 22 23  0  0  0  0  0  0  0  0999 V2000
  -16.0404    4.5788  -80.0290 C   0  0  0  0  0  0  0  0  0  0  0  0
  -15.2344    5.2626  -78.5943 S   0  0  0  0  0  6  0  0  0  0  0  0
  -15.0182    6.6857  -78.7892 O   0  0  0  0  0  0  0  0  0  0  0  0
  -15.9343    4.7651  -77.4197 O   0  0  0  0  0  0  0  0  0  0  0  0
  -13.6284    4.5379  -78.5132 C   0  0  0  0  0  0  0  0  0  0  0  0
  -12.7529    5.1566  -77.4320 C   0  0  2  0  0  0  0  0  0  0  0  0
  -12.4195    6.5123  -77.7280 O   0  0  0  0  0  0  0  0  0  0  0  0
  -10.0047    2.9822  -79.7615 F   0  0  0  0  0  0  0  0  0  0  0  0
   -7.4207    2.4011  -78.6957 C   0  0  0  0  0  0  0  0  0  0  0  0
   -8.1014    3.6563  -78.3208 N   0  0  0  0  0  0  0  0  0  0  0  0
  -11.5530    4.3140  -77.0814 C   0  0  0  0  0  0  0  0  0  0  0  0
  -11.6052    3.4492  -75.9794 C   0  0  0  0  0  0  0  0  0  0  0  0
  -10.5078    2.6560  -75.6513 C   0  0  0  0  0  0  0  0  0  0  0  0
   -9.3464    2.7171  -76.4232 C   0  0  0  0  0  0  0  0  0  0  0  0
   -9.2640    3.5696  -77.5210 C   0  0  0  0  0  0  0  0  0  0  0  0
  -10.3741    4.3636  -77.8395 C   0  0  0  0  0  0  0  0  0  0  0  0
   -9.4537    1.8305  -80.1142 C   0  0  0  0  0  0  0  0  0  0  0  0
   -8.1981    1.5010  -79.6347 C   0  0  0  0  0  0  0  0  0  0  0  0
   -7.6703    0.2830  -80.0567 C   0  0  0  0  0  0  0  0  0  0  0  0
   -8.3820   -0.5560  -80.9235 C   0  0  0  0  0  0  0  0  0  0  0  0
   -9.6388   -0.2004  -81.3856 C   0  0  0  0  0  0  0  0  0  0  0  0
  -10.1777    0.9964  -80.9762 C   0  0  0  0  0  0  0  0  0  0  0  0
  2  1  1  0
  3  2  2  0
  4  2  2  0
  5  2  1  0
  6  5  1  0
  6  7  1  6
 10  9  1  0
 11  6  1  0
 11 16  2  0
 11 12  1  0
 12 13  2  0
 13 14  1  0
 14 15  2  0
 15 16  1  0
 17  8  1  0
 17 22  2  0
 17 18  1  0
 18 19  2  0
 18  9  1  0
 19 20  1  0
 20 21  2  0
 21 22  1  0
 10 15  1  0
A    1
 C1 
A    2
 S1 
A    3
 O1 
A    4
 O2 
A    5
 C2 
A    6
 C3 
A    7
 O3 
A    8
 F1 
A    9
 C4 
A   10
 N1 
A   11
 C5 
A   12
 C6 
A   13
 C7 
A   14
 C8 
A   15
 C9 
A   16
 C10
A   17
 C11
A   18
 C12
A   19
 C13
A   20
 C14
A   21
 C15
A   22
 C16
M  END
>  <IDX>  (3) 
3

>  <DDG>  (3) 
-0.36322082873009243

>  <RMSD>  (3) 
0.9789564945296686

>  <original SMILES>  (3) 
CS(=O)(=O)C[C@H](O)c1cccc(NCc2ccccc2F)c1

>  <ref_mols>  (3) 
x0246_0B,x0212_0B

>  <ref_pdb>  (3) 
nsp13-x0208_0A_apo-desolv.pdb

>  <sa_score>  (3) 
2.549876869468033

>  <SuCOS_Score>  (3) 
0.6604691293874528

>  <SuCOS_FeatureMap_Score>  (3) 
0.48048162590428933

>  <SuCOS_Protrude_Score>  (3) 
0.7988428752581446

>  <o3da_score>  (3) 
142.26510853988378

>  <o3da_score_rel>  (3) 
0.57330287543777469

>  <o3da_align>  (3) 
0.31555820695700176

$$$$
fasgjsaxksspgdjr-1
     RDKit          3D

 25 26  0  0  0  0  0  0  0  0999 V2000
  -12.3574    1.9020  -75.5549 C   0  0  0  0  0  0  0  0  0  0  0  0
   -8.8457    5.9489  -77.4743 F   0  0  0  0  0  0  0  0  0  0  0  0
   -5.2483    1.6903  -78.1479 C   0  0  0  0  0  0  0  0  0  0  0  0
   -4.1787    1.8546  -78.7127 O   0  0  0  0  0  0  0  0  0  0  0  0
   -5.6993    0.4488  -77.8413 O   0  0  0  0  0  0  0  0  0  0  0  0
  -14.3595    7.4685  -73.5701 C   0  0  0  0  0  0  0  0  0  0  0  0
  -12.8799    6.4806  -73.6031 S   0  0  0  0  0  6  0  0  0  0  0  0
  -11.8016    7.1990  -72.9525 O   0  0  0  0  0  0  0  0  0  0  0  0
  -13.2444    5.1372  -73.1989 O   0  0  0  0  0  0  0  0  0  0  0  0
  -12.4933    6.3710  -75.2622 N   0  0  0  0  0  0  0  0  0  0  0  0
  -13.1919    5.2567  -75.9904 C   0  0  0  0  0  0  0  0  0  0  0  0
  -12.4058    4.6210  -77.1665 C   0  0  0  0  0  0  0  0  0  0  0  0
   -8.6540    3.6006  -77.4308 C   0  0  2  0  0  0  0  0  0  0  0  0
   -7.9295    4.9456  -77.3204 C   0  0  1  0  0  0  0  0  0  0  0  0
   -6.8647    5.1366  -78.3930 C   0  0  0  0  0  0  0  0  0  0  0  0
   -5.7015    4.1836  -78.1487 C   0  0  0  0  0  0  0  0  0  0  0  0
   -6.2045    2.8001  -77.7208 C   0  0  1  0  0  0  0  0  0  0  0  0
   -7.6755    2.6435  -78.1889 C   0  0  0  0  0  0  0  0  0  0  0  0
  -11.1319    3.7675  -76.8757 C   0  0  2  0  0  0  0  0  0  0  0  0
  -10.0819    3.8091  -77.9915 C   0  0  0  0  0  0  0  0  0  0  0  0
   -8.8535    2.9152  -76.0645 C   0  0  0  0  0  0  0  0  0  0  0  0
   -9.8980    1.7878  -76.0671 C   0  0  0  0  0  0  0  0  0  0  0  0
  -11.2726    2.2702  -76.5617 C   0  0  1  0  0  0  0  0  0  0  0  0
  -10.5267    5.3980  -74.5107 O   0  0  0  0  0  0  0  0  0  0  0  0
  -11.0420    6.3466  -75.4422 C   0  0  0  0  0  0  0  0  0  0  0  0
  4  3  2  0
  5  3  1  0
  7  6  1  0
  8  7  2  0
  9  7  2  0
 10  7  1  0
 11 10  1  0
 12 11  1  0
 13 18  1  6
 13 14  1  0
 14 15  1  0
 14  2  1  6
 15 16  1  0
 16 17  1  0
 17 18  1  0
 17  3  1  6
 19 12  1  6
 19 23  1  0
 19 20  1  0
 21 22  1  0
 22 23  1  0
 13 20  1  0
 13 21  1  0
 23  1  1  1
 25 10  1  0
 25 24  1  0
A    1
 C1 
A    2
 F1 
A    3
 C2 
A    4
 O1 
A    5
 O2 
A    6
 C3 
A    7
 S1 
A    8
 O3 
A    9
 O4 
A   10
 N1 
A   11
 C4 
A   12
 C5 
A   13
 C6 
A   14
 C7 
A   15
 C8 
A   16
 C9 
A   17
 C10
A   18
 C11
A   19
 C12
A   20
 C13
A   21
 C14
A   22
 C15
A   23
 C16
A   24
 O5 
A   25
 C17
M  END
>  <IDX>  (1) 
1

>  <DDG>  (1) 
-0.014803802684062894

>  <RMSD>  (1) 
1.299019101091281

>  <original SMILES>  (1) 
C[C@@H]1CCC2(CC1CCN(CO)S(C)(=O)=O)C[C@@H](C(=O)O)CCC2F

>  <ref_mols>  (1) 
x0208_0A,x0176_0B

>  <ref_pdb>  (1) 
nsp13-x0208_0A_apo-desolv.pdb

>  <sa_score>  (1) 
5.1362475424148

>  <SuCOS_Score>  (1) 
0.4902992381525038

>  <SuCOS_FeatureMap_Score>  (1) 
0.22652645997101523

>  <SuCOS_Protrude_Score>  (1) 
0.7476535671729672

>  <o3da_score>  (1) 
120.35500954559328

>  <o3da_score_rel>  (1) 
0.4650790216767392

>  <o3da_align>  (1) 
0.53986740674705813

$$$$
fasgjsaxksspgdjr-2
     RDKit          3D

 25 26  0  0  0  0  0  0  0  0999 V2000
  -11.2251    3.3574  -74.4604 C   0  0  0  0  0  0  0  0  0  0  0  0
   -9.5494    5.5685  -78.7272 F   0  0  0  0  0  0  0  0  0  0  0  0
   -6.4461    1.0195  -79.6377 C   0  0  0  0  0  0  0  0  0  0  0  0
   -5.8166    1.0780  -80.6824 O   0  0  0  0  0  0  0  0  0  0  0  0
   -6.5891   -0.1465  -78.9672 O   0  0  0  0  0  0  0  0  0  0  0  0
  -12.8323    7.9272  -73.0135 C   0  0  0  0  0  0  0  0  0  0  0  0
  -12.5308    6.3097  -73.7014 S   0  0  0  0  0  6  0  0  0  0  0  0
  -11.1253    5.9961  -73.5675 O   0  0  0  0  0  0  0  0  0  0  0  0
  -13.5570    5.4013  -73.2047 O   0  0  0  0  0  0  0  0  0  0  0  0
  -12.8580    6.5217  -75.3672 N   0  0  0  0  0  0  0  0  0  0  0  0
  -13.5940    5.3717  -75.9902 C   0  0  0  0  0  0  0  0  0  0  0  0
  -12.8855    4.6720  -77.1681 C   0  0  0  0  0  0  0  0  0  0  0  0
   -9.3456    3.2938  -78.1725 C   0  0  2  0  0  0  0  0  0  0  0  0
   -8.6109    4.6275  -78.4110 C   0  0  1  0  0  0  0  0  0  0  0  0
   -7.6279    4.5926  -79.5775 C   0  0  0  0  0  0  0  0  0  0  0  0
   -6.5519    3.5322  -79.3695 C   0  0  0  0  0  0  0  0  0  0  0  0
   -7.1431    2.1842  -78.9467 C   0  0  1  0  0  0  0  0  0  0  0  0
   -8.6854    2.2315  -79.1040 C   0  0  0  0  0  0  0  0  0  0  0  0
  -11.5100    3.9823  -76.9411 C   0  0  2  0  0  0  0  0  0  0  0  0
  -10.8834    3.4857  -78.2657 C   0  0  0  0  0  0  0  0  0  0  0  0
   -9.1215    2.7466  -76.7589 C   0  0  0  0  0  0  0  0  0  0  0  0
  -10.2940    1.9216  -76.2425 C   0  0  0  0  0  0  0  0  0  0  0  0
  -11.4555    2.8515  -75.8872 C   0  0  1  0  0  0  0  0  0  0  0  0
  -10.5405    6.4778  -75.4117 O   0  0  0  0  0  0  0  0  0  0  0  0
  -11.6737    6.9621  -76.1169 C   0  0  0  0  0  0  0  0  0  0  0  0
  4  3  2  0
  5  3  1  0
  7  6  1  0
  8  7  2  0
  9  7  2  0
 10  7  1  0
 11 10  1  0
 12 11  1  0
 13 18  1  6
 13 14  1  0
 14 15  1  0
 14  2  1  6
 15 16  1  0
 16 17  1  0
 17 18  1  0
 17  3  1  6
 19 12  1  6
 19 23  1  0
 19 20  1  0
 21 22  1  0
 22 23  1  0
 13 20  1  0
 13 21  1  0
 23  1  1  1
 25 10  1  0
 25 24  1  0
A    1
 C1 
A    2
 F1 
A    3
 C2 
A    4
 O1 
A    5
 O2 
A    6
 C3 
A    7
 S1 
A    8
 O3 
A    9
 O4 
A   10
 N1 
A   11
 C4 
A   12
 C5 
A   13
 C6 
A   14
 C7 
A   15
 C8 
A   16
 C9 
A   17
 C10
A   18
 C11
A   19
 C12
A   20
 C13
A   21
 C14
A   22
 C15
A   23
 C16
A   24
 O5 
A   25
 C17
M  END
>  <IDX>  (2) 
2

>  <DDG>  (2) 
-0.77922621076975873

>  <RMSD>  (2) 
1.3453885900859026

>  <original SMILES>  (2) 
C[C@@H]1CCC2(CC1CCN(CO)S(C)(=O)=O)C[C@@H](C(=O)O)CCC2F

>  <ref_mols>  (2) 
x0208_0A,x0176_0B

>  <ref_pdb>  (2) 
nsp13-x0208_0A_apo-desolv.pdb

>  <sa_score>  (2) 
5.1362475424148

>  <SuCOS_Score>  (2) 
0.4697151290783529

>  <SuCOS_FeatureMap_Score>  (2) 
0.16815872848957214

>  <SuCOS_Protrude_Score>  (2) 
0.759460280644779

>  <o3da_score>  (2) 
104.27412550767195

>  <o3da_score_rel>  (2) 
0.40293884284836756

>  <o3da_align>  (2) 
0.39874274540291399

$$$$
fasgjsaxksspgdjr-3
     RDKit          3D

 25 26  0  0  0  0  0  0  0  0999 V2000
  -11.3830    3.1148  -73.9016 C   0  0  0  0  0  0  0  0  0  0  0  0
   -9.7553    5.4333  -78.2597 F   0  0  0  0  0  0  0  0  0  0  0  0
   -5.4861    1.7861  -78.0578 C   0  0  0  0  0  0  0  0  0  0  0  0
   -4.5128    1.9223  -78.7816 O   0  0  0  0  0  0  0  0  0  0  0  0
   -5.6816    0.6494  -77.3453 O   0  0  0  0  0  0  0  0  0  0  0  0
  -13.6162    7.5544  -73.0761 C   0  0  0  0  0  0  0  0  0  0  0  0
  -12.5727    6.2727  -73.7409 S   0  0  0  0  0  6  0  0  0  0  0  0
  -11.1870    6.6816  -73.6528 O   0  0  0  0  0  0  0  0  0  0  0  0
  -13.0135    4.9985  -73.2160 O   0  0  0  0  0  0  0  0  0  0  0  0
  -12.9987    6.2282  -75.3919 N   0  0  0  0  0  0  0  0  0  0  0  0
  -13.6659    4.9445  -75.7968 C   0  0  0  0  0  0  0  0  0  0  0  0
  -12.8750    4.0528  -76.7845 C   0  0  0  0  0  0  0  0  0  0  0  0
   -9.0855    3.3129  -77.4718 C   0  0  2  0  0  0  0  0  0  0  0  0
   -8.6493    4.7242  -77.8829 C   0  0  1  0  0  0  0  0  0  0  0  0
   -7.6793    4.7441  -79.0610 C   0  0  0  0  0  0  0  0  0  0  0  0
   -6.3565    4.0912  -78.6723 C   0  0  0  0  0  0  0  0  0  0  0  0
   -6.5886    2.8206  -77.8480 C   0  0  1  0  0  0  0  0  0  0  0  0
   -8.0413    2.3350  -78.1004 C   0  0  0  0  0  0  0  0  0  0  0  0
  -11.4260    3.5931  -76.4369 C   0  0  2  0  0  0  0  0  0  0  0  0
  -10.6180    3.1253  -77.6720 C   0  0  0  0  0  0  0  0  0  0  0  0
   -8.9043    3.0468  -75.9819 C   0  0  0  0  0  0  0  0  0  0  0  0
   -9.8470    1.9695  -75.4545 C   0  0  0  0  0  0  0  0  0  0  0  0
  -11.2548    2.5457  -75.3156 C   0  0  1  0  0  0  0  0  0  0  0  0
  -10.7453    6.1538  -75.3143 O   0  0  0  0  0  0  0  0  0  0  0  0
  -11.8070    6.5095  -76.1819 C   0  0  0  0  0  0  0  0  0  0  0  0
  4  3  2  0
  5  3  1  0
  7  6  1  0
  8  7  2  0
  9  7  2  0
 10  7  1  0
 11 10  1  0
 12 11  1  0
 13 18  1  6
 13 14  1  0
 14 15  1  0
 14  2  1  6
 15 16  1  0
 16 17  1  0
 17 18  1  0
 17  3  1  6
 19 12  1  6
 19 23  1  0
 19 20  1  0
 21 22  1  0
 22 23  1  0
 13 20  1  0
 13 21  1  0
 23  1  1  1
 25 10  1  0
 25 24  1  0
A    1
 C1 
A    2
 F1 
A    3
 C2 
A    4
 O1 
A    5
 O2 
A    6
 C3 
A    7
 S1 
A    8
 O3 
A    9
 O4 
A   10
 N1 
A   11
 C4 
A   12
 C5 
A   13
 C6 
A   14
 C7 
A   15
 C8 
A   16
 C9 
A   17
 C10
A   18
 C11
A   19
 C12
A   20
 C13
A   21
 C14
A   22
 C15
A   23
 C16
A   24
 O5 
A   25
 C17
M  END
>  <IDX>  (3) 
3

>  <DDG>  (3) 
-0.22332444723562128

>  <RMSD>  (3) 
1.0163888486532444

>  <original SMILES>  (3) 
C[C@@H]1CCC2(CC1CCN(CO)S(C)(=O)=O)C[C@@H](C(=O)O)CCC2F

>  <ref_mols>  (3) 
x0208_0A,x0176_0B

>  <ref_pdb>  (3) 
nsp13-x0208_0A_apo-desolv.pdb

>  <sa_score>  (3) 
5.1362475424148

>  <SuCOS_Score>  (3) 
0.5516541029040238

>  <SuCOS_FeatureMap_Score>  (3) 
0.28635545253992534

>  <SuCOS_Protrude_Score>  (3) 
0.8167045466216707

>  <o3da_score>  (3) 
125.62079899139921

>  <o3da_score_rel>  (3) 
0.48542722498840429

>  <o3da_align>  (3) 
0.44435650045644609

$$$$
ekcerglitkquqzqq-1
     RDKit          3D

 31 32  0  0  0  0  0  0  0  0999 V2000
  -11.9596    1.7238  -77.1184 C   0  0  0  0  0  0  0  0  0  0  0  0
  -10.0127    5.0320  -76.9372 F   0  0  0  0  0  0  0  0  0  0  0  0
   -5.7487    1.5970  -78.3739 C   0  0  0  0  0  0  0  0  0  0  0  0
   -4.5161    2.3085  -78.3725 O   0  0  0  0  0  0  0  0  0  0  0  0
   -5.5397    0.5942  -77.3979 O   0  0  0  0  0  0  0  0  0  0  0  0
   -6.5982    2.7642  -81.9050 F   0  0  0  0  0  0  0  0  0  0  0  0
   -5.9230    0.9854  -79.7781 C   0  0  0  0  0  0  0  0  0  0  0  0
  -15.1547    8.1268  -74.2296 C   0  0  0  0  0  0  0  0  0  0  0  0
  -13.8510    7.0248  -73.7018 S   0  0  0  0  0  6  0  0  0  0  0  0
  -12.9538    7.7568  -72.8370 O   0  0  0  0  0  0  0  0  0  0  0  0
  -14.4663    5.7967  -73.2427 O   0  0  0  0  0  0  0  0  0  0  0  0
  -13.0096    6.6819  -75.1353 N   0  0  0  0  0  0  0  0  0  0  0  0
  -13.6076    5.7729  -76.1723 C   0  0  0  0  0  0  0  0  0  0  0  0
  -13.1949    4.2914  -75.9873 C   0  0  0  0  0  0  0  0  0  0  0  0
   -8.9827    2.8977  -76.7279 C   0  0  0  0  0  0  0  0  0  0  0  0
   -9.0288    4.1898  -77.2559 C   0  0  0  0  0  0  0  0  0  0  0  0
   -8.0536    4.6464  -78.1341 C   0  0  0  0  0  0  0  0  0  0  0  0
   -6.9950    3.8246  -78.5008 C   0  0  0  0  0  0  0  0  0  0  0  0
   -6.8995    2.5237  -77.9930 C   0  0  0  0  0  0  0  0  0  0  0  0
   -7.9039    2.0827  -77.1115 C   0  0  0  0  0  0  0  0  0  0  0  0
   -7.5591    1.9575  -81.4328 C   0  0  0  0  0  0  0  0  0  0  0  0
   -7.2965    1.0669  -80.3919 C   0  0  0  0  0  0  0  0  0  0  0  0
   -8.3366    0.2449  -79.9325 C   0  0  0  0  0  0  0  0  0  0  0  0
   -9.6013    0.3186  -80.5126 C   0  0  0  0  0  0  0  0  0  0  0  0
   -9.8344    1.2101  -81.5513 C   0  0  0  0  0  0  0  0  0  0  0  0
   -8.8103    2.0317  -82.0072 C   0  0  0  0  0  0  0  0  0  0  0  0
  -10.0155    2.3247  -75.7646 C   0  0  0  0  0  0  0  0  0  0  0  0
  -11.4492    2.5775  -76.0411 N   0  0  0  0  0  0  0  0  0  0  0  0
  -11.7488    4.0084  -76.1816 N   0  0  0  0  0  0  0  0  0  0  0  0
  -11.0971    5.7244  -74.3218 O   0  0  0  0  0  0  0  0  0  0  0  0
  -11.5643    6.7922  -75.1200 C   0  0  0  0  0  0  0  0  0  0  0  0
  4  3  1  0
  5  3  1  0
  7  3  1  0
  9  8  1  0
 10  9  2  0
 11  9  2  0
 12  9  1  0
 13 12  1  0
 14 13  1  0
 15 20  2  0
 15 16  1  0
 16 17  2  0
 16  2  1  0
 17 18  1  0
 18 19  2  0
 19 20  1  0
 19  3  1  0
 21  6  1  0
 21 26  2  0
 21 22  1  0
 22 23  2  0
 22  7  1  0
 23 24  1  0
 24 25  2  0
 25 26  1  0
 27 28  1  0
 28 29  1  0
 15 27  1  0
 28  1  1  0
 14 29  1  0
 31 12  1  0
 31 30  1  0
A    1
 C1 
A    2
 F1 
A    3
 C2 
A    4
 O1 
A    5
 O2 
A    6
 F2 
A    7
 C3 
A    8
 C4 
A    9
 S1 
A   10
 O3 
A   11
 O4 
A   12
 N1 
A   13
 C5 
A   14
 C6 
A   15
 C7 
A   16
 C8 
A   17
 C9 
A   18
 C10
A   19
 C11
A   20
 C12
A   21
 C13
A   22
 C14
A   23
 C15
A   24
 C16
A   25
 C17
A   26
 C18
A   27
 C19
A   28
 N2 
A   29
 N3 
A   30
 O5 
A   31
 C20
M  END
>  <IDX>  (1) 
1

>  <DDG>  (1) 
-0.76671632696835501

>  <RMSD>  (1) 
1.4697207331099793

>  <original SMILES>  (1) 
CN(Cc1cc(C(O)(O)Cc2ccccc2F)ccc1F)NCCN(CO)S(C)(=O)=O

>  <ref_mols>  (1) 
x0208_0A,x0176_0B,x0212_0B

>  <ref_pdb>  (1) 
nsp13-x0208_0A_apo-desolv.pdb

>  <sa_score>  (1) 
3.324255351954047

>  <SuCOS_Score>  (1) 
0.4682492074944051

>  <SuCOS_FeatureMap_Score>  (1) 
0.1209671744381682

>  <SuCOS_Protrude_Score>  (1) 
0.7400077422383765

>  <o3da_score>  (1) 
111.40638385410413

>  <o3da_score_rel>  (1) 
0.29090563043550871

>  <o3da_align>  (1) 
0.48669942912380604

$$$$
ekcerglitkquqzqq-2
     RDKit          3D

 31 32  0  0  0  0  0  0  0  0999 V2000
  -11.7755    2.0237  -76.8690 C   0  0  0  0  0  0  0  0  0  0  0  0
   -9.9575    5.4917  -77.6370 F   0  0  0  0  0  0  0  0  0  0  0  0
   -5.8526    1.6758  -78.3523 C   0  0  0  0  0  0  0  0  0  0  0  0
   -4.5700    2.3004  -78.2860 O   0  0  0  0  0  0  0  0  0  0  0  0
   -5.8315    0.7314  -77.2973 O   0  0  0  0  0  0  0  0  0  0  0  0
   -7.0374    2.5712  -81.8690 F   0  0  0  0  0  0  0  0  0  0  0  0
   -5.9797    0.9970  -79.7244 C   0  0  0  0  0  0  0  0  0  0  0  0
  -15.4274    8.1846  -73.8478 C   0  0  0  0  0  0  0  0  0  0  0  0
  -14.1117    7.0457  -73.4625 S   0  0  0  0  0  6  0  0  0  0  0  0
  -13.0422    7.7813  -72.8376 O   0  0  0  0  0  0  0  0  0  0  0  0
  -14.7051    5.8867  -72.8308 O   0  0  0  0  0  0  0  0  0  0  0  0
  -13.5532    6.5304  -74.9700 N   0  0  0  0  0  0  0  0  0  0  0  0
  -14.1746    5.2638  -75.4757 C   0  0  0  0  0  0  0  0  0  0  0  0
  -13.3608    4.5858  -76.5972 C   0  0  0  0  0  0  0  0  0  0  0  0
   -8.9315    3.4826  -76.9579 C   0  0  0  0  0  0  0  0  0  0  0  0
   -8.9930    4.5800  -77.8025 C   0  0  0  0  0  0  0  0  0  0  0  0
   -8.0686    4.7585  -78.8238 C   0  0  0  0  0  0  0  0  0  0  0  0
   -7.0537    3.8259  -79.0053 C   0  0  0  0  0  0  0  0  0  0  0  0
   -6.9548    2.7055  -78.1687 C   0  0  0  0  0  0  0  0  0  0  0  0
   -7.9076    2.5508  -77.1514 C   0  0  0  0  0  0  0  0  0  0  0  0
   -7.8292    1.6415  -81.3171 C   0  0  0  0  0  0  0  0  0  0  0  0
   -7.3785    0.8450  -80.2662 C   0  0  0  0  0  0  0  0  0  0  0  0
   -8.2532   -0.1078  -79.7248 C   0  0  0  0  0  0  0  0  0  0  0  0
   -9.5430   -0.2564  -80.2356 C   0  0  0  0  0  0  0  0  0  0  0  0
   -9.9644    0.5432  -81.2883 C   0  0  0  0  0  0  0  0  0  0  0  0
   -9.1020    1.4908  -81.8212 C   0  0  0  0  0  0  0  0  0  0  0  0
   -9.9159    3.2865  -75.8388 C   0  0  0  0  0  0  0  0  0  0  0  0
  -11.3623    3.1993  -76.0894 N   0  0  0  0  0  0  0  0  0  0  0  0
  -11.8885    4.5316  -76.4285 N   0  0  0  0  0  0  0  0  0  0  0  0
  -11.5413    5.5089  -74.5807 O   0  0  0  0  0  0  0  0  0  0  0  0
  -12.1233    6.6550  -75.1731 C   0  0  0  0  0  0  0  0  0  0  0  0
  4  3  1  0
  5  3  1  0
  7  3  1  0
  9  8  1  0
 10  9  2  0
 11  9  2  0
 12  9  1  0
 13 12  1  0
 14 13  1  0
 15 20  2  0
 15 16  1  0
 16 17  2  0
 16  2  1  0
 17 18  1  0
 18 19  2  0
 19 20  1  0
 19  3  1  0
 21  6  1  0
 21 26  2  0
 21 22  1  0
 22 23  2  0
 22  7  1  0
 23 24  1  0
 24 25  2  0
 25 26  1  0
 27 28  1  0
 28 29  1  0
 15 27  1  0
 28  1  1  0
 14 29  1  0
 31 12  1  0
 31 30  1  0
A    1
 C1 
A    2
 F1 
A    3
 C2 
A    4
 O1 
A    5
 O2 
A    6
 F2 
A    7
 C3 
A    8
 C4 
A    9
 S1 
A   10
 O3 
A   11
 O4 
A   12
 N1 
A   13
 C5 
A   14
 C6 
A   15
 C7 
A   16
 C8 
A   17
 C9 
A   18
 C10
A   19
 C11
A   20
 C12
A   21
 C13
A   22
 C14
A   23
 C15
A   24
 C16
A   25
 C17
A   26
 C18
A   27
 C19
A   28
 N2 
A   29
 N3 
A   30
 O5 
A   31
 C20
M  END
>  <IDX>  (2) 
2

>  <DDG>  (2) 
-0.24119847895431779

>  <RMSD>  (2) 
1.2208775395864522

>  <original SMILES>  (2) 
CN(Cc1cc(C(O)(O)Cc2ccccc2F)ccc1F)NCCN(CO)S(C)(=O)=O

>  <ref_mols>  (2) 
x0208_0A,x0176_0B,x0212_0B

>  <ref_pdb>  (2) 
nsp13-x0208_0A_apo-desolv.pdb

>  <sa_score>  (2) 
3.324255351954047

>  <SuCOS_Score>  (2) 
0.5000728988027942

>  <SuCOS_FeatureMap_Score>  (2) 
0.14945590963360103

>  <SuCOS_Protrude_Score>  (2) 
0.7675516979181589

>  <o3da_score>  (2) 
114.15125385601421

>  <o3da_score_rel>  (2) 
0.298073066544151

>  <o3da_align>  (2) 
0.4255082398024303

$$$$
ekcerglitkquqzqq-3
     RDKit          3D

 31 32  0  0  0  0  0  0  0  0999 V2000
  -11.5136    1.7394  -77.1363 C   0  0  0  0  0  0  0  0  0  0  0  0
   -9.8899    5.2985  -78.0169 F   0  0  0  0  0  0  0  0  0  0  0  0
   -5.6644    1.6164  -78.4075 C   0  0  0  0  0  0  0  0  0  0  0  0
   -4.4240    2.3015  -78.2126 O   0  0  0  0  0  0  0  0  0  0  0  0
   -5.7255    0.5925  -77.4260 O   0  0  0  0  0  0  0  0  0  0  0  0
   -6.9228    2.3507  -82.1066 F   0  0  0  0  0  0  0  0  0  0  0  0
   -5.7137    1.0625  -79.8354 C   0  0  0  0  0  0  0  0  0  0  0  0
  -14.1204    6.5653  -72.7138 C   0  0  0  0  0  0  0  0  0  0  0  0
  -13.0734    5.5335  -73.7393 S   0  0  0  0  0  6  0  0  0  0  0  0
  -11.7501    5.4504  -73.1829 O   0  0  0  0  0  0  0  0  0  0  0  0
  -13.7777    4.3023  -74.0232 O   0  0  0  0  0  0  0  0  0  0  0  0
  -12.8948    6.4440  -75.1371 N   0  0  0  0  0  0  0  0  0  0  0  0
  -13.5315    5.9100  -76.3807 C   0  0  0  0  0  0  0  0  0  0  0  0
  -13.1673    4.4326  -76.6074 C   0  0  0  0  0  0  0  0  0  0  0  0
   -8.8238    3.3583  -77.1999 C   0  0  0  0  0  0  0  0  0  0  0  0
   -8.8917    4.4121  -78.0982 C   0  0  0  0  0  0  0  0  0  0  0  0
   -7.9382    4.5738  -79.0904 C   0  0  0  0  0  0  0  0  0  0  0  0
   -6.8941    3.6700  -79.1846 C   0  0  0  0  0  0  0  0  0  0  0  0
   -6.7986    2.5976  -78.2919 C   0  0  0  0  0  0  0  0  0  0  0  0
   -7.7722    2.4553  -77.3067 C   0  0  0  0  0  0  0  0  0  0  0  0
   -7.6110    1.3792  -81.4910 C   0  0  0  0  0  0  0  0  0  0  0  0
   -7.0858    0.7220  -80.3777 C   0  0  0  0  0  0  0  0  0  0  0  0
   -7.8618   -0.2779  -79.7719 C   0  0  0  0  0  0  0  0  0  0  0  0
   -9.1187   -0.6104  -80.2769 C   0  0  0  0  0  0  0  0  0  0  0  0
   -9.6138    0.0489  -81.3920 C   0  0  0  0  0  0  0  0  0  0  0  0
   -8.8543    1.0417  -81.9900 C   0  0  0  0  0  0  0  0  0  0  0  0
   -9.8277    3.1714  -76.1103 C   0  0  0  0  0  0  0  0  0  0  0  0
  -11.2376    2.9858  -76.4143 N   0  0  0  0  0  0  0  0  0  0  0  0
  -11.7542    4.2332  -76.9641 N   0  0  0  0  0  0  0  0  0  0  0  0
  -10.7246    6.0244  -74.5219 O   0  0  0  0  0  0  0  0  0  0  0  0
  -11.5267    6.9245  -75.2849 C   0  0  0  0  0  0  0  0  0  0  0  0
  4  3  1  0
  5  3  1  0
  7  3  1  0
  9  8  1  0
 10  9  2  0
 11  9  2  0
 12  9  1  0
 13 12  1  0
 14 13  1  0
 15 20  2  0
 15 16  1  0
 16 17  2  0
 16  2  1  0
 17 18  1  0
 18 19  2  0
 19 20  1  0
 19  3  1  0
 21  6  1  0
 21 26  2  0
 21 22  1  0
 22 23  2  0
 22  7  1  0
 23 24  1  0
 24 25  2  0
 25 26  1  0
 27 28  1  0
 28 29  1  0
 15 27  1  0
 28  1  1  0
 14 29  1  0
 31 12  1  0
 31 30  1  0
A    1
 C1 
A    2
 F1 
A    3
 C2 
A    4
 O1 
A    5
 O2 
A    6
 F2 
A    7
 C3 
A    8
 C4 
A    9
 S1 
A   10
 O3 
A   11
 O4 
A   12
 N1 
A   13
 C5 
A   14
 C6 
A   15
 C7 
A   16
 C8 
A   17
 C9 
A   18
 C10
A   19
 C11
A   20
 C12
A   21
 C13
A   22
 C14
A   23
 C15
A   24
 C16
A   25
 C17
A   26
 C18
A   27
 C19
A   28
 N2 
A   29
 N3 
A   30
 O5 
A   31
 C20
M  END
>  <IDX>  (3) 
3

>  <DDG>  (3) 
-1.6594818634053738

>  <RMSD>  (3) 
0.95166215994262682

>  <original SMILES>  (3) 
CN(Cc1cc(C(O)(O)Cc2ccccc2F)ccc1F)NCCN(CO)S(C)(=O)=O

>  <ref_mols>  (3) 
x0208_0A,x0176_0B,x0212_0B

>  <ref_pdb>  (3) 
nsp13-x0208_0A_apo-desolv.pdb

>  <sa_score>  (3) 
3.324255351954047

>  <SuCOS_Score>  (3) 
0.5488655500611289

>  <SuCOS_FeatureMap_Score>  (3) 
0.24437975714693638

>  <SuCOS_Protrude_Score>  (3) 
0.8077031174449523

>  <o3da_score>  (3) 
137.10299988588332

>  <o3da_score_rel>  (3) 
0.35800492966932496

>  <o3da_align>  (3) 
0.37685156076618714

$$$$
btwccofiedsnhkto-1
     RDKit          3D

 24 25  0  0  0  0  0  0  0  0999 V2000
  -11.8474    2.1625  -75.8434 C   0  0  0  0  0  0  0  0  0  0  0  0
  -10.0062    5.5724  -78.3640 F   0  0  0  0  0  0  0  0  0  0  0  0
   -5.9141    1.7687  -78.3229 C   0  0  0  0  0  0  0  0  0  0  0  0
   -4.6518    2.3387  -78.0089 O   0  0  0  0  0  0  0  0  0  0  0  0
   -6.1362    0.7082  -77.4078 O   0  0  0  0  0  0  0  0  0  0  0  0
   -7.0825    2.4499  -82.1366 F   0  0  0  0  0  0  0  0  0  0  0  0
   -5.9135    1.3248  -79.7849 C   0  0  0  0  0  0  0  0  0  0  0  0
   -9.0240    3.6655  -77.3760 C   0  0  0  0  0  0  0  0  0  0  0  0
   -9.0182    4.6613  -78.3369 C   0  0  0  0  0  0  0  0  0  0  0  0
   -8.0071    4.7389  -79.2808 C   0  0  0  0  0  0  0  0  0  0  0  0
   -6.9983    3.8025  -79.2602 C   0  0  0  0  0  0  0  0  0  0  0  0
   -6.9974    2.7866  -78.3025 C   0  0  0  0  0  0  0  0  0  0  0  0
   -8.0109    2.7262  -77.3622 C   0  0  0  0  0  0  0  0  0  0  0  0
   -7.7574    1.4717  -81.5146 C   0  0  0  0  0  0  0  0  0  0  0  0
   -7.2497    0.8893  -80.3519 C   0  0  0  0  0  0  0  0  0  0  0  0
   -8.0042   -0.1169  -79.7334 C   0  0  0  0  0  0  0  0  0  0  0  0
   -9.2219   -0.5298  -80.2787 C   0  0  0  0  0  0  0  0  0  0  0  0
   -9.6963    0.0539  -81.4444 C   0  0  0  0  0  0  0  0  0  0  0  0
   -8.9558    1.0501  -82.0510 C   0  0  0  0  0  0  0  0  0  0  0  0
  -10.0994    3.5932  -76.3596 C   0  0  0  0  0  0  0  0  0  0  0  0
  -11.3910    3.1598  -76.8326 N   0  0  0  0  0  0  0  0  0  0  0  0
  -11.1978    2.6122  -78.1550 N   0  0  0  0  0  0  0  0  0  0  0  0
  -11.8889    4.1831  -74.7980 O   0  0  0  0  0  0  0  0  0  0  0  0
  -11.9078    2.7415  -74.5354 O   0  0  0  0  0  0  0  0  0  0  0  0
  4  3  1  0
  5  3  1  0
  7  3  1  0
  8 13  2  0
  8  9  1  0
  9 10  2  0
  9  2  1  0
 10 11  1  0
 11 12  2  0
 12 13  1  0
 12  3  1  0
 14  6  1  0
 14 19  2  0
 14 15  1  0
 15 16  2  0
 15  7  1  0
 16 17  1  0
 17 18  2  0
 18 19  1  0
 20 21  1  0
 21 22  1  0
  8 20  1  0
 21  1  1  0
 24  1  1  0
 24 23  1  0
A    1
 C1 
A    2
 F1 
A    3
 C2 
A    4
 O1 
A    5
 O2 
A    6
 F2 
A    7
 C3 
A    8
 C4 
A    9
 C5 
A   10
 C6 
A   11
 C7 
A   12
 C8 
A   13
 C9 
A   14
 C10
A   15
 C11
A   16
 C12
A   17
 C13
A   18
 C14
A   19
 C15
A   20
 C16
A   21
 N1 
A   22
 N2 
A   23
 O3 
A   24
 O4 
M  END
>  <IDX>  (1) 
1

>  <DDG>  (1) 
-0.93429594367879376

>  <RMSD>  (1) 
0.82061882800089692

>  <original SMILES>  (1) 
NN(COO)Cc1cc(C(O)(O)Cc2ccccc2F)ccc1F

>  <ref_mols>  (1) 
x0208_0A,x0212_0B

>  <ref_pdb>  (1) 
nsp13-x0208_0A_apo-desolv.pdb

>  <sa_score>  (1) 
3.121362873920088

>  <SuCOS_Score>  (1) 
0.6443788311029659

>  <SuCOS_FeatureMap_Score>  (1) 
0.4131659110535058

>  <SuCOS_Protrude_Score>  (1) 
0.8496800802450671

>  <o3da_score>  (1) 
123.6505981283581

>  <o3da_score_rel>  (1) 
0.48581878881171653

>  <o3da_align>  (1) 
0.3961335002914913

$$$$
btwccofiedsnhkto-2
     RDKit          3D

 24 25  0  0  0  0  0  0  0  0999 V2000
  -11.9829    2.5065  -76.1465 C   0  0  0  0  0  0  0  0  0  0  0  0
   -9.8367    5.6699  -78.2772 F   0  0  0  0  0  0  0  0  0  0  0  0
   -5.8904    1.7365  -78.3491 C   0  0  0  0  0  0  0  0  0  0  0  0
   -4.5932    2.3112  -78.1978 O   0  0  0  0  0  0  0  0  0  0  0  0
   -6.0778    0.7609  -77.3340 O   0  0  0  0  0  0  0  0  0  0  0  0
   -7.2494    2.3989  -82.0938 F   0  0  0  0  0  0  0  0  0  0  0  0
   -6.0587    1.2016  -79.7727 C   0  0  0  0  0  0  0  0  0  0  0  0
   -8.8955    3.6877  -77.3802 C   0  0  0  0  0  0  0  0  0  0  0  0
   -8.8733    4.7306  -78.2938 C   0  0  0  0  0  0  0  0  0  0  0  0
   -7.8682    4.8144  -79.2344 C   0  0  0  0  0  0  0  0  0  0  0  0
   -6.8883    3.8441  -79.2435 C   0  0  0  0  0  0  0  0  0  0  0  0
   -6.9227    2.7952  -78.3185 C   0  0  0  0  0  0  0  0  0  0  0  0
   -7.9274    2.7277  -77.3918 C   0  0  0  0  0  0  0  0  0  0  0  0
   -7.9856    1.5169  -81.4021 C   0  0  0  0  0  0  0  0  0  0  0  0
   -7.4753    0.9085  -80.2511 C   0  0  0  0  0  0  0  0  0  0  0  0
   -8.3057    0.0091  -79.5645 C   0  0  0  0  0  0  0  0  0  0  0  0
   -9.5921   -0.2744  -80.0310 C   0  0  0  0  0  0  0  0  0  0  0  0
  -10.0632    0.3310  -81.1870 C   0  0  0  0  0  0  0  0  0  0  0  0
   -9.2516    1.2210  -81.8607 C   0  0  0  0  0  0  0  0  0  0  0  0
   -9.9542    3.5864  -76.3905 C   0  0  0  0  0  0  0  0  0  0  0  0
  -11.2213    3.3706  -77.0414 N   0  0  0  0  0  0  0  0  0  0  0  0
  -11.7904    4.7081  -77.1586 N   0  0  0  0  0  0  0  0  0  0  0  0
  -11.6555    4.5324  -75.1751 O   0  0  0  0  0  0  0  0  0  0  0  0
  -12.1519    3.1720  -74.9139 O   0  0  0  0  0  0  0  0  0  0  0  0
  4  3  1  0
  5  3  1  0
  7  3  1  0
  8 13  2  0
  8  9  1  0
  9 10  2  0
  9  2  1  0
 10 11  1  0
 11 12  2  0
 12 13  1  0
 12  3  1  0
 14  6  1  0
 14 19  2  0
 14 15  1  0
 15 16  2  0
 15  7  1  0
 16 17  1  0
 17 18  2  0
 18 19  1  0
 20 21  1  0
 21 22  1  0
  8 20  1  0
 21  1  1  0
 24  1  1  0
 24 23  1  0
A    1
 C1 
A    2
 F1 
A    3
 C2 
A    4
 O1 
A    5
 O2 
A    6
 F2 
A    7
 C3 
A    8
 C4 
A    9
 C5 
A   10
 C6 
A   11
 C7 
A   12
 C8 
A   13
 C9 
A   14
 C10
A   15
 C11
A   16
 C12
A   17
 C13
A   18
 C14
A   19
 C15
A   20
 C16
A   21
 N1 
A   22
 N2 
A   23
 O3 
A   24
 O4 
M  END
>  <IDX>  (2) 
2

>  <DDG>  (2) 
-0.25097427122015858

>  <RMSD>  (2) 
0.8132694350048103

>  <original SMILES>  (2) 
NN(COO)Cc1cc(C(O)(O)Cc2ccccc2F)ccc1F

>  <ref_mols>  (2) 
x0208_0A,x0212_0B

>  <ref_pdb>  (2) 
nsp13-x0208_0A_apo-desolv.pdb

>  <sa_score>  (2) 
3.121362873920088

>  <SuCOS_Score>  (2) 
0.6442840515932722

>  <SuCOS_FeatureMap_Score>  (2) 
0.4246042176308325

>  <SuCOS_Protrude_Score>  (2) 
0.8459165743285627

>  <o3da_score>  (2) 
123.7102041283629

>  <o3da_score_rel>  (2) 
0.48605297865929159

>  <o3da_align>  (2) 
0.44257627295418728

$$$$
btwccofiedsnhkto-3
     RDKit          3D

 24 25  0  0  0  0  0  0  0  0999 V2000
  -11.9800    2.1303  -76.3019 C   0  0  0  0  0  0  0  0  0  0  0  0
  -10.0043    5.5382  -78.3584 F   0  0  0  0  0  0  0  0  0  0  0  0
   -5.8973    1.7701  -78.3109 C   0  0  0  0  0  0  0  0  0  0  0  0
   -4.6183    2.3350  -78.0292 O   0  0  0  0  0  0  0  0  0  0  0  0
   -6.1325    0.7460  -77.3554 O   0  0  0  0  0  0  0  0  0  0  0  0
   -7.1045    2.4527  -82.1067 F   0  0  0  0  0  0  0  0  0  0  0  0
   -5.9356    1.2951  -79.7616 C   0  0  0  0  0  0  0  0  0  0  0  0
   -9.0121    3.6053  -77.4447 C   0  0  0  0  0  0  0  0  0  0  0  0
   -9.0008    4.6471  -78.3554 C   0  0  0  0  0  0  0  0  0  0  0  0
   -7.9680    4.7749  -79.2612 C   0  0  0  0  0  0  0  0  0  0  0  0
   -6.9490    3.8443  -79.2389 C   0  0  0  0  0  0  0  0  0  0  0  0
   -6.9710    2.7915  -78.3175 C   0  0  0  0  0  0  0  0  0  0  0  0
   -8.0056    2.6833  -77.4243 C   0  0  0  0  0  0  0  0  0  0  0  0
   -7.7906    1.4835  -81.4826 C   0  0  0  0  0  0  0  0  0  0  0  0
   -7.2877    0.8891  -80.3217 C   0  0  0  0  0  0  0  0  0  0  0  0
   -8.0598   -0.1033  -79.7030 C   0  0  0  0  0  0  0  0  0  0  0  0
   -9.2863   -0.4933  -80.2440 C   0  0  0  0  0  0  0  0  0  0  0  0
   -9.7520    0.0976  -81.4064 C   0  0  0  0  0  0  0  0  0  0  0  0
   -8.9983    1.0824  -82.0152 C   0  0  0  0  0  0  0  0  0  0  0  0
  -10.1017    3.4659  -76.4876 C   0  0  0  0  0  0  0  0  0  0  0  0
  -11.3536    3.1521  -77.1342 N   0  0  0  0  0  0  0  0  0  0  0  0
  -12.1114    4.4076  -77.1437 N   0  0  0  0  0  0  0  0  0  0  0  0
  -11.8388    4.1101  -75.2646 O   0  0  0  0  0  0  0  0  0  0  0  0
  -12.2115    2.7050  -75.0385 O   0  0  0  0  0  0  0  0  0  0  0  0
  4  3  1  0
  5  3  1  0
  7  3  1  0
  8 13  2  0
  8  9  1  0
  9 10  2  0
  9  2  1  0
 10 11  1  0
 11 12  2  0
 12 13  1  0
 12  3  1  0
 14  6  1  0
 14 19  2  0
 14 15  1  0
 15 16  2  0
 15  7  1  0
 16 17  1  0
 17 18  2  0
 18 19  1  0
 20 21  1  0
 21 22  1  0
  8 20  1  0
 21  1  1  0
 24  1  1  0
 24 23  1  0
A    1
 C1 
A    2
 F1 
A    3
 C2 
A    4
 O1 
A    5
 O2 
A    6
 F2 
A    7
 C3 
A    8
 C4 
A    9
 C5 
A   10
 C6 
A   11
 C7 
A   12
 C8 
A   13
 C9 
A   14
 C10
A   15
 C11
A   16
 C12
A   17
 C13
A   18
 C14
A   19
 C15
A   20
 C16
A   21
 N1 
A   22
 N2 
A   23
 O3 
A   24
 O4 
M  END
>  <IDX>  (3) 
3

>  <DDG>  (3) 
-1.1474280658953457

>  <RMSD>  (3) 
0.81050612207005812

>  <original SMILES>  (3) 
NN(COO)Cc1cc(C(O)(O)Cc2ccccc2F)ccc1F

>  <ref_mols>  (3) 
x0208_0A,x0212_0B

>  <ref_pdb>  (3) 
nsp13-x0208_0A_apo-desolv.pdb

>  <sa_score>  (3) 
3.121362873920088

>  <SuCOS_Score>  (3) 
0.6423506968643223

>  <SuCOS_FeatureMap_Score>  (3) 
0.41493894316316754

>  <SuCOS_Protrude_Score>  (3) 
0.8469532216302715

>  <o3da_score>  (3) 
124.37337414209944

>  <o3da_score_rel>  (3) 
0.48865854998467478

>  <o3da_align>  (3) 
0.37824915200685727

$$$$
ipuztritokrhqtho-1
     RDKit          3D

 22 23  0  0  0  0  0  0  0  0999 V2000
  -13.1582    7.4278  -72.6557 C   0  0  0  0  0  0  0  0  0  0  0  0
  -12.2712    6.1903  -73.5856 S   0  0  0  0  0  6  0  0  0  0  0  0
  -10.8493    6.4135  -73.6670 O   0  0  0  0  0  0  0  0  0  0  0  0
  -12.8031    4.9031  -73.2014 O   0  0  0  0  0  0  0  0  0  0  0  0
  -12.8538    6.4800  -75.1021 N   0  0  0  0  0  0  0  0  0  0  0  0
  -13.4753    5.3502  -75.7779 C   0  0  0  0  0  0  0  0  0  0  0  0
  -12.8774    5.2196  -77.1666 C   0  0  0  0  0  0  0  0  0  0  0  0
   -7.8019    2.9230  -81.9174 F   0  0  0  0  0  0  0  0  0  0  0  0
   -7.2963    2.4671  -79.1090 C   0  0  0  0  0  0  0  0  0  0  0  0
   -7.8921    2.4132  -77.7585 N   0  0  0  0  0  0  0  0  0  0  0  0
  -11.5776    4.4490  -77.2323 C   0  0  0  0  0  0  0  0  0  0  0  0
  -10.6890    4.7797  -78.2476 C   0  0  0  0  0  0  0  0  0  0  0  0
   -9.4859    4.1082  -78.3977 C   0  0  0  0  0  0  0  0  0  0  0  0
   -9.1069    3.0800  -77.5496 C   0  0  0  0  0  0  0  0  0  0  0  0
   -9.9935    2.7425  -76.4968 C   0  0  0  0  0  0  0  0  0  0  0  0
  -11.2243    3.4219  -76.3373 C   0  0  0  0  0  0  0  0  0  0  0  0
   -8.1430    1.7366  -81.4008 C   0  0  0  0  0  0  0  0  0  0  0  0
   -7.9270    1.4528  -80.0415 C   0  0  0  0  0  0  0  0  0  0  0  0
   -8.3163    0.1918  -79.5652 C   0  0  0  0  0  0  0  0  0  0  0  0
   -8.9056   -0.7513  -80.4125 C   0  0  0  0  0  0  0  0  0  0  0  0
   -9.1126   -0.4509  -81.7505 C   0  0  0  0  0  0  0  0  0  0  0  0
   -8.7252    0.7983  -82.2483 C   0  0  0  0  0  0  0  0  0  0  0  0
  2  1  1  0
  3  2  2  0
  4  2  2  0
  5  2  1  0
  6  5  1  0
  7  6  1  0
 10  9  1  0
 11  7  1  0
 11 16  2  0
 11 12  1  0
 12 13  2  0
 13 14  1  0
 14 15  2  0
 15 16  1  0
 17  8  1  0
 17 22  2  0
 17 18  1  0
 18 19  2  0
 18  9  1  0
 19 20  1  0
 20 21  2  0
 21 22  1  0
 10 14  1  0
A    1
 C1 
A    2
 S1 
A    3
 O1 
A    4
 O2 
A    5
 N1 
A    6
 C2 
A    7
 C3 
A    8
 F1 
A    9
 C4 
A   10
 N2 
A   11
 C5 
A   12
 C6 
A   13
 C7 
A   14
 C8 
A   15
 C9 
A   16
 C10
A   17
 C11
A   18
 C12
A   19
 C13
A   20
 C14
A   21
 C15
A   22
 C16
M  END
>  <IDX>  (1) 
1

>  <DDG>  (1) 
-2.719207827590842

>  <RMSD>  (1) 
0.79239622205514937

>  <original SMILES>  (1) 
CS(=O)(=O)NCCc1ccc(NCc2ccccc2F)cc1

>  <ref_mols>  (1) 
x0176_0B,x0212_0B

>  <ref_pdb>  (1) 
nsp13-x0208_0A_apo-desolv.pdb

>  <sa_score>  (1) 
1.8668973025961861

>  <SuCOS_Score>  (1) 
0.6559119053785805

>  <SuCOS_FeatureMap_Score>  (1) 
0.5059585733985551

>  <SuCOS_Protrude_Score>  (1) 
0.7917330667619169

>  <o3da_score>  (1) 
173.25405275396554

>  <o3da_score_rel>  (1) 
0.68581786668711409

>  <o3da_align>  (1) 
0.38526044595973069

$$$$
ipuztritokrhqtho-2
     RDKit          3D

 22 23  0  0  0  0  0  0  0  0999 V2000
  -13.4486    7.1870  -72.7226 C   0  0  0  0  0  0  0  0  0  0  0  0
  -12.5551    6.1202  -73.8399 S   0  0  0  0  0  6  0  0  0  0  0  0
  -11.1793    6.5269  -74.0173 O   0  0  0  0  0  0  0  0  0  0  0  0
  -12.8999    4.7554  -73.5089 O   0  0  0  0  0  0  0  0  0  0  0  0
  -13.3784    6.4761  -75.2407 N   0  0  0  0  0  0  0  0  0  0  0  0
  -12.7545    6.2814  -76.5429 C   0  0  0  0  0  0  0  0  0  0  0  0
  -12.8443    4.8225  -76.9674 C   0  0  0  0  0  0  0  0  0  0  0  0
   -7.7543    2.9099  -81.8556 F   0  0  0  0  0  0  0  0  0  0  0  0
   -7.1529    2.5061  -79.1138 C   0  0  0  0  0  0  0  0  0  0  0  0
   -7.6347    2.5832  -77.7356 N   0  0  0  0  0  0  0  0  0  0  0  0
  -11.4760    4.2282  -77.1506 C   0  0  0  0  0  0  0  0  0  0  0  0
  -10.6383    4.7072  -78.1566 C   0  0  0  0  0  0  0  0  0  0  0  0
   -9.3735    4.1615  -78.3385 C   0  0  0  0  0  0  0  0  0  0  0  0
   -8.9013    3.1303  -77.5344 C   0  0  0  0  0  0  0  0  0  0  0  0
   -9.7446    2.6515  -76.5156 C   0  0  0  0  0  0  0  0  0  0  0  0
  -11.0215    3.1952  -76.3253 C   0  0  0  0  0  0  0  0  0  0  0  0
   -8.2713    1.8267  -81.2566 C   0  0  0  0  0  0  0  0  0  0  0  0
   -8.0202    1.5706  -79.9191 C   0  0  0  0  0  0  0  0  0  0  0  0
   -8.5925    0.4213  -79.3491 C   0  0  0  0  0  0  0  0  0  0  0  0
   -9.3919   -0.4373  -80.1102 C   0  0  0  0  0  0  0  0  0  0  0  0
   -9.6244   -0.1568  -81.4476 C   0  0  0  0  0  0  0  0  0  0  0  0
   -9.0543    0.9789  -82.0049 C   0  0  0  0  0  0  0  0  0  0  0  0
  2  1  1  0
  3  2  2  0
  4  2  2  0
  5  2  1  0
  6  5  1  0
  7  6  1  0
 10  9  1  0
 11  7  1  0
 11 16  2  0
 11 12  1  0
 12 13  2  0
 13 14  1  0
 14 15  2  0
 15 16  1  0
 17  8  1  0
 17 22  2  0
 17 18  1  0
 18 19  2  0
 18  9  1  0
 19 20  1  0
 20 21  2  0
 21 22  1  0
 10 14  1  0
A    1
 C1 
A    2
 S1 
A    3
 O1 
A    4
 O2 
A    5
 N1 
A    6
 C2 
A    7
 C3 
A    8
 F1 
A    9
 C4 
A   10
 N2 
A   11
 C5 
A   12
 C6 
A   13
 C7 
A   14
 C8 
A   15
 C9 
A   16
 C10
A   17
 C11
A   18
 C12
A   19
 C13
A   20
 C14
A   21
 C15
A   22
 C16
M  END
>  <IDX>  (2) 
2

>  <DDG>  (2) 
-4.1404144551044624

>  <RMSD>  (2) 
0.62615192028191313

>  <original SMILES>  (2) 
CS(=O)(=O)NCCc1ccc(NCc2ccccc2F)cc1

>  <ref_mols>  (2) 
x0176_0B,x0212_0B

>  <ref_pdb>  (2) 
nsp13-x0208_0A_apo-desolv.pdb

>  <sa_score>  (2) 
1.8668973025961861

>  <SuCOS_Score>  (2) 
0.7375351634527211

>  <SuCOS_FeatureMap_Score>  (2) 
0.6159176735623964

>  <SuCOS_Protrude_Score>  (2) 
0.8516365663227713

>  <o3da_score>  (2) 
160.14749228668066

>  <o3da_score_rel>  (2) 
0.63393617505336242

>  <o3da_align>  (2) 
0.3393277016265408

$$$$
ipuztritokrhqtho-3
     RDKit          3D

 22 23  0  0  0  0  0  0  0  0999 V2000
  -13.1803    7.4227  -72.6532 C   0  0  0  0  0  0  0  0  0  0  0  0
  -12.2756    6.1894  -73.5739 S   0  0  0  0  0  6  0  0  0  0  0  0
  -10.8519    6.4131  -73.6168 O   0  0  0  0  0  0  0  0  0  0  0  0
  -12.8147    4.9008  -73.2065 O   0  0  0  0  0  0  0  0  0  0  0  0
  -12.8238    6.4814  -75.1039 N   0  0  0  0  0  0  0  0  0  0  0  0
  -13.4728    5.3623  -75.7744 C   0  0  0  0  0  0  0  0  0  0  0  0
  -12.8872    5.2149  -77.1671 C   0  0  0  0  0  0  0  0  0  0  0  0
   -7.8048    2.9207  -81.9208 F   0  0  0  0  0  0  0  0  0  0  0  0
   -7.3003    2.4734  -79.1118 C   0  0  0  0  0  0  0  0  0  0  0  0
   -7.8975    2.4163  -77.7612 N   0  0  0  0  0  0  0  0  0  0  0  0
  -11.5862    4.4461  -77.2346 C   0  0  0  0  0  0  0  0  0  0  0  0
  -10.6991    4.7771  -78.2506 C   0  0  0  0  0  0  0  0  0  0  0  0
   -9.4947    4.1081  -78.4016 C   0  0  0  0  0  0  0  0  0  0  0  0
   -9.1127    3.0815  -77.5525 C   0  0  0  0  0  0  0  0  0  0  0  0
   -9.9980    2.7428  -76.5000 C   0  0  0  0  0  0  0  0  0  0  0  0
  -11.2301    3.4196  -76.3396 C   0  0  0  0  0  0  0  0  0  0  0  0
   -8.1413    1.7349  -81.4026 C   0  0  0  0  0  0  0  0  0  0  0  0
   -7.9261    1.4538  -80.0429 C   0  0  0  0  0  0  0  0  0  0  0  0
   -8.3102    0.1924  -79.5631 C   0  0  0  0  0  0  0  0  0  0  0  0
   -8.8959   -0.7538  -80.4089 C   0  0  0  0  0  0  0  0  0  0  0  0
   -9.1022   -0.4581  -81.7473 C   0  0  0  0  0  0  0  0  0  0  0  0
   -8.7187    0.7926  -82.2479 C   0  0  0  0  0  0  0  0  0  0  0  0
  2  1  1  0
  3  2  2  0
  4  2  2  0
  5  2  1  0
  6  5  1  0
  7  6  1  0
 10  9  1  0
 11  7  1  0
 11 16  2  0
 11 12  1  0
 12 13  2  0
 13 14  1  0
 14 15  2  0
 15 16  1  0
 17  8  1  0
 17 22  2  0
 17 18  1  0
 18 19  2  0
 18  9  1  0
 19 20  1  0
 20 21  2  0
 21 22  1  0
 10 14  1  0
A    1
 C1 
A    2
 S1 
A    3
 O1 
A    4
 O2 
A    5
 N1 
A    6
 C2 
A    7
 C3 
A    8
 F1 
A    9
 C4 
A   10
 N2 
A   11
 C5 
A   12
 C6 
A   13
 C7 
A   14
 C8 
A   15
 C9 
A   16
 C10
A   17
 C11
A   18
 C12
A   19
 C13
A   20
 C14
A   21
 C15
A   22
 C16
M  END
>  <IDX>  (3) 
3

>  <DDG>  (3) 
-2.7389323352338146

>  <RMSD>  (3) 
0.78860544345987482

>  <original SMILES>  (3) 
CS(=O)(=O)NCCc1ccc(NCc2ccccc2F)cc1

>  <ref_mols>  (3) 
x0176_0B,x0212_0B

>  <ref_pdb>  (3) 
nsp13-x0208_0A_apo-desolv.pdb

>  <sa_score>  (3) 
1.8668973025961861

>  <SuCOS_Score>  (3) 
0.6587306720376759

>  <SuCOS_FeatureMap_Score>  (3) 
0.5092582691817309

>  <SuCOS_Protrude_Score>  (3) 
0.7934312990530173

>  <o3da_score>  (3) 
173.19156848520473

>  <o3da_score_rel>  (3) 
0.68557052570303967

>  <o3da_align>  (3) 
0.38742005643966354

$$$$
