ver_1.2
     RDKit          2D

  1  0  0  0  0  0  0  0  0  0999 V2000
    0.0000    0.0000    0.0000 C   0  0  0  0  0  0  0  0  0  0  0  0
M  END
>  <submitter_name>  (1) 
bvh64415

>  <submitter_email>  (1) 
warren.thompson@diamond.ac.uk

>  <submitter_institution>  (1) 
Diamond Light Source

>  <generation_date>  (1) 
2023-06-15

>  <method>  (1) 
sq2-instance-2722d679-c19f-43fc-9a09-0d94e5845935

>  <ref_url>  (1) 
https://data-manager-ui.xchem.diamond.ac.uk/data-manager-ui/data-manager-ui/results/instance/instance-2722d679-c19f-43fc-9a09-0d94e5845935

>  <IDX>  (1)
Molecule index

>  <DDG>  (1)
Delta deta G

>  <RMSD>  (1)
RMSD from input fragments

>  <ref_mols>  (1)
Input IDs

>  <original SMILES>  (1)
Molecule SMILES

>  <ref_pdb>  (1)
PDB file used

$$$$
qcnkifckygpgtgnh-1
     RDKit          3D

 22 24  0  0  0  0  0  0  0  0999 V2000
   44.8530    8.0660   15.3250 N   0  0  0  0  0  0  0  0  0  0  0  0
   43.8030   12.5310   14.1570 O   0  0  0  0  0  0  0  0  0  0  0  0
   44.9790   13.3180   14.0590 C   0  0  0  0  0  0  0  0  0  0  0  0
   44.3950   10.0580   13.2910 C   0  0  0  0  0  0  0  0  0  0  0  0
   44.4680    9.3500   15.7090 C   0  0  0  0  0  0  0  0  0  0  0  0
   44.2820    9.6340   17.0650 C   0  0  0  0  0  0  0  0  0  0  0  0
   43.9120   10.9120   17.4800 C   0  0  0  0  0  0  0  0  0  0  0  0
   43.7400   11.9220   16.5400 C   0  0  0  0  0  0  0  0  0  0  0  0
   43.9180   11.6430   15.1780 C   0  0  0  0  0  0  0  0  0  0  0  0
   44.2620   10.3570   14.7650 C   0  0  0  0  0  0  0  0  0  0  0  0
   44.5870   14.6700   11.9750 C   0  0  0  0  0  0  0  0  0  0  0  0
   44.9350   15.0530   10.6930 C   0  0  0  0  0  0  0  0  0  0  0  0
   46.0400   14.5010   10.0580 C   0  0  0  0  0  0  0  0  0  0  0  0
   46.8060   13.5500   10.7170 C   0  0  0  0  0  0  0  0  0  0  0  0
   46.4640   13.1570   12.0120 C   0  0  0  0  0  0  0  0  0  0  0  0
   45.3430   13.7220   12.6550 C   0  0  0  0  0  0  0  0  0  0  0  0
   44.4010    7.7030   12.3590 C   0  0  0  0  0  0  0  0  0  0  0  0
   43.5450    6.4810   12.1280 C   0  0  0  0  0  0  0  0  0  0  0  0
   42.5240    6.7350   11.1710 O   0  0  0  0  0  0  0  0  0  0  0  0
   42.3070    8.1050   10.8230 C   0  0  0  0  0  0  0  0  0  0  0  0
   42.3610    9.0950   11.9880 C   0  0  0  0  0  0  0  0  0  0  0  0
   43.5410    8.8130   12.9440 C   0  0  0  0  0  0  0  0  0  0  0  0
  3  2  1  0
  5  1  1  0
  5 10  2  0
  5  6  1  0
  6  7  2  0
  7  8  1  0
  8  9  2  0
  9 10  1  0
  9  2  1  0
 11 16  2  0
 11 12  1  0
 12 13  2  0
 13 14  1  0
 14 15  2  0
 15 16  1  0
 16  3  1  0
 17 22  1  0
 17 18  1  0
 18 19  1  0
 19 20  1  0
 20 21  1  0
 21 22  1  0
 22  4  1  0
 10  4  1  0
A    1
 N1 
A    2
 O1 
A    3
 C1 
A    4
 C2 
A    5
 C3 
A    6
 C4 
A    7
 C5 
A    8
 C6 
A    9
 C7 
A   10
 C8 
A   11
 C9 
A   12
 C10
A   13
 C11
A   14
 C12
A   15
 C13
A   16
 C14
A   17
 C15
A   18
 C16
A   19
 O2 
A   20
 C17
A   21
 C18
A   22
 C19
M  END
>  <IDX>  (1) 
1

>  <DDG>  (1) 
-11.812517642461774

>  <RMSD>  (1) 
0.53089850939019123

>  <original SMILES>  (1) 
Nc1cccc(OCc2ccccc2)c1CC1CCOCC1

>  <ref_mols>  (1) 
x1147_0A,x1154_0A

>  <ref_pdb>  (1) 
x1147_0A

$$$$
qcnkifckygpgtgnh-2
     RDKit          3D

 22 24  0  0  0  0  0  0  0  0999 V2000
   44.9040    8.0900   15.3770 N   0  0  0  0  0  0  0  0  0  0  0  0
   43.7730   12.5200   14.1360 O   0  0  0  0  0  0  0  0  0  0  0  0
   44.9400   13.3240   14.0510 C   0  0  0  0  0  0  0  0  0  0  0  0
   44.4630   10.0620   13.3050 C   0  0  0  0  0  0  0  0  0  0  0  0
   44.4710    9.3640   15.7330 C   0  0  0  0  0  0  0  0  0  0  0  0
   44.2340    9.6550   17.0760 C   0  0  0  0  0  0  0  0  0  0  0  0
   43.8170   10.9240   17.4730 C   0  0  0  0  0  0  0  0  0  0  0  0
   43.6470   11.9220   16.5190 C   0  0  0  0  0  0  0  0  0  0  0  0
   43.8780   11.6380   15.1680 C   0  0  0  0  0  0  0  0  0  0  0  0
   44.2700   10.3560   14.7740 C   0  0  0  0  0  0  0  0  0  0  0  0
   44.6690   14.5990   11.9040 C   0  0  0  0  0  0  0  0  0  0  0  0
   45.0740   14.9120   10.6160 C   0  0  0  0  0  0  0  0  0  0  0  0
   46.1710   14.2940   10.0410 C   0  0  0  0  0  0  0  0  0  0  0  0
   46.8790   13.3430   10.7600 C   0  0  0  0  0  0  0  0  0  0  0  0
   46.4810   13.0190   12.0600 C   0  0  0  0  0  0  0  0  0  0  0  0
   45.3670   13.6510   12.6430 C   0  0  0  0  0  0  0  0  0  0  0  0
   44.2140    7.6400   12.5920 C   0  0  0  0  0  0  0  0  0  0  0  0
   43.3080    6.6210   11.9350 C   0  0  0  0  0  0  0  0  0  0  0  0
   42.8800    7.1040   10.6700 O   0  0  0  0  0  0  0  0  0  0  0  0
   42.0520    8.2630   10.7810 C   0  0  0  0  0  0  0  0  0  0  0  0
   42.7140    9.4090   11.5480 C   0  0  0  0  0  0  0  0  0  0  0  0
   43.4740    8.9640   12.8240 C   0  0  0  0  0  0  0  0  0  0  0  0
  3  2  1  0
  5  1  1  0
  5 10  2  0
  5  6  1  0
  6  7  2  0
  7  8  1  0
  8  9  2  0
  9 10  1  0
  9  2  1  0
 11 16  2  0
 11 12  1  0
 12 13  2  0
 13 14  1  0
 14 15  2  0
 15 16  1  0
 16  3  1  0
 17 22  1  0
 17 18  1  0
 18 19  1  0
 19 20  1  0
 20 21  1  0
 21 22  1  0
 22  4  1  0
 10  4  1  0
A    1
 N1 
A    2
 O1 
A    3
 C1 
A    4
 C2 
A    5
 C3 
A    6
 C4 
A    7
 C5 
A    8
 C6 
A    9
 C7 
A   10
 C8 
A   11
 C9 
A   12
 C10
A   13
 C11
A   14
 C12
A   15
 C13
A   16
 C14
A   17
 C15
A   18
 C16
A   19
 O2 
A   20
 C17
A   21
 C18
A   22
 C19
M  END
>  <IDX>  (2) 
2

>  <DDG>  (2) 
-11.868532585446344

>  <RMSD>  (2) 
0.52287487639361274

>  <original SMILES>  (2) 
Nc1cccc(OCc2ccccc2)c1CC1CCOCC1

>  <ref_mols>  (2) 
x1147_0A,x1154_0A

>  <ref_pdb>  (2) 
x1147_0A

$$$$
