ver_1.2
     RDKit          3D

 1  0   0  0  0  0  0  0  0  0999 V2000
   -3.1578   -7.6457    2.9087 N   0  0  0  0  0  0  0  0  0  0  0  0
M  END
>  <ref_url>  (1) 
https://www.notion.so/asapdiscovery/d68-STRIFE-compounds

>  <submitter_name>  (1) 
Lucy Vost

>  <submitter_email>  (1) 
lucy.vost@gtc.ox.ac.uk

>  <submitter_institution>  (1) 
University of Oxford

>  <generation_date>  (1) 
2023-08-28

>  <method>  (1) 
STRIFE - fragment elaboration new frags

>  <ref_mols>  (1) 
x1084

>  <ref_pdb>  (1) 
d68/D68EV3CPROA_apo.pdb

>  <original SMILES>  (1) 
CS(=O)(=O)Nc1ccc(CN)cc1

$$$$
ver_1.2
     RDKit          3D

 18 19  0  0  0  0  0  0  0  0999 V2000
   -3.1578   -7.6457    2.9087 N   0  0  0  0  0  0  0  0  0  0  0  0
   -3.0561   -8.5914    1.8028 C   0  0  0  0  0  0  0  0  0  0  0  0
   -3.8532   -8.0777    0.6471 C   0  0  0  0  0  0  0  0  0  0  0  0
   -3.1934   -7.6652   -0.5177 C   0  0  0  0  0  0  0  0  0  0  0  0
   -3.8922   -6.9938   -1.5175 C   0  0  0  0  0  0  0  0  0  0  0  0
   -5.2581   -6.7307   -1.3679 C   0  0  0  0  0  0  0  0  0  0  0  0
   -5.9008   -5.8841   -2.3287 N   0  0  0  0  0  0  0  0  0  0  0  0
   -6.7772   -6.4547   -3.7088 S   0  0  0  0  0  0  0  0  0  0  0  0
   -5.8762   -7.3717   -4.4820 O   0  0  0  0  0  0  0  0  0  0  0  0
   -8.0136   -7.1991   -3.3006 O   0  0  0  0  0  0  0  0  0  0  0  0
   -7.2605   -5.0487   -4.7008 C   0  0  0  0  0  0  0  0  0  0  0  0
   -7.8652   -5.4340   -6.0600 C   0  0  0  0  0  0  0  0  0  0  0  0
   -7.0710   -6.5018   -6.8161 C   0  0  0  0  0  0  0  0  0  0  0  0
   -6.9649   -5.9526   -8.2124 C   0  0  0  0  0  0  0  0  0  0  0  0
   -7.9114   -4.7711   -8.2046 C   0  0  0  0  0  0  0  0  0  0  0  0
   -8.0130   -4.3021   -6.8846 O   0  0  0  0  0  0  0  0  0  0  0  0
   -5.9407   -7.2728   -0.2619 C   0  0  0  0  0  0  0  0  0  0  0  0
   -5.2361   -7.9019    0.7596 C   0  0  0  0  0  0  0  0  0  0  0  0
  1  2  1  0
  2  3  1  0
  3  4  2  0
  4  5  1  0
  5  6  2  0
  6  7  1  0
  7  8  1  0
  8  9  2  0
  8 10  2  0
  8 11  1  0
 11 12  1  0
 12 13  1  0
 13 14  1  0
 14 15  1  0
 15 16  1  0
  6 17  1  0
 17 18  2  0
 18  3  1  0
 16 12  1  0
M  END
>  <ref_url>  (1) 
 https://www.notion.so/asapdiscovery/d68-STRIFE-compounds

>  <submitter_name>  (1) 
Lucy Vost

>  <submitter_email>  (1) 
lucy.vost@gtc.ox.ac.uk

>  <submitter_institution>  (1) 
University of Oxford

>  <generation_date>  (1) 
2023-08-28

>  <method>  (1) 
STRIFE - fragment elaboration new frags

>  <ref_mols>  (1) 
x1084

>  <ref_pdb>  (1) 
d68/D68EV3CPROA_apo.pdb

>  <original SMILES>  (1) 
CS(=O)(=O)Nc1ccc(CN)cc1

$$$$
ver_1.2
     RDKit          3D

 18 19  0  0  0  0  0  0  0  0999 V2000
   -3.1578   -7.6457    2.9087 C   0  0  0  0  0  0  0  0  0  0  0  0
   -3.0561   -8.5914    1.8028 C   0  0  0  0  0  0  0  0  0  0  0  0
   -3.8532   -8.0777    0.6471 C   0  0  0  0  0  0  0  0  0  0  0  0
   -3.1934   -7.6652   -0.5177 C   0  0  0  0  0  0  0  0  0  0  0  0
   -3.8922   -6.9938   -1.5175 C   0  0  0  0  0  0  0  0  0  0  0  0
   -5.2581   -6.7307   -1.3679 C   0  0  0  0  0  0  0  0  0  0  0  0
   -5.9008   -5.8841   -2.3287 N   0  0  0  0  0  0  0  0  0  0  0  0
   -6.7772   -6.4547   -3.7088 S   0  0  0  0  0  0  0  0  0  0  0  0
   -5.8762   -7.3717   -4.4820 O   0  0  0  0  0  0  0  0  0  0  0  0
   -8.0136   -7.1991   -3.3006 O   0  0  0  0  0  0  0  0  0  0  0  0
   -7.2605   -5.0487   -4.7008 C   0  0  0  0  0  0  0  0  0  0  0  0
   -7.8652   -5.4340   -6.0600 C   0  0  0  0  0  0  0  0  0  0  0  0
   -7.0710   -6.5018   -6.8161 C   0  0  0  0  0  0  0  0  0  0  0  0
   -6.9649   -5.9526   -8.2124 C   0  0  0  0  0  0  0  0  0  0  0  0
   -7.9114   -4.7711   -8.2046 C   0  0  0  0  0  0  0  0  0  0  0  0
   -8.0130   -4.3021   -6.8846 O   0  0  0  0  0  0  0  0  0  0  0  0
   -5.9407   -7.2728   -0.2619 C   0  0  0  0  0  0  0  0  0  0  0  0
   -5.2361   -7.9019    0.7596 C   0  0  0  0  0  0  0  0  0  0  0  0
  1  2  1  0
  2  3  1  0
  3  4  2  0
  4  5  1  0
  5  6  2  0
  6  7  1  0
  7  8  1  0
  8  9  2  0
  8 10  2  0
  8 11  1  0
 11 12  1  0
 12 13  1  0
 13 14  1  0
 14 15  1  0
 15 16  1  0
  6 17  1  0
 17 18  2  0
 18  3  1  0
 16 12  1  0
M  END
>  <ref_url>  (2) 
https://www.notion.so/asapdiscovery/d68-STRIFE-compounds

>  <submitter_name>  (2) 
Lucy Vost

>  <submitter_email>  (2) 
lucy.vost@gtc.ox.ac.uk

>  <submitter_institution>  (2) 
University of Oxford

>  <generation_date>  (2) 
2023-08-28

>  <method>  (2) 
STRIFE - fragment elaboration new frags

>  <ref_mols>  (2) 
x1084

>  <ref_pdb>  (2) 
d68/D68EV3CPROA_apo.pdb

>  <original SMILES>  (2) 
CS(=O)(=O)Nc1ccc(CN)cc1

$$$$
ver_1.2
     RDKit          3D

 18 19  0  0  0  0  0  0  0  0999 V2000
   -3.1578   -7.6457    2.9087 N   0  0  0  0  0  0  0  0  0  0  0  0
   -3.0561   -8.5914    1.8028 C   0  0  0  0  0  0  0  0  0  0  0  0
   -3.8532   -8.0777    0.6471 C   0  0  0  0  0  0  0  0  0  0  0  0
   -3.1934   -7.6652   -0.5177 C   0  0  0  0  0  0  0  0  0  0  0  0
   -3.8922   -6.9938   -1.5175 C   0  0  0  0  0  0  0  0  0  0  0  0
   -5.2581   -6.7307   -1.3679 C   0  0  0  0  0  0  0  0  0  0  0  0
   -5.9008   -5.8841   -2.3287 N   0  0  0  0  0  0  0  0  0  0  0  0
   -6.7772   -6.4547   -3.7088 S   0  0  0  0  0  0  0  0  0  0  0  0
   -5.8762   -7.3717   -4.4820 O   0  0  0  0  0  0  0  0  0  0  0  0
   -8.0136   -7.1991   -3.3006 O   0  0  0  0  0  0  0  0  0  0  0  0
   -7.2605   -5.0487   -4.7008 C   0  0  0  0  0  0  0  0  0  0  0  0
   -7.8652   -5.4340   -6.0600 C   0  0  0  0  0  0  0  0  0  0  0  0
   -7.0710   -6.5018   -6.8161 C   0  0  0  0  0  0  0  0  0  0  0  0
   -6.9649   -5.9526   -8.2124 C   0  0  0  0  0  0  0  0  0  0  0  0
   -7.9114   -4.7711   -8.2046 C   0  0  0  0  0  0  0  0  0  0  0  0
   -8.0130   -4.3021   -6.8846 O   0  0  0  0  0  0  0  0  0  0  0  0
   -5.9407   -7.2728   -0.2619 C   0  0  0  0  0  0  0  0  0  0  0  0
   -5.2361   -7.9019    0.7596 C   0  0  0  0  0  0  0  0  0  0  0  0
  1  2  3  0
  2  3  1  0
  3  4  2  0
  4  5  1  0
  5  6  2  0
  6  7  1  0
  7  8  1  0
  8  9  2  0
  8 10  2  0
  8 11  1  0
 11 12  1  0
 12 13  1  0
 13 14  1  0
 14 15  1  0
 15 16  1  0
  6 17  1  0
 17 18  2  0
 18  3  1  0
 16 12  1  0
M  END
>  <ref_url>  (3) 
 https://www.notion.so/asapdiscovery/d68-STRIFE-compounds

>  <submitter_name>  (3) 
Lucy Vost

>  <submitter_email>  (3) 
lucy.vost@gtc.ox.ac.uk

>  <submitter_institution>  (3) 
University of Oxford

>  <generation_date>  (3) 
2023-08-28

>  <method>  (3) 
STRIFE - fragment elaboration new frags

>  <ref_mols>  (3) 
x1084

>  <ref_pdb>  (3) 
d68/D68EV3CPROA_apo.pdb

>  <original SMILES>  (3) 
CS(=O)(=O)Nc1ccc(CN)cc1

$$$$
ver_1.2
     RDKit          3D

 18 19  0  0  0  0  0  0  0  0999 V2000
   -3.1578   -7.6457    2.9087 C   0  0  0  0  0  0  0  0  0  0  0  0
   -3.0561   -8.5914    1.8028 C   0  0  0  0  0  0  0  0  0  0  0  0
   -3.8532   -8.0777    0.6471 C   0  0  0  0  0  0  0  0  0  0  0  0
   -3.1934   -7.6652   -0.5177 C   0  0  0  0  0  0  0  0  0  0  0  0
   -3.8922   -6.9938   -1.5175 C   0  0  0  0  0  0  0  0  0  0  0  0
   -5.2581   -6.7307   -1.3679 C   0  0  0  0  0  0  0  0  0  0  0  0
   -5.9008   -5.8841   -2.3287 N   0  0  0  0  0  0  0  0  0  0  0  0
   -6.7772   -6.4547   -3.7088 S   0  0  0  0  0  0  0  0  0  0  0  0
   -5.8762   -7.3717   -4.4820 O   0  0  0  0  0  0  0  0  0  0  0  0
   -8.0136   -7.1991   -3.3006 O   0  0  0  0  0  0  0  0  0  0  0  0
   -7.2605   -5.0487   -4.7008 C   0  0  0  0  0  0  0  0  0  0  0  0
   -7.8652   -5.4340   -6.0600 C   0  0  0  0  0  0  0  0  0  0  0  0
   -7.0710   -6.5018   -6.8161 C   0  0  0  0  0  0  0  0  0  0  0  0
   -6.9649   -5.9526   -8.2124 C   0  0  0  0  0  0  0  0  0  0  0  0
   -7.9114   -4.7711   -8.2046 C   0  0  0  0  0  0  0  0  0  0  0  0
   -8.0130   -4.3021   -6.8846 O   0  0  0  0  0  0  0  0  0  0  0  0
   -5.9407   -7.2728   -0.2619 C   0  0  0  0  0  0  0  0  0  0  0  0
   -5.2361   -7.9019    0.7596 C   0  0  0  0  0  0  0  0  0  0  0  0
  1  2  3  0
  2  3  1  0
  3  4  2  0
  4  5  1  0
  5  6  2  0
  6  7  1  0
  7  8  1  0
  8  9  2  0
  8 10  2  0
  8 11  1  0
 11 12  1  0
 12 13  1  0
 13 14  1  0
 14 15  1  0
 15 16  1  0
  6 17  1  0
 17 18  2  0
 18  3  1  0
 16 12  1  0
M  END
>  <ref_url>  (4) 
 https://www.notion.so/asapdiscovery/d68-STRIFE-compounds

>  <submitter_name>  (4) 
Lucy Vost

>  <submitter_email>  (4) 
lucy.vost@gtc.ox.ac.uk

>  <submitter_institution>  (4) 
University of Oxford

>  <generation_date>  (4) 
2023-08-28

>  <method>  (4) 
STRIFE - fragment elaboration new frags

>  <ref_mols>  (4) 
x1084

>  <ref_pdb>  (4) 
d68/D68EV3CPROA_apo.pdb

>  <original SMILES>  (4) 
CS(=O)(=O)Nc1ccc(CN)cc1

$$$$
ver_1.2
     RDKit          3D

 18 19  0  0  0  0  0  0  0  0999 V2000
   -3.1578   -7.6457    2.9087 C   0  0  0  0  0  0  0  0  0  0  0  0
   -3.0561   -8.5914    1.8028 C   0  0  0  0  0  0  0  0  0  0  0  0
   -3.8532   -8.0777    0.6471 C   0  0  0  0  0  0  0  0  0  0  0  0
   -3.1934   -7.6652   -0.5177 C   0  0  0  0  0  0  0  0  0  0  0  0
   -3.8922   -6.9938   -1.5175 C   0  0  0  0  0  0  0  0  0  0  0  0
   -5.2581   -6.7307   -1.3679 C   0  0  0  0  0  0  0  0  0  0  0  0
   -5.9008   -5.8841   -2.3287 C   0  0  0  0  0  0  0  0  0  0  0  0
   -6.7772   -6.4547   -3.7088 S   0  0  0  0  0  0  0  0  0  0  0  0
   -5.8762   -7.3717   -4.4820 O   0  0  0  0  0  0  0  0  0  0  0  0
   -8.0136   -7.1991   -3.3006 O   0  0  0  0  0  0  0  0  0  0  0  0
   -7.2605   -5.0487   -4.7008 C   0  0  0  0  0  0  0  0  0  0  0  0
   -7.8652   -5.4340   -6.0600 C   0  0  0  0  0  0  0  0  0  0  0  0
   -7.0710   -6.5018   -6.8161 C   0  0  0  0  0  0  0  0  0  0  0  0
   -6.9649   -5.9526   -8.2124 C   0  0  0  0  0  0  0  0  0  0  0  0
   -7.9114   -4.7711   -8.2046 C   0  0  0  0  0  0  0  0  0  0  0  0
   -8.0130   -4.3021   -6.8846 O   0  0  0  0  0  0  0  0  0  0  0  0
   -5.9407   -7.2728   -0.2619 C   0  0  0  0  0  0  0  0  0  0  0  0
   -5.2361   -7.9019    0.7596 C   0  0  0  0  0  0  0  0  0  0  0  0
  1  2  1  0
  2  3  1  0
  3  4  2  0
  4  5  1  0
  5  6  2  0
  6  7  1  0
  7  8  1  0
  8  9  2  0
  8 10  2  0
  8 11  1  0
 11 12  1  0
 12 13  1  0
 13 14  1  0
 14 15  1  0
 15 16  1  0
  6 17  1  0
 17 18  2  0
 18  3  1  0
 16 12  1  0
M  END
>  <ref_url>  (5) 
 https://www.notion.so/asapdiscovery/d68-STRIFE-compounds

>  <submitter_name>  (5) 
Lucy Vost

>  <submitter_email>  (5) 
lucy.vost@gtc.ox.ac.uk

>  <submitter_institution>  (5) 
University of Oxford

>  <generation_date>  (5) 
2023-08-28

>  <method>  (5) 
STRIFE - fragment elaboration new frags

>  <ref_mols>  (5) 
x1084

>  <ref_pdb>  (5) 
d68/D68EV3CPROA_apo.pdb

>  <original SMILES>  (5) 
CS(=O)(=O)Nc1ccc(CN)cc1

$$$$
ver_1.2
     RDKit          3D

 18 19  0  0  0  0  0  0  0  0999 V2000
   -3.1578   -7.6457    2.9087 C   0  0  0  0  0  0  0  0  0  0  0  0
   -3.0561   -8.5914    1.8028 C   0  0  0  0  0  0  0  0  0  0  0  0
   -3.8532   -8.0777    0.6471 C   0  0  0  0  0  0  0  0  0  0  0  0
   -3.1934   -7.6652   -0.5177 C   0  0  0  0  0  0  0  0  0  0  0  0
   -3.8922   -6.9938   -1.5175 C   0  0  0  0  0  0  0  0  0  0  0  0
   -5.2581   -6.7307   -1.3679 C   0  0  0  0  0  0  0  0  0  0  0  0
   -5.9008   -5.8841   -2.3287 O   0  0  0  0  0  0  0  0  0  0  0  0
   -6.7772   -6.4547   -3.7088 S   0  0  0  0  0  0  0  0  0  0  0  0
   -5.8762   -7.3717   -4.4820 O   0  0  0  0  0  0  0  0  0  0  0  0
   -8.0136   -7.1991   -3.3006 O   0  0  0  0  0  0  0  0  0  0  0  0
   -7.2605   -5.0487   -4.7008 C   0  0  0  0  0  0  0  0  0  0  0  0
   -7.8652   -5.4340   -6.0600 C   0  0  0  0  0  0  0  0  0  0  0  0
   -7.0710   -6.5018   -6.8161 C   0  0  0  0  0  0  0  0  0  0  0  0
   -6.9649   -5.9526   -8.2124 C   0  0  0  0  0  0  0  0  0  0  0  0
   -7.9114   -4.7711   -8.2046 C   0  0  0  0  0  0  0  0  0  0  0  0
   -8.0130   -4.3021   -6.8846 O   0  0  0  0  0  0  0  0  0  0  0  0
   -5.9407   -7.2728   -0.2619 C   0  0  0  0  0  0  0  0  0  0  0  0
   -5.2361   -7.9019    0.7596 C   0  0  0  0  0  0  0  0  0  0  0  0
  1  2  1  0
  2  3  1  0
  3  4  2  0
  4  5  1  0
  5  6  2  0
  6  7  1  0
  7  8  1  0
  8  9  2  0
  8 10  2  0
  8 11  1  0
 11 12  1  0
 12 13  1  0
 13 14  1  0
 14 15  1  0
 15 16  1  0
  6 17  1  0
 17 18  2  0
 18  3  1  0
 16 12  1  0
M  END
>  <ref_url>  (6) 
 https://www.notion.so/asapdiscovery/d68-STRIFE-compounds

>  <submitter_name>  (6) 
Lucy Vost

>  <submitter_email>  (6) 
lucy.vost@gtc.ox.ac.uk

>  <submitter_institution>  (6) 
University of Oxford

>  <generation_date>  (6) 
2023-08-28

>  <method>  (6) 
STRIFE - fragment elaboration new frags

>  <ref_mols>  (6) 
x1084

>  <ref_pdb>  (6) 
d68/D68EV3CPROA_apo.pdb

>  <original SMILES>  (6) 
CS(=O)(=O)Nc1ccc(CN)cc1

$$$$
ver_1.2
     RDKit          3D

 18 19  0  0  0  0  0  0  0  0999 V2000
   -3.1578   -7.6457    2.9087 C   0  0  0  0  0  0  0  0  0  0  0  0
   -3.0561   -8.5914    1.8028 O   0  0  0  0  0  0  0  0  0  0  0  0
   -3.8532   -8.0777    0.6471 C   0  0  0  0  0  0  0  0  0  0  0  0
   -3.1934   -7.6652   -0.5177 C   0  0  0  0  0  0  0  0  0  0  0  0
   -3.8922   -6.9938   -1.5175 C   0  0  0  0  0  0  0  0  0  0  0  0
   -5.2581   -6.7307   -1.3679 C   0  0  0  0  0  0  0  0  0  0  0  0
   -5.9008   -5.8841   -2.3287 N   0  0  0  0  0  0  0  0  0  0  0  0
   -6.7772   -6.4547   -3.7088 S   0  0  0  0  0  0  0  0  0  0  0  0
   -5.8762   -7.3717   -4.4820 O   0  0  0  0  0  0  0  0  0  0  0  0
   -8.0136   -7.1991   -3.3006 O   0  0  0  0  0  0  0  0  0  0  0  0
   -7.2605   -5.0487   -4.7008 C   0  0  0  0  0  0  0  0  0  0  0  0
   -7.8652   -5.4340   -6.0600 C   0  0  0  0  0  0  0  0  0  0  0  0
   -7.0710   -6.5018   -6.8161 C   0  0  0  0  0  0  0  0  0  0  0  0
   -6.9649   -5.9526   -8.2124 C   0  0  0  0  0  0  0  0  0  0  0  0
   -7.9114   -4.7711   -8.2046 C   0  0  0  0  0  0  0  0  0  0  0  0
   -8.0130   -4.3021   -6.8846 O   0  0  0  0  0  0  0  0  0  0  0  0
   -5.9407   -7.2728   -0.2619 C   0  0  0  0  0  0  0  0  0  0  0  0
   -5.2361   -7.9019    0.7596 C   0  0  0  0  0  0  0  0  0  0  0  0
  1  2  1  0
  2  3  1  0
  3  4  2  0
  4  5  1  0
  5  6  2  0
  6  7  1  0
  7  8  1  0
  8  9  2  0
  8 10  2  0
  8 11  1  0
 11 12  1  0
 12 13  1  0
 13 14  1  0
 14 15  1  0
 15 16  1  0
  6 17  1  0
 17 18  2  0
 18  3  1  0
 16 12  1  0
M  END
>  <ref_url>  (7) 
 https://www.notion.so/asapdiscovery/d68-STRIFE-compounds

>  <submitter_name>  (7) 
Lucy Vost

>  <submitter_email>  (7) 
lucy.vost@gtc.ox.ac.uk

>  <submitter_institution>  (7) 
University of Oxford

>  <generation_date>  (7) 
2023-08-28

>  <method>  (7) 
STRIFE - fragment elaboration new frags

>  <ref_mols>  (7) 
x1084

>  <ref_pdb>  (7) 
d68/D68EV3CPROA_apo.pdb

>  <original SMILES>  (7) 
CS(=O)(=O)Nc1ccc(CN)cc1

$$$$
ver_1.2
     RDKit          3D

 18 19  0  0  0  0  0  0  0  0999 V2000
   -3.1578   -7.6457    2.9087 C   0  0  0  0  0  0  0  0  0  0  0  0
   -3.0561   -8.5914    1.8028 S   0  0  0  0  0  0  0  0  0  0  0  0
   -3.8532   -8.0777    0.6471 C   0  0  0  0  0  0  0  0  0  0  0  0
   -5.2361   -7.9019    0.7596 C   0  0  0  0  0  0  0  0  0  0  0  0
   -5.9407   -7.2728   -0.2619 C   0  0  0  0  0  0  0  0  0  0  0  0
   -5.2581   -6.7307   -1.3679 C   0  0  0  0  0  0  0  0  0  0  0  0
   -5.9008   -5.8841   -2.3287 N   0  0  0  0  0  0  0  0  0  0  0  0
   -6.7772   -6.4547   -3.7088 S   0  0  0  0  0  0  0  0  0  0  0  0
   -5.8762   -7.3717   -4.4820 O   0  0  0  0  0  0  0  0  0  0  0  0
   -8.0136   -7.1991   -3.3006 O   0  0  0  0  0  0  0  0  0  0  0  0
   -7.2605   -5.0487   -4.7008 C   0  0  0  0  0  0  0  0  0  0  0  0
   -7.8652   -5.4340   -6.0600 C   0  0  0  0  0  0  0  0  0  0  0  0
   -7.0710   -6.5018   -6.8161 C   0  0  0  0  0  0  0  0  0  0  0  0
   -6.9649   -5.9526   -8.2124 C   0  0  0  0  0  0  0  0  0  0  0  0
   -7.9114   -4.7711   -8.2046 C   0  0  0  0  0  0  0  0  0  0  0  0
   -8.0130   -4.3021   -6.8846 O   0  0  0  0  0  0  0  0  0  0  0  0
   -3.8922   -6.9938   -1.5175 C   0  0  0  0  0  0  0  0  0  0  0  0
   -3.1934   -7.6652   -0.5177 C   0  0  0  0  0  0  0  0  0  0  0  0
  1  2  1  0
  2  3  1  0
  3  4  2  0
  4  5  1  0
  5  6  2  0
  6  7  1  0
  7  8  1  0
  8  9  2  0
  8 10  2  0
  8 11  1  0
 11 12  1  0
 12 13  1  0
 13 14  1  0
 14 15  1  0
 15 16  1  0
  6 17  1  0
 17 18  2  0
 18  3  1  0
 16 12  1  0
M  END
>  <ref_url>  (8) 
 https://www.notion.so/asapdiscovery/d68-STRIFE-compounds

>  <submitter_name>  (8) 
Lucy Vost

>  <submitter_email>  (8) 
lucy.vost@gtc.ox.ac.uk

>  <submitter_institution>  (8) 
University of Oxford

>  <generation_date>  (8) 
2023-08-28

>  <method>  (8) 
STRIFE - fragment elaboration new frags

>  <ref_mols>  (8) 
x1084

>  <ref_pdb>  (8) 
d68/D68EV3CPROA_apo.pdb

>  <original SMILES>  (8) 
CS(=O)(=O)Nc1ccc(CN)cc1

$$$$
ver_1.2
     RDKit          3D

 18 19  0  0  0  0  0  0  0  0999 V2000
   -3.1578   -7.6457    2.9087 N   0  0  0  0  0  0  0  0  0  0  0  0
   -3.0561   -8.5914    1.8028 C   0  0  0  0  0  0  0  0  0  0  0  0
   -3.8532   -8.0777    0.6471 C   0  0  0  0  0  0  0  0  0  0  0  0
   -3.1934   -7.6652   -0.5177 C   0  0  0  0  0  0  0  0  0  0  0  0
   -3.8922   -6.9938   -1.5175 C   0  0  0  0  0  0  0  0  0  0  0  0
   -5.2581   -6.7307   -1.3679 C   0  0  0  0  0  0  0  0  0  0  0  0
   -5.9008   -5.8841   -2.3287 N   0  0  0  0  0  0  0  0  0  0  0  0
   -6.7772   -6.4547   -3.7088 S   0  0  0  0  0  0  0  0  0  0  0  0
   -5.8762   -7.3717   -4.4820 O   0  0  0  0  0  0  0  0  0  0  0  0
   -8.0136   -7.1991   -3.3006 O   0  0  0  0  0  0  0  0  0  0  0  0
   -7.2605   -5.0487   -4.7008 C   0  0  0  0  0  0  0  0  0  0  0  0
   -7.8652   -5.4340   -6.0600 C   0  0  0  0  0  0  0  0  0  0  0  0
   -7.0710   -6.5018   -6.8161 C   0  0  0  0  0  0  0  0  0  0  0  0
   -6.9649   -5.9526   -8.2124 C   0  0  0  0  0  0  0  0  0  0  0  0
   -7.9114   -4.7711   -8.2046 O   0  0  0  0  0  0  0  0  0  0  0  0
   -8.0130   -4.3021   -6.8846 C   0  0  0  0  0  0  0  0  0  0  0  0
   -5.9407   -7.2728   -0.2619 C   0  0  0  0  0  0  0  0  0  0  0  0
   -5.2361   -7.9019    0.7596 C   0  0  0  0  0  0  0  0  0  0  0  0
  1  2  1  0
  2  3  1  0
  3  4  2  0
  4  5  1  0
  5  6  2  0
  6  7  1  0
  7  8  1  0
  8  9  2  0
  8 10  2  0
  8 11  1  0
 11 12  1  0
 12 13  1  0
 13 14  1  0
 14 15  1  0
 15 16  1  0
  6 17  1  0
 17 18  2  0
 18  3  1  0
 16 12  1  0
M  END
>  <ref_url>  (9) 
 https://www.notion.so/asapdiscovery/d68-STRIFE-compounds

>  <submitter_name>  (9) 
Lucy Vost

>  <submitter_email>  (9) 
lucy.vost@gtc.ox.ac.uk

>  <submitter_institution>  (9) 
University of Oxford

>  <generation_date>  (9) 
2023-08-28

>  <method>  (9) 
STRIFE - fragment elaboration new frags

>  <ref_mols>  (9) 
x1084

>  <ref_pdb>  (9) 
d68/D68EV3CPROA_apo.pdb

>  <original SMILES>  (9) 
CS(=O)(=O)Nc1ccc(CN)cc1

$$$$
ver_1.2
     RDKit          3D

 18 19  0  0  0  0  0  0  0  0999 V2000
   -3.8192   -7.5913    2.7538 N   0  0  0  0  0  0  0  0  0  0  0  0
   -3.5070   -8.6498    1.7991 C   0  0  0  0  0  0  0  0  0  0  0  0
   -3.9423   -8.2212    0.4352 C   0  0  0  0  0  0  0  0  0  0  0  0
   -2.9780   -7.8920   -0.5276 C   0  0  0  0  0  0  0  0  0  0  0  0
   -3.3626   -7.2985   -1.7259 C   0  0  0  0  0  0  0  0  0  0  0  0
   -4.7128   -7.0341   -1.9735 C   0  0  0  0  0  0  0  0  0  0  0  0
   -5.0628   -6.3270   -3.1589 N   0  0  0  0  0  0  0  0  0  0  0  0
   -6.6850   -5.9896   -3.6627 S   0  0  0  0  0  0  0  0  0  0  0  0
   -7.5448   -5.9956   -2.4353 O   0  0  0  0  0  0  0  0  0  0  0  0
   -6.7830   -4.6346   -4.3006 O   0  0  0  0  0  0  0  0  0  0  0  0
   -7.2603   -7.1576   -4.8947 C   0  0  0  0  0  0  0  0  0  0  0  0
   -7.8300   -6.5563   -6.1916 C   0  0  0  0  0  0  0  0  0  0  0  0
   -8.9668   -5.5804   -6.0040 C   0  0  0  0  0  0  0  0  0  0  0  0
   -8.4545   -4.3043   -6.6450 C   0  0  0  0  0  0  0  0  0  0  0  0
   -7.4210   -4.6321   -7.5391 O   0  0  0  0  0  0  0  0  0  0  0  0
   -6.8195   -5.8062   -7.0545 C   0  0  0  0  0  0  0  0  0  0  0  0
   -5.6836   -7.4890   -1.0667 C   0  0  0  0  0  0  0  0  0  0  0  0
   -5.2998   -8.0419    0.1482 C   0  0  0  0  0  0  0  0  0  0  0  0
  1  2  1  0
  2  3  1  0
  3  4  2  0
  4  5  1  0
  5  6  2  0
  6  7  1  0
  7  8  1  0
  8  9  2  0
  8 10  2  0
  8 11  1  0
 11 12  1  0
 12 13  1  0
 13 14  1  0
 14 15  1  0
 15 16  1  0
  6 17  1  0
 17 18  2  0
 18  3  1  0
 16 12  1  0
M  END
>  <ref_url>  (10) 
 https://www.notion.so/asapdiscovery/d68-STRIFE-compounds

>  <submitter_name>  (10) 
Lucy Vost

>  <submitter_email>  (10) 
lucy.vost@gtc.ox.ac.uk

>  <submitter_institution>  (10) 
University of Oxford

>  <generation_date>  (10) 
2023-08-28

>  <method>  (10) 
STRIFE - fragment elaboration new frags

>  <ref_mols>  (10) 
x1084

>  <ref_pdb>  (10) 
d68/D68EV3CPROA_apo.pdb

>  <original SMILES>  (10) 
CS(=O)(=O)Nc1ccc(CN)cc1

$$$$
ver_1.2
     RDKit          3D

 18 19  0  0  0  0  0  0  0  0999 V2000
   -3.8192   -7.5913    2.7538 C   0  0  0  0  0  0  0  0  0  0  0  0
   -3.5070   -8.6498    1.7991 C   0  0  0  0  0  0  0  0  0  0  0  0
   -3.9423   -8.2212    0.4352 C   0  0  0  0  0  0  0  0  0  0  0  0
   -2.9780   -7.8920   -0.5276 C   0  0  0  0  0  0  0  0  0  0  0  0
   -3.3626   -7.2985   -1.7259 C   0  0  0  0  0  0  0  0  0  0  0  0
   -4.7128   -7.0341   -1.9735 C   0  0  0  0  0  0  0  0  0  0  0  0
   -5.0628   -6.3270   -3.1589 C   0  0  0  0  0  0  0  0  0  0  0  0
   -6.6850   -5.9896   -3.6627 S   0  0  0  0  0  0  0  0  0  0  0  0
   -7.5448   -5.9956   -2.4353 O   0  0  0  0  0  0  0  0  0  0  0  0
   -6.7830   -4.6346   -4.3006 O   0  0  0  0  0  0  0  0  0  0  0  0
   -7.2603   -7.1576   -4.8947 C   0  0  0  0  0  0  0  0  0  0  0  0
   -7.8300   -6.5563   -6.1916 C   0  0  0  0  0  0  0  0  0  0  0  0
   -8.9668   -5.5804   -6.0040 C   0  0  0  0  0  0  0  0  0  0  0  0
   -8.4545   -4.3043   -6.6450 C   0  0  0  0  0  0  0  0  0  0  0  0
   -7.4210   -4.6321   -7.5391 O   0  0  0  0  0  0  0  0  0  0  0  0
   -6.8195   -5.8062   -7.0545 C   0  0  0  0  0  0  0  0  0  0  0  0
   -5.6836   -7.4890   -1.0667 C   0  0  0  0  0  0  0  0  0  0  0  0
   -5.2998   -8.0419    0.1482 C   0  0  0  0  0  0  0  0  0  0  0  0
  1  2  1  0
  2  3  1  0
  3  4  2  0
  4  5  1  0
  5  6  2  0
  6  7  1  0
  7  8  1  0
  8  9  2  0
  8 10  2  0
  8 11  1  0
 11 12  1  0
 12 13  1  0
 13 14  1  0
 14 15  1  0
 15 16  1  0
  6 17  1  0
 17 18  2  0
 18  3  1  0
 16 12  1  0
M  END
>  <ref_url>  (11) 
 https://www.notion.so/asapdiscovery/d68-STRIFE-compounds

>  <submitter_name>  (11) 
Lucy Vost

>  <submitter_email>  (11) 
lucy.vost@gtc.ox.ac.uk

>  <submitter_institution>  (11) 
University of Oxford

>  <generation_date>  (11) 
2023-08-28

>  <method>  (11) 
STRIFE - fragment elaboration new frags

>  <ref_mols>  (11) 
x1084

>  <ref_pdb>  (11) 
d68/D68EV3CPROA_apo.pdb

>  <original SMILES>  (11) 
CS(=O)(=O)Nc1ccc(CN)cc1

$$$$
ver_1.2
     RDKit          3D

 18 19  0  0  0  0  0  0  0  0999 V2000
   -3.8192   -7.5913    2.7538 C   0  0  0  0  0  0  0  0  0  0  0  0
   -3.5070   -8.6498    1.7991 C   0  0  0  0  0  0  0  0  0  0  0  0
   -3.9423   -8.2212    0.4352 C   0  0  0  0  0  0  0  0  0  0  0  0
   -2.9780   -7.8920   -0.5276 C   0  0  0  0  0  0  0  0  0  0  0  0
   -3.3626   -7.2985   -1.7259 C   0  0  0  0  0  0  0  0  0  0  0  0
   -4.7128   -7.0341   -1.9735 C   0  0  0  0  0  0  0  0  0  0  0  0
   -5.0628   -6.3270   -3.1589 O   0  0  0  0  0  0  0  0  0  0  0  0
   -6.6850   -5.9896   -3.6627 S   0  0  0  0  0  0  0  0  0  0  0  0
   -6.7830   -4.6346   -4.3006 O   0  0  0  0  0  0  0  0  0  0  0  0
   -7.5448   -5.9956   -2.4353 O   0  0  0  0  0  0  0  0  0  0  0  0
   -7.2603   -7.1576   -4.8947 C   0  0  0  0  0  0  0  0  0  0  0  0
   -7.8300   -6.5563   -6.1916 C   0  0  0  0  0  0  0  0  0  0  0  0
   -8.9668   -5.5804   -6.0040 C   0  0  0  0  0  0  0  0  0  0  0  0
   -8.4545   -4.3043   -6.6450 C   0  0  0  0  0  0  0  0  0  0  0  0
   -7.4210   -4.6321   -7.5391 O   0  0  0  0  0  0  0  0  0  0  0  0
   -6.8195   -5.8062   -7.0545 C   0  0  0  0  0  0  0  0  0  0  0  0
   -5.6836   -7.4890   -1.0667 C   0  0  0  0  0  0  0  0  0  0  0  0
   -5.2998   -8.0419    0.1482 C   0  0  0  0  0  0  0  0  0  0  0  0
  1  2  1  0
  2  3  1  0
  3  4  2  0
  4  5  1  0
  5  6  2  0
  6  7  1  0
  7  8  1  0
  8  9  2  0
  8 10  2  0
  8 11  1  0
 11 12  1  0
 12 13  1  0
 13 14  1  0
 14 15  1  0
 15 16  1  0
  6 17  1  0
 17 18  2  0
 18  3  1  0
 16 12  1  0
M  END
>  <ref_url>  (12) 
 https://www.notion.so/asapdiscovery/d68-STRIFE-compounds

>  <submitter_name>  (12) 
Lucy Vost

>  <submitter_email>  (12) 
lucy.vost@gtc.ox.ac.uk

>  <submitter_institution>  (12) 
University of Oxford

>  <generation_date>  (12) 
2023-08-28

>  <method>  (12) 
STRIFE - fragment elaboration new frags

>  <ref_mols>  (12) 
x1084

>  <ref_pdb>  (12) 
d68/D68EV3CPROA_apo.pdb

>  <original SMILES>  (12) 
CS(=O)(=O)Nc1ccc(CN)cc1

$$$$
ver_1.2
     RDKit          3D

 18 19  0  0  0  0  0  0  0  0999 V2000
   -3.8192   -7.5913    2.7538 N   0  0  0  0  0  0  0  0  0  0  0  0
   -3.5070   -8.6498    1.7991 C   0  0  0  0  0  0  0  0  0  0  0  0
   -3.9423   -8.2212    0.4352 C   0  0  0  0  0  0  0  0  0  0  0  0
   -2.9780   -7.8920   -0.5276 C   0  0  0  0  0  0  0  0  0  0  0  0
   -3.3626   -7.2985   -1.7259 C   0  0  0  0  0  0  0  0  0  0  0  0
   -4.7128   -7.0341   -1.9735 C   0  0  0  0  0  0  0  0  0  0  0  0
   -5.0628   -6.3270   -3.1589 N   0  0  0  0  0  0  0  0  0  0  0  0
   -6.6850   -5.9896   -3.6627 S   0  0  0  0  0  0  0  0  0  0  0  0
   -7.5448   -5.9956   -2.4353 O   0  0  0  0  0  0  0  0  0  0  0  0
   -6.7830   -4.6346   -4.3006 O   0  0  0  0  0  0  0  0  0  0  0  0
   -7.2603   -7.1576   -4.8947 C   0  0  0  0  0  0  0  0  0  0  0  0
   -7.8300   -6.5563   -6.1916 C   0  0  0  0  0  0  0  0  0  0  0  0
   -8.9668   -5.5804   -6.0040 C   0  0  0  0  0  0  0  0  0  0  0  0
   -8.4545   -4.3043   -6.6450 C   0  0  0  0  0  0  0  0  0  0  0  0
   -7.4210   -4.6321   -7.5391 C   0  0  0  0  0  0  0  0  0  0  0  0
   -6.8195   -5.8062   -7.0545 O   0  0  0  0  0  0  0  0  0  0  0  0
   -5.6836   -7.4890   -1.0667 C   0  0  0  0  0  0  0  0  0  0  0  0
   -5.2998   -8.0419    0.1482 C   0  0  0  0  0  0  0  0  0  0  0  0
  1  2  1  0
  2  3  1  0
  3  4  2  0
  4  5  1  0
  5  6  2  0
  6  7  1  0
  7  8  1  0
  8  9  2  0
  8 10  2  0
  8 11  1  0
 11 12  1  0
 12 13  1  0
 13 14  1  0
 14 15  1  0
 15 16  1  0
  6 17  1  0
 17 18  2  0
 18  3  1  0
 16 12  1  0
M  END
>  <ref_url>  (13) 
 https://www.notion.so/asapdiscovery/d68-STRIFE-compounds

>  <submitter_name>  (13) 
Lucy Vost

>  <submitter_email>  (13) 
lucy.vost@gtc.ox.ac.uk

>  <submitter_institution>  (13) 
University of Oxford

>  <generation_date>  (13) 
2023-08-28

>  <method>  (13) 
STRIFE - fragment elaboration new frags

>  <ref_mols>  (13) 
x1084

>  <ref_pdb>  (13) 
d68/D68EV3CPROA_apo.pdb

>  <original SMILES>  (13) 
CS(=O)(=O)Nc1ccc(CN)cc1

$$$$
ver_1.2
     RDKit          3D

 18 19  0  0  0  0  0  0  0  0999 V2000
   -7.5448   -5.9956   -2.4353 O   0  0  0  0  0  0  0  0  0  0  0  0
   -6.6850   -5.9896   -3.6627 S   0  0  0  0  0  0  0  0  0  0  0  0
   -6.7830   -4.6346   -4.3006 O   0  0  0  0  0  0  0  0  0  0  0  0
   -5.0628   -6.3270   -3.1589 C   0  0  0  0  0  0  0  0  0  0  0  0
   -4.7128   -7.0341   -1.9735 C   0  0  0  0  0  0  0  0  0  0  0  0
   -3.3626   -7.2985   -1.7259 C   0  0  0  0  0  0  0  0  0  0  0  0
   -2.9780   -7.8920   -0.5276 C   0  0  0  0  0  0  0  0  0  0  0  0
   -3.9423   -8.2212    0.4352 C   0  0  0  0  0  0  0  0  0  0  0  0
   -3.5070   -8.6498    1.7991 C   0  0  0  0  0  0  0  0  0  0  0  0
   -3.8192   -7.5913    2.7538 F   0  0  0  0  0  0  0  0  0  0  0  0
   -5.2998   -8.0419    0.1482 C   0  0  0  0  0  0  0  0  0  0  0  0
   -5.6836   -7.4890   -1.0667 C   0  0  0  0  0  0  0  0  0  0  0  0
   -7.2603   -7.1576   -4.8947 C   0  0  0  0  0  0  0  0  0  0  0  0
   -7.8300   -6.5563   -6.1916 C   0  0  0  0  0  0  0  0  0  0  0  0
   -8.9668   -5.5804   -6.0040 C   0  0  0  0  0  0  0  0  0  0  0  0
   -8.4545   -4.3043   -6.6450 C   0  0  0  0  0  0  0  0  0  0  0  0
   -7.4210   -4.6321   -7.5391 O   0  0  0  0  0  0  0  0  0  0  0  0
   -6.8195   -5.8062   -7.0545 C   0  0  0  0  0  0  0  0  0  0  0  0
  1  2  2  0
  2  3  2  0
  2  4  1  0
  4  5  1  0
  5  6  2  0
  6  7  1  0
  7  8  2  0
  8  9  1  0
  9 10  1  0
  8 11  1  0
 11 12  2  0
  2 13  1  0
 13 14  1  0
 14 15  1  0
 15 16  1  0
 16 17  1  0
 17 18  1  0
 12  5  1  0
 18 14  1  0
M  END
>  <ref_url>  (14) 
 https://www.notion.so/asapdiscovery/d68-STRIFE-compounds

>  <submitter_name>  (14) 
Lucy Vost

>  <submitter_email>  (14) 
lucy.vost@gtc.ox.ac.uk

>  <submitter_institution>  (14) 
University of Oxford

>  <generation_date>  (14) 
2023-08-28

>  <method>  (14) 
STRIFE - fragment elaboration new frags

>  <ref_mols>  (14) 
x1084

>  <ref_pdb>  (14) 
d68/D68EV3CPROA_apo.pdb

>  <original SMILES>  (14) 
CS(=O)(=O)Nc1ccc(CN)cc1

$$$$
ver_1.2
     RDKit          3D

 18 19  0  0  0  0  0  0  0  0999 V2000
   -7.5448   -5.9956   -2.4353 O   0  0  0  0  0  0  0  0  0  0  0  0
   -6.6850   -5.9896   -3.6627 S   0  0  0  0  0  0  0  0  0  0  0  0
   -6.7830   -4.6346   -4.3006 O   0  0  0  0  0  0  0  0  0  0  0  0
   -5.0628   -6.3270   -3.1589 C   0  0  0  0  0  0  0  0  0  0  0  0
   -4.7128   -7.0341   -1.9735 C   0  0  0  0  0  0  0  0  0  0  0  0
   -3.3626   -7.2985   -1.7259 C   0  0  0  0  0  0  0  0  0  0  0  0
   -2.9780   -7.8920   -0.5276 C   0  0  0  0  0  0  0  0  0  0  0  0
   -3.9423   -8.2212    0.4352 C   0  0  0  0  0  0  0  0  0  0  0  0
   -3.5070   -8.6498    1.7991 C   0  0  0  0  0  0  0  0  0  0  0  0
   -3.8192   -7.5913    2.7538 O   0  0  0  0  0  0  0  0  0  0  0  0
   -5.2998   -8.0419    0.1482 C   0  0  0  0  0  0  0  0  0  0  0  0
   -5.6836   -7.4890   -1.0667 C   0  0  0  0  0  0  0  0  0  0  0  0
   -7.2603   -7.1576   -4.8947 C   0  0  0  0  0  0  0  0  0  0  0  0
   -7.8300   -6.5563   -6.1916 C   0  0  0  0  0  0  0  0  0  0  0  0
   -8.9668   -5.5804   -6.0040 C   0  0  0  0  0  0  0  0  0  0  0  0
   -8.4545   -4.3043   -6.6450 C   0  0  0  0  0  0  0  0  0  0  0  0
   -7.4210   -4.6321   -7.5391 O   0  0  0  0  0  0  0  0  0  0  0  0
   -6.8195   -5.8062   -7.0545 C   0  0  0  0  0  0  0  0  0  0  0  0
  1  2  2  0
  2  3  2  0
  2  4  1  0
  4  5  1  0
  5  6  2  0
  6  7  1  0
  7  8  2  0
  8  9  1  0
  9 10  1  0
  8 11  1  0
 11 12  2  0
  2 13  1  0
 13 14  1  0
 14 15  1  0
 15 16  1  0
 16 17  1  0
 17 18  1  0
 12  5  1  0
 18 14  1  0
M  END
>  <ref_url>  (15) 
 https://www.notion.so/asapdiscovery/d68-STRIFE-compounds

>  <submitter_name>  (15) 
Lucy Vost

>  <submitter_email>  (15) 
lucy.vost@gtc.ox.ac.uk

>  <submitter_institution>  (15) 
University of Oxford

>  <generation_date>  (15) 
2023-08-28

>  <method>  (15) 
STRIFE - fragment elaboration new frags

>  <ref_mols>  (15) 
x1084

>  <ref_pdb>  (15) 
d68/D68EV3CPROA_apo.pdb

>  <original SMILES>  (15) 
CS(=O)(=O)Nc1ccc(CN)cc1

$$$$
ver_1.2
     RDKit          3D

 18 19  0  0  0  0  0  0  0  0999 V2000
   -3.8192   -7.5913    2.7538 N   0  0  0  0  0  0  0  0  0  0  0  0
   -3.5070   -8.6498    1.7991 C   0  0  0  0  0  0  0  0  0  0  0  0
   -3.9423   -8.2212    0.4352 C   0  0  0  0  0  0  0  0  0  0  0  0
   -2.9780   -7.8920   -0.5276 C   0  0  0  0  0  0  0  0  0  0  0  0
   -3.3626   -7.2985   -1.7259 C   0  0  0  0  0  0  0  0  0  0  0  0
   -4.7128   -7.0341   -1.9735 C   0  0  0  0  0  0  0  0  0  0  0  0
   -5.0628   -6.3270   -3.1589 C   0  0  0  0  0  0  0  0  0  0  0  0
   -6.6850   -5.9896   -3.6627 S   0  0  0  0  0  0  0  0  0  0  0  0
   -7.5448   -5.9956   -2.4353 O   0  0  0  0  0  0  0  0  0  0  0  0
   -6.7830   -4.6346   -4.3006 O   0  0  0  0  0  0  0  0  0  0  0  0
   -7.2603   -7.1576   -4.8947 C   0  0  0  0  0  0  0  0  0  0  0  0
   -7.8300   -6.5563   -6.1916 C   0  0  0  0  0  0  0  0  0  0  0  0
   -8.9668   -5.5804   -6.0040 C   0  0  0  0  0  0  0  0  0  0  0  0
   -8.4545   -4.3043   -6.6450 C   0  0  0  0  0  0  0  0  0  0  0  0
   -7.4210   -4.6321   -7.5391 O   0  0  0  0  0  0  0  0  0  0  0  0
   -6.8195   -5.8062   -7.0545 C   0  0  0  0  0  0  0  0  0  0  0  0
   -5.6836   -7.4890   -1.0667 C   0  0  0  0  0  0  0  0  0  0  0  0
   -5.2998   -8.0419    0.1482 C   0  0  0  0  0  0  0  0  0  0  0  0
  1  2  3  0
  2  3  1  0
  3  4  2  0
  4  5  1  0
  5  6  2  0
  6  7  1  0
  7  8  1  0
  8  9  2  0
  8 10  2  0
  8 11  1  0
 11 12  1  0
 12 13  1  0
 13 14  1  0
 14 15  1  0
 15 16  1  0
  6 17  1  0
 17 18  2  0
 18  3  1  0
 16 12  1  0
M  END
>  <ref_url>  (16) 
 https://www.notion.so/asapdiscovery/d68-STRIFE-compounds

>  <submitter_name>  (16) 
Lucy Vost

>  <submitter_email>  (16) 
lucy.vost@gtc.ox.ac.uk

>  <submitter_institution>  (16) 
University of Oxford

>  <generation_date>  (16) 
2023-08-28

>  <method>  (16) 
STRIFE - fragment elaboration new frags

>  <ref_mols>  (16) 
x1084

>  <ref_pdb>  (16) 
d68/D68EV3CPROA_apo.pdb

>  <original SMILES>  (16) 
CS(=O)(=O)Nc1ccc(CN)cc1

$$$$
ver_1.2
     RDKit          3D

 18 19  0  0  0  0  0  0  0  0999 V2000
   -3.8192   -7.5913    2.7538 N   0  0  0  0  0  0  0  0  0  0  0  0
   -3.5070   -8.6498    1.7991 C   0  0  0  0  0  0  0  0  0  0  0  0
   -3.9423   -8.2212    0.4352 C   0  0  0  0  0  0  0  0  0  0  0  0
   -2.9780   -7.8920   -0.5276 C   0  0  0  0  0  0  0  0  0  0  0  0
   -3.3626   -7.2985   -1.7259 C   0  0  0  0  0  0  0  0  0  0  0  0
   -4.7128   -7.0341   -1.9735 C   0  0  0  0  0  0  0  0  0  0  0  0
   -5.0628   -6.3270   -3.1589 O   0  0  0  0  0  0  0  0  0  0  0  0
   -6.6850   -5.9896   -3.6627 S   0  0  0  0  0  0  0  0  0  0  0  0
   -7.5448   -5.9956   -2.4353 O   0  0  0  0  0  0  0  0  0  0  0  0
   -6.7830   -4.6346   -4.3006 O   0  0  0  0  0  0  0  0  0  0  0  0
   -7.2603   -7.1576   -4.8947 C   0  0  0  0  0  0  0  0  0  0  0  0
   -7.8300   -6.5563   -6.1916 C   0  0  0  0  0  0  0  0  0  0  0  0
   -8.9668   -5.5804   -6.0040 C   0  0  0  0  0  0  0  0  0  0  0  0
   -8.4545   -4.3043   -6.6450 C   0  0  0  0  0  0  0  0  0  0  0  0
   -7.4210   -4.6321   -7.5391 O   0  0  0  0  0  0  0  0  0  0  0  0
   -6.8195   -5.8062   -7.0545 C   0  0  0  0  0  0  0  0  0  0  0  0
   -5.6836   -7.4890   -1.0667 C   0  0  0  0  0  0  0  0  0  0  0  0
   -5.2998   -8.0419    0.1482 C   0  0  0  0  0  0  0  0  0  0  0  0
  1  2  3  0
  2  3  1  0
  3  4  2  0
  4  5  1  0
  5  6  2  0
  6  7  1  0
  7  8  1  0
  8  9  2  0
  8 10  2  0
  8 11  1  0
 11 12  1  0
 12 13  1  0
 13 14  1  0
 14 15  1  0
 15 16  1  0
  6 17  1  0
 17 18  2  0
 18  3  1  0
 16 12  1  0
M  END
>  <ref_url>  (17) 
 https://www.notion.so/asapdiscovery/d68-STRIFE-compounds

>  <submitter_name>  (17) 
Lucy Vost

>  <submitter_email>  (17) 
lucy.vost@gtc.ox.ac.uk

>  <submitter_institution>  (17) 
University of Oxford

>  <generation_date>  (17) 
2023-08-28

>  <method>  (17) 
STRIFE - fragment elaboration new frags

>  <ref_mols>  (17) 
x1084

>  <ref_pdb>  (17) 
d68/D68EV3CPROA_apo.pdb

>  <original SMILES>  (17) 
CS(=O)(=O)Nc1ccc(CN)cc1

$$$$
ver_1.2
     RDKit          3D

 18 19  0  0  0  0  0  0  0  0999 V2000
   -3.8192   -7.5913    2.7538 C   0  0  0  0  0  0  0  0  0  0  0  0
   -3.5070   -8.6498    1.7991 C   0  0  0  0  0  0  0  0  0  0  0  0
   -3.9423   -8.2212    0.4352 C   0  0  0  0  0  0  0  0  0  0  0  0
   -2.9780   -7.8920   -0.5276 C   0  0  0  0  0  0  0  0  0  0  0  0
   -3.3626   -7.2985   -1.7259 C   0  0  0  0  0  0  0  0  0  0  0  0
   -4.7128   -7.0341   -1.9735 C   0  0  0  0  0  0  0  0  0  0  0  0
   -5.0628   -6.3270   -3.1589 O   0  0  0  0  0  0  0  0  0  0  0  0
   -6.6850   -5.9896   -3.6627 S   0  0  0  0  0  0  0  0  0  0  0  0
   -7.5448   -5.9956   -2.4353 O   0  0  0  0  0  0  0  0  0  0  0  0
   -6.7830   -4.6346   -4.3006 O   0  0  0  0  0  0  0  0  0  0  0  0
   -7.2603   -7.1576   -4.8947 C   0  0  0  0  0  0  0  0  0  0  0  0
   -7.8300   -6.5563   -6.1916 C   0  0  0  0  0  0  0  0  0  0  0  0
   -8.9668   -5.5804   -6.0040 C   0  0  0  0  0  0  0  0  0  0  0  0
   -8.4545   -4.3043   -6.6450 C   0  0  0  0  0  0  0  0  0  0  0  0
   -7.4210   -4.6321   -7.5391 O   0  0  0  0  0  0  0  0  0  0  0  0
   -6.8195   -5.8062   -7.0545 C   0  0  0  0  0  0  0  0  0  0  0  0
   -5.6836   -7.4890   -1.0667 C   0  0  0  0  0  0  0  0  0  0  0  0
   -5.2998   -8.0419    0.1482 C   0  0  0  0  0  0  0  0  0  0  0  0
  1  2  2  0
  2  3  1  0
  3  4  2  0
  4  5  1  0
  5  6  2  0
  6  7  1  0
  7  8  1  0
  8  9  2  0
  8 10  2  0
  8 11  1  0
 11 12  1  0
 12 13  1  0
 13 14  1  0
 14 15  1  0
 15 16  1  0
  6 17  1  0
 17 18  2  0
 18  3  1  0
 16 12  1  0
M  END
>  <ref_url>  (18) 
 https://www.notion.so/asapdiscovery/d68-STRIFE-compounds

>  <submitter_name>  (18) 
Lucy Vost

>  <submitter_email>  (18) 
lucy.vost@gtc.ox.ac.uk

>  <submitter_institution>  (18) 
University of Oxford

>  <generation_date>  (18) 
2023-08-28

>  <method>  (18) 
STRIFE - fragment elaboration new frags

>  <ref_mols>  (18) 
x1084

>  <ref_pdb>  (18) 
d68/D68EV3CPROA_apo.pdb

>  <original SMILES>  (18) 
CS(=O)(=O)Nc1ccc(CN)cc1

$$$$
ver_1.2
     RDKit          3D

 19 20  0  0  0  0  0  0  0  0999 V2000
   -7.5191   -6.0446   -2.3629 O   0  0  0  0  0  0  0  0  0  0  0  0
   -6.6923   -5.9008   -3.6071 S   0  0  0  0  0  0  0  0  0  0  0  0
   -6.5829   -4.4483   -3.9726 O   0  0  0  0  0  0  0  0  0  0  0  0
   -7.4609   -6.7446   -4.9704 C   0  0  0  0  0  0  0  0  0  0  0  0
   -7.6505   -5.7967   -6.1171 C   0  0  0  0  0  0  0  0  0  0  0  0
   -6.9217   -5.9589   -7.3044 C   0  0  0  0  0  0  0  0  0  0  0  0
   -7.0996   -5.0475   -8.3476 C   0  0  0  0  0  0  0  0  0  0  0  0
   -7.9645   -4.0081   -8.2048 N   0  0  0  0  0  0  0  0  0  0  0  0
   -8.6722   -3.8210   -7.0592 C   0  0  0  0  0  0  0  0  0  0  0  0
   -8.5240   -4.7083   -5.9919 C   0  0  0  0  0  0  0  0  0  0  0  0
   -5.1422   -6.6106   -3.3089 C   0  0  0  0  0  0  0  0  0  0  0  0
   -4.7825   -7.3000   -2.1066 C   0  0  0  0  0  0  0  0  0  0  0  0
   -3.4804   -7.1526   -1.6178 C   0  0  0  0  0  0  0  0  0  0  0  0
   -3.1382   -7.6622   -0.3687 C   0  0  0  0  0  0  0  0  0  0  0  0
   -4.0990   -8.3187    0.4117 C   0  0  0  0  0  0  0  0  0  0  0  0
   -3.7860   -8.6597    1.8338 C   0  0  0  0  0  0  0  0  0  0  0  0
   -4.7209   -7.9608    2.7102 F   0  0  0  0  0  0  0  0  0  0  0  0
   -5.3749   -8.5533   -0.1132 C   0  0  0  0  0  0  0  0  0  0  0  0
   -5.7005   -8.0840   -1.3824 C   0  0  0  0  0  0  0  0  0  0  0  0
  1  2  2  0
  2  3  2  0
  2  4  1  0
  4  5  1  0
  5  6  2  0
  6  7  1  0
  7  8  2  0
  8  9  1  0
  9 10  2  0
  2 11  1  0
 11 12  1  0
 12 13  2  0
 13 14  1  0
 14 15  2  0
 15 16  1  0
 16 17  1  0
 15 18  1  0
 18 19  2  0
 10  5  1  0
 19 12  1  0
M  END
>  <ref_url>  (19) 
 https://www.notion.so/asapdiscovery/d68-STRIFE-compounds

>  <submitter_name>  (19) 
Lucy Vost

>  <submitter_email>  (19) 
lucy.vost@gtc.ox.ac.uk

>  <submitter_institution>  (19) 
University of Oxford

>  <generation_date>  (19) 
2023-08-28

>  <method>  (19) 
STRIFE - fragment elaboration new frags

>  <ref_mols>  (19) 
x1084

>  <ref_pdb>  (19) 
d68/D68EV3CPROA_apo.pdb

>  <original SMILES>  (19) 
CS(=O)(=O)Nc1ccc(CN)cc1

$$$$
ver_1.2
     RDKit          3D

 19 20  0  0  0  0  0  0  0  0999 V2000
   -7.5191   -6.0446   -2.3629 O   0  0  0  0  0  0  0  0  0  0  0  0
   -6.6923   -5.9008   -3.6071 S   0  0  0  0  0  0  0  0  0  0  0  0
   -6.5829   -4.4483   -3.9726 O   0  0  0  0  0  0  0  0  0  0  0  0
   -7.4609   -6.7446   -4.9704 C   0  0  0  0  0  0  0  0  0  0  0  0
   -7.6505   -5.7967   -6.1171 C   0  0  0  0  0  0  0  0  0  0  0  0
   -8.5240   -4.7083   -5.9919 C   0  0  0  0  0  0  0  0  0  0  0  0
   -8.6722   -3.8210   -7.0592 C   0  0  0  0  0  0  0  0  0  0  0  0
   -7.9645   -4.0081   -8.2048 N   0  0  0  0  0  0  0  0  0  0  0  0
   -7.0996   -5.0475   -8.3476 C   0  0  0  0  0  0  0  0  0  0  0  0
   -6.9217   -5.9589   -7.3044 C   0  0  0  0  0  0  0  0  0  0  0  0
   -5.1422   -6.6106   -3.3089 C   0  0  0  0  0  0  0  0  0  0  0  0
   -4.7825   -7.3000   -2.1066 C   0  0  0  0  0  0  0  0  0  0  0  0
   -3.4804   -7.1526   -1.6178 C   0  0  0  0  0  0  0  0  0  0  0  0
   -3.1382   -7.6622   -0.3687 C   0  0  0  0  0  0  0  0  0  0  0  0
   -4.0990   -8.3187    0.4117 C   0  0  0  0  0  0  0  0  0  0  0  0
   -3.7860   -8.6597    1.8338 C   0  0  0  0  0  0  0  0  0  0  0  0
   -4.7209   -7.9608    2.7102 O   0  0  0  0  0  0  0  0  0  0  0  0
   -5.3749   -8.5533   -0.1132 C   0  0  0  0  0  0  0  0  0  0  0  0
   -5.7005   -8.0840   -1.3824 C   0  0  0  0  0  0  0  0  0  0  0  0
  1  2  2  0
  2  3  2  0
  2  4  1  0
  4  5  1  0
  5  6  2  0
  6  7  1  0
  7  8  2  0
  8  9  1  0
  9 10  2  0
  2 11  1  0
 11 12  1  0
 12 13  2  0
 13 14  1  0
 14 15  2  0
 15 16  1  0
 16 17  1  0
 15 18  1  0
 18 19  2  0
 10  5  1  0
 19 12  1  0
M  END
>  <ref_url>  (20) 
 https://www.notion.so/asapdiscovery/d68-STRIFE-compounds

>  <submitter_name>  (20) 
Lucy Vost

>  <submitter_email>  (20) 
lucy.vost@gtc.ox.ac.uk

>  <submitter_institution>  (20) 
University of Oxford

>  <generation_date>  (20) 
2023-08-28

>  <method>  (20) 
STRIFE - fragment elaboration new frags

>  <ref_mols>  (20) 
x1084

>  <ref_pdb>  (20) 
d68/D68EV3CPROA_apo.pdb

>  <original SMILES>  (20) 
CS(=O)(=O)Nc1ccc(CN)cc1

$$$$
ver_1.2
     RDKit          3D

 19 20  0  0  0  0  0  0  0  0999 V2000
   -7.5191   -6.0446   -2.3629 O   0  0  0  0  0  0  0  0  0  0  0  0
   -6.6923   -5.9008   -3.6071 S   0  0  0  0  0  0  0  0  0  0  0  0
   -6.5829   -4.4483   -3.9726 O   0  0  0  0  0  0  0  0  0  0  0  0
   -7.4609   -6.7446   -4.9704 C   0  0  0  0  0  0  0  0  0  0  0  0
   -7.6505   -5.7967   -6.1171 C   0  0  0  0  0  0  0  0  0  0  0  0
   -8.5240   -4.7083   -5.9919 C   0  0  0  0  0  0  0  0  0  0  0  0
   -8.6722   -3.8210   -7.0592 C   0  0  0  0  0  0  0  0  0  0  0  0
   -7.9645   -4.0081   -8.2048 C   0  0  0  0  0  0  0  0  0  0  0  0
   -8.1246   -3.0201   -9.3408 C   0  0  0  0  0  0  0  0  0  0  0  0
   -9.1676   -3.4609  -10.1974 O   0  0  0  0  0  0  0  0  0  0  0  0
   -7.0996   -5.0475   -8.3476 C   0  0  0  0  0  0  0  0  0  0  0  0
   -6.9217   -5.9589   -7.3044 C   0  0  0  0  0  0  0  0  0  0  0  0
   -5.1422   -6.6106   -3.3089 C   0  0  0  0  0  0  0  0  0  0  0  0
   -4.7825   -7.3000   -2.1066 C   0  0  0  0  0  0  0  0  0  0  0  0
   -5.7005   -8.0840   -1.3824 C   0  0  0  0  0  0  0  0  0  0  0  0
   -5.3749   -8.5533   -0.1132 C   0  0  0  0  0  0  0  0  0  0  0  0
   -4.0990   -8.3187    0.4117 N   0  0  0  0  0  0  0  0  0  0  0  0
   -3.1382   -7.6622   -0.3687 C   0  0  0  0  0  0  0  0  0  0  0  0
   -3.4804   -7.1526   -1.6178 N   0  0  0  0  0  0  0  0  0  0  0  0
  1  2  2  0
  2  3  2  0
  2  4  1  0
  4  5  1  0
  5  6  2  0
  6  7  1  0
  7  8  2  0
  8  9  1  0
  9 10  1  0
  8 11  1  0
 11 12  2  0
  2 13  1  0
 13 14  1  0
 14 15  2  0
 15 16  1  0
 16 17  2  0
 17 18  1  0
 18 19  2  0
 12  5  1  0
 19 14  1  0
M  END
>  <ref_url>  (21) 
 https://www.notion.so/asapdiscovery/d68-STRIFE-compounds

>  <submitter_name>  (21) 
Lucy Vost

>  <submitter_email>  (21) 
lucy.vost@gtc.ox.ac.uk

>  <submitter_institution>  (21) 
University of Oxford

>  <generation_date>  (21) 
2023-08-28

>  <method>  (21) 
STRIFE - fragment elaboration new frags

>  <ref_mols>  (21) 
x1084

>  <ref_pdb>  (21) 
d68/D68EV3CPROA_apo.pdb

>  <original SMILES>  (21) 
CS(=O)(=O)Nc1ccc(CN)cc1

$$$$
ver_1.2
     RDKit          3D

 20 21  0  0  0  0  0  0  0  0999 V2000
   -3.3859   -7.3002    2.5907 C   0  0  0  0  0  0  0  0  0  0  0  0
   -3.4878   -8.5936    1.9239 C   0  0  0  0  0  0  0  0  0  0  0  0
   -3.9161   -8.3793    0.5080 C   0  0  0  0  0  0  0  0  0  0  0  0
   -3.1087   -7.6215   -0.3503 C   0  0  0  0  0  0  0  0  0  0  0  0
   -3.5848   -7.2382   -1.6009 C   0  0  0  0  0  0  0  0  0  0  0  0
   -4.8707   -7.6091   -2.0081 C   0  0  0  0  0  0  0  0  0  0  0  0
   -5.3865   -7.0629   -3.2248 C   0  0  0  0  0  0  0  0  0  0  0  0
   -6.6491   -5.8793   -3.3122 S   0  0  0  0  0  0  0  0  0  0  0  0
   -6.9797   -5.4442   -1.9148 O   0  0  0  0  0  0  0  0  0  0  0  0
   -6.2430   -4.6844   -4.1248 O   0  0  0  0  0  0  0  0  0  0  0  0
   -8.0767   -6.5816   -4.0993 C   0  0  0  0  0  0  0  0  0  0  0  0
   -7.6889   -7.2246   -5.4243 C   0  0  0  0  0  0  0  0  0  0  0  0
   -7.6210   -6.1835   -6.4960 C   0  0  0  0  0  0  0  0  0  0  0  0
   -6.5369   -6.1462   -7.3832 C   0  0  0  0  0  0  0  0  0  0  0  0
   -6.4942   -5.2091   -8.3662 N   0  0  0  0  0  0  0  0  0  0  0  0
   -7.4900   -4.2973   -8.5268 C   0  0  0  0  0  0  0  0  0  0  0  0
   -8.5971   -4.3110   -7.6760 C   0  0  0  0  0  0  0  0  0  0  0  0
   -8.6650   -5.2635   -6.6598 N   0  0  0  0  0  0  0  0  0  0  0  0
   -5.6215   -8.4811   -1.1989 C   0  0  0  0  0  0  0  0  0  0  0  0
   -5.1651   -8.8301    0.0678 C   0  0  0  0  0  0  0  0  0  0  0  0
  1  2  1  0
  2  3  1  0
  3  4  2  0
  4  5  1  0
  5  6  2  0
  6  7  1  0
  7  8  1  0
  8  9  2  0
  8 10  2  0
  8 11  1  0
 11 12  1  0
 12 13  1  0
 13 14  2  0
 14 15  1  0
 15 16  2  0
 16 17  1  0
 17 18  2  0
  6 19  1  0
 19 20  2  0
 20  3  1  0
 18 13  1  0
M  END
>  <ref_url>  (22) 
 https://www.notion.so/asapdiscovery/d68-STRIFE-compounds

>  <submitter_name>  (22) 
Lucy Vost

>  <submitter_email>  (22) 
lucy.vost@gtc.ox.ac.uk

>  <submitter_institution>  (22) 
University of Oxford

>  <generation_date>  (22) 
2023-08-28

>  <method>  (22) 
STRIFE - fragment elaboration new frags

>  <ref_mols>  (22) 
x1084

>  <ref_pdb>  (22) 
d68/D68EV3CPROA_apo.pdb

>  <original SMILES>  (22) 
CS(=O)(=O)Nc1ccc(CN)cc1

$$$$
ver_1.2
     RDKit          3D

 20 21  0  0  0  0  0  0  0  0999 V2000
   -3.3859   -7.3002    2.5907 C   0  0  0  0  0  0  0  0  0  0  0  0
   -3.4878   -8.5936    1.9239 C   0  0  0  0  0  0  0  0  0  0  0  0
   -3.9161   -8.3793    0.5080 C   0  0  0  0  0  0  0  0  0  0  0  0
   -3.1087   -7.6215   -0.3503 C   0  0  0  0  0  0  0  0  0  0  0  0
   -3.5848   -7.2382   -1.6009 C   0  0  0  0  0  0  0  0  0  0  0  0
   -4.8707   -7.6091   -2.0081 C   0  0  0  0  0  0  0  0  0  0  0  0
   -5.3865   -7.0629   -3.2248 C   0  0  0  0  0  0  0  0  0  0  0  0
   -6.6491   -5.8793   -3.3122 S   0  0  0  0  0  0  0  0  0  0  0  0
   -6.2430   -4.6844   -4.1248 O   0  0  0  0  0  0  0  0  0  0  0  0
   -6.9797   -5.4442   -1.9148 O   0  0  0  0  0  0  0  0  0  0  0  0
   -8.0767   -6.5816   -4.0993 N   0  0  0  0  0  0  0  0  0  0  0  0
   -7.6889   -7.2246   -5.4243 C   0  0  0  0  0  0  0  0  0  0  0  0
   -7.6210   -6.1835   -6.4960 C   0  0  0  0  0  0  0  0  0  0  0  0
   -8.6650   -5.2635   -6.6598 C   0  0  0  0  0  0  0  0  0  0  0  0
   -8.5971   -4.3110   -7.6760 C   0  0  0  0  0  0  0  0  0  0  0  0
   -7.4900   -4.2973   -8.5268 C   0  0  0  0  0  0  0  0  0  0  0  0
   -6.4942   -5.2091   -8.3662 N   0  0  0  0  0  0  0  0  0  0  0  0
   -6.5369   -6.1462   -7.3832 C   0  0  0  0  0  0  0  0  0  0  0  0
   -5.6215   -8.4811   -1.1989 C   0  0  0  0  0  0  0  0  0  0  0  0
   -5.1651   -8.8301    0.0678 C   0  0  0  0  0  0  0  0  0  0  0  0
  1  2  1  0
  2  3  1  0
  3  4  2  0
  4  5  1  0
  5  6  2  0
  6  7  1  0
  7  8  1  0
  8  9  2  0
  8 10  2  0
  8 11  1  0
 11 12  1  0
 12 13  1  0
 13 14  2  0
 14 15  1  0
 15 16  2  0
 16 17  1  0
 17 18  2  0
  6 19  1  0
 19 20  2  0
 20  3  1  0
 18 13  1  0
M  END
>  <ref_url>  (23) 
 https://www.notion.so/asapdiscovery/d68-STRIFE-compounds

>  <submitter_name>  (23) 
Lucy Vost

>  <submitter_email>  (23) 
lucy.vost@gtc.ox.ac.uk

>  <submitter_institution>  (23) 
University of Oxford

>  <generation_date>  (23) 
2023-08-28

>  <method>  (23) 
STRIFE - fragment elaboration new frags

>  <ref_mols>  (23) 
x1084

>  <ref_pdb>  (23) 
d68/D68EV3CPROA_apo.pdb

>  <original SMILES>  (23) 
CS(=O)(=O)Nc1ccc(CN)cc1

$$$$
ver_1.2
     RDKit          3D

 20 21  0  0  0  0  0  0  0  0999 V2000
   -9.8916   -2.6555   -7.3152 C   0  0  0  0  0  0  0  0  0  0  0  0
   -9.1284   -3.9127   -7.0787 C   0  0  0  0  0  0  0  0  0  0  0  0
   -8.4419   -4.5671   -8.0363 N   0  0  0  0  0  0  0  0  0  0  0  0
   -7.9148   -5.6426   -7.4753 N   0  0  0  0  0  0  0  0  0  0  0  0
   -7.0931   -6.6066   -8.1987 C   0  0  0  0  0  0  0  0  0  0  0  0
   -8.2695   -5.6919   -6.1746 C   0  0  0  0  0  0  0  0  0  0  0  0
   -7.8309   -6.7308   -5.1959 C   0  0  0  0  0  0  0  0  0  0  0  0
   -6.9622   -5.9783   -3.8393 S   0  0  0  0  0  0  0  0  0  0  0  0
   -7.7246   -6.1339   -2.5569 O   0  0  0  0  0  0  0  0  0  0  0  0
   -6.8316   -4.5192   -4.1649 O   0  0  0  0  0  0  0  0  0  0  0  0
   -5.4177   -6.7363   -3.6378 C   0  0  0  0  0  0  0  0  0  0  0  0
   -4.9972   -7.4180   -2.4523 C   0  0  0  0  0  0  0  0  0  0  0  0
   -3.8196   -6.9997   -1.8250 C   0  0  0  0  0  0  0  0  0  0  0  0
   -3.4616   -7.5238   -0.5870 C   0  0  0  0  0  0  0  0  0  0  0  0
   -4.2844   -8.4666    0.0429 C   0  0  0  0  0  0  0  0  0  0  0  0
   -4.0175   -8.8438    1.4680 C   0  0  0  0  0  0  0  0  0  0  0  0
   -3.9313   -7.6444    2.2982 N   0  0  0  0  0  0  0  0  0  0  0  0
   -5.4126   -8.9574   -0.6226 C   0  0  0  0  0  0  0  0  0  0  0  0
   -5.7424   -8.4671   -1.8820 C   0  0  0  0  0  0  0  0  0  0  0  0
   -9.0520   -4.5946   -5.8796 C   0  0  0  0  0  0  0  0  0  0  0  0
  1  2  1  0
  2  3  2  0
  3  4  1  0
  4  5  1  0
  4  6  1  0
  6  7  1  0
  7  8  1  0
  8  9  2  0
  8 10  2  0
  8 11  1  0
 11 12  1  0
 12 13  2  0
 13 14  1  0
 14 15  2  0
 15 16  1  0
 16 17  3  0
 15 18  1  0
 18 19  2  0
  6 20  2  0
 20  2  1  0
 19 12  1  0
M  END
>  <ref_url>  (24) 
 https://www.notion.so/asapdiscovery/d68-STRIFE-compounds

>  <submitter_name>  (24) 
Lucy Vost

>  <submitter_email>  (24) 
lucy.vost@gtc.ox.ac.uk

>  <submitter_institution>  (24) 
University of Oxford

>  <generation_date>  (24) 
2023-08-28

>  <method>  (24) 
STRIFE - fragment elaboration new frags

>  <ref_mols>  (24) 
x1084

>  <ref_pdb>  (24) 
d68/D68EV3CPROA_apo.pdb

>  <original SMILES>  (24) 
CS(=O)(=O)Nc1ccc(CN)cc1

$$$$
ver_1.2
     RDKit          3D

 20 21  0  0  0  0  0  0  0  0999 V2000
   -3.9313   -7.6444    2.2982 C   0  0  0  0  0  0  0  0  0  0  0  0
   -4.0175   -8.8438    1.4680 O   0  0  0  0  0  0  0  0  0  0  0  0
   -4.2844   -8.4666    0.0429 C   0  0  0  0  0  0  0  0  0  0  0  0
   -3.4616   -7.5238   -0.5870 C   0  0  0  0  0  0  0  0  0  0  0  0
   -3.8196   -6.9997   -1.8250 C   0  0  0  0  0  0  0  0  0  0  0  0
   -4.9972   -7.4180   -2.4523 C   0  0  0  0  0  0  0  0  0  0  0  0
   -5.4177   -6.7363   -3.6378 C   0  0  0  0  0  0  0  0  0  0  0  0
   -6.9622   -5.9783   -3.8393 S   0  0  0  0  0  0  0  0  0  0  0  0
   -7.7246   -6.1339   -2.5569 O   0  0  0  0  0  0  0  0  0  0  0  0
   -6.8316   -4.5192   -4.1649 O   0  0  0  0  0  0  0  0  0  0  0  0
   -7.8309   -6.7308   -5.1959 C   0  0  0  0  0  0  0  0  0  0  0  0
   -8.2695   -5.6919   -6.1746 C   0  0  0  0  0  0  0  0  0  0  0  0
   -9.0520   -4.5946   -5.8796 C   0  0  0  0  0  0  0  0  0  0  0  0
   -9.1284   -3.9127   -7.0787 C   0  0  0  0  0  0  0  0  0  0  0  0
   -9.8916   -2.6555   -7.3152 C   0  0  0  0  0  0  0  0  0  0  0  0
   -8.4419   -4.5671   -8.0363 N   0  0  0  0  0  0  0  0  0  0  0  0
   -7.9148   -5.6426   -7.4753 N   0  0  0  0  0  0  0  0  0  0  0  0
   -7.0931   -6.6066   -8.1987 C   0  0  0  0  0  0  0  0  0  0  0  0
   -5.7424   -8.4671   -1.8820 C   0  0  0  0  0  0  0  0  0  0  0  0
   -5.4126   -8.9574   -0.6226 C   0  0  0  0  0  0  0  0  0  0  0  0
  1  2  1  0
  2  3  1  0
  3  4  2  0
  4  5  1  0
  5  6  2  0
  6  7  1  0
  7  8  1  0
  8  9  2  0
  8 10  2  0
  8 11  1  0
 11 12  1  0
 12 13  2  0
 13 14  1  0
 14 15  1  0
 14 16  2  0
 16 17  1  0
 17 18  1  0
  6 19  1  0
 19 20  2  0
 20  3  1  0
 17 12  1  0
M  END
>  <ref_url>  (25) 
 https://www.notion.so/asapdiscovery/d68-STRIFE-compounds

>  <submitter_name>  (25) 
Lucy Vost

>  <submitter_email>  (25) 
lucy.vost@gtc.ox.ac.uk

>  <submitter_institution>  (25) 
University of Oxford

>  <generation_date>  (25) 
2023-08-28

>  <method>  (25) 
STRIFE - fragment elaboration new frags

>  <ref_mols>  (25) 
x1084

>  <ref_pdb>  (25) 
d68/D68EV3CPROA_apo.pdb

>  <original SMILES>  (25) 
CS(=O)(=O)Nc1ccc(CN)cc1

$$$$
ver_1.2
     RDKit          3D

 20 21  0  0  0  0  0  0  0  0999 V2000
   -9.8916   -2.6555   -7.3152 C   0  0  0  0  0  0  0  0  0  0  0  0
   -9.1284   -3.9127   -7.0787 C   0  0  0  0  0  0  0  0  0  0  0  0
   -8.4419   -4.5671   -8.0363 N   0  0  0  0  0  0  0  0  0  0  0  0
   -7.9148   -5.6426   -7.4753 C   0  0  0  0  0  0  0  0  0  0  0  0
   -7.0931   -6.6066   -8.1987 C   0  0  0  0  0  0  0  0  0  0  0  0
   -8.2695   -5.6919   -6.1746 C   0  0  0  0  0  0  0  0  0  0  0  0
   -7.8309   -6.7308   -5.1959 C   0  0  0  0  0  0  0  0  0  0  0  0
   -6.9622   -5.9783   -3.8393 S   0  0  0  0  0  0  0  0  0  0  0  0
   -7.7246   -6.1339   -2.5569 O   0  0  0  0  0  0  0  0  0  0  0  0
   -6.8316   -4.5192   -4.1649 O   0  0  0  0  0  0  0  0  0  0  0  0
   -5.4177   -6.7363   -3.6378 C   0  0  0  0  0  0  0  0  0  0  0  0
   -4.9972   -7.4180   -2.4523 C   0  0  0  0  0  0  0  0  0  0  0  0
   -3.8196   -6.9997   -1.8250 C   0  0  0  0  0  0  0  0  0  0  0  0
   -3.4616   -7.5238   -0.5870 C   0  0  0  0  0  0  0  0  0  0  0  0
   -4.2844   -8.4666    0.0429 C   0  0  0  0  0  0  0  0  0  0  0  0
   -4.0175   -8.8438    1.4680 C   0  0  0  0  0  0  0  0  0  0  0  0
   -3.9313   -7.6444    2.2982 F   0  0  0  0  0  0  0  0  0  0  0  0
   -5.4126   -8.9574   -0.6226 C   0  0  0  0  0  0  0  0  0  0  0  0
   -5.7424   -8.4671   -1.8820 C   0  0  0  0  0  0  0  0  0  0  0  0
   -9.0520   -4.5946   -5.8796 S   0  0  0  0  0  0  0  0  0  0  0  0
  1  2  1  0
  2  3  2  0
  3  4  1  0
  4  5  1  0
  4  6  2  0
  6  7  1  0
  7  8  1  0
  8  9  2  0
  8 10  2  0
  8 11  1  0
 11 12  1  0
 12 13  2  0
 13 14  1  0
 14 15  2  0
 15 16  1  0
 16 17  1  0
 15 18  1  0
 18 19  2  0
  6 20  1  0
 20  2  1  0
 19 12  1  0
M  END
>  <ref_url>  (26) 
 https://www.notion.so/asapdiscovery/d68-STRIFE-compounds

>  <submitter_name>  (26) 
Lucy Vost

>  <submitter_email>  (26) 
lucy.vost@gtc.ox.ac.uk

>  <submitter_institution>  (26) 
University of Oxford

>  <generation_date>  (26) 
2023-08-28

>  <method>  (26) 
STRIFE - fragment elaboration new frags

>  <ref_mols>  (26) 
x1084

>  <ref_pdb>  (26) 
d68/D68EV3CPROA_apo.pdb

>  <original SMILES>  (26) 
CS(=O)(=O)Nc1ccc(CN)cc1

$$$$
ver_1.2
     RDKit          3D

 20 21  0  0  0  0  0  0  0  0999 V2000
   -9.8916   -2.6555   -7.3152 C   0  0  0  0  0  0  0  0  0  0  0  0
   -9.1284   -3.9127   -7.0787 C   0  0  0  0  0  0  0  0  0  0  0  0
   -8.4419   -4.5671   -8.0363 N   0  0  0  0  0  0  0  0  0  0  0  0
   -7.9148   -5.6426   -7.4753 C   0  0  0  0  0  0  0  0  0  0  0  0
   -7.0931   -6.6066   -8.1987 C   0  0  0  0  0  0  0  0  0  0  0  0
   -8.2695   -5.6919   -6.1746 C   0  0  0  0  0  0  0  0  0  0  0  0
   -7.8309   -6.7308   -5.1959 C   0  0  0  0  0  0  0  0  0  0  0  0
   -6.9622   -5.9783   -3.8393 S   0  0  0  0  0  0  0  0  0  0  0  0
   -7.7246   -6.1339   -2.5569 O   0  0  0  0  0  0  0  0  0  0  0  0
   -6.8316   -4.5192   -4.1649 O   0  0  0  0  0  0  0  0  0  0  0  0
   -5.4177   -6.7363   -3.6378 C   0  0  0  0  0  0  0  0  0  0  0  0
   -4.9972   -7.4180   -2.4523 C   0  0  0  0  0  0  0  0  0  0  0  0
   -3.8196   -6.9997   -1.8250 C   0  0  0  0  0  0  0  0  0  0  0  0
   -3.4616   -7.5238   -0.5870 C   0  0  0  0  0  0  0  0  0  0  0  0
   -4.2844   -8.4666    0.0429 C   0  0  0  0  0  0  0  0  0  0  0  0
   -4.0175   -8.8438    1.4680 C   0  0  0  0  0  0  0  0  0  0  0  0
   -3.9313   -7.6444    2.2982 O   0  0  0  0  0  0  0  0  0  0  0  0
   -5.4126   -8.9574   -0.6226 C   0  0  0  0  0  0  0  0  0  0  0  0
   -5.7424   -8.4671   -1.8820 C   0  0  0  0  0  0  0  0  0  0  0  0
   -9.0520   -4.5946   -5.8796 S   0  0  0  0  0  0  0  0  0  0  0  0
  1  2  1  0
  2  3  2  0
  3  4  1  0
  4  5  1  0
  4  6  2  0
  6  7  1  0
  7  8  1  0
  8  9  2  0
  8 10  2  0
  8 11  1  0
 11 12  1  0
 12 13  2  0
 13 14  1  0
 14 15  2  0
 15 16  1  0
 16 17  1  0
 15 18  1  0
 18 19  2  0
  6 20  1  0
 20  2  1  0
 19 12  1  0
M  END
>  <ref_url>  (27) 
 https://www.notion.so/asapdiscovery/d68-STRIFE-compounds

>  <submitter_name>  (27) 
Lucy Vost

>  <submitter_email>  (27) 
lucy.vost@gtc.ox.ac.uk

>  <submitter_institution>  (27) 
University of Oxford

>  <generation_date>  (27) 
2023-08-28

>  <method>  (27) 
STRIFE - fragment elaboration new frags

>  <ref_mols>  (27) 
x1084

>  <ref_pdb>  (27) 
d68/D68EV3CPROA_apo.pdb

>  <original SMILES>  (27) 
CS(=O)(=O)Nc1ccc(CN)cc1

$$$$
ver_1.2
     RDKit          3D

 19 20  0  0  0  0  0  0  0  0999 V2000
   -3.7798   -7.6006    2.5519 N   0  0  0  0  0  0  0  0  0  0  0  0
   -3.8411   -8.8092    1.7359 C   0  0  0  0  0  0  0  0  0  0  0  0
   -4.1124   -8.4283    0.3153 C   0  0  0  0  0  0  0  0  0  0  0  0
   -3.2167   -7.5866   -0.3572 C   0  0  0  0  0  0  0  0  0  0  0  0
   -3.5536   -7.0548   -1.5984 C   0  0  0  0  0  0  0  0  0  0  0  0
   -4.7839   -7.3639   -2.1872 C   0  0  0  0  0  0  0  0  0  0  0  0
   -5.1689   -6.6603   -3.3735 C   0  0  0  0  0  0  0  0  0  0  0  0
   -6.7126   -5.9165   -3.6162 S   0  0  0  0  0  0  0  0  0  0  0  0
   -7.4882   -6.0215   -2.3357 O   0  0  0  0  0  0  0  0  0  0  0  0
   -6.5838   -4.4726   -4.0085 O   0  0  0  0  0  0  0  0  0  0  0  0
   -7.5598   -6.7604   -4.9321 C   0  0  0  0  0  0  0  0  0  0  0  0
   -7.5322   -5.9245   -6.1769 C   0  0  0  0  0  0  0  0  0  0  0  0
   -6.8106   -6.3510   -7.2996 C   0  0  0  0  0  0  0  0  0  0  0  0
   -6.8102   -5.5796   -8.4618 C   0  0  0  0  0  0  0  0  0  0  0  0
   -7.5426   -4.3913   -8.4939 C   0  0  0  0  0  0  0  0  0  0  0  0
   -8.2516   -3.9975   -7.4025 N   0  0  0  0  0  0  0  0  0  0  0  0
   -8.2668   -4.7317   -6.2580 C   0  0  0  0  0  0  0  0  0  0  0  0
   -5.6143   -8.3216   -1.5745 C   0  0  0  0  0  0  0  0  0  0  0  0
   -5.3011   -8.8174   -0.3124 C   0  0  0  0  0  0  0  0  0  0  0  0
  1  2  3  0
  2  3  1  0
  3  4  2  0
  4  5  1  0
  5  6  2  0
  6  7  1  0
  7  8  1  0
  8  9  2  0
  8 10  2  0
  8 11  1  0
 11 12  1  0
 12 13  2  0
 13 14  1  0
 14 15  2  0
 15 16  1  0
 16 17  2  0
  6 18  1  0
 18 19  2  0
 19  3  1  0
 17 12  1  0
M  END
>  <ref_url>  (28) 
 https://www.notion.so/asapdiscovery/d68-STRIFE-compounds

>  <submitter_name>  (28) 
Lucy Vost

>  <submitter_email>  (28) 
lucy.vost@gtc.ox.ac.uk

>  <submitter_institution>  (28) 
University of Oxford

>  <generation_date>  (28) 
2023-08-28

>  <method>  (28) 
STRIFE - fragment elaboration new frags

>  <ref_mols>  (28) 
x1084

>  <ref_pdb>  (28) 
d68/D68EV3CPROA_apo.pdb

>  <original SMILES>  (28) 
CS(=O)(=O)Nc1ccc(CN)cc1

$$$$
ver_1.2
     RDKit          3D

 19 20  0  0  0  0  0  0  0  0999 V2000
   -3.7798   -7.6006    2.5519 C   0  0  0  0  0  0  0  0  0  0  0  0
   -3.8411   -8.8092    1.7359 O   0  0  0  0  0  0  0  0  0  0  0  0
   -4.1124   -8.4283    0.3153 C   0  0  0  0  0  0  0  0  0  0  0  0
   -5.3011   -8.8174   -0.3124 C   0  0  0  0  0  0  0  0  0  0  0  0
   -5.6143   -8.3216   -1.5745 C   0  0  0  0  0  0  0  0  0  0  0  0
   -4.7839   -7.3639   -2.1872 C   0  0  0  0  0  0  0  0  0  0  0  0
   -5.1689   -6.6603   -3.3735 C   0  0  0  0  0  0  0  0  0  0  0  0
   -6.7126   -5.9165   -3.6162 S   0  0  0  0  0  0  0  0  0  0  0  0
   -7.4882   -6.0215   -2.3357 O   0  0  0  0  0  0  0  0  0  0  0  0
   -6.5838   -4.4726   -4.0085 O   0  0  0  0  0  0  0  0  0  0  0  0
   -7.5598   -6.7604   -4.9321 C   0  0  0  0  0  0  0  0  0  0  0  0
   -7.5322   -5.9245   -6.1769 C   0  0  0  0  0  0  0  0  0  0  0  0
   -6.8106   -6.3510   -7.2996 C   0  0  0  0  0  0  0  0  0  0  0  0
   -6.8102   -5.5796   -8.4618 C   0  0  0  0  0  0  0  0  0  0  0  0
   -7.5426   -4.3913   -8.4939 C   0  0  0  0  0  0  0  0  0  0  0  0
   -8.2516   -3.9975   -7.4025 N   0  0  0  0  0  0  0  0  0  0  0  0
   -8.2668   -4.7317   -6.2580 C   0  0  0  0  0  0  0  0  0  0  0  0
   -3.5536   -7.0548   -1.5984 C   0  0  0  0  0  0  0  0  0  0  0  0
   -3.2167   -7.5866   -0.3572 C   0  0  0  0  0  0  0  0  0  0  0  0
  1  2  1  0
  2  3  1  0
  3  4  2  0
  4  5  1  0
  5  6  2  0
  6  7  1  0
  7  8  1  0
  8  9  2  0
  8 10  2  0
  8 11  1  0
 11 12  1  0
 12 13  2  0
 13 14  1  0
 14 15  2  0
 15 16  1  0
 16 17  2  0
  6 18  1  0
 18 19  2  0
 19  3  1  0
 17 12  1  0
M  END
>  <ref_url>  (29) 
 https://www.notion.so/asapdiscovery/d68-STRIFE-compounds

>  <submitter_name>  (29) 
Lucy Vost

>  <submitter_email>  (29) 
lucy.vost@gtc.ox.ac.uk

>  <submitter_institution>  (29) 
University of Oxford

>  <generation_date>  (29) 
2023-08-28

>  <method>  (29) 
STRIFE - fragment elaboration new frags

>  <ref_mols>  (29) 
x1084

>  <ref_pdb>  (29) 
d68/D68EV3CPROA_apo.pdb

>  <original SMILES>  (29) 
CS(=O)(=O)Nc1ccc(CN)cc1

$$$$
ver_1.2
     RDKit          3D

 19 20  0  0  0  0  0  0  0  0999 V2000
   -6.5838   -4.4726   -4.0085 O   0  0  0  0  0  0  0  0  0  0  0  0
   -6.7126   -5.9165   -3.6162 S   0  0  0  0  0  0  0  0  0  0  0  0
   -7.4882   -6.0215   -2.3357 O   0  0  0  0  0  0  0  0  0  0  0  0
   -7.5598   -6.7604   -4.9321 C   0  0  0  0  0  0  0  0  0  0  0  0
   -7.5322   -5.9245   -6.1769 C   0  0  0  0  0  0  0  0  0  0  0  0
   -6.8106   -6.3510   -7.2996 C   0  0  0  0  0  0  0  0  0  0  0  0
   -6.8102   -5.5796   -8.4618 C   0  0  0  0  0  0  0  0  0  0  0  0
   -7.5426   -4.3913   -8.4939 C   0  0  0  0  0  0  0  0  0  0  0  0
   -7.5160   -3.5492   -9.7318 C   0  0  0  0  0  0  0  0  0  0  0  0
   -8.5664   -3.9592  -10.5948 O   0  0  0  0  0  0  0  0  0  0  0  0
   -8.2516   -3.9975   -7.4025 C   0  0  0  0  0  0  0  0  0  0  0  0
   -8.2668   -4.7317   -6.2580 C   0  0  0  0  0  0  0  0  0  0  0  0
   -5.1689   -6.6603   -3.3735 C   0  0  0  0  0  0  0  0  0  0  0  0
   -4.7839   -7.3639   -2.1872 C   0  0  0  0  0  0  0  0  0  0  0  0
   -5.6143   -8.3216   -1.5745 C   0  0  0  0  0  0  0  0  0  0  0  0
   -5.3011   -8.8174   -0.3124 C   0  0  0  0  0  0  0  0  0  0  0  0
   -4.1124   -8.4283    0.3153 C   0  0  0  0  0  0  0  0  0  0  0  0
   -3.2167   -7.5866   -0.3572 N   0  0  0  0  0  0  0  0  0  0  0  0
   -3.5536   -7.0548   -1.5984 N   0  0  0  0  0  0  0  0  0  0  0  0
  1  2  2  0
  2  3  2  0
  2  4  1  0
  4  5  1  0
  5  6  2  0
  6  7  1  0
  7  8  2  0
  8  9  1  0
  9 10  1  0
  8 11  1  0
 11 12  2  0
  2 13  1  0
 13 14  1  0
 14 15  2  0
 15 16  1  0
 16 17  2  0
 17 18  1  0
 18 19  2  0
 12  5  1  0
 19 14  1  0
M  END
>  <ref_url>  (30) 
 https://www.notion.so/asapdiscovery/d68-STRIFE-compounds

>  <submitter_name>  (30) 
Lucy Vost

>  <submitter_email>  (30) 
lucy.vost@gtc.ox.ac.uk

>  <submitter_institution>  (30) 
University of Oxford

>  <generation_date>  (30) 
2023-08-28

>  <method>  (30) 
STRIFE - fragment elaboration new frags

>  <ref_mols>  (30) 
x1084

>  <ref_pdb>  (30) 
d68/D68EV3CPROA_apo.pdb

>  <original SMILES>  (30) 
CS(=O)(=O)Nc1ccc(CN)cc1

$$$$
ver_1.2
     RDKit          3D

 20 21  0  0  0  0  0  0  0  0999 V2000
  -10.1985   -3.3531   -6.7417 C   0  0  0  0  0  0  0  0  0  0  0  0
   -9.1792   -4.2357   -6.7896 N   0  0  0  0  0  0  0  0  0  0  0  0
   -8.5987   -4.8264   -5.7290 C   0  0  0  0  0  0  0  0  0  0  0  0
   -7.5887   -5.6573   -6.1754 C   0  0  0  0  0  0  0  0  0  0  0  0
   -6.7270   -6.5475   -5.3415 C   0  0  0  0  0  0  0  0  0  0  0  0
   -6.4863   -5.8232   -3.7365 S   0  0  0  0  0  0  0  0  0  0  0  0
   -7.5196   -6.3245   -2.7706 O   0  0  0  0  0  0  0  0  0  0  0  0
   -6.6178   -4.3347   -3.8854 O   0  0  0  0  0  0  0  0  0  0  0  0
   -4.9259   -6.2781   -3.1408 C   0  0  0  0  0  0  0  0  0  0  0  0
   -4.7034   -7.0677   -1.9670 C   0  0  0  0  0  0  0  0  0  0  0  0
   -3.4522   -7.0002   -1.3450 C   0  0  0  0  0  0  0  0  0  0  0  0
   -3.2488   -7.6108   -0.1105 C   0  0  0  0  0  0  0  0  0  0  0  0
   -4.2975   -8.2946    0.5180 C   0  0  0  0  0  0  0  0  0  0  0  0
   -4.1367   -8.7486    1.9332 C   0  0  0  0  0  0  0  0  0  0  0  0
   -3.7250   -7.6143    2.7529 F   0  0  0  0  0  0  0  0  0  0  0  0
   -5.5212   -8.4459   -0.1429 C   0  0  0  0  0  0  0  0  0  0  0  0
   -5.7084   -7.8717   -1.3968 C   0  0  0  0  0  0  0  0  0  0  0  0
   -7.5870   -5.5714   -7.5535 C   0  0  0  0  0  0  0  0  0  0  0  0
   -6.7727   -6.2465   -8.3999 Br  0  0  0  0  0  0  0  0  0  0  0  0
   -8.5759   -4.6799   -7.9070 N   0  0  0  0  0  0  0  0  0  0  0  0
  1  2  1  0
  2  3  1  0
  3  4  2  0
  4  5  1  0
  5  6  1  0
  6  7  2  0
  6  8  2  0
  6  9  1  0
  9 10  1  0
 10 11  2  0
 11 12  1  0
 12 13  2  0
 13 14  1  0
 14 15  1  0
 13 16  1  0
 16 17  2  0
  4 18  1  0
 18 19  1  0
 18 20  2  0
 20  2  1  0
 17 10  1  0
M  END
>  <ref_url>  (31) 
 https://www.notion.so/asapdiscovery/d68-STRIFE-compounds

>  <submitter_name>  (31) 
Lucy Vost

>  <submitter_email>  (31) 
lucy.vost@gtc.ox.ac.uk

>  <submitter_institution>  (31) 
University of Oxford

>  <generation_date>  (31) 
2023-08-28

>  <method>  (31) 
STRIFE - fragment elaboration new frags

>  <ref_mols>  (31) 
x1084

>  <ref_pdb>  (31) 
d68/D68EV3CPROA_apo.pdb

>  <original SMILES>  (31) 
CS(=O)(=O)Nc1ccc(CN)cc1

$$$$
ver_1.2
     RDKit          3D

 20 21  0  0  0  0  0  0  0  0999 V2000
  -10.1985   -3.3531   -6.7417 C   0  0  0  0  0  0  0  0  0  0  0  0
   -9.1792   -4.2357   -6.7896 N   0  0  0  0  0  0  0  0  0  0  0  0
   -8.5987   -4.8264   -5.7290 C   0  0  0  0  0  0  0  0  0  0  0  0
   -7.5887   -5.6573   -6.1754 C   0  0  0  0  0  0  0  0  0  0  0  0
   -6.7270   -6.5475   -5.3415 C   0  0  0  0  0  0  0  0  0  0  0  0
   -6.4863   -5.8232   -3.7365 S   0  0  0  0  0  0  0  0  0  0  0  0
   -6.6178   -4.3347   -3.8854 O   0  0  0  0  0  0  0  0  0  0  0  0
   -7.5196   -6.3245   -2.7706 O   0  0  0  0  0  0  0  0  0  0  0  0
   -4.9259   -6.2781   -3.1408 C   0  0  0  0  0  0  0  0  0  0  0  0
   -4.7034   -7.0677   -1.9670 C   0  0  0  0  0  0  0  0  0  0  0  0
   -3.4522   -7.0002   -1.3450 C   0  0  0  0  0  0  0  0  0  0  0  0
   -3.2488   -7.6108   -0.1105 C   0  0  0  0  0  0  0  0  0  0  0  0
   -4.2975   -8.2946    0.5180 C   0  0  0  0  0  0  0  0  0  0  0  0
   -4.1367   -8.7486    1.9332 C   0  0  0  0  0  0  0  0  0  0  0  0
   -3.7250   -7.6143    2.7529 O   0  0  0  0  0  0  0  0  0  0  0  0
   -5.5212   -8.4459   -0.1429 C   0  0  0  0  0  0  0  0  0  0  0  0
   -5.7084   -7.8717   -1.3968 C   0  0  0  0  0  0  0  0  0  0  0  0
   -7.5870   -5.5714   -7.5535 C   0  0  0  0  0  0  0  0  0  0  0  0
   -6.7727   -6.2465   -8.3999 Br  0  0  0  0  0  0  0  0  0  0  0  0
   -8.5759   -4.6799   -7.9070 N   0  0  0  0  0  0  0  0  0  0  0  0
  1  2  1  0
  2  3  1  0
  3  4  2  0
  4  5  1  0
  5  6  1  0
  6  7  2  0
  6  8  2  0
  6  9  1  0
  9 10  1  0
 10 11  2  0
 11 12  1  0
 12 13  2  0
 13 14  1  0
 14 15  1  0
 13 16  1  0
 16 17  2  0
  4 18  1  0
 18 19  1  0
 18 20  2  0
 20  2  1  0
 17 10  1  0
M  END
>  <ref_url>  (32) 
 https://www.notion.so/asapdiscovery/d68-STRIFE-compounds

>  <submitter_name>  (32) 
Lucy Vost

>  <submitter_email>  (32) 
lucy.vost@gtc.ox.ac.uk

>  <submitter_institution>  (32) 
University of Oxford

>  <generation_date>  (32) 
2023-08-28

>  <method>  (32) 
STRIFE - fragment elaboration new frags

>  <ref_mols>  (32) 
x1084

>  <ref_pdb>  (32) 
d68/D68EV3CPROA_apo.pdb

>  <original SMILES>  (32) 
CS(=O)(=O)Nc1ccc(CN)cc1

$$$$
ver_1.2
     RDKit          3D

 20 21  0  0  0  0  0  0  0  0999 V2000
   -6.7727   -6.2465   -8.3999 C   0  0  0  0  0  0  0  0  0  0  0  0
   -7.5870   -5.5714   -7.5535 C   0  0  0  0  0  0  0  0  0  0  0  0
   -8.5759   -4.6799   -7.9070 N   0  0  0  0  0  0  0  0  0  0  0  0
   -9.1792   -4.2357   -6.7896 N   0  0  0  0  0  0  0  0  0  0  0  0
  -10.1985   -3.3531   -6.7417 C   0  0  0  0  0  0  0  0  0  0  0  0
   -8.5987   -4.8264   -5.7290 C   0  0  0  0  0  0  0  0  0  0  0  0
   -7.5887   -5.6573   -6.1754 C   0  0  0  0  0  0  0  0  0  0  0  0
   -6.7270   -6.5475   -5.3415 C   0  0  0  0  0  0  0  0  0  0  0  0
   -6.4863   -5.8232   -3.7365 S   0  0  0  0  0  0  0  0  0  0  0  0
   -7.5196   -6.3245   -2.7706 O   0  0  0  0  0  0  0  0  0  0  0  0
   -6.6178   -4.3347   -3.8854 O   0  0  0  0  0  0  0  0  0  0  0  0
   -4.9259   -6.2781   -3.1408 C   0  0  0  0  0  0  0  0  0  0  0  0
   -4.7034   -7.0677   -1.9670 C   0  0  0  0  0  0  0  0  0  0  0  0
   -3.4522   -7.0002   -1.3450 C   0  0  0  0  0  0  0  0  0  0  0  0
   -3.2488   -7.6108   -0.1105 C   0  0  0  0  0  0  0  0  0  0  0  0
   -4.2975   -8.2946    0.5180 C   0  0  0  0  0  0  0  0  0  0  0  0
   -4.1367   -8.7486    1.9332 C   0  0  0  0  0  0  0  0  0  0  0  0
   -3.7250   -7.6143    2.7529 O   0  0  0  0  0  0  0  0  0  0  0  0
   -5.5212   -8.4459   -0.1429 C   0  0  0  0  0  0  0  0  0  0  0  0
   -5.7084   -7.8717   -1.3968 C   0  0  0  0  0  0  0  0  0  0  0  0
  1  2  1  0
  2  3  2  0
  3  4  1  0
  4  5  1  0
  4  6  1  0
  6  7  2  0
  7  8  1  0
  8  9  1  0
  9 10  2  0
  9 11  2  0
  9 12  1  0
 12 13  1  0
 13 14  2  0
 14 15  1  0
 15 16  2  0
 16 17  1  0
 17 18  1  0
 16 19  1  0
 19 20  2  0
  7  2  1  0
 20 13  1  0
M  END
>  <ref_url>  (33) 
 https://www.notion.so/asapdiscovery/d68-STRIFE-compounds

>  <submitter_name>  (33) 
Lucy Vost

>  <submitter_email>  (33) 
lucy.vost@gtc.ox.ac.uk

>  <submitter_institution>  (33) 
University of Oxford

>  <generation_date>  (33) 
2023-08-28

>  <method>  (33) 
STRIFE - fragment elaboration new frags

>  <ref_mols>  (33) 
x1084

>  <ref_pdb>  (33) 
d68/D68EV3CPROA_apo.pdb

>  <original SMILES>  (33) 
CS(=O)(=O)Nc1ccc(CN)cc1

$$$$
ver_1.2
     RDKit          3D

 21 22  0  0  0  0  0  0  0  0999 V2000
   -6.4902   -5.2104   -9.2363 C   0  0  0  0  0  0  0  0  0  0  0  0
   -6.8484   -5.7427   -8.1533 O   0  0  0  0  0  0  0  0  0  0  0  0
   -7.9174   -5.1374   -7.3226 C   0  0  0  0  0  0  0  0  0  0  0  0
   -8.7759   -4.1793   -7.8973 C   0  0  0  0  0  0  0  0  0  0  0  0
   -9.7749   -3.5688   -7.1372 C   0  0  0  0  0  0  0  0  0  0  0  0
   -9.9322   -3.8999   -5.7936 C   0  0  0  0  0  0  0  0  0  0  0  0
   -9.0962   -4.8472   -5.2061 C   0  0  0  0  0  0  0  0  0  0  0  0
   -8.0938   -5.4859   -5.9569 C   0  0  0  0  0  0  0  0  0  0  0  0
   -7.2126   -6.4805   -5.2444 C   0  0  0  0  0  0  0  0  0  0  0  0
   -6.6307   -5.7878   -3.7127 S   0  0  0  0  0  0  0  0  0  0  0  0
   -7.6089   -6.0773   -2.6122 O   0  0  0  0  0  0  0  0  0  0  0  0
   -6.4959   -4.3019   -3.8852 O   0  0  0  0  0  0  0  0  0  0  0  0
   -5.1232   -6.5299   -3.3001 N   0  0  0  0  0  0  0  0  0  0  0  0
   -4.8865   -7.2752   -2.1011 C   0  0  0  0  0  0  0  0  0  0  0  0
   -3.6953   -7.0524   -1.4032 C   0  0  0  0  0  0  0  0  0  0  0  0
   -3.4988   -7.6259   -0.1511 C   0  0  0  0  0  0  0  0  0  0  0  0
   -4.4979   -8.4220    0.4231 C   0  0  0  0  0  0  0  0  0  0  0  0
   -4.3779   -8.8347    1.8584 C   0  0  0  0  0  0  0  0  0  0  0  0
   -3.7955   -7.7507    2.6467 N   0  0  0  0  0  0  0  0  0  0  0  0
   -5.6501   -8.7253   -0.3101 C   0  0  0  0  0  0  0  0  0  0  0  0
   -5.8231   -8.1898   -1.5828 C   0  0  0  0  0  0  0  0  0  0  0  0
  1  2  1  0
  2  3  1  0
  3  4  2  0
  4  5  1  0
  5  6  2  0
  6  7  1  0
  7  8  2  0
  8  9  1  0
  9 10  1  0
 10 11  2  0
 10 12  2  0
 10 13  1  0
 13 14  1  0
 14 15  2  0
 15 16  1  0
 16 17  2  0
 17 18  1  0
 18 19  1  0
 17 20  1  0
 20 21  2  0
  8  3  1  0
 21 14  1  0
M  END
>  <ref_url>  (34) 
 https://www.notion.so/asapdiscovery/d68-STRIFE-compounds

>  <submitter_name>  (34) 
Lucy Vost

>  <submitter_email>  (34) 
lucy.vost@gtc.ox.ac.uk

>  <submitter_institution>  (34) 
University of Oxford

>  <generation_date>  (34) 
2023-08-28

>  <method>  (34) 
STRIFE - fragment elaboration new frags

>  <ref_mols>  (34) 
x1084

>  <ref_pdb>  (34) 
d68/D68EV3CPROA_apo.pdb

>  <original SMILES>  (34) 
CS(=O)(=O)Nc1ccc(CN)cc1

$$$$
ver_1.2
     RDKit          3D

 21 22  0  0  0  0  0  0  0  0999 V2000
   -3.7955   -7.7507    2.6467 C   0  0  0  0  0  0  0  0  0  0  0  0
   -4.3779   -8.8347    1.8584 C   0  0  0  0  0  0  0  0  0  0  0  0
   -4.4979   -8.4220    0.4231 C   0  0  0  0  0  0  0  0  0  0  0  0
   -3.4988   -7.6259   -0.1511 C   0  0  0  0  0  0  0  0  0  0  0  0
   -3.6953   -7.0524   -1.4032 C   0  0  0  0  0  0  0  0  0  0  0  0
   -4.8865   -7.2752   -2.1011 C   0  0  0  0  0  0  0  0  0  0  0  0
   -5.1232   -6.5299   -3.3001 C   0  0  0  0  0  0  0  0  0  0  0  0
   -6.6307   -5.7878   -3.7127 S   0  0  0  0  0  0  0  0  0  0  0  0
   -7.6089   -6.0773   -2.6122 O   0  0  0  0  0  0  0  0  0  0  0  0
   -6.4959   -4.3019   -3.8852 O   0  0  0  0  0  0  0  0  0  0  0  0
   -7.2126   -6.4805   -5.2444 C   0  0  0  0  0  0  0  0  0  0  0  0
   -8.0938   -5.4859   -5.9569 C   0  0  0  0  0  0  0  0  0  0  0  0
   -9.0962   -4.8472   -5.2061 C   0  0  0  0  0  0  0  0  0  0  0  0
   -9.9322   -3.8999   -5.7936 C   0  0  0  0  0  0  0  0  0  0  0  0
   -9.7749   -3.5688   -7.1372 C   0  0  0  0  0  0  0  0  0  0  0  0
   -8.7759   -4.1793   -7.8973 C   0  0  0  0  0  0  0  0  0  0  0  0
   -7.9174   -5.1374   -7.3226 C   0  0  0  0  0  0  0  0  0  0  0  0
   -6.8484   -5.7427   -8.1533 O   0  0  0  0  0  0  0  0  0  0  0  0
   -6.4902   -5.2104   -9.2363 C   0  0  0  0  0  0  0  0  0  0  0  0
   -5.8231   -8.1898   -1.5828 C   0  0  0  0  0  0  0  0  0  0  0  0
   -5.6501   -8.7253   -0.3101 C   0  0  0  0  0  0  0  0  0  0  0  0
  1  2  1  0
  2  3  1  0
  3  4  2  0
  4  5  1  0
  5  6  2  0
  6  7  1  0
  7  8  1  0
  8  9  2  0
  8 10  2  0
  8 11  1  0
 11 12  1  0
 12 13  2  0
 13 14  1  0
 14 15  2  0
 15 16  1  0
 16 17  2  0
 17 18  1  0
 18 19  1  0
  6 20  1  0
 20 21  2  0
 21  3  1  0
 17 12  1  0
M  END
>  <ref_url>  (35) 
 https://www.notion.so/asapdiscovery/d68-STRIFE-compounds

>  <submitter_name>  (35) 
Lucy Vost

>  <submitter_email>  (35) 
lucy.vost@gtc.ox.ac.uk

>  <submitter_institution>  (35) 
University of Oxford

>  <generation_date>  (35) 
2023-08-28

>  <method>  (35) 
STRIFE - fragment elaboration new frags

>  <ref_mols>  (35) 
x1084

>  <ref_pdb>  (35) 
d68/D68EV3CPROA_apo.pdb

>  <original SMILES>  (35) 
CS(=O)(=O)Nc1ccc(CN)cc1

$$$$
ver_1.2
     RDKit          3D

 21 22  0  0  0  0  0  0  0  0999 V2000
   -6.4902   -5.2104   -9.2363 C   0  0  0  0  0  0  0  0  0  0  0  0
   -6.8484   -5.7427   -8.1533 O   0  0  0  0  0  0  0  0  0  0  0  0
   -7.9174   -5.1374   -7.3226 C   0  0  0  0  0  0  0  0  0  0  0  0
   -8.7759   -4.1793   -7.8973 C   0  0  0  0  0  0  0  0  0  0  0  0
   -9.7749   -3.5688   -7.1372 C   0  0  0  0  0  0  0  0  0  0  0  0
   -9.9322   -3.8999   -5.7936 C   0  0  0  0  0  0  0  0  0  0  0  0
   -9.0962   -4.8472   -5.2061 C   0  0  0  0  0  0  0  0  0  0  0  0
   -8.0938   -5.4859   -5.9569 C   0  0  0  0  0  0  0  0  0  0  0  0
   -7.2126   -6.4805   -5.2444 C   0  0  0  0  0  0  0  0  0  0  0  0
   -6.6307   -5.7878   -3.7127 S   0  0  0  0  0  0  0  0  0  0  0  0
   -7.6089   -6.0773   -2.6122 O   0  0  0  0  0  0  0  0  0  0  0  0
   -6.4959   -4.3019   -3.8852 O   0  0  0  0  0  0  0  0  0  0  0  0
   -5.1232   -6.5299   -3.3001 C   0  0  0  0  0  0  0  0  0  0  0  0
   -4.8865   -7.2752   -2.1011 C   0  0  0  0  0  0  0  0  0  0  0  0
   -3.6953   -7.0524   -1.4032 C   0  0  0  0  0  0  0  0  0  0  0  0
   -3.4988   -7.6259   -0.1511 C   0  0  0  0  0  0  0  0  0  0  0  0
   -4.4979   -8.4220    0.4231 C   0  0  0  0  0  0  0  0  0  0  0  0
   -4.3779   -8.8347    1.8584 C   0  0  0  0  0  0  0  0  0  0  0  0
   -3.7955   -7.7507    2.6467 F   0  0  0  0  0  0  0  0  0  0  0  0
   -5.6501   -8.7253   -0.3101 C   0  0  0  0  0  0  0  0  0  0  0  0
   -5.8231   -8.1898   -1.5828 C   0  0  0  0  0  0  0  0  0  0  0  0
  1  2  1  0
  2  3  1  0
  3  4  2  0
  4  5  1  0
  5  6  2  0
  6  7  1  0
  7  8  2  0
  8  9  1  0
  9 10  1  0
 10 11  2  0
 10 12  2  0
 10 13  1  0
 13 14  1  0
 14 15  2  0
 15 16  1  0
 16 17  2  0
 17 18  1  0
 18 19  1  0
 17 20  1  0
 20 21  2  0
  8  3  1  0
 21 14  1  0
M  END
>  <ref_url>  (36) 
 https://www.notion.so/asapdiscovery/d68-STRIFE-compounds

>  <submitter_name>  (36) 
Lucy Vost

>  <submitter_email>  (36) 
lucy.vost@gtc.ox.ac.uk

>  <submitter_institution>  (36) 
University of Oxford

>  <generation_date>  (36) 
2023-08-28

>  <method>  (36) 
STRIFE - fragment elaboration new frags

>  <ref_mols>  (36) 
x1084

>  <ref_pdb>  (36) 
d68/D68EV3CPROA_apo.pdb

>  <original SMILES>  (36) 
CS(=O)(=O)Nc1ccc(CN)cc1

$$$$
ver_1.2
     RDKit          3D

 21 22  0  0  0  0  0  0  0  0999 V2000
   -6.4902   -5.2104   -9.2363 C   0  0  0  0  0  0  0  0  0  0  0  0
   -6.8484   -5.7427   -8.1533 O   0  0  0  0  0  0  0  0  0  0  0  0
   -7.9174   -5.1374   -7.3226 C   0  0  0  0  0  0  0  0  0  0  0  0
   -8.7759   -4.1793   -7.8973 C   0  0  0  0  0  0  0  0  0  0  0  0
   -9.7749   -3.5688   -7.1372 C   0  0  0  0  0  0  0  0  0  0  0  0
   -9.9322   -3.8999   -5.7936 C   0  0  0  0  0  0  0  0  0  0  0  0
   -9.0962   -4.8472   -5.2061 C   0  0  0  0  0  0  0  0  0  0  0  0
   -8.0938   -5.4859   -5.9569 C   0  0  0  0  0  0  0  0  0  0  0  0
   -7.2126   -6.4805   -5.2444 C   0  0  0  0  0  0  0  0  0  0  0  0
   -6.6307   -5.7878   -3.7127 S   0  0  0  0  0  0  0  0  0  0  0  0
   -7.6089   -6.0773   -2.6122 O   0  0  0  0  0  0  0  0  0  0  0  0
   -6.4959   -4.3019   -3.8852 O   0  0  0  0  0  0  0  0  0  0  0  0
   -5.1232   -6.5299   -3.3001 C   0  0  0  0  0  0  0  0  0  0  0  0
   -4.8865   -7.2752   -2.1011 C   0  0  0  0  0  0  0  0  0  0  0  0
   -3.6953   -7.0524   -1.4032 C   0  0  0  0  0  0  0  0  0  0  0  0
   -3.4988   -7.6259   -0.1511 C   0  0  0  0  0  0  0  0  0  0  0  0
   -4.4979   -8.4220    0.4231 C   0  0  0  0  0  0  0  0  0  0  0  0
   -4.3779   -8.8347    1.8584 C   0  0  0  0  0  0  0  0  0  0  0  0
   -3.7955   -7.7507    2.6467 O   0  0  0  0  0  0  0  0  0  0  0  0
   -5.6501   -8.7253   -0.3101 C   0  0  0  0  0  0  0  0  0  0  0  0
   -5.8231   -8.1898   -1.5828 C   0  0  0  0  0  0  0  0  0  0  0  0
  1  2  1  0
  2  3  1  0
  3  4  2  0
  4  5  1  0
  5  6  2  0
  6  7  1  0
  7  8  2  0
  8  9  1  0
  9 10  1  0
 10 11  2  0
 10 12  2  0
 10 13  1  0
 13 14  1  0
 14 15  2  0
 15 16  1  0
 16 17  2  0
 17 18  1  0
 18 19  1  0
 17 20  1  0
 20 21  2  0
  8  3  1  0
 21 14  1  0
M  END
>  <ref_url>  (37) 
 https://www.notion.so/asapdiscovery/d68-STRIFE-compounds

>  <submitter_name>  (37) 
Lucy Vost

>  <submitter_email>  (37) 
lucy.vost@gtc.ox.ac.uk

>  <submitter_institution>  (37) 
University of Oxford

>  <generation_date>  (37) 
2023-08-28

>  <method>  (37) 
STRIFE - fragment elaboration new frags

>  <ref_mols>  (37) 
x1084

>  <ref_pdb>  (37) 
d68/D68EV3CPROA_apo.pdb

>  <original SMILES>  (37) 
CS(=O)(=O)Nc1ccc(CN)cc1

$$$$
ver_1.2
     RDKit          3D

 21 22  0  0  0  0  0  0  0  0999 V2000
   -6.4902   -5.2104   -9.2363 C   0  0  0  0  0  0  0  0  0  0  0  0
   -6.8484   -5.7427   -8.1533 O   0  0  0  0  0  0  0  0  0  0  0  0
   -7.9174   -5.1374   -7.3226 C   0  0  0  0  0  0  0  0  0  0  0  0
   -8.7759   -4.1793   -7.8973 C   0  0  0  0  0  0  0  0  0  0  0  0
   -9.7749   -3.5688   -7.1372 C   0  0  0  0  0  0  0  0  0  0  0  0
   -9.9322   -3.8999   -5.7936 C   0  0  0  0  0  0  0  0  0  0  0  0
   -9.0962   -4.8472   -5.2061 C   0  0  0  0  0  0  0  0  0  0  0  0
   -8.0938   -5.4859   -5.9569 C   0  0  0  0  0  0  0  0  0  0  0  0
   -7.2126   -6.4805   -5.2444 C   0  0  0  0  0  0  0  0  0  0  0  0
   -6.6307   -5.7878   -3.7127 S   0  0  0  0  0  0  0  0  0  0  0  0
   -6.4959   -4.3019   -3.8852 O   0  0  0  0  0  0  0  0  0  0  0  0
   -7.6089   -6.0773   -2.6122 O   0  0  0  0  0  0  0  0  0  0  0  0
   -5.1232   -6.5299   -3.3001 C   0  0  0  0  0  0  0  0  0  0  0  0
   -4.8865   -7.2752   -2.1011 C   0  0  0  0  0  0  0  0  0  0  0  0
   -3.6953   -7.0524   -1.4032 C   0  0  0  0  0  0  0  0  0  0  0  0
   -3.4988   -7.6259   -0.1511 C   0  0  0  0  0  0  0  0  0  0  0  0
   -4.4979   -8.4220    0.4231 C   0  0  0  0  0  0  0  0  0  0  0  0
   -4.3779   -8.8347    1.8584 C   0  0  0  0  0  0  0  0  0  0  0  0
   -3.7955   -7.7507    2.6467 N   0  0  0  0  0  0  0  0  0  0  0  0
   -5.6501   -8.7253   -0.3101 C   0  0  0  0  0  0  0  0  0  0  0  0
   -5.8231   -8.1898   -1.5828 C   0  0  0  0  0  0  0  0  0  0  0  0
  1  2  1  0
  2  3  1  0
  3  4  2  0
  4  5  1  0
  5  6  2  0
  6  7  1  0
  7  8  2  0
  8  9  1  0
  9 10  1  0
 10 11  2  0
 10 12  2  0
 10 13  1  0
 13 14  1  0
 14 15  2  0
 15 16  1  0
 16 17  2  0
 17 18  1  0
 18 19  3  0
 17 20  1  0
 20 21  2  0
  8  3  1  0
 21 14  1  0
M  END
>  <ref_url>  (38) 
 https://www.notion.so/asapdiscovery/d68-STRIFE-compounds

>  <submitter_name>  (38) 
Lucy Vost

>  <submitter_email>  (38) 
lucy.vost@gtc.ox.ac.uk

>  <submitter_institution>  (38) 
University of Oxford

>  <generation_date>  (38) 
2023-08-28

>  <method>  (38) 
STRIFE - fragment elaboration new frags

>  <ref_mols>  (38) 
x1084

>  <ref_pdb>  (38) 
d68/D68EV3CPROA_apo.pdb

>  <original SMILES>  (38) 
CS(=O)(=O)Nc1ccc(CN)cc1

$$$$
ver_1.2
     RDKit          3D

 18 18  0  0  0  0  0  0  0  0999 V2000
   -6.5679   -6.0832   -8.4304 C   0  0  0  0  0  0  0  0  0  0  0  0
   -7.1639   -4.9747   -8.3850 N   0  0  0  0  0  0  0  0  0  0  0  0
   -6.6668   -3.8927   -9.0979 C   0  0  0  0  0  0  0  0  0  0  0  0
   -8.4346   -4.8245   -7.6148 C   0  0  0  0  0  0  0  0  0  0  0  0
   -8.1571   -4.7879   -6.1080 C   0  0  0  0  0  0  0  0  0  0  0  0
   -7.3645   -6.0003   -5.6114 C   0  0  0  0  0  0  0  0  0  0  0  0
   -6.7774   -5.7868   -3.9418 S   0  0  0  0  0  0  0  0  0  0  0  0
   -6.5094   -4.3211   -3.7625 O   0  0  0  0  0  0  0  0  0  0  0  0
   -7.8032   -6.2204   -2.9372 O   0  0  0  0  0  0  0  0  0  0  0  0
   -5.3497   -6.7369   -3.6936 N   0  0  0  0  0  0  0  0  0  0  0  0
   -5.0068   -7.3746   -2.4616 C   0  0  0  0  0  0  0  0  0  0  0  0
   -3.8131   -7.0110   -1.8307 C   0  0  0  0  0  0  0  0  0  0  0  0
   -3.5153   -7.5003   -0.5628 C   0  0  0  0  0  0  0  0  0  0  0  0
   -4.4146   -8.3522    0.0916 C   0  0  0  0  0  0  0  0  0  0  0  0
   -4.2000   -8.6822    1.5369 C   0  0  0  0  0  0  0  0  0  0  0  0
   -3.7819   -7.4883    2.2683 N   0  0  0  0  0  0  0  0  0  0  0  0
   -5.5643   -8.7912   -0.5733 C   0  0  0  0  0  0  0  0  0  0  0  0
   -5.8364   -8.3378   -1.8593 C   0  0  0  0  0  0  0  0  0  0  0  0
  1  2  1  0
  2  3  1  0
  2  4  1  0
  4  5  1  0
  5  6  1  0
  6  7  1  0
  7  8  2  0
  7  9  2  0
  7 10  1  0
 10 11  1  0
 11 12  2  0
 12 13  1  0
 13 14  2  0
 14 15  1  0
 15 16  1  0
 14 17  1  0
 17 18  2  0
 18 11  1  0
M  END
>  <ref_url>  (39) 
 https://www.notion.so/asapdiscovery/d68-STRIFE-compounds

>  <submitter_name>  (39) 
Lucy Vost

>  <submitter_email>  (39) 
lucy.vost@gtc.ox.ac.uk

>  <submitter_institution>  (39) 
University of Oxford

>  <generation_date>  (39) 
2023-08-28

>  <method>  (39) 
STRIFE - fragment elaboration new frags

>  <ref_mols>  (39) 
x1084

>  <ref_pdb>  (39) 
d68/D68EV3CPROA_apo.pdb

>  <original SMILES>  (39) 
CS(=O)(=O)Nc1ccc(CN)cc1

$$$$
ver_1.2
     RDKit          3D

 18 18  0  0  0  0  0  0  0  0999 V2000
   -6.5679   -6.0832   -8.4304 C   0  0  0  0  0  0  0  0  0  0  0  0
   -7.1639   -4.9747   -8.3850 C   0  0  0  0  0  0  0  0  0  0  0  0
   -6.6668   -3.8927   -9.0979 C   0  0  0  0  0  0  0  0  0  0  0  0
   -8.4346   -4.8245   -7.6148 O   0  0  0  0  0  0  0  0  0  0  0  0
   -8.1571   -4.7879   -6.1080 C   0  0  0  0  0  0  0  0  0  0  0  0
   -7.3645   -6.0003   -5.6114 C   0  0  0  0  0  0  0  0  0  0  0  0
   -6.7774   -5.7868   -3.9418 S   0  0  0  0  0  0  0  0  0  0  0  0
   -7.8032   -6.2204   -2.9372 O   0  0  0  0  0  0  0  0  0  0  0  0
   -6.5094   -4.3211   -3.7625 O   0  0  0  0  0  0  0  0  0  0  0  0
   -5.3497   -6.7369   -3.6936 N   0  0  0  0  0  0  0  0  0  0  0  0
   -5.0068   -7.3746   -2.4616 C   0  0  0  0  0  0  0  0  0  0  0  0
   -3.8131   -7.0110   -1.8307 C   0  0  0  0  0  0  0  0  0  0  0  0
   -3.5153   -7.5003   -0.5628 C   0  0  0  0  0  0  0  0  0  0  0  0
   -4.4146   -8.3522    0.0916 C   0  0  0  0  0  0  0  0  0  0  0  0
   -4.2000   -8.6822    1.5369 C   0  0  0  0  0  0  0  0  0  0  0  0
   -3.7819   -7.4883    2.2683 N   0  0  0  0  0  0  0  0  0  0  0  0
   -5.5643   -8.7912   -0.5733 C   0  0  0  0  0  0  0  0  0  0  0  0
   -5.8364   -8.3378   -1.8593 C   0  0  0  0  0  0  0  0  0  0  0  0
  1  2  1  0
  2  3  1  0
  2  4  1  0
  4  5  1  0
  5  6  1  0
  6  7  1  0
  7  8  2  0
  7  9  2  0
  7 10  1  0
 10 11  1  0
 11 12  2  0
 12 13  1  0
 13 14  2  0
 14 15  1  0
 15 16  1  0
 14 17  1  0
 17 18  2  0
 18 11  1  0
M  END
>  <ref_url>  (40) 
 https://www.notion.so/asapdiscovery/d68-STRIFE-compounds

>  <submitter_name>  (40) 
Lucy Vost

>  <submitter_email>  (40) 
lucy.vost@gtc.ox.ac.uk

>  <submitter_institution>  (40) 
University of Oxford

>  <generation_date>  (40) 
2023-08-28

>  <method>  (40) 
STRIFE - fragment elaboration new frags

>  <ref_mols>  (40) 
x1084

>  <ref_pdb>  (40) 
d68/D68EV3CPROA_apo.pdb

>  <original SMILES>  (40) 
CS(=O)(=O)Nc1ccc(CN)cc1

$$$$
ver_1.2
     RDKit          3D

 18 18  0  0  0  0  0  0  0  0999 V2000
   -3.7819   -7.4883    2.2683 C   0  0  0  0  0  0  0  0  0  0  0  0
   -4.2000   -8.6822    1.5369 C   0  0  0  0  0  0  0  0  0  0  0  0
   -4.4146   -8.3522    0.0916 C   0  0  0  0  0  0  0  0  0  0  0  0
   -3.5153   -7.5003   -0.5628 C   0  0  0  0  0  0  0  0  0  0  0  0
   -3.8131   -7.0110   -1.8307 C   0  0  0  0  0  0  0  0  0  0  0  0
   -5.0068   -7.3746   -2.4616 C   0  0  0  0  0  0  0  0  0  0  0  0
   -5.3497   -6.7369   -3.6936 C   0  0  0  0  0  0  0  0  0  0  0  0
   -6.7774   -5.7868   -3.9418 S   0  0  0  0  0  0  0  0  0  0  0  0
   -7.8032   -6.2204   -2.9372 O   0  0  0  0  0  0  0  0  0  0  0  0
   -6.5094   -4.3211   -3.7625 O   0  0  0  0  0  0  0  0  0  0  0  0
   -7.3645   -6.0003   -5.6114 N   0  0  0  0  0  0  0  0  0  0  0  0
   -8.1571   -4.7879   -6.1080 C   0  0  0  0  0  0  0  0  0  0  0  0
   -8.4346   -4.8245   -7.6148 C   0  0  0  0  0  0  0  0  0  0  0  0
   -7.1639   -4.9747   -8.3850 C   0  0  0  0  0  0  0  0  0  0  0  0
   -6.5679   -6.0832   -8.4304 O   0  0  0  0  0  0  0  0  0  0  0  0
   -6.6668   -3.8927   -9.0979 O   0  0  0  0  0  0  0  0  0  0  0  0
   -5.8364   -8.3378   -1.8593 C   0  0  0  0  0  0  0  0  0  0  0  0
   -5.5643   -8.7912   -0.5733 C   0  0  0  0  0  0  0  0  0  0  0  0
  1  2  1  0
  2  3  1  0
  3  4  2  0
  4  5  1  0
  5  6  2  0
  6  7  1  0
  7  8  1  0
  8  9  2  0
  8 10  2  0
  8 11  1  0
 11 12  1  0
 12 13  1  0
 13 14  1  0
 14 15  2  0
 14 16  1  0
  6 17  1  0
 17 18  2  0
 18  3  1  0
M  END
>  <ref_url>  (41) 
 https://www.notion.so/asapdiscovery/d68-STRIFE-compounds

>  <submitter_name>  (41) 
Lucy Vost

>  <submitter_email>  (41) 
lucy.vost@gtc.ox.ac.uk

>  <submitter_institution>  (41) 
University of Oxford

>  <generation_date>  (41) 
2023-08-28

>  <method>  (41) 
STRIFE - fragment elaboration new frags

>  <ref_mols>  (41) 
x1084

>  <ref_pdb>  (41) 
d68/D68EV3CPROA_apo.pdb

>  <original SMILES>  (41) 
CS(=O)(=O)Nc1ccc(CN)cc1

$$$$
ver_1.2
     RDKit          3D

 18 18  0  0  0  0  0  0  0  0999 V2000
   -6.6668   -3.8927   -9.0979 C   0  0  0  0  0  0  0  0  0  0  0  0
   -7.1639   -4.9747   -8.3850 C   0  0  0  0  0  0  0  0  0  0  0  0
   -6.5679   -6.0832   -8.4304 O   0  0  0  0  0  0  0  0  0  0  0  0
   -8.4346   -4.8245   -7.6148 N   0  0  0  0  0  0  0  0  0  0  0  0
   -8.1571   -4.7879   -6.1080 C   0  0  0  0  0  0  0  0  0  0  0  0
   -7.3645   -6.0003   -5.6114 C   0  0  0  0  0  0  0  0  0  0  0  0
   -6.7774   -5.7868   -3.9418 S   0  0  0  0  0  0  0  0  0  0  0  0
   -6.5094   -4.3211   -3.7625 O   0  0  0  0  0  0  0  0  0  0  0  0
   -7.8032   -6.2204   -2.9372 O   0  0  0  0  0  0  0  0  0  0  0  0
   -5.3497   -6.7369   -3.6936 C   0  0  0  0  0  0  0  0  0  0  0  0
   -5.0068   -7.3746   -2.4616 C   0  0  0  0  0  0  0  0  0  0  0  0
   -3.8131   -7.0110   -1.8307 C   0  0  0  0  0  0  0  0  0  0  0  0
   -3.5153   -7.5003   -0.5628 C   0  0  0  0  0  0  0  0  0  0  0  0
   -4.4146   -8.3522    0.0916 C   0  0  0  0  0  0  0  0  0  0  0  0
   -4.2000   -8.6822    1.5369 C   0  0  0  0  0  0  0  0  0  0  0  0
   -3.7819   -7.4883    2.2683 F   0  0  0  0  0  0  0  0  0  0  0  0
   -5.5643   -8.7912   -0.5733 C   0  0  0  0  0  0  0  0  0  0  0  0
   -5.8364   -8.3378   -1.8593 C   0  0  0  0  0  0  0  0  0  0  0  0
  1  2  1  0
  2  3  2  0
  2  4  1  0
  4  5  1  0
  5  6  1  0
  6  7  1  0
  7  8  2  0
  7  9  2  0
  7 10  1  0
 10 11  1  0
 11 12  2  0
 12 13  1  0
 13 14  2  0
 14 15  1  0
 15 16  1  0
 14 17  1  0
 17 18  2  0
 18 11  1  0
M  END
>  <ref_url>  (42) 
 https://www.notion.so/asapdiscovery/d68-STRIFE-compounds

>  <submitter_name>  (42) 
Lucy Vost

>  <submitter_email>  (42) 
lucy.vost@gtc.ox.ac.uk

>  <submitter_institution>  (42) 
University of Oxford

>  <generation_date>  (42) 
2023-08-28

>  <method>  (42) 
STRIFE - fragment elaboration new frags

>  <ref_mols>  (42) 
x1084

>  <ref_pdb>  (42) 
d68/D68EV3CPROA_apo.pdb

>  <original SMILES>  (42) 
CS(=O)(=O)Nc1ccc(CN)cc1

$$$$
ver_1.2
     RDKit          3D

 18 18  0  0  0  0  0  0  0  0999 V2000
   -6.6668   -3.8927   -9.0979 C   0  0  0  0  0  0  0  0  0  0  0  0
   -7.1639   -4.9747   -8.3850 C   0  0  0  0  0  0  0  0  0  0  0  0
   -6.5679   -6.0832   -8.4304 O   0  0  0  0  0  0  0  0  0  0  0  0
   -8.4346   -4.8245   -7.6148 N   0  0  0  0  0  0  0  0  0  0  0  0
   -8.1571   -4.7879   -6.1080 C   0  0  0  0  0  0  0  0  0  0  0  0
   -7.3645   -6.0003   -5.6114 C   0  0  0  0  0  0  0  0  0  0  0  0
   -6.7774   -5.7868   -3.9418 S   0  0  0  0  0  0  0  0  0  0  0  0
   -6.5094   -4.3211   -3.7625 O   0  0  0  0  0  0  0  0  0  0  0  0
   -7.8032   -6.2204   -2.9372 O   0  0  0  0  0  0  0  0  0  0  0  0
   -5.3497   -6.7369   -3.6936 C   0  0  0  0  0  0  0  0  0  0  0  0
   -5.0068   -7.3746   -2.4616 C   0  0  0  0  0  0  0  0  0  0  0  0
   -3.8131   -7.0110   -1.8307 C   0  0  0  0  0  0  0  0  0  0  0  0
   -3.5153   -7.5003   -0.5628 C   0  0  0  0  0  0  0  0  0  0  0  0
   -4.4146   -8.3522    0.0916 C   0  0  0  0  0  0  0  0  0  0  0  0
   -4.2000   -8.6822    1.5369 C   0  0  0  0  0  0  0  0  0  0  0  0
   -3.7819   -7.4883    2.2683 O   0  0  0  0  0  0  0  0  0  0  0  0
   -5.5643   -8.7912   -0.5733 C   0  0  0  0  0  0  0  0  0  0  0  0
   -5.8364   -8.3378   -1.8593 C   0  0  0  0  0  0  0  0  0  0  0  0
  1  2  1  0
  2  3  2  0
  2  4  1  0
  4  5  1  0
  5  6  1  0
  6  7  1  0
  7  8  2  0
  7  9  2  0
  7 10  1  0
 10 11  1  0
 11 12  2  0
 12 13  1  0
 13 14  2  0
 14 15  1  0
 15 16  1  0
 14 17  1  0
 17 18  2  0
 18 11  1  0
M  END
>  <ref_url>  (43) 
 https://www.notion.so/asapdiscovery/d68-STRIFE-compounds

>  <submitter_name>  (43) 
Lucy Vost

>  <submitter_email>  (43) 
lucy.vost@gtc.ox.ac.uk

>  <submitter_institution>  (43) 
University of Oxford

>  <generation_date>  (43) 
2023-08-28

>  <method>  (43) 
STRIFE - fragment elaboration new frags

>  <ref_mols>  (43) 
x1084

>  <ref_pdb>  (43) 
d68/D68EV3CPROA_apo.pdb

>  <original SMILES>  (43) 
CS(=O)(=O)Nc1ccc(CN)cc1

$$$$
ver_1.2
     RDKit          3D

 18 18  0  0  0  0  0  0  0  0999 V2000
   -3.7819   -7.4883    2.2683 C   0  0  0  0  0  0  0  0  0  0  0  0
   -4.2000   -8.6822    1.5369 C   0  0  0  0  0  0  0  0  0  0  0  0
   -4.4146   -8.3522    0.0916 C   0  0  0  0  0  0  0  0  0  0  0  0
   -3.5153   -7.5003   -0.5628 C   0  0  0  0  0  0  0  0  0  0  0  0
   -3.8131   -7.0110   -1.8307 C   0  0  0  0  0  0  0  0  0  0  0  0
   -5.0068   -7.3746   -2.4616 C   0  0  0  0  0  0  0  0  0  0  0  0
   -5.3497   -6.7369   -3.6936 C   0  0  0  0  0  0  0  0  0  0  0  0
   -6.7774   -5.7868   -3.9418 S   0  0  0  0  0  0  0  0  0  0  0  0
   -7.8032   -6.2204   -2.9372 O   0  0  0  0  0  0  0  0  0  0  0  0
   -6.5094   -4.3211   -3.7625 O   0  0  0  0  0  0  0  0  0  0  0  0
   -7.3645   -6.0003   -5.6114 C   0  0  0  0  0  0  0  0  0  0  0  0
   -8.1571   -4.7879   -6.1080 C   0  0  0  0  0  0  0  0  0  0  0  0
   -8.4346   -4.8245   -7.6148 N   0  0  0  0  0  0  0  0  0  0  0  0
   -7.1639   -4.9747   -8.3850 C   0  0  0  0  0  0  0  0  0  0  0  0
   -6.6668   -3.8927   -9.0979 C   0  0  0  0  0  0  0  0  0  0  0  0
   -6.5679   -6.0832   -8.4304 O   0  0  0  0  0  0  0  0  0  0  0  0
   -5.8364   -8.3378   -1.8593 C   0  0  0  0  0  0  0  0  0  0  0  0
   -5.5643   -8.7912   -0.5733 C   0  0  0  0  0  0  0  0  0  0  0  0
  1  2  1  0
  2  3  1  0
  3  4  2  0
  4  5  1  0
  5  6  2  0
  6  7  1  0
  7  8  1  0
  8  9  2  0
  8 10  2  0
  8 11  1  0
 11 12  1  0
 12 13  1  0
 13 14  1  0
 14 15  1  0
 14 16  2  0
  6 17  1  0
 17 18  2  0
 18  3  1  0
M  END
>  <ref_url>  (44) 
 https://www.notion.so/asapdiscovery/d68-STRIFE-compounds

>  <submitter_name>  (44) 
Lucy Vost

>  <submitter_email>  (44) 
lucy.vost@gtc.ox.ac.uk

>  <submitter_institution>  (44) 
University of Oxford

>  <generation_date>  (44) 
2023-08-28

>  <method>  (44) 
STRIFE - fragment elaboration new frags

>  <ref_mols>  (44) 
x1084

>  <ref_pdb>  (44) 
d68/D68EV3CPROA_apo.pdb

>  <original SMILES>  (44) 
CS(=O)(=O)Nc1ccc(CN)cc1

$$$$
ver_1.2
     RDKit          3D

 19 20  0  0  0  0  0  0  0  0999 V2000
   -3.7955   -7.5921    2.5509 N   0  0  0  0  0  0  0  0  0  0  0  0
   -3.8451   -8.7979    1.7278 C   0  0  0  0  0  0  0  0  0  0  0  0
   -4.1530   -8.4378    0.3090 C   0  0  0  0  0  0  0  0  0  0  0  0
   -3.2634   -7.6244   -0.4068 C   0  0  0  0  0  0  0  0  0  0  0  0
   -3.6371   -7.1045   -1.6407 C   0  0  0  0  0  0  0  0  0  0  0  0
   -4.8980   -7.4022   -2.1664 C   0  0  0  0  0  0  0  0  0  0  0  0
   -5.3038   -6.7716   -3.3683 N   0  0  0  0  0  0  0  0  0  0  0  0
   -6.8138   -5.9272   -3.5712 S   0  0  0  0  0  0  0  0  0  0  0  0
   -7.4555   -5.8318   -2.2162 O   0  0  0  0  0  0  0  0  0  0  0  0
   -6.6466   -4.5641   -4.1607 O   0  0  0  0  0  0  0  0  0  0  0  0
   -7.8606   -6.9013   -4.6252 C   0  0  0  0  0  0  0  0  0  0  0  0
   -7.9946   -6.0741   -5.9003 C   0  0  0  0  0  0  0  0  0  0  0  0
   -8.8331   -4.8204   -5.8108 C   0  0  0  0  0  0  0  0  0  0  0  0
   -8.9774   -4.2292   -7.2154 C   0  0  0  0  0  0  0  0  0  0  0  0
   -7.6988   -4.0870   -7.8054 O   0  0  0  0  0  0  0  0  0  0  0  0
   -7.1621   -5.3586   -8.1195 C   0  0  0  0  0  0  0  0  0  0  0  0
   -6.7994   -6.1009   -6.8335 C   0  0  0  0  0  0  0  0  0  0  0  0
   -5.7268   -8.3216   -1.5115 C   0  0  0  0  0  0  0  0  0  0  0  0
   -5.3760   -8.8048   -0.2609 C   0  0  0  0  0  0  0  0  0  0  0  0
  1  2  1  0
  2  3  1  0
  3  4  2  0
  4  5  1  0
  5  6  2  0
  6  7  1  0
  7  8  1  0
  8  9  2  0
  8 10  2  0
  8 11  1  0
 11 12  1  0
 12 13  1  0
 13 14  1  0
 14 15  1  0
 15 16  1  0
 16 17  1  0
  6 18  1  0
 18 19  2  0
 19  3  1  0
 17 12  1  0
M  END
>  <ref_url>  (45) 
 https://www.notion.so/asapdiscovery/d68-STRIFE-compounds

>  <submitter_name>  (45) 
Lucy Vost

>  <submitter_email>  (45) 
lucy.vost@gtc.ox.ac.uk

>  <submitter_institution>  (45) 
University of Oxford

>  <generation_date>  (45) 
2023-08-28

>  <method>  (45) 
STRIFE - fragment elaboration new frags

>  <ref_mols>  (45) 
x1084

>  <ref_pdb>  (45) 
d68/D68EV3CPROA_apo.pdb

>  <original SMILES>  (45) 
CS(=O)(=O)Nc1ccc(CN)cc1

$$$$
ver_1.2
     RDKit          3D

 19 20  0  0  0  0  0  0  0  0999 V2000
   -3.7955   -7.5921    2.5509 N   0  0  0  0  0  0  0  0  0  0  0  0
   -3.8451   -8.7979    1.7278 C   0  0  0  0  0  0  0  0  0  0  0  0
   -4.1530   -8.4378    0.3090 C   0  0  0  0  0  0  0  0  0  0  0  0
   -5.3760   -8.8048   -0.2609 C   0  0  0  0  0  0  0  0  0  0  0  0
   -5.7268   -8.3216   -1.5115 C   0  0  0  0  0  0  0  0  0  0  0  0
   -4.8980   -7.4022   -2.1664 C   0  0  0  0  0  0  0  0  0  0  0  0
   -5.3038   -6.7716   -3.3683 N   0  0  0  0  0  0  0  0  0  0  0  0
   -6.8138   -5.9272   -3.5712 S   0  0  0  0  0  0  0  0  0  0  0  0
   -7.4555   -5.8318   -2.2162 O   0  0  0  0  0  0  0  0  0  0  0  0
   -6.6466   -4.5641   -4.1607 O   0  0  0  0  0  0  0  0  0  0  0  0
   -7.8606   -6.9013   -4.6252 C   0  0  0  0  0  0  0  0  0  0  0  0
   -7.9946   -6.0741   -5.9003 C   0  0  0  0  0  0  0  0  0  0  0  0
   -8.8331   -4.8204   -5.8108 C   0  0  0  0  0  0  0  0  0  0  0  0
   -8.9774   -4.2292   -7.2154 C   0  0  0  0  0  0  0  0  0  0  0  0
   -7.6988   -4.0870   -7.8054 N   0  0  0  0  0  0  0  0  0  0  0  0
   -7.1621   -5.3586   -8.1195 C   0  0  0  0  0  0  0  0  0  0  0  0
   -6.7994   -6.1009   -6.8335 C   0  0  0  0  0  0  0  0  0  0  0  0
   -3.6371   -7.1045   -1.6407 C   0  0  0  0  0  0  0  0  0  0  0  0
   -3.2634   -7.6244   -0.4068 C   0  0  0  0  0  0  0  0  0  0  0  0
  1  2  1  0
  2  3  1  0
  3  4  2  0
  4  5  1  0
  5  6  2  0
  6  7  1  0
  7  8  1  0
  8  9  2  0
  8 10  2  0
  8 11  1  0
 11 12  1  0
 12 13  1  0
 13 14  1  0
 14 15  1  0
 15 16  1  0
 16 17  1  0
  6 18  1  0
 18 19  2  0
 19  3  1  0
 17 12  1  0
M  END
>  <ref_url>  (46) 
 https://www.notion.so/asapdiscovery/d68-STRIFE-compounds

>  <submitter_name>  (46) 
Lucy Vost

>  <submitter_email>  (46) 
lucy.vost@gtc.ox.ac.uk

>  <submitter_institution>  (46) 
University of Oxford

>  <generation_date>  (46) 
2023-08-28

>  <method>  (46) 
STRIFE - fragment elaboration new frags

>  <ref_mols>  (46) 
x1084

>  <ref_pdb>  (46) 
d68/D68EV3CPROA_apo.pdb

>  <original SMILES>  (46) 
CS(=O)(=O)Nc1ccc(CN)cc1

$$$$
ver_1.2
     RDKit          3D

 19 20  0  0  0  0  0  0  0  0999 V2000
   -3.7955   -7.5921    2.5509 C   0  0  0  0  0  0  0  0  0  0  0  0
   -3.8451   -8.7979    1.7278 C   0  0  0  0  0  0  0  0  0  0  0  0
   -4.1530   -8.4378    0.3090 C   0  0  0  0  0  0  0  0  0  0  0  0
   -3.2634   -7.6244   -0.4068 C   0  0  0  0  0  0  0  0  0  0  0  0
   -3.6371   -7.1045   -1.6407 C   0  0  0  0  0  0  0  0  0  0  0  0
   -4.8980   -7.4022   -2.1664 C   0  0  0  0  0  0  0  0  0  0  0  0
   -5.3038   -6.7716   -3.3683 C   0  0  0  0  0  0  0  0  0  0  0  0
   -6.8138   -5.9272   -3.5712 S   0  0  0  0  0  0  0  0  0  0  0  0
   -7.4555   -5.8318   -2.2162 O   0  0  0  0  0  0  0  0  0  0  0  0
   -6.6466   -4.5641   -4.1607 O   0  0  0  0  0  0  0  0  0  0  0  0
   -7.8606   -6.9013   -4.6252 C   0  0  0  0  0  0  0  0  0  0  0  0
   -7.9946   -6.0741   -5.9003 C   0  0  0  0  0  0  0  0  0  0  0  0
   -8.8331   -4.8204   -5.8108 C   0  0  0  0  0  0  0  0  0  0  0  0
   -8.9774   -4.2292   -7.2154 C   0  0  0  0  0  0  0  0  0  0  0  0
   -7.6988   -4.0870   -7.8054 O   0  0  0  0  0  0  0  0  0  0  0  0
   -7.1621   -5.3586   -8.1195 C   0  0  0  0  0  0  0  0  0  0  0  0
   -6.7994   -6.1009   -6.8335 C   0  0  0  0  0  0  0  0  0  0  0  0
   -5.7268   -8.3216   -1.5115 C   0  0  0  0  0  0  0  0  0  0  0  0
   -5.3760   -8.8048   -0.2609 C   0  0  0  0  0  0  0  0  0  0  0  0
  1  2  1  0
  2  3  1  0
  3  4  2  0
  4  5  1  0
  5  6  2  0
  6  7  1  0
  7  8  1  0
  8  9  2  0
  8 10  2  0
  8 11  1  0
 11 12  1  0
 12 13  1  0
 13 14  1  0
 14 15  1  0
 15 16  1  0
 16 17  1  0
  6 18  1  0
 18 19  2  0
 19  3  1  0
 17 12  1  0
M  END
>  <ref_url>  (47) 
 https://www.notion.so/asapdiscovery/d68-STRIFE-compounds

>  <submitter_name>  (47) 
Lucy Vost

>  <submitter_email>  (47) 
lucy.vost@gtc.ox.ac.uk

>  <submitter_institution>  (47) 
University of Oxford

>  <generation_date>  (47) 
2023-08-28

>  <method>  (47) 
STRIFE - fragment elaboration new frags

>  <ref_mols>  (47) 
x1084

>  <ref_pdb>  (47) 
d68/D68EV3CPROA_apo.pdb

>  <original SMILES>  (47) 
CS(=O)(=O)Nc1ccc(CN)cc1

$$$$
ver_1.2
     RDKit          3D

 19 20  0  0  0  0  0  0  0  0999 V2000
   -3.7955   -7.5921    2.5509 C   0  0  0  0  0  0  0  0  0  0  0  0
   -3.8451   -8.7979    1.7278 C   0  0  0  0  0  0  0  0  0  0  0  0
   -4.1530   -8.4378    0.3090 C   0  0  0  0  0  0  0  0  0  0  0  0
   -3.2634   -7.6244   -0.4068 C   0  0  0  0  0  0  0  0  0  0  0  0
   -3.6371   -7.1045   -1.6407 C   0  0  0  0  0  0  0  0  0  0  0  0
   -4.8980   -7.4022   -2.1664 C   0  0  0  0  0  0  0  0  0  0  0  0
   -5.3038   -6.7716   -3.3683 O   0  0  0  0  0  0  0  0  0  0  0  0
   -6.8138   -5.9272   -3.5712 S   0  0  0  0  0  0  0  0  0  0  0  0
   -7.4555   -5.8318   -2.2162 O   0  0  0  0  0  0  0  0  0  0  0  0
   -6.6466   -4.5641   -4.1607 O   0  0  0  0  0  0  0  0  0  0  0  0
   -7.8606   -6.9013   -4.6252 C   0  0  0  0  0  0  0  0  0  0  0  0
   -7.9946   -6.0741   -5.9003 C   0  0  0  0  0  0  0  0  0  0  0  0
   -8.8331   -4.8204   -5.8108 C   0  0  0  0  0  0  0  0  0  0  0  0
   -8.9774   -4.2292   -7.2154 C   0  0  0  0  0  0  0  0  0  0  0  0
   -7.6988   -4.0870   -7.8054 O   0  0  0  0  0  0  0  0  0  0  0  0
   -7.1621   -5.3586   -8.1195 C   0  0  0  0  0  0  0  0  0  0  0  0
   -6.7994   -6.1009   -6.8335 C   0  0  0  0  0  0  0  0  0  0  0  0
   -5.7268   -8.3216   -1.5115 C   0  0  0  0  0  0  0  0  0  0  0  0
   -5.3760   -8.8048   -0.2609 C   0  0  0  0  0  0  0  0  0  0  0  0
  1  2  1  0
  2  3  1  0
  3  4  2  0
  4  5  1  0
  5  6  2  0
  6  7  1  0
  7  8  1  0
  8  9  2  0
  8 10  2  0
  8 11  1  0
 11 12  1  0
 12 13  1  0
 13 14  1  0
 14 15  1  0
 15 16  1  0
 16 17  1  0
  6 18  1  0
 18 19  2  0
 19  3  1  0
 17 12  1  0
M  END
>  <ref_url>  (48) 
 https://www.notion.so/asapdiscovery/d68-STRIFE-compounds

>  <submitter_name>  (48) 
Lucy Vost

>  <submitter_email>  (48) 
lucy.vost@gtc.ox.ac.uk

>  <submitter_institution>  (48) 
University of Oxford

>  <generation_date>  (48) 
2023-08-28

>  <method>  (48) 
STRIFE - fragment elaboration new frags

>  <ref_mols>  (48) 
x1084

>  <ref_pdb>  (48) 
d68/D68EV3CPROA_apo.pdb

>  <original SMILES>  (48) 
CS(=O)(=O)Nc1ccc(CN)cc1

$$$$
ver_1.2
     RDKit          3D

 19 20  0  0  0  0  0  0  0  0999 V2000
   -3.7955   -7.5921    2.5509 N   0  0  0  0  0  0  0  0  0  0  0  0
   -3.8451   -8.7979    1.7278 C   0  0  0  0  0  0  0  0  0  0  0  0
   -4.1530   -8.4378    0.3090 C   0  0  0  0  0  0  0  0  0  0  0  0
   -3.2634   -7.6244   -0.4068 C   0  0  0  0  0  0  0  0  0  0  0  0
   -3.6371   -7.1045   -1.6407 C   0  0  0  0  0  0  0  0  0  0  0  0
   -4.8980   -7.4022   -2.1664 C   0  0  0  0  0  0  0  0  0  0  0  0
   -5.3038   -6.7716   -3.3683 N   0  0  0  0  0  0  0  0  0  0  0  0
   -6.8138   -5.9272   -3.5712 S   0  0  0  0  0  0  0  0  0  0  0  0
   -6.6466   -4.5641   -4.1607 O   0  0  0  0  0  0  0  0  0  0  0  0
   -7.4555   -5.8318   -2.2162 O   0  0  0  0  0  0  0  0  0  0  0  0
   -7.8606   -6.9013   -4.6252 C   0  0  0  0  0  0  0  0  0  0  0  0
   -7.9946   -6.0741   -5.9003 C   0  0  0  0  0  0  0  0  0  0  0  0
   -6.7994   -6.1009   -6.8335 C   0  0  0  0  0  0  0  0  0  0  0  0
   -7.1621   -5.3586   -8.1195 C   0  0  0  0  0  0  0  0  0  0  0  0
   -7.6988   -4.0870   -7.8054 C   0  0  0  0  0  0  0  0  0  0  0  0
   -8.9774   -4.2292   -7.2154 O   0  0  0  0  0  0  0  0  0  0  0  0
   -8.8331   -4.8204   -5.8108 C   0  0  0  0  0  0  0  0  0  0  0  0
   -5.7268   -8.3216   -1.5115 C   0  0  0  0  0  0  0  0  0  0  0  0
   -5.3760   -8.8048   -0.2609 C   0  0  0  0  0  0  0  0  0  0  0  0
  1  2  1  0
  2  3  1  0
  3  4  2  0
  4  5  1  0
  5  6  2  0
  6  7  1  0
  7  8  1  0
  8  9  2  0
  8 10  2  0
  8 11  1  0
 11 12  1  0
 12 13  1  0
 13 14  1  0
 14 15  1  0
 15 16  1  0
 16 17  1  0
  6 18  1  0
 18 19  2  0
 19  3  1  0
 17 12  1  0
M  END
>  <ref_url>  (49) 
 https://www.notion.so/asapdiscovery/d68-STRIFE-compounds

>  <submitter_name>  (49) 
Lucy Vost

>  <submitter_email>  (49) 
lucy.vost@gtc.ox.ac.uk

>  <submitter_institution>  (49) 
University of Oxford

>  <generation_date>  (49) 
2023-08-28

>  <method>  (49) 
STRIFE - fragment elaboration new frags

>  <ref_mols>  (49) 
x1084

>  <ref_pdb>  (49) 
d68/D68EV3CPROA_apo.pdb

>  <original SMILES>  (49) 
CS(=O)(=O)Nc1ccc(CN)cc1

$$$$
ver_1.2
     RDKit          3D

 19 20  0  0  0  0  0  0  0  0999 V2000
   -7.4555   -5.8318   -2.2162 O   0  0  0  0  0  0  0  0  0  0  0  0
   -6.8138   -5.9272   -3.5712 S   0  0  0  0  0  0  0  0  0  0  0  0
   -6.6466   -4.5641   -4.1607 O   0  0  0  0  0  0  0  0  0  0  0  0
   -5.3038   -6.7716   -3.3683 C   0  0  0  0  0  0  0  0  0  0  0  0
   -4.8980   -7.4022   -2.1664 C   0  0  0  0  0  0  0  0  0  0  0  0
   -3.6371   -7.1045   -1.6407 C   0  0  0  0  0  0  0  0  0  0  0  0
   -3.2634   -7.6244   -0.4068 C   0  0  0  0  0  0  0  0  0  0  0  0
   -4.1530   -8.4378    0.3090 C   0  0  0  0  0  0  0  0  0  0  0  0
   -3.8451   -8.7979    1.7278 C   0  0  0  0  0  0  0  0  0  0  0  0
   -3.7955   -7.5921    2.5509 F   0  0  0  0  0  0  0  0  0  0  0  0
   -5.3760   -8.8048   -0.2609 C   0  0  0  0  0  0  0  0  0  0  0  0
   -5.7268   -8.3216   -1.5115 C   0  0  0  0  0  0  0  0  0  0  0  0
   -7.8606   -6.9013   -4.6252 C   0  0  0  0  0  0  0  0  0  0  0  0
   -7.9946   -6.0741   -5.9003 C   0  0  0  0  0  0  0  0  0  0  0  0
   -6.7994   -6.1009   -6.8335 C   0  0  0  0  0  0  0  0  0  0  0  0
   -7.1621   -5.3586   -8.1195 C   0  0  0  0  0  0  0  0  0  0  0  0
   -7.6988   -4.0870   -7.8054 O   0  0  0  0  0  0  0  0  0  0  0  0
   -8.9774   -4.2292   -7.2154 C   0  0  0  0  0  0  0  0  0  0  0  0
   -8.8331   -4.8204   -5.8108 C   0  0  0  0  0  0  0  0  0  0  0  0
  1  2  2  0
  2  3  2  0
  2  4  1  0
  4  5  1  0
  5  6  2  0
  6  7  1  0
  7  8  2  0
  8  9  1  0
  9 10  1  0
  8 11  1  0
 11 12  2  0
  2 13  1  0
 13 14  1  0
 14 15  1  0
 15 16  1  0
 16 17  1  0
 17 18  1  0
 18 19  1  0
 12  5  1  0
 19 14  1  0
M  END
>  <ref_url>  (50) 
 https://www.notion.so/asapdiscovery/d68-STRIFE-compounds

>  <submitter_name>  (50) 
Lucy Vost

>  <submitter_email>  (50) 
lucy.vost@gtc.ox.ac.uk

>  <submitter_institution>  (50) 
University of Oxford

>  <generation_date>  (50) 
2023-08-28

>  <method>  (50) 
STRIFE - fragment elaboration new frags

>  <ref_mols>  (50) 
x1084

>  <ref_pdb>  (50) 
d68/D68EV3CPROA_apo.pdb

>  <original SMILES>  (50) 
CS(=O)(=O)Nc1ccc(CN)cc1

$$$$
ver_1.2
     RDKit          3D

 19 20  0  0  0  0  0  0  0  0999 V2000
   -7.4555   -5.8318   -2.2162 O   0  0  0  0  0  0  0  0  0  0  0  0
   -6.8138   -5.9272   -3.5712 S   0  0  0  0  0  0  0  0  0  0  0  0
   -6.6466   -4.5641   -4.1607 O   0  0  0  0  0  0  0  0  0  0  0  0
   -5.3038   -6.7716   -3.3683 C   0  0  0  0  0  0  0  0  0  0  0  0
   -4.8980   -7.4022   -2.1664 C   0  0  0  0  0  0  0  0  0  0  0  0
   -3.6371   -7.1045   -1.6407 C   0  0  0  0  0  0  0  0  0  0  0  0
   -3.2634   -7.6244   -0.4068 C   0  0  0  0  0  0  0  0  0  0  0  0
   -4.1530   -8.4378    0.3090 C   0  0  0  0  0  0  0  0  0  0  0  0
   -3.8451   -8.7979    1.7278 C   0  0  0  0  0  0  0  0  0  0  0  0
   -3.7955   -7.5921    2.5509 O   0  0  0  0  0  0  0  0  0  0  0  0
   -5.3760   -8.8048   -0.2609 C   0  0  0  0  0  0  0  0  0  0  0  0
   -5.7268   -8.3216   -1.5115 C   0  0  0  0  0  0  0  0  0  0  0  0
   -7.8606   -6.9013   -4.6252 C   0  0  0  0  0  0  0  0  0  0  0  0
   -7.9946   -6.0741   -5.9003 C   0  0  0  0  0  0  0  0  0  0  0  0
   -6.7994   -6.1009   -6.8335 C   0  0  0  0  0  0  0  0  0  0  0  0
   -7.1621   -5.3586   -8.1195 C   0  0  0  0  0  0  0  0  0  0  0  0
   -7.6988   -4.0870   -7.8054 O   0  0  0  0  0  0  0  0  0  0  0  0
   -8.9774   -4.2292   -7.2154 C   0  0  0  0  0  0  0  0  0  0  0  0
   -8.8331   -4.8204   -5.8108 C   0  0  0  0  0  0  0  0  0  0  0  0
  1  2  2  0
  2  3  2  0
  2  4  1  0
  4  5  1  0
  5  6  2  0
  6  7  1  0
  7  8  2  0
  8  9  1  0
  9 10  1  0
  8 11  1  0
 11 12  2  0
  2 13  1  0
 13 14  1  0
 14 15  1  0
 15 16  1  0
 16 17  1  0
 17 18  1  0
 18 19  1  0
 12  5  1  0
 19 14  1  0
M  END
>  <ref_url>  (51) 
 https://www.notion.so/asapdiscovery/d68-STRIFE-compounds

>  <submitter_name>  (51) 
Lucy Vost

>  <submitter_email>  (51) 
lucy.vost@gtc.ox.ac.uk

>  <submitter_institution>  (51) 
University of Oxford

>  <generation_date>  (51) 
2023-08-28

>  <method>  (51) 
STRIFE - fragment elaboration new frags

>  <ref_mols>  (51) 
x1084

>  <ref_pdb>  (51) 
d68/D68EV3CPROA_apo.pdb

>  <original SMILES>  (51) 
CS(=O)(=O)Nc1ccc(CN)cc1

$$$$
ver_1.2
     RDKit          3D

 19 20  0  0  0  0  0  0  0  0999 V2000
   -3.7955   -7.5921    2.5509 N   0  0  0  0  0  0  0  0  0  0  0  0
   -3.8451   -8.7979    1.7278 C   0  0  0  0  0  0  0  0  0  0  0  0
   -4.1530   -8.4378    0.3090 C   0  0  0  0  0  0  0  0  0  0  0  0
   -5.3760   -8.8048   -0.2609 C   0  0  0  0  0  0  0  0  0  0  0  0
   -5.7268   -8.3216   -1.5115 C   0  0  0  0  0  0  0  0  0  0  0  0
   -4.8980   -7.4022   -2.1664 C   0  0  0  0  0  0  0  0  0  0  0  0
   -5.3038   -6.7716   -3.3683 C   0  0  0  0  0  0  0  0  0  0  0  0
   -6.8138   -5.9272   -3.5712 S   0  0  0  0  0  0  0  0  0  0  0  0
   -7.4555   -5.8318   -2.2162 O   0  0  0  0  0  0  0  0  0  0  0  0
   -6.6466   -4.5641   -4.1607 O   0  0  0  0  0  0  0  0  0  0  0  0
   -7.8606   -6.9013   -4.6252 C   0  0  0  0  0  0  0  0  0  0  0  0
   -7.9946   -6.0741   -5.9003 C   0  0  0  0  0  0  0  0  0  0  0  0
   -8.8331   -4.8204   -5.8108 C   0  0  0  0  0  0  0  0  0  0  0  0
   -8.9774   -4.2292   -7.2154 C   0  0  0  0  0  0  0  0  0  0  0  0
   -7.6988   -4.0870   -7.8054 O   0  0  0  0  0  0  0  0  0  0  0  0
   -7.1621   -5.3586   -8.1195 C   0  0  0  0  0  0  0  0  0  0  0  0
   -6.7994   -6.1009   -6.8335 C   0  0  0  0  0  0  0  0  0  0  0  0
   -3.6371   -7.1045   -1.6407 C   0  0  0  0  0  0  0  0  0  0  0  0
   -3.2634   -7.6244   -0.4068 C   0  0  0  0  0  0  0  0  0  0  0  0
  1  2  3  0
  2  3  1  0
  3  4  2  0
  4  5  1  0
  5  6  2  0
  6  7  1  0
  7  8  1  0
  8  9  2  0
  8 10  2  0
  8 11  1  0
 11 12  1  0
 12 13  1  0
 13 14  1  0
 14 15  1  0
 15 16  1  0
 16 17  1  0
  6 18  1  0
 18 19  2  0
 19  3  1  0
 17 12  1  0
M  END
>  <ref_url>  (52) 
 https://www.notion.so/asapdiscovery/d68-STRIFE-compounds

>  <submitter_name>  (52) 
Lucy Vost

>  <submitter_email>  (52) 
lucy.vost@gtc.ox.ac.uk

>  <submitter_institution>  (52) 
University of Oxford

>  <generation_date>  (52) 
2023-08-28

>  <method>  (52) 
STRIFE - fragment elaboration new frags

>  <ref_mols>  (52) 
x1084

>  <ref_pdb>  (52) 
d68/D68EV3CPROA_apo.pdb

>  <original SMILES>  (52) 
CS(=O)(=O)Nc1ccc(CN)cc1

$$$$
ver_1.2
     RDKit          3D

 20 21  0  0  0  0  0  0  0  0999 V2000
   -3.7553   -7.5957    2.6075 N   0  0  0  0  0  0  0  0  0  0  0  0
   -3.9478   -8.7865    1.7824 C   0  0  0  0  0  0  0  0  0  0  0  0
   -4.2067   -8.3923    0.3603 C   0  0  0  0  0  0  0  0  0  0  0  0
   -3.2108   -7.7225   -0.3623 C   0  0  0  0  0  0  0  0  0  0  0  0
   -3.5050   -7.1573   -1.5992 C   0  0  0  0  0  0  0  0  0  0  0  0
   -4.7933   -7.2631   -2.1332 C   0  0  0  0  0  0  0  0  0  0  0  0
   -5.1016   -6.5290   -3.3225 N   0  0  0  0  0  0  0  0  0  0  0  0
   -6.6610   -5.8725   -3.6961 S   0  0  0  0  0  0  0  0  0  0  0  0
   -7.5827   -6.1838   -2.5535 O   0  0  0  0  0  0  0  0  0  0  0  0
   -6.6072   -4.3868   -3.9019 O   0  0  0  0  0  0  0  0  0  0  0  0
   -7.2759   -6.5788   -5.2086 C   0  0  0  0  0  0  0  0  0  0  0  0
   -7.8880   -5.5195   -6.0734 C   0  0  0  0  0  0  0  0  0  0  0  0
   -8.9466   -4.7425   -5.5772 C   0  0  0  0  0  0  0  0  0  0  0  0
   -9.5367   -3.7639   -6.3800 C   0  0  0  0  0  0  0  0  0  0  0  0
   -9.0807   -3.5609   -7.6849 C   0  0  0  0  0  0  0  0  0  0  0  0
   -8.0353   -4.3385   -8.1906 C   0  0  0  0  0  0  0  0  0  0  0  0
   -7.4389   -5.3182   -7.3914 C   0  0  0  0  0  0  0  0  0  0  0  0
   -6.4298   -6.0697   -7.9018 F   0  0  0  0  0  0  0  0  0  0  0  0
   -5.7468   -8.0575   -1.4694 C   0  0  0  0  0  0  0  0  0  0  0  0
   -5.4693   -8.5820   -0.2109 C   0  0  0  0  0  0  0  0  0  0  0  0
  1  2  1  0
  2  3  1  0
  3  4  2  0
  4  5  1  0
  5  6  2  0
  6  7  1  0
  7  8  1  0
  8  9  2  0
  8 10  2  0
  8 11  1  0
 11 12  1  0
 12 13  2  0
 13 14  1  0
 14 15  2  0
 15 16  1  0
 16 17  2  0
 17 18  1  0
  6 19  1  0
 19 20  2  0
 20  3  1  0
 17 12  1  0
M  END
>  <ref_url>  (53) 
 https://www.notion.so/asapdiscovery/d68-STRIFE-compounds

>  <submitter_name>  (53) 
Lucy Vost

>  <submitter_email>  (53) 
lucy.vost@gtc.ox.ac.uk

>  <submitter_institution>  (53) 
University of Oxford

>  <generation_date>  (53) 
2023-08-28

>  <method>  (53) 
STRIFE - fragment elaboration new frags

>  <ref_mols>  (53) 
x1084

>  <ref_pdb>  (53) 
d68/D68EV3CPROA_apo.pdb

>  <original SMILES>  (53) 
CS(=O)(=O)Nc1ccc(CN)cc1

$$$$
ver_1.2
     RDKit          3D

 20 21  0  0  0  0  0  0  0  0999 V2000
   -7.5827   -6.1838   -2.5535 O   0  0  0  0  0  0  0  0  0  0  0  0
   -6.6610   -5.8725   -3.6961 S   0  0  0  0  0  0  0  0  0  0  0  0
   -6.6072   -4.3868   -3.9019 O   0  0  0  0  0  0  0  0  0  0  0  0
   -7.2759   -6.5788   -5.2086 C   0  0  0  0  0  0  0  0  0  0  0  0
   -7.8880   -5.5195   -6.0734 C   0  0  0  0  0  0  0  0  0  0  0  0
   -8.9466   -4.7425   -5.5772 C   0  0  0  0  0  0  0  0  0  0  0  0
   -9.5367   -3.7639   -6.3800 C   0  0  0  0  0  0  0  0  0  0  0  0
   -9.0807   -3.5609   -7.6849 C   0  0  0  0  0  0  0  0  0  0  0  0
   -8.0353   -4.3385   -8.1906 C   0  0  0  0  0  0  0  0  0  0  0  0
   -7.4389   -5.3182   -7.3914 C   0  0  0  0  0  0  0  0  0  0  0  0
   -6.4298   -6.0697   -7.9018 F   0  0  0  0  0  0  0  0  0  0  0  0
   -5.1016   -6.5290   -3.3225 N   0  0  0  0  0  0  0  0  0  0  0  0
   -4.7933   -7.2631   -2.1332 C   0  0  0  0  0  0  0  0  0  0  0  0
   -5.7468   -8.0575   -1.4694 C   0  0  0  0  0  0  0  0  0  0  0  0
   -5.4693   -8.5820   -0.2109 C   0  0  0  0  0  0  0  0  0  0  0  0
   -4.2067   -8.3923    0.3603 C   0  0  0  0  0  0  0  0  0  0  0  0
   -3.9478   -8.7865    1.7824 C   0  0  0  0  0  0  0  0  0  0  0  0
   -3.7553   -7.5957    2.6075 O   0  0  0  0  0  0  0  0  0  0  0  0
   -3.2108   -7.7225   -0.3623 C   0  0  0  0  0  0  0  0  0  0  0  0
   -3.5050   -7.1573   -1.5992 C   0  0  0  0  0  0  0  0  0  0  0  0
  1  2  2  0
  2  3  2  0
  2  4  1  0
  4  5  1  0
  5  6  2  0
  6  7  1  0
  7  8  2  0
  8  9  1  0
  9 10  2  0
 10 11  1  0
  2 12  1  0
 12 13  1  0
 13 14  2  0
 14 15  1  0
 15 16  2  0
 16 17  1  0
 17 18  1  0
 16 19  1  0
 19 20  2  0
 10  5  1  0
 20 13  1  0
M  END
>  <ref_url>  (54) 
 https://www.notion.so/asapdiscovery/d68-STRIFE-compounds

>  <submitter_name>  (54) 
Lucy Vost

>  <submitter_email>  (54) 
lucy.vost@gtc.ox.ac.uk

>  <submitter_institution>  (54) 
University of Oxford

>  <generation_date>  (54) 
2023-08-28

>  <method>  (54) 
STRIFE - fragment elaboration new frags

>  <ref_mols>  (54) 
x1084

>  <ref_pdb>  (54) 
d68/D68EV3CPROA_apo.pdb

>  <original SMILES>  (54) 
CS(=O)(=O)Nc1ccc(CN)cc1

$$$$
ver_1.2
     RDKit          3D

 20 21  0  0  0  0  0  0  0  0999 V2000
   -3.7553   -7.5957    2.6075 N   0  0  0  0  0  0  0  0  0  0  0  0
   -3.9478   -8.7865    1.7824 C   0  0  0  0  0  0  0  0  0  0  0  0
   -4.2067   -8.3923    0.3603 C   0  0  0  0  0  0  0  0  0  0  0  0
   -3.2108   -7.7225   -0.3623 C   0  0  0  0  0  0  0  0  0  0  0  0
   -3.5050   -7.1573   -1.5992 C   0  0  0  0  0  0  0  0  0  0  0  0
   -4.7933   -7.2631   -2.1332 C   0  0  0  0  0  0  0  0  0  0  0  0
   -5.1016   -6.5290   -3.3225 N   0  0  0  0  0  0  0  0  0  0  0  0
   -6.6610   -5.8725   -3.6961 S   0  0  0  0  0  0  0  0  0  0  0  0
   -7.5827   -6.1838   -2.5535 O   0  0  0  0  0  0  0  0  0  0  0  0
   -6.6072   -4.3868   -3.9019 O   0  0  0  0  0  0  0  0  0  0  0  0
   -7.2759   -6.5788   -5.2086 C   0  0  0  0  0  0  0  0  0  0  0  0
   -7.8880   -5.5195   -6.0734 C   0  0  0  0  0  0  0  0  0  0  0  0
   -8.9466   -4.7425   -5.5772 C   0  0  0  0  0  0  0  0  0  0  0  0
   -9.5367   -3.7639   -6.3800 C   0  0  0  0  0  0  0  0  0  0  0  0
   -9.0807   -3.5609   -7.6849 C   0  0  0  0  0  0  0  0  0  0  0  0
   -8.0353   -4.3385   -8.1906 N   0  0  0  0  0  0  0  0  0  0  0  0
   -7.4389   -5.3182   -7.3914 C   0  0  0  0  0  0  0  0  0  0  0  0
   -6.4298   -6.0697   -7.9018 Cl  0  0  0  0  0  0  0  0  0  0  0  0
   -5.7468   -8.0575   -1.4694 C   0  0  0  0  0  0  0  0  0  0  0  0
   -5.4693   -8.5820   -0.2109 C   0  0  0  0  0  0  0  0  0  0  0  0
  1  2  1  0
  2  3  1  0
  3  4  2  0
  4  5  1  0
  5  6  2  0
  6  7  1  0
  7  8  1  0
  8  9  2  0
  8 10  2  0
  8 11  1  0
 11 12  1  0
 12 13  2  0
 13 14  1  0
 14 15  2  0
 15 16  1  0
 16 17  2  0
 17 18  1  0
  6 19  1  0
 19 20  2  0
 20  3  1  0
 17 12  1  0
M  END
>  <ref_url>  (55) 
 https://www.notion.so/asapdiscovery/d68-STRIFE-compounds

>  <submitter_name>  (55) 
Lucy Vost

>  <submitter_email>  (55) 
lucy.vost@gtc.ox.ac.uk

>  <submitter_institution>  (55) 
University of Oxford

>  <generation_date>  (55) 
2023-08-28

>  <method>  (55) 
STRIFE - fragment elaboration new frags

>  <ref_mols>  (55) 
x1084

>  <ref_pdb>  (55) 
d68/D68EV3CPROA_apo.pdb

>  <original SMILES>  (55) 
CS(=O)(=O)Nc1ccc(CN)cc1

$$$$
ver_1.2
     RDKit          3D

 20 21  0  0  0  0  0  0  0  0999 V2000
   -3.7553   -7.5957    2.6075 C   0  0  0  0  0  0  0  0  0  0  0  0
   -3.9478   -8.7865    1.7824 C   0  0  0  0  0  0  0  0  0  0  0  0
   -4.2067   -8.3923    0.3603 C   0  0  0  0  0  0  0  0  0  0  0  0
   -3.2108   -7.7225   -0.3623 C   0  0  0  0  0  0  0  0  0  0  0  0
   -3.5050   -7.1573   -1.5992 C   0  0  0  0  0  0  0  0  0  0  0  0
   -4.7933   -7.2631   -2.1332 C   0  0  0  0  0  0  0  0  0  0  0  0
   -5.1016   -6.5290   -3.3225 C   0  0  0  0  0  0  0  0  0  0  0  0
   -6.6610   -5.8725   -3.6961 S   0  0  0  0  0  0  0  0  0  0  0  0
   -7.5827   -6.1838   -2.5535 O   0  0  0  0  0  0  0  0  0  0  0  0
   -6.6072   -4.3868   -3.9019 O   0  0  0  0  0  0  0  0  0  0  0  0
   -7.2759   -6.5788   -5.2086 C   0  0  0  0  0  0  0  0  0  0  0  0
   -7.8880   -5.5195   -6.0734 C   0  0  0  0  0  0  0  0  0  0  0  0
   -8.9466   -4.7425   -5.5772 C   0  0  0  0  0  0  0  0  0  0  0  0
   -9.5367   -3.7639   -6.3800 C   0  0  0  0  0  0  0  0  0  0  0  0
   -9.0807   -3.5609   -7.6849 C   0  0  0  0  0  0  0  0  0  0  0  0
   -8.0353   -4.3385   -8.1906 C   0  0  0  0  0  0  0  0  0  0  0  0
   -7.4389   -5.3182   -7.3914 C   0  0  0  0  0  0  0  0  0  0  0  0
   -6.4298   -6.0697   -7.9018 F   0  0  0  0  0  0  0  0  0  0  0  0
   -5.7468   -8.0575   -1.4694 C   0  0  0  0  0  0  0  0  0  0  0  0
   -5.4693   -8.5820   -0.2109 C   0  0  0  0  0  0  0  0  0  0  0  0
  1  2  1  0
  2  3  1  0
  3  4  2  0
  4  5  1  0
  5  6  2  0
  6  7  1  0
  7  8  1  0
  8  9  2  0
  8 10  2  0
  8 11  1  0
 11 12  1  0
 12 13  2  0
 13 14  1  0
 14 15  2  0
 15 16  1  0
 16 17  2  0
 17 18  1  0
  6 19  1  0
 19 20  2  0
 20  3  1  0
 17 12  1  0
M  END
>  <ref_url>  (56) 
 https://www.notion.so/asapdiscovery/d68-STRIFE-compounds

>  <submitter_name>  (56) 
Lucy Vost

>  <submitter_email>  (56) 
lucy.vost@gtc.ox.ac.uk

>  <submitter_institution>  (56) 
University of Oxford

>  <generation_date>  (56) 
2023-08-28

>  <method>  (56) 
STRIFE - fragment elaboration new frags

>  <ref_mols>  (56) 
x1084

>  <ref_pdb>  (56) 
d68/D68EV3CPROA_apo.pdb

>  <original SMILES>  (56) 
CS(=O)(=O)Nc1ccc(CN)cc1

$$$$
ver_1.2
     RDKit          3D

 20 21  0  0  0  0  0  0  0  0999 V2000
   -9.7940   -2.6597   -7.4138 C   0  0  0  0  0  0  0  0  0  0  0  0
   -8.9620   -3.8475   -7.2896 N   0  0  0  0  0  0  0  0  0  0  0  0
   -8.8935   -4.6536   -6.2120 C   0  0  0  0  0  0  0  0  0  0  0  0
   -7.9732   -5.6528   -6.4542 C   0  0  0  0  0  0  0  0  0  0  0  0
   -7.5674   -6.7310   -5.5102 C   0  0  0  0  0  0  0  0  0  0  0  0
   -6.9156   -6.0301   -4.0124 S   0  0  0  0  0  0  0  0  0  0  0  0
   -7.8061   -6.3471   -2.8470 O   0  0  0  0  0  0  0  0  0  0  0  0
   -6.8671   -4.5434   -4.2131 O   0  0  0  0  0  0  0  0  0  0  0  0
   -5.3467   -6.6893   -3.6866 C   0  0  0  0  0  0  0  0  0  0  0  0
   -5.0055   -7.4311   -2.5111 C   0  0  0  0  0  0  0  0  0  0  0  0
   -3.9027   -7.0161   -1.7575 C   0  0  0  0  0  0  0  0  0  0  0  0
   -3.6343   -7.6054   -0.5260 C   0  0  0  0  0  0  0  0  0  0  0  0
   -4.4733   -8.6111   -0.0289 C   0  0  0  0  0  0  0  0  0  0  0  0
   -4.3173   -9.0683    1.3894 C   0  0  0  0  0  0  0  0  0  0  0  0
   -4.3924   -7.9258    2.2974 F   0  0  0  0  0  0  0  0  0  0  0  0
   -5.5207   -9.0945   -0.8202 C   0  0  0  0  0  0  0  0  0  0  0  0
   -5.7580   -8.5367   -2.0725 C   0  0  0  0  0  0  0  0  0  0  0  0
   -7.4518   -5.4176   -7.7096 C   0  0  0  0  0  0  0  0  0  0  0  0
   -6.4971   -6.1474   -8.3358 Br  0  0  0  0  0  0  0  0  0  0  0  0
   -8.0770   -4.2945   -8.2033 N   0  0  0  0  0  0  0  0  0  0  0  0
  1  2  1  0
  2  3  1  0
  3  4  2  0
  4  5  1  0
  5  6  1  0
  6  7  2  0
  6  8  2  0
  6  9  1  0
  9 10  1  0
 10 11  2  0
 11 12  1  0
 12 13  2  0
 13 14  1  0
 14 15  1  0
 13 16  1  0
 16 17  2  0
  4 18  1  0
 18 19  1  0
 18 20  2  0
 20  2  1  0
 17 10  1  0
M  END
>  <ref_url>  (57) 
 https://www.notion.so/asapdiscovery/d68-STRIFE-compounds

>  <submitter_name>  (57) 
Lucy Vost

>  <submitter_email>  (57) 
lucy.vost@gtc.ox.ac.uk

>  <submitter_institution>  (57) 
University of Oxford

>  <generation_date>  (57) 
2023-08-28

>  <method>  (57) 
STRIFE - fragment elaboration new frags

>  <ref_mols>  (57) 
x1084

>  <ref_pdb>  (57) 
d68/D68EV3CPROA_apo.pdb

>  <original SMILES>  (57) 
CS(=O)(=O)Nc1ccc(CN)cc1

$$$$
ver_1.2
     RDKit          3D

 20 21  0  0  0  0  0  0  0  0999 V2000
   -9.7940   -2.6597   -7.4138 C   0  0  0  0  0  0  0  0  0  0  0  0
   -8.9620   -3.8475   -7.2896 N   0  0  0  0  0  0  0  0  0  0  0  0
   -8.8935   -4.6536   -6.2120 C   0  0  0  0  0  0  0  0  0  0  0  0
   -7.9732   -5.6528   -6.4542 C   0  0  0  0  0  0  0  0  0  0  0  0
   -7.5674   -6.7310   -5.5102 C   0  0  0  0  0  0  0  0  0  0  0  0
   -6.9156   -6.0301   -4.0124 S   0  0  0  0  0  0  0  0  0  0  0  0
   -7.8061   -6.3471   -2.8470 O   0  0  0  0  0  0  0  0  0  0  0  0
   -6.8671   -4.5434   -4.2131 O   0  0  0  0  0  0  0  0  0  0  0  0
   -5.3467   -6.6893   -3.6866 C   0  0  0  0  0  0  0  0  0  0  0  0
   -5.0055   -7.4311   -2.5111 C   0  0  0  0  0  0  0  0  0  0  0  0
   -3.9027   -7.0161   -1.7575 C   0  0  0  0  0  0  0  0  0  0  0  0
   -3.6343   -7.6054   -0.5260 C   0  0  0  0  0  0  0  0  0  0  0  0
   -4.4733   -8.6111   -0.0289 C   0  0  0  0  0  0  0  0  0  0  0  0
   -4.3173   -9.0683    1.3894 C   0  0  0  0  0  0  0  0  0  0  0  0
   -4.3924   -7.9258    2.2974 O   0  0  0  0  0  0  0  0  0  0  0  0
   -5.5207   -9.0945   -0.8202 C   0  0  0  0  0  0  0  0  0  0  0  0
   -5.7580   -8.5367   -2.0725 C   0  0  0  0  0  0  0  0  0  0  0  0
   -7.4518   -5.4176   -7.7096 C   0  0  0  0  0  0  0  0  0  0  0  0
   -6.4971   -6.1474   -8.3358 Br  0  0  0  0  0  0  0  0  0  0  0  0
   -8.0770   -4.2945   -8.2033 N   0  0  0  0  0  0  0  0  0  0  0  0
  1  2  1  0
  2  3  1  0
  3  4  2  0
  4  5  1  0
  5  6  1  0
  6  7  2  0
  6  8  2  0
  6  9  1  0
  9 10  1  0
 10 11  2  0
 11 12  1  0
 12 13  2  0
 13 14  1  0
 14 15  1  0
 13 16  1  0
 16 17  2  0
  4 18  1  0
 18 19  1  0
 18 20  2  0
 20  2  1  0
 17 10  1  0
M  END
>  <ref_url>  (58) 
 https://www.notion.so/asapdiscovery/d68-STRIFE-compounds

>  <submitter_name>  (58) 
Lucy Vost

>  <submitter_email>  (58) 
lucy.vost@gtc.ox.ac.uk

>  <submitter_institution>  (58) 
University of Oxford

>  <generation_date>  (58) 
2023-08-28

>  <method>  (58) 
STRIFE - fragment elaboration new frags

>  <ref_mols>  (58) 
x1084

>  <ref_pdb>  (58) 
d68/D68EV3CPROA_apo.pdb

>  <original SMILES>  (58) 
CS(=O)(=O)Nc1ccc(CN)cc1

$$$$
ver_1.2
     RDKit          3D

 20 21  0  0  0  0  0  0  0  0999 V2000
   -6.4971   -6.1474   -8.3358 C   0  0  0  0  0  0  0  0  0  0  0  0
   -7.4518   -5.4176   -7.7096 C   0  0  0  0  0  0  0  0  0  0  0  0
   -8.0770   -4.2945   -8.2033 N   0  0  0  0  0  0  0  0  0  0  0  0
   -8.9620   -3.8475   -7.2896 N   0  0  0  0  0  0  0  0  0  0  0  0
   -9.7940   -2.6597   -7.4138 C   0  0  0  0  0  0  0  0  0  0  0  0
   -8.8935   -4.6536   -6.2120 C   0  0  0  0  0  0  0  0  0  0  0  0
   -7.9732   -5.6528   -6.4542 C   0  0  0  0  0  0  0  0  0  0  0  0
   -7.5674   -6.7310   -5.5102 C   0  0  0  0  0  0  0  0  0  0  0  0
   -6.9156   -6.0301   -4.0124 S   0  0  0  0  0  0  0  0  0  0  0  0
   -7.8061   -6.3471   -2.8470 O   0  0  0  0  0  0  0  0  0  0  0  0
   -6.8671   -4.5434   -4.2131 O   0  0  0  0  0  0  0  0  0  0  0  0
   -5.3467   -6.6893   -3.6866 C   0  0  0  0  0  0  0  0  0  0  0  0
   -5.0055   -7.4311   -2.5111 C   0  0  0  0  0  0  0  0  0  0  0  0
   -3.9027   -7.0161   -1.7575 C   0  0  0  0  0  0  0  0  0  0  0  0
   -3.6343   -7.6054   -0.5260 C   0  0  0  0  0  0  0  0  0  0  0  0
   -4.4733   -8.6111   -0.0289 C   0  0  0  0  0  0  0  0  0  0  0  0
   -4.3173   -9.0683    1.3894 C   0  0  0  0  0  0  0  0  0  0  0  0
   -4.3924   -7.9258    2.2974 O   0  0  0  0  0  0  0  0  0  0  0  0
   -5.5207   -9.0945   -0.8202 C   0  0  0  0  0  0  0  0  0  0  0  0
   -5.7580   -8.5367   -2.0725 C   0  0  0  0  0  0  0  0  0  0  0  0
  1  2  1  0
  2  3  2  0
  3  4  1  0
  4  5  1  0
  4  6  1  0
  6  7  2  0
  7  8  1  0
  8  9  1  0
  9 10  2  0
  9 11  2  0
  9 12  1  0
 12 13  1  0
 13 14  2  0
 14 15  1  0
 15 16  2  0
 16 17  1  0
 17 18  1  0
 16 19  1  0
 19 20  2  0
  7  2  1  0
 20 13  1  0
M  END
>  <ref_url>  (59) 
 https://www.notion.so/asapdiscovery/d68-STRIFE-compounds

>  <submitter_name>  (59) 
Lucy Vost

>  <submitter_email>  (59) 
lucy.vost@gtc.ox.ac.uk

>  <submitter_institution>  (59) 
University of Oxford

>  <generation_date>  (59) 
2023-08-28

>  <method>  (59) 
STRIFE - fragment elaboration new frags

>  <ref_mols>  (59) 
x1084

>  <ref_pdb>  (59) 
d68/D68EV3CPROA_apo.pdb

>  <original SMILES>  (59) 
CS(=O)(=O)Nc1ccc(CN)cc1

$$$$
ver_1.2
     RDKit          3D

 20 21  0  0  0  0  0  0  0  0999 V2000
   -9.7940   -2.6597   -7.4138 C   0  0  0  0  0  0  0  0  0  0  0  0
   -8.9620   -3.8475   -7.2896 N   0  0  0  0  0  0  0  0  0  0  0  0
   -8.8935   -4.6536   -6.2120 C   0  0  0  0  0  0  0  0  0  0  0  0
   -7.9732   -5.6528   -6.4542 C   0  0  0  0  0  0  0  0  0  0  0  0
   -7.5674   -6.7310   -5.5102 C   0  0  0  0  0  0  0  0  0  0  0  0
   -6.9156   -6.0301   -4.0124 S   0  0  0  0  0  0  0  0  0  0  0  0
   -7.8061   -6.3471   -2.8470 O   0  0  0  0  0  0  0  0  0  0  0  0
   -6.8671   -4.5434   -4.2131 O   0  0  0  0  0  0  0  0  0  0  0  0
   -5.3467   -6.6893   -3.6866 C   0  0  0  0  0  0  0  0  0  0  0  0
   -5.0055   -7.4311   -2.5111 C   0  0  0  0  0  0  0  0  0  0  0  0
   -3.9027   -7.0161   -1.7575 C   0  0  0  0  0  0  0  0  0  0  0  0
   -3.6343   -7.6054   -0.5260 C   0  0  0  0  0  0  0  0  0  0  0  0
   -4.4733   -8.6111   -0.0289 C   0  0  0  0  0  0  0  0  0  0  0  0
   -4.3173   -9.0683    1.3894 C   0  0  0  0  0  0  0  0  0  0  0  0
   -4.3924   -7.9258    2.2974 N   0  0  0  0  0  0  0  0  0  0  0  0
   -5.5207   -9.0945   -0.8202 C   0  0  0  0  0  0  0  0  0  0  0  0
   -5.7580   -8.5367   -2.0725 C   0  0  0  0  0  0  0  0  0  0  0  0
   -7.4518   -5.4176   -7.7096 C   0  0  0  0  0  0  0  0  0  0  0  0
   -6.4971   -6.1474   -8.3358 Br  0  0  0  0  0  0  0  0  0  0  0  0
   -8.0770   -4.2945   -8.2033 N   0  0  0  0  0  0  0  0  0  0  0  0
  1  2  1  0
  2  3  1  0
  3  4  2  0
  4  5  1  0
  5  6  1  0
  6  7  2  0
  6  8  2  0
  6  9  1  0
  9 10  1  0
 10 11  2  0
 11 12  1  0
 12 13  2  0
 13 14  1  0
 14 15  3  0
 13 16  1  0
 16 17  2  0
  4 18  1  0
 18 19  1  0
 18 20  2  0
 20  2  1  0
 17 10  1  0
M  END
>  <ref_url>  (60) 
 https://www.notion.so/asapdiscovery/d68-STRIFE-compounds

>  <submitter_name>  (60) 
Lucy Vost

>  <submitter_email>  (60) 
lucy.vost@gtc.ox.ac.uk

>  <submitter_institution>  (60) 
University of Oxford

>  <generation_date>  (60) 
2023-08-28

>  <method>  (60) 
STRIFE - fragment elaboration new frags

>  <ref_mols>  (60) 
x1084

>  <ref_pdb>  (60) 
d68/D68EV3CPROA_apo.pdb

>  <original SMILES>  (60) 
CS(=O)(=O)Nc1ccc(CN)cc1

$$$$
ver_1.2
     RDKit          3D

 21 22  0  0  0  0  0  0  0  0999 V2000
  -10.8318   -3.8706   -5.1378 C   0  0  0  0  0  0  0  0  0  0  0  0
   -9.7176   -4.5731   -4.9560 O   0  0  0  0  0  0  0  0  0  0  0  0
   -8.7534   -4.8375   -6.0528 C   0  0  0  0  0  0  0  0  0  0  0  0
   -8.7981   -4.0682   -7.1791 N   0  0  0  0  0  0  0  0  0  0  0  0
   -7.9313   -4.2332   -8.2116 C   0  0  0  0  0  0  0  0  0  0  0  0
   -6.9446   -5.2127   -8.1430 C   0  0  0  0  0  0  0  0  0  0  0  0
   -6.8658   -6.0210   -7.0118 C   0  0  0  0  0  0  0  0  0  0  0  0
   -7.7758   -5.8569   -5.9547 C   0  0  0  0  0  0  0  0  0  0  0  0
   -7.6335   -6.7362   -4.7391 C   0  0  0  0  0  0  0  0  0  0  0  0
   -6.6257   -5.9239   -3.5191 S   0  0  0  0  0  0  0  0  0  0  0  0
   -7.3315   -5.8328   -2.1975 O   0  0  0  0  0  0  0  0  0  0  0  0
   -6.3441   -4.5409   -4.0313 O   0  0  0  0  0  0  0  0  0  0  0  0
   -5.1732   -6.8368   -3.2924 C   0  0  0  0  0  0  0  0  0  0  0  0
   -4.7853   -7.4498   -2.0580 C   0  0  0  0  0  0  0  0  0  0  0  0
   -3.4987   -7.2047   -1.5669 C   0  0  0  0  0  0  0  0  0  0  0  0
   -3.1405   -7.6362   -0.2927 C   0  0  0  0  0  0  0  0  0  0  0  0
   -4.0683   -8.3158    0.5071 C   0  0  0  0  0  0  0  0  0  0  0  0
   -3.7516   -8.5731    1.9452 C   0  0  0  0  0  0  0  0  0  0  0  0
   -3.4405   -7.3061    2.5979 F   0  0  0  0  0  0  0  0  0  0  0  0
   -5.3234   -8.6460   -0.0149 C   0  0  0  0  0  0  0  0  0  0  0  0
   -5.6634   -8.2527   -1.3055 C   0  0  0  0  0  0  0  0  0  0  0  0
  1  2  1  0
  2  3  1  0
  3  4  2  0
  4  5  1  0
  5  6  2  0
  6  7  1  0
  7  8  2  0
  8  9  1  0
  9 10  1  0
 10 11  2  0
 10 12  2  0
 10 13  1  0
 13 14  1  0
 14 15  2  0
 15 16  1  0
 16 17  2  0
 17 18  1  0
 18 19  1  0
 17 20  1  0
 20 21  2  0
  8  3  1  0
 21 14  1  0
M  END
>  <ref_url>  (61) 
 https://www.notion.so/asapdiscovery/d68-STRIFE-compounds

>  <submitter_name>  (61) 
Lucy Vost

>  <submitter_email>  (61) 
lucy.vost@gtc.ox.ac.uk

>  <submitter_institution>  (61) 
University of Oxford

>  <generation_date>  (61) 
2023-08-28

>  <method>  (61) 
STRIFE - fragment elaboration new frags

>  <ref_mols>  (61) 
x1084

>  <ref_pdb>  (61) 
d68/D68EV3CPROA_apo.pdb

>  <original SMILES>  (61) 
CS(=O)(=O)Nc1ccc(CN)cc1

$$$$
ver_1.2
     RDKit          3D

 21 22  0  0  0  0  0  0  0  0999 V2000
  -10.8318   -3.8706   -5.1378 C   0  0  0  0  0  0  0  0  0  0  0  0
   -9.7176   -4.5731   -4.9560 O   0  0  0  0  0  0  0  0  0  0  0  0
   -8.7534   -4.8375   -6.0528 C   0  0  0  0  0  0  0  0  0  0  0  0
   -8.7981   -4.0682   -7.1791 N   0  0  0  0  0  0  0  0  0  0  0  0
   -7.9313   -4.2332   -8.2116 C   0  0  0  0  0  0  0  0  0  0  0  0
   -6.9446   -5.2127   -8.1430 C   0  0  0  0  0  0  0  0  0  0  0  0
   -6.8658   -6.0210   -7.0118 C   0  0  0  0  0  0  0  0  0  0  0  0
   -7.7758   -5.8569   -5.9547 C   0  0  0  0  0  0  0  0  0  0  0  0
   -7.6335   -6.7362   -4.7391 C   0  0  0  0  0  0  0  0  0  0  0  0
   -6.6257   -5.9239   -3.5191 S   0  0  0  0  0  0  0  0  0  0  0  0
   -6.3441   -4.5409   -4.0313 O   0  0  0  0  0  0  0  0  0  0  0  0
   -7.3315   -5.8328   -2.1975 O   0  0  0  0  0  0  0  0  0  0  0  0
   -5.1732   -6.8368   -3.2924 C   0  0  0  0  0  0  0  0  0  0  0  0
   -4.7853   -7.4498   -2.0580 C   0  0  0  0  0  0  0  0  0  0  0  0
   -3.4987   -7.2047   -1.5669 C   0  0  0  0  0  0  0  0  0  0  0  0
   -3.1405   -7.6362   -0.2927 C   0  0  0  0  0  0  0  0  0  0  0  0
   -4.0683   -8.3158    0.5071 C   0  0  0  0  0  0  0  0  0  0  0  0
   -3.7516   -8.5731    1.9452 C   0  0  0  0  0  0  0  0  0  0  0  0
   -3.4405   -7.3061    2.5979 O   0  0  0  0  0  0  0  0  0  0  0  0
   -5.3234   -8.6460   -0.0149 C   0  0  0  0  0  0  0  0  0  0  0  0
   -5.6634   -8.2527   -1.3055 C   0  0  0  0  0  0  0  0  0  0  0  0
  1  2  1  0
  2  3  1  0
  3  4  2  0
  4  5  1  0
  5  6  2  0
  6  7  1  0
  7  8  2  0
  8  9  1  0
  9 10  1  0
 10 11  2  0
 10 12  2  0
 10 13  1  0
 13 14  1  0
 14 15  2  0
 15 16  1  0
 16 17  2  0
 17 18  1  0
 18 19  1  0
 17 20  1  0
 20 21  2  0
  8  3  1  0
 21 14  1  0
M  END
>  <ref_url>  (62) 
 https://www.notion.so/asapdiscovery/d68-STRIFE-compounds

>  <submitter_name>  (62) 
Lucy Vost

>  <submitter_email>  (62) 
lucy.vost@gtc.ox.ac.uk

>  <submitter_institution>  (62) 
University of Oxford

>  <generation_date>  (62) 
2023-08-28

>  <method>  (62) 
STRIFE - fragment elaboration new frags

>  <ref_mols>  (62) 
x1084

>  <ref_pdb>  (62) 
d68/D68EV3CPROA_apo.pdb

>  <original SMILES>  (62) 
CS(=O)(=O)Nc1ccc(CN)cc1

$$$$
ver_1.2
     RDKit          3D

 21 22  0  0  0  0  0  0  0  0999 V2000
  -10.8318   -3.8706   -5.1378 C   0  0  0  0  0  0  0  0  0  0  0  0
   -9.7176   -4.5731   -4.9560 O   0  0  0  0  0  0  0  0  0  0  0  0
   -8.7534   -4.8375   -6.0528 C   0  0  0  0  0  0  0  0  0  0  0  0
   -8.7981   -4.0682   -7.1791 N   0  0  0  0  0  0  0  0  0  0  0  0
   -7.9313   -4.2332   -8.2116 C   0  0  0  0  0  0  0  0  0  0  0  0
   -6.9446   -5.2127   -8.1430 C   0  0  0  0  0  0  0  0  0  0  0  0
   -6.8658   -6.0210   -7.0118 C   0  0  0  0  0  0  0  0  0  0  0  0
   -7.7758   -5.8569   -5.9547 C   0  0  0  0  0  0  0  0  0  0  0  0
   -7.6335   -6.7362   -4.7391 C   0  0  0  0  0  0  0  0  0  0  0  0
   -6.6257   -5.9239   -3.5191 S   0  0  0  0  0  0  0  0  0  0  0  0
   -6.3441   -4.5409   -4.0313 O   0  0  0  0  0  0  0  0  0  0  0  0
   -7.3315   -5.8328   -2.1975 O   0  0  0  0  0  0  0  0  0  0  0  0
   -5.1732   -6.8368   -3.2924 C   0  0  0  0  0  0  0  0  0  0  0  0
   -4.7853   -7.4498   -2.0580 C   0  0  0  0  0  0  0  0  0  0  0  0
   -3.4987   -7.2047   -1.5669 C   0  0  0  0  0  0  0  0  0  0  0  0
   -3.1405   -7.6362   -0.2927 C   0  0  0  0  0  0  0  0  0  0  0  0
   -4.0683   -8.3158    0.5071 C   0  0  0  0  0  0  0  0  0  0  0  0
   -3.7516   -8.5731    1.9452 C   0  0  0  0  0  0  0  0  0  0  0  0
   -3.4405   -7.3061    2.5979 N   0  0  0  0  0  0  0  0  0  0  0  0
   -5.3234   -8.6460   -0.0149 C   0  0  0  0  0  0  0  0  0  0  0  0
   -5.6634   -8.2527   -1.3055 C   0  0  0  0  0  0  0  0  0  0  0  0
  1  2  1  0
  2  3  1  0
  3  4  2  0
  4  5  1  0
  5  6  2  0
  6  7  1  0
  7  8  2  0
  8  9  1  0
  9 10  1  0
 10 11  2  0
 10 12  2  0
 10 13  1  0
 13 14  1  0
 14 15  2  0
 15 16  1  0
 16 17  2  0
 17 18  1  0
 18 19  3  0
 17 20  1  0
 20 21  2  0
  8  3  1  0
 21 14  1  0
M  END
>  <ref_url>  (63) 
 https://www.notion.so/asapdiscovery/d68-STRIFE-compounds

>  <submitter_name>  (63) 
Lucy Vost

>  <submitter_email>  (63) 
lucy.vost@gtc.ox.ac.uk

>  <submitter_institution>  (63) 
University of Oxford

>  <generation_date>  (63) 
2023-08-28

>  <method>  (63) 
STRIFE - fragment elaboration new frags

>  <ref_mols>  (63) 
x1084

>  <ref_pdb>  (63) 
d68/D68EV3CPROA_apo.pdb

>  <original SMILES>  (63) 
CS(=O)(=O)Nc1ccc(CN)cc1

$$$$
ver_1.2
     RDKit          3D

 21 22  0  0  0  0  0  0  0  0999 V2000
   -3.4405   -7.3061    2.5979 C   0  0  0  0  0  0  0  0  0  0  0  0
   -3.7516   -8.5731    1.9452 O   0  0  0  0  0  0  0  0  0  0  0  0
   -4.0683   -8.3158    0.5071 C   0  0  0  0  0  0  0  0  0  0  0  0
   -5.3234   -8.6460   -0.0149 C   0  0  0  0  0  0  0  0  0  0  0  0
   -5.6634   -8.2527   -1.3055 C   0  0  0  0  0  0  0  0  0  0  0  0
   -4.7853   -7.4498   -2.0580 C   0  0  0  0  0  0  0  0  0  0  0  0
   -5.1732   -6.8368   -3.2924 C   0  0  0  0  0  0  0  0  0  0  0  0
   -6.6257   -5.9239   -3.5191 S   0  0  0  0  0  0  0  0  0  0  0  0
   -7.3315   -5.8328   -2.1975 O   0  0  0  0  0  0  0  0  0  0  0  0
   -6.3441   -4.5409   -4.0313 O   0  0  0  0  0  0  0  0  0  0  0  0
   -7.6335   -6.7362   -4.7391 C   0  0  0  0  0  0  0  0  0  0  0  0
   -7.7758   -5.8569   -5.9547 C   0  0  0  0  0  0  0  0  0  0  0  0
   -6.8658   -6.0210   -7.0118 C   0  0  0  0  0  0  0  0  0  0  0  0
   -6.9446   -5.2127   -8.1430 C   0  0  0  0  0  0  0  0  0  0  0  0
   -7.9313   -4.2332   -8.2116 C   0  0  0  0  0  0  0  0  0  0  0  0
   -8.7981   -4.0682   -7.1791 N   0  0  0  0  0  0  0  0  0  0  0  0
   -8.7534   -4.8375   -6.0528 C   0  0  0  0  0  0  0  0  0  0  0  0
   -9.7176   -4.5731   -4.9560 O   0  0  0  0  0  0  0  0  0  0  0  0
  -10.8318   -3.8706   -5.1378 C   0  0  0  0  0  0  0  0  0  0  0  0
   -3.4987   -7.2047   -1.5669 C   0  0  0  0  0  0  0  0  0  0  0  0
   -3.1405   -7.6362   -0.2927 C   0  0  0  0  0  0  0  0  0  0  0  0
  1  2  1  0
  2  3  1  0
  3  4  2  0
  4  5  1  0
  5  6  2  0
  6  7  1  0
  7  8  1  0
  8  9  2  0
  8 10  2  0
  8 11  1  0
 11 12  1  0
 12 13  2  0
 13 14  1  0
 14 15  2  0
 15 16  1  0
 16 17  2  0
 17 18  1  0
 18 19  1  0
  6 20  1  0
 20 21  2  0
 21  3  1  0
 17 12  1  0
M  END
>  <ref_url>  (64) 
 https://www.notion.so/asapdiscovery/d68-STRIFE-compounds

>  <submitter_name>  (64) 
Lucy Vost

>  <submitter_email>  (64) 
lucy.vost@gtc.ox.ac.uk

>  <submitter_institution>  (64) 
University of Oxford

>  <generation_date>  (64) 
2023-08-28

>  <method>  (64) 
STRIFE - fragment elaboration new frags

>  <ref_mols>  (64) 
x1084

>  <ref_pdb>  (64) 
d68/D68EV3CPROA_apo.pdb

>  <original SMILES>  (64) 
CS(=O)(=O)Nc1ccc(CN)cc1

$$$$
ver_1.2
     RDKit          3D

 19 20  0  0  0  0  0  0  0  0999 V2000
   -3.2875   -7.6007    3.0208 N   0  0  0  0  0  0  0  0  0  0  0  0
   -3.0199   -8.5440    1.9374 C   0  0  0  0  0  0  0  0  0  0  0  0
   -3.7169   -8.1039    0.6867 C   0  0  0  0  0  0  0  0  0  0  0  0
   -5.0978   -7.8817    0.6834 C   0  0  0  0  0  0  0  0  0  0  0  0
   -5.7047   -7.3122   -0.4309 C   0  0  0  0  0  0  0  0  0  0  0  0
   -4.9240   -6.8738   -1.5177 C   0  0  0  0  0  0  0  0  0  0  0  0
   -5.4618   -6.0798   -2.5789 N   0  0  0  0  0  0  0  0  0  0  0  0
   -6.7535   -6.5783   -3.6128 S   0  0  0  0  0  0  0  0  0  0  0  0
   -6.3224   -7.8354   -4.3071 O   0  0  0  0  0  0  0  0  0  0  0  0
   -8.0202   -6.8316   -2.8475 O   0  0  0  0  0  0  0  0  0  0  0  0
   -7.0886   -5.2803   -4.7799 C   0  0  0  0  0  0  0  0  0  0  0  0
   -8.2666   -5.6500   -5.7099 C   0  0  0  0  0  0  0  0  0  0  0  0
   -8.3598   -7.1582   -6.0311 C   0  0  0  0  0  0  0  0  0  0  0  0
   -7.2570   -7.5861   -6.9947 C   0  0  0  0  0  0  0  0  0  0  0  0
   -7.2429   -6.6537   -8.2013 C   0  0  0  0  0  0  0  0  0  0  0  0
   -7.1772   -5.1956   -7.7405 C   0  0  0  0  0  0  0  0  0  0  0  0
   -8.2664   -4.8683   -6.8953 O   0  0  0  0  0  0  0  0  0  0  0  0
   -3.5616   -7.1853   -1.5462 C   0  0  0  0  0  0  0  0  0  0  0  0
   -2.9617   -7.8022   -0.4537 C   0  0  0  0  0  0  0  0  0  0  0  0
  1  2  1  0
  2  3  1  0
  3  4  2  0
  4  5  1  0
  5  6  2  0
  6  7  1  0
  7  8  1  0
  8  9  2  0
  8 10  2  0
  8 11  1  0
 11 12  1  0
 12 13  1  0
 13 14  1  0
 14 15  1  0
 15 16  1  0
 16 17  1  0
  6 18  1  0
 18 19  2  0
 19  3  1  0
 17 12  1  0
M  END
>  <ref_url>  (65) 
 https://www.notion.so/asapdiscovery/d68-STRIFE-compounds

>  <submitter_name>  (65) 
Lucy Vost

>  <submitter_email>  (65) 
lucy.vost@gtc.ox.ac.uk

>  <submitter_institution>  (65) 
University of Oxford

>  <generation_date>  (65) 
2023-08-28

>  <method>  (65) 
STRIFE - fragment elaboration new frags

>  <ref_mols>  (65) 
x1084

>  <ref_pdb>  (65) 
d68/D68EV3CPROA_apo.pdb

>  <original SMILES>  (65) 
CS(=O)(=O)Nc1ccc(CN)cc1

$$$$
ver_1.2
     RDKit          3D

 19 20  0  0  0  0  0  0  0  0999 V2000
   -3.2875   -7.6007    3.0208 C   0  0  0  0  0  0  0  0  0  0  0  0
   -3.0199   -8.5440    1.9374 C   0  0  0  0  0  0  0  0  0  0  0  0
   -3.7169   -8.1039    0.6867 C   0  0  0  0  0  0  0  0  0  0  0  0
   -5.0978   -7.8817    0.6834 C   0  0  0  0  0  0  0  0  0  0  0  0
   -5.7047   -7.3122   -0.4309 C   0  0  0  0  0  0  0  0  0  0  0  0
   -4.9240   -6.8738   -1.5177 C   0  0  0  0  0  0  0  0  0  0  0  0
   -5.4618   -6.0798   -2.5789 N   0  0  0  0  0  0  0  0  0  0  0  0
   -6.7535   -6.5783   -3.6128 S   0  0  0  0  0  0  0  0  0  0  0  0
   -6.3224   -7.8354   -4.3071 O   0  0  0  0  0  0  0  0  0  0  0  0
   -8.0202   -6.8316   -2.8475 O   0  0  0  0  0  0  0  0  0  0  0  0
   -7.0886   -5.2803   -4.7799 C   0  0  0  0  0  0  0  0  0  0  0  0
   -8.2666   -5.6500   -5.7099 C   0  0  0  0  0  0  0  0  0  0  0  0
   -8.3598   -7.1582   -6.0311 C   0  0  0  0  0  0  0  0  0  0  0  0
   -7.2570   -7.5861   -6.9947 C   0  0  0  0  0  0  0  0  0  0  0  0
   -7.2429   -6.6537   -8.2013 C   0  0  0  0  0  0  0  0  0  0  0  0
   -7.1772   -5.1956   -7.7405 C   0  0  0  0  0  0  0  0  0  0  0  0
   -8.2664   -4.8683   -6.8953 O   0  0  0  0  0  0  0  0  0  0  0  0
   -3.5616   -7.1853   -1.5462 C   0  0  0  0  0  0  0  0  0  0  0  0
   -2.9617   -7.8022   -0.4537 C   0  0  0  0  0  0  0  0  0  0  0  0
  1  2  1  0
  2  3  1  0
  3  4  2  0
  4  5  1  0
  5  6  2  0
  6  7  1  0
  7  8  1  0
  8  9  2  0
  8 10  2  0
  8 11  1  0
 11 12  1  0
 12 13  1  0
 13 14  1  0
 14 15  1  0
 15 16  1  0
 16 17  1  0
  6 18  1  0
 18 19  2  0
 19  3  1  0
 17 12  1  0
M  END
>  <ref_url>  (66) 
 https://www.notion.so/asapdiscovery/d68-STRIFE-compounds

>  <submitter_name>  (66) 
Lucy Vost

>  <submitter_email>  (66) 
lucy.vost@gtc.ox.ac.uk

>  <submitter_institution>  (66) 
University of Oxford

>  <generation_date>  (66) 
2023-08-28

>  <method>  (66) 
STRIFE - fragment elaboration new frags

>  <ref_mols>  (66) 
x1084

>  <ref_pdb>  (66) 
d68/D68EV3CPROA_apo.pdb

>  <original SMILES>  (66) 
CS(=O)(=O)Nc1ccc(CN)cc1

$$$$
ver_1.2
     RDKit          3D

 19 20  0  0  0  0  0  0  0  0999 V2000
   -3.2875   -7.6007    3.0208 N   0  0  0  0  0  0  0  0  0  0  0  0
   -3.0199   -8.5440    1.9374 C   0  0  0  0  0  0  0  0  0  0  0  0
   -3.7169   -8.1039    0.6867 C   0  0  0  0  0  0  0  0  0  0  0  0
   -5.0978   -7.8817    0.6834 C   0  0  0  0  0  0  0  0  0  0  0  0
   -5.7047   -7.3122   -0.4309 C   0  0  0  0  0  0  0  0  0  0  0  0
   -4.9240   -6.8738   -1.5177 C   0  0  0  0  0  0  0  0  0  0  0  0
   -5.4618   -6.0798   -2.5789 N   0  0  0  0  0  0  0  0  0  0  0  0
   -6.7535   -6.5783   -3.6128 S   0  0  0  0  0  0  0  0  0  0  0  0
   -6.3224   -7.8354   -4.3071 O   0  0  0  0  0  0  0  0  0  0  0  0
   -8.0202   -6.8316   -2.8475 O   0  0  0  0  0  0  0  0  0  0  0  0
   -7.0886   -5.2803   -4.7799 C   0  0  0  0  0  0  0  0  0  0  0  0
   -8.2666   -5.6500   -5.7099 C   0  0  0  0  0  0  0  0  0  0  0  0
   -8.3598   -7.1582   -6.0311 C   0  0  0  0  0  0  0  0  0  0  0  0
   -7.2570   -7.5861   -6.9947 N   0  0  0  0  0  0  0  0  0  0  0  0
   -7.2429   -6.6537   -8.2013 C   0  0  0  0  0  0  0  0  0  0  0  0
   -7.1772   -5.1956   -7.7405 C   0  0  0  0  0  0  0  0  0  0  0  0
   -8.2664   -4.8683   -6.8953 O   0  0  0  0  0  0  0  0  0  0  0  0
   -3.5616   -7.1853   -1.5462 C   0  0  0  0  0  0  0  0  0  0  0  0
   -2.9617   -7.8022   -0.4537 C   0  0  0  0  0  0  0  0  0  0  0  0
  1  2  1  0
  2  3  1  0
  3  4  2  0
  4  5  1  0
  5  6  2  0
  6  7  1  0
  7  8  1  0
  8  9  2  0
  8 10  2  0
  8 11  1  0
 11 12  1  0
 12 13  1  0
 13 14  1  0
 14 15  1  0
 15 16  1  0
 16 17  1  0
  6 18  1  0
 18 19  2  0
 19  3  1  0
 17 12  1  0
M  END
>  <ref_url>  (67) 
 https://www.notion.so/asapdiscovery/d68-STRIFE-compounds

>  <submitter_name>  (67) 
Lucy Vost

>  <submitter_email>  (67) 
lucy.vost@gtc.ox.ac.uk

>  <submitter_institution>  (67) 
University of Oxford

>  <generation_date>  (67) 
2023-08-28

>  <method>  (67) 
STRIFE - fragment elaboration new frags

>  <ref_mols>  (67) 
x1084

>  <ref_pdb>  (67) 
d68/D68EV3CPROA_apo.pdb

>  <original SMILES>  (67) 
CS(=O)(=O)Nc1ccc(CN)cc1

$$$$
ver_1.2
     RDKit          3D

 19 20  0  0  0  0  0  0  0  0999 V2000
   -3.2875   -7.6007    3.0208 N   0  0  0  0  0  0  0  0  0  0  0  0
   -3.0199   -8.5440    1.9374 C   0  0  0  0  0  0  0  0  0  0  0  0
   -3.7169   -8.1039    0.6867 C   0  0  0  0  0  0  0  0  0  0  0  0
   -5.0978   -7.8817    0.6834 C   0  0  0  0  0  0  0  0  0  0  0  0
   -5.7047   -7.3122   -0.4309 C   0  0  0  0  0  0  0  0  0  0  0  0
   -4.9240   -6.8738   -1.5177 C   0  0  0  0  0  0  0  0  0  0  0  0
   -5.4618   -6.0798   -2.5789 N   0  0  0  0  0  0  0  0  0  0  0  0
   -6.7535   -6.5783   -3.6128 S   0  0  0  0  0  0  0  0  0  0  0  0
   -6.3224   -7.8354   -4.3071 O   0  0  0  0  0  0  0  0  0  0  0  0
   -8.0202   -6.8316   -2.8475 O   0  0  0  0  0  0  0  0  0  0  0  0
   -7.0886   -5.2803   -4.7799 C   0  0  0  0  0  0  0  0  0  0  0  0
   -8.2666   -5.6500   -5.7099 C   0  0  0  0  0  0  0  0  0  0  0  0
   -8.3598   -7.1582   -6.0311 C   0  0  0  0  0  0  0  0  0  0  0  0
   -7.2570   -7.5861   -6.9947 O   0  0  0  0  0  0  0  0  0  0  0  0
   -7.2429   -6.6537   -8.2013 C   0  0  0  0  0  0  0  0  0  0  0  0
   -7.1772   -5.1956   -7.7405 C   0  0  0  0  0  0  0  0  0  0  0  0
   -8.2664   -4.8683   -6.8953 O   0  0  0  0  0  0  0  0  0  0  0  0
   -3.5616   -7.1853   -1.5462 C   0  0  0  0  0  0  0  0  0  0  0  0
   -2.9617   -7.8022   -0.4537 C   0  0  0  0  0  0  0  0  0  0  0  0
  1  2  1  0
  2  3  1  0
  3  4  2  0
  4  5  1  0
  5  6  2  0
  6  7  1  0
  7  8  1  0
  8  9  2  0
  8 10  2  0
  8 11  1  0
 11 12  1  0
 12 13  1  0
 13 14  1  0
 14 15  1  0
 15 16  1  0
 16 17  1  0
  6 18  1  0
 18 19  2  0
 19  3  1  0
 17 12  1  0
M  END
>  <ref_url>  (68) 
 https://www.notion.so/asapdiscovery/d68-STRIFE-compounds

>  <submitter_name>  (68) 
Lucy Vost

>  <submitter_email>  (68) 
lucy.vost@gtc.ox.ac.uk

>  <submitter_institution>  (68) 
University of Oxford

>  <generation_date>  (68) 
2023-08-28

>  <method>  (68) 
STRIFE - fragment elaboration new frags

>  <ref_mols>  (68) 
x1084

>  <ref_pdb>  (68) 
d68/D68EV3CPROA_apo.pdb

>  <original SMILES>  (68) 
CS(=O)(=O)Nc1ccc(CN)cc1

$$$$
ver_1.2
     RDKit          3D

 19 20  0  0  0  0  0  0  0  0999 V2000
   -3.2875   -7.6007    3.0208 N   0  0  0  0  0  0  0  0  0  0  0  0
   -3.0199   -8.5440    1.9374 C   0  0  0  0  0  0  0  0  0  0  0  0
   -3.7169   -8.1039    0.6867 C   0  0  0  0  0  0  0  0  0  0  0  0
   -2.9617   -7.8022   -0.4537 C   0  0  0  0  0  0  0  0  0  0  0  0
   -3.5616   -7.1853   -1.5462 C   0  0  0  0  0  0  0  0  0  0  0  0
   -4.9240   -6.8738   -1.5177 C   0  0  0  0  0  0  0  0  0  0  0  0
   -5.4618   -6.0798   -2.5789 N   0  0  0  0  0  0  0  0  0  0  0  0
   -6.7535   -6.5783   -3.6128 S   0  0  0  0  0  0  0  0  0  0  0  0
   -6.3224   -7.8354   -4.3071 O   0  0  0  0  0  0  0  0  0  0  0  0
   -8.0202   -6.8316   -2.8475 O   0  0  0  0  0  0  0  0  0  0  0  0
   -7.0886   -5.2803   -4.7799 C   0  0  0  0  0  0  0  0  0  0  0  0
   -8.2666   -5.6500   -5.7099 C   0  0  0  0  0  0  0  0  0  0  0  0
   -8.3598   -7.1582   -6.0311 C   0  0  0  0  0  0  0  0  0  0  0  0
   -7.2570   -7.5861   -6.9947 C   0  0  0  0  0  0  0  0  0  0  0  0
   -7.2429   -6.6537   -8.2013 C   0  0  0  0  0  0  0  0  0  0  0  0
   -7.1772   -5.1956   -7.7405 C   0  0  0  0  0  0  0  0  0  0  0  0
   -8.2664   -4.8683   -6.8953 O   0  0  0  0  0  0  0  0  0  0  0  0
   -5.7047   -7.3122   -0.4309 C   0  0  0  0  0  0  0  0  0  0  0  0
   -5.0978   -7.8817    0.6834 C   0  0  0  0  0  0  0  0  0  0  0  0
  1  2  3  0
  2  3  1  0
  3  4  2  0
  4  5  1  0
  5  6  2  0
  6  7  1  0
  7  8  1  0
  8  9  2  0
  8 10  2  0
  8 11  1  0
 11 12  1  0
 12 13  1  0
 13 14  1  0
 14 15  1  0
 15 16  1  0
 16 17  1  0
  6 18  1  0
 18 19  2  0
 19  3  1  0
 17 12  1  0
M  END
>  <ref_url>  (69) 
 https://www.notion.so/asapdiscovery/d68-STRIFE-compounds

>  <submitter_name>  (69) 
Lucy Vost

>  <submitter_email>  (69) 
lucy.vost@gtc.ox.ac.uk

>  <submitter_institution>  (69) 
University of Oxford

>  <generation_date>  (69) 
2023-08-28

>  <method>  (69) 
STRIFE - fragment elaboration new frags

>  <ref_mols>  (69) 
x1084

>  <ref_pdb>  (69) 
d68/D68EV3CPROA_apo.pdb

>  <original SMILES>  (69) 
CS(=O)(=O)Nc1ccc(CN)cc1

$$$$
ver_1.2
     RDKit          3D

 19 20  0  0  0  0  0  0  0  0999 V2000
   -3.2875   -7.6007    3.0208 C   0  0  0  0  0  0  0  0  0  0  0  0
   -3.0199   -8.5440    1.9374 C   0  0  0  0  0  0  0  0  0  0  0  0
   -3.7169   -8.1039    0.6867 C   0  0  0  0  0  0  0  0  0  0  0  0
   -2.9617   -7.8022   -0.4537 C   0  0  0  0  0  0  0  0  0  0  0  0
   -3.5616   -7.1853   -1.5462 C   0  0  0  0  0  0  0  0  0  0  0  0
   -4.9240   -6.8738   -1.5177 C   0  0  0  0  0  0  0  0  0  0  0  0
   -5.4618   -6.0798   -2.5789 N   0  0  0  0  0  0  0  0  0  0  0  0
   -6.7535   -6.5783   -3.6128 S   0  0  0  0  0  0  0  0  0  0  0  0
   -6.3224   -7.8354   -4.3071 O   0  0  0  0  0  0  0  0  0  0  0  0
   -8.0202   -6.8316   -2.8475 O   0  0  0  0  0  0  0  0  0  0  0  0
   -7.0886   -5.2803   -4.7799 C   0  0  0  0  0  0  0  0  0  0  0  0
   -8.2666   -5.6500   -5.7099 C   0  0  0  0  0  0  0  0  0  0  0  0
   -8.3598   -7.1582   -6.0311 C   0  0  0  0  0  0  0  0  0  0  0  0
   -7.2570   -7.5861   -6.9947 C   0  0  0  0  0  0  0  0  0  0  0  0
   -7.2429   -6.6537   -8.2013 C   0  0  0  0  0  0  0  0  0  0  0  0
   -7.1772   -5.1956   -7.7405 C   0  0  0  0  0  0  0  0  0  0  0  0
   -8.2664   -4.8683   -6.8953 O   0  0  0  0  0  0  0  0  0  0  0  0
   -5.7047   -7.3122   -0.4309 C   0  0  0  0  0  0  0  0  0  0  0  0
   -5.0978   -7.8817    0.6834 C   0  0  0  0  0  0  0  0  0  0  0  0
  1  2  3  0
  2  3  1  0
  3  4  2  0
  4  5  1  0
  5  6  2  0
  6  7  1  0
  7  8  1  0
  8  9  2  0
  8 10  2  0
  8 11  1  0
 11 12  1  0
 12 13  1  0
 13 14  1  0
 14 15  1  0
 15 16  1  0
 16 17  1  0
  6 18  1  0
 18 19  2  0
 19  3  1  0
 17 12  1  0
M  END
>  <ref_url>  (70) 
 https://www.notion.so/asapdiscovery/d68-STRIFE-compounds

>  <submitter_name>  (70) 
Lucy Vost

>  <submitter_email>  (70) 
lucy.vost@gtc.ox.ac.uk

>  <submitter_institution>  (70) 
University of Oxford

>  <generation_date>  (70) 
2023-08-28

>  <method>  (70) 
STRIFE - fragment elaboration new frags

>  <ref_mols>  (70) 
x1084

>  <ref_pdb>  (70) 
d68/D68EV3CPROA_apo.pdb

>  <original SMILES>  (70) 
CS(=O)(=O)Nc1ccc(CN)cc1

$$$$
ver_1.2
     RDKit          3D

 19 20  0  0  0  0  0  0  0  0999 V2000
   -3.2875   -7.6007    3.0208 C   0  0  0  0  0  0  0  0  0  0  0  0
   -3.0199   -8.5440    1.9374 C   0  0  0  0  0  0  0  0  0  0  0  0
   -3.7169   -8.1039    0.6867 C   0  0  0  0  0  0  0  0  0  0  0  0
   -5.0978   -7.8817    0.6834 C   0  0  0  0  0  0  0  0  0  0  0  0
   -5.7047   -7.3122   -0.4309 C   0  0  0  0  0  0  0  0  0  0  0  0
   -4.9240   -6.8738   -1.5177 C   0  0  0  0  0  0  0  0  0  0  0  0
   -5.4618   -6.0798   -2.5789 O   0  0  0  0  0  0  0  0  0  0  0  0
   -6.7535   -6.5783   -3.6128 S   0  0  0  0  0  0  0  0  0  0  0  0
   -8.0202   -6.8316   -2.8475 O   0  0  0  0  0  0  0  0  0  0  0  0
   -6.3224   -7.8354   -4.3071 O   0  0  0  0  0  0  0  0  0  0  0  0
   -7.0886   -5.2803   -4.7799 C   0  0  0  0  0  0  0  0  0  0  0  0
   -8.2666   -5.6500   -5.7099 C   0  0  0  0  0  0  0  0  0  0  0  0
   -8.3598   -7.1582   -6.0311 C   0  0  0  0  0  0  0  0  0  0  0  0
   -7.2570   -7.5861   -6.9947 C   0  0  0  0  0  0  0  0  0  0  0  0
   -7.2429   -6.6537   -8.2013 C   0  0  0  0  0  0  0  0  0  0  0  0
   -7.1772   -5.1956   -7.7405 C   0  0  0  0  0  0  0  0  0  0  0  0
   -8.2664   -4.8683   -6.8953 O   0  0  0  0  0  0  0  0  0  0  0  0
   -3.5616   -7.1853   -1.5462 C   0  0  0  0  0  0  0  0  0  0  0  0
   -2.9617   -7.8022   -0.4537 C   0  0  0  0  0  0  0  0  0  0  0  0
  1  2  1  0
  2  3  1  0
  3  4  2  0
  4  5  1  0
  5  6  2  0
  6  7  1  0
  7  8  1  0
  8  9  2  0
  8 10  2  0
  8 11  1  0
 11 12  1  0
 12 13  1  0
 13 14  1  0
 14 15  1  0
 15 16  1  0
 16 17  1  0
  6 18  1  0
 18 19  2  0
 19  3  1  0
 17 12  1  0
M  END
>  <ref_url>  (71) 
 https://www.notion.so/asapdiscovery/d68-STRIFE-compounds

>  <submitter_name>  (71) 
Lucy Vost

>  <submitter_email>  (71) 
lucy.vost@gtc.ox.ac.uk

>  <submitter_institution>  (71) 
University of Oxford

>  <generation_date>  (71) 
2023-08-28

>  <method>  (71) 
STRIFE - fragment elaboration new frags

>  <ref_mols>  (71) 
x1084

>  <ref_pdb>  (71) 
d68/D68EV3CPROA_apo.pdb

>  <original SMILES>  (71) 
CS(=O)(=O)Nc1ccc(CN)cc1

$$$$
ver_1.2
     RDKit          3D

 19 20  0  0  0  0  0  0  0  0999 V2000
   -3.2875   -7.6007    3.0208 C   0  0  0  0  0  0  0  0  0  0  0  0
   -3.0199   -8.5440    1.9374 O   0  0  0  0  0  0  0  0  0  0  0  0
   -3.7169   -8.1039    0.6867 C   0  0  0  0  0  0  0  0  0  0  0  0
   -5.0978   -7.8817    0.6834 C   0  0  0  0  0  0  0  0  0  0  0  0
   -5.7047   -7.3122   -0.4309 C   0  0  0  0  0  0  0  0  0  0  0  0
   -4.9240   -6.8738   -1.5177 C   0  0  0  0  0  0  0  0  0  0  0  0
   -5.4618   -6.0798   -2.5789 N   0  0  0  0  0  0  0  0  0  0  0  0
   -6.7535   -6.5783   -3.6128 S   0  0  0  0  0  0  0  0  0  0  0  0
   -6.3224   -7.8354   -4.3071 O   0  0  0  0  0  0  0  0  0  0  0  0
   -8.0202   -6.8316   -2.8475 O   0  0  0  0  0  0  0  0  0  0  0  0
   -7.0886   -5.2803   -4.7799 C   0  0  0  0  0  0  0  0  0  0  0  0
   -8.2666   -5.6500   -5.7099 C   0  0  0  0  0  0  0  0  0  0  0  0
   -8.3598   -7.1582   -6.0311 C   0  0  0  0  0  0  0  0  0  0  0  0
   -7.2570   -7.5861   -6.9947 C   0  0  0  0  0  0  0  0  0  0  0  0
   -7.2429   -6.6537   -8.2013 C   0  0  0  0  0  0  0  0  0  0  0  0
   -7.1772   -5.1956   -7.7405 C   0  0  0  0  0  0  0  0  0  0  0  0
   -8.2664   -4.8683   -6.8953 O   0  0  0  0  0  0  0  0  0  0  0  0
   -3.5616   -7.1853   -1.5462 C   0  0  0  0  0  0  0  0  0  0  0  0
   -2.9617   -7.8022   -0.4537 C   0  0  0  0  0  0  0  0  0  0  0  0
  1  2  1  0
  2  3  1  0
  3  4  2  0
  4  5  1  0
  5  6  2  0
  6  7  1  0
  7  8  1  0
  8  9  2  0
  8 10  2  0
  8 11  1  0
 11 12  1  0
 12 13  1  0
 13 14  1  0
 14 15  1  0
 15 16  1  0
 16 17  1  0
  6 18  1  0
 18 19  2  0
 19  3  1  0
 17 12  1  0
M  END
>  <ref_url>  (72) 
 https://www.notion.so/asapdiscovery/d68-STRIFE-compounds

>  <submitter_name>  (72) 
Lucy Vost

>  <submitter_email>  (72) 
lucy.vost@gtc.ox.ac.uk

>  <submitter_institution>  (72) 
University of Oxford

>  <generation_date>  (72) 
2023-08-28

>  <method>  (72) 
STRIFE - fragment elaboration new frags

>  <ref_mols>  (72) 
x1084

>  <ref_pdb>  (72) 
d68/D68EV3CPROA_apo.pdb

>  <original SMILES>  (72) 
CS(=O)(=O)Nc1ccc(CN)cc1

$$$$
ver_1.2
     RDKit          3D

 19 20  0  0  0  0  0  0  0  0999 V2000
   -3.2875   -7.6007    3.0208 C   0  0  0  0  0  0  0  0  0  0  0  0
   -3.0199   -8.5440    1.9374 S   0  0  0  0  0  0  0  0  0  0  0  0
   -3.7169   -8.1039    0.6867 C   0  0  0  0  0  0  0  0  0  0  0  0
   -2.9617   -7.8022   -0.4537 C   0  0  0  0  0  0  0  0  0  0  0  0
   -3.5616   -7.1853   -1.5462 C   0  0  0  0  0  0  0  0  0  0  0  0
   -4.9240   -6.8738   -1.5177 C   0  0  0  0  0  0  0  0  0  0  0  0
   -5.4618   -6.0798   -2.5789 N   0  0  0  0  0  0  0  0  0  0  0  0
   -6.7535   -6.5783   -3.6128 S   0  0  0  0  0  0  0  0  0  0  0  0
   -6.3224   -7.8354   -4.3071 O   0  0  0  0  0  0  0  0  0  0  0  0
   -8.0202   -6.8316   -2.8475 O   0  0  0  0  0  0  0  0  0  0  0  0
   -7.0886   -5.2803   -4.7799 C   0  0  0  0  0  0  0  0  0  0  0  0
   -8.2666   -5.6500   -5.7099 C   0  0  0  0  0  0  0  0  0  0  0  0
   -8.3598   -7.1582   -6.0311 C   0  0  0  0  0  0  0  0  0  0  0  0
   -7.2570   -7.5861   -6.9947 C   0  0  0  0  0  0  0  0  0  0  0  0
   -7.2429   -6.6537   -8.2013 C   0  0  0  0  0  0  0  0  0  0  0  0
   -7.1772   -5.1956   -7.7405 C   0  0  0  0  0  0  0  0  0  0  0  0
   -8.2664   -4.8683   -6.8953 O   0  0  0  0  0  0  0  0  0  0  0  0
   -5.7047   -7.3122   -0.4309 C   0  0  0  0  0  0  0  0  0  0  0  0
   -5.0978   -7.8817    0.6834 C   0  0  0  0  0  0  0  0  0  0  0  0
  1  2  1  0
  2  3  1  0
  3  4  2  0
  4  5  1  0
  5  6  2  0
  6  7  1  0
  7  8  1  0
  8  9  2  0
  8 10  2  0
  8 11  1  0
 11 12  1  0
 12 13  1  0
 13 14  1  0
 14 15  1  0
 15 16  1  0
 16 17  1  0
  6 18  1  0
 18 19  2  0
 19  3  1  0
 17 12  1  0
M  END
>  <ref_url>  (73) 
 https://www.notion.so/asapdiscovery/d68-STRIFE-compounds

>  <submitter_name>  (73) 
Lucy Vost

>  <submitter_email>  (73) 
lucy.vost@gtc.ox.ac.uk

>  <submitter_institution>  (73) 
University of Oxford

>  <generation_date>  (73) 
2023-08-28

>  <method>  (73) 
STRIFE - fragment elaboration new frags

>  <ref_mols>  (73) 
x1084

>  <ref_pdb>  (73) 
d68/D68EV3CPROA_apo.pdb

>  <original SMILES>  (73) 
CS(=O)(=O)Nc1ccc(CN)cc1

$$$$
ver_1.2
     RDKit          3D

 19 20  0  0  0  0  0  0  0  0999 V2000
   -9.9240   -2.6443   -7.5509 C   0  0  0  0  0  0  0  0  0  0  0  0
   -9.0565   -3.7895   -7.1569 C   0  0  0  0  0  0  0  0  0  0  0  0
   -9.1421   -4.6136   -5.6946 C   0  0  0  0  0  0  0  0  0  0  0  0
   -7.8576   -5.6249   -6.0940 C   0  0  0  0  0  0  0  0  0  0  0  0
   -7.2983   -6.6737   -5.1996 C   0  0  0  0  0  0  0  0  0  0  0  0
   -6.6305   -5.9370   -3.7260 S   0  0  0  0  0  0  0  0  0  0  0  0
   -7.5248   -6.2025   -2.5506 O   0  0  0  0  0  0  0  0  0  0  0  0
   -6.5564   -4.4581   -3.9719 O   0  0  0  0  0  0  0  0  0  0  0  0
   -5.0724   -6.6122   -3.3803 N   0  0  0  0  0  0  0  0  0  0  0  0
   -4.7426   -7.3240   -2.1832 C   0  0  0  0  0  0  0  0  0  0  0  0
   -3.5024   -7.0827   -1.5831 C   0  0  0  0  0  0  0  0  0  0  0  0
   -3.2088   -7.6280   -0.3366 C   0  0  0  0  0  0  0  0  0  0  0  0
   -4.1576   -8.4155    0.3290 C   0  0  0  0  0  0  0  0  0  0  0  0
   -3.9230   -8.8069    1.7533 C   0  0  0  0  0  0  0  0  0  0  0  0
   -3.8011   -7.6011    2.5667 N   0  0  0  0  0  0  0  0  0  0  0  0
   -5.3605   -8.7378   -0.3092 C   0  0  0  0  0  0  0  0  0  0  0  0
   -5.6327   -8.2291   -1.5755 C   0  0  0  0  0  0  0  0  0  0  0  0
   -7.3416   -5.3320   -7.3080 N   0  0  0  0  0  0  0  0  0  0  0  0
   -8.0065   -4.3086   -7.9040 O   0  0  0  0  0  0  0  0  0  0  0  0
  1  2  1  0
  2  3  2  0
  3  4  1  0
  4  5  1  0
  5  6  1  0
  6  7  2  0
  6  8  2  0
  6  9  1  0
  9 10  1  0
 10 11  2  0
 11 12  1  0
 12 13  2  0
 13 14  1  0
 14 15  1  0
 13 16  1  0
 16 17  2  0
  4 18  2  0
 18 19  1  0
 19  2  1  0
 17 10  1  0
M  END
>  <ref_url>  (74) 
 https://www.notion.so/asapdiscovery/d68-STRIFE-compounds

>  <submitter_name>  (74) 
Lucy Vost

>  <submitter_email>  (74) 
lucy.vost@gtc.ox.ac.uk

>  <submitter_institution>  (74) 
University of Oxford

>  <generation_date>  (74) 
2023-08-28

>  <method>  (74) 
STRIFE - fragment elaboration new frags

>  <ref_mols>  (74) 
x1084

>  <ref_pdb>  (74) 
d68/D68EV3CPROA_apo.pdb

>  <original SMILES>  (74) 
CS(=O)(=O)Nc1ccc(CN)cc1

$$$$
ver_1.2
     RDKit          3D

 19 20  0  0  0  0  0  0  0  0999 V2000
   -9.9240   -2.6443   -7.5509 C   0  0  0  0  0  0  0  0  0  0  0  0
   -9.0565   -3.7895   -7.1569 C   0  0  0  0  0  0  0  0  0  0  0  0
   -8.0065   -4.3086   -7.9040 C   0  0  0  0  0  0  0  0  0  0  0  0
   -7.3416   -5.3320   -7.3080 N   0  0  0  0  0  0  0  0  0  0  0  0
   -7.8576   -5.6249   -6.0940 C   0  0  0  0  0  0  0  0  0  0  0  0
   -7.2983   -6.6737   -5.1996 C   0  0  0  0  0  0  0  0  0  0  0  0
   -6.6305   -5.9370   -3.7260 S   0  0  0  0  0  0  0  0  0  0  0  0
   -7.5248   -6.2025   -2.5506 O   0  0  0  0  0  0  0  0  0  0  0  0
   -6.5564   -4.4581   -3.9719 O   0  0  0  0  0  0  0  0  0  0  0  0
   -5.0724   -6.6122   -3.3803 C   0  0  0  0  0  0  0  0  0  0  0  0
   -4.7426   -7.3240   -2.1832 C   0  0  0  0  0  0  0  0  0  0  0  0
   -3.5024   -7.0827   -1.5831 C   0  0  0  0  0  0  0  0  0  0  0  0
   -3.2088   -7.6280   -0.3366 C   0  0  0  0  0  0  0  0  0  0  0  0
   -4.1576   -8.4155    0.3290 C   0  0  0  0  0  0  0  0  0  0  0  0
   -3.9230   -8.8069    1.7533 C   0  0  0  0  0  0  0  0  0  0  0  0
   -3.8011   -7.6011    2.5667 F   0  0  0  0  0  0  0  0  0  0  0  0
   -5.3605   -8.7378   -0.3092 C   0  0  0  0  0  0  0  0  0  0  0  0
   -5.6327   -8.2291   -1.5755 C   0  0  0  0  0  0  0  0  0  0  0  0
   -9.1421   -4.6136   -5.6946 S   0  0  0  0  0  0  0  0  0  0  0  0
  1  2  1  0
  2  3  2  0
  3  4  1  0
  4  5  2  0
  5  6  1  0
  6  7  1  0
  7  8  2  0
  7  9  2  0
  7 10  1  0
 10 11  1  0
 11 12  2  0
 12 13  1  0
 13 14  2  0
 14 15  1  0
 15 16  1  0
 14 17  1  0
 17 18  2  0
  5 19  1  0
 19  2  1  0
 18 11  1  0
M  END
>  <ref_url>  (75) 
 https://www.notion.so/asapdiscovery/d68-STRIFE-compounds

>  <submitter_name>  (75) 
Lucy Vost

>  <submitter_email>  (75) 
lucy.vost@gtc.ox.ac.uk

>  <submitter_institution>  (75) 
University of Oxford

>  <generation_date>  (75) 
2023-08-28

>  <method>  (75) 
STRIFE - fragment elaboration new frags

>  <ref_mols>  (75) 
x1084

>  <ref_pdb>  (75) 
d68/D68EV3CPROA_apo.pdb

>  <original SMILES>  (75) 
CS(=O)(=O)Nc1ccc(CN)cc1

$$$$
ver_1.2
     RDKit          3D

 19 20  0  0  0  0  0  0  0  0999 V2000
   -9.9240   -2.6443   -7.5509 C   0  0  0  0  0  0  0  0  0  0  0  0
   -9.0565   -3.7895   -7.1569 C   0  0  0  0  0  0  0  0  0  0  0  0
   -8.0065   -4.3086   -7.9040 C   0  0  0  0  0  0  0  0  0  0  0  0
   -7.3416   -5.3320   -7.3080 N   0  0  0  0  0  0  0  0  0  0  0  0
   -7.8576   -5.6249   -6.0940 C   0  0  0  0  0  0  0  0  0  0  0  0
   -7.2983   -6.6737   -5.1996 C   0  0  0  0  0  0  0  0  0  0  0  0
   -6.6305   -5.9370   -3.7260 S   0  0  0  0  0  0  0  0  0  0  0  0
   -7.5248   -6.2025   -2.5506 O   0  0  0  0  0  0  0  0  0  0  0  0
   -6.5564   -4.4581   -3.9719 O   0  0  0  0  0  0  0  0  0  0  0  0
   -5.0724   -6.6122   -3.3803 C   0  0  0  0  0  0  0  0  0  0  0  0
   -4.7426   -7.3240   -2.1832 C   0  0  0  0  0  0  0  0  0  0  0  0
   -3.5024   -7.0827   -1.5831 C   0  0  0  0  0  0  0  0  0  0  0  0
   -3.2088   -7.6280   -0.3366 C   0  0  0  0  0  0  0  0  0  0  0  0
   -4.1576   -8.4155    0.3290 C   0  0  0  0  0  0  0  0  0  0  0  0
   -3.9230   -8.8069    1.7533 C   0  0  0  0  0  0  0  0  0  0  0  0
   -3.8011   -7.6011    2.5667 O   0  0  0  0  0  0  0  0  0  0  0  0
   -5.3605   -8.7378   -0.3092 C   0  0  0  0  0  0  0  0  0  0  0  0
   -5.6327   -8.2291   -1.5755 C   0  0  0  0  0  0  0  0  0  0  0  0
   -9.1421   -4.6136   -5.6946 S   0  0  0  0  0  0  0  0  0  0  0  0
  1  2  1  0
  2  3  2  0
  3  4  1  0
  4  5  2  0
  5  6  1  0
  6  7  1  0
  7  8  2  0
  7  9  2  0
  7 10  1  0
 10 11  1  0
 11 12  2  0
 12 13  1  0
 13 14  2  0
 14 15  1  0
 15 16  1  0
 14 17  1  0
 17 18  2  0
  5 19  1  0
 19  2  1  0
 18 11  1  0
M  END
>  <ref_url>  (76) 
 https://www.notion.so/asapdiscovery/d68-STRIFE-compounds

>  <submitter_name>  (76) 
Lucy Vost

>  <submitter_email>  (76) 
lucy.vost@gtc.ox.ac.uk

>  <submitter_institution>  (76) 
University of Oxford

>  <generation_date>  (76) 
2023-08-28

>  <method>  (76) 
STRIFE - fragment elaboration new frags

>  <ref_mols>  (76) 
x1084

>  <ref_pdb>  (76) 
d68/D68EV3CPROA_apo.pdb

>  <original SMILES>  (76) 
CS(=O)(=O)Nc1ccc(CN)cc1

$$$$
ver_1.2
     RDKit          3D

 19 20  0  0  0  0  0  0  0  0999 V2000
   -9.9240   -2.6443   -7.5509 C   0  0  0  0  0  0  0  0  0  0  0  0
   -9.0565   -3.7895   -7.1569 C   0  0  0  0  0  0  0  0  0  0  0  0
   -8.0065   -4.3086   -7.9040 C   0  0  0  0  0  0  0  0  0  0  0  0
   -7.3416   -5.3320   -7.3080 N   0  0  0  0  0  0  0  0  0  0  0  0
   -7.8576   -5.6249   -6.0940 C   0  0  0  0  0  0  0  0  0  0  0  0
   -7.2983   -6.6737   -5.1996 C   0  0  0  0  0  0  0  0  0  0  0  0
   -6.6305   -5.9370   -3.7260 S   0  0  0  0  0  0  0  0  0  0  0  0
   -7.5248   -6.2025   -2.5506 O   0  0  0  0  0  0  0  0  0  0  0  0
   -6.5564   -4.4581   -3.9719 O   0  0  0  0  0  0  0  0  0  0  0  0
   -5.0724   -6.6122   -3.3803 C   0  0  0  0  0  0  0  0  0  0  0  0
   -4.7426   -7.3240   -2.1832 C   0  0  0  0  0  0  0  0  0  0  0  0
   -3.5024   -7.0827   -1.5831 C   0  0  0  0  0  0  0  0  0  0  0  0
   -3.2088   -7.6280   -0.3366 C   0  0  0  0  0  0  0  0  0  0  0  0
   -4.1576   -8.4155    0.3290 C   0  0  0  0  0  0  0  0  0  0  0  0
   -3.9230   -8.8069    1.7533 C   0  0  0  0  0  0  0  0  0  0  0  0
   -3.8011   -7.6011    2.5667 N   0  0  0  0  0  0  0  0  0  0  0  0
   -5.3605   -8.7378   -0.3092 C   0  0  0  0  0  0  0  0  0  0  0  0
   -5.6327   -8.2291   -1.5755 C   0  0  0  0  0  0  0  0  0  0  0  0
   -9.1421   -4.6136   -5.6946 S   0  0  0  0  0  0  0  0  0  0  0  0
  1  2  1  0
  2  3  2  0
  3  4  1  0
  4  5  2  0
  5  6  1  0
  6  7  1  0
  7  8  2  0
  7  9  2  0
  7 10  1  0
 10 11  1  0
 11 12  2  0
 12 13  1  0
 13 14  2  0
 14 15  1  0
 15 16  3  0
 14 17  1  0
 17 18  2  0
  5 19  1  0
 19  2  1  0
 18 11  1  0
M  END
>  <ref_url>  (77) 
 https://www.notion.so/asapdiscovery/d68-STRIFE-compounds

>  <submitter_name>  (77) 
Lucy Vost

>  <submitter_email>  (77) 
lucy.vost@gtc.ox.ac.uk

>  <submitter_institution>  (77) 
University of Oxford

>  <generation_date>  (77) 
2023-08-28

>  <method>  (77) 
STRIFE - fragment elaboration new frags

>  <ref_mols>  (77) 
x1084

>  <ref_pdb>  (77) 
d68/D68EV3CPROA_apo.pdb

>  <original SMILES>  (77) 
CS(=O)(=O)Nc1ccc(CN)cc1

$$$$
ver_1.2
     RDKit          3D

 19 20  0  0  0  0  0  0  0  0999 V2000
   -9.9240   -2.6443   -7.5509 C   0  0  0  0  0  0  0  0  0  0  0  0
   -9.0565   -3.7895   -7.1569 C   0  0  0  0  0  0  0  0  0  0  0  0
   -8.0065   -4.3086   -7.9040 C   0  0  0  0  0  0  0  0  0  0  0  0
   -7.3416   -5.3320   -7.3080 N   0  0  0  0  0  0  0  0  0  0  0  0
   -7.8576   -5.6249   -6.0940 C   0  0  0  0  0  0  0  0  0  0  0  0
   -7.2983   -6.6737   -5.1996 C   0  0  0  0  0  0  0  0  0  0  0  0
   -6.6305   -5.9370   -3.7260 S   0  0  0  0  0  0  0  0  0  0  0  0
   -6.5564   -4.4581   -3.9719 O   0  0  0  0  0  0  0  0  0  0  0  0
   -7.5248   -6.2025   -2.5506 O   0  0  0  0  0  0  0  0  0  0  0  0
   -5.0724   -6.6122   -3.3803 C   0  0  0  0  0  0  0  0  0  0  0  0
   -4.7426   -7.3240   -2.1832 C   0  0  0  0  0  0  0  0  0  0  0  0
   -3.5024   -7.0827   -1.5831 C   0  0  0  0  0  0  0  0  0  0  0  0
   -3.2088   -7.6280   -0.3366 C   0  0  0  0  0  0  0  0  0  0  0  0
   -4.1576   -8.4155    0.3290 C   0  0  0  0  0  0  0  0  0  0  0  0
   -3.9230   -8.8069    1.7533 C   0  0  0  0  0  0  0  0  0  0  0  0
   -3.8011   -7.6011    2.5667 F   0  0  0  0  0  0  0  0  0  0  0  0
   -5.3605   -8.7378   -0.3092 C   0  0  0  0  0  0  0  0  0  0  0  0
   -5.6327   -8.2291   -1.5755 C   0  0  0  0  0  0  0  0  0  0  0  0
   -9.1421   -4.6136   -5.6946 O   0  0  0  0  0  0  0  0  0  0  0  0
  1  2  1  0
  2  3  2  0
  3  4  1  0
  4  5  2  0
  5  6  1  0
  6  7  1  0
  7  8  2  0
  7  9  2  0
  7 10  1  0
 10 11  1  0
 11 12  2  0
 12 13  1  0
 13 14  2  0
 14 15  1  0
 15 16  1  0
 14 17  1  0
 17 18  2  0
  5 19  1  0
 19  2  1  0
 18 11  1  0
M  END
>  <ref_url>  (78) 
 https://www.notion.so/asapdiscovery/d68-STRIFE-compounds

>  <submitter_name>  (78) 
Lucy Vost

>  <submitter_email>  (78) 
lucy.vost@gtc.ox.ac.uk

>  <submitter_institution>  (78) 
University of Oxford

>  <generation_date>  (78) 
2023-08-28

>  <method>  (78) 
STRIFE - fragment elaboration new frags

>  <ref_mols>  (78) 
x1084

>  <ref_pdb>  (78) 
d68/D68EV3CPROA_apo.pdb

>  <original SMILES>  (78) 
CS(=O)(=O)Nc1ccc(CN)cc1

$$$$
ver_1.2
     RDKit          3D

 19 20  0  0  0  0  0  0  0  0999 V2000
   -9.9240   -2.6443   -7.5509 C   0  0  0  0  0  0  0  0  0  0  0  0
   -9.0565   -3.7895   -7.1569 C   0  0  0  0  0  0  0  0  0  0  0  0
   -8.0065   -4.3086   -7.9040 C   0  0  0  0  0  0  0  0  0  0  0  0
   -7.3416   -5.3320   -7.3080 N   0  0  0  0  0  0  0  0  0  0  0  0
   -7.8576   -5.6249   -6.0940 C   0  0  0  0  0  0  0  0  0  0  0  0
   -7.2983   -6.6737   -5.1996 C   0  0  0  0  0  0  0  0  0  0  0  0
   -6.6305   -5.9370   -3.7260 S   0  0  0  0  0  0  0  0  0  0  0  0
   -7.5248   -6.2025   -2.5506 O   0  0  0  0  0  0  0  0  0  0  0  0
   -6.5564   -4.4581   -3.9719 O   0  0  0  0  0  0  0  0  0  0  0  0
   -5.0724   -6.6122   -3.3803 C   0  0  0  0  0  0  0  0  0  0  0  0
   -4.7426   -7.3240   -2.1832 C   0  0  0  0  0  0  0  0  0  0  0  0
   -3.5024   -7.0827   -1.5831 C   0  0  0  0  0  0  0  0  0  0  0  0
   -3.2088   -7.6280   -0.3366 C   0  0  0  0  0  0  0  0  0  0  0  0
   -4.1576   -8.4155    0.3290 C   0  0  0  0  0  0  0  0  0  0  0  0
   -3.9230   -8.8069    1.7533 C   0  0  0  0  0  0  0  0  0  0  0  0
   -3.8011   -7.6011    2.5667 O   0  0  0  0  0  0  0  0  0  0  0  0
   -5.3605   -8.7378   -0.3092 C   0  0  0  0  0  0  0  0  0  0  0  0
   -5.6327   -8.2291   -1.5755 C   0  0  0  0  0  0  0  0  0  0  0  0
   -9.1421   -4.6136   -5.6946 O   0  0  0  0  0  0  0  0  0  0  0  0
  1  2  1  0
  2  3  2  0
  3  4  1  0
  4  5  2  0
  5  6  1  0
  6  7  1  0
  7  8  2  0
  7  9  2  0
  7 10  1  0
 10 11  1  0
 11 12  2  0
 12 13  1  0
 13 14  2  0
 14 15  1  0
 15 16  1  0
 14 17  1  0
 17 18  2  0
  5 19  1  0
 19  2  1  0
 18 11  1  0
M  END
>  <ref_url>  (79) 
 https://www.notion.so/asapdiscovery/d68-STRIFE-compounds

>  <submitter_name>  (79) 
Lucy Vost

>  <submitter_email>  (79) 
lucy.vost@gtc.ox.ac.uk

>  <submitter_institution>  (79) 
University of Oxford

>  <generation_date>  (79) 
2023-08-28

>  <method>  (79) 
STRIFE - fragment elaboration new frags

>  <ref_mols>  (79) 
x1084

>  <ref_pdb>  (79) 
d68/D68EV3CPROA_apo.pdb

>  <original SMILES>  (79) 
CS(=O)(=O)Nc1ccc(CN)cc1

$$$$
ver_1.2
     RDKit          3D

 19 20  0  0  0  0  0  0  0  0999 V2000
   -7.5434   -3.8535   -9.2783 C   0  0  0  0  0  0  0  0  0  0  0  0
   -8.0065   -4.3086   -7.9040 C   0  0  0  0  0  0  0  0  0  0  0  0
   -7.3416   -5.3320   -7.3080 N   0  0  0  0  0  0  0  0  0  0  0  0
   -7.8576   -5.6249   -6.0940 C   0  0  0  0  0  0  0  0  0  0  0  0
   -7.2983   -6.6737   -5.1996 C   0  0  0  0  0  0  0  0  0  0  0  0
   -6.6305   -5.9370   -3.7260 S   0  0  0  0  0  0  0  0  0  0  0  0
   -6.5564   -4.4581   -3.9719 O   0  0  0  0  0  0  0  0  0  0  0  0
   -7.5248   -6.2025   -2.5506 O   0  0  0  0  0  0  0  0  0  0  0  0
   -5.0724   -6.6122   -3.3803 N   0  0  0  0  0  0  0  0  0  0  0  0
   -4.7426   -7.3240   -2.1832 C   0  0  0  0  0  0  0  0  0  0  0  0
   -3.5024   -7.0827   -1.5831 C   0  0  0  0  0  0  0  0  0  0  0  0
   -3.2088   -7.6280   -0.3366 C   0  0  0  0  0  0  0  0  0  0  0  0
   -4.1576   -8.4155    0.3290 C   0  0  0  0  0  0  0  0  0  0  0  0
   -3.9230   -8.8069    1.7533 C   0  0  0  0  0  0  0  0  0  0  0  0
   -3.8011   -7.6011    2.5667 N   0  0  0  0  0  0  0  0  0  0  0  0
   -5.3605   -8.7378   -0.3092 C   0  0  0  0  0  0  0  0  0  0  0  0
   -5.6327   -8.2291   -1.5755 C   0  0  0  0  0  0  0  0  0  0  0  0
   -9.1421   -4.6136   -5.6946 C   0  0  0  0  0  0  0  0  0  0  0  0
   -9.0565   -3.7895   -7.1569 S   0  0  0  0  0  0  0  0  0  0  0  0
  1  2  1  0
  2  3  2  0
  3  4  1  0
  4  5  1  0
  5  6  1  0
  6  7  2  0
  6  8  2  0
  6  9  1  0
  9 10  1  0
 10 11  2  0
 11 12  1  0
 12 13  2  0
 13 14  1  0
 14 15  1  0
 13 16  1  0
 16 17  2  0
  4 18  2  0
 18 19  1  0
 19  2  1  0
 17 10  1  0
M  END
>  <ref_url>  (80) 
 https://www.notion.so/asapdiscovery/d68-STRIFE-compounds

>  <submitter_name>  (80) 
Lucy Vost

>  <submitter_email>  (80) 
lucy.vost@gtc.ox.ac.uk

>  <submitter_institution>  (80) 
University of Oxford

>  <generation_date>  (80) 
2023-08-28

>  <method>  (80) 
STRIFE - fragment elaboration new frags

>  <ref_mols>  (80) 
x1084

>  <ref_pdb>  (80) 
d68/D68EV3CPROA_apo.pdb

>  <original SMILES>  (80) 
CS(=O)(=O)Nc1ccc(CN)cc1

$$$$
ver_1.2
     RDKit          3D

 19 20  0  0  0  0  0  0  0  0999 V2000
   -9.9240   -2.6443   -7.5509 C   0  0  0  0  0  0  0  0  0  0  0  0
   -9.0565   -3.7895   -7.1569 C   0  0  0  0  0  0  0  0  0  0  0  0
   -8.0065   -4.3086   -7.9040 N   0  0  0  0  0  0  0  0  0  0  0  0
   -7.3416   -5.3320   -7.3080 N   0  0  0  0  0  0  0  0  0  0  0  0
   -7.8576   -5.6249   -6.0940 C   0  0  0  0  0  0  0  0  0  0  0  0
   -7.2983   -6.6737   -5.1996 C   0  0  0  0  0  0  0  0  0  0  0  0
   -6.6305   -5.9370   -3.7260 S   0  0  0  0  0  0  0  0  0  0  0  0
   -7.5248   -6.2025   -2.5506 O   0  0  0  0  0  0  0  0  0  0  0  0
   -6.5564   -4.4581   -3.9719 O   0  0  0  0  0  0  0  0  0  0  0  0
   -5.0724   -6.6122   -3.3803 C   0  0  0  0  0  0  0  0  0  0  0  0
   -4.7426   -7.3240   -2.1832 C   0  0  0  0  0  0  0  0  0  0  0  0
   -3.5024   -7.0827   -1.5831 C   0  0  0  0  0  0  0  0  0  0  0  0
   -3.2088   -7.6280   -0.3366 C   0  0  0  0  0  0  0  0  0  0  0  0
   -4.1576   -8.4155    0.3290 C   0  0  0  0  0  0  0  0  0  0  0  0
   -3.9230   -8.8069    1.7533 C   0  0  0  0  0  0  0  0  0  0  0  0
   -3.8011   -7.6011    2.5667 F   0  0  0  0  0  0  0  0  0  0  0  0
   -5.3605   -8.7378   -0.3092 C   0  0  0  0  0  0  0  0  0  0  0  0
   -5.6327   -8.2291   -1.5755 C   0  0  0  0  0  0  0  0  0  0  0  0
   -9.1421   -4.6136   -5.6946 S   0  0  0  0  0  0  0  0  0  0  0  0
  1  2  1  0
  2  3  2  0
  3  4  1  0
  4  5  2  0
  5  6  1  0
  6  7  1  0
  7  8  2  0
  7  9  2  0
  7 10  1  0
 10 11  1  0
 11 12  2  0
 12 13  1  0
 13 14  2  0
 14 15  1  0
 15 16  1  0
 14 17  1  0
 17 18  2  0
  5 19  1  0
 19  2  1  0
 18 11  1  0
M  END
>  <ref_url>  (81) 
 https://www.notion.so/asapdiscovery/d68-STRIFE-compounds

>  <submitter_name>  (81) 
Lucy Vost

>  <submitter_email>  (81) 
lucy.vost@gtc.ox.ac.uk

>  <submitter_institution>  (81) 
University of Oxford

>  <generation_date>  (81) 
2023-08-28

>  <method>  (81) 
STRIFE - fragment elaboration new frags

>  <ref_mols>  (81) 
x1084

>  <ref_pdb>  (81) 
d68/D68EV3CPROA_apo.pdb

>  <original SMILES>  (81) 
CS(=O)(=O)Nc1ccc(CN)cc1

$$$$
ver_1.2
     RDKit          3D

 19 20  0  0  0  0  0  0  0  0999 V2000
   -9.9240   -2.6443   -7.5509 C   0  0  0  0  0  0  0  0  0  0  0  0
   -9.0565   -3.7895   -7.1569 C   0  0  0  0  0  0  0  0  0  0  0  0
   -8.0065   -4.3086   -7.9040 N   0  0  0  0  0  0  0  0  0  0  0  0
   -7.3416   -5.3320   -7.3080 N   0  0  0  0  0  0  0  0  0  0  0  0
   -7.8576   -5.6249   -6.0940 C   0  0  0  0  0  0  0  0  0  0  0  0
   -7.2983   -6.6737   -5.1996 C   0  0  0  0  0  0  0  0  0  0  0  0
   -6.6305   -5.9370   -3.7260 S   0  0  0  0  0  0  0  0  0  0  0  0
   -7.5248   -6.2025   -2.5506 O   0  0  0  0  0  0  0  0  0  0  0  0
   -6.5564   -4.4581   -3.9719 O   0  0  0  0  0  0  0  0  0  0  0  0
   -5.0724   -6.6122   -3.3803 C   0  0  0  0  0  0  0  0  0  0  0  0
   -4.7426   -7.3240   -2.1832 C   0  0  0  0  0  0  0  0  0  0  0  0
   -3.5024   -7.0827   -1.5831 C   0  0  0  0  0  0  0  0  0  0  0  0
   -3.2088   -7.6280   -0.3366 C   0  0  0  0  0  0  0  0  0  0  0  0
   -4.1576   -8.4155    0.3290 C   0  0  0  0  0  0  0  0  0  0  0  0
   -3.9230   -8.8069    1.7533 C   0  0  0  0  0  0  0  0  0  0  0  0
   -3.8011   -7.6011    2.5667 O   0  0  0  0  0  0  0  0  0  0  0  0
   -5.3605   -8.7378   -0.3092 C   0  0  0  0  0  0  0  0  0  0  0  0
   -5.6327   -8.2291   -1.5755 C   0  0  0  0  0  0  0  0  0  0  0  0
   -9.1421   -4.6136   -5.6946 S   0  0  0  0  0  0  0  0  0  0  0  0
  1  2  1  0
  2  3  2  0
  3  4  1  0
  4  5  2  0
  5  6  1  0
  6  7  1  0
  7  8  2  0
  7  9  2  0
  7 10  1  0
 10 11  1  0
 11 12  2  0
 12 13  1  0
 13 14  2  0
 14 15  1  0
 15 16  1  0
 14 17  1  0
 17 18  2  0
  5 19  1  0
 19  2  1  0
 18 11  1  0
M  END
>  <ref_url>  (82) 
 https://www.notion.so/asapdiscovery/d68-STRIFE-compounds

>  <submitter_name>  (82) 
Lucy Vost

>  <submitter_email>  (82) 
lucy.vost@gtc.ox.ac.uk

>  <submitter_institution>  (82) 
University of Oxford

>  <generation_date>  (82) 
2023-08-28

>  <method>  (82) 
STRIFE - fragment elaboration new frags

>  <ref_mols>  (82) 
x1084

>  <ref_pdb>  (82) 
d68/D68EV3CPROA_apo.pdb

>  <original SMILES>  (82) 
CS(=O)(=O)Nc1ccc(CN)cc1

$$$$
ver_1.2
     RDKit          3D

 19 20  0  0  0  0  0  0  0  0999 V2000
   -9.9240   -2.6443   -7.5509 C   0  0  0  0  0  0  0  0  0  0  0  0
   -9.0565   -3.7895   -7.1569 C   0  0  0  0  0  0  0  0  0  0  0  0
   -8.0065   -4.3086   -7.9040 N   0  0  0  0  0  0  0  0  0  0  0  0
   -7.3416   -5.3320   -7.3080 O   0  0  0  0  0  0  0  0  0  0  0  0
   -7.8576   -5.6249   -6.0940 C   0  0  0  0  0  0  0  0  0  0  0  0
   -7.2983   -6.6737   -5.1996 C   0  0  0  0  0  0  0  0  0  0  0  0
   -6.6305   -5.9370   -3.7260 S   0  0  0  0  0  0  0  0  0  0  0  0
   -7.5248   -6.2025   -2.5506 O   0  0  0  0  0  0  0  0  0  0  0  0
   -6.5564   -4.4581   -3.9719 O   0  0  0  0  0  0  0  0  0  0  0  0
   -5.0724   -6.6122   -3.3803 N   0  0  0  0  0  0  0  0  0  0  0  0
   -4.7426   -7.3240   -2.1832 C   0  0  0  0  0  0  0  0  0  0  0  0
   -3.5024   -7.0827   -1.5831 C   0  0  0  0  0  0  0  0  0  0  0  0
   -3.2088   -7.6280   -0.3366 C   0  0  0  0  0  0  0  0  0  0  0  0
   -4.1576   -8.4155    0.3290 C   0  0  0  0  0  0  0  0  0  0  0  0
   -3.9230   -8.8069    1.7533 C   0  0  0  0  0  0  0  0  0  0  0  0
   -3.8011   -7.6011    2.5667 N   0  0  0  0  0  0  0  0  0  0  0  0
   -5.3605   -8.7378   -0.3092 C   0  0  0  0  0  0  0  0  0  0  0  0
   -5.6327   -8.2291   -1.5755 C   0  0  0  0  0  0  0  0  0  0  0  0
   -9.1421   -4.6136   -5.6946 C   0  0  0  0  0  0  0  0  0  0  0  0
  1  2  1  0
  2  3  2  0
  3  4  1  0
  4  5  1  0
  5  6  1  0
  6  7  1  0
  7  8  2  0
  7  9  2  0
  7 10  1  0
 10 11  1  0
 11 12  2  0
 12 13  1  0
 13 14  2  0
 14 15  1  0
 15 16  1  0
 14 17  1  0
 17 18  2  0
  5 19  2  0
 19  2  1  0
 18 11  1  0
M  END
>  <ref_url>  (83) 
 https://www.notion.so/asapdiscovery/d68-STRIFE-compounds

>  <submitter_name>  (83) 
Lucy Vost

>  <submitter_email>  (83) 
lucy.vost@gtc.ox.ac.uk

>  <submitter_institution>  (83) 
University of Oxford

>  <generation_date>  (83) 
2023-08-28

>  <method>  (83) 
STRIFE - fragment elaboration new frags

>  <ref_mols>  (83) 
x1084

>  <ref_pdb>  (83) 
d68/D68EV3CPROA_apo.pdb

>  <original SMILES>  (83) 
CS(=O)(=O)Nc1ccc(CN)cc1

$$$$
ver_1.2
     RDKit          3D

 21 22  0  0  0  0  0  0  0  0999 V2000
   -2.4800   -8.7504   -0.5279 C   0  0  0  0  0  0  0  0  0  0  0  0
   -3.2943   -7.5948   -0.4037 O   0  0  0  0  0  0  0  0  0  0  0  0
   -3.6364   -7.0918   -1.6548 C   0  0  0  0  0  0  0  0  0  0  0  0
   -3.9031   -8.8022    1.7046 C   0  0  0  0  0  0  0  0  0  0  0  0
   -4.1668   -8.4588    0.2703 C   0  0  0  0  0  0  0  0  0  0  0  0
   -5.3340   -8.8986   -0.3629 C   0  0  0  0  0  0  0  0  0  0  0  0
   -5.6499   -8.4328   -1.6353 N   0  0  0  0  0  0  0  0  0  0  0  0
   -4.8478   -7.4540   -2.2524 C   0  0  0  0  0  0  0  0  0  0  0  0
   -5.2436   -6.7823   -3.4530 C   0  0  0  0  0  0  0  0  0  0  0  0
   -6.7540   -5.9654   -3.6669 S   0  0  0  0  0  0  0  0  0  0  0  0
   -6.5671   -4.5612   -4.1647 O   0  0  0  0  0  0  0  0  0  0  0  0
   -7.4618   -5.9387   -2.3440 O   0  0  0  0  0  0  0  0  0  0  0  0
   -7.7110   -6.8377   -4.8838 C   0  0  0  0  0  0  0  0  0  0  0  0
   -7.7434   -6.0570   -6.1706 C   0  0  0  0  0  0  0  0  0  0  0  0
   -6.5961   -6.0167   -6.9795 C   0  0  0  0  0  0  0  0  0  0  0  0
   -6.5917   -5.2968   -8.1316 C   0  0  0  0  0  0  0  0  0  0  0  0
   -7.6793   -4.5918   -8.5365 C   0  0  0  0  0  0  0  0  0  0  0  0
   -7.6528   -3.8161   -9.8149 C   0  0  0  0  0  0  0  0  0  0  0  0
   -7.2773   -2.5204   -9.6391 F   0  0  0  0  0  0  0  0  0  0  0  0
   -8.8395   -4.5893   -7.7624 C   0  0  0  0  0  0  0  0  0  0  0  0
   -8.8775   -5.3210   -6.5716 C   0  0  0  0  0  0  0  0  0  0  0  0
  1  2  1  0
  2  3  1  0
  3  4  2  0
  4  5  1  0
  5  6  2  0
  6  7  1  0
  7  8  2  0
  8  9  1  0
  9 10  1  0
 10 11  2  0
 10 12  2  0
 10 13  1  0
 13 14  1  0
 14 15  2  0
 15 16  1  0
 16 17  2  0
 17 18  1  0
 18 19  1  0
 17 20  1  0
 20 21  2  0
  8  3  1  0
 21 14  1  0
M  END
>  <ref_url>  (84) 
 https://www.notion.so/asapdiscovery/d68-STRIFE-compounds

>  <submitter_name>  (84) 
Lucy Vost

>  <submitter_email>  (84) 
lucy.vost@gtc.ox.ac.uk

>  <submitter_institution>  (84) 
University of Oxford

>  <generation_date>  (84) 
2023-08-28

>  <method>  (84) 
STRIFE - fragment elaboration new frags

>  <ref_mols>  (84) 
x1084

>  <ref_pdb>  (84) 
d68/D68EV3CPROA_apo.pdb

>  <original SMILES>  (84) 
CS(=O)(=O)Nc1ccc(CN)cc1

$$$$
ver_1.2
     RDKit          3D

 21 22  0  0  0  0  0  0  0  0999 V2000
   -1.9785   -7.2039   -0.0433 C   0  0  0  0  0  0  0  0  0  0  0  0
   -3.2943   -7.5948   -0.4037 O   0  0  0  0  0  0  0  0  0  0  0  0
   -3.6364   -7.0918   -1.6548 C   0  0  0  0  0  0  0  0  0  0  0  0
   -3.9031   -8.8022    1.7046 C   0  0  0  0  0  0  0  0  0  0  0  0
   -4.1668   -8.4588    0.2703 C   0  0  0  0  0  0  0  0  0  0  0  0
   -5.3340   -8.8986   -0.3629 C   0  0  0  0  0  0  0  0  0  0  0  0
   -5.6499   -8.4328   -1.6353 N   0  0  0  0  0  0  0  0  0  0  0  0
   -4.8478   -7.4540   -2.2524 C   0  0  0  0  0  0  0  0  0  0  0  0
   -5.2436   -6.7823   -3.4530 C   0  0  0  0  0  0  0  0  0  0  0  0
   -6.7540   -5.9654   -3.6669 S   0  0  0  0  0  0  0  0  0  0  0  0
   -7.4618   -5.9387   -2.3440 O   0  0  0  0  0  0  0  0  0  0  0  0
   -6.5671   -4.5612   -4.1647 O   0  0  0  0  0  0  0  0  0  0  0  0
   -7.7110   -6.8377   -4.8838 C   0  0  0  0  0  0  0  0  0  0  0  0
   -7.7434   -6.0570   -6.1706 C   0  0  0  0  0  0  0  0  0  0  0  0
   -6.5961   -6.0167   -6.9795 C   0  0  0  0  0  0  0  0  0  0  0  0
   -6.5917   -5.2968   -8.1316 C   0  0  0  0  0  0  0  0  0  0  0  0
   -7.6793   -4.5918   -8.5365 C   0  0  0  0  0  0  0  0  0  0  0  0
   -7.6421   -3.7886   -9.8006 C   0  0  0  0  0  0  0  0  0  0  0  0
   -8.0899   -4.5907  -10.8823 O   0  0  0  0  0  0  0  0  0  0  0  0
   -8.8395   -4.5893   -7.7624 C   0  0  0  0  0  0  0  0  0  0  0  0
   -8.8775   -5.3210   -6.5716 C   0  0  0  0  0  0  0  0  0  0  0  0
  1  2  1  0
  2  3  1  0
  3  4  2  0
  4  5  1  0
  5  6  2  0
  6  7  1  0
  7  8  2  0
  8  9  1  0
  9 10  1  0
 10 11  2  0
 10 12  2  0
 10 13  1  0
 13 14  1  0
 14 15  2  0
 15 16  1  0
 16 17  2  0
 17 18  1  0
 18 19  1  0
 17 20  1  0
 20 21  2  0
  8  3  1  0
 21 14  1  0
M  END
>  <ref_url>  (85) 
 https://www.notion.so/asapdiscovery/d68-STRIFE-compounds

>  <submitter_name>  (85) 
Lucy Vost

>  <submitter_email>  (85) 
lucy.vost@gtc.ox.ac.uk

>  <submitter_institution>  (85) 
University of Oxford

>  <generation_date>  (85) 
2023-08-28

>  <method>  (85) 
STRIFE - fragment elaboration new frags

>  <ref_mols>  (85) 
x1084

>  <ref_pdb>  (85) 
d68/D68EV3CPROA_apo.pdb

>  <original SMILES>  (85) 
CS(=O)(=O)Nc1ccc(CN)cc1

$$$$
ver_1.2
     RDKit          3D

 21 22  0  0  0  0  0  0  0  0999 V2000
   -4.4695   -6.5408   -7.5418 C   0  0  0  0  0  0  0  0  0  0  0  0
   -5.5073   -6.7142   -6.5822 O   0  0  0  0  0  0  0  0  0  0  0  0
   -6.5961   -6.0167   -6.9795 C   0  0  0  0  0  0  0  0  0  0  0  0
   -6.5917   -5.2968   -8.1316 N   0  0  0  0  0  0  0  0  0  0  0  0
   -7.6793   -4.5918   -8.5365 C   0  0  0  0  0  0  0  0  0  0  0  0
   -8.8395   -4.5893   -7.7624 C   0  0  0  0  0  0  0  0  0  0  0  0
   -8.8775   -5.3210   -6.5716 C   0  0  0  0  0  0  0  0  0  0  0  0
   -7.7434   -6.0570   -6.1706 C   0  0  0  0  0  0  0  0  0  0  0  0
   -7.7110   -6.8377   -4.8838 C   0  0  0  0  0  0  0  0  0  0  0  0
   -6.7540   -5.9654   -3.6669 S   0  0  0  0  0  0  0  0  0  0  0  0
   -7.4618   -5.9387   -2.3440 O   0  0  0  0  0  0  0  0  0  0  0  0
   -6.5671   -4.5612   -4.1647 O   0  0  0  0  0  0  0  0  0  0  0  0
   -5.2436   -6.7823   -3.4530 C   0  0  0  0  0  0  0  0  0  0  0  0
   -4.8478   -7.4540   -2.2524 C   0  0  0  0  0  0  0  0  0  0  0  0
   -5.6499   -8.4328   -1.6353 C   0  0  0  0  0  0  0  0  0  0  0  0
   -5.3340   -8.8986   -0.3629 C   0  0  0  0  0  0  0  0  0  0  0  0
   -4.1668   -8.4588    0.2703 C   0  0  0  0  0  0  0  0  0  0  0  0
   -3.9031   -8.8022    1.7046 C   0  0  0  0  0  0  0  0  0  0  0  0
   -4.0020   -7.6040    2.5353 F   0  0  0  0  0  0  0  0  0  0  0  0
   -3.2943   -7.5948   -0.4037 C   0  0  0  0  0  0  0  0  0  0  0  0
   -3.6364   -7.0918   -1.6548 C   0  0  0  0  0  0  0  0  0  0  0  0
  1  2  1  0
  2  3  1  0
  3  4  2  0
  4  5  1  0
  5  6  2  0
  6  7  1  0
  7  8  2  0
  8  9  1  0
  9 10  1  0
 10 11  2  0
 10 12  2  0
 10 13  1  0
 13 14  1  0
 14 15  2  0
 15 16  1  0
 16 17  2  0
 17 18  1  0
 18 19  1  0
 17 20  1  0
 20 21  2  0
  8  3  1  0
 21 14  1  0
M  END
>  <ref_url>  (86) 
 https://www.notion.so/asapdiscovery/d68-STRIFE-compounds

>  <submitter_name>  (86) 
Lucy Vost

>  <submitter_email>  (86) 
lucy.vost@gtc.ox.ac.uk

>  <submitter_institution>  (86) 
University of Oxford

>  <generation_date>  (86) 
2023-08-28

>  <method>  (86) 
STRIFE - fragment elaboration new frags

>  <ref_mols>  (86) 
x1084

>  <ref_pdb>  (86) 
d68/D68EV3CPROA_apo.pdb

>  <original SMILES>  (86) 
CS(=O)(=O)Nc1ccc(CN)cc1

$$$$
ver_1.2
     RDKit          3D

 19 20  0  0  0  0  0  0  0  0999 V2000
   -1.6842   -9.0532    1.2269 N   0  0  0  0  0  0  0  0  0  0  0  0
   -2.8941   -8.3639    1.6701 C   0  0  0  0  0  0  0  0  0  0  0  0
   -3.7167   -7.9544    0.4872 C   0  0  0  0  0  0  0  0  0  0  0  0
   -3.0773   -7.5968   -0.7065 C   0  0  0  0  0  0  0  0  0  0  0  0
   -3.8007   -7.0068   -1.7373 C   0  0  0  0  0  0  0  0  0  0  0  0
   -5.1723   -6.7782   -1.5933 C   0  0  0  0  0  0  0  0  0  0  0  0
   -5.8422   -6.0096   -2.5968 N   0  0  0  0  0  0  0  0  0  0  0  0
   -6.8028   -6.6844   -3.8649 S   0  0  0  0  0  0  0  0  0  0  0  0
   -5.9290   -7.6102   -4.6570 O   0  0  0  0  0  0  0  0  0  0  0  0
   -7.9856   -7.4402   -3.3314 O   0  0  0  0  0  0  0  0  0  0  0  0
   -7.4314   -5.3608   -4.8723 C   0  0  0  0  0  0  0  0  0  0  0  0
   -8.2987   -5.9043   -6.0263 C   0  0  0  0  0  0  0  0  0  0  0  0
   -7.4901   -6.7681   -7.0171 C   0  0  0  0  0  0  0  0  0  0  0  0
   -6.5953   -5.9076   -7.9114 C   0  0  0  0  0  0  0  0  0  0  0  0
   -7.4110   -4.7542   -8.5019 C   0  0  0  0  0  0  0  0  0  0  0  0
   -7.9960   -3.9767   -7.4756 O   0  0  0  0  0  0  0  0  0  0  0  0
   -8.9639   -4.7489   -6.7934 C   0  0  0  0  0  0  0  0  0  0  0  0
   -5.8335   -7.2726   -0.4526 C   0  0  0  0  0  0  0  0  0  0  0  0
   -5.1041   -7.8155    0.6000 C   0  0  0  0  0  0  0  0  0  0  0  0
  1  2  1  0
  2  3  1  0
  3  4  2  0
  4  5  1  0
  5  6  2  0
  6  7  1  0
  7  8  1  0
  8  9  2  0
  8 10  2  0
  8 11  1  0
 11 12  1  0
 12 13  1  0
 13 14  1  0
 14 15  1  0
 15 16  1  0
 16 17  1  0
  6 18  1  0
 18 19  2  0
 19  3  1  0
 17 12  1  0
M  END
>  <ref_url>  (87) 
 https://www.notion.so/asapdiscovery/d68-STRIFE-compounds

>  <submitter_name>  (87) 
Lucy Vost

>  <submitter_email>  (87) 
lucy.vost@gtc.ox.ac.uk

>  <submitter_institution>  (87) 
University of Oxford

>  <generation_date>  (87) 
2023-08-28

>  <method>  (87) 
STRIFE - fragment elaboration new frags

>  <ref_mols>  (87) 
x1084

>  <ref_pdb>  (87) 
d68/D68EV3CPROA_apo.pdb

>  <original SMILES>  (87) 
CS(=O)(=O)Nc1ccc(CN)cc1

$$$$
ver_1.2
     RDKit          3D

 19 20  0  0  0  0  0  0  0  0999 V2000
   -1.6842   -9.0532    1.2269 C   0  0  0  0  0  0  0  0  0  0  0  0
   -2.8941   -8.3639    1.6701 C   0  0  0  0  0  0  0  0  0  0  0  0
   -3.7167   -7.9544    0.4872 C   0  0  0  0  0  0  0  0  0  0  0  0
   -3.0773   -7.5968   -0.7065 C   0  0  0  0  0  0  0  0  0  0  0  0
   -3.8007   -7.0068   -1.7373 C   0  0  0  0  0  0  0  0  0  0  0  0
   -5.1723   -6.7782   -1.5933 C   0  0  0  0  0  0  0  0  0  0  0  0
   -5.8422   -6.0096   -2.5968 N   0  0  0  0  0  0  0  0  0  0  0  0
   -6.8028   -6.6844   -3.8649 S   0  0  0  0  0  0  0  0  0  0  0  0
   -5.9290   -7.6102   -4.6570 O   0  0  0  0  0  0  0  0  0  0  0  0
   -7.9856   -7.4402   -3.3314 O   0  0  0  0  0  0  0  0  0  0  0  0
   -7.4314   -5.3608   -4.8723 C   0  0  0  0  0  0  0  0  0  0  0  0
   -8.2987   -5.9043   -6.0263 C   0  0  0  0  0  0  0  0  0  0  0  0
   -7.4901   -6.7681   -7.0171 C   0  0  0  0  0  0  0  0  0  0  0  0
   -6.5953   -5.9076   -7.9114 C   0  0  0  0  0  0  0  0  0  0  0  0
   -7.4110   -4.7542   -8.5019 C   0  0  0  0  0  0  0  0  0  0  0  0
   -7.9960   -3.9767   -7.4756 O   0  0  0  0  0  0  0  0  0  0  0  0
   -8.9639   -4.7489   -6.7934 C   0  0  0  0  0  0  0  0  0  0  0  0
   -5.8335   -7.2726   -0.4526 C   0  0  0  0  0  0  0  0  0  0  0  0
   -5.1041   -7.8155    0.6000 C   0  0  0  0  0  0  0  0  0  0  0  0
  1  2  1  0
  2  3  1  0
  3  4  2  0
  4  5  1  0
  5  6  2  0
  6  7  1  0
  7  8  1  0
  8  9  2  0
  8 10  2  0
  8 11  1  0
 11 12  1  0
 12 13  1  0
 13 14  1  0
 14 15  1  0
 15 16  1  0
 16 17  1  0
  6 18  1  0
 18 19  2  0
 19  3  1  0
 17 12  1  0
M  END
>  <ref_url>  (88) 
 https://www.notion.so/asapdiscovery/d68-STRIFE-compounds

>  <submitter_name>  (88) 
Lucy Vost

>  <submitter_email>  (88) 
lucy.vost@gtc.ox.ac.uk

>  <submitter_institution>  (88) 
University of Oxford

>  <generation_date>  (88) 
2023-08-28

>  <method>  (88) 
STRIFE - fragment elaboration new frags

>  <ref_mols>  (88) 
x1084

>  <ref_pdb>  (88) 
d68/D68EV3CPROA_apo.pdb

>  <original SMILES>  (88) 
CS(=O)(=O)Nc1ccc(CN)cc1

$$$$
ver_1.2
     RDKit          3D

 19 20  0  0  0  0  0  0  0  0999 V2000
   -1.6842   -9.0532    1.2269 N   0  0  0  0  0  0  0  0  0  0  0  0
   -2.8941   -8.3639    1.6701 C   0  0  0  0  0  0  0  0  0  0  0  0
   -3.7167   -7.9544    0.4872 C   0  0  0  0  0  0  0  0  0  0  0  0
   -5.1041   -7.8155    0.6000 C   0  0  0  0  0  0  0  0  0  0  0  0
   -5.8335   -7.2726   -0.4526 C   0  0  0  0  0  0  0  0  0  0  0  0
   -5.1723   -6.7782   -1.5933 C   0  0  0  0  0  0  0  0  0  0  0  0
   -5.8422   -6.0096   -2.5968 N   0  0  0  0  0  0  0  0  0  0  0  0
   -6.8028   -6.6844   -3.8649 S   0  0  0  0  0  0  0  0  0  0  0  0
   -5.9290   -7.6102   -4.6570 O   0  0  0  0  0  0  0  0  0  0  0  0
   -7.9856   -7.4402   -3.3314 O   0  0  0  0  0  0  0  0  0  0  0  0
   -7.4314   -5.3608   -4.8723 C   0  0  0  0  0  0  0  0  0  0  0  0
   -8.2987   -5.9043   -6.0263 C   0  0  0  0  0  0  0  0  0  0  0  0
   -8.9639   -4.7489   -6.7934 C   0  0  0  0  0  0  0  0  0  0  0  0
   -7.9960   -3.9767   -7.4756 O   0  0  0  0  0  0  0  0  0  0  0  0
   -7.4110   -4.7542   -8.5019 C   0  0  0  0  0  0  0  0  0  0  0  0
   -6.5953   -5.9076   -7.9114 C   0  0  0  0  0  0  0  0  0  0  0  0
   -7.4901   -6.7681   -7.0171 O   0  0  0  0  0  0  0  0  0  0  0  0
   -3.8007   -7.0068   -1.7373 C   0  0  0  0  0  0  0  0  0  0  0  0
   -3.0773   -7.5968   -0.7065 C   0  0  0  0  0  0  0  0  0  0  0  0
  1  2  1  0
  2  3  1  0
  3  4  2  0
  4  5  1  0
  5  6  2  0
  6  7  1  0
  7  8  1  0
  8  9  2  0
  8 10  2  0
  8 11  1  0
 11 12  1  0
 12 13  1  0
 13 14  1  0
 14 15  1  0
 15 16  1  0
 16 17  1  0
  6 18  1  0
 18 19  2  0
 19  3  1  0
 17 12  1  0
M  END
>  <ref_url>  (89) 
 https://www.notion.so/asapdiscovery/d68-STRIFE-compounds

>  <submitter_name>  (89) 
Lucy Vost

>  <submitter_email>  (89) 
lucy.vost@gtc.ox.ac.uk

>  <submitter_institution>  (89) 
University of Oxford

>  <generation_date>  (89) 
2023-08-28

>  <method>  (89) 
STRIFE - fragment elaboration new frags

>  <ref_mols>  (89) 
x1084

>  <ref_pdb>  (89) 
d68/D68EV3CPROA_apo.pdb

>  <original SMILES>  (89) 
CS(=O)(=O)Nc1ccc(CN)cc1

$$$$
ver_1.2
     RDKit          3D

 19 20  0  0  0  0  0  0  0  0999 V2000
   -1.6842   -9.0532    1.2269 N   0  0  0  0  0  0  0  0  0  0  0  0
   -2.8941   -8.3639    1.6701 C   0  0  0  0  0  0  0  0  0  0  0  0
   -3.7167   -7.9544    0.4872 C   0  0  0  0  0  0  0  0  0  0  0  0
   -3.0773   -7.5968   -0.7065 C   0  0  0  0  0  0  0  0  0  0  0  0
   -3.8007   -7.0068   -1.7373 C   0  0  0  0  0  0  0  0  0  0  0  0
   -5.1723   -6.7782   -1.5933 C   0  0  0  0  0  0  0  0  0  0  0  0
   -5.8422   -6.0096   -2.5968 N   0  0  0  0  0  0  0  0  0  0  0  0
   -6.8028   -6.6844   -3.8649 S   0  0  0  0  0  0  0  0  0  0  0  0
   -5.9290   -7.6102   -4.6570 O   0  0  0  0  0  0  0  0  0  0  0  0
   -7.9856   -7.4402   -3.3314 O   0  0  0  0  0  0  0  0  0  0  0  0
   -7.4314   -5.3608   -4.8723 C   0  0  0  0  0  0  0  0  0  0  0  0
   -8.2987   -5.9043   -6.0263 C   0  0  0  0  0  0  0  0  0  0  0  0
   -7.4901   -6.7681   -7.0171 C   0  0  0  0  0  0  0  0  0  0  0  0
   -6.5953   -5.9076   -7.9114 C   0  0  0  0  0  0  0  0  0  0  0  0
   -7.4110   -4.7542   -8.5019 C   0  0  0  0  0  0  0  0  0  0  0  0
   -7.9960   -3.9767   -7.4756 O   0  0  0  0  0  0  0  0  0  0  0  0
   -8.9639   -4.7489   -6.7934 C   0  0  0  0  0  0  0  0  0  0  0  0
   -5.8335   -7.2726   -0.4526 C   0  0  0  0  0  0  0  0  0  0  0  0
   -5.1041   -7.8155    0.6000 C   0  0  0  0  0  0  0  0  0  0  0  0
  1  2  3  0
  2  3  1  0
  3  4  2  0
  4  5  1  0
  5  6  2  0
  6  7  1  0
  7  8  1  0
  8  9  2  0
  8 10  2  0
  8 11  1  0
 11 12  1  0
 12 13  1  0
 13 14  1  0
 14 15  1  0
 15 16  1  0
 16 17  1  0
  6 18  1  0
 18 19  2  0
 19  3  1  0
 17 12  1  0
M  END
>  <ref_url>  (90) 
 https://www.notion.so/asapdiscovery/d68-STRIFE-compounds

>  <submitter_name>  (90) 
Lucy Vost

>  <submitter_email>  (90) 
lucy.vost@gtc.ox.ac.uk

>  <submitter_institution>  (90) 
University of Oxford

>  <generation_date>  (90) 
2023-08-28

>  <method>  (90) 
STRIFE - fragment elaboration new frags

>  <ref_mols>  (90) 
x1084

>  <ref_pdb>  (90) 
d68/D68EV3CPROA_apo.pdb

>  <original SMILES>  (90) 
CS(=O)(=O)Nc1ccc(CN)cc1

$$$$
ver_1.2
     RDKit          3D

 19 20  0  0  0  0  0  0  0  0999 V2000
   -1.6842   -9.0532    1.2269 C   0  0  0  0  0  0  0  0  0  0  0  0
   -2.8941   -8.3639    1.6701 C   0  0  0  0  0  0  0  0  0  0  0  0
   -3.7167   -7.9544    0.4872 C   0  0  0  0  0  0  0  0  0  0  0  0
   -5.1041   -7.8155    0.6000 C   0  0  0  0  0  0  0  0  0  0  0  0
   -5.8335   -7.2726   -0.4526 C   0  0  0  0  0  0  0  0  0  0  0  0
   -5.1723   -6.7782   -1.5933 C   0  0  0  0  0  0  0  0  0  0  0  0
   -5.8422   -6.0096   -2.5968 N   0  0  0  0  0  0  0  0  0  0  0  0
   -6.8028   -6.6844   -3.8649 S   0  0  0  0  0  0  0  0  0  0  0  0
   -5.9290   -7.6102   -4.6570 O   0  0  0  0  0  0  0  0  0  0  0  0
   -7.9856   -7.4402   -3.3314 O   0  0  0  0  0  0  0  0  0  0  0  0
   -7.4314   -5.3608   -4.8723 C   0  0  0  0  0  0  0  0  0  0  0  0
   -8.2987   -5.9043   -6.0263 C   0  0  0  0  0  0  0  0  0  0  0  0
   -7.4901   -6.7681   -7.0171 C   0  0  0  0  0  0  0  0  0  0  0  0
   -6.5953   -5.9076   -7.9114 C   0  0  0  0  0  0  0  0  0  0  0  0
   -7.4110   -4.7542   -8.5019 C   0  0  0  0  0  0  0  0  0  0  0  0
   -7.9960   -3.9767   -7.4756 O   0  0  0  0  0  0  0  0  0  0  0  0
   -8.9639   -4.7489   -6.7934 C   0  0  0  0  0  0  0  0  0  0  0  0
   -3.8007   -7.0068   -1.7373 C   0  0  0  0  0  0  0  0  0  0  0  0
   -3.0773   -7.5968   -0.7065 C   0  0  0  0  0  0  0  0  0  0  0  0
  1  2  3  0
  2  3  1  0
  3  4  2  0
  4  5  1  0
  5  6  2  0
  6  7  1  0
  7  8  1  0
  8  9  2  0
  8 10  2  0
  8 11  1  0
 11 12  1  0
 12 13  1  0
 13 14  1  0
 14 15  1  0
 15 16  1  0
 16 17  1  0
  6 18  1  0
 18 19  2  0
 19  3  1  0
 17 12  1  0
M  END
>  <ref_url>  (91) 
 https://www.notion.so/asapdiscovery/d68-STRIFE-compounds

>  <submitter_name>  (91) 
Lucy Vost

>  <submitter_email>  (91) 
lucy.vost@gtc.ox.ac.uk

>  <submitter_institution>  (91) 
University of Oxford

>  <generation_date>  (91) 
2023-08-28

>  <method>  (91) 
STRIFE - fragment elaboration new frags

>  <ref_mols>  (91) 
x1084

>  <ref_pdb>  (91) 
d68/D68EV3CPROA_apo.pdb

>  <original SMILES>  (91) 
CS(=O)(=O)Nc1ccc(CN)cc1

$$$$
ver_1.2
     RDKit          3D

 19 20  0  0  0  0  0  0  0  0999 V2000
   -1.6842   -9.0532    1.2269 C   0  0  0  0  0  0  0  0  0  0  0  0
   -2.8941   -8.3639    1.6701 C   0  0  0  0  0  0  0  0  0  0  0  0
   -3.7167   -7.9544    0.4872 C   0  0  0  0  0  0  0  0  0  0  0  0
   -3.0773   -7.5968   -0.7065 C   0  0  0  0  0  0  0  0  0  0  0  0
   -3.8007   -7.0068   -1.7373 C   0  0  0  0  0  0  0  0  0  0  0  0
   -5.1723   -6.7782   -1.5933 C   0  0  0  0  0  0  0  0  0  0  0  0
   -5.8422   -6.0096   -2.5968 C   0  0  0  0  0  0  0  0  0  0  0  0
   -6.8028   -6.6844   -3.8649 S   0  0  0  0  0  0  0  0  0  0  0  0
   -5.9290   -7.6102   -4.6570 O   0  0  0  0  0  0  0  0  0  0  0  0
   -7.9856   -7.4402   -3.3314 O   0  0  0  0  0  0  0  0  0  0  0  0
   -7.4314   -5.3608   -4.8723 C   0  0  0  0  0  0  0  0  0  0  0  0
   -8.2987   -5.9043   -6.0263 C   0  0  0  0  0  0  0  0  0  0  0  0
   -7.4901   -6.7681   -7.0171 C   0  0  0  0  0  0  0  0  0  0  0  0
   -6.5953   -5.9076   -7.9114 C   0  0  0  0  0  0  0  0  0  0  0  0
   -7.4110   -4.7542   -8.5019 C   0  0  0  0  0  0  0  0  0  0  0  0
   -7.9960   -3.9767   -7.4756 O   0  0  0  0  0  0  0  0  0  0  0  0
   -8.9639   -4.7489   -6.7934 C   0  0  0  0  0  0  0  0  0  0  0  0
   -5.8335   -7.2726   -0.4526 C   0  0  0  0  0  0  0  0  0  0  0  0
   -5.1041   -7.8155    0.6000 C   0  0  0  0  0  0  0  0  0  0  0  0
  1  2  1  0
  2  3  1  0
  3  4  2  0
  4  5  1  0
  5  6  2  0
  6  7  1  0
  7  8  1  0
  8  9  2  0
  8 10  2  0
  8 11  1  0
 11 12  1  0
 12 13  1  0
 13 14  1  0
 14 15  1  0
 15 16  1  0
 16 17  1  0
  6 18  1  0
 18 19  2  0
 19  3  1  0
 17 12  1  0
M  END
>  <ref_url>  (92) 
 https://www.notion.so/asapdiscovery/d68-STRIFE-compounds

>  <submitter_name>  (92) 
Lucy Vost

>  <submitter_email>  (92) 
lucy.vost@gtc.ox.ac.uk

>  <submitter_institution>  (92) 
University of Oxford

>  <generation_date>  (92) 
2023-08-28

>  <method>  (92) 
STRIFE - fragment elaboration new frags

>  <ref_mols>  (92) 
x1084

>  <ref_pdb>  (92) 
d68/D68EV3CPROA_apo.pdb

>  <original SMILES>  (92) 
CS(=O)(=O)Nc1ccc(CN)cc1

$$$$
ver_1.2
     RDKit          3D

 19 20  0  0  0  0  0  0  0  0999 V2000
   -1.6842   -9.0532    1.2269 C   0  0  0  0  0  0  0  0  0  0  0  0
   -2.8941   -8.3639    1.6701 C   0  0  0  0  0  0  0  0  0  0  0  0
   -3.7167   -7.9544    0.4872 C   0  0  0  0  0  0  0  0  0  0  0  0
   -5.1041   -7.8155    0.6000 C   0  0  0  0  0  0  0  0  0  0  0  0
   -5.8335   -7.2726   -0.4526 C   0  0  0  0  0  0  0  0  0  0  0  0
   -5.1723   -6.7782   -1.5933 C   0  0  0  0  0  0  0  0  0  0  0  0
   -5.8422   -6.0096   -2.5968 O   0  0  0  0  0  0  0  0  0  0  0  0
   -6.8028   -6.6844   -3.8649 S   0  0  0  0  0  0  0  0  0  0  0  0
   -5.9290   -7.6102   -4.6570 O   0  0  0  0  0  0  0  0  0  0  0  0
   -7.9856   -7.4402   -3.3314 O   0  0  0  0  0  0  0  0  0  0  0  0
   -7.4314   -5.3608   -4.8723 C   0  0  0  0  0  0  0  0  0  0  0  0
   -8.2987   -5.9043   -6.0263 C   0  0  0  0  0  0  0  0  0  0  0  0
   -7.4901   -6.7681   -7.0171 C   0  0  0  0  0  0  0  0  0  0  0  0
   -6.5953   -5.9076   -7.9114 C   0  0  0  0  0  0  0  0  0  0  0  0
   -7.4110   -4.7542   -8.5019 C   0  0  0  0  0  0  0  0  0  0  0  0
   -7.9960   -3.9767   -7.4756 O   0  0  0  0  0  0  0  0  0  0  0  0
   -8.9639   -4.7489   -6.7934 C   0  0  0  0  0  0  0  0  0  0  0  0
   -3.8007   -7.0068   -1.7373 C   0  0  0  0  0  0  0  0  0  0  0  0
   -3.0773   -7.5968   -0.7065 C   0  0  0  0  0  0  0  0  0  0  0  0
  1  2  1  0
  2  3  1  0
  3  4  2  0
  4  5  1  0
  5  6  2  0
  6  7  1  0
  7  8  1  0
  8  9  2  0
  8 10  2  0
  8 11  1  0
 11 12  1  0
 12 13  1  0
 13 14  1  0
 14 15  1  0
 15 16  1  0
 16 17  1  0
  6 18  1  0
 18 19  2  0
 19  3  1  0
 17 12  1  0
M  END
>  <ref_url>  (93) 
 https://www.notion.so/asapdiscovery/d68-STRIFE-compounds

>  <submitter_name>  (93) 
Lucy Vost

>  <submitter_email>  (93) 
lucy.vost@gtc.ox.ac.uk

>  <submitter_institution>  (93) 
University of Oxford

>  <generation_date>  (93) 
2023-08-28

>  <method>  (93) 
STRIFE - fragment elaboration new frags

>  <ref_mols>  (93) 
x1084

>  <ref_pdb>  (93) 
d68/D68EV3CPROA_apo.pdb

>  <original SMILES>  (93) 
CS(=O)(=O)Nc1ccc(CN)cc1

$$$$
ver_1.2
     RDKit          3D

 19 20  0  0  0  0  0  0  0  0999 V2000
   -1.6842   -9.0532    1.2269 C   0  0  0  0  0  0  0  0  0  0  0  0
   -2.8941   -8.3639    1.6701 O   0  0  0  0  0  0  0  0  0  0  0  0
   -3.7167   -7.9544    0.4872 C   0  0  0  0  0  0  0  0  0  0  0  0
   -5.1041   -7.8155    0.6000 C   0  0  0  0  0  0  0  0  0  0  0  0
   -5.8335   -7.2726   -0.4526 C   0  0  0  0  0  0  0  0  0  0  0  0
   -5.1723   -6.7782   -1.5933 C   0  0  0  0  0  0  0  0  0  0  0  0
   -5.8422   -6.0096   -2.5968 N   0  0  0  0  0  0  0  0  0  0  0  0
   -6.8028   -6.6844   -3.8649 S   0  0  0  0  0  0  0  0  0  0  0  0
   -5.9290   -7.6102   -4.6570 O   0  0  0  0  0  0  0  0  0  0  0  0
   -7.9856   -7.4402   -3.3314 O   0  0  0  0  0  0  0  0  0  0  0  0
   -7.4314   -5.3608   -4.8723 C   0  0  0  0  0  0  0  0  0  0  0  0
   -8.2987   -5.9043   -6.0263 C   0  0  0  0  0  0  0  0  0  0  0  0
   -7.4901   -6.7681   -7.0171 C   0  0  0  0  0  0  0  0  0  0  0  0
   -6.5953   -5.9076   -7.9114 C   0  0  0  0  0  0  0  0  0  0  0  0
   -7.4110   -4.7542   -8.5019 C   0  0  0  0  0  0  0  0  0  0  0  0
   -7.9960   -3.9767   -7.4756 O   0  0  0  0  0  0  0  0  0  0  0  0
   -8.9639   -4.7489   -6.7934 C   0  0  0  0  0  0  0  0  0  0  0  0
   -3.8007   -7.0068   -1.7373 C   0  0  0  0  0  0  0  0  0  0  0  0
   -3.0773   -7.5968   -0.7065 C   0  0  0  0  0  0  0  0  0  0  0  0
  1  2  1  0
  2  3  1  0
  3  4  2  0
  4  5  1  0
  5  6  2  0
  6  7  1  0
  7  8  1  0
  8  9  2  0
  8 10  2  0
  8 11  1  0
 11 12  1  0
 12 13  1  0
 13 14  1  0
 14 15  1  0
 15 16  1  0
 16 17  1  0
  6 18  1  0
 18 19  2  0
 19  3  1  0
 17 12  1  0
M  END
>  <ref_url>  (94) 
 https://www.notion.so/asapdiscovery/d68-STRIFE-compounds

>  <submitter_name>  (94) 
Lucy Vost

>  <submitter_email>  (94) 
lucy.vost@gtc.ox.ac.uk

>  <submitter_institution>  (94) 
University of Oxford

>  <generation_date>  (94) 
2023-08-28

>  <method>  (94) 
STRIFE - fragment elaboration new frags

>  <ref_mols>  (94) 
x1084

>  <ref_pdb>  (94) 
d68/D68EV3CPROA_apo.pdb

>  <original SMILES>  (94) 
CS(=O)(=O)Nc1ccc(CN)cc1

$$$$
ver_1.2
     RDKit          3D

 19 20  0  0  0  0  0  0  0  0999 V2000
   -1.6842   -9.0532    1.2269 C   0  0  0  0  0  0  0  0  0  0  0  0
   -2.8941   -8.3639    1.6701 S   0  0  0  0  0  0  0  0  0  0  0  0
   -3.7167   -7.9544    0.4872 C   0  0  0  0  0  0  0  0  0  0  0  0
   -3.0773   -7.5968   -0.7065 C   0  0  0  0  0  0  0  0  0  0  0  0
   -3.8007   -7.0068   -1.7373 C   0  0  0  0  0  0  0  0  0  0  0  0
   -5.1723   -6.7782   -1.5933 C   0  0  0  0  0  0  0  0  0  0  0  0
   -5.8422   -6.0096   -2.5968 N   0  0  0  0  0  0  0  0  0  0  0  0
   -6.8028   -6.6844   -3.8649 S   0  0  0  0  0  0  0  0  0  0  0  0
   -5.9290   -7.6102   -4.6570 O   0  0  0  0  0  0  0  0  0  0  0  0
   -7.9856   -7.4402   -3.3314 O   0  0  0  0  0  0  0  0  0  0  0  0
   -7.4314   -5.3608   -4.8723 C   0  0  0  0  0  0  0  0  0  0  0  0
   -8.2987   -5.9043   -6.0263 C   0  0  0  0  0  0  0  0  0  0  0  0
   -7.4901   -6.7681   -7.0171 C   0  0  0  0  0  0  0  0  0  0  0  0
   -6.5953   -5.9076   -7.9114 C   0  0  0  0  0  0  0  0  0  0  0  0
   -7.4110   -4.7542   -8.5019 C   0  0  0  0  0  0  0  0  0  0  0  0
   -7.9960   -3.9767   -7.4756 O   0  0  0  0  0  0  0  0  0  0  0  0
   -8.9639   -4.7489   -6.7934 C   0  0  0  0  0  0  0  0  0  0  0  0
   -5.8335   -7.2726   -0.4526 C   0  0  0  0  0  0  0  0  0  0  0  0
   -5.1041   -7.8155    0.6000 C   0  0  0  0  0  0  0  0  0  0  0  0
  1  2  1  0
  2  3  1  0
  3  4  2  0
  4  5  1  0
  5  6  2  0
  6  7  1  0
  7  8  1  0
  8  9  2  0
  8 10  2  0
  8 11  1  0
 11 12  1  0
 12 13  1  0
 13 14  1  0
 14 15  1  0
 15 16  1  0
 16 17  1  0
  6 18  1  0
 18 19  2  0
 19  3  1  0
 17 12  1  0
M  END
>  <ref_url>  (95) 
 https://www.notion.so/asapdiscovery/d68-STRIFE-compounds

>  <submitter_name>  (95) 
Lucy Vost

>  <submitter_email>  (95) 
lucy.vost@gtc.ox.ac.uk

>  <submitter_institution>  (95) 
University of Oxford

>  <generation_date>  (95) 
2023-08-28

>  <method>  (95) 
STRIFE - fragment elaboration new frags

>  <ref_mols>  (95) 
x1084

>  <ref_pdb>  (95) 
d68/D68EV3CPROA_apo.pdb

>  <original SMILES>  (95) 
CS(=O)(=O)Nc1ccc(CN)cc1

$$$$
