ver_1.2
     RDKit          2D

  6  6  0  0  0  0  0  0  0  0999 V2000
    1.5000    0.0000    0.0000 C   0  0  0  0  0  0  0  0  0  0  0  0
    0.7500   -1.2990    0.0000 C   0  0  0  0  0  0  0  0  0  0  0  0
   -0.7500   -1.2990    0.0000 C   0  0  0  0  0  0  0  0  0  0  0  0
   -1.5000    0.0000    0.0000 C   0  0  0  0  0  0  0  0  0  0  0  0
   -0.7500    1.2990    0.0000 C   0  0  0  0  0  0  0  0  0  0  0  0
    0.7500    1.2990    0.0000 C   0  0  0  0  0  0  0  0  0  0  0  0
  1  2  2  0
  2  3  1  0
  3  4  2  0
  4  5  1  0
  5  6  2  0
  6  1  1  0
M  END
>  <submitter_name>  (1) 
Mihaela Smilova

>  <submitter_email>  (1) 
mihaela.smilova@linacre.ox.ac.uk

>  <submitter_institution>  (1) 
University of Oxford

>  <method>  (1) 
graph network enumeration + hotspot scoring

>  <ref_url>  (1) 
https://github.com/prcurran/hotspots/tree/master/hotspots

>  <generation_date>  (1) 
2021-03-11

>  <ref_mols>  (1) 
Reference fragment used to query the graph network

>  <ref_pdb>  (1) 
Receptor starting pdb

>  <original SMILES>  (1) 
Followup SMILES string

>  <mean_hotspot_score>  (1) 
Average hotspot score of all heavy atoms in pose

>  <additive_hotspot_score>  (1) 
Sum of hotspot scores of all heavy atoms in pose

>  <mean_polar_hotspot_score>  (1) 
Average of hotspot scores of polar heavy atoms in pose

>  <additive_polar_hotspot_score>  (1) 
Sum of hotspot scores of polar heavy atoms in pose

>  <SuCOS_score>  (1) 
SuCOS score of the pose to the parent fragment

$$$$
nsp13-x0029_0A_followup_128_pose_45
     RDKit          3D

 17 17  0  0  0  0  0  0  0  0999 V2000
   -4.2794    5.9624  -76.2993 C   0  0  0  0  0  0  0  0  0  0  0  0
   -4.5807    5.0584  -77.4758 C   0  0  0  0  0  0  0  0  0  0  0  0
   -3.3127    4.6145  -78.1740 C   0  0  0  0  0  0  0  0  0  0  0  0
   -5.3068    3.8592  -76.9880 N   0  0  0  0  0  0  0  0  0  0  0  0
   -6.2265    2.9513  -77.9538 S   0  0  0  0  0  0  0  0  0  0  0  0
   -6.3246    1.6643  -77.3366 O   0  0  0  0  0  0  0  0  0  0  0  0
   -5.6741    3.0609  -79.2690 O   0  0  0  0  0  0  0  0  0  0  0  0
   -7.8380    3.6596  -77.9845 C   0  0  0  0  0  0  0  0  0  0  0  0
   -8.1556    4.5990  -78.9495 C   0  0  0  0  0  0  0  0  0  0  0  0
   -9.4240    5.1459  -78.9688 C   0  0  0  0  0  0  0  0  0  0  0  0
  -10.3399    4.7407  -78.0280 C   0  0  0  0  0  0  0  0  0  0  0  0
  -11.5705    5.3009  -78.0813 F   0  0  0  0  0  0  0  0  0  0  0  0
  -10.0541    3.7982  -77.0466 C   0  0  0  0  0  0  0  0  0  0  0  0
  -11.0679    3.3542  -76.0118 C   0  0  0  0  0  0  0  0  0  0  0  0
  -11.9955    4.2880  -75.7041 O   0  0  0  0  0  0  0  0  0  0  0  0
  -11.0749    2.1362  -75.4250 O   0  0  0  0  0  1  0  0  0  0  0  0
   -8.7690    3.2541  -77.0389 C   0  0  0  0  0  0  0  0  0  0  0  0
  1  2  1  0
  2  3  1  0
  2  4  1  0
  4  5  1  0
  5  6  2  0
  5  7  2  0
  5  8  1  0
  8  9  2  0
  9 10  1  0
 10 11  2  0
 11 12  1  0
 11 13  1  0
 13 14  1  0
 14 15  2  0
 14 16  1  0
 13 17  2  0
 17  8  1  0
M  CHG  1  16  -1
M  END
>  <ref_mols>  (2) 
x0029_0A

>  <ref_pdb>  (2) 
x0029_0A

>  <original SMILES>  (2) 
CC(C)NS(=O)(=O)c1ccc(F)c(C(=O)O)c1

>  <mean_hotspot_score>  (2) 
10.4260497373693

>  <additive_hotspot_score>  (2) 
177.242845535278

>  <mean_polar_hotspot_score>  (2) 
3.13806791866527

>  <additive_polar_hotspot_score>  (2) 
53.3471546173096

>  <SuCOS_score>  (2) 
0.660445354106997

$$$$
nsp13-x0029_0A_followup_135_pose_32
     RDKit          3D

 17 17  0  0  0  0  0  0  0  0999 V2000
   -2.9182    5.3869  -78.3777 C   0  0  0  0  0  0  0  0  0  0  0  0
   -3.8326    5.2133  -77.6604 C   0  0  0  0  0  0  0  0  0  0  0  0
   -5.0000    4.9660  -76.8096 C   0  0  0  0  0  0  0  0  0  0  0  0
   -5.2966    3.4815  -76.7104 C   0  0  0  0  0  0  0  0  0  0  0  0
   -6.1370    2.8535  -78.1406 S   0  0  0  0  0  0  0  0  0  0  0  0
   -6.2941    1.4336  -77.9780 O   0  0  0  0  0  0  0  0  0  0  0  0
   -5.4493    3.3331  -79.3085 O   0  0  0  0  0  0  0  0  0  0  0  0
   -7.7355    3.5968  -78.0946 C   0  0  0  0  0  0  0  0  0  0  0  0
   -8.0511    4.5963  -78.9980 C   0  0  0  0  0  0  0  0  0  0  0  0
   -9.3073    5.1697  -78.9581 C   0  0  0  0  0  0  0  0  0  0  0  0
  -10.2120    4.7307  -78.0216 C   0  0  0  0  0  0  0  0  0  0  0  0
  -11.4306    5.3188  -78.0158 F   0  0  0  0  0  0  0  0  0  0  0  0
   -9.9272    3.7277  -77.1017 C   0  0  0  0  0  0  0  0  0  0  0  0
  -10.9289    3.2467  -76.0716 C   0  0  0  0  0  0  0  0  0  0  0  0
  -11.8474    4.1715  -75.7136 O   0  0  0  0  0  0  0  0  0  0  0  0
  -10.9341    2.0058  -75.5349 O   0  0  0  0  0  1  0  0  0  0  0  0
   -8.6547    3.1570  -77.1531 C   0  0  0  0  0  0  0  0  0  0  0  0
  1  2  3  0
  2  3  1  0
  3  4  1  0
  4  5  1  0
  5  6  2  0
  5  7  2  0
  5  8  1  0
  8  9  2  0
  9 10  1  0
 10 11  2  0
 11 12  1  0
 11 13  1  0
 13 14  1  0
 14 15  2  0
 14 16  1  0
 13 17  2  0
 17  8  1  0
M  CHG  1  16  -1
M  END
>  <ref_mols>  (3) 
x0029_0A

>  <ref_pdb>  (3) 
x0029_0A

>  <original SMILES>  (3) 
C#CCCS(=O)(=O)c1ccc(F)c(C(=O)O)c1

>  <mean_hotspot_score>  (3) 
9.94024680642521

>  <additive_hotspot_score>  (3) 
168.984195709229

>  <mean_polar_hotspot_score>  (3) 
0.911731158985811

>  <additive_polar_hotspot_score>  (3) 
15.4994297027588

>  <SuCOS_score>  (3) 
0.641026086891513

$$$$
nsp13-x0029_0A_followup_149_pose_48
     RDKit          3D

 17 17  0  0  0  0  0  0  0  0999 V2000
   -5.4051   -0.7579  -79.4915 C   0  0  0  0  0  0  0  0  0  0  0  0
   -4.4315   -0.1763  -78.1007 S   0  0  0  0  0  0  0  0  0  0  0  0
   -4.9027    1.5947  -77.9984 C   0  0  1  0  0  0  0  0  0  0  0  0
   -4.4848    2.2884  -79.2785 C   0  0  0  0  0  0  0  0  0  0  0  0
   -6.4023    1.7131  -77.7886 C   0  0  0  0  0  0  0  0  0  0  0  0
   -7.0537    0.7287  -77.4496 O   0  0  0  0  0  0  0  0  0  0  0  0
   -6.8952    2.9561  -78.0159 N   0  0  0  0  0  0  0  0  0  0  0  0
   -8.2131    3.4712  -77.9312 C   0  0  0  0  0  0  0  0  0  0  0  0
   -8.5146    4.5903  -78.6958 C   0  0  0  0  0  0  0  0  0  0  0  0
   -9.7783    5.1456  -78.6635 C   0  0  0  0  0  0  0  0  0  0  0  0
  -10.7336    4.5726  -77.8616 C   0  0  0  0  0  0  0  0  0  0  0  0
  -11.9606    5.1430  -77.8552 F   0  0  0  0  0  0  0  0  0  0  0  0
  -10.4857    3.4532  -77.0763 C   0  0  0  0  0  0  0  0  0  0  0  0
  -11.5440    2.8238  -76.1921 C   0  0  0  0  0  0  0  0  0  0  0  0
  -12.5622    3.6459  -75.8535 O   0  0  0  0  0  0  0  0  0  0  0  0
  -11.5086    1.5447  -75.7555 O   0  0  0  0  0  1  0  0  0  0  0  0
   -9.2009    2.9073  -77.1233 C   0  0  0  0  0  0  0  0  0  0  0  0
  1  2  1  0
  2  3  1  0
  3  4  1  6
  3  5  1  0
  5  6  2  0
  5  7  1  0
  7  8  1  0
  8  9  2  0
  9 10  1  0
 10 11  2  0
 11 12  1  0
 11 13  1  0
 13 14  1  0
 14 15  2  0
 14 16  1  0
 13 17  2  0
 17  8  1  0
M  CHG  1  16  -1
M  END
>  <ref_mols>  (4) 
x0029_0A

>  <ref_pdb>  (4) 
x0029_0A

>  <original SMILES>  (4) 
CSC(C)C(=O)Nc1ccc(F)c(C(=O)O)c1

>  <mean_hotspot_score>  (4) 
8.26005262487075

>  <additive_hotspot_score>  (4) 
140.420894622803

>  <mean_polar_hotspot_score>  (4) 
2.59376234166762

>  <additive_polar_hotspot_score>  (4) 
44.0939598083496

>  <SuCOS_score>  (4) 
0.687303567878833

$$$$
nsp13-x0208_0A_followup_11_pose_42
     RDKit          3D

 14 14  0  0  0  0  0  0  0  0999 V2000
  -12.1473    1.5918  -75.4815 C   0  0  0  0  0  0  0  0  0  0  0  0
  -11.2140    2.6412  -76.0104 C   0  0  0  0  0  0  0  0  0  0  0  0
  -11.4060    3.8301  -75.7778 O   0  0  0  0  0  0  0  0  0  0  0  0
  -10.1747    2.1408  -76.7273 N   0  0  0  0  0  0  0  0  0  0  0  0
   -9.0865    2.7701  -77.3817 C   0  0  0  0  0  0  0  0  0  0  0  0
   -9.2022    3.9867  -78.0438 C   0  0  0  0  0  0  0  0  0  0  0  0
   -8.1010    4.5422  -78.6641 C   0  0  0  0  0  0  0  0  0  0  0  0
   -6.8799    3.8936  -78.6308 C   0  0  0  0  0  0  0  0  0  0  0  0
   -5.4669    4.7743  -79.5393 Br  0  0  0  0  0  0  0  0  0  0  0  0
   -6.7259    2.6729  -77.9677 C   0  0  0  0  0  0  0  0  0  0  0  0
   -5.4120    1.9169  -77.8855 C   0  0  0  0  0  0  0  0  0  0  0  0
   -5.4968    0.6988  -77.3057 O   0  0  0  0  0  0  0  0  0  0  0  0
   -4.2156    2.3606  -78.3309 O   0  0  0  0  0  1  0  0  0  0  0  0
   -7.8532    2.1259  -77.3489 C   0  0  0  0  0  0  0  0  0  0  0  0
  1  2  1  0
  2  3  2  0
  2  4  1  0
  4  5  1  0
  5  6  2  0
  6  7  1  0
  7  8  2  0
  8  9  1  0
  8 10  1  0
 10 11  1  0
 11 12  2  0
 11 13  1  0
 10 14  2  0
 14  5  1  0
M  CHG  1  13  -1
M  END
>  <ref_mols>  (5) 
x0208_0A

>  <ref_pdb>  (5) 
x0208_0A

>  <original SMILES>  (5) 
CC(=O)Nc1ccc(Br)c(C(=O)O)c1

>  <mean_hotspot_score>  (5) 
10.427410875048

>  <additive_hotspot_score>  (5) 
145.983752250671

>  <mean_polar_hotspot_score>  (5) 
4.60761690139771

>  <additive_polar_hotspot_score>  (5) 
64.5066366195679

>  <SuCOS_score>  (5) 
0.714697521954943

$$$$
nsp13-x0208_0A_followup_27_pose_49
     RDKit          3D

 14 14  0  0  0  0  0  0  0  0999 V2000
  -11.7096    2.1820  -75.2617 C   0  0  0  0  0  0  0  0  0  0  0  0
  -10.7708    3.0248  -76.0742 C   0  0  0  0  0  0  0  0  0  0  0  0
  -11.0091    4.2093  -76.2853 O   0  0  0  0  0  0  0  0  0  0  0  0
   -9.6722    2.3573  -76.5122 N   0  0  0  0  0  0  0  0  0  0  0  0
   -8.5604    2.7736  -77.2860 C   0  0  0  0  0  0  0  0  0  0  0  0
   -8.6543    3.7225  -78.3027 C   0  0  0  0  0  0  0  0  0  0  0  0
   -7.5169    4.0711  -79.0089 C   0  0  0  0  0  0  0  0  0  0  0  0
   -7.6608    5.5000  -80.5389 I   0  0  0  0  0  0  0  0  0  0  0  0
   -6.2881    3.5018  -78.7320 C   0  0  0  0  0  0  0  0  0  0  0  0
   -6.1769    2.5522  -77.7198 C   0  0  0  0  0  0  0  0  0  0  0  0
   -4.8431    1.9158  -77.3992 C   0  0  0  0  0  0  0  0  0  0  0  0
   -4.5737    1.8057  -76.0793 O   0  0  0  0  0  0  0  0  0  0  0  0
   -4.0005    1.4965  -78.3693 O   0  0  0  0  0  1  0  0  0  0  0  0
   -7.3228    2.2022  -77.0095 C   0  0  0  0  0  0  0  0  0  0  0  0
  1  2  1  0
  2  3  2  0
  2  4  1  0
  4  5  1  0
  5  6  2  0
  6  7  1  0
  7  8  1  0
  7  9  2  0
  9 10  1  0
 10 11  1  0
 11 12  2  0
 11 13  1  0
 10 14  2  0
 14  5  1  0
M  CHG  1  13  -1
M  END
>  <ref_mols>  (6) 
x0208_0A

>  <ref_pdb>  (6) 
x0208_0A

>  <original SMILES>  (6) 
CC(=O)Nc1cc(I)cc(C(=O)O)c1

>  <mean_hotspot_score>  (6) 
9.28728798457554

>  <additive_hotspot_score>  (6) 
130.022031784058

>  <mean_polar_hotspot_score>  (6) 
3.47069665363857

>  <additive_polar_hotspot_score>  (6) 
48.5897531509399

>  <SuCOS_score>  (6) 
0.51216843144397

$$$$
nsp13-x0208_0A_followup_20_pose_49
     RDKit          3D

 14 14  0  0  0  0  0  0  0  0999 V2000
  -11.6694    2.5545  -75.2932 C   0  0  0  0  0  0  0  0  0  0  0  0
  -10.7156    3.3292  -76.1546 C   0  0  0  0  0  0  0  0  0  0  0  0
  -10.9703    4.4775  -76.5025 O   0  0  0  0  0  0  0  0  0  0  0  0
   -9.6000    2.6362  -76.5003 N   0  0  0  0  0  0  0  0  0  0  0  0
   -8.4775    2.9876  -77.2905 C   0  0  0  0  0  0  0  0  0  0  0  0
   -8.5376    3.9188  -78.3254 C   0  0  0  0  0  0  0  0  0  0  0  0
   -7.3932    4.1981  -79.0419 C   0  0  0  0  0  0  0  0  0  0  0  0
   -7.4811    5.4678  -80.4515 Br  0  0  0  0  0  0  0  0  0  0  0  0
   -6.1879    3.5879  -78.7707 C   0  0  0  0  0  0  0  0  0  0  0  0
   -6.1107    2.6552  -77.7396 C   0  0  0  0  0  0  0  0  0  0  0  0
   -4.8031    1.9678  -77.4163 C   0  0  0  0  0  0  0  0  0  0  0  0
   -4.5138    1.8987  -76.0978 O   0  0  0  0  0  0  0  0  0  0  0  0
   -4.0010    1.4685  -78.3828 O   0  0  0  0  0  1  0  0  0  0  0  0
   -7.2636    2.3688  -77.0124 C   0  0  0  0  0  0  0  0  0  0  0  0
  1  2  1  0
  2  3  2  0
  2  4  1  0
  4  5  1  0
  5  6  2  0
  6  7  1  0
  7  8  1  0
  7  9  2  0
  9 10  1  0
 10 11  1  0
 11 12  2  0
 11 13  1  0
 10 14  2  0
 14  5  1  0
M  CHG  1  13  -1
M  END
>  <ref_mols>  (7) 
x0208_0A

>  <ref_pdb>  (7) 
x0208_0A

>  <original SMILES>  (7) 
CC(=O)Nc1cc(Br)cc(C(=O)O)c1

>  <mean_hotspot_score>  (7) 
9.30106585366385

>  <additive_hotspot_score>  (7) 
130.214921951294

>  <mean_polar_hotspot_score>  (7) 
3.47069665363857

>  <additive_polar_hotspot_score>  (7) 
48.5897531509399

>  <SuCOS_score>  (7) 
0.504679412776344

$$$$
nsp13-x0208_0A_followup_83_pose_43
     RDKit          3D

 17 17  0  0  0  0  0  0  0  0999 V2000
   -9.2079   -0.7013  -76.3705 C   0  0  0  0  0  0  0  0  0  0  0  0
  -10.2821    0.2006  -75.8007 C   0  0  0  0  0  0  0  0  0  0  0  0
  -11.4164   -0.5999  -75.1970 C   0  0  0  0  0  0  0  0  0  0  0  0
  -10.8210    1.0543  -76.8887 N   0  0  0  0  0  0  0  0  0  0  0  0
  -10.7420    2.6652  -76.8453 S   0  0  0  0  0  0  0  0  0  0  0  0
  -11.8046    3.1530  -77.6697 O   0  0  0  0  0  0  0  0  0  0  0  0
  -10.6911    3.0390  -75.4651 O   0  0  0  0  0  0  0  0  0  0  0  0
   -9.2151    3.1666  -77.5908 C   0  0  0  0  0  0  0  0  0  0  0  0
   -8.0894    2.3740  -77.4199 C   0  0  0  0  0  0  0  0  0  0  0  0
   -6.8690    2.7368  -77.9881 C   0  0  0  0  0  0  0  0  0  0  0  0
   -5.6432    1.8711  -77.8015 C   0  0  0  0  0  0  0  0  0  0  0  0
   -5.8659    0.7072  -77.1514 O   0  0  0  0  0  0  0  0  0  0  0  0
   -4.4278    2.2487  -78.2566 O   0  0  0  0  0  1  0  0  0  0  0  0
   -6.8021    3.9113  -78.7300 C   0  0  0  0  0  0  0  0  0  0  0  0
   -7.9156    4.7123  -78.9078 C   0  0  0  0  0  0  0  0  0  0  0  0
   -9.1046    4.3290  -78.3357 C   0  0  0  0  0  0  0  0  0  0  0  0
  -10.1951    5.1116  -78.5074 F   0  0  0  0  0  0  0  0  0  0  0  0
  1  2  1  0
  2  3  1  0
  2  4  1  0
  4  5  1  0
  5  6  2  0
  5  7  2  0
  5  8  1  0
  8  9  2  0
  9 10  1  0
 10 11  1  0
 11 12  2  0
 11 13  1  0
 10 14  2  0
 14 15  1  0
 15 16  2  0
 16 17  1  0
 16  8  1  0
M  CHG  1  13  -1
M  END
>  <ref_mols>  (8) 
x0208_0A

>  <ref_pdb>  (8) 
x0208_0A

>  <original SMILES>  (8) 
CC(C)NS(=O)(=O)c1cc(C(=O)O)ccc1F

>  <mean_hotspot_score>  (8) 
11.0243301952586

>  <additive_hotspot_score>  (8) 
187.413613319397

>  <mean_polar_hotspot_score>  (8) 
2.81268013224882

>  <additive_polar_hotspot_score>  (8) 
47.81556224823

>  <SuCOS_score>  (8) 
0.711658606922608

$$$$
nsp13-x0311_0B_followup_16_pose_48
     RDKit          3D

 20 22  0  0  0  0  0  0  0  0999 V2000
   -3.0432    4.3993  -77.6275 N   0  0  0  0  0  0  0  0  0  0  0  0
   -3.3834    3.2170  -78.1145 C   0  0  0  0  0  0  0  0  0  0  0  0
   -2.5863    2.4805  -78.6996 O   0  0  0  0  0  0  0  0  0  0  0  0
   -4.8300    2.7994  -77.9159 C   0  0  0  0  0  0  0  0  0  0  0  0
   -5.9053    3.9009  -77.7516 C   0  0  0  0  0  0  0  0  0  0  0  0
   -6.8113    2.8488  -78.2947 N   0  0  0  0  0  0  0  0  0  0  0  0
   -8.0276    3.3214  -78.9907 C   0  0  0  0  0  0  0  0  0  0  0  0
   -9.1400    3.5925  -77.9863 C   0  0  0  0  0  0  0  0  0  0  0  0
  -10.2162    4.4009  -78.3213 C   0  0  0  0  0  0  0  0  0  0  0  0
  -11.2256    4.6496  -77.4064 C   0  0  0  0  0  0  0  0  0  0  0  0
  -11.1702    4.0942  -76.1473 C   0  0  0  0  0  0  0  0  0  0  0  0
  -10.1069    3.2904  -75.8005 C   0  0  0  0  0  0  0  0  0  0  0  0
   -9.0967    3.0408  -76.7143 C   0  0  0  0  0  0  0  0  0  0  0  0
   -8.4646    2.3073  -80.0395 C   0  0  0  0  0  0  0  0  0  0  0  0
   -8.4844    2.6428  -81.3853 C   0  0  0  0  0  0  0  0  0  0  0  0
   -8.8787    1.7191  -82.3387 C   0  0  0  0  0  0  0  0  0  0  0  0
   -9.2564    0.4505  -81.9581 C   0  0  0  0  0  0  0  0  0  0  0  0
   -9.2403    0.1029  -80.6254 C   0  0  0  0  0  0  0  0  0  0  0  0
   -8.8462    1.0256  -79.6708 C   0  0  0  0  0  0  0  0  0  0  0  0
   -5.6729    2.4259  -79.1596 C   0  0  0  0  0  0  0  0  0  0  0  0
  1  2  1  0
  2  3  2  0
  2  4  1  0
  4  5  1  0
  5  6  1  0
  6  7  1  0
  7  8  1  0
  8  9  2  0
  9 10  1  0
 10 11  2  0
 11 12  1  0
 12 13  2  0
  7 14  1  0
 14 15  2  0
 15 16  1  0
 16 17  2  0
 17 18  1  0
 18 19  2  0
  6 20  1  0
 20  4  1  0
 13  8  1  0
 19 14  1  0
M  END
>  <ref_mols>  (9) 
x0311_0B

>  <ref_pdb>  (9) 
x0311_0B

>  <original SMILES>  (9) 
NC(=O)C1CN(C(c2ccccc2)c2ccccc2)C1

>  <mean_hotspot_score>  (9) 
9.75995216369629

>  <additive_hotspot_score>  (9) 
195.199043273926

>  <mean_polar_hotspot_score>  (9) 
1.71042561531067

>  <additive_polar_hotspot_score>  (9) 
34.2085123062134

>  <SuCOS_score>  (9) 
0.84752444574407

$$$$
nsp13-x0311_0B_followup_19_pose_46
     RDKit          3D

 19 21  0  0  0  0  0  0  0  0999 V2000
   -3.2358    4.2365  -77.6481 N   0  0  0  0  0  4  0  0  0  0  0  0
   -3.4801    2.8146  -77.2964 C   0  0  0  0  0  0  0  0  0  0  0  0
   -4.9446    2.4260  -77.4173 C   0  0  0  0  0  0  0  0  0  0  0  0
   -5.6017    2.3341  -78.8192 C   0  0  0  0  0  0  0  0  0  0  0  0
   -6.8577    2.5882  -78.0597 N   0  0  0  0  0  0  0  0  0  0  0  0
   -7.9691    3.2080  -78.8131 C   0  0  0  0  0  0  0  0  0  0  0  0
   -9.1090    3.5712  -77.8707 C   0  0  0  0  0  0  0  0  0  0  0  0
   -9.1258    3.1037  -76.5648 C   0  0  0  0  0  0  0  0  0  0  0  0
  -10.1642    3.4319  -75.7094 C   0  0  0  0  0  0  0  0  0  0  0  0
  -11.1972    4.2295  -76.1496 C   0  0  0  0  0  0  0  0  0  0  0  0
  -11.1943    4.6998  -77.4442 C   0  0  0  0  0  0  0  0  0  0  0  0
  -10.1566    4.3725  -78.3007 C   0  0  0  0  0  0  0  0  0  0  0  0
   -8.4426    2.2753  -79.9201 C   0  0  0  0  0  0  0  0  0  0  0  0
   -8.9609    1.0241  -79.6199 C   0  0  0  0  0  0  0  0  0  0  0  0
   -9.3942    0.1780  -80.6269 C   0  0  0  0  0  0  0  0  0  0  0  0
   -9.3153    0.5730  -81.9440 C   0  0  0  0  0  0  0  0  0  0  0  0
   -8.8041    1.8131  -82.2567 C   0  0  0  0  0  0  0  0  0  0  0  0
   -8.3705    2.6603  -81.2508 C   0  0  0  0  0  0  0  0  0  0  0  0
   -6.0440    3.4997  -77.2077 C   0  0  0  0  0  0  0  0  0  0  0  0
  1  2  1  0
  2  3  1  0
  3  4  1  0
  4  5  1  0
  5  6  1  0
  6  7  1  0
  7  8  2  0
  8  9  1  0
  9 10  2  0
 10 11  1  0
 11 12  2  0
  6 13  1  0
 13 14  2  0
 14 15  1  0
 15 16  2  0
 16 17  1  0
 17 18  2  0
  5 19  1  0
 19  3  1  0
 12  7  1  0
 18 13  1  0
M  CHG  1   1   1
M  END
>  <ref_mols>  (10) 
x0311_0B

>  <ref_pdb>  (10) 
x0311_0B

>  <original SMILES>  (10) 
NCC1CN(C(c2ccccc2)c2ccccc2)C1

>  <mean_hotspot_score>  (10) 
9.31418955953498

>  <additive_hotspot_score>  (10) 
176.969601631165

>  <mean_polar_hotspot_score>  (10) 
1.04155630814402

>  <additive_polar_hotspot_score>  (10) 
19.7895698547363

>  <SuCOS_score>  (10) 
0.877464051655961

$$$$
nsp13-x0311_0B_followup_2_pose_49
     RDKit          3D

 19 21  0  0  0  0  0  0  0  0999 V2000
   -4.8611    5.1278  -78.6686 C   0  0  0  0  0  0  0  0  0  0  0  0
   -4.8385    3.7426  -78.0382 C   0  0  0  0  0  0  0  0  0  0  0  0
   -3.5044    3.5101  -77.5490 O   0  0  0  0  0  0  0  0  0  0  0  0
   -5.4936    2.6270  -78.8885 C   0  0  0  0  0  0  0  0  0  0  0  0
   -6.7543    3.2129  -78.3520 N   0  0  0  0  0  0  0  0  0  0  0  0
   -7.9484    2.3417  -78.3039 C   0  0  0  0  0  0  0  0  0  0  0  0
   -9.1179    3.0819  -77.6685 C   0  0  0  0  0  0  0  0  0  0  0  0
   -9.4891    2.8281  -76.3562 C   0  0  0  0  0  0  0  0  0  0  0  0
  -10.5505    3.5039  -75.7780 C   0  0  0  0  0  0  0  0  0  0  0  0
  -11.2518    4.4409  -76.5041 C   0  0  0  0  0  0  0  0  0  0  0  0
  -10.8936    4.7042  -77.8078 C   0  0  0  0  0  0  0  0  0  0  0  0
   -9.8323    4.0292  -78.3872 C   0  0  0  0  0  0  0  0  0  0  0  0
   -8.2997    1.8484  -79.7013 C   0  0  0  0  0  0  0  0  0  0  0  0
   -8.4832    2.7445  -80.7442 C   0  0  0  0  0  0  0  0  0  0  0  0
   -8.8059    2.2955  -82.0139 C   0  0  0  0  0  0  0  0  0  0  0  0
   -8.9495    0.9471  -82.2550 C   0  0  0  0  0  0  0  0  0  0  0  0
   -8.7716    0.0460  -81.2286 C   0  0  0  0  0  0  0  0  0  0  0  0
   -8.4489    0.4935  -79.9585 C   0  0  0  0  0  0  0  0  0  0  0  0
   -6.0154    3.4422  -77.0784 C   0  0  0  0  0  0  0  0  0  0  0  0
  1  2  1  0
  2  3  1  0
  2  4  1  0
  4  5  1  0
  5  6  1  0
  6  7  1  0
  7  8  2  0
  8  9  1  0
  9 10  2  0
 10 11  1  0
 11 12  2  0
  6 13  1  0
 13 14  2  0
 14 15  1  0
 15 16  2  0
 16 17  1  0
 17 18  2  0
  5 19  1  0
 19  2  1  0
 12  7  1  0
 18 13  1  0
M  END
>  <ref_mols>  (11) 
x0311_0B

>  <ref_pdb>  (11) 
x0311_0B

>  <original SMILES>  (11) 
CC1(O)CN(C(c2ccccc2)c2ccccc2)C1

>  <mean_hotspot_score>  (11) 
9.87909914317884

>  <additive_hotspot_score>  (11) 
187.702883720398

>  <mean_polar_hotspot_score>  (11) 
1.01608256289833

>  <additive_polar_hotspot_score>  (11) 
19.3055686950684

>  <SuCOS_score>  (11) 
0.868034091661988

$$$$
nsp13-x0311_0B_followup_22_pose_44
     RDKit          3D

 20 22  0  0  0  0  0  0  0  0999 V2000
   -3.0461    4.6087  -78.2057 O   0  0  0  0  0  0  0  0  0  0  0  0
   -3.3524    3.3500  -78.5913 C   0  0  0  0  0  0  0  0  0  0  0  0
   -2.4707    2.5082  -79.1750 O   0  0  0  0  0  1  0  0  0  0  0  0
   -4.7865    2.9693  -78.2989 C   0  0  0  0  0  0  0  0  0  0  0  0
   -5.7253    2.5224  -79.4407 C   0  0  0  0  0  0  0  0  0  0  0  0
   -6.7957    2.9669  -78.5050 N   0  0  0  0  0  0  0  0  0  0  0  0
   -8.0764    3.3807  -79.1179 C   0  0  0  0  0  0  0  0  0  0  0  0
   -9.1267    3.6159  -78.0404 C   0  0  0  0  0  0  0  0  0  0  0  0
  -10.2433    4.3979  -78.2973 C   0  0  0  0  0  0  0  0  0  0  0  0
  -11.1963    4.6139  -77.3161 C   0  0  0  0  0  0  0  0  0  0  0  0
  -11.0437    4.0521  -76.0678 C   0  0  0  0  0  0  0  0  0  0  0  0
   -9.9392    3.2745  -75.7983 C   0  0  0  0  0  0  0  0  0  0  0  0
   -8.9854    3.0575  -76.7785 C   0  0  0  0  0  0  0  0  0  0  0  0
   -8.5418    2.3382  -80.1257 C   0  0  0  0  0  0  0  0  0  0  0  0
   -8.9784    1.0905  -79.7051 C   0  0  0  0  0  0  0  0  0  0  0  0
   -9.4045    0.1443  -80.6219 C   0  0  0  0  0  0  0  0  0  0  0  0
   -9.3998    0.4344  -81.9684 C   0  0  0  0  0  0  0  0  0  0  0  0
   -8.9701    1.6696  -82.4003 C   0  0  0  0  0  0  0  0  0  0  0  0
   -8.5437    2.6169  -81.4846 C   0  0  0  0  0  0  0  0  0  0  0  0
   -5.8633    4.0606  -78.1137 C   0  0  0  0  0  0  0  0  0  0  0  0
  1  2  2  0
  2  3  1  0
  2  4  1  0
  4  5  1  0
  5  6  1  0
  6  7  1  0
  7  8  1  0
  8  9  2  0
  9 10  1  0
 10 11  2  0
 11 12  1  0
 12 13  2  0
  7 14  1  0
 14 15  2  0
 15 16  1  0
 16 17  2  0
 17 18  1  0
 18 19  2  0
  6 20  1  0
 20  4  1  0
 13  8  1  0
 19 14  1  0
M  CHG  1   3  -1
M  END
>  <ref_mols>  (12) 
x0311_0B

>  <ref_pdb>  (12) 
x0311_0B

>  <original SMILES>  (12) 
O=C(O)C1CN(C(c2ccccc2)c2ccccc2)C1

>  <mean_hotspot_score>  (12) 
9.56942720413208

>  <additive_hotspot_score>  (12) 
191.388544082642

>  <mean_polar_hotspot_score>  (12) 
1.71042561531067

>  <additive_polar_hotspot_score>  (12) 
34.2085123062134

>  <SuCOS_score>  (12) 
0.779511710150248

$$$$
nsp13-x0311_0B_followup_23_pose_21
     RDKit          3D

 19 21  0  0  0  0  0  0  0  0999 V2000
   -2.5962    4.2709  -77.7143 O   0  0  0  0  0  0  0  0  0  0  0  0
   -3.4016    3.2048  -78.2002 C   0  0  0  0  0  0  0  0  0  0  0  0
   -4.8766    3.5643  -78.2238 C   0  0  0  0  0  0  0  0  0  0  0  0
   -5.8331    2.8399  -79.2066 C   0  0  0  0  0  0  0  0  0  0  0  0
   -6.8722    3.2224  -78.2104 N   0  0  0  0  0  0  0  0  0  0  0  0
   -8.0858    2.3782  -78.1671 C   0  0  0  0  0  0  0  0  0  0  0  0
   -9.2549    3.1620  -77.5855 C   0  0  0  0  0  0  0  0  0  0  0  0
   -9.6544    2.9687  -76.2713 C   0  0  0  0  0  0  0  0  0  0  0  0
  -10.7156    3.6842  -75.7421 C   0  0  0  0  0  0  0  0  0  0  0  0
  -11.3880    4.6008  -76.5198 C   0  0  0  0  0  0  0  0  0  0  0  0
  -11.0013    4.8040  -77.8260 C   0  0  0  0  0  0  0  0  0  0  0  0
   -9.9405    4.0893  -78.3565 C   0  0  0  0  0  0  0  0  0  0  0  0
   -8.4118    1.8490  -79.5574 C   0  0  0  0  0  0  0  0  0  0  0  0
   -8.5053    2.7109  -80.6404 C   0  0  0  0  0  0  0  0  0  0  0  0
   -8.8049    2.2293  -81.9037 C   0  0  0  0  0  0  0  0  0  0  0  0
   -9.0152    0.8821  -82.0985 C   0  0  0  0  0  0  0  0  0  0  0  0
   -8.9269    0.0148  -81.0321 C   0  0  0  0  0  0  0  0  0  0  0  0
   -8.6273    0.4950  -79.7682 C   0  0  0  0  0  0  0  0  0  0  0  0
   -5.8384    2.9518  -77.1727 C   0  0  0  0  0  0  0  0  0  0  0  0
  1  2  1  0
  2  3  1  0
  3  4  1  0
  4  5  1  0
  5  6  1  0
  6  7  1  0
  7  8  2  0
  8  9  1  0
  9 10  2  0
 10 11  1  0
 11 12  2  0
  6 13  1  0
 13 14  2  0
 14 15  1  0
 15 16  2  0
 16 17  1  0
 17 18  2  0
  5 19  1  0
 19  3  1  0
 12  7  1  0
 18 13  1  0
M  END
>  <ref_mols>  (13) 
x0311_0B

>  <ref_pdb>  (13) 
x0311_0B

>  <original SMILES>  (13) 
OCC1CN(C(c2ccccc2)c2ccccc2)C1

>  <mean_hotspot_score>  (13) 
10.0150548031456

>  <additive_hotspot_score>  (13) 
190.286041259766

>  <mean_polar_hotspot_score>  (13) 
0.864262430291427

>  <additive_polar_hotspot_score>  (13) 
16.4209861755371

>  <SuCOS_score>  (13) 
0.811208452086929

$$$$
nsp13-x0311_0B_followup_1_pose_38
     RDKit          3D

 21 23  0  0  0  0  0  0  0  0999 V2000
   -1.8577    3.9793  -79.5872 N   0  0  0  0  0  0  0  0  0  0  0  0
   -2.5540    3.6309  -78.7598 C   0  0  0  0  0  0  0  0  0  0  0  0
   -3.4550    3.2239  -77.6830 C   0  0  0  0  0  0  0  0  0  0  0  0
   -4.9216    3.5971  -77.9767 C   0  0  0  0  0  0  0  0  0  0  0  0
   -4.9669    4.9997  -78.2907 O   0  0  0  0  0  0  0  0  0  0  0  0
   -5.7192    2.6925  -78.9331 C   0  0  0  0  0  0  0  0  0  0  0  0
   -6.8823    3.2050  -78.1580 N   0  0  0  0  0  0  0  0  0  0  0  0
   -8.1106    2.3815  -78.1414 C   0  0  0  0  0  0  0  0  0  0  0  0
   -9.2744    3.1791  -77.5681 C   0  0  0  0  0  0  0  0  0  0  0  0
   -9.9681    4.0866  -78.3550 C   0  0  0  0  0  0  0  0  0  0  0  0
  -11.0284    4.8091  -77.8339 C   0  0  0  0  0  0  0  0  0  0  0  0
  -11.4073    4.6322  -76.5216 C   0  0  0  0  0  0  0  0  0  0  0  0
  -10.7284    3.7335  -75.7288 C   0  0  0  0  0  0  0  0  0  0  0  0
   -9.6680    3.0103  -76.2486 C   0  0  0  0  0  0  0  0  0  0  0  0
   -8.4254    1.8730  -79.5420 C   0  0  0  0  0  0  0  0  0  0  0  0
   -8.5042    2.7500  -80.6137 C   0  0  0  0  0  0  0  0  0  0  0  0
   -8.7938    2.2874  -81.8865 C   0  0  0  0  0  0  0  0  0  0  0  0
   -9.0083    0.9440  -82.1019 C   0  0  0  0  0  0  0  0  0  0  0  0
   -8.9345    0.0617  -81.0468 C   0  0  0  0  0  0  0  0  0  0  0  0
   -8.6451    0.5230  -79.7735 C   0  0  0  0  0  0  0  0  0  0  0  0
   -5.9893    3.1350  -76.9690 C   0  0  0  0  0  0  0  0  0  0  0  0
  1  2  3  0
  2  3  1  0
  3  4  1  0
  4  5  1  0
  4  6  1  0
  6  7  1  0
  7  8  1  0
  8  9  1  0
  9 10  2  0
 10 11  1  0
 11 12  2  0
 12 13  1  0
 13 14  2  0
  8 15  1  0
 15 16  2  0
 16 17  1  0
 17 18  2  0
 18 19  1  0
 19 20  2  0
  7 21  1  0
 21  4  1  0
 14  9  1  0
 20 15  1  0
M  END
>  <ref_mols>  (14) 
x0311_0B

>  <ref_pdb>  (14) 
x0311_0B

>  <original SMILES>  (14) 
N#CCC1(O)CN(C(c2ccccc2)c2ccccc2)C1

>  <mean_hotspot_score>  (14) 
9.23447445460728

>  <additive_hotspot_score>  (14) 
193.923963546753

>  <mean_polar_hotspot_score>  (14) 
0.93199938819522

>  <additive_polar_hotspot_score>  (14) 
19.5719871520996

>  <SuCOS_score>  (14) 
0.798679495067639

$$$$
