ver_1.2
     RDKit          2D

 11 11  0  0  0  0  0  0  0  0999 V2000
    3.0000    0.0000    0.0000 C   0  0  0  0  0  0  0  0  0  0  0  0
    1.5000    0.0000    0.0000 C   0  0  0  0  0  0  0  0  0  0  0  0
    0.7500   -1.2990    0.0000 C   0  0  0  0  0  0  0  0  0  0  0  0
   -0.7500   -1.2990    0.0000 C   0  0  0  0  0  0  0  0  0  0  0  0
   -1.5000   -2.5981    0.0000 O   0  0  0  0  0  0  0  0  0  0  0  0
   -1.5000    0.0000    0.0000 C   0  0  0  0  0  0  0  0  0  0  0  0
   -0.7500    1.2990    0.0000 C   0  0  0  0  0  0  0  0  0  0  0  0
    0.7500    1.2990    0.0000 C   0  0  0  0  0  0  0  0  0  0  0  0
    0.4895    2.7762    0.0000 C   0  0  0  0  0  0  0  0  0  0  0  0
    2.1595    1.8121    0.0000 C   0  0  0  0  0  0  0  0  0  0  0  0
   -1.5000    2.5981    0.0000 C   0  0  0  0  0  0  0  0  0  0  0  0
  1  2  1  0
  2  3  2  0
  3  4  1  0
  4  5  2  0
  4  6  1  0
  6  7  2  0
  7  8  1  0
  8  9  1  0
  8 10  1  0
  7 11  1  0
  8  2  1  0
M  END
>  <ref_url>  (1) 
https://dlsltd-my.sharepoint.com/:p:/g/personal/daren_fearon_diamond_ac_uk/EZlBifBQ0D1IrwnPWGDsxugBQzvXE3CuPFiSUTXPx8IeMA?e=OOSDLc

>  <submitter_name>  (1) 
Daren Fearon

>  <submitter_email>  (1) 
daren.fearon@diamond.ac.uk

>  <submitter_institution>  (1) 
Diamond Light Source

>  <generation_date>  (1) 
2021-02-01

>  <method>  (1) 
SeeSAR

>  <default_ref_mols>  (1) 
x0212_0,x0276_0,x0280_0

>  <ESTIMATED_AFFINITY_LOWER [nM]>  (1) 
Lower limit of estimated affinity (nM) from BiosolveIT HYDE

>  <ESTIMATED_AFFINITY_UPPER [nM]>  (1) 
Upper limit of estimated affinity (nM) from BiosolveIT HYDE

>  <TPSA>  (1) 
Total Polar Surface Area (calculated with BiosolveIT Optibrium)

>  <logP>  (1) 
logP (calculated with BiosolveIT Optibrium)

$$$$
DLS-NSP13-DF001
     RDKit          3D

 18 20  0  0  0  0  0  0  0  0999 V2000
   -8.7596    2.8890  -77.2853 C   0  0  0  0  0  0  0  0  0  0  0  0
   -7.3698    2.4777  -77.7432 C   0  0  0  0  0  0  0  0  0  0  0  0
   -6.2410    2.7976  -77.1483 N   0  0  0  0  0  0  0  0  0  0  0  0
   -5.1979    2.2246  -77.8868 N   0  0  0  0  0  0  0  0  0  0  0  0
   -5.7359    1.5878  -78.8900 C   0  0  0  0  0  0  0  0  0  0  0  0
   -7.0662    1.7230  -78.8355 N   0  0  0  0  0  0  0  0  0  0  0  0
   -8.0311    1.1558  -79.7883 C   0  0  0  0  0  0  0  0  0  0  0  0
   -8.6032   -0.0878  -79.5417 C   0  0  0  0  0  0  0  0  0  0  0  0
   -9.5175   -0.6238  -80.4428 C   0  0  0  0  0  0  0  0  0  0  0  0
   -9.8583    0.0830  -81.5912 C   0  0  0  0  0  0  0  0  0  0  0  0
   -9.2859    1.3265  -81.8379 C   0  0  0  0  0  0  0  0  0  0  0  0
   -8.3723    1.8628  -80.9367 C   0  0  0  0  0  0  0  0  0  0  0  0
   -7.8249    3.0517  -81.1730 F   0  0  0  0  0  0  0  0  0  0  0  0
   -9.3980    3.9696  -77.8848 C   0  0  0  0  0  0  0  0  0  0  0  0
  -10.6705    4.3450  -77.4664 C   0  0  0  0  0  0  0  0  0  0  0  0
  -11.3037    3.6410  -76.4477 C   0  0  0  0  0  0  0  0  0  0  0  0
  -10.6651    2.5606  -75.8479 C   0  0  0  0  0  0  0  0  0  0  0  0
   -9.3930    2.1848  -76.2665 C   0  0  0  0  0  0  0  0  0  0  0  0
  1  2  1  0
  2  3  2  0
  2  6  1  0
  3  4  1  0
  4  5  2  0
  5  6  1  0
  6  7  1  0
  7  8  2  0
  8  9  1  0
  9 10  2  0
 10 11  1  0
 11 12  2  0
 12  7  1  0
 12 13  1  0
  1 14  2  0
 14 15  1  0
 15 16  2  0
 16 17  1  0
 17 18  2  0
 18  1  1  0
M  END
>  <ESTIMATED_AFFINITY_LOWER [nM]>  (1) 
922885.003392

>  <ESTIMATED_AFFINITY_UPPER [nM]>  (1) 
91694081.614958

>  <TPSA>  (1) 
30.71

>  <logP>  (1) 
2.35881

>  <ID>  (1) 
DLS-NSP13-DF001

>  <original SMILES>  (1) 
Fc1ccccc1-n1cnnc1-c1ccccc1

>  <ref_mols>  (1) 
x0212_0,x0276_0,x0280_0

>  <ref_pdb>  (1) 
DLS-NSP13-DF/DLS-NSP13-DF001.pdb

$$$$
DLS-NSP13-DF002
     RDKit          3D

 19 21  0  0  0  0  0  0  0  0999 V2000
   -8.7659    2.8925  -77.2861 C   0  0  0  0  0  0  0  0  0  0  0  0
   -7.3767    2.4771  -77.7420 C   0  0  0  0  0  0  0  0  0  0  0  0
   -6.2472    2.8021  -77.1512 N   0  0  0  0  0  0  0  0  0  0  0  0
   -5.2050    2.2226  -77.8859 N   0  0  0  0  0  0  0  0  0  0  0  0
   -5.7442    1.5771  -78.8828 C   0  0  0  0  0  0  0  0  0  0  0  0
   -7.0744    1.7128  -78.8280 N   0  0  0  0  0  0  0  0  0  0  0  0
   -8.0404    1.1374  -79.7746 C   0  0  0  0  0  0  0  0  0  0  0  0
   -8.5971   -0.1129  -79.5266 C   0  0  0  0  0  0  0  0  0  0  0  0
   -9.5125   -0.6567  -80.4219 C   0  0  0  0  0  0  0  0  0  0  0  0
   -9.8698    0.0489  -81.5659 C   0  0  0  0  0  0  0  0  0  0  0  0
   -9.3128    1.2991  -81.8141 C   0  0  0  0  0  0  0  0  0  0  0  0
   -8.3981    1.8433  -80.9187 C   0  0  0  0  0  0  0  0  0  0  0  0
  -10.7439   -0.4715  -82.4226 F   0  0  0  0  0  0  0  0  0  0  0  0
   -7.8655    3.0386  -81.1564 F   0  0  0  0  0  0  0  0  0  0  0  0
   -9.4004    3.9748  -77.8867 C   0  0  0  0  0  0  0  0  0  0  0  0
  -10.6724    4.3540  -77.4702 C   0  0  0  0  0  0  0  0  0  0  0  0
  -11.3090    3.6520  -76.4522 C   0  0  0  0  0  0  0  0  0  0  0  0
  -10.6744    2.5699  -75.8512 C   0  0  0  0  0  0  0  0  0  0  0  0
   -9.4028    2.1904  -76.2680 C   0  0  0  0  0  0  0  0  0  0  0  0
  1  2  1  0
  2  3  2  0
  2  6  1  0
  3  4  1  0
  4  5  2  0
  5  6  1  0
  6  7  1  0
  7  8  2  0
  8  9  1  0
  9 10  2  0
 10 11  1  0
 11 12  2  0
 12  7  1  0
 10 13  1  0
 12 14  1  0
  1 15  2  0
 15 16  1  0
 16 17  2  0
 17 18  1  0
 18 19  2  0
 19  1  1  0
M  END
>  <ESTIMATED_AFFINITY_LOWER [nM]>  (2) 
770267.156584

>  <ESTIMATED_AFFINITY_UPPER [nM]>  (2) 
76530596.186470

>  <TPSA>  (2) 
30.71

>  <logP>  (2) 
2.6741

>  <ID>  (2) 
DLS-NSP13-DF002

>  <original SMILES>  (2) 
Fc1ccc(-n2cnnc2-c2ccccc2)c(F)c1

>  <ref_mols>  (2) 
x0212_0,x0276_0,x0280_0

>  <ref_pdb>  (2) 
DLS-NSP13-DF/DLS-NSP13-DF002.pdb

$$$$
DLS-NSP13-DF003
     RDKit          3D

 19 21  0  0  0  0  0  0  0  0999 V2000
   -8.7364    2.9206  -77.1544 C   0  0  0  0  0  0  0  0  0  0  0  0
   -7.3234    2.5175  -77.5434 C   0  0  0  0  0  0  0  0  0  0  0  0
   -6.2206    2.7691  -76.8680 N   0  0  0  0  0  0  0  0  0  0  0  0
   -5.2081    2.2445  -77.5380 N   0  0  0  0  0  0  0  0  0  0  0  0
   -5.6478    1.6957  -78.6007 N   0  0  0  0  0  0  0  0  0  0  0  0
   -6.9548    1.8238  -78.6586 N   0  0  0  0  0  0  0  0  0  0  0  0
   -7.8081    1.3499  -79.6651 C   0  0  0  0  0  0  0  0  0  0  0  0
   -8.4812    0.1445  -79.4959 C   0  0  0  0  0  0  0  0  0  0  0  0
   -9.3289   -0.3249  -80.4940 C   0  0  0  0  0  0  0  0  0  0  0  0
   -9.5022    0.4104  -81.6618 C   0  0  0  0  0  0  0  0  0  0  0  0
   -8.8289    1.6157  -81.8311 C   0  0  0  0  0  0  0  0  0  0  0  0
   -7.9817    2.0854  -80.8331 C   0  0  0  0  0  0  0  0  0  0  0  0
  -10.3117   -0.0390  -82.6166 F   0  0  0  0  0  0  0  0  0  0  0  0
   -7.3379    3.2377  -80.9952 F   0  0  0  0  0  0  0  0  0  0  0  0
   -9.3617    3.9791  -77.8051 C   0  0  0  0  0  0  0  0  0  0  0  0
  -10.6554    4.3471  -77.4496 C   0  0  0  0  0  0  0  0  0  0  0  0
  -11.3228    3.6579  -76.4427 C   0  0  0  0  0  0  0  0  0  0  0  0
  -10.6972    2.5997  -75.7917 C   0  0  0  0  0  0  0  0  0  0  0  0
   -9.4040    2.2313  -76.1474 C   0  0  0  0  0  0  0  0  0  0  0  0
  1  2  1  0
  2  3  2  0
  2  6  1  0
  3  4  1  0
  4  5  2  0
  5  6  1  0
  6  7  1  0
  7  8  2  0
  8  9  1  0
  9 10  2  0
 10 11  1  0
 11 12  2  0
 12  7  1  0
 10 13  1  0
 12 14  1  0
  1 15  2  0
 15 16  1  0
 16 17  2  0
 17 18  1  0
 18 19  2  0
 19  1  1  0
M  END
>  <ESTIMATED_AFFINITY_LOWER [nM]>  (3) 
1941653.555784

>  <ESTIMATED_AFFINITY_UPPER [nM]>  (3) 
192914760.731454

>  <TPSA>  (3) 
43.6

>  <logP>  (3) 
2.12992

>  <ID>  (3) 
DLS-NSP13-DF003

>  <original SMILES>  (3) 
Fc1ccc(-n2nnnc2-c2ccccc2)c(F)c1

>  <ref_mols>  (3) 
x0212_0,x0276_0,x0280_0

>  <ref_pdb>  (3) 
DLS-NSP13-DF/DLS-NSP13-DF003.pdb

$$$$
DLS-NSP13-DF004
     RDKit          3D

 18 20  0  0  0  0  0  0  0  0999 V2000
   -8.7086    2.9170  -77.1773 C   0  0  0  0  0  0  0  0  0  0  0  0
   -7.2959    2.5225  -77.5762 C   0  0  0  0  0  0  0  0  0  0  0  0
   -6.1903    2.7782  -76.9065 N   0  0  0  0  0  0  0  0  0  0  0  0
   -5.1792    2.2610  -77.5842 N   0  0  0  0  0  0  0  0  0  0  0  0
   -5.6222    1.7129  -78.6458 N   0  0  0  0  0  0  0  0  0  0  0  0
   -6.9303    1.8341  -78.6955 N   0  0  0  0  0  0  0  0  0  0  0  0
   -7.8287    1.3354  -79.7468 C   0  0  0  0  0  0  0  0  0  0  0  0
   -8.5153    0.1395  -79.5654 C   0  0  0  0  0  0  0  0  0  0  0  0
   -9.3665   -0.3315  -80.5597 C   0  0  0  0  0  0  0  0  0  0  0  0
   -9.5300    0.3925  -81.7357 C   0  0  0  0  0  0  0  0  0  0  0  0
   -8.8428    1.5884  -81.9175 C   0  0  0  0  0  0  0  0  0  0  0  0
   -7.9922    2.0597  -80.9231 C   0  0  0  0  0  0  0  0  0  0  0  0
   -7.3353    3.2030  -81.0970 F   0  0  0  0  0  0  0  0  0  0  0  0
   -9.3432    3.9745  -77.8203 C   0  0  0  0  0  0  0  0  0  0  0  0
  -10.6366    4.3343  -77.4560 C   0  0  0  0  0  0  0  0  0  0  0  0
  -11.2946    3.6380  -76.4478 C   0  0  0  0  0  0  0  0  0  0  0  0
  -10.6598    2.5806  -75.8045 C   0  0  0  0  0  0  0  0  0  0  0  0
   -9.3666    2.2203  -76.1689 C   0  0  0  0  0  0  0  0  0  0  0  0
  1  2  1  0
  2  3  2  0
  2  6  1  0
  3  4  1  0
  4  5  2  0
  5  6  1  0
  6  7  1  0
  7  8  2  0
  8  9  1  0
  9 10  2  0
 10 11  1  0
 11 12  2  0
 12  7  1  0
 12 13  1  0
  1 14  2  0
 14 15  1  0
 15 16  2  0
 16 17  1  0
 17 18  2  0
 18  1  1  0
M  END
>  <ESTIMATED_AFFINITY_LOWER [nM]>  (4) 
1948280.474367

>  <ESTIMATED_AFFINITY_UPPER [nM]>  (4) 
193573184.274208

>  <TPSA>  (4) 
43.6

>  <logP>  (4) 
1.82821

>  <ID>  (4) 
DLS-NSP13-DF004

>  <original SMILES>  (4) 
Fc1ccccc1-n1nnnc1-c1ccccc1

>  <ref_mols>  (4) 
x0212_0,x0276_0,x0280_0

>  <ref_pdb>  (4) 
DLS-NSP13-DF/DLS-NSP13-DF004.pdb

$$$$
DLS-NSP13-DF005
     RDKit          3D

 22 25  0  0  0  0  0  0  0  0999 V2000
   -8.7284    2.8030  -77.2213 C   0  0  0  0  0  0  0  0  0  0  0  0
   -7.3419    2.4705  -77.7479 C   0  0  0  0  0  0  0  0  0  0  0  0
   -6.2070    2.9101  -77.2489 N   0  0  0  0  0  0  0  0  0  0  0  0
   -5.1700    2.3737  -78.0229 N   0  0  0  0  0  0  0  0  0  0  0  0
   -5.7178    1.6385  -78.9507 C   0  0  0  0  0  0  0  0  0  0  0  0
   -7.0486    1.6761  -78.8145 N   0  0  0  0  0  0  0  0  0  0  0  0
   -8.0234    0.9810  -79.6673 C   0  0  0  0  0  0  0  0  0  0  0  0
   -8.4171   -0.3168  -79.3585 C   0  0  0  0  0  0  0  0  0  0  0  0
   -9.3408   -0.9739  -80.1649 C   0  0  0  0  0  0  0  0  0  0  0  0
   -9.8695   -0.3339  -81.2808 C   0  0  0  0  0  0  0  0  0  0  0  0
   -9.4755    0.9639  -81.5897 C   0  0  0  0  0  0  0  0  0  0  0  0
   -8.5524    1.6213  -80.7832 C   0  0  0  0  0  0  0  0  0  0  0  0
   -8.1758    2.8620  -81.0791 F   0  0  0  0  0  0  0  0  0  0  0  0
   -9.3831    3.9490  -77.6604 C   0  0  0  0  0  0  0  0  0  0  0  0
  -10.6526    4.2522  -77.1791 C   0  0  0  0  0  0  0  0  0  0  0  0
  -11.2665    3.4106  -76.2577 C   0  0  0  0  0  0  0  0  0  0  0  0
  -10.6119    2.2647  -75.8183 C   0  0  0  0  0  0  0  0  0  0  0  0
   -9.3427    1.9611  -76.2998 C   0  0  0  0  0  0  0  0  0  0  0  0
  -12.5357    3.7149  -75.7757 C   0  0  0  0  0  0  0  0  0  0  0  0
  -13.1910    4.8598  -76.2166 C   0  0  0  0  0  0  0  0  0  0  0  0
  -12.5770    5.7012  -77.1382 C   0  0  0  0  0  0  0  0  0  0  0  0
  -11.3080    5.3975  -77.6196 C   0  0  0  0  0  0  0  0  0  0  0  0
  1  2  1  0
  2  3  2  0
  2  6  1  0
  3  4  1  0
  4  5  2  0
  5  6  1  0
  6  7  1  0
  7  8  2  0
  8  9  1  0
  9 10  2  0
 10 11  1  0
 11 12  2  0
 12  7  1  0
 12 13  1  0
  1 14  2  0
 14 15  1  0
 15 16  2  0
 16 17  1  0
 17 18  2  0
 18  1  1  0
 16 19  1  0
 19 20  2  0
 20 21  1  0
 21 22  2  0
 22 15  1  0
M  END
>  <ESTIMATED_AFFINITY_LOWER [nM]>  (5) 
165463.195641

>  <ESTIMATED_AFFINITY_UPPER [nM]>  (5) 
16439746.782806

>  <TPSA>  (5) 
30.71

>  <logP>  (5) 
3.87345

>  <ID>  (5) 
DLS-NSP13-DF005

>  <original SMILES>  (5) 
Fc1ccccc1-n1cnnc1-c1ccc2ccccc2c1

>  <ref_mols>  (5) 
x0212_0,x0276_0,x0280_0

>  <ref_pdb>  (5) 
DLS-NSP13-DF/DLS-NSP13-DF005.pdb

$$$$
DLS-NSP13-DF006
     RDKit          3D

 22 25  0  0  0  0  0  0  0  0999 V2000
   -8.7998    2.7474  -77.1379 C   0  0  0  0  0  0  0  0  0  0  0  0
   -7.4108    2.3748  -77.6302 C   0  0  0  0  0  0  0  0  0  0  0  0
   -6.2766    2.7410  -77.0735 N   0  0  0  0  0  0  0  0  0  0  0  0
   -5.2367    2.1912  -77.8337 N   0  0  0  0  0  0  0  0  0  0  0  0
   -5.7819    1.5211  -78.8111 C   0  0  0  0  0  0  0  0  0  0  0  0
   -7.1138    1.6134  -78.7196 N   0  0  0  0  0  0  0  0  0  0  0  0
   -8.0862    0.9998  -79.6353 C   0  0  0  0  0  0  0  0  0  0  0  0
   -8.5520   -0.2884  -79.3939 C   0  0  0  0  0  0  0  0  0  0  0  0
   -9.4735   -0.8686  -80.2598 C   0  0  0  0  0  0  0  0  0  0  0  0
   -9.9280   -0.1609  -81.3676 C   0  0  0  0  0  0  0  0  0  0  0  0
   -9.4620    1.1273  -81.6089 C   0  0  0  0  0  0  0  0  0  0  0  0
   -8.5412    1.7076  -80.7430 C   0  0  0  0  0  0  0  0  0  0  0  0
   -8.0956    2.9392  -80.9742 F   0  0  0  0  0  0  0  0  0  0  0  0
   -9.4137    3.9067  -77.6002 C   0  0  0  0  0  0  0  0  0  0  0  0
  -10.6855    4.2469  -77.1505 C   0  0  0  0  0  0  0  0  0  0  0  0
  -11.3423    3.4287  -76.2375 C   0  0  0  0  0  0  0  0  0  0  0  0
  -10.7282    2.2695  -75.7750 C   0  0  0  0  0  0  0  0  0  0  0  0
   -9.4568    1.9290  -76.2250 C   0  0  0  0  0  0  0  0  0  0  0  0
  -12.7096    3.7888  -75.7290 C   0  0  0  0  0  0  0  0  0  0  0  0
  -13.4259    4.8002  -76.6073 C   0  0  0  0  0  0  0  0  0  0  0  0
  -12.4858    5.9765  -76.8117 C   0  0  0  0  0  0  0  0  0  0  0  0
  -11.3346    5.4980  -77.6784 C   0  0  0  0  0  0  0  0  0  0  0  0
  1  2  1  0
  2  3  2  0
  2  6  1  0
  3  4  1  0
  4  5  2  0
  5  6  1  0
  6  7  1  0
  7  8  2  0
  8  9  1  0
  9 10  2  0
 10 11  1  0
 11 12  2  0
 12  7  1  0
 12 13  1  0
  1 14  2  0
 14 15  1  0
 15 16  2  0
 16 17  1  0
 17 18  2  0
 18  1  1  0
 16 19  1  0
 19 20  1  0
 20 21  1  0
 21 22  1  0
 22 15  1  0
M  END
>  <ESTIMATED_AFFINITY_LOWER [nM]>  (6) 
219254.677613

>  <ESTIMATED_AFFINITY_UPPER [nM]>  (6) 
21784248.557140

>  <TPSA>  (6) 
30.71

>  <logP>  (6) 
3.90976

>  <ID>  (6) 
DLS-NSP13-DF006

>  <original SMILES>  (6) 
Fc1ccccc1-n1cnnc1-c1ccc2c(c1)CCCC2

>  <ref_mols>  (6) 
x0212_0,x0276_0,x0280_0

>  <ref_pdb>  (6) 
DLS-NSP13-DF/DLS-NSP13-DF006.pdb

$$$$
DLS-NSP13-DF007
     RDKit          3D

 28 31  0  0  0  0  0  0  0  0999 V2000
   -9.2114    3.2983  -77.2257 C   0  0  0  0  0  0  0  0  0  0  0  0
   -7.7796    3.0552  -77.6743 C   0  0  0  0  0  0  0  0  0  0  0  0
   -6.7099    3.6290  -77.1677 N   0  0  0  0  0  0  0  0  0  0  0  0
   -5.5976    3.1346  -77.8607 N   0  0  0  0  0  0  0  0  0  0  0  0
   -6.0386    2.2893  -78.7509 C   0  0  0  0  0  0  0  0  0  0  0  0
   -7.3722    2.2169  -78.6674 N   0  0  0  0  0  0  0  0  0  0  0  0
   -8.2448    1.3786  -79.5020 C   0  0  0  0  0  0  0  0  0  0  0  0
   -8.5317    0.0735  -79.1161 C   0  0  0  0  0  0  0  0  0  0  0  0
   -9.3587   -0.7193  -79.9051 C   0  0  0  0  0  0  0  0  0  0  0  0
   -9.8978   -0.2073  -81.0807 C   0  0  0  0  0  0  0  0  0  0  0  0
   -9.6108    1.0980  -81.4666 C   0  0  0  0  0  0  0  0  0  0  0  0
   -8.7843    1.8908  -80.6774 C   0  0  0  0  0  0  0  0  0  0  0  0
   -8.5099    3.1387  -81.0467 F   0  0  0  0  0  0  0  0  0  0  0  0
   -9.9581    4.3187  -77.8051 C   0  0  0  0  0  0  0  0  0  0  0  0
  -11.2690    4.5401  -77.3952 C   0  0  0  0  0  0  0  0  0  0  0  0
  -11.8322    3.7422  -76.4051 C   0  0  0  0  0  0  0  0  0  0  0  0
  -11.0853    2.7219  -75.8254 C   0  0  0  0  0  0  0  0  0  0  0  0
   -9.7748    2.5000  -76.2356 C   0  0  0  0  0  0  0  0  0  0  0  0
  -13.2411    3.9772  -75.9389 C   0  0  0  0  0  0  0  0  0  0  0  0
  -14.0648    4.7969  -76.9173 C   0  0  0  0  0  0  0  0  0  0  0  0
  -13.2757    6.0553  -77.2384 C   0  0  0  0  0  0  0  0  0  0  0  0
  -12.0611    5.6401  -78.0493 C   0  0  0  0  0  0  0  0  0  0  0  0
  -12.8332    6.7323  -75.9515 C   0  0  0  0  0  0  0  0  0  0  0  0
  -13.7999    7.7792  -75.5911 N   0  0  0  0  0  0  0  0  0  0  0  0
  -14.6158    7.3285  -74.2537 S   0  0  0  0  0  0  0  0  0  0  0  0
  -16.0052    6.2679  -74.7233 C   0  0  0  0  0  0  0  0  0  0  0  0
  -15.1124    8.4988  -73.5774 O   0  0  0  0  0  0  0  0  0  0  0  0
  -13.7342    6.6040  -73.3751 O   0  0  0  0  0  0  0  0  0  0  0  0
  1  2  1  0
  2  3  2  0
  2  6  1  0
  3  4  1  0
  4  5  2  0
  5  6  1  0
  6  7  1  0
  7  8  2  0
  8  9  1  0
  9 10  2  0
 10 11  1  0
 11 12  2  0
 12  7  1  0
 12 13  1  0
  1 14  2  0
 14 15  1  0
 15 16  2  0
 16 17  1  0
 17 18  2  0
 18  1  1  0
 16 19  1  0
 19 20  1  0
 20 21  1  0
 21 22  1  0
 22 15  1  0
 21 23  1  0
 23 24  1  0
 24 25  1  0
 25 26  1  0
 25 27  2  0
 25 28  2  0
M  END
>  <ESTIMATED_AFFINITY_LOWER [nM]>  (7) 
345177.130709

>  <ESTIMATED_AFFINITY_UPPER [nM]>  (7) 
34295388.784676

>  <TPSA>  (7) 
76.88

>  <logP>  (7) 
3.07265

>  <ID>  (7) 
DLS-NSP13-DF007

>  <original SMILES>  (7) 
CS(=O)(=O)NCC1CCc2ccc(-c3nncn3-c3ccccc3F)cc2C1

>  <ref_mols>  (7) 
x0212_0,x0276_0,x0280_0

>  <ref_pdb>  (7) 
DLS-NSP13-DF/DLS-NSP13-DF007.pdb

$$$$
DLS-NSP13-DF009
     RDKit          3D

 25 27  0  0  0  0  0  0  0  0999 V2000
  -11.3134    3.8797  -76.5939 C   0  0  0  0  0  0  0  0  0  0  0  0
  -10.6611    4.5151  -77.6456 C   0  0  0  0  0  0  0  0  0  0  0  0
   -9.3918    4.1127  -78.0479 C   0  0  0  0  0  0  0  0  0  0  0  0
   -8.7374    3.0635  -77.4116 C   0  0  0  0  0  0  0  0  0  0  0  0
   -9.3895    2.4280  -76.3604 C   0  0  0  0  0  0  0  0  0  0  0  0
  -10.6589    2.8300  -75.9572 C   0  0  0  0  0  0  0  0  0  0  0  0
   -7.4157    2.6618  -77.8475 C   0  0  0  0  0  0  0  0  0  0  0  0
   -6.2790    3.0855  -77.3619 N   0  0  0  0  0  0  0  0  0  0  0  0
   -5.2801    2.5083  -77.9914 N   0  0  0  0  0  0  0  0  0  0  0  0
   -5.7773    1.6956  -78.8981 C   0  0  0  0  0  0  0  0  0  0  0  0
   -7.1386    1.7656  -78.8327 N   0  0  0  0  0  0  0  0  0  0  0  0
   -8.1019    1.0252  -79.6602 C   0  0  0  0  0  0  0  0  0  0  0  0
   -8.4656   -0.2716  -79.3120 C   0  0  0  0  0  0  0  0  0  0  0  0
   -9.3785   -0.9716  -80.0944 C   0  0  0  0  0  0  0  0  0  0  0  0
   -9.9260   -0.3757  -81.2256 C   0  0  0  0  0  0  0  0  0  0  0  0
   -9.5621    0.9209  -81.5737 C   0  0  0  0  0  0  0  0  0  0  0  0
   -8.6500    1.6211  -80.7915 C   0  0  0  0  0  0  0  0  0  0  0  0
   -8.3019    2.8608  -81.1245 F   0  0  0  0  0  0  0  0  0  0  0  0
  -12.7025    4.3378  -76.1716 C   0  0  0  0  0  0  0  0  0  0  0  0
  -13.0598    5.6178  -76.9093 C   0  0  0  0  0  0  0  0  0  0  0  0
  -13.7080    6.5956  -75.9425 C   0  0  0  0  0  0  0  0  0  0  0  0
  -15.3448    7.0594  -76.5605 S   0  0  0  0  0  0  0  0  0  0  0  0
  -16.0865    5.8710  -76.8934 O   0  0  0  0  0  0  0  0  0  0  0  0
  -15.1998    7.8797  -77.7351 O   0  0  0  0  0  0  0  0  0  0  0  0
  -16.2315    7.9860  -75.2832 C   0  0  0  0  0  0  0  0  0  0  0  0
  1  6  2  0
  6  5  1  0
  5  4  2  0
  4  3  1  0
  3  2  2  0
  2  1  1  0
  7 11  1  0
 12 17  2  0
 18 17  1  0
 17 16  1  0
 16 15  2  0
 15 14  1  0
 14 13  2  0
 13 12  1  0
 12 11  1  0
 11 10  1  0
 10  9  2  0
  9  8  1  0
  8  7  2  0
  4  7  1  0
 21 20  1  0
 20 19  1  0
  1 19  1  0
 23 22  2  0
 24 22  2  0
 25 22  1  0
 22 21  1  0
M  END
>  <ESTIMATED_AFFINITY_LOWER [nM]>  (8) 
32126.439360

>  <ESTIMATED_AFFINITY_UPPER [nM]>  (8) 
3191951.696945

>  <TPSA>  (8) 
64.85

>  <logP>  (8) 
2.6636

>  <ID>  (8) 
DLS-NSP13-DF009

>  <original SMILES>  (8) 
CS(=O)(=O)CCCc1ccc(-c2nncn2-c2ccccc2F)cc1

>  <ref_mols>  (8) 
x0212_0,x0276_0,x0280_0

>  <ref_pdb>  (8) 
DLS-NSP13-DF/DLS-NSP13-DF009.pdb

$$$$
DLS-NSP13-DF051
     RDKit          3D

 25 27  0  0  0  0  0  0  0  0999 V2000
  -11.2949    3.9486  -76.6628 C   0  0  0  0  0  0  0  0  0  0  0  0
  -10.5851    4.5392  -77.7032 C   0  0  0  0  0  0  0  0  0  0  0  0
   -9.3213    4.0792  -78.0588 C   0  0  0  0  0  0  0  0  0  0  0  0
   -8.7303    3.0156  -77.3858 C   0  0  0  0  0  0  0  0  0  0  0  0
   -9.4400    2.4247  -76.3458 C   0  0  0  0  0  0  0  0  0  0  0  0
  -10.7038    2.8842  -75.9893 C   0  0  0  0  0  0  0  0  0  0  0  0
   -7.4133    2.5535  -77.7733 C   0  0  0  0  0  0  0  0  0  0  0  0
   -6.2848    2.8531  -77.1864 N   0  0  0  0  0  0  0  0  0  0  0  0
   -5.2882    2.2556  -77.8006 N   0  0  0  0  0  0  0  0  0  0  0  0
   -5.7788    1.5558  -78.8002 C   0  0  0  0  0  0  0  0  0  0  0  0
   -7.1335    1.7199  -78.8114 N   0  0  0  0  0  0  0  0  0  0  0  0
   -8.0884    1.1199  -79.7541 C   0  0  0  0  0  0  0  0  0  0  0  0
   -8.6145   -0.1429  -79.5017 C   0  0  0  0  0  0  0  0  0  0  0  0
   -9.5195   -0.7100  -80.3935 C   0  0  0  0  0  0  0  0  0  0  0  0
   -9.8965   -0.0154  -81.5379 C   0  0  0  0  0  0  0  0  0  0  0  0
   -9.3702    1.2470  -81.7902 C   0  0  0  0  0  0  0  0  0  0  0  0
   -8.4660    1.8145  -80.8989 C   0  0  0  0  0  0  0  0  0  0  0  0
   -7.9625    3.0215  -81.1402 F   0  0  0  0  0  0  0  0  0  0  0  0
  -12.5837    4.4342  -76.3169 O   0  0  0  0  0  0  0  0  0  0  0  0
  -13.1094    5.5802  -76.9700 C   0  0  0  0  0  0  0  0  0  0  0  0
  -13.7476    6.5010  -75.9424 C   0  0  0  0  0  0  0  0  0  0  0  0
  -15.3668    7.0438  -76.5422 S   0  0  0  0  0  0  0  0  0  0  0  0
  -16.1515    5.8946  -76.9121 O   0  0  0  0  0  0  0  0  0  0  0  0
  -15.1926    7.8958  -77.6900 O   0  0  0  0  0  0  0  0  0  0  0  0
  -16.2184    7.9603  -75.2342 C   0  0  0  0  0  0  0  0  0  0  0  0
  1  6  2  0
  6  5  1  0
  5  4  2  0
  4  3  1  0
  3  2  2  0
  2  1  1  0
  7 11  1  0
 12 17  2  0
 18 17  1  0
 17 16  1  0
 16 15  2  0
 15 14  1  0
 14 13  2  0
 13 12  1  0
 12 11  1  0
 11 10  1  0
 10  9  2  0
  9  8  1  0
  8  7  2  0
  4  7  1  0
 21 20  1  0
 20 19  1  0
  1 19  1  0
 23 22  2  0
 24 22  2  0
 25 22  1  0
 22 21  1  0
M  END
>  <ESTIMATED_AFFINITY_LOWER [nM]>  (9) 
33678.817790

>  <ESTIMATED_AFFINITY_UPPER [nM]>  (9) 
3346189.672336

>  <TPSA>  (9) 
74.08

>  <logP>  (9) 
2.20182

>  <ID>  (9) 
DLS-NSP13-DF051

>  <original SMILES>  (9) 
CS(=O)(=O)CCOc1ccc(-c2nncn2-c2ccccc2F)cc1

>  <ref_mols>  (9) 
x0212_0,x0276_0,x0280_0

>  <ref_pdb>  (9) 
DLS-NSP13-DF/DLS-NSP13-DF051.pdb

$$$$
DLS-NSP13-DF018
     RDKit          3D

 25 27  0  0  0  0  0  0  0  0999 V2000
  -11.2788    3.9709  -76.6882 C   0  0  0  0  0  0  0  0  0  0  0  0
  -10.5696    4.5495  -77.7357 C   0  0  0  0  0  0  0  0  0  0  0  0
   -9.3067    4.0843  -78.0879 C   0  0  0  0  0  0  0  0  0  0  0  0
   -8.7161    3.0273  -77.4043 C   0  0  0  0  0  0  0  0  0  0  0  0
   -9.4252    2.4483  -76.3572 C   0  0  0  0  0  0  0  0  0  0  0  0
  -10.6881    2.9130  -76.0041 C   0  0  0  0  0  0  0  0  0  0  0  0
   -7.4002    2.5595  -77.7885 C   0  0  0  0  0  0  0  0  0  0  0  0
   -6.2719    2.8541  -77.1987 N   0  0  0  0  0  0  0  0  0  0  0  0
   -5.2763    2.2524  -77.8104 N   0  0  0  0  0  0  0  0  0  0  0  0
   -5.7674    1.5548  -78.8113 C   0  0  0  0  0  0  0  0  0  0  0  0
   -7.1213    1.7249  -78.8259 N   0  0  0  0  0  0  0  0  0  0  0  0
   -8.0764    1.1290  -79.7712 C   0  0  0  0  0  0  0  0  0  0  0  0
   -8.6130   -0.1291  -79.5175 C   0  0  0  0  0  0  0  0  0  0  0  0
   -9.5181   -0.6922  -80.4116 C   0  0  0  0  0  0  0  0  0  0  0  0
   -9.8848    0.0018  -81.5598 C   0  0  0  0  0  0  0  0  0  0  0  0
   -9.3480    1.2596  -81.8135 C   0  0  0  0  0  0  0  0  0  0  0  0
   -8.4437    1.8230  -80.9197 C   0  0  0  0  0  0  0  0  0  0  0  0
   -7.9301    3.0256  -81.1623 F   0  0  0  0  0  0  0  0  0  0  0  0
  -12.5666    4.4617  -76.3459 O   0  0  0  0  0  0  0  0  0  0  0  0
  -13.1024    5.5858  -77.0282 C   0  0  0  0  0  0  0  0  0  0  0  0
  -13.6983    6.5544  -76.0193 C   0  0  0  0  0  0  0  0  0  0  0  0
  -15.3359    7.0803  -76.5828 S   0  0  0  0  0  0  0  0  0  0  0  0
  -16.1342    5.9211  -76.8866 O   0  0  0  0  0  0  0  0  0  0  0  0
  -15.1992    7.8921  -77.7643 O   0  0  0  0  0  0  0  0  0  0  0  0
  -16.0619    7.9475  -75.4089 N   0  0  0  0  0  0  0  0  0  0  0  0
  1  6  2  0
  6  5  1  0
  5  4  2  0
  4  3  1  0
  3  2  2  0
  2  1  1  0
  7 11  1  0
 12 17  2  0
 18 17  1  0
 17 16  1  0
 16 15  2  0
 15 14  1  0
 14 13  2  0
 13 12  1  0
 12 11  1  0
 11 10  1  0
 10  9  2  0
  9  8  1  0
  8  7  2  0
  4  7  1  0
 21 20  1  0
 20 19  1  0
  1 19  1  0
 23 22  2  0
 24 22  2  0
 25 22  1  0
 22 21  1  0
M  END
>  <ESTIMATED_AFFINITY_LOWER [nM]>  (10) 
57076.449748

>  <ESTIMATED_AFFINITY_UPPER [nM]>  (10) 
5670882.745127

>  <TPSA>  (10) 
100.1

>  <logP>  (10) 
1.9409

>  <ID>  (10) 
DLS-NSP13-DF018

>  <original SMILES>  (10) 
NS(=O)(=O)CCOc1ccc(-c2nncn2-c2ccccc2F)cc1

>  <ref_mols>  (10) 
x0212_0,x0276_0,x0280_0

>  <ref_pdb>  (10) 
DLS-NSP13-DF/DLS-NSP13-DF018.pdb

$$$$
DLS-NSP13-DF052
     RDKit          3D

 28 31  0  0  0  0  0  0  0  0999 V2000
  -10.9333    4.4342  -76.9922 C   0  0  0  0  0  0  0  0  0  0  0  0
  -10.0152    4.7391  -77.9956 C   0  0  0  0  0  0  0  0  0  0  0  0
   -8.8790    3.9697  -78.2155 C   0  0  0  0  0  0  0  0  0  0  0  0
   -8.6678    2.8550  -77.4134 C   0  0  0  0  0  0  0  0  0  0  0  0
   -9.5778    2.5587  -76.4021 C   0  0  0  0  0  0  0  0  0  0  0  0
  -10.7092    3.3381  -76.1720 C   0  0  0  0  0  0  0  0  0  0  0  0
  -11.6042    3.0789  -75.1915 O   0  0  0  0  0  0  0  0  0  0  0  0
   -7.4447    1.9975  -77.6941 C   0  0  0  0  0  0  0  0  0  0  0  0
   -6.3747    1.9087  -76.9492 N   0  0  0  0  0  0  0  0  0  0  0  0
   -5.5190    1.0721  -77.4923 N   0  0  0  0  0  0  0  0  0  0  0  0
   -6.0436    0.6095  -78.6060 C   0  0  0  0  0  0  0  0  0  0  0  0
   -7.2746    1.1762  -78.7653 N   0  0  0  0  0  0  0  0  0  0  0  0
   -8.2171    0.9460  -79.8695 C   0  0  0  0  0  0  0  0  0  0  0  0
   -9.0428   -0.1735  -79.8569 C   0  0  0  0  0  0  0  0  0  0  0  0
   -9.9359   -0.3905  -80.9014 C   0  0  0  0  0  0  0  0  0  0  0  0
  -10.0019    0.5105  -81.9588 C   0  0  0  0  0  0  0  0  0  0  0  0
   -9.1760    1.6295  -81.9713 C   0  0  0  0  0  0  0  0  0  0  0  0
   -8.2836    1.8472  -80.9273 C   0  0  0  0  0  0  0  0  0  0  0  0
   -7.4937    2.9171  -80.9393 F   0  0  0  0  0  0  0  0  0  0  0  0
  -12.1929    5.2457  -76.7499 C   0  0  0  0  0  0  0  0  0  0  0  0
  -12.6210    6.0603  -77.9605 C   0  0  0  0  0  0  0  0  0  0  0  0
  -14.1263    6.2701  -77.9237 C   0  0  0  0  0  0  0  0  0  0  0  0
  -14.5148    7.6609  -76.8326 S   0  0  0  0  0  0  0  0  0  0  0  0
  -15.8524    8.1220  -77.1004 O   0  0  0  0  0  0  0  0  0  0  0  0
  -13.5817    8.7318  -77.0690 O   0  0  0  0  0  0  0  0  0  0  0  0
  -14.3951    7.1261  -75.1075 C   0  0  0  0  0  0  0  0  0  0  0  0
  -13.0019    3.2693  -75.3847 C   0  0  0  0  0  0  0  0  0  0  0  0
  -13.3074    4.2372  -76.5203 C   0  0  0  0  0  0  0  0  0  0  0  0
  1  6  2  0
  7  6  1  0
  6  5  1  0
  5  4  2  0
  4  3  1  0
  3  2  2  0
  2  1  1  0
  8 12  1  0
 13 18  2  0
 19 18  1  0
 18 17  1  0
 17 16  2  0
 16 15  1  0
 15 14  2  0
 14 13  1  0
 13 12  1  0
 12 11  1  0
 11 10  2  0
 10  9  1  0
  9  8  2  0
  4  8  1  0
 22 21  1  0
 21 20  1  0
  1 20  1  0
 24 23  2  0
 25 23  2  0
 26 23  1  0
 23 22  1  0
  7 27  1  0
 20 28  1  0
 28 27  1  0
M  END
>  <ESTIMATED_AFFINITY_LOWER [nM]>  (11) 
197571.372512

>  <ESTIMATED_AFFINITY_UPPER [nM]>  (11) 
19629883.993438

>  <TPSA>  (11) 
74.08

>  <logP>  (11) 
2.99924

>  <ID>  (11) 
DLS-NSP13-DF052

>  <original SMILES>  (11) 
CS(=O)(=O)CCC1CCOc2cc(-c3nncn3-c3ccccc3F)ccc21

>  <ref_mols>  (11) 
x0212_0,x0276_0,x0280_0

>  <ref_pdb>  (11) 
DLS-NSP13-DF/DLS-NSP13-DF052.pdb

$$$$
DLS-NSP13-DF019
     RDKit          3D

 25 27  0  0  0  0  0  0  0  0999 V2000
  -11.3131    4.0074  -76.5756 C   0  0  0  0  0  0  0  0  0  0  0  0
  -10.6256    4.5587  -77.6519 C   0  0  0  0  0  0  0  0  0  0  0  0
   -9.3710    4.0828  -78.0192 C   0  0  0  0  0  0  0  0  0  0  0  0
   -8.7673    3.0419  -77.3223 C   0  0  0  0  0  0  0  0  0  0  0  0
   -9.4548    2.4902  -76.2464 C   0  0  0  0  0  0  0  0  0  0  0  0
  -10.7094    2.9657  -75.8783 C   0  0  0  0  0  0  0  0  0  0  0  0
   -7.4605    2.5625  -77.7225 C   0  0  0  0  0  0  0  0  0  0  0  0
   -6.3182    2.8808  -77.1732 N   0  0  0  0  0  0  0  0  0  0  0  0
   -5.3370    2.2585  -77.7875 N   0  0  0  0  0  0  0  0  0  0  0  0
   -5.8517    1.5234  -78.7490 C   0  0  0  0  0  0  0  0  0  0  0  0
   -7.2060    1.6904  -78.7351 N   0  0  0  0  0  0  0  0  0  0  0  0
   -8.1395    1.0865  -79.5925 C   0  0  0  0  0  0  0  0  0  0  0  0
   -8.8127   -0.0813  -79.2441 C   0  0  0  0  0  0  0  0  0  0  0  0
   -9.7032   -0.6509  -80.0707 N   0  0  0  0  0  0  0  0  0  0  0  0
   -9.9859   -0.1224  -81.2710 C   0  0  0  0  0  0  0  0  0  0  0  0
   -9.3504    1.0435  -81.6848 C   0  0  0  0  0  0  0  0  0  0  0  0
   -8.4258    1.6417  -80.8355 C   0  0  0  0  0  0  0  0  0  0  0  0
   -7.8160    2.7569  -81.2269 F   0  0  0  0  0  0  0  0  0  0  0  0
  -12.5928    4.5088  -76.2184 O   0  0  0  0  0  0  0  0  0  0  0  0
  -13.1413    5.6169  -76.9165 C   0  0  0  0  0  0  0  0  0  0  0  0
  -13.7975    6.5656  -75.9261 C   0  0  0  0  0  0  0  0  0  0  0  0
  -15.4100    7.0831  -76.5645 S   0  0  0  0  0  0  0  0  0  0  0  0
  -16.1882    5.9199  -76.9028 O   0  0  0  0  0  0  0  0  0  0  0  0
  -15.2232    7.8942  -77.7396 O   0  0  0  0  0  0  0  0  0  0  0  0
  -16.1929    7.9483  -75.4261 N   0  0  0  0  0  0  0  0  0  0  0  0
  1  6  2  0
  6  5  1  0
  5  4  2  0
  4  3  1  0
  3  2  2  0
  2  1  1  0
  7 11  1  0
 12 17  2  0
 18 17  1  0
 17 16  1  0
 16 15  2  0
 15 14  1  0
 14 13  2  0
 13 12  1  0
 12 11  1  0
 11 10  1  0
 10  9  2  0
  9  8  1  0
  8  7  2  0
  4  7  1  0
 21 20  1  0
 20 19  1  0
  1 19  1  0
 23 22  2  0
 24 22  2  0
 25 22  1  0
 22 21  1  0
M  END
>  <ESTIMATED_AFFINITY_LOWER [nM]>  (12) 
77957.792451

>  <ESTIMATED_AFFINITY_UPPER [nM]>  (12) 
7745567.602974

>  <TPSA>  (12) 
112.99

>  <logP>  (12) 
0.898312

>  <ID>  (12) 
DLS-NSP13-DF019

>  <original SMILES>  (12) 
NS(=O)(=O)CCOc1ccc(-c2nncn2-c2cnccc2F)cc1

>  <ref_mols>  (12) 
x0212_0,x0276_0,x0280_0

>  <ref_pdb>  (12) 
DLS-NSP13-DF/DLS-NSP13-DF019.pdb

$$$$
DLS-NSP13-DF053
     RDKit          3D

 25 27  0  0  0  0  0  0  0  0999 V2000
  -11.3216    3.7757  -76.4992 C   0  0  0  0  0  0  0  0  0  0  0  0
  -10.6809    4.4368  -77.5421 C   0  0  0  0  0  0  0  0  0  0  0  0
   -9.4128    4.0495  -77.9629 C   0  0  0  0  0  0  0  0  0  0  0  0
   -8.7483    2.9902  -77.3546 C   0  0  0  0  0  0  0  0  0  0  0  0
   -9.3889    2.3289  -76.3122 C   0  0  0  0  0  0  0  0  0  0  0  0
  -10.6570    2.7157  -75.8904 C   0  0  0  0  0  0  0  0  0  0  0  0
   -7.4086    2.5988  -77.8162 N   0  0  0  0  0  0  0  0  0  0  0  0
   -6.2625    3.0184  -77.3391 N   0  0  0  0  0  0  0  0  0  0  0  0
   -5.2819    2.5026  -77.9482 N   0  0  0  0  0  0  0  0  0  0  0  0
   -5.7495    1.6610  -78.9080 C   0  0  0  0  0  0  0  0  0  0  0  0
   -7.1043    1.7316  -78.8142 C   0  0  0  0  0  0  0  0  0  0  0  0
   -8.0533    1.0074  -79.6380 C   0  0  0  0  0  0  0  0  0  0  0  0
   -8.4287   -0.2867  -79.2923 C   0  0  0  0  0  0  0  0  0  0  0  0
   -9.3401   -0.9807  -80.0819 C   0  0  0  0  0  0  0  0  0  0  0  0
   -9.8743   -0.3814  -81.2176 C   0  0  0  0  0  0  0  0  0  0  0  0
   -9.4987    0.9125  -81.5632 C   0  0  0  0  0  0  0  0  0  0  0  0
   -8.5881    1.6067  -80.7739 C   0  0  0  0  0  0  0  0  0  0  0  0
   -8.2287    2.8438  -81.1044 F   0  0  0  0  0  0  0  0  0  0  0  0
  -12.7095    4.2175  -76.0563 C   0  0  0  0  0  0  0  0  0  0  0  0
  -12.8325    5.7252  -76.2040 C   0  0  0  0  0  0  0  0  0  0  0  0
  -14.2912    6.1306  -76.0671 C   0  0  0  0  0  0  0  0  0  0  0  0
  -14.6823    7.4006  -77.2960 S   0  0  0  0  0  0  0  0  0  0  0  0
  -13.7151    8.4639  -77.2118 O   0  0  0  0  0  0  0  0  0  0  0  0
  -15.9979    7.9270  -77.0403 O   0  0  0  0  0  0  0  0  0  0  0  0
  -14.6352    6.6721  -78.9522 C   0  0  0  0  0  0  0  0  0  0  0  0
  1  6  2  0
  6  5  1  0
  5  4  2  0
  4  3  1  0
  3  2  2  0
  2  1  1  0
  7 11  1  0
 12 17  2  0
 18 17  1  0
 17 16  1  0
 16 15  2  0
 15 14  1  0
 14 13  2  0
 13 12  1  0
 12 11  1  0
 11 10  2  0
 10  9  1  0
  9  8  2  0
  8  7  1  0
  4  7  1  0
 21 20  1  0
 20 19  1  0
  1 19  1  0
 23 22  2  0
 24 22  2  0
 25 22  1  0
 22 21  1  0
M  END
>  <ESTIMATED_AFFINITY_LOWER [nM]>  (13) 
17193.727890

>  <ESTIMATED_AFFINITY_UPPER [nM]>  (13) 
1708298.523207

>  <TPSA>  (13) 
64.85

>  <logP>  (13) 
2.66359

>  <ID>  (13) 
DLS-NSP13-DF053

>  <original SMILES>  (13) 
CS(=O)(=O)CCCc1ccc(-n2nncc2-c2ccccc2F)cc1

>  <ref_mols>  (13) 
x0212_0,x0276_0,x0280_0

>  <ref_pdb>  (13) 
DLS-NSP13-DF/DLS-NSP13-DF053.pdb

$$$$
DLS-NSP13-DF025
     RDKit          3D

 25 27  0  0  0  0  0  0  0  0999 V2000
  -11.3261    3.4801  -76.2934 C   0  0  0  0  0  0  0  0  0  0  0  0
  -10.7052    4.2480  -77.2730 C   0  0  0  0  0  0  0  0  0  0  0  0
   -9.4346    3.9242  -77.7377 C   0  0  0  0  0  0  0  0  0  0  0  0
   -8.7478    2.8233  -77.2373 C   0  0  0  0  0  0  0  0  0  0  0  0
   -9.3688    2.0551  -76.2583 C   0  0  0  0  0  0  0  0  0  0  0  0
  -10.6392    2.3785  -75.7928 C   0  0  0  0  0  0  0  0  0  0  0  0
   -7.4059    2.5003  -77.7434 N   0  0  0  0  0  0  0  0  0  0  0  0
   -6.2643    2.9327  -77.2667 N   0  0  0  0  0  0  0  0  0  0  0  0
   -5.2803    2.4812  -77.9198 N   0  0  0  0  0  0  0  0  0  0  0  0
   -5.7402    1.6743  -78.9127 C   0  0  0  0  0  0  0  0  0  0  0  0
   -7.0944    1.6954  -78.7900 C   0  0  0  0  0  0  0  0  0  0  0  0
   -8.0362    0.9829  -79.6322 C   0  0  0  0  0  0  0  0  0  0  0  0
   -8.4176   -0.3145  -79.3059 C   0  0  0  0  0  0  0  0  0  0  0  0
   -9.3220   -0.9971  -80.1130 C   0  0  0  0  0  0  0  0  0  0  0  0
   -9.8436   -0.3833  -81.2470 C   0  0  0  0  0  0  0  0  0  0  0  0
   -9.4618    0.9138  -81.5729 C   0  0  0  0  0  0  0  0  0  0  0  0
   -8.5582    1.5967  -80.7663 C   0  0  0  0  0  0  0  0  0  0  0  0
   -8.1931    2.8371  -81.0782 F   0  0  0  0  0  0  0  0  0  0  0  0
  -12.6236    3.8292  -75.8339 O   0  0  0  0  0  0  0  0  0  0  0  0
  -13.2628    4.9958  -76.3307 C   0  0  0  0  0  0  0  0  0  0  0  0
  -14.7476    4.9351  -76.0109 C   0  0  0  0  0  0  0  0  0  0  0  0
  -15.0317    5.5726  -74.3409 S   0  0  0  0  0  0  0  0  0  0  0  0
  -13.8372    6.2206  -73.8649 O   0  0  0  0  0  0  0  0  0  0  0  0
  -15.3695    4.4829  -73.4622 O   0  0  0  0  0  0  0  0  0  0  0  0
  -16.3929    6.7651  -74.3739 C   0  0  0  0  0  0  0  0  0  0  0  0
  1  6  2  0
  6  5  1  0
  5  4  2  0
  4  3  1  0
  3  2  2  0
  2  1  1  0
  7 11  1  0
 12 17  2  0
 18 17  1  0
 17 16  1  0
 16 15  2  0
 15 14  1  0
 14 13  2  0
 13 12  1  0
 12 11  1  0
 11 10  2  0
 10  9  1  0
  9  8  2  0
  8  7  1  0
  4  7  1  0
 21 20  1  0
 20 19  1  0
  1 19  1  0
 23 22  2  0
 24 22  2  0
 25 22  1  0
 22 21  1  0
M  END
>  <ESTIMATED_AFFINITY_LOWER [nM]>  (14) 
276614.658842

>  <ESTIMATED_AFFINITY_UPPER [nM]>  (14) 
27483301.831208

>  <TPSA>  (14) 
74.08

>  <logP>  (14) 
2.2018

>  <ID>  (14) 
DLS-NSP13-DF025

>  <original SMILES>  (14) 
CS(=O)(=O)CCOc1ccc(-n2nncc2-c2ccccc2F)cc1

>  <ref_mols>  (14) 
x0212_0,x0276_0,x0280_0

>  <ref_pdb>  (14) 
DLS-NSP13-DF/DLS-NSP13-DF025.pdb

$$$$
DLS-NSP13-DF026
     RDKit          3D

 28 31  0  0  0  0  0  0  0  0999 V2000
  -11.2484    4.2669  -77.1072 C   0  0  0  0  0  0  0  0  0  0  0  0
  -10.3272    4.8348  -77.9837 C   0  0  0  0  0  0  0  0  0  0  0  0
   -9.0908    4.2500  -78.2321 C   0  0  0  0  0  0  0  0  0  0  0  0
   -8.7774    3.0633  -77.5794 C   0  0  0  0  0  0  0  0  0  0  0  0
   -9.6723    2.4667  -76.6973 C   0  0  0  0  0  0  0  0  0  0  0  0
  -10.9009    3.0776  -76.4708 C   0  0  0  0  0  0  0  0  0  0  0  0
  -11.7910    2.4755  -75.5871 C   0  0  0  0  0  0  0  0  0  0  0  0
   -7.4274    2.4175  -77.8451 C   0  0  0  0  0  0  0  0  0  0  0  0
   -6.3178    2.6491  -77.1951 N   0  0  0  0  0  0  0  0  0  0  0  0
   -5.3473    1.9134  -77.6893 N   0  0  0  0  0  0  0  0  0  0  0  0
   -5.8362    1.1915  -78.6740 C   0  0  0  0  0  0  0  0  0  0  0  0
   -7.1629    1.4854  -78.8000 N   0  0  0  0  0  0  0  0  0  0  0  0
   -8.1063    0.9120  -79.7706 C   0  0  0  0  0  0  0  0  0  0  0  0
   -8.6400   -0.3548  -79.5568 C   0  0  0  0  0  0  0  0  0  0  0  0
   -9.5340   -0.8967  -80.4748 C   0  0  0  0  0  0  0  0  0  0  0  0
   -9.8927   -0.1729  -81.6070 C   0  0  0  0  0  0  0  0  0  0  0  0
   -9.3588    1.0936  -81.8206 C   0  0  0  0  0  0  0  0  0  0  0  0
   -8.4655    1.6358  -80.9031 C   0  0  0  0  0  0  0  0  0  0  0  0
   -7.9548    2.8468  -81.1075 F   0  0  0  0  0  0  0  0  0  0  0  0
  -12.4883    4.8535  -76.8581 C   0  0  0  0  0  0  0  0  0  0  0  0
  -12.9279    6.1517  -77.5189 C   0  0  0  0  0  0  0  0  0  0  0  0
  -13.5250    7.0768  -76.4707 C   0  0  0  0  0  0  0  0  0  0  0  0
  -13.3761    4.2492  -75.9735 C   0  0  0  0  0  0  0  0  0  0  0  0
  -15.3051    7.2403  -76.7541 S   0  0  0  0  0  0  0  0  0  0  0  0
  -15.9097    5.9337  -76.7755 O   0  0  0  0  0  0  0  0  0  0  0  0
  -15.5322    7.8951  -78.0163 O   0  0  0  0  0  0  0  0  0  0  0  0
  -16.0400    8.2233  -75.4237 C   0  0  0  0  0  0  0  0  0  0  0  0
  -13.0286    3.0613  -75.3385 C   0  0  0  0  0  0  0  0  0  0  0  0
  1  6  2  0
  7  6  1  0
  6  5  1  0
  5  4  2  0
  4  3  1  0
  3  2  2  0
  2  1  1  0
  8 12  1  0
 13 18  2  0
 19 18  1  0
 18 17  1  0
 17 16  2  0
 16 15  1  0
 15 14  2  0
 14 13  1  0
 13 12  1  0
 12 11  1  0
 11 10  2  0
 10  9  1  0
  9  8  2  0
  4  8  1  0
 22 21  1  0
 21 20  1  0
  1 20  1  0
 20 23  2  0
 25 24  2  0
 26 24  2  0
 27 24  1  0
 24 22  1  0
  7 28  2  0
 28 23  1  0
M  END
>  <ESTIMATED_AFFINITY_LOWER [nM]>  (15) 
15532.616099

>  <ESTIMATED_AFFINITY_UPPER [nM]>  (15) 
1543257.245552

>  <TPSA>  (15) 
64.85

>  <logP>  (15) 
3.44603

>  <ID>  (15) 
DLS-NSP13-DF026

>  <original SMILES>  (15) 
CS(=O)(=O)CCc1cccc2cc(-c3nncn3-c3ccccc3F)ccc12

>  <ref_mols>  (15) 
x0212_0,x0276_0,x0280_0

>  <ref_pdb>  (15) 
DLS-NSP13-DF/DLS-NSP13-DF026.pdb

$$$$
DLS-NSP13-DF027
     RDKit          3D

 28 31  0  0  0  0  0  0  0  0999 V2000
  -11.3104    4.2626  -77.0337 C   0  0  0  0  0  0  0  0  0  0  0  0
  -10.3584    4.8166  -77.8864 C   0  0  0  0  0  0  0  0  0  0  0  0
   -9.1322    4.1996  -78.1095 C   0  0  0  0  0  0  0  0  0  0  0  0
   -8.8233    2.9992  -77.4782 C   0  0  0  0  0  0  0  0  0  0  0  0
   -9.7677    2.4398  -76.6243 C   0  0  0  0  0  0  0  0  0  0  0  0
  -10.9930    3.0613  -76.4045 C   0  0  0  0  0  0  0  0  0  0  0  0
  -11.9219    2.4822  -75.5459 C   0  0  0  0  0  0  0  0  0  0  0  0
   -7.4871    2.3137  -77.7136 C   0  0  0  0  0  0  0  0  0  0  0  0
   -6.3664    2.5698  -77.0927 N   0  0  0  0  0  0  0  0  0  0  0  0
   -5.4140    1.7857  -77.5459 N   0  0  0  0  0  0  0  0  0  0  0  0
   -5.9262    1.0070  -78.4739 C   0  0  0  0  0  0  0  0  0  0  0  0
   -7.2493    1.3144  -78.6056 N   0  0  0  0  0  0  0  0  0  0  0  0
   -8.1700    0.7206  -79.4833 C   0  0  0  0  0  0  0  0  0  0  0  0
   -8.7545   -0.5101  -79.1985 C   0  0  0  0  0  0  0  0  0  0  0  0
   -9.6341   -1.0779  -80.0372 N   0  0  0  0  0  0  0  0  0  0  0  0
   -9.9919   -0.4881  -81.1873 C   0  0  0  0  0  0  0  0  0  0  0  0
   -9.4474    0.7432  -81.5366 C   0  0  0  0  0  0  0  0  0  0  0  0
   -8.5335    1.3416  -80.6743 C   0  0  0  0  0  0  0  0  0  0  0  0
   -8.0065    2.5189  -80.9984 F   0  0  0  0  0  0  0  0  0  0  0  0
  -12.5492    4.8585  -76.7921 C   0  0  0  0  0  0  0  0  0  0  0  0
  -12.9651    6.1684  -77.4449 C   0  0  0  0  0  0  0  0  0  0  0  0
  -13.6166    7.0674  -76.4065 C   0  0  0  0  0  0  0  0  0  0  0  0
  -13.4242    4.2767  -75.9585 N   0  0  0  0  0  0  0  0  0  0  0  0
  -15.3877    7.2044  -76.7531 S   0  0  0  0  0  0  0  0  0  0  0  0
  -15.9640    5.8875  -76.8356 O   0  0  0  0  0  0  0  0  0  0  0  0
  -15.5804    7.8919  -78.0036 O   0  0  0  0  0  0  0  0  0  0  0  0
  -16.1925    8.1329  -75.4241 C   0  0  0  0  0  0  0  0  0  0  0  0
  -13.1409    3.1204  -75.3402 C   0  0  0  0  0  0  0  0  0  0  0  0
  1  6  2  0
  7  6  1  0
  6  5  1  0
  5  4  2  0
  4  3  1  0
  3  2  2  0
  2  1  1  0
  8 12  1  0
 13 18  2  0
 19 18  1  0
 18 17  1  0
 17 16  2  0
 16 15  1  0
 15 14  2  0
 14 13  1  0
 13 12  1  0
 12 11  1  0
 11 10  2  0
 10  9  1  0
  9  8  2  0
  4  8  1  0
 22 21  1  0
 21 20  1  0
  1 20  1  0
 20 23  2  0
 25 24  2  0
 26 24  2  0
 27 24  1  0
 24 22  1  0
  7 28  2  0
 28 23  1  0
M  END
>  <ESTIMATED_AFFINITY_LOWER [nM]>  (16) 
22914.128898

>  <ESTIMATED_AFFINITY_UPPER [nM]>  (16) 
2276654.185038

>  <TPSA>  (16) 
90.63

>  <logP>  (16) 
1.78258

>  <ID>  (16) 
DLS-NSP13-DF027

>  <original SMILES>  (16) 
CS(=O)(=O)CCc1nccc2cc(-c3nncn3-c3cnccc3F)ccc12

>  <ref_mols>  (16) 
x0212_0,x0276_0,x0280_0

>  <ref_pdb>  (16) 
DLS-NSP13-DF/DLS-NSP13-DF027.pdb

$$$$
DLS-NSP13-DF048
     RDKit          3D

 28 31  0  0  0  0  0  0  0  0999 V2000
  -11.5028    3.4757  -76.3661 C   0  0  0  0  0  0  0  0  0  0  0  0
  -10.7969    4.3646  -77.1739 C   0  0  0  0  0  0  0  0  0  0  0  0
   -9.5114    4.0784  -77.6212 C   0  0  0  0  0  0  0  0  0  0  0  0
   -8.8772    2.8876  -77.2777 C   0  0  0  0  0  0  0  0  0  0  0  0
   -9.5842    2.0009  -76.4716 C   0  0  0  0  0  0  0  0  0  0  0  0
  -10.8714    2.2840  -76.0225 C   0  0  0  0  0  0  0  0  0  0  0  0
  -11.5426    1.3702  -75.2164 C   0  0  0  0  0  0  0  0  0  0  0  0
   -7.4725    2.5690  -77.7631 C   0  0  0  0  0  0  0  0  0  0  0  0
   -6.3562    2.9968  -77.2355 N   0  0  0  0  0  0  0  0  0  0  0  0
   -5.3319    2.5219  -77.9084 N   0  0  0  0  0  0  0  0  0  0  0  0
   -5.7917    1.7723  -78.8865 C   0  0  0  0  0  0  0  0  0  0  0  0
   -7.1547    1.7771  -78.8225 N   0  0  0  0  0  0  0  0  0  0  0  0
   -8.0418    1.1039  -79.6775 C   0  0  0  0  0  0  0  0  0  0  0  0
   -8.6624   -0.0809  -79.2924 C   0  0  0  0  0  0  0  0  0  0  0  0
   -9.5098   -0.7246  -80.1092 N   0  0  0  0  0  0  0  0  0  0  0  0
   -9.7992   -0.2582  -81.3328 C   0  0  0  0  0  0  0  0  0  0  0  0
   -9.2153    0.9208  -81.7840 C   0  0  0  0  0  0  0  0  0  0  0  0
   -8.3344    1.5971  -80.9454 C   0  0  0  0  0  0  0  0  0  0  0  0
   -7.7702    2.7253  -81.3667 F   0  0  0  0  0  0  0  0  0  0  0  0
  -12.7917    3.7584  -75.9129 C   0  0  0  0  0  0  0  0  0  0  0  0
  -13.5172    5.0481  -76.2631 C   0  0  0  0  0  0  0  0  0  0  0  0
  -14.6156    5.3043  -75.2437 C   0  0  0  0  0  0  0  0  0  0  0  0
  -13.4616    2.8435  -75.1073 C   0  0  0  0  0  0  0  0  0  0  0  0
  -14.1604    6.7176  -74.2087 S   0  0  0  0  0  0  0  0  0  0  0  0
  -14.0442    7.8954  -75.0287 O   0  0  0  0  0  0  0  0  0  0  0  0
  -12.8997    6.4547  -73.5648 O   0  0  0  0  0  0  0  0  0  0  0  0
  -15.4364    6.9807  -72.9522 C   0  0  0  0  0  0  0  0  0  0  0  0
  -12.8277    1.6536  -74.7661 C   0  0  0  0  0  0  0  0  0  0  0  0
  1  6  2  0
  7  6  1  0
  6  5  1  0
  5  4  2  0
  4  3  1  0
  3  2  2  0
  2  1  1  0
  8 12  1  0
 13 18  2  0
 19 18  1  0
 18 17  1  0
 17 16  2  0
 16 15  1  0
 15 14  2  0
 14 13  1  0
 13 12  1  0
 12 11  1  0
 11 10  2  0
 10  9  1  0
  9  8  2  0
  4  8  1  0
 22 21  1  0
 21 20  1  0
  1 20  1  0
 20 23  2  0
 25 24  2  0
 26 24  2  0
 27 24  1  0
 24 22  1  0
  7 28  2  0
 28 23  1  0
M  END
>  <ESTIMATED_AFFINITY_LOWER [nM]>  (17) 
148920.818860

>  <ESTIMATED_AFFINITY_UPPER [nM]>  (17) 
14796163.843258

>  <TPSA>  (17) 
77.74

>  <logP>  (17) 
2.52409

>  <ID>  (17) 
DLS-NSP13-DF048

>  <original SMILES>  (17) 
CS(=O)(=O)CCc1cccc2cc(-c3nncn3-c3cnccc3F)ccc12

>  <ref_mols>  (17) 
x0212_0,x0276_0,x0280_0

>  <ref_pdb>  (17) 
DLS-NSP13-DF/DLS-NSP13-DF048.pdb

$$$$
DLS-NSP13-DF028
     RDKit          3D

 29 32  0  0  0  0  0  0  0  0999 V2000
  -11.4348    4.3373  -76.9695 C   0  0  0  0  0  0  0  0  0  0  0  0
  -10.4356    4.8990  -77.7614 C   0  0  0  0  0  0  0  0  0  0  0  0
   -9.2103    4.2670  -77.9447 C   0  0  0  0  0  0  0  0  0  0  0  0
   -8.9332    3.0433  -77.3416 C   0  0  0  0  0  0  0  0  0  0  0  0
   -9.9327    2.4834  -76.5518 C   0  0  0  0  0  0  0  0  0  0  0  0
  -11.1605    3.1132  -76.3667 C   0  0  0  0  0  0  0  0  0  0  0  0
  -12.1322    2.5196  -75.5672 C   0  0  0  0  0  0  0  0  0  0  0  0
   -7.5962    2.3476  -77.5379 C   0  0  0  0  0  0  0  0  0  0  0  0
   -6.4942    2.5893  -76.8784 N   0  0  0  0  0  0  0  0  0  0  0  0
   -5.5342    1.7999  -77.3057 N   0  0  0  0  0  0  0  0  0  0  0  0
   -6.0222    1.0325  -78.2559 C   0  0  0  0  0  0  0  0  0  0  0  0
   -7.3375    1.3526  -78.4288 N   0  0  0  0  0  0  0  0  0  0  0  0
   -8.2338    0.7734  -79.3409 C   0  0  0  0  0  0  0  0  0  0  0  0
   -8.8168   -0.4669  -79.0974 C   0  0  0  0  0  0  0  0  0  0  0  0
   -9.6731   -1.0208  -79.9689 N   0  0  0  0  0  0  0  0  0  0  0  0
  -10.0079   -0.4072  -81.1135 C   0  0  0  0  0  0  0  0  0  0  0  0
   -9.4634    0.8348  -81.4223 C   0  0  0  0  0  0  0  0  0  0  0  0
   -8.5737    1.4189  -80.5258 C   0  0  0  0  0  0  0  0  0  0  0  0
   -8.0469    2.6063  -80.8111 F   0  0  0  0  0  0  0  0  0  0  0  0
  -12.6650    4.9676  -76.7806 C   0  0  0  0  0  0  0  0  0  0  0  0
  -13.0051    6.3052  -77.4190 C   0  0  0  0  0  0  0  0  0  0  0  0
  -13.7129    7.1864  -76.4022 C   0  0  0  0  0  0  0  0  0  0  0  0
  -13.6355    4.3727  -75.9813 C   0  0  0  0  0  0  0  0  0  0  0  0
  -15.4768    7.2683  -76.7990 S   0  0  0  0  0  0  0  0  0  0  0  0
  -16.0194    5.9355  -76.8511 O   0  0  0  0  0  0  0  0  0  0  0  0
  -15.6524    7.9083  -78.0770 O   0  0  0  0  0  0  0  0  0  0  0  0
  -16.3385    8.2209  -75.5239 C   0  0  0  0  0  0  0  0  0  0  0  0
  -13.3582    3.1494  -75.3804 C   0  0  0  0  0  0  0  0  0  0  0  0
  -14.5921    2.3772  -74.3560 Cl  0  0  0  0  0  0  0  0  0  0  0  0
  1  6  2  0
  7  6  1  0
  6  5  1  0
  5  4  2  0
  4  3  1  0
  3  2  2  0
  2  1  1  0
  8 12  1  0
 13 18  2  0
 19 18  1  0
 18 17  1  0
 17 16  2  0
 16 15  1  0
 15 14  2  0
 14 13  1  0
 13 12  1  0
 12 11  1  0
 11 10  2  0
 10  9  1  0
  9  8  2  0
  4  8  1  0
 22 21  1  0
 21 20  1  0
  1 20  1  0
 20 23  2  0
 25 24  2  0
 26 24  2  0
 27 24  1  0
 24 22  1  0
  7 28  2  0
 28 23  1  0
 28 29  1  0
M  END
>  <ESTIMATED_AFFINITY_LOWER [nM]>  (18) 
17588.525957

>  <ESTIMATED_AFFINITY_UPPER [nM]>  (18) 
1747524.045380

>  <TPSA>  (18) 
77.74

>  <logP>  (18) 
3.00688

>  <ID>  (18) 
DLS-NSP13-DF028

>  <original SMILES>  (18) 
CS(=O)(=O)CCc1cc(Cl)cc2cc(-c3nncn3-c3cnccc3F)ccc12

>  <ref_mols>  (18) 
x0212_0,x0276_0,x0280_0

>  <ref_pdb>  (18) 
DLS-NSP13-DF/DLS-NSP13-DF028.pdb

$$$$
DLS-NSP13-DF049
     RDKit          3D

 29 32  0  0  0  0  0  0  0  0999 V2000
  -11.2864    4.2788  -77.0472 C   0  0  0  0  0  0  0  0  0  0  0  0
  -10.3303    4.8256  -77.8995 C   0  0  0  0  0  0  0  0  0  0  0  0
   -9.1052    4.2080  -78.1235 C   0  0  0  0  0  0  0  0  0  0  0  0
   -8.8395    3.0096  -77.4709 C   0  0  0  0  0  0  0  0  0  0  0  0
   -9.7703    2.4334  -76.6127 C   0  0  0  0  0  0  0  0  0  0  0  0
  -10.9863    3.0770  -76.4102 C   0  0  0  0  0  0  0  0  0  0  0  0
  -11.9125    2.4951  -75.5502 C   0  0  0  0  0  0  0  0  0  0  0  0
   -7.5022    2.3281  -77.7101 C   0  0  0  0  0  0  0  0  0  0  0  0
   -6.3823    2.5819  -77.0866 N   0  0  0  0  0  0  0  0  0  0  0  0
   -5.4282    1.8024  -77.5445 N   0  0  0  0  0  0  0  0  0  0  0  0
   -5.9384    1.0293  -78.4782 C   0  0  0  0  0  0  0  0  0  0  0  0
   -7.2620    1.3354  -78.6086 N   0  0  0  0  0  0  0  0  0  0  0  0
   -8.1810    0.7461  -79.4911 C   0  0  0  0  0  0  0  0  0  0  0  0
   -8.7705   -0.4833  -79.2109 C   0  0  0  0  0  0  0  0  0  0  0  0
   -9.6485   -1.0469  -80.0542 N   0  0  0  0  0  0  0  0  0  0  0  0
  -10.0000   -0.4538  -81.2045 C   0  0  0  0  0  0  0  0  0  0  0  0
   -9.4504    0.7765  -81.5493 C   0  0  0  0  0  0  0  0  0  0  0  0
   -8.5381    1.3705  -80.6824 C   0  0  0  0  0  0  0  0  0  0  0  0
   -8.0062    2.5468  -81.0021 F   0  0  0  0  0  0  0  0  0  0  0  0
  -10.8743   -1.0422  -82.0159 F   0  0  0  0  0  0  0  0  0  0  0  0
  -12.5150    4.8982  -76.8226 C   0  0  0  0  0  0  0  0  0  0  0  0
  -12.9035    6.2116  -77.4854 C   0  0  0  0  0  0  0  0  0  0  0  0
  -13.5570    7.1231  -76.4591 C   0  0  0  0  0  0  0  0  0  0  0  0
  -13.4388    4.3141  -75.9617 C   0  0  0  0  0  0  0  0  0  0  0  0
  -15.3322    7.2339  -76.7942 S   0  0  0  0  0  0  0  0  0  0  0  0
  -15.8946    5.9094  -76.8448 O   0  0  0  0  0  0  0  0  0  0  0  0
  -15.5421    7.8932  -78.0570 O   0  0  0  0  0  0  0  0  0  0  0  0
  -16.1365    8.1810  -75.4781 C   0  0  0  0  0  0  0  0  0  0  0  0
  -13.1388    3.1137  -75.3260 C   0  0  0  0  0  0  0  0  0  0  0  0
  1  6  2  0
  7  6  1  0
  6  5  1  0
  5  4  2  0
  4  3  1  0
  3  2  2  0
  2  1  1  0
  8 12  1  0
 13 18  2  0
 19 18  1  0
 18 17  1  0
 17 16  2  0
 20 16  1  0
 16 15  1  0
 15 14  2  0
 14 13  1  0
 13 12  1  0
 12 11  1  0
 11 10  2  0
 10  9  1  0
  9  8  2  0
  4  8  1  0
 23 22  1  0
 22 21  1  0
  1 21  1  0
 21 24  2  0
 26 25  2  0
 27 25  2  0
 28 25  1  0
 25 23  1  0
  7 29  2  0
 29 24  1  0
M  END
>  <ESTIMATED_AFFINITY_LOWER [nM]>  (19) 
19249.849854

>  <ESTIMATED_AFFINITY_UPPER [nM]>  (19) 
1912586.397111

>  <TPSA>  (19) 
77.74

>  <logP>  (19) 
2.73697

>  <ID>  (19) 
DLS-NSP13-DF049

>  <original SMILES>  (19) 
CS(=O)(=O)CCc1cccc2cc(-c3nncn3-c3cnc(F)cc3F)ccc12

>  <ref_mols>  (19) 
x0212_0,x0276_0,x0280_0

>  <ref_pdb>  (19) 
DLS-NSP13-DF/DLS-NSP13-DF049.pdb

$$$$
DLS-NSP13-DF031
     RDKit          3D

 29 32  0  0  0  0  0  0  0  0999 V2000
  -11.2438    4.2386  -77.0928 C   0  0  0  0  0  0  0  0  0  0  0  0
  -10.3715    4.8658  -77.9798 C   0  0  0  0  0  0  0  0  0  0  0  0
   -9.1221    4.3299  -78.2738 C   0  0  0  0  0  0  0  0  0  0  0  0
   -8.6926    3.1409  -77.6910 C   0  0  0  0  0  0  0  0  0  0  0  0
   -9.5655    2.5154  -76.8061 C   0  0  0  0  0  0  0  0  0  0  0  0
  -10.8171    3.0490  -76.5100 C   0  0  0  0  0  0  0  0  0  0  0  0
  -11.6588    2.3922  -75.6178 C   0  0  0  0  0  0  0  0  0  0  0  0
   -7.3286    2.5501  -78.0081 C   0  0  0  0  0  0  0  0  0  0  0  0
   -6.2086    2.8133  -77.3885 N   0  0  0  0  0  0  0  0  0  0  0  0
   -5.2274    2.1219  -77.9239 N   0  0  0  0  0  0  0  0  0  0  0  0
   -5.7195    1.3972  -78.9048 C   0  0  0  0  0  0  0  0  0  0  0  0
   -7.0595    1.6430  -78.9856 N   0  0  0  0  0  0  0  0  0  0  0  0
  -12.4972    4.7725  -76.7927 C   0  0  0  0  0  0  0  0  0  0  0  0
  -13.0017    6.0696  -77.4055 C   0  0  0  0  0  0  0  0  0  0  0  0
  -13.6516    6.9206  -76.3263 C   0  0  0  0  0  0  0  0  0  0  0  0
  -13.3377    4.1146  -75.9008 C   0  0  0  0  0  0  0  0  0  0  0  0
  -15.4006    7.1648  -76.7224 S   0  0  0  0  0  0  0  0  0  0  0  0
  -16.0461    5.8845  -76.8556 O   0  0  0  0  0  0  0  0  0  0  0  0
  -15.5157    7.8915  -77.9603 O   0  0  0  0  0  0  0  0  0  0  0  0
  -16.1943    8.1053  -75.3951 C   0  0  0  0  0  0  0  0  0  0  0  0
  -12.9081    2.9259  -75.3202 C   0  0  0  0  0  0  0  0  0  0  0  0
   -7.7309    2.8647  -81.3986 F   0  0  0  0  0  0  0  0  0  0  0  0
   -8.3136    1.7000  -81.1275 C   0  0  0  0  0  0  0  0  0  0  0  0
   -9.2139    1.1456  -82.0314 C   0  0  0  0  0  0  0  0  0  0  0  0
   -9.8106   -0.0737  -81.7286 C   0  0  0  0  0  0  0  0  0  0  0  0
   -9.5204   -0.7406  -80.5428 C   0  0  0  0  0  0  0  0  0  0  0  0
   -8.6174   -0.1694  -79.6521 C   0  0  0  0  0  0  0  0  0  0  0  0
   -8.3283   -0.7948  -78.5138 F   0  0  0  0  0  0  0  0  0  0  0  0
   -8.0108    1.0493  -79.9361 C   0  0  0  0  0  0  0  0  0  0  0  0
  1  6  2  0
  7  6  1  0
  6  5  1  0
  5  4  2  0
  4  3  1  0
  3  2  2  0
  2  1  1  0
  8 12  1  0
 12 11  1  0
 11 10  2  0
 10  9  1  0
  9  8  2  0
  4  8  1  0
 15 14  1  0
 14 13  1  0
  1 13  1  0
 13 16  2  0
 18 17  2  0
 19 17  2  0
 20 17  1  0
 17 15  1  0
  7 21  2  0
 21 16  1  0
 22 23  1  0
 23 24  2  0
 24 25  1  0
 25 26  2  0
 26 27  1  0
 27 28  1  0
 27 29  2  0
 29 23  1  0
 12 29  1  0
M  END
>  <ESTIMATED_AFFINITY_LOWER [nM]>  (20) 
10648.980442

>  <ESTIMATED_AFFINITY_UPPER [nM]>  (20) 
1058039.168620

>  <TPSA>  (20) 
64.85

>  <logP>  (20) 
3.59276

>  <ID>  (20) 
DLS-NSP13-DF031

>  <original SMILES>  (20) 
CS(=O)(=O)CCc1cccc2cc(-c3nncn3-c3c(F)cccc3F)ccc12

>  <ref_mols>  (20) 
x0212_0,x0276_0,x0280_0

>  <ref_pdb>  (20) 
DLS-NSP13-DF/DLS-NSP13-DF031.pdb

$$$$
DLS-NSP13-DF033
     RDKit          3D

 32 36  0  0  0  0  0  0  0  0999 V2000
  -11.3237    4.1872  -76.9975 C   0  0  0  0  0  0  0  0  0  0  0  0
  -10.4636    4.8518  -77.8690 C   0  0  0  0  0  0  0  0  0  0  0  0
   -9.2024    4.3490  -78.1716 C   0  0  0  0  0  0  0  0  0  0  0  0
   -8.7486    3.1572  -77.6134 C   0  0  0  0  0  0  0  0  0  0  0  0
   -9.6095    2.4945  -76.7440 C   0  0  0  0  0  0  0  0  0  0  0  0
  -10.8727    2.9948  -76.4393 C   0  0  0  0  0  0  0  0  0  0  0  0
  -11.7018    2.3013  -75.5631 C   0  0  0  0  0  0  0  0  0  0  0  0
   -7.3718    2.6026  -77.9401 C   0  0  0  0  0  0  0  0  0  0  0  0
   -6.2603    2.8687  -77.3064 N   0  0  0  0  0  0  0  0  0  0  0  0
   -5.2630    2.2126  -77.8564 N   0  0  0  0  0  0  0  0  0  0  0  0
   -5.7359    1.5082  -78.8613 C   0  0  0  0  0  0  0  0  0  0  0  0
   -7.0800    1.7304  -78.9426 N   0  0  0  0  0  0  0  0  0  0  0  0
  -12.5888    4.6877  -76.6888 C   0  0  0  0  0  0  0  0  0  0  0  0
  -13.1198    5.9866  -77.2750 C   0  0  0  0  0  0  0  0  0  0  0  0
  -13.9044    6.7001  -76.2550 N   0  0  0  0  0  0  0  0  0  0  0  0
  -13.4165    3.9931  -75.8130 C   0  0  0  0  0  0  0  0  0  0  0  0
  -15.4983    7.1294  -76.8371 S   0  0  0  0  0  0  0  0  0  0  0  0
  -16.4731    5.9777  -76.7896 O   0  0  0  0  0  0  0  0  0  0  0  0
  -15.4459    7.7523  -78.2119 O   0  0  0  0  0  0  0  0  0  0  0  0
  -15.8046    8.2948  -75.6620 N   0  0  0  0  0  0  0  0  0  0  0  0
  -13.3816    8.0340  -75.9644 C   0  0  0  0  0  0  0  0  0  0  0  0
  -14.5385    8.7185  -75.2667 C   0  0  0  0  0  0  0  0  0  0  0  0
  -12.9627    2.8017  -75.2569 C   0  0  0  0  0  0  0  0  0  0  0  0
   -7.6905    2.9664  -81.3644 F   0  0  0  0  0  0  0  0  0  0  0  0
   -8.2870    1.8047  -81.1108 C   0  0  0  0  0  0  0  0  0  0  0  0
   -9.1714    1.2603  -82.0361 C   0  0  0  0  0  0  0  0  0  0  0  0
   -9.7829    0.0439  -81.7513 C   0  0  0  0  0  0  0  0  0  0  0  0
   -9.5229   -0.6297  -80.5623 C   0  0  0  0  0  0  0  0  0  0  0  0
   -8.6356   -0.0684  -79.6500 C   0  0  0  0  0  0  0  0  0  0  0  0
   -8.3754   -0.7003  -78.5083 F   0  0  0  0  0  0  0  0  0  0  0  0
   -8.0145    1.1472  -79.9157 C   0  0  0  0  0  0  0  0  0  0  0  0
  -14.3805    9.5738  -74.4288 O   0  0  0  0  0  0  0  0  0  0  0  0
  1  6  2  0
  7  6  1  0
  6  5  1  0
  5  4  2  0
  4  3  1  0
  3  2  2  0
  2  1  1  0
  8 12  1  0
 12 11  1  0
 11 10  2  0
 10  9  1  0
  9  8  2  0
  4  8  1  0
 15 14  1  0
 14 13  1  0
  1 13  1  0
 13 16  2  0
 18 17  2  0
 19 17  2  0
 20 17  1  0
 17 15  1  0
 15 21  1  0
 20 22  1  0
  7 23  2  0
 23 16  1  0
 24 25  1  0
 25 26  2  0
 26 27  1  0
 27 28  2  0
 28 29  1  0
 29 30  1  0
 29 31  2  0
 31 25  1  0
 12 31  1  0
 21 22  1  0
 22 32  2  0
M  END
>  <ESTIMATED_AFFINITY_LOWER [nM]>  (21) 
390853.283042

>  <ESTIMATED_AFFINITY_UPPER [nM]>  (21) 
38833584.577706

>  <TPSA>  (21) 
97.19

>  <logP>  (21) 
2.26755

>  <ID>  (21) 
DLS-NSP13-DF033

>  <original SMILES>  (21) 
O=C1CN(Cc2cccc3cc(-c4nncn4-c4c(F)cccc4F)ccc23)S(=O)(=O)N1

>  <ref_mols>  (21) 
x0212_0,x0276_0,x0280_0

>  <ref_pdb>  (21) 
DLS-NSP13-DF/DLS-NSP13-DF033.pdb

$$$$
DLS-NSP13-DF008
     RDKit          3D

 19 21  0  0  0  0  0  0  0  0999 V2000
   -8.7620    2.8980  -77.2950 C   0  0  0  0  0  0  0  0  0  0  0  0
   -7.3716    2.4873  -77.7516 C   0  0  0  0  0  0  0  0  0  0  0  0
   -6.2442    2.7987  -77.1496 N   0  0  0  0  0  0  0  0  0  0  0  0
   -5.1999    2.2298  -77.8895 N   0  0  0  0  0  0  0  0  0  0  0  0
   -5.7358    1.6036  -78.9005 C   0  0  0  0  0  0  0  0  0  0  0  0
   -7.0660    1.7418  -78.8496 N   0  0  0  0  0  0  0  0  0  0  0  0
   -8.0288    1.1859  -79.8111 C   0  0  0  0  0  0  0  0  0  0  0  0
   -8.6341   -0.0408  -79.5591 C   0  0  0  0  0  0  0  0  0  0  0  0
   -9.5465   -0.5660  -80.4684 C   0  0  0  0  0  0  0  0  0  0  0  0
   -9.8522    0.1345  -81.6305 C   0  0  0  0  0  0  0  0  0  0  0  0
   -9.2465    1.3611  -81.8826 C   0  0  0  0  0  0  0  0  0  0  0  0
   -8.3349    1.8867  -80.9731 C   0  0  0  0  0  0  0  0  0  0  0  0
   -8.3406   -0.7114  -78.4487 F   0  0  0  0  0  0  0  0  0  0  0  0
   -7.7557    3.0594  -81.2146 F   0  0  0  0  0  0  0  0  0  0  0  0
   -9.3995    3.9796  -77.8938 C   0  0  0  0  0  0  0  0  0  0  0  0
  -10.6725    4.3545  -77.4766 C   0  0  0  0  0  0  0  0  0  0  0  0
  -11.3072    3.6490  -76.4598 C   0  0  0  0  0  0  0  0  0  0  0  0
  -10.6696    2.5677  -75.8608 C   0  0  0  0  0  0  0  0  0  0  0  0
   -9.3969    2.1924  -76.2781 C   0  0  0  0  0  0  0  0  0  0  0  0
  1  2  1  0
  2  3  2  0
  2  6  1  0
  3  4  1  0
  4  5  2  0
  5  6  1  0
  6  7  1  0
  7  8  2  0
  8  9  1  0
  9 10  2  0
 10 11  1  0
 11 12  2  0
 12  7  1  0
  8 13  1  0
 12 14  1  0
  1 15  2  0
 15 16  1  0
 16 17  2  0
 17 18  1  0
 18 19  2  0
 19  1  1  0
M  END
>  <ESTIMATED_AFFINITY_LOWER [nM]>  (22) 
794069.651375

>  <ESTIMATED_AFFINITY_UPPER [nM]>  (22) 
78895514.775414

>  <TPSA>  (22) 
30.71

>  <logP>  (22) 
2.6741

>  <ID>  (22) 
DLS-NSP13-DF008

>  <original SMILES>  (22) 
Fc1cccc(F)c1-n1cnnc1-c1ccccc1

>  <ref_mols>  (22) 
x0212_0,x0276_0,x0280_0

>  <ref_pdb>  (22) 
DLS-NSP13-DF/DLS-NSP13-DF008.pdb

$$$$
DLS-NSP13-DF010
     RDKit          3D

 23 26  0  0  0  0  0  0  0  0999 V2000
   -8.7565    2.7876  -77.2091 C   0  0  0  0  0  0  0  0  0  0  0  0
   -7.3706    2.4745  -77.7490 C   0  0  0  0  0  0  0  0  0  0  0  0
   -6.2385    2.9465  -77.2738 N   0  0  0  0  0  0  0  0  0  0  0  0
   -5.2011    2.4179  -78.0526 N   0  0  0  0  0  0  0  0  0  0  0  0
   -5.7458    1.6548  -78.9594 C   0  0  0  0  0  0  0  0  0  0  0  0
   -7.0752    1.6672  -78.8053 N   0  0  0  0  0  0  0  0  0  0  0  0
   -8.0467    0.9367  -79.6319 C   0  0  0  0  0  0  0  0  0  0  0  0
   -8.4220   -0.3568  -79.2847 C   0  0  0  0  0  0  0  0  0  0  0  0
   -9.3425   -1.0474  -80.0663 C   0  0  0  0  0  0  0  0  0  0  0  0
   -9.8865   -0.4451  -81.1958 C   0  0  0  0  0  0  0  0  0  0  0  0
   -9.5109    0.8484  -81.5431 C   0  0  0  0  0  0  0  0  0  0  0  0
   -8.5909    1.5393  -80.7614 C   0  0  0  0  0  0  0  0  0  0  0  0
   -7.9007   -0.9334  -78.2055 F   0  0  0  0  0  0  0  0  0  0  0  0
   -8.2319    2.7759  -81.0940 F   0  0  0  0  0  0  0  0  0  0  0  0
   -9.4224    3.9356  -77.6254 C   0  0  0  0  0  0  0  0  0  0  0  0
  -10.6914    4.2210  -77.1319 C   0  0  0  0  0  0  0  0  0  0  0  0
  -11.2934    3.3597  -76.2211 C   0  0  0  0  0  0  0  0  0  0  0  0
  -10.6276    2.2118  -75.8044 C   0  0  0  0  0  0  0  0  0  0  0  0
   -9.3589    1.9259  -76.2981 C   0  0  0  0  0  0  0  0  0  0  0  0
  -12.5621    3.6462  -75.7269 C   0  0  0  0  0  0  0  0  0  0  0  0
  -13.2286    4.7931  -76.1450 C   0  0  0  0  0  0  0  0  0  0  0  0
  -12.6265    5.6543  -77.0561 C   0  0  0  0  0  0  0  0  0  0  0  0
  -11.3580    5.3683  -77.5497 C   0  0  0  0  0  0  0  0  0  0  0  0
  1  2  1  0
  2  3  2  0
  2  6  1  0
  3  4  1  0
  4  5  2  0
  5  6  1  0
  6  7  1  0
  7  8  2  0
  8  9  1  0
  9 10  2  0
 10 11  1  0
 11 12  2  0
 12  7  1  0
  8 13  1  0
 12 14  1  0
  1 15  2  0
 15 16  1  0
 16 17  2  0
 17 18  1  0
 18 19  2  0
 19  1  1  0
 17 20  1  0
 20 21  2  0
 21 22  1  0
 22 23  2  0
 23 16  1  0
M  END
>  <ESTIMATED_AFFINITY_LOWER [nM]>  (23) 
211767.154284

>  <ESTIMATED_AFFINITY_UPPER [nM]>  (23) 
21040318.844586

>  <TPSA>  (23) 
30.71

>  <logP>  (23) 
3.94738

>  <ID>  (23) 
DLS-NSP13-DF010

>  <original SMILES>  (23) 
Fc1cccc(F)c1-n1cnnc1-c1ccc2ccccc2c1

>  <ref_mols>  (23) 
x0212_0,x0276_0,x0280_0

>  <ref_pdb>  (23) 
DLS-NSP13-DF/DLS-NSP13-DF010.pdb

$$$$
DLS-NSP13-DF011
     RDKit          3D

 32 36  0  0  0  0  0  0  0  0999 V2000
   -8.7158    2.6944  -77.1888 C   0  0  0  0  0  0  0  0  0  0  0  0
   -7.3319    2.4146  -77.7516 C   0  0  0  0  0  0  0  0  0  0  0  0
   -6.2016    2.8948  -77.2801 N   0  0  0  0  0  0  0  0  0  0  0  0
   -5.1656    2.3990  -78.0820 N   0  0  0  0  0  0  0  0  0  0  0  0
   -5.7094    1.6463  -78.9982 C   0  0  0  0  0  0  0  0  0  0  0  0
   -7.0368    1.6344  -78.8280 N   0  0  0  0  0  0  0  0  0  0  0  0
   -8.0068    0.9057  -79.6581 C   0  0  0  0  0  0  0  0  0  0  0  0
   -8.3789   -0.3904  -79.3174 C   0  0  0  0  0  0  0  0  0  0  0  0
   -9.2981   -1.0791  -80.1023 C   0  0  0  0  0  0  0  0  0  0  0  0
   -9.8437   -0.4725  -81.2287 C   0  0  0  0  0  0  0  0  0  0  0  0
   -9.4711    0.8237  -81.5695 C   0  0  0  0  0  0  0  0  0  0  0  0
   -8.5526    1.5127  -80.7845 C   0  0  0  0  0  0  0  0  0  0  0  0
   -7.8561   -0.9712  -78.2412 F   0  0  0  0  0  0  0  0  0  0  0  0
   -8.1965    2.7518  -81.1109 F   0  0  0  0  0  0  0  0  0  0  0  0
   -9.3862    3.8620  -77.5384 C   0  0  0  0  0  0  0  0  0  0  0  0
  -10.6535    4.1169  -77.0241 C   0  0  0  0  0  0  0  0  0  0  0  0
  -11.2492    3.2054  -76.1589 C   0  0  0  0  0  0  0  0  0  0  0  0
  -10.5789    2.0380  -75.8090 C   0  0  0  0  0  0  0  0  0  0  0  0
   -9.3121    1.7828  -76.3236 C   0  0  0  0  0  0  0  0  0  0  0  0
  -12.5161    3.4614  -75.6439 C   0  0  0  0  0  0  0  0  0  0  0  0
  -13.1871    4.6279  -75.9954 C   0  0  0  0  0  0  0  0  0  0  0  0
  -12.5911    5.5391  -76.8607 C   0  0  0  0  0  0  0  0  0  0  0  0
  -11.3245    5.2837  -77.3753 C   0  0  0  0  0  0  0  0  0  0  0  0
  -13.3242    6.8142  -77.2442 C   0  0  0  0  0  0  0  0  0  0  0  0
  -13.7787    7.5031  -76.0273 N   0  0  0  0  0  0  0  0  0  0  0  0
  -15.5247    7.6155  -75.9773 S   0  0  0  0  0  0  0  0  0  0  0  0
  -15.5792    8.8295  -74.8143 N   0  0  0  0  0  0  0  0  0  0  0  0
  -14.3629    9.4860  -74.9633 C   0  0  0  0  0  0  0  0  0  0  0  0
  -13.4450    8.9265  -76.0272 C   0  0  0  0  0  0  0  0  0  0  0  0
  -16.1774    6.3317  -75.5219 O   0  0  0  0  0  0  0  0  0  0  0  0
  -16.1035    8.0924  -77.2885 O   0  0  0  0  0  0  0  0  0  0  0  0
  -14.0730   10.4401  -74.2861 O   0  0  0  0  0  0  0  0  0  0  0  0
  1  2  1  0
  2  3  2  0
  2  6  1  0
  3  4  1  0
  4  5  2  0
  5  6  1  0
  6  7  1  0
  7  8  2  0
  8  9  1  0
  9 10  2  0
 10 11  1  0
 11 12  2  0
 12  7  1  0
  8 13  1  0
 12 14  1  0
  1 15  2  0
 15 16  1  0
 16 17  2  0
 17 18  1  0
 18 19  2  0
 19  1  1  0
 17 20  1  0
 20 21  2  0
 21 22  1  0
 22 23  2  0
 23 16  1  0
 22 24  1  0
 24 25  1  0
 25 26  1  0
 26 27  1  0
 27 28  1  0
 28 29  1  0
 29 25  1  0
 26 30  2  0
 26 31  2  0
 28 32  2  0
M  END
>  <ESTIMATED_AFFINITY_LOWER [nM]>  (24) 
128339.125964

>  <ESTIMATED_AFFINITY_UPPER [nM]>  (24) 
12751250.965475

>  <TPSA>  (24) 
97.19

>  <logP>  (24) 
2.26755

>  <ID>  (24) 
DLS-NSP13-DF011

>  <original SMILES>  (24) 
O=C1CN(Cc2ccc3ccc(-c4nncn4-c4c(F)cccc4F)cc3c2)S(=O)(=O)N1

>  <ref_mols>  (24) 
x0212_0,x0276_0,x0280_0

>  <ref_pdb>  (24) 
DLS-NSP13-DF/DLS-NSP13-DF011.pdb

$$$$
DLS-NSP13-DF013
     RDKit          3D

 30 34  0  0  0  0  0  0  0  0999 V2000
   -8.7529    2.7540  -77.1913 C   0  0  0  0  0  0  0  0  0  0  0  0
   -7.3662    2.4584  -77.7391 C   0  0  0  0  0  0  0  0  0  0  0  0
   -6.2364    2.9338  -77.2615 N   0  0  0  0  0  0  0  0  0  0  0  0
   -5.1971    2.4228  -78.0496 N   0  0  0  0  0  0  0  0  0  0  0  0
   -5.7387    1.6666  -78.9641 C   0  0  0  0  0  0  0  0  0  0  0  0
   -7.0675    1.6666  -78.8059 N   0  0  0  0  0  0  0  0  0  0  0  0
   -8.0358    0.9385  -79.6385 C   0  0  0  0  0  0  0  0  0  0  0  0
   -8.4122   -0.3562  -79.2968 C   0  0  0  0  0  0  0  0  0  0  0  0
   -9.3297   -1.0446  -80.0841 C   0  0  0  0  0  0  0  0  0  0  0  0
   -9.8693   -0.4390  -81.2139 C   0  0  0  0  0  0  0  0  0  0  0  0
   -9.4926    0.8557  -81.5556 C   0  0  0  0  0  0  0  0  0  0  0  0
   -8.5757    1.5442  -80.7683 C   0  0  0  0  0  0  0  0  0  0  0  0
   -7.8950   -0.9361  -78.2174 F   0  0  0  0  0  0  0  0  0  0  0  0
   -8.2157    2.7820  -81.0958 F   0  0  0  0  0  0  0  0  0  0  0  0
   -9.4376    3.8908  -77.6077 C   0  0  0  0  0  0  0  0  0  0  0  0
  -10.7073    4.1602  -77.1070 C   0  0  0  0  0  0  0  0  0  0  0  0
  -11.2912    3.2938  -76.1891 C   0  0  0  0  0  0  0  0  0  0  0  0
  -10.6065    2.1570  -75.7724 C   0  0  0  0  0  0  0  0  0  0  0  0
   -9.3371    1.8873  -76.2733 C   0  0  0  0  0  0  0  0  0  0  0  0
  -12.5605    3.5643  -75.6876 C   0  0  0  0  0  0  0  0  0  0  0  0
  -13.2460    4.7001  -76.1057 C   0  0  0  0  0  0  0  0  0  0  0  0
  -12.6620    5.5662  -77.0240 C   0  0  0  0  0  0  0  0  0  0  0  0
  -11.3928    5.2964  -77.5247 C   0  0  0  0  0  0  0  0  0  0  0  0
  -13.4108    6.8078  -77.4802 C   0  0  0  0  0  0  0  0  0  0  0  0
  -14.3402    7.2343  -76.4254 N   0  0  0  0  0  0  0  0  0  0  0  0
  -13.9261    8.1756  -75.3853 C   0  0  0  0  0  0  0  0  0  0  0  0
  -15.0820    7.7733  -74.0692 S   0  0  0  0  0  0  0  0  0  0  0  0
  -16.4192    7.3759  -75.2098 C   0  0  0  0  0  0  0  0  0  0  0  0
  -15.6570    6.7760  -76.3759 C   0  0  0  0  0  0  0  0  0  0  0  0
  -16.1419    5.9878  -77.1728 O   0  0  0  0  0  0  0  0  0  0  0  0
  1  2  1  0
  2  3  2  0
  2  6  1  0
  3  4  1  0
  4  5  2  0
  5  6  1  0
  6  7  1  0
  7  8  2  0
  8  9  1  0
  9 10  2  0
 10 11  1  0
 11 12  2  0
 12  7  1  0
  8 13  1  0
 12 14  1  0
  1 15  2  0
 15 16  1  0
 16 17  2  0
 17 18  1  0
 18 19  2  0
 19  1  1  0
 17 20  1  0
 20 21  2  0
 21 22  1  0
 22 23  2  0
 23 16  1  0
 22 24  1  0
 24 25  1  0
 25 26  1  0
 26 27  1  0
 27 28  1  0
 28 29  1  0
 29 25  1  0
 29 30  2  0
M  END
>  <ESTIMATED_AFFINITY_LOWER [nM]>  (25) 
215630.041861

>  <ESTIMATED_AFFINITY_UPPER [nM]>  (25) 
21424119.564595

>  <TPSA>  (25) 
51.02

>  <logP>  (25) 
3.71132

>  <ID>  (25) 
DLS-NSP13-DF013

>  <original SMILES>  (25) 
O=C1CSCN1Cc1ccc2ccc(-c3nncn3-c3c(F)cccc3F)cc2c1

>  <ref_mols>  (25) 
x0212_0,x0276_0,x0280_0

>  <ref_pdb>  (25) 
DLS-NSP13-DF/DLS-NSP13-DF013.pdb

$$$$
DLS-NSP13-DF014
     RDKit          3D

 31 35  0  0  0  0  0  0  0  0999 V2000
   -8.7183    2.7474  -77.2039 C   0  0  0  0  0  0  0  0  0  0  0  0
   -7.3357    2.4438  -77.7575 C   0  0  0  0  0  0  0  0  0  0  0  0
   -6.2011    2.9126  -77.2849 N   0  0  0  0  0  0  0  0  0  0  0  0
   -5.1682    2.3957  -78.0775 N   0  0  0  0  0  0  0  0  0  0  0  0
   -5.7178    1.6424  -78.9894 C   0  0  0  0  0  0  0  0  0  0  0  0
   -7.0460    1.6500  -78.8256 N   0  0  0  0  0  0  0  0  0  0  0  0
   -8.0219    0.9273  -79.6538 C   0  0  0  0  0  0  0  0  0  0  0  0
   -8.4056   -0.3644  -79.3094 C   0  0  0  0  0  0  0  0  0  0  0  0
   -9.3302   -1.0478  -80.0926 C   0  0  0  0  0  0  0  0  0  0  0  0
   -9.8702   -0.4399  -81.2210 C   0  0  0  0  0  0  0  0  0  0  0  0
   -9.4864    0.8520  -81.5655 C   0  0  0  0  0  0  0  0  0  0  0  0
   -8.5621    1.5355  -80.7822 C   0  0  0  0  0  0  0  0  0  0  0  0
   -7.8882   -0.9466  -78.2311 F   0  0  0  0  0  0  0  0  0  0  0  0
   -8.1953    2.7704  -81.1123 F   0  0  0  0  0  0  0  0  0  0  0  0
   -9.3906    3.8976  -77.6032 C   0  0  0  0  0  0  0  0  0  0  0  0
  -10.6566    4.1742  -77.0973 C   0  0  0  0  0  0  0  0  0  0  0  0
  -11.2492    3.3017  -76.1908 C   0  0  0  0  0  0  0  0  0  0  0  0
  -10.5769    2.1516  -75.7910 C   0  0  0  0  0  0  0  0  0  0  0  0
   -9.3113    1.8745  -76.2972 C   0  0  0  0  0  0  0  0  0  0  0  0
  -12.5149    3.5794  -75.6840 C   0  0  0  0  0  0  0  0  0  0  0  0
  -13.1879    4.7285  -76.0853 C   0  0  0  0  0  0  0  0  0  0  0  0
  -12.5951    5.6009  -76.9919 C   0  0  0  0  0  0  0  0  0  0  0  0
  -11.3296    5.3238  -77.4981 C   0  0  0  0  0  0  0  0  0  0  0  0
  -13.2819    6.7745  -77.4009 O   0  0  0  0  0  0  0  0  0  0  0  0
  -14.4330    7.1277  -76.7947 C   0  0  0  0  0  0  0  0  0  0  0  0
  -14.7944    8.1311  -76.0442 C   0  0  0  0  0  0  0  0  0  0  0  0
  -16.1308    7.6362  -75.9037 C   0  0  0  0  0  0  0  0  0  0  0  0
  -15.7364    6.5370  -76.7291 C   0  0  0  0  0  0  0  0  0  0  0  0
  -16.2785    5.5383  -77.1777 O   0  0  0  0  0  0  0  0  0  0  0  0
  -14.1549    9.2240  -75.5772 O   0  0  0  0  0  0  0  0  0  0  0  0
  -17.1514    7.9907  -75.3348 O   0  0  0  0  0  0  0  0  0  0  0  0
  1  2  1  0
  2  3  2  0
  2  6  1  0
  3  4  1  0
  4  5  2  0
  5  6  1  0
  6  7  1  0
  7  8  2  0
  8  9  1  0
  9 10  2  0
 10 11  1  0
 11 12  2  0
 12  7  1  0
  8 13  1  0
 12 14  1  0
  1 15  2  0
 15 16  1  0
 16 17  2  0
 17 18  1  0
 18 19  2  0
 19  1  1  0
 17 20  1  0
 20 21  2  0
 21 22  1  0
 22 23  2  0
 23 16  1  0
 22 24  1  0
 24 25  1  0
 25 26  2  0
 26 27  1  0
 27 28  1  0
 28 25  1  0
 28 29  2  0
 27 31  2  0
 26 30  1  0
M  END
>  <ESTIMATED_AFFINITY_LOWER [nM]>  (26) 
1240684.455370

>  <ESTIMATED_AFFINITY_UPPER [nM]>  (26) 
123269336.148041

>  <TPSA>  (26) 
94.31

>  <logP>  (26) 
3.29992

>  <ID>  (26) 
DLS-NSP13-DF014

>  <original SMILES>  (26) 
O=c1c(O)c(Oc2ccc3ccc(-c4nncn4-c4c(F)cccc4F)cc3c2)c1=O

>  <ref_mols>  (26) 
x0212_0,x0276_0,x0280_0

>  <ref_pdb>  (26) 
DLS-NSP13-DF/DLS-NSP13-DF014.pdb

$$$$
DLS-NSP13-DF015
     RDKit          3D

 31 35  0  0  0  0  0  0  0  0999 V2000
   -8.7503    2.7218  -77.1610 C   0  0  0  0  0  0  0  0  0  0  0  0
   -7.3635    2.4440  -77.7175 C   0  0  0  0  0  0  0  0  0  0  0  0
   -6.2356    2.9223  -77.2385 N   0  0  0  0  0  0  0  0  0  0  0  0
   -5.1956    2.4292  -78.0368 N   0  0  0  0  0  0  0  0  0  0  0  0
   -5.7347    1.6797  -78.9582 C   0  0  0  0  0  0  0  0  0  0  0  0
   -7.0629    1.6672  -78.7950 N   0  0  0  0  0  0  0  0  0  0  0  0
   -8.0285    0.9415  -79.6326 C   0  0  0  0  0  0  0  0  0  0  0  0
   -8.4054   -0.3544  -79.2962 C   0  0  0  0  0  0  0  0  0  0  0  0
   -9.3204   -1.0404  -80.0882 C   0  0  0  0  0  0  0  0  0  0  0  0
   -9.8573   -0.4313  -81.2173 C   0  0  0  0  0  0  0  0  0  0  0  0
   -9.4802    0.8646  -81.5539 C   0  0  0  0  0  0  0  0  0  0  0  0
   -8.5657    1.5510  -80.7617 C   0  0  0  0  0  0  0  0  0  0  0  0
   -7.8909   -0.9376  -78.2173 F   0  0  0  0  0  0  0  0  0  0  0  0
   -8.2053    2.7899  -81.0841 F   0  0  0  0  0  0  0  0  0  0  0  0
   -9.4753    3.8187  -77.6149 C   0  0  0  0  0  0  0  0  0  0  0  0
  -10.7450    4.0719  -77.1062 C   0  0  0  0  0  0  0  0  0  0  0  0
  -11.2890    3.2295  -76.1424 C   0  0  0  0  0  0  0  0  0  0  0  0
  -10.5640    2.1327  -75.6882 C   0  0  0  0  0  0  0  0  0  0  0  0
   -9.2946    1.8792  -76.1972 C   0  0  0  0  0  0  0  0  0  0  0  0
  -12.5584    3.4838  -75.6330 C   0  0  0  0  0  0  0  0  0  0  0  0
  -13.2841    4.5795  -76.0888 C   0  0  0  0  0  0  0  0  0  0  0  0
  -12.7400    5.4217  -77.0526 C   0  0  0  0  0  0  0  0  0  0  0  0
  -11.4707    5.1679  -77.5615 C   0  0  0  0  0  0  0  0  0  0  0  0
  -13.5066    6.5800  -77.5336 N   0  0  0  0  0  0  0  0  0  0  0  0
  -14.3899    7.2115  -76.6983 C   0  0  0  0  0  0  0  0  0  0  0  0
  -15.7178    6.9242  -76.2411 C   0  0  0  0  0  0  0  0  0  0  0  0
  -15.6813    8.1354  -75.4692 C   0  0  0  0  0  0  0  0  0  0  0  0
  -14.3628    8.3108  -76.0095 C   0  0  0  0  0  0  0  0  0  0  0  0
  -13.4152    9.2863  -75.8446 N   0  0  0  0  0  0  0  0  0  0  0  0
  -16.5095    6.0409  -76.4224 O   0  0  0  0  0  0  0  0  0  0  0  0
  -16.4114    8.7276  -74.7233 O   0  0  0  0  0  0  0  0  0  0  0  0
  1  2  1  0
  2  3  2  0
  2  6  1  0
  3  4  1  0
  4  5  2  0
  5  6  1  0
  6  7  1  0
  7  8  2  0
  8  9  1  0
  9 10  2  0
 10 11  1  0
 11 12  2  0
 12  7  1  0
  8 13  1  0
 12 14  1  0
  1 15  2  0
 15 16  1  0
 16 17  2  0
 17 18  1  0
 18 19  2  0
 19  1  1  0
 17 20  1  0
 20 21  2  0
 21 22  1  0
 22 23  2  0
 23 16  1  0
 22 24  1  0
 24 25  1  0
 25 26  1  0
 26 27  1  0
 27 28  1  0
 28 25  2  0
 28 29  1  0
 26 30  2  0
 27 31  2  0
M  END
>  <ESTIMATED_AFFINITY_LOWER [nM]>  (27) 
5763442.840975

>  <ESTIMATED_AFFINITY_UPPER [nM]>  (27) 
572632122.421766

>  <TPSA>  (27) 
102.9

>  <logP>  (27) 
2.96771

>  <ID>  (27) 
DLS-NSP13-DF015

>  <original SMILES>  (27) 
Nc1c(Nc2ccc3ccc(-c4nncn4-c4c(F)cccc4F)cc3c2)c(=O)c1=O

>  <ref_mols>  (27) 
x0212_0,x0276_0,x0280_0

>  <ref_pdb>  (27) 
DLS-NSP13-DF/DLS-NSP13-DF015.pdb

$$$$
DLS-NSP13-DF016
     RDKit          3D

 32 35  0  0  0  0  0  0  0  0999 V2000
   -8.6262    2.7474  -77.2510 C   0  0  0  0  0  0  0  0  0  0  0  0
   -7.2538    2.3871  -77.7956 C   0  0  0  0  0  0  0  0  0  0  0  0
   -6.1089    2.8793  -77.3746 N   0  0  0  0  0  0  0  0  0  0  0  0
   -5.0912    2.2911  -78.1365 N   0  0  0  0  0  0  0  0  0  0  0  0
   -5.6596    1.4748  -78.9802 C   0  0  0  0  0  0  0  0  0  0  0  0
   -6.9856    1.5091  -78.8017 N   0  0  0  0  0  0  0  0  0  0  0  0
   -7.9788    0.7344  -79.5592 C   0  0  0  0  0  0  0  0  0  0  0  0
   -8.3095   -0.5552  -79.1565 C   0  0  0  0  0  0  0  0  0  0  0  0
   -9.2507   -1.2878  -79.8727 C   0  0  0  0  0  0  0  0  0  0  0  0
   -9.8598   -0.7313  -80.9924 C   0  0  0  0  0  0  0  0  0  0  0  0
   -9.5287    0.5583  -81.3952 C   0  0  0  0  0  0  0  0  0  0  0  0
   -8.5882    1.2910  -80.6789 C   0  0  0  0  0  0  0  0  0  0  0  0
   -7.7259   -1.0880  -78.0866 F   0  0  0  0  0  0  0  0  0  0  0  0
   -8.2719    2.5238  -81.0647 F   0  0  0  0  0  0  0  0  0  0  0  0
   -9.2676    3.9014  -77.6890 C   0  0  0  0  0  0  0  0  0  0  0  0
  -10.5242    4.2302  -77.1911 C   0  0  0  0  0  0  0  0  0  0  0  0
  -11.1387    3.4062  -76.2543 C   0  0  0  0  0  0  0  0  0  0  0  0
  -10.4975    2.2523  -75.8160 C   0  0  0  0  0  0  0  0  0  0  0  0
   -9.2411    1.9232  -76.3141 C   0  0  0  0  0  0  0  0  0  0  0  0
  -12.3951    3.7361  -75.7558 C   0  0  0  0  0  0  0  0  0  0  0  0
  -13.0370    4.8889  -76.1956 C   0  0  0  0  0  0  0  0  0  0  0  0
  -12.4226    5.7127  -77.1326 C   0  0  0  0  0  0  0  0  0  0  0  0
  -11.1663    5.3834  -77.6305 C   0  0  0  0  0  0  0  0  0  0  0  0
  -13.0776    6.8900  -77.5809 O   0  0  0  0  0  0  0  0  0  0  0  0
  -14.0678    7.3935  -76.8866 C   0  0  0  0  0  0  0  0  0  0  0  0
  -15.5595    5.9413  -78.1681 C   0  0  0  0  0  0  0  0  0  0  0  0
  -15.2851    6.9933  -77.1059 C   0  0  0  0  0  0  0  0  0  0  0  0
  -16.4340    7.5775  -76.3002 C   0  0  0  0  0  0  0  0  0  0  0  0
  -15.2841    6.1608  -79.3153 O   0  0  0  0  0  0  0  0  0  0  0  0
  -16.0967    4.7950  -77.8313 O   0  0  0  0  0  0  0  0  0  0  0  0
  -16.8038    8.6998  -76.5091 O   0  0  0  0  0  0  0  0  0  0  0  0
  -17.0205    6.8557  -75.3776 O   0  0  0  0  0  0  0  0  0  0  0  0
  1  2  1  0
  2  3  2  0
  2  6  1  0
  3  4  1  0
  4  5  2  0
  5  6  1  0
  6  7  1  0
  7  8  2  0
  8  9  1  0
  9 10  2  0
 10 11  1  0
 11 12  2  0
 12  7  1  0
  8 13  1  0
 12 14  1  0
  1 15  2  0
 15 16  1  0
 16 17  2  0
 17 18  1  0
 18 19  2  0
 19  1  1  0
 17 20  1  0
 20 21  2  0
 21 22  1  0
 22 23  2  0
 23 16  1  0
 22 24  1  0
 24 25  1  0
 26 27  1  0
 27 25  2  3
 27 28  1  0
 26 29  2  0
 26 30  1  0
 28 32  1  0
 28 31  2  0
M  CHG  2  30  -1  32  -1
M  END
>  <ESTIMATED_AFFINITY_LOWER [nM]>  (28) 
1180219.113162

>  <ESTIMATED_AFFINITY_UPPER [nM]>  (28) 
117261746.900279

>  <TPSA>  (28) 
120.2

>  <logP>  (28) 
3.6058

>  <ID>  (28) 
DLS-NSP13-DF016

>  <original SMILES>  (28) 
O=C([O-])C(=COc1ccc2ccc(-c3nncn3-c3c(F)cccc3F)cc2c1)C(=O)[O-]

>  <ref_mols>  (28) 
x0212_0,x0276_0,x0280_0

>  <ref_pdb>  (28) 
DLS-NSP13-DF/DLS-NSP13-DF016.pdb

$$$$
DLS-NSP13-DF017
     RDKit          3D

 31 34  0  0  0  0  0  0  0  0999 V2000
   -8.4508    2.3918  -77.0314 C   0  0  0  0  0  0  0  0  0  0  0  0
   -7.1265    2.2214  -77.5933 C   0  0  0  0  0  0  0  0  0  0  0  0
   -6.0376    2.8309  -77.2056 N   0  0  0  0  0  0  0  0  0  0  0  0
   -5.0185    2.4333  -77.9341 N   0  0  0  0  0  0  0  0  0  0  0  0
   -5.4534    1.5504  -78.8063 C   0  0  0  0  0  0  0  0  0  0  0  0
   -6.7948    1.3879  -78.6159 N   0  0  0  0  0  0  0  0  0  0  0  0
   -7.6492    0.5392  -79.3297 C   0  0  0  0  0  0  0  0  0  0  0  0
   -8.3211    1.0045  -80.4540 C   0  0  0  0  0  0  0  0  0  0  0  0
   -9.1691    0.1625  -81.1645 C   0  0  0  0  0  0  0  0  0  0  0  0
   -9.3498   -1.1519  -80.7510 C   0  0  0  0  0  0  0  0  0  0  0  0
   -8.6815   -1.6255  -79.6265 C   0  0  0  0  0  0  0  0  0  0  0  0
   -7.8342   -0.7771  -78.9216 C   0  0  0  0  0  0  0  0  0  0  0  0
   -8.1477    2.2631  -80.8461 F   0  0  0  0  0  0  0  0  0  0  0  0
   -7.1922   -1.2238  -77.8464 F   0  0  0  0  0  0  0  0  0  0  0  0
   -9.3096    3.3266  -77.5998 C   0  0  0  0  0  0  0  0  0  0  0  0
  -10.5796    3.4877  -77.0563 C   0  0  0  0  0  0  0  0  0  0  0  0
  -10.9834    2.7267  -75.9630 C   0  0  0  0  0  0  0  0  0  0  0  0
  -10.1132    1.7957  -75.4041 C   0  0  0  0  0  0  0  0  0  0  0  0
   -8.8403    1.6247  -75.9385 C   0  0  0  0  0  0  0  0  0  0  0  0
  -12.2524    2.8877  -75.4165 C   0  0  0  0  0  0  0  0  0  0  0  0
  -13.1235    3.8187  -75.9722 C   0  0  0  0  0  0  0  0  0  0  0  0
  -12.7160    4.5768  -77.0649 C   0  0  0  0  0  0  0  0  0  0  0  0
  -11.4478    4.4202  -77.6144 C   0  0  0  0  0  0  0  0  0  0  0  0
  -13.6233    5.5484  -77.6443 C   0  0  0  0  0  0  0  0  0  0  0  0
  -13.3089    6.8844  -75.6212 C   0  0  0  0  0  0  0  0  0  0  0  0
  -13.9167    6.6336  -76.9916 C   0  0  0  0  0  0  0  0  0  0  0  0
  -14.8677    7.6521  -77.5992 C   0  0  0  0  0  0  0  0  0  0  0  0
  -13.6189    6.1922  -74.6914 O   0  0  0  0  0  0  0  0  0  0  0  0
  -12.4463    7.8563  -75.4554 O   0  0  0  0  0  0  0  0  0  0  0  0
  -15.0245    7.6918  -78.7883 O   0  0  0  0  0  0  0  0  0  0  0  0
  -15.5159    8.4862  -76.8249 O   0  0  0  0  0  0  0  0  0  0  0  0
  1  2  1  0
  2  3  2  0
  2  6  1  0
  3  4  1  0
  4  5  2  0
  5  6  1  0
  6  7  1  0
  7  8  2  0
  8  9  1  0
  9 10  2  0
 10 11  1  0
 11 12  2  0
 12  7  1  0
  8 13  1  0
 12 14  1  0
  1 15  2  0
 15 16  1  0
 16 17  2  0
 17 18  1  0
 18 19  2  0
 19  1  1  0
 17 20  1  0
 20 21  2  0
 21 22  1  0
 22 23  2  0
 23 16  1  0
 25 26  1  0
 26 24  2  3
 26 27  1  0
 25 28  2  0
 25 29  1  0
 27 30  2  0
 27 31  1  0
 22 24  1  0
M  CHG  2  29  -1  31  -1
M  END
>  <ESTIMATED_AFFINITY_LOWER [nM]>  (29) 
3043108.030560

>  <ESTIMATED_AFFINITY_UPPER [nM]>  (29) 
302350775.114768

>  <TPSA>  (29) 
110.97

>  <logP>  (29) 
3.8428

>  <ID>  (29) 
DLS-NSP13-DF017

>  <original SMILES>  (29) 
O=C([O-])C(=Cc1ccc2ccc(-c3nncn3-c3c(F)cccc3F)cc2c1)C(=O)[O-]

>  <ref_mols>  (29) 
x0212_0,x0276_0,x0280_0

>  <ref_pdb>  (29) 
DLS-NSP13-DF/DLS-NSP13-DF017.pdb

$$$$
DLS-NSP13-DF012
     RDKit          3D

 31 35  0  0  0  0  0  0  0  0999 V2000
   -8.7507    2.8458  -77.2645 C   0  0  0  0  0  0  0  0  0  0  0  0
   -7.3647    2.4999  -77.7840 C   0  0  0  0  0  0  0  0  0  0  0  0
   -6.2302    2.9655  -77.3086 N   0  0  0  0  0  0  0  0  0  0  0  0
   -5.1937    2.4039  -78.0651 N   0  0  0  0  0  0  0  0  0  0  0  0
   -5.7416    1.6285  -78.9597 C   0  0  0  0  0  0  0  0  0  0  0  0
   -7.0720    1.6643  -78.8186 N   0  0  0  0  0  0  0  0  0  0  0  0
   -8.0467    0.9297  -79.6379 C   0  0  0  0  0  0  0  0  0  0  0  0
   -8.4217   -0.3615  -79.2819 C   0  0  0  0  0  0  0  0  0  0  0  0
   -9.3454   -1.0560  -80.0563 C   0  0  0  0  0  0  0  0  0  0  0  0
   -9.8927   -0.4598  -81.1875 C   0  0  0  0  0  0  0  0  0  0  0  0
   -9.5175    0.8314  -81.5436 C   0  0  0  0  0  0  0  0  0  0  0  0
   -8.5944    1.5261  -80.7690 C   0  0  0  0  0  0  0  0  0  0  0  0
   -7.8971   -0.9323  -78.2012 F   0  0  0  0  0  0  0  0  0  0  0  0
   -8.2356    2.7605  -81.1098 F   0  0  0  0  0  0  0  0  0  0  0  0
   -9.4182    4.0003  -77.6674 C   0  0  0  0  0  0  0  0  0  0  0  0
  -10.6877    4.3247  -77.1981 C   0  0  0  0  0  0  0  0  0  0  0  0
  -11.3317    3.4843  -76.2968 C   0  0  0  0  0  0  0  0  0  0  0  0
  -10.6779    2.3276  -75.8858 C   0  0  0  0  0  0  0  0  0  0  0  0
   -9.4084    2.0157  -76.3619 C   0  0  0  0  0  0  0  0  0  0  0  0
  -12.6000    3.8303  -75.8410 C   0  0  0  0  0  0  0  0  0  0  0  0
  -13.2053    4.9535  -76.2563 N   0  0  0  0  0  0  0  0  0  0  0  0
  -12.6189    5.7905  -77.1255 C   0  0  0  0  0  0  0  0  0  0  0  0
  -11.3502    5.4793  -77.6041 C   0  0  0  0  0  0  0  0  0  0  0  0
  -13.3030    7.0629  -77.5981 C   0  0  0  0  0  0  0  0  0  0  0  0
  -13.5565    7.9737  -76.4079 C   0  0  0  0  0  0  0  0  0  0  0  0
  -13.7584    9.3779  -76.9546 C   0  0  0  0  0  0  0  0  0  0  0  0
  -13.3906   10.2972  -75.8102 C   0  0  0  0  0  0  0  0  0  0  0  0
  -11.8042    9.4909  -75.4325 P   0  0  0  0  0  0  0  0  0  0  0  0
  -12.4423    7.8906  -75.5387 O   0  0  0  0  0  0  0  0  0  0  0  0
  -11.2669    9.8309  -74.0427 O   0  0  0  0  0  0  0  0  0  0  0  0
  -10.6499    9.7977  -76.6814 O   0  0  0  0  0  0  0  0  0  0  0  0
  1  2  1  0
  2  3  2  0
  2  6  1  0
  3  4  1  0
  4  5  2  0
  5  6  1  0
  6  7  1  0
  7  8  2  0
  8  9  1  0
  9 10  2  0
 10 11  1  0
 11 12  2  0
 12  7  1  0
  8 13  1  0
 12 14  1  0
  1 15  2  0
 15 16  1  0
 16 17  2  0
 17 18  1  0
 18 19  2  0
 19  1  1  0
 17 20  1  0
 20 21  2  0
 21 22  1  0
 22 23  2  0
 23 16  1  0
 22 24  1  0
 24 25  1  0
 25 26  1  0
 26 27  1  0
 27 28  1  0
 28 29  1  0
 29 25  1  0
 28 30  2  0
 28 31  1  0
M  END
>  <ESTIMATED_AFFINITY_LOWER [nM]>  (30) 
38509.909696

>  <ESTIMATED_AFFINITY_UPPER [nM]>  (30) 
3826187.216871

>  <TPSA>  (30) 
90.13

>  <logP>  (30) 
3.55905

>  <ID>  (30) 
DLS-NSP13-DF012

>  <original SMILES>  (30) 
O=P1(O)CCC(Cc2cc3cc(-c4nncn4-c4c(F)cccc4F)ccc3cn2)O1

>  <ref_mols>  (30) 
x0212_0,x0276_0,x0280_0

>  <ref_pdb>  (30) 
DLS-NSP13-DF/DLS-NSP13-DF012.pdb

$$$$
DLS-NSP13-DF034
     RDKit          3D

 29 32  0  0  0  0  0  0  0  0999 V2000
  -11.2517    4.1302  -76.9189 C   0  0  0  0  0  0  0  0  0  0  0  0
  -10.4443    4.7552  -77.8670 C   0  0  0  0  0  0  0  0  0  0  0  0
   -9.1888    4.2572  -78.2024 C   0  0  0  0  0  0  0  0  0  0  0  0
   -8.6791    3.1091  -77.6048 C   0  0  0  0  0  0  0  0  0  0  0  0
   -9.4948    2.4923  -76.6569 C   0  0  0  0  0  0  0  0  0  0  0  0
  -10.7524    2.9822  -76.3137 C   0  0  0  0  0  0  0  0  0  0  0  0
  -11.5520    2.3523  -75.3637 C   0  0  0  0  0  0  0  0  0  0  0  0
   -7.3061    2.5729  -77.9758 C   0  0  0  0  0  0  0  0  0  0  0  0
   -6.1813    2.8384  -77.3661 N   0  0  0  0  0  0  0  0  0  0  0  0
   -5.1925    2.2012  -77.9526 N   0  0  0  0  0  0  0  0  0  0  0  0
   -5.6846    1.5098  -78.9572 C   0  0  0  0  0  0  0  0  0  0  0  0
   -7.0322    1.7209  -79.0004 N   0  0  0  0  0  0  0  0  0  0  0  0
  -12.5131    4.6112  -76.5684 C   0  0  0  0  0  0  0  0  0  0  0  0
  -13.1170    5.8603  -77.1894 C   0  0  0  0  0  0  0  0  0  0  0  0
  -13.7951    6.6863  -76.1082 C   0  0  0  0  0  0  0  0  0  0  0  0
  -13.2627    3.9349  -75.6110 C   0  0  0  0  0  0  0  0  0  0  0  0
  -15.4794    7.0957  -76.6291 S   0  0  0  0  0  0  0  0  0  0  0  0
  -16.2087    5.8824  -76.8928 O   0  0  0  0  0  0  0  0  0  0  0  0
  -15.4310    7.8963  -77.8251 O   0  0  0  0  0  0  0  0  0  0  0  0
  -16.3085    8.0244  -75.3151 C   0  0  0  0  0  0  0  0  0  0  0  0
  -12.7630    2.8295  -75.0380 N   0  0  0  0  0  0  0  0  0  0  0  0
   -7.6719    2.9630  -81.4117 F   0  0  0  0  0  0  0  0  0  0  0  0
   -8.2737    1.8060  -81.1487 C   0  0  0  0  0  0  0  0  0  0  0  0
   -9.1774    1.2693  -82.0598 C   0  0  0  0  0  0  0  0  0  0  0  0
   -9.7942    0.0579  -81.7656 C   0  0  0  0  0  0  0  0  0  0  0  0
   -9.5207   -0.6184  -80.5811 C   0  0  0  0  0  0  0  0  0  0  0  0
   -8.6139   -0.0648  -79.6831 C   0  0  0  0  0  0  0  0  0  0  0  0
   -8.3405   -0.6993  -78.5460 F   0  0  0  0  0  0  0  0  0  0  0  0
   -7.9873    1.1458  -79.9586 C   0  0  0  0  0  0  0  0  0  0  0  0
  1  6  2  0
  7  6  1  0
  6  5  1  0
  5  4  2  0
  4  3  1  0
  3  2  2  0
  2  1  1  0
  8 12  1  0
 12 11  1  0
 11 10  2  0
 10  9  1  0
  9  8  2  0
  4  8  1  0
 15 14  1  0
 14 13  1  0
  1 13  1  0
 13 16  2  0
 18 17  2  0
 19 17  2  0
 20 17  1  0
 17 15  1  0
  7 21  2  0
 21 16  1  0
 22 23  1  0
 23 24  2  0
 24 25  1  0
 25 26  2  0
 26 27  1  0
 27 28  1  0
 27 29  2  0
 29 23  1  0
 12 29  1  0
M  END
>  <ESTIMATED_AFFINITY_LOWER [nM]>  (31) 
23657.311481

>  <ESTIMATED_AFFINITY_UPPER [nM]>  (31) 
2350493.768730

>  <TPSA>  (31) 
77.74

>  <logP>  (31) 
2.73699

>  <ID>  (31) 
DLS-NSP13-DF034

>  <original SMILES>  (31) 
CS(=O)(=O)CCc1cncc2cc(-c3nncn3-c3c(F)cccc3F)ccc12

>  <ref_mols>  (31) 
x0212_0,x0276_0,x0280_0

>  <ref_pdb>  (31) 
DLS-NSP13-DF/DLS-NSP13-DF034.pdb

$$$$
DLS-NSP13-DF029
     RDKit          3D

 28 31  0  0  0  0  0  0  0  0999 V2000
  -11.4053    4.3161  -77.0328 C   0  0  0  0  0  0  0  0  0  0  0  0
  -10.4961    4.9181  -77.8998 C   0  0  0  0  0  0  0  0  0  0  0  0
   -9.2482    4.3575  -78.1505 C   0  0  0  0  0  0  0  0  0  0  0  0
   -8.8572    3.1679  -77.5422 C   0  0  0  0  0  0  0  0  0  0  0  0
   -9.7669    2.5676  -76.6773 C   0  0  0  0  0  0  0  0  0  0  0  0
  -11.0172    3.1259  -76.4246 C   0  0  0  0  0  0  0  0  0  0  0  0
  -11.8965    2.4940  -75.5510 C   0  0  0  0  0  0  0  0  0  0  0  0
   -7.4949    2.5502  -77.8119 C   0  0  0  0  0  0  0  0  0  0  0  0
   -6.3724    2.8643  -77.2210 N   0  0  0  0  0  0  0  0  0  0  0  0
   -5.3939    2.1280  -77.6982 N   0  0  0  0  0  0  0  0  0  0  0  0
   -5.8903    1.3221  -78.6113 C   0  0  0  0  0  0  0  0  0  0  0  0
   -7.2302    1.5618  -78.7083 N   0  0  0  0  0  0  0  0  0  0  0  0
   -8.1425    0.9198  -79.5607 C   0  0  0  0  0  0  0  0  0  0  0  0
   -8.7235   -0.2975  -79.2174 C   0  0  0  0  0  0  0  0  0  0  0  0
   -9.5950   -0.9113  -80.0318 N   0  0  0  0  0  0  0  0  0  0  0  0
   -9.9476   -0.3823  -81.2126 C   0  0  0  0  0  0  0  0  0  0  0  0
   -9.4061    0.8320  -81.6206 C   0  0  0  0  0  0  0  0  0  0  0  0
   -8.5007    1.4777  -80.7841 C   0  0  0  0  0  0  0  0  0  0  0  0
   -7.9766    2.6395  -81.1643 F   0  0  0  0  0  0  0  0  0  0  0  0
  -12.6576    4.8749  -76.7761 C   0  0  0  0  0  0  0  0  0  0  0  0
  -13.1207    6.1735  -77.4177 C   0  0  0  0  0  0  0  0  0  0  0  0
  -13.7124    7.0047  -76.4300 O   0  0  0  0  0  0  0  0  0  0  0  0
  -13.5357    4.2417  -75.9028 C   0  0  0  0  0  0  0  0  0  0  0  0
  -15.2463    7.1986  -76.7549 S   0  0  0  0  0  0  0  0  0  0  0  0
  -15.8811    5.9105  -76.8610 O   0  0  0  0  0  0  0  0  0  0  0  0
  -15.3873    7.9074  -78.0004 O   0  0  0  0  0  0  0  0  0  0  0  0
  -16.0286    8.1492  -75.4280 C   0  0  0  0  0  0  0  0  0  0  0  0
  -13.1447    3.0524  -75.2968 C   0  0  0  0  0  0  0  0  0  0  0  0
  1  6  2  0
  7  6  1  0
  6  5  1  0
  5  4  2  0
  4  3  1  0
  3  2  2  0
  2  1  1  0
  8 12  1  0
 13 18  2  0
 19 18  1  0
 18 17  1  0
 17 16  2  0
 16 15  1  0
 15 14  2  0
 14 13  1  0
 13 12  1  0
 12 11  1  0
 11 10  2  0
 10  9  1  0
  9  8  2  0
  4  8  1  0
 22 21  1  0
 21 20  1  0
  1 20  1  0
 20 23  2  0
 25 24  2  0
 26 24  2  0
 27 24  1  0
 24 22  1  0
  7 28  2  0
 28 23  1  0
M  END
>  <ESTIMATED_AFFINITY_LOWER [nM]>  (32) 
43163.205457

>  <ESTIMATED_AFFINITY_UPPER [nM]>  (32) 
4288519.663178

>  <TPSA>  (32) 
86.97

>  <logP>  (32) 
2.14867

>  <ID>  (32) 
DLS-NSP13-DF029

>  <original SMILES>  (32) 
CS(=O)(=O)OCc1cccc2cc(-c3nncn3-c3cnccc3F)ccc12

>  <ref_mols>  (32) 
x0212_0,x0276_0,x0280_0

>  <ref_pdb>  (32) 
DLS-NSP13-DF/DLS-NSP13-DF029.pdb

$$$$
DLS-NSP13-DF030
     RDKit          3D

 28 31  0  0  0  0  0  0  0  0999 V2000
  -11.3726    4.3271  -77.0849 C   0  0  0  0  0  0  0  0  0  0  0  0
  -10.4494    4.8957  -77.9598 C   0  0  0  0  0  0  0  0  0  0  0  0
   -9.2071    4.3130  -78.1872 C   0  0  0  0  0  0  0  0  0  0  0  0
   -8.8359    3.1340  -77.5466 C   0  0  0  0  0  0  0  0  0  0  0  0
   -9.7596    2.5672  -76.6737 C   0  0  0  0  0  0  0  0  0  0  0  0
  -11.0042    3.1477  -76.4444 C   0  0  0  0  0  0  0  0  0  0  0  0
  -11.8979    2.5490  -75.5620 C   0  0  0  0  0  0  0  0  0  0  0  0
   -7.4798    2.4924  -77.7906 C   0  0  0  0  0  0  0  0  0  0  0  0
   -6.3594    2.8006  -77.1929 N   0  0  0  0  0  0  0  0  0  0  0  0
   -5.3865    2.0424  -77.6466 N   0  0  0  0  0  0  0  0  0  0  0  0
   -5.8846    1.2280  -78.5514 C   0  0  0  0  0  0  0  0  0  0  0  0
   -7.2198    1.4852  -78.6673 N   0  0  0  0  0  0  0  0  0  0  0  0
   -8.1320    0.8418  -79.5187 C   0  0  0  0  0  0  0  0  0  0  0  0
   -8.7013   -0.3824  -79.1803 C   0  0  0  0  0  0  0  0  0  0  0  0
   -9.5728   -0.9975  -79.9937 N   0  0  0  0  0  0  0  0  0  0  0  0
   -9.9365   -0.4634  -81.1690 C   0  0  0  0  0  0  0  0  0  0  0  0
   -9.4071    0.7580  -81.5717 C   0  0  0  0  0  0  0  0  0  0  0  0
   -8.5019    1.4053  -80.7361 C   0  0  0  0  0  0  0  0  0  0  0  0
   -7.9892    2.5736  -81.1113 F   0  0  0  0  0  0  0  0  0  0  0  0
  -12.6193    4.9082  -76.8516 C   0  0  0  0  0  0  0  0  0  0  0  0
  -13.0609    6.1961  -77.5287 C   0  0  0  0  0  0  0  0  0  0  0  0
  -13.6052    7.1176  -76.5210 N   0  0  0  0  0  0  0  0  0  0  0  0
  -13.5118    4.3082  -75.9694 C   0  0  0  0  0  0  0  0  0  0  0  0
  -15.2220    7.2236  -76.6987 S   0  0  0  0  0  0  0  0  0  0  0  0
  -15.7827    5.9003  -76.7894 O   0  0  0  0  0  0  0  0  0  0  0  0
  -15.5259    7.9570  -77.9001 O   0  0  0  0  0  0  0  0  0  0  0  0
  -15.9308    8.0826  -75.2718 C   0  0  0  0  0  0  0  0  0  0  0  0
  -13.1405    3.1295  -75.3311 C   0  0  0  0  0  0  0  0  0  0  0  0
  1  6  2  0
  7  6  1  0
  6  5  1  0
  5  4  2  0
  4  3  1  0
  3  2  2  0
  2  1  1  0
  8 12  1  0
 13 18  2  0
 19 18  1  0
 18 17  1  0
 17 16  2  0
 16 15  1  0
 15 14  2  0
 14 13  1  0
 13 12  1  0
 12 11  1  0
 11 10  2  0
 10  9  1  0
  9  8  2  0
  4  8  1  0
 22 21  1  0
 21 20  1  0
  1 20  1  0
 20 23  2  0
 25 24  2  0
 26 24  2  0
 27 24  1  0
 24 22  1  0
  7 28  2  0
 28 23  1  0
M  END
>  <ESTIMATED_AFFINITY_LOWER [nM]>  (33) 
26896.358662

>  <ESTIMATED_AFFINITY_UPPER [nM]>  (33) 
2672312.256941

>  <TPSA>  (33) 
89.77

>  <logP>  (33) 
2.29478

>  <ID>  (33) 
DLS-NSP13-DF030

>  <original SMILES>  (33) 
CS(=O)(=O)NCc1cccc2cc(-c3nncn3-c3cnccc3F)ccc12

>  <ref_mols>  (33) 
x0212_0,x0276_0,x0280_0

>  <ref_pdb>  (33) 
DLS-NSP13-DF/DLS-NSP13-DF030.pdb

$$$$
DLS-NSP13-DF050
     RDKit          3D

 28 31  0  0  0  0  0  0  0  0999 V2000
  -11.2803    4.2866  -77.0727 C   0  0  0  0  0  0  0  0  0  0  0  0
  -10.3381    4.8422  -77.9346 C   0  0  0  0  0  0  0  0  0  0  0  0
   -9.1088    4.2373  -78.1694 C   0  0  0  0  0  0  0  0  0  0  0  0
   -8.8242    3.0427  -77.5179 C   0  0  0  0  0  0  0  0  0  0  0  0
   -9.7407    2.4580  -76.6501 C   0  0  0  0  0  0  0  0  0  0  0  0
  -10.9616    3.0889  -76.4370 C   0  0  0  0  0  0  0  0  0  0  0  0
  -11.8733    2.4985  -75.5676 C   0  0  0  0  0  0  0  0  0  0  0  0
   -7.4821    2.3750  -77.7688 C   0  0  0  0  0  0  0  0  0  0  0  0
   -6.3964    2.5294  -77.0582 N   0  0  0  0  0  0  0  0  0  0  0  0
   -5.4257    1.7986  -77.5590 N   0  0  0  0  0  0  0  0  0  0  0  0
   -5.8902    1.1582  -78.6097 C   0  0  0  0  0  0  0  0  0  0  0  0
   -7.2013    1.5001  -78.7718 N   0  0  0  0  0  0  0  0  0  0  0  0
   -8.0728    1.0435  -79.7681 C   0  0  0  0  0  0  0  0  0  0  0  0
   -8.7609   -0.0981  -79.6133 N   0  0  0  0  0  0  0  0  0  0  0  0
   -9.6002   -0.5495  -80.5576 C   0  0  0  0  0  0  0  0  0  0  0  0
   -9.7885    0.1550  -81.7418 C   0  0  0  0  0  0  0  0  0  0  0  0
   -9.0904    1.3424  -81.9333 C   0  0  0  0  0  0  0  0  0  0  0  0
   -8.2279    1.7844  -80.9359 C   0  0  0  0  0  0  0  0  0  0  0  0
   -7.5620    2.9202  -81.1237 F   0  0  0  0  0  0  0  0  0  0  0  0
  -12.5132    4.8934  -76.8372 C   0  0  0  0  0  0  0  0  0  0  0  0
  -12.9218    6.2015  -77.4981 C   0  0  0  0  0  0  0  0  0  0  0  0
  -13.5667    7.1112  -76.4648 C   0  0  0  0  0  0  0  0  0  0  0  0
  -13.4227    4.3007  -75.9670 C   0  0  0  0  0  0  0  0  0  0  0  0
  -15.3430    7.2300  -76.7905 S   0  0  0  0  0  0  0  0  0  0  0  0
  -15.9110    5.9080  -76.8425 O   0  0  0  0  0  0  0  0  0  0  0  0
  -15.5569    7.8944  -78.0500 O   0  0  0  0  0  0  0  0  0  0  0  0
  -16.1371    8.1759  -75.4671 C   0  0  0  0  0  0  0  0  0  0  0  0
  -13.1039    3.1044  -75.3326 C   0  0  0  0  0  0  0  0  0  0  0  0
  1  6  2  0
  7  6  1  0
  6  5  1  0
  5  4  2  0
  4  3  1  0
  3  2  2  0
  2  1  1  0
  8 12  1  0
 13 18  2  0
 19 18  1  0
 18 17  1  0
 17 16  2  0
 16 15  1  0
 15 14  2  0
 14 13  1  0
 13 12  1  0
 12 11  1  0
 11 10  2  0
 10  9  1  0
  9  8  2  0
  4  8  1  0
 22 21  1  0
 21 20  1  0
  1 20  1  0
 20 23  2  0
 25 24  2  0
 26 24  2  0
 27 24  1  0
 24 22  1  0
  7 28  2  0
 28 23  1  0
M  END
>  <ESTIMATED_AFFINITY_LOWER [nM]>  (34) 
31458.366395

>  <ESTIMATED_AFFINITY_UPPER [nM]>  (34) 
3125574.697923

>  <TPSA>  (34) 
77.74

>  <logP>  (34) 
2.52409

>  <ID>  (34) 
DLS-NSP13-DF050

>  <original SMILES>  (34) 
CS(=O)(=O)CCc1cccc2cc(-c3nncn3-c3ncccc3F)ccc12

>  <ref_mols>  (34) 
x0212_0,x0276_0,x0280_0

>  <ref_pdb>  (34) 
DLS-NSP13-DF/DLS-NSP13-DF050.pdb

$$$$
DLS-NSP13-DF020
     RDKit          3D

 27 30  0  0  0  0  0  0  0  0999 V2000
  -11.3133    3.9212  -76.6440 C   0  0  0  0  0  0  0  0  0  0  0  0
  -10.6514    4.5463  -77.6958 C   0  0  0  0  0  0  0  0  0  0  0  0
   -9.3817    4.1349  -78.0878 C   0  0  0  0  0  0  0  0  0  0  0  0
   -8.7365    3.0866  -77.4406 C   0  0  0  0  0  0  0  0  0  0  0  0
   -9.3983    2.4613  -76.3893 C   0  0  0  0  0  0  0  0  0  0  0  0
  -10.6680    2.8724  -75.9965 C   0  0  0  0  0  0  0  0  0  0  0  0
   -7.4143    2.6753  -77.8658 C   0  0  0  0  0  0  0  0  0  0  0  0
   -6.2784    3.1000  -77.3794 N   0  0  0  0  0  0  0  0  0  0  0  0
   -5.2786    2.5123  -77.9978 N   0  0  0  0  0  0  0  0  0  0  0  0
   -5.7746    1.6918  -78.8981 C   0  0  0  0  0  0  0  0  0  0  0  0
   -7.1359    1.7674  -78.8399 N   0  0  0  0  0  0  0  0  0  0  0  0
   -8.0980    1.0217  -79.6641 C   0  0  0  0  0  0  0  0  0  0  0  0
   -8.4578   -0.2749  -79.3112 C   0  0  0  0  0  0  0  0  0  0  0  0
   -9.3697   -0.9800  -80.0904 C   0  0  0  0  0  0  0  0  0  0  0  0
   -9.9199   -0.3892  -81.2230 C   0  0  0  0  0  0  0  0  0  0  0  0
   -9.5598    0.9072  -81.5757 C   0  0  0  0  0  0  0  0  0  0  0  0
   -8.6489    1.6125  -80.7967 C   0  0  0  0  0  0  0  0  0  0  0  0
   -8.3045    2.8520  -81.1341 F   0  0  0  0  0  0  0  0  0  0  0  0
  -12.7025    4.3892  -76.2332 C   0  0  0  0  0  0  0  0  0  0  0  0
  -13.0546    5.6582  -76.9921 C   0  0  0  0  0  0  0  0  0  0  0  0
  -13.7974    6.5689  -76.1067 N   0  0  0  0  0  0  0  0  0  0  0  0
  -15.3217    7.0492  -76.8242 S   0  0  0  0  0  0  0  0  0  0  0  0
  -16.2636    5.9706  -76.9757 O   0  0  0  0  0  0  0  0  0  0  0  0
  -15.1585    7.7445  -78.0746 O   0  0  0  0  0  0  0  0  0  0  0  0
  -15.6131    8.1310  -75.4702 N   0  0  0  0  0  0  0  0  0  0  0  0
  -13.2510    7.9332  -76.0051 C   0  0  0  0  0  0  0  0  0  0  0  0
  -14.3243    8.8353  -75.4196 C   0  0  0  0  0  0  0  0  0  0  0  0
  1  6  2  0
  6  5  1  0
  5  4  2  0
  4  3  1  0
  3  2  2  0
  2  1  1  0
  7 11  1  0
 12 17  2  0
 18 17  1  0
 17 16  1  0
 16 15  2  0
 15 14  1  0
 14 13  2  0
 13 12  1  0
 12 11  1  0
 11 10  1  0
 10  9  2  0
  9  8  1  0
  8  7  2  0
  4  7  1  0
 21 20  1  0
 20 19  1  0
  1 19  1  0
 23 22  2  0
 24 22  2  0
 25 22  1  0
 22 21  1  0
 21 26  1  0
 25 27  1  0
 27 26  1  0
M  END
>  <ESTIMATED_AFFINITY_LOWER [nM]>  (35) 
240025.801531

>  <ESTIMATED_AFFINITY_UPPER [nM]>  (35) 
23847982.526923

>  <TPSA>  (35) 
80.12

>  <logP>  (35) 
1.64947

>  <ID>  (35) 
DLS-NSP13-DF020

>  <original SMILES>  (35) 
O=S1(=O)NCCN1CCc1ccc(-c2nncn2-c2ccccc2F)cc1

>  <ref_mols>  (35) 
x0212_0,x0276_0,x0280_0

>  <ref_pdb>  (35) 
DLS-NSP13-DF/DLS-NSP13-DF020.pdb

$$$$
DLS-NSP13-DF021
     RDKit          3D

 28 31  0  0  0  0  0  0  0  0999 V2000
  -11.3042    3.8201  -76.5409 C   0  0  0  0  0  0  0  0  0  0  0  0
  -10.6640    4.4722  -77.5898 C   0  0  0  0  0  0  0  0  0  0  0  0
   -9.3954    4.0825  -78.0067 C   0  0  0  0  0  0  0  0  0  0  0  0
   -8.7297    3.0297  -77.3882 C   0  0  0  0  0  0  0  0  0  0  0  0
   -9.3697    2.3777  -76.3398 C   0  0  0  0  0  0  0  0  0  0  0  0
  -10.6384    2.7669  -75.9220 C   0  0  0  0  0  0  0  0  0  0  0  0
   -7.4090    2.6418  -77.8390 C   0  0  0  0  0  0  0  0  0  0  0  0
   -6.2712    3.0726  -77.3624 N   0  0  0  0  0  0  0  0  0  0  0  0
   -5.2736    2.5072  -78.0046 N   0  0  0  0  0  0  0  0  0  0  0  0
   -5.7728    1.6949  -78.9106 C   0  0  0  0  0  0  0  0  0  0  0  0
   -7.1340    1.7528  -78.8315 N   0  0  0  0  0  0  0  0  0  0  0  0
   -8.0990    1.0086  -79.6535 C   0  0  0  0  0  0  0  0  0  0  0  0
   -8.4566   -0.2891  -79.3021 C   0  0  0  0  0  0  0  0  0  0  0  0
   -9.3711   -0.9930  -80.0792 C   0  0  0  0  0  0  0  0  0  0  0  0
   -9.9264   -0.3999  -81.2082 C   0  0  0  0  0  0  0  0  0  0  0  0
   -9.5686    0.8977  -81.5593 C   0  0  0  0  0  0  0  0  0  0  0  0
   -8.6549    1.6016  -80.7824 C   0  0  0  0  0  0  0  0  0  0  0  0
   -8.3127    2.8422  -81.1182 F   0  0  0  0  0  0  0  0  0  0  0  0
  -12.6929    4.2643  -76.1024 C   0  0  0  0  0  0  0  0  0  0  0  0
  -13.2045    5.3365  -77.0506 C   0  0  0  0  0  0  0  0  0  0  0  0
  -13.6632    6.5010  -76.2734 N   0  0  0  0  0  0  0  0  0  0  0  0
  -15.2717    7.0019  -76.7544 S   0  0  0  0  0  0  0  0  0  0  0  0
  -15.2671    7.8683  -77.9900 O   0  0  0  0  0  0  0  0  0  0  0  0
  -16.2040    5.8247  -76.9164 O   0  0  0  0  0  0  0  0  0  0  0  0
  -15.6267    7.8620  -75.3529 N   0  0  0  0  0  0  0  0  0  0  0  0
  -13.8968    6.1796  -74.8673 C   0  0  0  0  0  0  0  0  0  0  0  0
  -14.7999    7.2962  -74.3872 C   0  0  0  0  0  0  0  0  0  0  0  0
  -14.8228    7.6770  -73.2422 O   0  0  0  0  0  0  0  0  0  0  0  0
  1  6  2  0
  6  5  1  0
  5  4  2  0
  4  3  1  0
  3  2  2  0
  2  1  1  0
  7 11  1  0
 12 17  2  0
 18 17  1  0
 17 16  1  0
 16 15  2  0
 15 14  1  0
 14 13  2  0
 13 12  1  0
 12 11  1  0
 11 10  1  0
 10  9  2  0
  9  8  1  0
  8  7  2  0
  4  7  1  0
 21 20  1  0
 20 19  1  0
  1 19  1  0
 23 22  2  0
 24 22  2  0
 25 22  1  0
 22 21  1  0
 21 26  1  0
 25 27  1  0
 27 26  1  0
 27 28  2  0
M  END
>  <ESTIMATED_AFFINITY_LOWER [nM]>  (36) 
164277.179878

>  <ESTIMATED_AFFINITY_UPPER [nM]>  (36) 
16321909.104428

>  <TPSA>  (36) 
97.19

>  <logP>  (36) 
1.19831

>  <ID>  (36) 
DLS-NSP13-DF021

>  <original SMILES>  (36) 
O=C1CN(CCc2ccc(-c3nncn3-c3ccccc3F)cc2)S(=O)(=O)N1

>  <ref_mols>  (36) 
x0212_0,x0276_0,x0280_0

>  <ref_pdb>  (36) 
DLS-NSP13-DF/DLS-NSP13-DF021.pdb

$$$$
DLS-NSP13-DF022
     RDKit          3D

 27 30  0  0  0  0  0  0  0  0999 V2000
  -11.2836    3.5014  -76.3789 C   0  0  0  0  0  0  0  0  0  0  0  0
  -10.6731    4.2506  -77.3797 C   0  0  0  0  0  0  0  0  0  0  0  0
   -9.4009    3.9276  -77.8400 C   0  0  0  0  0  0  0  0  0  0  0  0
   -8.7014    2.8466  -77.3143 C   0  0  0  0  0  0  0  0  0  0  0  0
   -9.3118    2.0975  -76.3140 C   0  0  0  0  0  0  0  0  0  0  0  0
  -10.5842    2.4200  -75.8529 C   0  0  0  0  0  0  0  0  0  0  0  0
   -7.3776    2.5292  -77.8089 C   0  0  0  0  0  0  0  0  0  0  0  0
   -6.2464    2.9829  -77.3378 N   0  0  0  0  0  0  0  0  0  0  0  0
   -5.2430    2.4842  -78.0246 N   0  0  0  0  0  0  0  0  0  0  0  0
   -5.7315    1.6925  -78.9542 C   0  0  0  0  0  0  0  0  0  0  0  0
   -7.0916    1.6945  -78.8444 N   0  0  0  0  0  0  0  0  0  0  0  0
   -8.0462    0.9491  -79.6775 C   0  0  0  0  0  0  0  0  0  0  0  0
   -8.3922   -0.3556  -79.3408 C   0  0  0  0  0  0  0  0  0  0  0  0
   -9.2970   -1.0604  -80.1284 C   0  0  0  0  0  0  0  0  0  0  0  0
   -9.8538   -0.4613  -81.2533 C   0  0  0  0  0  0  0  0  0  0  0  0
   -9.5075    0.8430  -81.5899 C   0  0  0  0  0  0  0  0  0  0  0  0
   -8.6038    1.5481  -80.8026 C   0  0  0  0  0  0  0  0  0  0  0  0
   -8.2726    2.7951  -81.1246 F   0  0  0  0  0  0  0  0  0  0  0  0
  -12.6768    3.8741  -75.8915 C   0  0  0  0  0  0  0  0  0  0  0  0
  -13.0888    5.2034  -76.5029 C   0  0  0  0  0  0  0  0  0  0  0  0
  -13.6163    6.1206  -75.4123 C   0  0  0  0  0  0  0  0  0  0  0  0
  -14.8138    5.5474  -74.9528 O   0  0  0  0  0  0  0  0  0  0  0  0
  -15.0695    6.7172  -73.7245 P   0  0  0  0  0  0  0  0  0  0  0  0
  -14.1661    7.4139  -75.9715 C   0  0  0  0  0  0  0  0  0  0  0  0
  -14.5838    8.1618  -74.7258 C   0  0  0  0  0  0  0  0  0  0  0  0
  -16.5007    6.7682  -73.2455 O   0  0  0  0  0  0  0  0  0  0  0  0
  -14.0462    6.5331  -72.5083 O   0  0  0  0  0  0  0  0  0  0  0  0
  1  6  2  0
  6  5  1  0
  5  4  2  0
  4  3  1  0
  3  2  2  0
  2  1  1  0
  7 11  1  0
 12 17  2  0
 18 17  1  0
 17 16  1  0
 16 15  2  0
 15 14  1  0
 14 13  2  0
 13 12  1  0
 12 11  1  0
 11 10  1  0
 10  9  2  0
  9  8  1  0
  8  7  2  0
  4  7  1  0
 21 20  1  0
 20 19  1  0
  1 19  1  0
 23 22  1  0
 22 21  1  0
 21 24  1  0
 23 25  1  0
 25 24  1  0
 23 26  1  0
 23 27  2  0
M  END
>  <ESTIMATED_AFFINITY_LOWER [nM]>  (37) 
1524569.865355

>  <ESTIMATED_AFFINITY_UPPER [nM]>  (37) 
151475030.093436

>  <TPSA>  (37) 
77.24

>  <logP>  (37) 
3.30234

>  <ID>  (37) 
DLS-NSP13-DF022

>  <original SMILES>  (37) 
O=P1(O)CCC(CCc2ccc(-c3nncn3-c3ccccc3F)cc2)O1

>  <ref_mols>  (37) 
x0212_0,x0276_0,x0280_0

>  <ref_pdb>  (37) 
DLS-NSP13-DF/DLS-NSP13-DF022.pdb

$$$$
DLS-NSP13-DF023
     RDKit          3D

 27 29  0  0  0  0  0  0  0  0999 V2000
  -11.0618    4.3905  -76.9327 C   0  0  0  0  0  0  0  0  0  0  0  0
  -10.3763    4.7354  -78.0930 C   0  0  0  0  0  0  0  0  0  0  0  0
   -9.1468    4.1596  -78.3958 C   0  0  0  0  0  0  0  0  0  0  0  0
   -8.5665    3.2220  -77.5484 C   0  0  0  0  0  0  0  0  0  0  0  0
   -9.2517    2.8769  -76.3884 C   0  0  0  0  0  0  0  0  0  0  0  0
  -10.4813    3.4525  -76.0848 C   0  0  0  0  0  0  0  0  0  0  0  0
   -7.2852    2.6356  -77.8838 C   0  0  0  0  0  0  0  0  0  0  0  0
   -6.1525    2.8472  -77.2676 N   0  0  0  0  0  0  0  0  0  0  0  0
   -5.1956    2.1490  -77.8371 N   0  0  0  0  0  0  0  0  0  0  0  0
   -5.7168    1.4724  -78.8371 C   0  0  0  0  0  0  0  0  0  0  0  0
   -7.0502    1.7562  -78.8948 N   0  0  0  0  0  0  0  0  0  0  0  0
   -8.0265    1.2213  -79.8550 C   0  0  0  0  0  0  0  0  0  0  0  0
   -8.6632    0.0114  -79.5986 C   0  0  0  0  0  0  0  0  0  0  0  0
   -9.5881   -0.4938  -80.5068 C   0  0  0  0  0  0  0  0  0  0  0  0
   -9.8748    0.2097  -81.6718 C   0  0  0  0  0  0  0  0  0  0  0  0
   -9.2380    1.4195  -81.9281 C   0  0  0  0  0  0  0  0  0  0  0  0
   -8.3138    1.9251  -81.0202 C   0  0  0  0  0  0  0  0  0  0  0  0
   -7.7048    3.0817  -81.2654 F   0  0  0  0  0  0  0  0  0  0  0  0
  -12.3156    4.9908  -76.6435 O   0  0  0  0  0  0  0  0  0  0  0  0
  -13.2349    4.3115  -76.0035 C   0  0  0  0  0  0  0  0  0  0  0  0
  -14.3246    4.9023  -75.6113 C   0  0  0  0  0  0  0  0  0  0  0  0
  -14.2487    6.0748  -74.6468 C   0  0  0  0  0  0  0  0  0  0  0  0
  -14.4395    5.9009  -73.4750 O   0  0  0  0  0  0  0  0  0  0  0  0
  -15.6746    4.4207  -76.1172 C   0  0  0  0  0  0  0  0  0  0  0  0
  -15.7373    3.6004  -77.1367 O   0  0  0  0  0  0  0  0  0  0  0  0
  -16.6828    4.7918  -75.5828 O   0  0  0  0  0  0  0  0  0  0  0  0
  -13.9746    7.2748  -75.0951 O   0  0  0  0  0  0  0  0  0  0  0  0
  1  6  2  0
  6  5  1  0
  5  4  2  0
  4  3  1  0
  3  2  2  0
  2  1  1  0
  7 11  1  0
 12 17  2  0
 18 17  1  0
 17 16  1  0
 16 15  2  0
 15 14  1  0
 14 13  2  0
 13 12  1  0
 12 11  1  0
 11 10  1  0
 10  9  2  0
  9  8  1  0
  8  7  2  0
  4  7  1  0
 21 20  2  3
 20 19  1  0
  1 19  1  0
 21 22  1  0
 22 23  2  0
 21 24  1  0
 24 25  2  0
 24 26  1  0
 22 27  1  0
M  CHG  2  26  -1  27  -1
M  END
>  <ESTIMATED_AFFINITY_LOWER [nM]>  (38) 
77101.677747

>  <ESTIMATED_AFFINITY_UPPER [nM]>  (38) 
7660507.545337

>  <TPSA>  (38) 
120.2

>  <logP>  (38) 
2.66344

>  <ID>  (38) 
DLS-NSP13-DF023

>  <original SMILES>  (38) 
O=C([O-])C(=COc1ccc(-c2nncn2-c2ccccc2F)cc1)C(=O)[O-]

>  <ref_mols>  (38) 
x0212_0,x0276_0,x0280_0

>  <ref_pdb>  (38) 
DLS-NSP13-DF/DLS-NSP13-DF023.pdb

$$$$
DLS-NSP13-DF024
     RDKit          3D

 27 29  0  0  0  0  0  0  0  0999 V2000
  -10.6936    4.2572  -77.2025 C   0  0  0  0  0  0  0  0  0  0  0  0
   -9.8637    4.4564  -78.3011 C   0  0  0  0  0  0  0  0  0  0  0  0
   -8.7536    3.6463  -78.5157 C   0  0  0  0  0  0  0  0  0  0  0  0
   -8.4403    2.6130  -77.6392 C   0  0  0  0  0  0  0  0  0  0  0  0
   -9.2699    2.4134  -76.5409 C   0  0  0  0  0  0  0  0  0  0  0  0
  -10.3803    3.2234  -76.3256 C   0  0  0  0  0  0  0  0  0  0  0  0
   -7.2791    1.7820  -77.8824 C   0  0  0  0  0  0  0  0  0  0  0  0
   -6.1696    1.7819  -77.1922 N   0  0  0  0  0  0  0  0  0  0  0  0
   -5.3324    0.8997  -77.6903 N   0  0  0  0  0  0  0  0  0  0  0  0
   -5.9093    0.3170  -78.7184 C   0  0  0  0  0  0  0  0  0  0  0  0
   -7.1549    0.8533  -78.8687 N   0  0  0  0  0  0  0  0  0  0  0  0
   -8.1521    0.4988  -79.8891 C   0  0  0  0  0  0  0  0  0  0  0  0
   -8.9054   -0.6624  -79.7517 C   0  0  0  0  0  0  0  0  0  0  0  0
   -9.8499   -0.9968  -80.7169 C   0  0  0  0  0  0  0  0  0  0  0  0
  -10.0398   -0.1712  -81.8198 C   0  0  0  0  0  0  0  0  0  0  0  0
   -9.2864    0.9900  -81.9572 C   0  0  0  0  0  0  0  0  0  0  0  0
   -8.3425    1.3248  -80.9923 C   0  0  0  0  0  0  0  0  0  0  0  0
   -7.6220    2.4350  -81.1238 F   0  0  0  0  0  0  0  0  0  0  0  0
  -11.9011    5.1553  -76.9890 C   0  0  0  0  0  0  0  0  0  0  0  0
  -13.0492    4.3349  -76.4241 C   0  0  0  0  0  0  0  0  0  0  0  0
  -14.1286    4.9280  -76.0076 C   0  0  0  0  0  0  0  0  0  0  0  0
  -14.0504    5.9461  -74.8815 C   0  0  0  0  0  0  0  0  0  0  0  0
  -14.3508    5.6288  -73.7640 O   0  0  0  0  0  0  0  0  0  0  0  0
  -15.4690    4.6036  -76.6469 C   0  0  0  0  0  0  0  0  0  0  0  0
  -15.5202    3.8352  -77.7066 O   0  0  0  0  0  0  0  0  0  0  0  0
  -16.4800    5.0512  -76.1808 O   0  0  0  0  0  0  0  0  0  0  0  0
  -13.6544    7.1696  -75.1311 O   0  0  0  0  0  0  0  0  0  0  0  0
  1  6  2  0
  6  5  1  0
  5  4  2  0
  4  3  1  0
  3  2  2  0
  2  1  1  0
  7 11  1  0
 12 17  2  0
 18 17  1  0
 17 16  1  0
 16 15  2  0
 15 14  1  0
 14 13  2  0
 13 12  1  0
 12 11  1  0
 11 10  1  0
 10  9  2  0
  9  8  1  0
  8  7  2  0
  4  7  1  0
 21 20  2  3
 20 19  1  0
  1 19  1  0
 21 22  1  0
 22 23  2  0
 21 24  1  0
 24 25  2  0
 24 26  1  0
 22 27  1  0
M  CHG  2  26  -1  27  -1
M  END
>  <ESTIMATED_AFFINITY_LOWER [nM]>  (39) 
474892.119248

>  <ESTIMATED_AFFINITY_UPPER [nM]>  (39) 
47183339.831731

>  <TPSA>  (39) 
110.97

>  <logP>  (39) 
3.114

>  <ID>  (39) 
DLS-NSP13-DF024

>  <original SMILES>  (39) 
O=C([O-])C(=CCc1ccc(-c2nncn2-c2ccccc2F)cc1)C(=O)[O-]

>  <ref_mols>  (39) 
x0212_0,x0276_0,x0280_0

>  <ref_pdb>  (39) 
DLS-NSP13-DF/DLS-NSP13-DF024.pdb

$$$$
DLS-NSP13-DF035
     RDKit          3D

 30 33  0  0  0  0  0  0  0  0999 V2000
  -11.1804    3.5389  -76.4224 C   0  0  0  0  0  0  0  0  0  0  0  0
  -10.4150    4.4315  -77.1684 C   0  0  0  0  0  0  0  0  0  0  0  0
   -9.1481    4.1023  -77.6359 C   0  0  0  0  0  0  0  0  0  0  0  0
   -8.6421    2.8410  -77.3429 C   0  0  0  0  0  0  0  0  0  0  0  0
   -9.3777    1.9229  -76.6009 C   0  0  0  0  0  0  0  0  0  0  0  0
  -10.6420    2.2838  -76.1478 C   0  0  0  0  0  0  0  0  0  0  0  0
  -11.3721    1.3607  -75.4059 C   0  0  0  0  0  0  0  0  0  0  0  0
   -7.3224    2.4905  -77.8263 C   0  0  0  0  0  0  0  0  0  0  0  0
   -6.1843    2.9167  -77.3461 N   0  0  0  0  0  0  0  0  0  0  0  0
   -5.1878    2.3927  -78.0241 N   0  0  0  0  0  0  0  0  0  0  0  0
   -5.6879    1.6128  -78.9574 C   0  0  0  0  0  0  0  0  0  0  0  0
   -7.0485    1.6483  -78.8590 N   0  0  0  0  0  0  0  0  0  0  0  0
  -12.4510    3.8693  -75.9534 C   0  0  0  0  0  0  0  0  0  0  0  0
  -13.0954    5.2222  -76.2170 C   0  0  0  0  0  0  0  0  0  0  0  0
  -14.2072    5.0630  -77.2416 C   0  0  0  0  0  0  0  0  0  0  0  0
  -13.6360    5.7329  -75.0072 O   0  0  0  0  0  0  0  0  0  0  0  0
  -13.1785    2.9439  -75.2114 C   0  0  0  0  0  0  0  0  0  0  0  0
  -14.9352    6.6811  -77.5980 S   0  0  0  0  0  0  0  0  0  0  0  0
  -16.2119    6.7885  -76.9409 O   0  0  0  0  0  0  0  0  0  0  0  0
  -15.1134    6.8248  -79.0197 O   0  0  0  0  0  0  0  0  0  0  0  0
  -13.8341    7.9845  -76.9936 C   0  0  0  0  0  0  0  0  0  0  0  0
  -12.6403    1.6906  -74.9378 C   0  0  0  0  0  0  0  0  0  0  0  0
   -8.1177    2.7941  -81.1181 F   0  0  0  0  0  0  0  0  0  0  0  0
   -8.4973    1.5603  -80.7972 C   0  0  0  0  0  0  0  0  0  0  0  0
   -9.4127    0.8839  -81.5969 C   0  0  0  0  0  0  0  0  0  0  0  0
   -9.7946   -0.4060  -81.2437 C   0  0  0  0  0  0  0  0  0  0  0  0
   -9.2762   -1.0234  -80.1100 C   0  0  0  0  0  0  0  0  0  0  0  0
   -8.3619   -0.3302  -79.3236 C   0  0  0  0  0  0  0  0  0  0  0  0
   -7.8562   -0.9069  -78.2364 F   0  0  0  0  0  0  0  0  0  0  0  0
   -7.9680    0.9606  -79.6593 C   0  0  0  0  0  0  0  0  0  0  0  0
  1  6  2  0
  7  6  1  0
  6  5  1  0
  5  4  2  0
  4  3  1  0
  3  2  2  0
  2  1  1  0
  8 12  1  0
 12 11  1  0
 11 10  2  0
 10  9  1  0
  9  8  2  0
  4  8  1  0
 15 14  1  0
 14 13  1  0
 14 16  1  0
  1 13  1  0
 13 17  2  0
 19 18  2  0
 20 18  2  0
 21 18  1  0
 18 15  1  0
  7 22  2  0
 22 17  1  0
 23 24  1  0
 24 25  2  0
 25 26  1  0
 26 27  2  0
 27 28  1  0
 28 29  1  0
 28 30  2  0
 30 24  1  0
 12 30  1  0
M  END
>  <ESTIMATED_AFFINITY_LOWER [nM]>  (40) 
179109.959715

>  <ESTIMATED_AFFINITY_UPPER [nM]>  (40) 
17795633.479621

>  <TPSA>  (40) 
85.08

>  <logP>  (40) 
3.0177

>  <ID>  (40) 
DLS-NSP13-DF035

>  <original SMILES>  (40) 
CS(=O)(=O)CC(O)c1cccc2cc(-c3nncn3-c3c(F)cccc3F)ccc12

>  <ref_mols>  (40) 
x0212_0,x0276_0,x0280_0

>  <ref_pdb>  (40) 
DLS-NSP13-DF/DLS-NSP13-DF035.pdb

$$$$
DLS-NSP13-DF036
     RDKit          3D

 30 33  0  0  0  0  0  0  0  0999 V2000
  -11.1746    3.4098  -76.2682 C   0  0  0  0  0  0  0  0  0  0  0  0
  -10.4714    4.3201  -77.0549 C   0  0  0  0  0  0  0  0  0  0  0  0
   -9.2104    4.0230  -77.5586 C   0  0  0  0  0  0  0  0  0  0  0  0
   -8.6517    2.7851  -77.2613 C   0  0  0  0  0  0  0  0  0  0  0  0
   -9.3290    1.8557  -76.4788 C   0  0  0  0  0  0  0  0  0  0  0  0
  -10.5893    2.1792  -75.9880 C   0  0  0  0  0  0  0  0  0  0  0  0
  -11.2763    1.2570  -75.2059 C   0  0  0  0  0  0  0  0  0  0  0  0
   -7.3380    2.4588  -77.7771 C   0  0  0  0  0  0  0  0  0  0  0  0
   -6.1954    2.8900  -77.3121 N   0  0  0  0  0  0  0  0  0  0  0  0
   -5.2068    2.3901  -78.0191 N   0  0  0  0  0  0  0  0  0  0  0  0
   -5.7166    1.6206  -78.9560 C   0  0  0  0  0  0  0  0  0  0  0  0
   -7.0752    1.6382  -78.8299 N   0  0  0  0  0  0  0  0  0  0  0  0
  -12.4396    3.6955  -75.7566 C   0  0  0  0  0  0  0  0  0  0  0  0
  -13.1473    5.0163  -76.0162 C   0  0  0  0  0  0  0  0  0  0  0  0
  -14.4137    4.7633  -76.8182 C   0  0  0  0  0  0  0  0  0  0  0  0
  -13.4847    5.6241  -74.7779 O   0  0  0  0  0  0  0  0  0  0  0  0
  -13.0817    2.7894  -75.0039 N   0  0  0  0  0  0  0  0  0  0  0  0
  -15.0888    6.3410  -77.3931 S   0  0  0  0  0  0  0  0  0  0  0  0
  -16.3294    6.6089  -76.7129 O   0  0  0  0  0  0  0  0  0  0  0  0
  -15.3242    6.2743  -78.8123 O   0  0  0  0  0  0  0  0  0  0  0  0
  -13.9086    7.6671  -77.0395 C   0  0  0  0  0  0  0  0  0  0  0  0
  -12.5356    1.5970  -74.7234 C   0  0  0  0  0  0  0  0  0  0  0  0
   -8.1707    2.7951  -81.0707 F   0  0  0  0  0  0  0  0  0  0  0  0
   -8.5451    1.5590  -80.7524 C   0  0  0  0  0  0  0  0  0  0  0  0
   -9.4684    0.8860  -81.5457 C   0  0  0  0  0  0  0  0  0  0  0  0
   -9.8449   -0.4063  -81.1955 C   0  0  0  0  0  0  0  0  0  0  0  0
   -9.3133   -1.0294  -80.0710 C   0  0  0  0  0  0  0  0  0  0  0  0
   -8.3913   -0.3394  -79.2908 C   0  0  0  0  0  0  0  0  0  0  0  0
   -7.8729   -0.9214  -78.2125 F   0  0  0  0  0  0  0  0  0  0  0  0
   -8.0027    0.9538  -79.6238 C   0  0  0  0  0  0  0  0  0  0  0  0
  1  6  2  0
  7  6  1  0
  6  5  1  0
  5  4  2  0
  4  3  1  0
  3  2  2  0
  2  1  1  0
  8 12  1  0
 12 11  1  0
 11 10  2  0
 10  9  1  0
  9  8  2  0
  4  8  1  0
 15 14  1  0
 14 13  1  0
 14 16  1  0
  1 13  1  0
 13 17  2  0
 19 18  2  0
 20 18  2  0
 21 18  1  0
 18 15  1  0
  7 22  2  0
 22 17  1  0
 23 24  1  0
 24 25  2  0
 25 26  1  0
 26 27  2  0
 27 28  1  0
 28 29  1  0
 28 30  2  0
 30 24  1  0
 12 30  1  0
M  END
>  <ESTIMATED_AFFINITY_LOWER [nM]>  (41) 
197717.988596

>  <ESTIMATED_AFFINITY_UPPER [nM]>  (41) 
19644451.168281

>  <TPSA>  (41) 
97.97

>  <logP>  (41) 
2.15551

>  <ID>  (41) 
DLS-NSP13-DF036

>  <original SMILES>  (41) 
CS(=O)(=O)CC(O)c1nccc2cc(-c3nncn3-c3c(F)cccc3F)ccc12

>  <ref_mols>  (41) 
x0212_0,x0276_0,x0280_0

>  <ref_pdb>  (41) 
DLS-NSP13-DF/DLS-NSP13-DF036.pdb

$$$$
DLS-NSP13-DF037
     RDKit          3D

 26 28  0  0  0  0  0  0  0  0999 V2000
  -11.3136    3.9727  -76.6255 C   0  0  0  0  0  0  0  0  0  0  0  0
  -10.6509    4.5670  -77.6947 C   0  0  0  0  0  0  0  0  0  0  0  0
   -9.3876    4.1172  -78.0671 C   0  0  0  0  0  0  0  0  0  0  0  0
   -8.7624    3.0746  -77.3900 C   0  0  0  0  0  0  0  0  0  0  0  0
   -9.4381    2.4905  -76.3231 C   0  0  0  0  0  0  0  0  0  0  0  0
  -10.7012    2.9290  -75.9391 C   0  0  0  0  0  0  0  0  0  0  0  0
   -7.3826    2.5892  -77.8032 C   0  0  0  0  0  0  0  0  0  0  0  0
   -6.2557    2.8547  -77.1973 N   0  0  0  0  0  0  0  0  0  0  0  0
   -5.2607    2.2686  -77.8251 N   0  0  0  0  0  0  0  0  0  0  0  0
   -5.7508    1.6109  -78.8531 C   0  0  0  0  0  0  0  0  0  0  0  0
   -7.1035    1.7907  -78.8686 N   0  0  0  0  0  0  0  0  0  0  0  0
  -12.6947    4.4480  -76.2034 C   0  0  0  0  0  0  0  0  0  0  0  0
  -13.0318    5.7376  -76.9339 C   0  0  0  0  0  0  0  0  0  0  0  0
  -13.7179    6.6980  -75.9757 C   0  0  0  0  0  0  0  0  0  0  0  0
  -15.3750    7.0844  -76.5924 S   0  0  0  0  0  0  0  0  0  0  0  0
  -16.0769    5.8610  -76.8822 O   0  0  0  0  0  0  0  0  0  0  0  0
  -15.2689    7.8729  -77.7927 O   0  0  0  0  0  0  0  0  0  0  0  0
  -16.2838    8.0181  -75.3361 C   0  0  0  0  0  0  0  0  0  0  0  0
   -7.7352    3.0797  -81.2571 F   0  0  0  0  0  0  0  0  0  0  0  0
   -8.3397    1.9192  -81.0179 C   0  0  0  0  0  0  0  0  0  0  0  0
   -9.2422    1.4017  -81.9411 C   0  0  0  0  0  0  0  0  0  0  0  0
   -9.8619    0.1860  -81.6715 C   0  0  0  0  0  0  0  0  0  0  0  0
   -9.5925   -0.5133  -80.4996 C   0  0  0  0  0  0  0  0  0  0  0  0
   -8.6868    0.0214  -79.5890 C   0  0  0  0  0  0  0  0  0  0  0  0
   -8.4173   -0.6353  -78.4636 F   0  0  0  0  0  0  0  0  0  0  0  0
   -8.0574    1.2358  -79.8399 C   0  0  0  0  0  0  0  0  0  0  0  0
  1  6  2  0
  6  5  1  0
  5  4  2  0
  4  3  1  0
  3  2  2  0
  2  1  1  0
  7 11  1  0
 11 10  1  0
 10  9  2  0
  9  8  1  0
  8  7  2  0
  4  7  1  0
 14 13  1  0
 13 12  1  0
  1 12  1  0
 16 15  2  0
 17 15  2  0
 18 15  1  0
 15 14  1  0
 19 20  1  0
 20 21  2  0
 21 22  1  0
 22 23  2  0
 23 24  1  0
 24 25  1  0
 24 26  2  0
 26 20  1  0
 11 26  1  0
M  END
>  <ESTIMATED_AFFINITY_LOWER [nM]>  (42) 
17079.253946

>  <ESTIMATED_AFFINITY_UPPER [nM]>  (42) 
1696924.860068

>  <TPSA>  (42) 
64.85

>  <logP>  (42) 
2.87076

>  <ID>  (42) 
DLS-NSP13-DF037

>  <original SMILES>  (42) 
CS(=O)(=O)CCCc1ccc(-c2nncn2-c2c(F)cccc2F)cc1

>  <ref_mols>  (42) 
x0212_0,x0276_0,x0280_0

>  <ref_pdb>  (42) 
DLS-NSP13-DF/DLS-NSP13-DF037.pdb

$$$$
DLS-NSP13-DF040
     RDKit          3D

 26 28  0  0  0  0  0  0  0  0999 V2000
  -11.2716    4.0374  -76.6528 C   0  0  0  0  0  0  0  0  0  0  0  0
  -10.6153    4.5965  -77.7447 C   0  0  0  0  0  0  0  0  0  0  0  0
   -9.3571    4.1300  -78.1137 C   0  0  0  0  0  0  0  0  0  0  0  0
   -8.7309    3.1053  -77.4109 C   0  0  0  0  0  0  0  0  0  0  0  0
   -9.4000    2.5564  -76.3214 C   0  0  0  0  0  0  0  0  0  0  0  0
  -10.6580    3.0119  -75.9405 C   0  0  0  0  0  0  0  0  0  0  0  0
   -7.3566    2.6015  -77.8207 C   0  0  0  0  0  0  0  0  0  0  0  0
   -6.2268    2.8581  -77.2165 N   0  0  0  0  0  0  0  0  0  0  0  0
   -5.2385    2.2566  -77.8402 N   0  0  0  0  0  0  0  0  0  0  0  0
   -5.7359    1.5976  -78.8639 C   0  0  0  0  0  0  0  0  0  0  0  0
   -7.0865    1.7928  -78.8808 N   0  0  0  0  0  0  0  0  0  0  0  0
  -12.6470    4.5314  -76.2338 C   0  0  0  0  0  0  0  0  0  0  0  0
  -13.0449    5.7163  -77.0987 C   0  0  0  0  0  0  0  0  0  0  0  0
  -13.5031    6.7744  -76.2697 O   0  0  0  0  0  0  0  0  0  0  0  0
  -15.0221    7.0719  -76.5869 S   0  0  0  0  0  0  0  0  0  0  0  0
  -15.7085    5.8340  -76.8518 O   0  0  0  0  0  0  0  0  0  0  0  0
  -15.1129    7.9276  -77.7415 O   0  0  0  0  0  0  0  0  0  0  0  0
  -15.7856    7.8929  -75.1660 C   0  0  0  0  0  0  0  0  0  0  0  0
   -7.7158    3.0812  -81.2703 F   0  0  0  0  0  0  0  0  0  0  0  0
   -8.3275    1.9252  -81.0270 C   0  0  0  0  0  0  0  0  0  0  0  0
   -9.2358    1.4117  -81.9470 C   0  0  0  0  0  0  0  0  0  0  0  0
   -9.8630    0.2009  -81.6731 C   0  0  0  0  0  0  0  0  0  0  0  0
   -9.5950   -0.4978  -80.5005 C   0  0  0  0  0  0  0  0  0  0  0  0
   -8.6835    0.0326  -79.5934 C   0  0  0  0  0  0  0  0  0  0  0  0
   -8.4155   -0.6236  -78.4673 F   0  0  0  0  0  0  0  0  0  0  0  0
   -8.0466    1.2422  -79.8483 C   0  0  0  0  0  0  0  0  0  0  0  0
  1  6  2  0
  6  5  1  0
  5  4  2  0
  4  3  1  0
  3  2  2  0
  2  1  1  0
  7 11  1  0
 11 10  1  0
 10  9  2  0
  9  8  1  0
  8  7  2  0
  4  7  1  0
 14 13  1  0
 13 12  1  0
  1 12  1  0
 16 15  2  0
 17 15  2  0
 18 15  1  0
 15 14  1  0
 19 20  1  0
 20 21  2  0
 21 22  1  0
 22 23  2  0
 23 24  1  0
 24 25  1  0
 24 26  2  0
 26 20  1  0
 11 26  1  0
M  END
>  <ESTIMATED_AFFINITY_LOWER [nM]>  (43) 
44842.762800

>  <ESTIMATED_AFFINITY_UPPER [nM]>  (43) 
4455393.615583

>  <TPSA>  (43) 
74.08

>  <logP>  (43) 
2.45

>  <ID>  (43) 
DLS-NSP13-DF040

>  <original SMILES>  (43) 
CS(=O)(=O)OCCc1ccc(-c2nncn2-c2c(F)cccc2F)cc1

>  <ref_mols>  (43) 
x0212_0,x0276_0,x0280_0

>  <ref_pdb>  (43) 
DLS-NSP13-DF/DLS-NSP13-DF040.pdb

$$$$
DLS-NSP13-DF041
     RDKit          3D

 26 28  0  0  0  0  0  0  0  0999 V2000
  -11.2573    4.0232  -76.6415 C   0  0  0  0  0  0  0  0  0  0  0  0
  -10.6061    4.5833  -77.7360 C   0  0  0  0  0  0  0  0  0  0  0  0
   -9.3486    4.1189  -78.1100 C   0  0  0  0  0  0  0  0  0  0  0  0
   -8.7179    3.0954  -77.4095 C   0  0  0  0  0  0  0  0  0  0  0  0
   -9.3819    2.5455  -76.3174 C   0  0  0  0  0  0  0  0  0  0  0  0
  -10.6391    2.9989  -75.9315 C   0  0  0  0  0  0  0  0  0  0  0  0
   -7.3444    2.5938  -77.8246 C   0  0  0  0  0  0  0  0  0  0  0  0
   -6.2128    2.8514  -77.2239 N   0  0  0  0  0  0  0  0  0  0  0  0
   -5.2260    2.2518  -77.8518 N   0  0  0  0  0  0  0  0  0  0  0  0
   -5.7260    1.5934  -78.8744 C   0  0  0  0  0  0  0  0  0  0  0  0
   -7.0770    1.7866  -78.8865 N   0  0  0  0  0  0  0  0  0  0  0  0
  -12.6319    4.5148  -76.2172 C   0  0  0  0  0  0  0  0  0  0  0  0
  -13.0509    5.6759  -77.1043 C   0  0  0  0  0  0  0  0  0  0  0  0
  -13.5224    6.7876  -76.2660 N   0  0  0  0  0  0  0  0  0  0  0  0
  -15.0894    7.0909  -76.5971 S   0  0  0  0  0  0  0  0  0  0  0  0
  -15.7768    5.8500  -76.8440 O   0  0  0  0  0  0  0  0  0  0  0  0
  -15.1797    7.9302  -77.7638 O   0  0  0  0  0  0  0  0  0  0  0  0
  -15.8517    7.9330  -75.1879 C   0  0  0  0  0  0  0  0  0  0  0  0
   -7.7130    3.0748  -81.2744 F   0  0  0  0  0  0  0  0  0  0  0  0
   -8.3238    1.9188  -81.0293 C   0  0  0  0  0  0  0  0  0  0  0  0
   -9.2347    1.4051  -81.9466 C   0  0  0  0  0  0  0  0  0  0  0  0
   -9.8608    0.1942  -81.6711 C   0  0  0  0  0  0  0  0  0  0  0  0
   -9.5896   -0.5044  -80.4991 C   0  0  0  0  0  0  0  0  0  0  0  0
   -8.6755    0.0262  -79.5946 C   0  0  0  0  0  0  0  0  0  0  0  0
   -8.4043   -0.6298  -78.4693 F   0  0  0  0  0  0  0  0  0  0  0  0
   -8.0395    1.2360  -79.8513 C   0  0  0  0  0  0  0  0  0  0  0  0
  1  6  2  0
  6  5  1  0
  5  4  2  0
  4  3  1  0
  3  2  2  0
  2  1  1  0
  7 11  1  0
 11 10  1  0
 10  9  2  0
  9  8  1  0
  8  7  2  0
  4  7  1  0
 14 13  1  0
 13 12  1  0
  1 12  1  0
 16 15  2  0
 17 15  2  0
 18 15  1  0
 15 14  1  0
 19 20  1  0
 20 21  2  0
 21 22  1  0
 22 23  2  0
 23 24  1  0
 24 25  1  0
 24 26  2  0
 26 20  1  0
 11 26  1  0
M  END
>  <ESTIMATED_AFFINITY_LOWER [nM]>  (44) 
35834.704299

>  <ESTIMATED_AFFINITY_UPPER [nM]>  (44) 
3560389.743689

>  <TPSA>  (44) 
76.88

>  <logP>  (44) 
2.65374

>  <ID>  (44) 
DLS-NSP13-DF041

>  <original SMILES>  (44) 
CS(=O)(=O)NCCc1ccc(-c2nncn2-c2c(F)cccc2F)cc1

>  <ref_mols>  (44) 
x0212_0,x0276_0,x0280_0

>  <ref_pdb>  (44) 
DLS-NSP13-DF/DLS-NSP13-DF041.pdb

$$$$
DLS-NSP13-DF045
     RDKit          3D

 28 31  0  0  0  0  0  0  0  0999 V2000
  -11.2369    4.2324  -77.0935 C   0  0  0  0  0  0  0  0  0  0  0  0
  -10.3720    4.8675  -77.9821 C   0  0  0  0  0  0  0  0  0  0  0  0
   -9.1205    4.3402  -78.2825 C   0  0  0  0  0  0  0  0  0  0  0  0
   -8.6813    3.1522  -77.7049 C   0  0  0  0  0  0  0  0  0  0  0  0
   -9.5469    2.5188  -76.8184 C   0  0  0  0  0  0  0  0  0  0  0  0
  -10.8006    3.0437  -76.5158 C   0  0  0  0  0  0  0  0  0  0  0  0
  -11.6347    2.3792  -75.6222 C   0  0  0  0  0  0  0  0  0  0  0  0
   -7.3150    2.5708  -78.0290 C   0  0  0  0  0  0  0  0  0  0  0  0
   -6.1988    2.8190  -77.3965 N   0  0  0  0  0  0  0  0  0  0  0  0
   -5.2140    2.1423  -77.9437 N   0  0  0  0  0  0  0  0  0  0  0  0
   -5.6998    1.4423  -78.9455 C   0  0  0  0  0  0  0  0  0  0  0  0
   -7.0395    1.6890  -79.0277 N   0  0  0  0  0  0  0  0  0  0  0  0
  -12.4924    4.7577  -76.7869 C   0  0  0  0  0  0  0  0  0  0  0  0
  -13.0073    6.0534  -77.3939 C   0  0  0  0  0  0  0  0  0  0  0  0
  -13.6585    6.8971  -76.3098 C   0  0  0  0  0  0  0  0  0  0  0  0
  -13.3253    4.0920  -75.8935 C   0  0  0  0  0  0  0  0  0  0  0  0
  -15.4031    7.1575  -76.7146 S   0  0  0  0  0  0  0  0  0  0  0  0
  -16.0582    5.8833  -76.8582 O   0  0  0  0  0  0  0  0  0  0  0  0
  -15.5052    7.8916  -77.9493 O   0  0  0  0  0  0  0  0  0  0  0  0
  -16.1969    8.0975  -75.3869 C   0  0  0  0  0  0  0  0  0  0  0  0
  -12.8861    2.9044  -75.3182 C   0  0  0  0  0  0  0  0  0  0  0  0
  -10.6199   -0.4866  -82.6904 F   0  0  0  0  0  0  0  0  0  0  0  0
   -9.7651    0.0295  -81.8118 C   0  0  0  0  0  0  0  0  0  0  0  0
   -9.1340    1.2342  -82.1016 C   0  0  0  0  0  0  0  0  0  0  0  0
   -8.2376    1.7861  -81.1922 C   0  0  0  0  0  0  0  0  0  0  0  0
   -7.9848    1.1189  -79.9984 C   0  0  0  0  0  0  0  0  0  0  0  0
   -8.6143   -0.0865  -79.7044 C   0  0  0  0  0  0  0  0  0  0  0  0
   -9.5100   -0.6349  -80.6163 C   0  0  0  0  0  0  0  0  0  0  0  0
  1  6  2  0
  7  6  1  0
  6  5  1  0
  5  4  2  0
  4  3  1  0
  3  2  2  0
  2  1  1  0
  8 12  1  0
 12 11  1  0
 11 10  2  0
 10  9  1  0
  9  8  2  0
  4  8  1  0
 15 14  1  0
 14 13  1  0
  1 13  1  0
 13 16  2  0
 18 17  2  0
 19 17  2  0
 20 17  1  0
 17 15  1  0
  7 21  2  0
 21 16  1  0
 22 23  1  0
 23 24  2  0
 24 25  1  0
 25 26  2  0
 26 27  1  0
 27 28  2  0
 28 23  1  0
 12 26  1  0
M  END
>  <ESTIMATED_AFFINITY_LOWER [nM]>  (45) 
13231.906948

>  <ESTIMATED_AFFINITY_UPPER [nM]>  (45) 
1314668.188539

>  <TPSA>  (45) 
64.85

>  <logP>  (45) 
3.44603

>  <ID>  (45) 
DLS-NSP13-DF045

>  <original SMILES>  (45) 
CS(=O)(=O)CCc1cccc2cc(-c3nncn3-c3ccc(F)cc3)ccc12

>  <ref_mols>  (45) 
x0212_0,x0276_0,x0280_0

>  <ref_pdb>  (45) 
DLS-NSP13-DF/DLS-NSP13-DF045.pdb

$$$$
DLS-NSP13-DF046
     RDKit          3D

 25 27  0  0  0  0  0  0  0  0999 V2000
  -11.3318    4.2911  -77.0375 C   0  0  0  0  0  0  0  0  0  0  0  0
  -10.4293    4.9035  -77.9044 C   0  0  0  0  0  0  0  0  0  0  0  0
   -9.1865    4.3416  -78.1776 C   0  0  0  0  0  0  0  0  0  0  0  0
   -8.7944    3.1405  -77.5934 C   0  0  0  0  0  0  0  0  0  0  0  0
   -9.6976    2.5299  -76.7287 C   0  0  0  0  0  0  0  0  0  0  0  0
  -10.9426    3.0894  -76.4534 C   0  0  0  0  0  0  0  0  0  0  0  0
  -11.8153    2.4467  -75.5809 C   0  0  0  0  0  0  0  0  0  0  0  0
   -7.4379    2.5214  -77.8879 C   0  0  0  0  0  0  0  0  0  0  0  0
   -6.3733    2.5966  -77.1341 N   0  0  0  0  0  0  0  0  0  0  0  0
   -5.3806    1.9424  -77.6945 N   0  0  0  0  0  0  0  0  0  0  0  0
   -5.8091    1.4332  -78.8287 C   0  0  0  0  0  0  0  0  0  0  0  0
   -7.1199    1.7803  -78.9835 N   0  0  0  0  0  0  0  0  0  0  0  0
  -12.5787    4.8510  -76.7583 C   0  0  0  0  0  0  0  0  0  0  0  0
  -13.0429    6.1619  -77.3734 C   0  0  0  0  0  0  0  0  0  0  0  0
  -13.7316    7.0041  -76.3113 C   0  0  0  0  0  0  0  0  0  0  0  0
  -13.4503    4.2072  -75.8862 C   0  0  0  0  0  0  0  0  0  0  0  0
  -15.4812    7.1943  -76.7332 S   0  0  0  0  0  0  0  0  0  0  0  0
  -16.0893    5.8950  -76.8575 O   0  0  0  0  0  0  0  0  0  0  0  0
  -15.5998    7.9012  -77.9822 O   0  0  0  0  0  0  0  0  0  0  0  0
  -16.3181    8.1298  -75.4291 C   0  0  0  0  0  0  0  0  0  0  0  0
  -13.0580    3.0063  -75.3041 C   0  0  0  0  0  0  0  0  0  0  0  0
   -8.3871   -0.8748  -79.3468 O   0  0  0  0  0  0  0  0  0  0  0  0
   -8.9067    0.2763  -79.6949 C   0  0  0  0  0  0  0  0  0  0  0  0
  -10.0976    0.4231  -79.6897 O   0  0  0  0  0  0  0  0  0  0  0  0
   -8.0010    1.4259  -80.1055 C   0  0  0  0  0  0  0  0  0  0  0  0
  1  6  2  0
  7  6  1  0
  6  5  1  0
  5  4  2  0
  4  3  1  0
  3  2  2  0
  2  1  1  0
  8 12  1  0
 12 11  1  0
 11 10  2  0
 10  9  1  0
  9  8  2  0
  4  8  1  0
 15 14  1  0
 14 13  1  0
  1 13  1  0
 13 16  2  0
 18 17  2  0
 19 17  2  0
 20 17  1  0
 17 15  1  0
  7 21  2  0
 21 16  1  0
 22 23  2  0
 23 24  1  0
 23 25  1  0
 12 25  1  0
M  CHG  1  24  -1
M  END
>  <ESTIMATED_AFFINITY_LOWER [nM]>  (46) 
1207.866269

>  <ESTIMATED_AFFINITY_UPPER [nM]>  (46) 
120008.655312

>  <TPSA>  (46) 
104.98

>  <logP>  (46) 
1.56221

>  <ID>  (46) 
DLS-NSP13-DF046

>  <original SMILES>  (46) 
CS(=O)(=O)CCc1cccc2cc(-c3nncn3CC(=O)[O-])ccc12

>  <ref_mols>  (46) 
x0212_0,x0276_0,x0280_0

>  <ref_pdb>  (46) 
DLS-NSP13-DF/DLS-NSP13-DF046.pdb

$$$$
DLS-NSP13-DF047
     RDKit          3D

 27 30  0  0  0  0  0  0  0  0999 V2000
  -11.2445    4.2404  -77.0917 C   0  0  0  0  0  0  0  0  0  0  0  0
  -10.3750    4.8712  -77.9789 C   0  0  0  0  0  0  0  0  0  0  0  0
   -9.1249    4.3388  -78.2759 C   0  0  0  0  0  0  0  0  0  0  0  0
   -8.6918    3.1496  -77.6962 C   0  0  0  0  0  0  0  0  0  0  0  0
   -9.5618    2.5204  -76.8111 C   0  0  0  0  0  0  0  0  0  0  0  0
  -10.8141    3.0505  -76.5119 C   0  0  0  0  0  0  0  0  0  0  0  0
  -11.6529    2.3901  -75.6197 C   0  0  0  0  0  0  0  0  0  0  0  0
   -7.3270    2.5625  -78.0166 C   0  0  0  0  0  0  0  0  0  0  0  0
   -6.2097    2.8139  -77.3873 N   0  0  0  0  0  0  0  0  0  0  0  0
   -5.2267    2.1302  -77.9296 N   0  0  0  0  0  0  0  0  0  0  0  0
   -5.7149    1.4228  -78.9248 C   0  0  0  0  0  0  0  0  0  0  0  0
   -7.0542    1.6715  -79.0079 N   0  0  0  0  0  0  0  0  0  0  0  0
  -12.4985    4.7708  -76.7885 C   0  0  0  0  0  0  0  0  0  0  0  0
  -13.0070    6.0680  -77.3980 C   0  0  0  0  0  0  0  0  0  0  0  0
  -13.6605    6.9137  -76.3168 C   0  0  0  0  0  0  0  0  0  0  0  0
  -13.3361    4.1093  -75.8965 C   0  0  0  0  0  0  0  0  0  0  0  0
  -15.4074    7.1625  -76.7192 S   0  0  0  0  0  0  0  0  0  0  0  0
  -16.0553    5.8839  -76.8569 O   0  0  0  0  0  0  0  0  0  0  0  0
  -15.5161    7.8914  -77.9563 O   0  0  0  0  0  0  0  0  0  0  0  0
  -16.2041    8.1026  -75.3934 C   0  0  0  0  0  0  0  0  0  0  0  0
  -12.9030    2.9205  -75.3190 C   0  0  0  0  0  0  0  0  0  0  0  0
   -8.0017    1.0951  -79.9727 C   0  0  0  0  0  0  0  0  0  0  0  0
   -8.2723    1.7603  -81.1643 C   0  0  0  0  0  0  0  0  0  0  0  0
   -9.1743    1.1870  -82.0545 C   0  0  0  0  0  0  0  0  0  0  0  0
   -9.7682    0.0187  -81.7698 N   0  0  0  0  0  0  0  0  0  0  0  0
   -9.5160   -0.6329  -80.6249 C   0  0  0  0  0  0  0  0  0  0  0  0
   -8.6252   -0.1144  -79.6911 C   0  0  0  0  0  0  0  0  0  0  0  0
  1  6  2  0
  7  6  1  0
  6  5  1  0
  5  4  2  0
  4  3  1  0
  3  2  2  0
  2  1  1  0
  8 12  1  0
 12 11  1  0
 11 10  2  0
 10  9  1  0
  9  8  2  0
  4  8  1  0
 15 14  1  0
 14 13  1  0
  1 13  1  0
 13 16  2  0
 18 17  2  0
 19 17  2  0
 20 17  1  0
 17 15  1  0
  7 21  2  0
 21 16  1  0
 22 23  2  0
 23 24  1  0
 24 25  2  0
 25 26  1  0
 26 27  2  0
 27 22  1  0
 12 22  1  0
M  END
>  <ESTIMATED_AFFINITY_LOWER [nM]>  (47) 
14555.755455

>  <ESTIMATED_AFFINITY_UPPER [nM]>  (47) 
1446200.364911

>  <TPSA>  (47) 
77.74

>  <logP>  (47) 
2.38068

>  <ID>  (47) 
DLS-NSP13-DF047

>  <original SMILES>  (47) 
CS(=O)(=O)CCc1cccc2cc(-c3nncn3-c3ccncc3)ccc12

>  <ref_mols>  (47) 
x0212_0,x0276_0,x0280_0

>  <ref_pdb>  (47) 
DLS-NSP13-DF/DLS-NSP13-DF047.pdb

$$$$
DLS-NSP13-DF038
     RDKit          3D

 21 22  0  0  0  0  0  0  0  0999 V2000
  -11.5276    4.1620  -76.3381 C   0  0  0  0  0  0  0  0  0  0  0  0
  -10.7988    4.6565  -77.4152 C   0  0  0  0  0  0  0  0  0  0  0  0
   -9.5742    4.0850  -77.7478 C   0  0  0  0  0  0  0  0  0  0  0  0
   -9.0534    3.0177  -77.0226 C   0  0  0  0  0  0  0  0  0  0  0  0
   -9.7941    2.5344  -75.9485 C   0  0  0  0  0  0  0  0  0  0  0  0
  -11.0197    3.0950  -75.6039 C   0  0  0  0  0  0  0  0  0  0  0  0
   -7.7753    2.4269  -77.3760 C   0  0  0  0  0  0  0  0  0  0  0  0
   -6.6062    2.7317  -76.8705 N   0  0  0  0  0  0  0  0  0  0  0  0
   -5.6655    1.9946  -77.4199 N   0  0  0  0  0  0  0  0  0  0  0  0
   -6.2277    1.1949  -78.2977 C   0  0  0  0  0  0  0  0  0  0  0  0
   -7.5677    1.4428  -78.2952 N   0  0  0  0  0  0  0  0  0  0  0  0
  -12.8680    4.7710  -75.9590 C   0  0  0  0  0  0  0  0  0  0  0  0
  -13.0408    6.1009  -76.6744 C   0  0  0  0  0  0  0  0  0  0  0  0
  -13.9230    7.0146  -75.8390 C   0  0  0  0  0  0  0  0  0  0  0  0
  -15.5522    7.1548  -76.6148 S   0  0  0  0  0  0  0  0  0  0  0  0
  -16.0805    5.8386  -76.8632 O   0  0  0  0  0  0  0  0  0  0  0  0
  -15.4310    7.8664  -77.8608 O   0  0  0  0  0  0  0  0  0  0  0  0
  -16.6699    8.0553  -75.5123 C   0  0  0  0  0  0  0  0  0  0  0  0
   -8.5181    0.8250  -79.0646 C   0  0  0  0  0  0  0  0  0  0  0  0
   -8.4500   -0.3555  -79.2689 O   0  0  0  0  0  0  0  0  0  0  0  0
   -9.5010    1.5229  -79.5773 O   0  0  0  0  0  0  0  0  0  0  0  0
  1  6  2  0
  6  5  1  0
  5  4  2  0
  4  3  1  0
  3  2  2  0
  2  1  1  0
  7 11  1  0
 11 10  1  0
 10  9  2  0
  9  8  1  0
  8  7  2  0
  4  7  1  0
 14 13  1  0
 13 12  1  0
  1 12  1  0
 16 15  2  0
 17 15  2  0
 18 15  1  0
 15 14  1  0
 11 19  1  0
 19 20  2  0
 19 21  1  0
M  CHG  1  21  -1
M  END
>  <ESTIMATED_AFFINITY_LOWER [nM]>  (48) 
26210.270279

>  <ESTIMATED_AFFINITY_UPPER [nM]>  (48) 
2604145.319606

>  <TPSA>  (48) 
104.98

>  <logP>  (48) 
0.619412

>  <ID>  (48) 
DLS-NSP13-DF038

>  <original SMILES>  (48) 
CS(=O)(=O)CCCc1ccc(-c2nncn2C(=O)[O-])cc1

>  <ref_mols>  (48) 
x0212_0,x0276_0,x0280_0

>  <ref_pdb>  (48) 
DLS-NSP13-DF/DLS-NSP13-DF038.pdb

$$$$
DLS-NSP13-DF039
     RDKit          3D

 22 23  0  0  0  0  0  0  0  0999 V2000
  -11.3400    4.0693  -76.4702 C   0  0  0  0  0  0  0  0  0  0  0  0
  -10.7424    4.6236  -77.5976 C   0  0  0  0  0  0  0  0  0  0  0  0
   -9.4877    4.1829  -78.0078 C   0  0  0  0  0  0  0  0  0  0  0  0
   -8.8070    3.1887  -77.3116 C   0  0  0  0  0  0  0  0  0  0  0  0
   -9.4180    2.6442  -76.1863 C   0  0  0  0  0  0  0  0  0  0  0  0
  -10.6717    3.0742  -75.7640 C   0  0  0  0  0  0  0  0  0  0  0  0
   -7.4986    2.7342  -77.7460 C   0  0  0  0  0  0  0  0  0  0  0  0
   -6.3741    2.8387  -77.0826 N   0  0  0  0  0  0  0  0  0  0  0  0
   -5.3857    2.3158  -77.7750 N   0  0  0  0  0  0  0  0  0  0  0  0
   -5.8708    1.8617  -78.9085 C   0  0  0  0  0  0  0  0  0  0  0  0
   -7.2105    2.1108  -78.9228 N   0  0  0  0  0  0  0  0  0  0  0  0
  -12.7107    4.5355  -76.0059 C   0  0  0  0  0  0  0  0  0  0  0  0
  -13.1059    5.7878  -76.7714 C   0  0  0  0  0  0  0  0  0  0  0  0
  -13.8672    6.7261  -75.8489 C   0  0  0  0  0  0  0  0  0  0  0  0
  -15.4884    7.0926  -76.5655 S   0  0  0  0  0  0  0  0  0  0  0  0
  -16.1576    5.8608  -76.8943 O   0  0  0  0  0  0  0  0  0  0  0  0
  -15.3188    7.8801  -77.7591 O   0  0  0  0  0  0  0  0  0  0  0  0
  -16.4818    8.0180  -75.3686 C   0  0  0  0  0  0  0  0  0  0  0  0
   -8.1574    1.7737  -79.9954 C   0  0  0  0  0  0  0  0  0  0  0  0
   -8.8656    0.4724  -79.6557 C   0  0  0  0  0  0  0  0  0  0  0  0
   -8.2312   -0.4780  -79.2893 O   0  0  0  0  0  0  0  0  0  0  0  0
  -10.1686    0.3884  -79.7628 O   0  0  0  0  0  0  0  0  0  0  0  0
  1  6  2  0
  6  5  1  0
  5  4  2  0
  4  3  1  0
  3  2  2  0
  2  1  1  0
  7 11  1  0
 11 10  1  0
 10  9  2  0
  9  8  1  0
  8  7  2  0
  4  7  1  0
 14 13  1  0
 13 12  1  0
  1 12  1  0
 16 15  2  0
 17 15  2  0
 18 15  1  0
 15 14  1  0
 11 19  1  0
 19 20  1  0
 20 21  2  0
 20 22  1  0
M  CHG  1  22  -1
M  END
>  <ESTIMATED_AFFINITY_LOWER [nM]>  (49) 
929.535669

>  <ESTIMATED_AFFINITY_UPPER [nM]>  (49) 
92354.864598

>  <TPSA>  (49) 
104.98

>  <logP>  (49) 
0.720365

>  <ID>  (49) 
DLS-NSP13-DF039

>  <original SMILES>  (49) 
CS(=O)(=O)CCCc1ccc(-c2nncn2CC(=O)[O-])cc1

>  <ref_mols>  (49) 
x0212_0,x0276_0,x0280_0

>  <ref_pdb>  (49) 
DLS-NSP13-DF/DLS-NSP13-DF039.pdb

$$$$
DLS-NSP13-DF032
     RDKit          3D

 29 32  0  0  0  0  0  0  0  0999 V2000
  -11.2438    4.2386  -77.0928 C   0  0  0  0  0  0  0  0  0  0  0  0
  -10.3715    4.8658  -77.9798 C   0  0  0  0  0  0  0  0  0  0  0  0
   -9.1221    4.3299  -78.2738 C   0  0  0  0  0  0  0  0  0  0  0  0
   -8.6926    3.1409  -77.6910 C   0  0  0  0  0  0  0  0  0  0  0  0
   -9.5655    2.5154  -76.8061 C   0  0  0  0  0  0  0  0  0  0  0  0
  -10.8171    3.0490  -76.5100 C   0  0  0  0  0  0  0  0  0  0  0  0
  -11.6588    2.3922  -75.6178 C   0  0  0  0  0  0  0  0  0  0  0  0
   -7.3286    2.5501  -78.0081 C   0  0  0  0  0  0  0  0  0  0  0  0
   -6.2086    2.8133  -77.3885 N   0  0  0  0  0  0  0  0  0  0  0  0
   -5.2274    2.1219  -77.9239 N   0  0  0  0  0  0  0  0  0  0  0  0
   -5.7195    1.3972  -78.9048 C   0  0  0  0  0  0  0  0  0  0  0  0
   -7.0595    1.6430  -78.9856 N   0  0  0  0  0  0  0  0  0  0  0  0
  -12.4972    4.7725  -76.7927 C   0  0  0  0  0  0  0  0  0  0  0  0
  -13.0017    6.0696  -77.4055 C   0  0  0  0  0  0  0  0  0  0  0  0
  -13.6516    6.9206  -76.3263 C   0  0  0  0  0  0  0  0  0  0  0  0
  -13.3377    4.1146  -75.9008 C   0  0  0  0  0  0  0  0  0  0  0  0
  -15.4006    7.1648  -76.7224 S   0  0  0  0  0  0  0  0  0  0  0  0
  -16.0461    5.8845  -76.8556 O   0  0  0  0  0  0  0  0  0  0  0  0
  -15.5157    7.8915  -77.9603 O   0  0  0  0  0  0  0  0  0  0  0  0
  -16.1943    8.1053  -75.3951 C   0  0  0  0  0  0  0  0  0  0  0  0
  -12.9081    2.9259  -75.3202 C   0  0  0  0  0  0  0  0  0  0  0  0
   -7.7309    2.8647  -81.3986 F   0  0  0  0  0  0  0  0  0  0  0  0
   -8.3136    1.7000  -81.1275 C   0  0  0  0  0  0  0  0  0  0  0  0
   -9.2139    1.1456  -82.0314 C   0  0  0  0  0  0  0  0  0  0  0  0
   -9.8106   -0.0737  -81.7286 C   0  0  0  0  0  0  0  0  0  0  0  0
   -9.5204   -0.7406  -80.5428 C   0  0  0  0  0  0  0  0  0  0  0  0
   -8.6174   -0.1694  -79.6521 C   0  0  0  0  0  0  0  0  0  0  0  0
   -8.3283   -0.7948  -78.5138 F   0  0  0  0  0  0  0  0  0  0  0  0
   -8.0108    1.0493  -79.9361 C   0  0  0  0  0  0  0  0  0  0  0  0
  1  6  2  0
  7  6  1  0
  6  5  1  0
  5  4  2  0
  4  3  1  0
  3  2  2  0
  2  1  1  0
  8 12  1  0
 12 11  1  0
 11 10  2  0
 10  9  1  0
  9  8  2  0
  4  8  1  0
 15 14  1  0
 14 13  1  0
  1 13  1  0
 13 16  2  0
 18 17  2  0
 19 17  2  0
 20 17  1  0
 17 15  1  0
  7 21  2  0
 21 16  1  0
 22 23  1  0
 23 24  2  0
 24 25  1  0
 25 26  2  0
 26 27  1  0
 27 28  1  0
 27 29  2  0
 29 23  1  0
 12 29  1  0
M  END
>  <ESTIMATED_AFFINITY_LOWER [nM]>  (50) 
10648.980442

>  <ESTIMATED_AFFINITY_UPPER [nM]>  (50) 
1058039.168620

>  <TPSA>  (50) 
64.85

>  <logP>  (50) 
3.59276

>  <ID>  (50) 
DLS-NSP13-DF032

>  <original SMILES>  (50) 
CS(=O)(=O)CCc1cccc2cc(-c3nncn3-c3c(F)cccc3F)ccc12

>  <ref_mols>  (50) 
x0212_0,x0276_0,x0280_0

>  <ref_pdb>  (50) 
DLS-NSP13-DF/DLS-NSP13-DF032.pdb

$$$$
DLS-NSP13-DF042
     RDKit          3D

 30 33  0  0  0  0  0  0  0  0999 V2000
  -11.2980    4.2815  -77.0596 C   0  0  0  0  0  0  0  0  0  0  0  0
  -10.3715    4.8622  -77.9229 C   0  0  0  0  0  0  0  0  0  0  0  0
   -9.1378    4.2702  -78.1723 C   0  0  0  0  0  0  0  0  0  0  0  0
   -8.7792    3.0691  -77.5667 C   0  0  0  0  0  0  0  0  0  0  0  0
   -9.7062    2.4901  -76.7055 C   0  0  0  0  0  0  0  0  0  0  0  0
  -10.9423    3.0800  -76.4541 C   0  0  0  0  0  0  0  0  0  0  0  0
  -11.8397    2.4684  -75.5844 C   0  0  0  0  0  0  0  0  0  0  0  0
   -7.4328    2.4171  -77.8350 C   0  0  0  0  0  0  0  0  0  0  0  0
   -6.3418    2.5783  -77.1341 N   0  0  0  0  0  0  0  0  0  0  0  0
   -5.3684    1.8608  -77.6492 N   0  0  0  0  0  0  0  0  0  0  0  0
   -5.8364    1.2226  -78.6995 C   0  0  0  0  0  0  0  0  0  0  0  0
   -7.1527    1.5516  -78.8467 N   0  0  0  0  0  0  0  0  0  0  0  0
  -12.5360    4.8718  -76.8042 C   0  0  0  0  0  0  0  0  0  0  0  0
  -12.9638    6.1838  -77.4431 C   0  0  0  0  0  0  0  0  0  0  0  0
  -13.6273    7.0643  -76.3963 C   0  0  0  0  0  0  0  0  0  0  0  0
  -13.4323    4.2591  -75.9348 C   0  0  0  0  0  0  0  0  0  0  0  0
  -15.3929    7.2135  -76.7648 S   0  0  0  0  0  0  0  0  0  0  0  0
  -15.9789    5.9007  -76.8473 O   0  0  0  0  0  0  0  0  0  0  0  0
  -15.5652    7.8958  -78.0212 O   0  0  0  0  0  0  0  0  0  0  0  0
  -16.2062    8.1556  -75.4506 C   0  0  0  0  0  0  0  0  0  0  0  0
  -13.0735    3.0583  -75.3313 C   0  0  0  0  0  0  0  0  0  0  0  0
  -11.4719    1.1563  -74.9110 C   0  0  0  0  0  0  0  0  0  0  0  0
   -7.5949    2.9412  -81.2214 F   0  0  0  0  0  0  0  0  0  0  0  0
   -8.2598    1.8012  -81.0548 C   0  0  0  0  0  0  0  0  0  0  0  0
   -9.1299    1.3526  -82.0430 C   0  0  0  0  0  0  0  0  0  0  0  0
   -9.8141    0.1573  -81.8488 C   0  0  0  0  0  0  0  0  0  0  0  0
   -9.6402   -0.5894  -80.6880 C   0  0  0  0  0  0  0  0  0  0  0  0
   -8.7656   -0.1235  -79.7118 C   0  0  0  0  0  0  0  0  0  0  0  0
   -8.5873   -0.8263  -78.5961 F   0  0  0  0  0  0  0  0  0  0  0  0
   -8.0728    1.0695  -79.8867 C   0  0  0  0  0  0  0  0  0  0  0  0
  1  6  2  0
  7  6  1  0
  6  5  1  0
  5  4  2  0
  4  3  1  0
  3  2  2  0
  2  1  1  0
  8 12  1  0
 12 11  1  0
 11 10  2  0
 10  9  1  0
  9  8  2  0
  4  8  1  0
 15 14  1  0
 14 13  1  0
  1 13  1  0
 13 16  2  0
 18 17  2  0
 19 17  2  0
 20 17  1  0
 17 15  1  0
  7 21  2  0
 21 16  1  0
  7 22  1  0
 23 24  1  0
 24 25  2  0
 25 26  1  0
 26 27  2  0
 27 28  1  0
 28 29  1  0
 28 30  2  0
 30 24  1  0
 12 30  1  0
M  END
>  <ESTIMATED_AFFINITY_LOWER [nM]>  (51) 
10382.971660

>  <ESTIMATED_AFFINITY_UPPER [nM]>  (51) 
1031609.623400

>  <TPSA>  (51) 
64.85

>  <logP>  (51) 
3.98734

>  <ID>  (51) 
DLS-NSP13-DF042

>  <original SMILES>  (51) 
Cc1ccc(CCS(C)(=O)=O)c2ccc(-c3nncn3-c3c(F)cccc3F)cc12

>  <ref_mols>  (51) 
x0212_0,x0276_0,x0280_0

>  <ref_pdb>  (51) 
DLS-NSP13-DF/DLS-NSP13-DF042.pdb

$$$$
DLS-NSP13-DF043
     RDKit          3D

 31 34  0  0  0  0  0  0  0  0999 V2000
  -11.2867    4.2851  -77.0788 C   0  0  0  0  0  0  0  0  0  0  0  0
  -10.3824    4.8832  -77.9537 C   0  0  0  0  0  0  0  0  0  0  0  0
   -9.1399    4.3158  -78.2166 C   0  0  0  0  0  0  0  0  0  0  0  0
   -8.7499    3.1234  -77.6134 C   0  0  0  0  0  0  0  0  0  0  0  0
   -9.6548    2.5271  -76.7406 C   0  0  0  0  0  0  0  0  0  0  0  0
  -10.8996    3.0922  -76.4756 C   0  0  0  0  0  0  0  0  0  0  0  0
  -11.7742    2.4640  -75.5946 C   0  0  0  0  0  0  0  0  0  0  0  0
   -7.3936    2.4984  -77.8965 C   0  0  0  0  0  0  0  0  0  0  0  0
   -6.3175    2.6214  -77.1656 N   0  0  0  0  0  0  0  0  0  0  0  0
   -5.3290    1.9446  -77.7063 N   0  0  0  0  0  0  0  0  0  0  0  0
   -5.7720    1.3717  -78.8040 C   0  0  0  0  0  0  0  0  0  0  0  0
   -7.0877    1.7011  -78.9555 N   0  0  0  0  0  0  0  0  0  0  0  0
  -12.5334    4.8506  -76.8098 C   0  0  0  0  0  0  0  0  0  0  0  0
  -12.9952    6.1525  -77.4456 C   0  0  0  0  0  0  0  0  0  0  0  0
  -13.6483    7.0288  -76.3886 C   0  0  0  0  0  0  0  0  0  0  0  0
  -13.4069    4.2213  -75.9290 C   0  0  0  0  0  0  0  0  0  0  0  0
  -15.4121    7.2027  -76.7550 S   0  0  0  0  0  0  0  0  0  0  0  0
  -16.0142    5.8979  -76.8481 O   0  0  0  0  0  0  0  0  0  0  0  0
  -15.5766    7.8977  -78.0056 O   0  0  0  0  0  0  0  0  0  0  0  0
  -16.2131    8.1437  -75.4325 C   0  0  0  0  0  0  0  0  0  0  0  0
  -13.0167    3.0292  -75.3281 C   0  0  0  0  0  0  0  0  0  0  0  0
   -7.1517    3.0873  -81.3362 F   0  0  0  0  0  0  0  0  0  0  0  0
   -7.9421    2.0296  -81.1771 C   0  0  0  0  0  0  0  0  0  0  0  0
   -8.7839    1.6460  -82.2158 C   0  0  0  0  0  0  0  0  0  0  0  0
   -9.6228    0.5445  -82.0799 C   0  0  0  0  0  0  0  0  0  0  0  0
   -9.6461   -0.2036  -80.9077 C   0  0  0  0  0  0  0  0  0  0  0  0
   -8.7938    0.1999  -79.8806 C   0  0  0  0  0  0  0  0  0  0  0  0
   -7.9435    1.2996  -79.9925 C   0  0  0  0  0  0  0  0  0  0  0  0
  -10.5721   -1.4028  -80.7867 C   0  0  0  0  0  0  0  0  0  0  0  0
  -11.0043   -1.7213  -79.7135 O   0  0  0  0  0  0  0  0  0  0  0  0
  -10.8983   -2.0887  -81.8540 O   0  0  0  0  0  0  0  0  0  0  0  0
  1  6  2  0
  7  6  1  0
  6  5  1  0
  5  4  2  0
  4  3  1  0
  3  2  2  0
  2  1  1  0
  8 12  1  0
 12 11  1  0
 11 10  2  0
 10  9  1  0
  9  8  2  0
  4  8  1  0
 15 14  1  0
 14 13  1  0
  1 13  1  0
 13 16  2  0
 18 17  2  0
 19 17  2  0
 20 17  1  0
 17 15  1  0
  7 21  2  0
 21 16  1  0
 22 23  1  0
 23 24  2  0
 24 25  1  0
 25 26  2  0
 26 27  1  0
 27 28  2  0
 28 23  1  0
 26 29  1  0
 12 28  1  0
 29 30  2  0
 29 31  1  0
M  CHG  1  31  -1
M  END
>  <ESTIMATED_AFFINITY_LOWER [nM]>  (52) 
12872.742481

>  <ESTIMATED_AFFINITY_UPPER [nM]>  (52) 
1278983.075173

>  <TPSA>  (52) 
104.98

>  <logP>  (52) 
2.95252

>  <ID>  (52) 
DLS-NSP13-DF043

>  <original SMILES>  (52) 
CS(=O)(=O)CCc1cccc2cc(-c3nncn3-c3cc(C(=O)[O-])ccc3F)ccc12

>  <ref_mols>  (52) 
x0212_0,x0276_0,x0280_0

>  <ref_pdb>  (52) 
DLS-NSP13-DF/DLS-NSP13-DF043.pdb

$$$$
DLS-NSP13-DF044
     RDKit          3D

 29 32  0  0  0  0  0  0  0  0999 V2000
  -11.2364    4.2457  -77.1029 C   0  0  0  0  0  0  0  0  0  0  0  0
  -10.3580    4.8634  -77.9905 C   0  0  0  0  0  0  0  0  0  0  0  0
   -9.1114    4.3181  -78.2791 C   0  0  0  0  0  0  0  0  0  0  0  0
   -8.6910    3.1290  -77.6899 C   0  0  0  0  0  0  0  0  0  0  0  0
   -9.5700    2.5131  -76.8044 C   0  0  0  0  0  0  0  0  0  0  0  0
  -10.8189    3.0561  -76.5137 C   0  0  0  0  0  0  0  0  0  0  0  0
  -11.6669    2.4087  -75.6206 C   0  0  0  0  0  0  0  0  0  0  0  0
   -7.3300    2.5280  -78.0010 C   0  0  0  0  0  0  0  0  0  0  0  0
   -6.2004    2.8270  -77.4161 N   0  0  0  0  0  0  0  0  0  0  0  0
   -5.2256    2.1129  -77.9332 N   0  0  0  0  0  0  0  0  0  0  0  0
   -5.7317    1.3369  -78.8666 C   0  0  0  0  0  0  0  0  0  0  0  0
   -7.0740    1.5731  -78.9356 N   0  0  0  0  0  0  0  0  0  0  0  0
  -12.4871    4.7890  -76.8082 C   0  0  0  0  0  0  0  0  0  0  0  0
  -12.9817    6.0866  -77.4280 C   0  0  0  0  0  0  0  0  0  0  0  0
  -13.6259    6.9480  -76.3536 C   0  0  0  0  0  0  0  0  0  0  0  0
  -13.3340    4.1405  -75.9154 C   0  0  0  0  0  0  0  0  0  0  0  0
  -15.3812    7.1732  -76.7330 S   0  0  0  0  0  0  0  0  0  0  0  0
  -16.0158    5.8860  -76.8516 O   0  0  0  0  0  0  0  0  0  0  0  0
  -15.5160    7.8911  -77.9741 O   0  0  0  0  0  0  0  0  0  0  0  0
  -16.1699    8.1144  -75.4033 C   0  0  0  0  0  0  0  0  0  0  0  0
  -12.9135    2.9518  -75.3285 C   0  0  0  0  0  0  0  0  0  0  0  0
   -7.9276    2.8515  -81.2226 F   0  0  0  0  0  0  0  0  0  0  0  0
   -8.3982    1.6402  -80.9394 C   0  0  0  0  0  0  0  0  0  0  0  0
   -9.3109    1.0448  -81.8039 C   0  0  0  0  0  0  0  0  0  0  0  0
   -9.8216   -0.2210  -81.5352 C   0  0  0  0  0  0  0  0  0  0  0  0
   -9.4379   -0.9272  -80.4000 C   0  0  0  0  0  0  0  0  0  0  0  0
   -8.5222   -0.3103  -79.5486 C   0  0  0  0  0  0  0  0  0  0  0  0
   -7.9955    0.9571  -79.7960 C   0  0  0  0  0  0  0  0  0  0  0  0
   -9.9397   -2.1363  -80.1650 F   0  0  0  0  0  0  0  0  0  0  0  0
  1  6  2  0
  7  6  1  0
  6  5  1  0
  5  4  2  0
  4  3  1  0
  3  2  2  0
  2  1  1  0
  8 12  1  0
 12 11  1  0
 11 10  2  0
 10  9  1  0
  9  8  2  0
  4  8  1  0
 15 14  1  0
 14 13  1  0
  1 13  1  0
 13 16  2  0
 18 17  2  0
 19 17  2  0
 20 17  1  0
 17 15  1  0
  7 21  2  0
 21 16  1  0
 22 23  1  0
 23 24  2  0
 24 25  1  0
 25 26  2  0
 26 27  1  0
 27 28  2  0
 28 23  1  0
 26 29  1  0
 12 28  1  0
M  END
>  <ESTIMATED_AFFINITY_LOWER [nM]>  (53) 
11897.318173

>  <ESTIMATED_AFFINITY_UPPER [nM]>  (53) 
1182068.902959

>  <TPSA>  (53) 
64.85

>  <logP>  (53) 
3.68114

>  <ID>  (53) 
DLS-NSP13-DF044

>  <original SMILES>  (53) 
CS(=O)(=O)CCc1cccc2cc(-c3nncn3-c3cc(F)ccc3F)ccc12

>  <ref_mols>  (53) 
x0212_0,x0276_0,x0280_0

>  <ref_pdb>  (53) 
DLS-NSP13-DF/DLS-NSP13-DF044.pdb

$$$$
