ver_1.2
     RDKit          2D

  1  0  0  0  0  0  0  0  0  0999 V2000
    0.0000    0.0000    0.0000 C   0  0  0  0  0  0  0  0  0  0  0  0
M  END
>  <submitter_name>  (1) 
Ruben Sanchez Garcia

>  <submitter_email>  (1) 
ruben.sanchez-garcia@stats.ox.ac.uk

>  <submitter_institution>  (1) 
University of Oxford

>  <method>  (1) 
catalogue_and_Fragmenstein

>  <ref_url>  (1) 
https://github.com/matteoferla/Fragmenstein

>  <original SMILES>  (1) 
The SMILES of the compound

>  <ref_pdb>  (1) 
A pdb included in fragalysis or uploaded. E.g. x0830_0

>  <ref_mols>  (1) 
The inspirational fragments usded to propose the compound

>  <generation_date>  (1) 
2021-04-28

>  <fragmensteinOld_score>  (1) 
Score fragmensteinOld_score

>  <LE_score>  (1) 
Score LE_score

>  <comRMSD_score>  (1) 
Score comRMSD_score

>  <fragmensteinNew_score>  (1) 
Score fragmensteinNew_score

>  <meanSuCosW_score>  (1) 
Score meanSuCosW_score

>  <maxSuCosW_score>  (1) 
Score maxSuCosW_score

>  <minSuCosW_score>  (1) 
Score minSuCosW_score

>  <sumSuCosW_score>  (1) 
Score sumSuCosW_score

>  <SA_score>  (1) 
Score SA_score

>  <aLogP_score>  (1) 
Score aLogP_score

>  <hbondD_score>  (1) 
Score hbondD_score

>  <hbondA_score>  (1) 
Score hbondA_score

>  <polarSurfaceArea_score>  (1) 
Score polarSurfaceArea_score

>  <rotableBonds_score>  (1) 
Score rotableBonds_score

>  <SC_score>  (1) 
Score SC_score

>  <energyPoseVsEnsemble_score>  (1) 
Score energyPoseVsEnsemble_score

>  <xcos_score>  (1) 
Score xcos_score

>  <plipMedianPreser_score>  (1) 
Score plipMedianPreser_score

>  <plipGlobalPreser_score>  (1) 
Score plipGlobalPreser_score

>  <plipGlobalPreserOverMw_score>  (1) 
Score plipGlobalPreserOverMw_score

0_x0041_0A_-x0058_0B_CN
     RDKit          3D

 30 32  0  0  0  0  0  0  0  0999 V2000
   -1.8650   36.8890  -59.2020 C   0  0  0  0  0  0  0  0  0  0  0  0
   -0.9270   37.9880  -59.1780 N   0  0  0  0  0  0  0  0  0  0  0  0
    0.4210   37.3850  -58.8180 C   0  0  0  0  0  0  0  0  0  0  0  0
   -1.6290   39.3380  -58.8030 S   0  0  0  0  0  0  0  0  0  0  0  0
    1.1870   37.4560  -57.5040 C   0  0  0  0  0  0  0  0  0  0  0  0
    1.4400   37.5550  -59.9260 C   0  0  0  0  0  0  0  0  0  0  0  0
   -0.6470   40.6380  -59.3320 C   0  0  0  0  0  0  0  0  0  0  0  0
   -2.7170   39.5220  -59.7330 O   0  0  0  0  0  0  0  0  0  0  0  0
   -1.8090   39.4790  -57.3740 O   0  0  0  0  0  0  0  0  0  0  0  0
    1.3930   35.8750  -57.4930 C   0  0  0  0  0  0  0  0  0  0  0  0
    2.5500   36.6990  -59.6830 C   0  0  0  0  0  0  0  0  0  0  0  0
    2.4900   35.6830  -58.5690 N   0  0  0  0  0  0  0  0  0  0  0  0
    3.3370   34.4890  -58.2650 C   0  0  0  0  0  0  0  0  0  0  0  0
    3.2440   33.9900  -56.9980 O   0  0  0  0  0  0  0  0  0  0  0  0
    4.4570   33.8010  -59.1570 C   0  0  0  0  0  0  0  0  0  0  0  0
    4.3600   33.9770  -60.4820 C   0  0  0  0  0  0  0  0  0  0  0  0
    5.6250   33.0450  -58.7570 C   0  0  0  0  0  0  0  0  0  0  0  0
    5.4090   33.5190  -61.4170 C   0  0  0  0  0  0  0  0  0  0  0  0
    6.6570   32.5530  -59.6650 C   0  0  0  0  0  0  0  0  0  0  0  0
    6.5210   32.8390  -61.0390 C   0  0  0  0  0  0  0  0  0  0  0  0
    7.3230   32.5330  -62.0600 N   0  0  0  0  0  0  0  0  0  0  0  0
    9.0080   32.5750  -62.3210 S   0  0  0  0  0  0  0  0  0  0  0  0
    9.4360   33.6990  -63.1430 O   0  0  0  0  0  0  0  0  0  0  0  0
    9.7080   32.1990  -61.1070 O   0  0  0  0  0  0  0  0  0  0  0  0
    8.8800   31.1840  -63.4050 C   0  0  0  0  0  0  0  0  0  0  0  0
    9.3190   31.1760  -64.7120 C   0  0  0  0  0  0  0  0  0  0  0  0
    8.2900   30.0190  -62.9600 C   0  0  0  0  0  0  0  0  0  0  0  0
    9.1590   30.0490  -65.5120 C   0  0  0  0  0  0  0  0  0  0  0  0
    8.1140   28.8700  -63.7450 C   0  0  0  0  0  0  0  0  0  0  0  0
    8.5020   28.6990  -65.0990 C   0  0  0  0  0  0  0  0  0  0  0  0
  1  2  1  0
  2  3  1  0
  4  2  1  0
  3  5  1  0
  3  6  1  0
  4  7  1  0
  4  8  2  0
  4  9  2  0
  5 10  1  0
  6 11  1  0
 10 12  1  0
 11 12  1  0
 12 13  1  0
 13 14  2  0
 13 15  1  0
 15 16  2  0
 15 17  1  0
 16 18  1  0
 17 19  2  0
 18 20  2  0
 19 20  1  0
 20 21  1  0
 22 21  1  0
 22 23  2  0
 22 24  2  0
 22 25  1  0
 25 26  2  0
 25 27  1  0
 26 28  1  0
 27 29  2  0
 28 30  2  0
 29 30  1  0
M  END
>  <ref_pdb>  (2) 
x0041

>  <ref_mols>  (2) 
x0041_0A,x0058_0B

>  <fragmensteinOld_score>  (2) 
-2.7542675075595104

>  <LE_score>  (2) 
-0.16522128635678804

>  <comRMSD_score>  (2) 
0.90314872512393285

>  <fragmensteinNew_score>  (2) 
0.22311301886078572

>  <meanSuCosW_score>  (2) 
0.50182878258161656

>  <maxSuCosW_score>  (2) 
0.54394545283888907

>  <minSuCosW_score>  (2) 
0.45971211232434417

>  <sumSuCosW_score>  (2) 
1.0036575651632331

>  <SA_score>  (2) 
6.4993694512056228

>  <aLogP_score>  (2) 
1.9833999999999992

>  <hbondD_score>  (2) 
1

>  <hbondA_score>  (2) 
5

>  <polarSurfaceArea_score>  (2) 
103.85999999999999

>  <rotableBonds_score>  (2) 
6

>  <SC_score>  (2) 
4.2355106249374472

>  <energyPoseVsEnsemble_score>  (2) 
3.5285063185623833

>  <xcos_score>  (2) 
9.7448661737699904

>  <plipMedianPreser_score>  (2) 
0.75

>  <plipGlobalPreser_score>  (2) 
0.33333333333333331

>  <plipGlobalPreserOverMw_score>  (2) 
0.07388958607937364

>  <original_name>  (2) 
x0041-0A-x0058-0B-CN-C1CCN-C-O-c2ccc-NS-O-O-c3ccccc3-cc2-CC1-S-C-O-O

>  <original SMILES>  (2) 
[H]c1c([H])c([H])c(S(=O)(=O)N([H])c2c([H])c([H])c(C(=O)N3C([H])([H])C([H])([H])C([H])(N(C([H])([H])[H])S(=O)(=O)C([H])([H])[H])C([H])([H])C3([H])[H])c([H])c2[H])c([H])c1[H]

$$$$
93_x0276_0A_-x0116_0B_COc1ccc
     RDKit          3D

 31 33  0  0  0  0  0  0  0  0999 V2000
    8.8660   34.5430  -63.7070 C   0  0  0  0  0  0  0  0  0  0  0  0
    7.5030   34.2430  -63.4150 O   0  0  0  0  0  0  0  0  0  0  0  0
    7.2470   33.5730  -62.2590 C   0  0  0  0  0  0  0  0  0  0  0  0
    8.2340   32.5150  -61.8060 C   0  0  0  0  0  0  0  0  0  0  0  0
    6.1270   33.8140  -61.4640 C   0  0  0  0  0  0  0  0  0  0  0  0
    7.9730   31.8050  -60.5140 C   0  0  0  0  0  0  0  0  0  0  0  0
    5.9280   33.1210  -60.2640 C   0  0  0  0  0  0  0  0  0  0  0  0
    6.8280   32.1460  -59.7760 C   0  0  0  0  0  0  0  0  0  0  0  0
    6.5800   31.5490  -58.5320 C   0  0  0  0  0  0  0  0  0  0  0  0
    5.6120   30.5750  -58.2880 O   0  0  0  0  0  0  0  0  0  0  0  0
    7.4200   32.1030  -57.5110 N   0  0  0  0  0  0  0  0  0  0  0  0
    8.1590   33.1860  -57.8010 C   0  0  0  0  0  0  0  0  0  0  0  0
    6.8290   32.2830  -56.2050 C   0  0  0  0  0  0  0  0  0  0  0  0
    7.2420   34.3760  -57.9910 C   0  0  0  0  0  0  0  0  0  0  0  0
    5.8110   33.4260  -56.2800 C   0  0  0  0  0  0  0  0  0  0  0  0
    5.9490   34.3380  -57.4460 N   0  0  0  0  0  0  0  0  0  0  0  0
    5.2530   35.5940  -57.1870 C   0  0  0  0  0  0  0  0  0  0  0  0
    5.5320   36.3940  -56.2860 O   0  0  0  0  0  0  0  0  0  0  0  0
    4.0530   36.1080  -58.0090 C   0  0  0  0  0  0  0  0  0  0  0  0
    2.8680   36.4010  -57.0830 C   0  0  0  0  0  0  0  0  0  0  0  0
    4.0160   36.3180  -59.3950 C   0  0  0  0  0  0  0  0  0  0  0  0
    1.5580   36.9860  -57.6470 C   0  0  0  0  0  0  0  0  0  0  0  0
    2.8550   36.8430  -59.9580 C   0  0  0  0  0  0  0  0  0  0  0  0
    1.7500   37.1540  -59.1610 C   0  0  0  0  0  0  0  0  0  0  0  0
    0.5040   37.7080  -59.4630 C   0  0  0  0  0  0  0  0  0  0  0  0
    0.2530   38.9340  -58.8180 C   0  0  0  0  0  0  0  0  0  0  0  0
   -1.1510   39.0980  -58.4030 N   0  0  0  0  0  0  0  0  0  0  0  0
   -1.9270   40.5440  -58.7550 S   0  0  0  0  0  0  0  0  0  0  0  0
   -2.0840   41.2580  -57.1310 C   0  0  0  0  0  0  0  0  0  0  0  0
   -0.9990   41.3260  -59.5320 O   0  0  0  0  0  0  0  0  0  0  0  0
   -3.2460   40.2170  -59.2340 O   0  0  0  0  0  0  0  0  0  0  0  0
  1  2  1  0
  2  3  1  0
  3  4  2  0
  3  5  1  0
  4  6  1  0
  5  7  2  0
  6  8  2  0
  7  8  1  0
  8  9  1  0
  9 10  2  0
  9 11  1  0
 11 12  1  0
 11 13  1  0
 12 14  1  0
 13 15  1  0
 14 16  1  0
 15 16  1  0
 16 17  1  0
 17 18  2  0
 17 19  1  0
 19 20  2  0
 19 21  1  0
 20 22  1  0
 21 23  2  0
 22 24  2  0
 23 24  1  0
 24 25  1  0
 25 26  1  0
 26 27  1  0
 28 27  1  0
 28 29  1  0
 28 30  2  0
 28 31  2  0
M  END
>  <ref_pdb>  (3) 
x0116

>  <ref_mols>  (3) 
x0116_0B,x0276_0A

>  <fragmensteinOld_score>  (3) 
-1.0862536115090462

>  <LE_score>  (3) 
-0.21405528283993841

>  <comRMSD_score>  (3) 
0.78370019866655949

>  <fragmensteinNew_score>  (3) 
1.4372002182800367

>  <meanSuCosW_score>  (3) 
0.42362016554165316

>  <maxSuCosW_score>  (3) 
0.43822474469734773

>  <minSuCosW_score>  (3) 
0.40901558638595858

>  <sumSuCosW_score>  (3) 
0.84724033108330632

>  <SA_score>  (3) 
6.6185230079591602

>  <aLogP_score>  (3) 
1.3851

>  <hbondD_score>  (3) 
1

>  <hbondA_score>  (3) 
5

>  <polarSurfaceArea_score>  (3) 
96.02000000000001

>  <rotableBonds_score>  (3) 
7

>  <SC_score>  (3) 
3.2825137992300264

>  <energyPoseVsEnsemble_score>  (3) 
2.170754223579868

>  <xcos_score>  (3) 
10.412556910634528

>  <plipMedianPreser_score>  (3) 
0

>  <plipGlobalPreser_score>  (3) 
0

>  <plipGlobalPreserOverMw_score>  (3) 
0

>  <original_name>  (3) 
x0276-0A-x0116-0B-COc1ccc-C-O-N2CCN-C-O-c3ccc-CCNS-C-O-O-cc3-CC2-cc1

>  <original SMILES>  (3) 
[H]c1c([H])c(C(=O)N2C([H])([H])C([H])([H])N(C(=O)c3c([H])c([H])c(C([H])([H])C([H])([H])N([H])S(=O)(=O)C([H])([H])[H])c([H])c3[H])C([H])([H])C2([H])[H])c([H])c([H])c1OC([H])([H])[H]

$$$$
117_x0276_0A_-x0116_0B_CS
     RDKit          3D

 31 33  0  0  0  0  0  0  0  0999 V2000
   -2.3080   41.3210  -57.4030 C   0  0  0  0  0  0  0  0  0  0  0  0
   -1.6250   40.6810  -58.9170 S   0  0  0  0  0  0  0  0  0  0  0  0
   -2.6540   40.5930  -59.9170 O   0  0  0  0  0  0  0  0  0  0  0  0
   -0.4010   41.3560  -59.2140 O   0  0  0  0  0  0  0  0  0  0  0  0
   -1.2650   39.1040  -58.4530 N   0  0  0  0  0  0  0  0  0  0  0  0
    0.0910   38.6870  -58.2800 C   0  0  0  0  0  0  0  0  0  0  0  0
    0.5400   37.7250  -59.3460 C   0  0  0  0  0  0  0  0  0  0  0  0
    1.7370   37.0600  -59.0630 C   0  0  0  0  0  0  0  0  0  0  0  0
    2.7140   36.8540  -60.0340 C   0  0  0  0  0  0  0  0  0  0  0  0
    2.0080   36.5750  -57.7630 C   0  0  0  0  0  0  0  0  0  0  0  0
    3.9280   36.2080  -59.7960 C   0  0  0  0  0  0  0  0  0  0  0  0
    3.3170   35.8560  -57.4280 C   0  0  0  0  0  0  0  0  0  0  0  0
    4.2650   35.6780  -58.4320 C   0  0  0  0  0  0  0  0  0  0  0  0
    5.5440   34.9880  -58.1140 C   0  0  0  0  0  0  0  0  0  0  0  0
    5.5580   34.3570  -57.0590 O   0  0  0  0  0  0  0  0  0  0  0  0
    6.6690   35.0790  -58.9610 N   0  0  0  0  0  0  0  0  0  0  0  0
    7.9690   34.5790  -58.4620 C   0  0  0  0  0  0  0  0  0  0  0  0
    6.7550   35.9320  -60.1450 C   0  0  0  0  0  0  0  0  0  0  0  0
    8.4250   33.5260  -59.2880 C   0  0  0  0  0  0  0  0  0  0  0  0
    8.2180   36.1750  -60.5820 C   0  0  0  0  0  0  0  0  0  0  0  0
    9.3100   33.9810  -60.2920 C   0  0  0  0  0  0  0  0  0  0  0  0
    8.8190   34.9780  -61.1850 N   0  0  0  0  0  0  0  0  0  0  0  0
    8.9630   34.9170  -62.5940 C   0  0  0  0  0  0  0  0  0  0  0  0
    9.7910   35.5590  -63.2420 O   0  0  0  0  0  0  0  0  0  0  0  0
    8.0380   34.0200  -63.1800 O   0  0  0  0  0  0  0  0  0  0  0  0
    7.3390   33.3470  -62.2430 C   0  0  0  0  0  0  0  0  0  0  0  0
    7.9740   32.1800  -61.8100 C   0  0  0  0  0  0  0  0  0  0  0  0
    6.1110   33.7150  -61.6950 C   0  0  0  0  0  0  0  0  0  0  0  0
    7.3740   31.4150  -60.8250 C   0  0  0  0  0  0  0  0  0  0  0  0
    5.5300   32.9350  -60.7090 C   0  0  0  0  0  0  0  0  0  0  0  0
    6.1620   31.7970  -60.2740 C   0  0  0  0  0  0  0  0  0  0  0  0
  1  2  1  0
  2  3  2  0
  2  4  2  0
  2  5  1  0
  5  6  1  0
  6  7  1  0
  7  8  1  0
  8  9  2  0
  8 10  1  0
  9 11  1  0
 10 12  2  0
 11 13  2  0
 12 13  1  0
 13 14  1  0
 14 15  2  0
 14 16  1  0
 16 17  1  0
 16 18  1  0
 17 19  1  0
 18 20  1  0
 19 21  1  0
 20 22  1  0
 21 22  1  0
 22 23  1  0
 23 24  2  0
 23 25  1  0
 25 26  1  0
 26 27  2  0
 26 28  1  0
 27 29  1  0
 28 30  2  0
 29 31  2  0
 30 31  1  0
M  END
>  <ref_pdb>  (4) 
x0116

>  <ref_mols>  (4) 
x0116_0B,x0276_0A

>  <fragmensteinOld_score>  (4) 
-1.1575130287425246

>  <LE_score>  (4) 
-0.19264128692155935

>  <comRMSD_score>  (4) 
0.73686295017114301

>  <fragmensteinNew_score>  (4) 
1.1566063838742493

>  <meanSuCosW_score>  (4) 
0.42954995182171674

>  <maxSuCosW_score>  (4) 
0.43873848748442973

>  <minSuCosW_score>  (4) 
0.4203614161590038

>  <sumSuCosW_score>  (4) 
0.85909990364343347

>  <SA_score>  (4) 
6.967357945025519

>  <aLogP_score>  (4) 
2.1251999999999986

>  <hbondD_score>  (4) 
1

>  <hbondA_score>  (4) 
5

>  <polarSurfaceArea_score>  (4) 
96.019999999999996

>  <rotableBonds_score>  (4) 
6

>  <SC_score>  (4) 
4.0176737735785126

>  <energyPoseVsEnsemble_score>  (4) 
3.8026767625048414

>  <xcos_score>  (4) 
7.2272441933458875

>  <plipMedianPreser_score>  (4) 
0.75

>  <plipGlobalPreser_score>  (4) 
0.42857142857142855

>  <plipGlobalPreserOverMw_score>  (4) 
0.09627202643048749

>  <original_name>  (4) 
x0276-0A-x0116-0B-CS-O-O-NCCc1ccc-C-O-N2CCCN-C-O-Oc3ccccc3-CC2-cc1

>  <original SMILES>  (4) 
[H]c1c([H])c([H])c(OC(=O)N2C([H])([H])C([H])([H])N(C(=O)c3c([H])c([H])c(C([H])([H])C([H])([H])N([H])S(=O)(=O)C([H])([H])[H])c([H])c3[H])C([H])([H])C([H])([H])C2([H])[H])c([H])c1[H]

$$$$
126_x0276_0A_-x0116_0B_CS
     RDKit          3D

 30 32  0  0  0  0  0  0  0  0999 V2000
   -2.2470   41.4260  -57.1780 C   0  0  0  0  0  0  0  0  0  0  0  0
   -1.8630   40.6300  -58.7150 S   0  0  0  0  0  0  0  0  0  0  0  0
   -3.0680   40.2860  -59.4120 O   0  0  0  0  0  0  0  0  0  0  0  0
   -0.7700   41.3120  -59.3600 O   0  0  0  0  0  0  0  0  0  0  0  0
   -1.2310   39.2310  -58.0930 N   0  0  0  0  0  0  0  0  0  0  0  0
    0.2100   38.9920  -58.1820 C   0  0  0  0  0  0  0  0  0  0  0  0
    0.4510   37.6340  -58.8110 C   0  0  0  0  0  0  0  0  0  0  0  0
    1.6100   36.8850  -58.5410 C   0  0  0  0  0  0  0  0  0  0  0  0
    2.3310   36.8060  -57.1760 C   0  0  0  0  0  0  0  0  0  0  0  0
    2.1220   36.1710  -59.5940 C   0  0  0  0  0  0  0  0  0  0  0  0
    3.6300   35.9560  -57.0840 C   0  0  0  0  0  0  0  0  0  0  0  0
    3.4020   35.3370  -59.4770 C   0  0  0  0  0  0  0  0  0  0  0  0
    4.1290   35.2390  -58.3430 C   0  0  0  0  0  0  0  0  0  0  0  0
    5.4430   34.4060  -58.4350 C   0  0  0  0  0  0  0  0  0  0  0  0
    5.6770   33.6710  -57.4730 O   0  0  0  0  0  0  0  0  0  0  0  0
    6.3430   34.5300  -59.5930 N   0  0  0  0  0  0  0  0  0  0  0  0
    7.7280   34.9660  -59.3560 C   0  0  0  0  0  0  0  0  0  0  0  0
    6.4040   33.4340  -60.5820 C   0  0  0  0  0  0  0  0  0  0  0  0
    8.6500   34.6590  -60.5570 C   0  0  0  0  0  0  0  0  0  0  0  0
    6.8320   33.9360  -61.8630 C   0  0  0  0  0  0  0  0  0  0  0  0
    7.9870   34.7570  -61.8800 N   0  0  0  0  0  0  0  0  0  0  0  0
    8.7800   34.5370  -63.0630 C   0  0  0  0  0  0  0  0  0  0  0  0
    9.0120   35.5690  -64.2140 C   0  0  0  0  0  0  0  0  0  0  0  0
    8.1390   35.7370  -65.0680 O   0  0  0  0  0  0  0  0  0  0  0  0
   10.1930   36.3110  -64.3420 N   0  0  0  0  0  0  0  0  0  0  0  0
   11.4540   35.6360  -64.6640 C   0  0  0  0  0  0  0  0  0  0  0  0
   10.1260   37.7050  -64.8280 C   0  0  0  0  0  0  0  0  0  0  0  0
   12.1340   36.1980  -65.9210 C   0  0  0  0  0  0  0  0  0  0  0  0
   11.3770   38.3090  -64.9100 C   0  0  0  0  0  0  0  0  0  0  0  0
   12.4220   37.5400  -65.7100 C   0  0  0  0  0  0  0  0  0  0  0  0
  1  2  1  0
  2  3  2  0
  2  4  2  0
  2  5  1  0
  5  6  1  0
  6  7  1  0
  7  8  1  0
  8  9  2  0
  8 10  1  0
  9 11  1  0
 10 12  2  0
 11 13  2  0
 12 13  1  0
 13 14  1  0
 14 15  2  0
 14 16  1  0
 16 17  1  0
 16 18  1  0
 17 19  1  0
 18 20  1  0
 19 21  1  0
 20 21  1  0
 21 22  1  0
 22 23  1  0
 23 24  2  0
 23 25  1  0
 25 26  1  0
 25 27  1  0
 26 28  1  0
 27 29  1  0
 28 30  1  0
 29 30  1  0
M  END
>  <ref_pdb>  (5) 
x0116

>  <ref_mols>  (5) 
x0116_0B,x0276_0A

>  <fragmensteinOld_score>  (5) 
-1.3211652503051394

>  <LE_score>  (5) 
-0.13673385813999439

>  <comRMSD_score>  (5) 
0.78127821341882364

>  <fragmensteinNew_score>  (5) 
0.90732613167329945

>  <meanSuCosW_score>  (5) 
0.4165767797428977

>  <maxSuCosW_score>  (5) 
0.43702893451404196

>  <minSuCosW_score>  (5) 
0.39612462497175344

>  <sumSuCosW_score>  (5) 
0.83315355948579539

>  <SA_score>  (5) 
7.7140591831403942

>  <aLogP_score>  (5) 
0.54860000000000109

>  <hbondD_score>  (5) 
1

>  <hbondA_score>  (5) 
5

>  <polarSurfaceArea_score>  (5) 
90.029999999999987

>  <rotableBonds_score>  (5) 
7

>  <SC_score>  (5) 
4.756012484642401

>  <energyPoseVsEnsemble_score>  (5) 
1.625412000544026

>  <xcos_score>  (5) 
7.1863184283240944

>  <plipMedianPreser_score>  (5) 
0.75

>  <plipGlobalPreser_score>  (5) 
0.42857142857142855

>  <plipGlobalPreserOverMw_score>  (5) 
0.098247880522011513

>  <original_name>  (5) 
x0276-0A-x0116-0B-CS-O-O-NCCc1ccc-C-O-N2CCN-CC-O-N3CCCCC3-CC2-cc1

>  <original SMILES>  (5) 
[H]c1c([H])c(C([H])([H])C([H])([H])N([H])S(=O)(=O)C([H])([H])[H])c([H])c([H])c1C(=O)N1C([H])([H])C([H])([H])N(C([H])([H])C(=O)N2C([H])([H])C([H])([H])C([H])([H])C([H])([H])C2([H])[H])C([H])([H])C1([H])[H]

$$$$
127_x0276_0A_-x0116_0B_CS
     RDKit          3D

 31 33  0  0  0  0  0  0  0  0999 V2000
   -2.2510   41.4170  -57.2440 C   0  0  0  0  0  0  0  0  0  0  0  0
   -1.8420   40.6750  -58.8040 S   0  0  0  0  0  0  0  0  0  0  0  0
   -3.0320   40.3110  -59.5150 O   0  0  0  0  0  0  0  0  0  0  0  0
   -0.7590   41.3890  -59.4230 O   0  0  0  0  0  0  0  0  0  0  0  0
   -1.1730   39.2790  -58.2260 N   0  0  0  0  0  0  0  0  0  0  0  0
    0.2520   39.0110  -58.4180 C   0  0  0  0  0  0  0  0  0  0  0  0
    0.4430   37.5100  -58.3110 C   0  0  0  0  0  0  0  0  0  0  0  0
    1.6740   36.8510  -58.2070 C   0  0  0  0  0  0  0  0  0  0  0  0
    2.1860   36.0600  -59.4090 C   0  0  0  0  0  0  0  0  0  0  0  0
    2.4350   36.8750  -57.0340 C   0  0  0  0  0  0  0  0  0  0  0  0
    3.5360   35.3580  -59.2610 C   0  0  0  0  0  0  0  0  0  0  0  0
    3.8000   36.1510  -56.9290 C   0  0  0  0  0  0  0  0  0  0  0  0
    4.3110   35.4450  -58.0190 C   0  0  0  0  0  0  0  0  0  0  0  0
    5.6740   34.7180  -58.0970 C   0  0  0  0  0  0  0  0  0  0  0  0
    6.0510   34.1750  -57.0560 O   0  0  0  0  0  0  0  0  0  0  0  0
    6.4370   34.7070  -59.3420 N   0  0  0  0  0  0  0  0  0  0  0  0
    6.4020   33.4780  -60.1590 C   0  0  0  0  0  0  0  0  0  0  0  0
    7.7110   35.4290  -59.6160 C   0  0  0  0  0  0  0  0  0  0  0  0
    6.8430   33.6600  -61.6490 C   0  0  0  0  0  0  0  0  0  0  0  0
    8.6250   34.8470  -60.5230 C   0  0  0  0  0  0  0  0  0  0  0  0
    8.0140   34.5710  -61.8400 N   0  0  0  0  0  0  0  0  0  0  0  0
    8.8040   34.4290  -63.0450 C   0  0  0  0  0  0  0  0  0  0  0  0
    9.0210   35.5060  -64.1600 C   0  0  0  0  0  0  0  0  0  0  0  0
    8.1370   35.7170  -64.9940 O   0  0  0  0  0  0  0  0  0  0  0  0
   10.2130   36.2370  -64.2800 N   0  0  0  0  0  0  0  0  0  0  0  0
   11.4720   35.5460  -64.5870 C   0  0  0  0  0  0  0  0  0  0  0  0
   10.1530   37.7020  -64.4690 C   0  0  0  0  0  0  0  0  0  0  0  0
   12.2430   36.0900  -65.8060 C   0  0  0  0  0  0  0  0  0  0  0  0
   11.3100   38.3260  -64.9440 C   0  0  0  0  0  0  0  0  0  0  0  0
   11.3960   36.7870  -66.6590 C   0  0  0  0  0  0  0  0  0  0  0  0
   11.1690   38.1040  -66.2950 C   0  0  0  0  0  0  0  0  0  0  0  0
  1  2  1  0
  2  3  2  0
  2  4  2  0
  2  5  1  0
  5  6  1  0
  6  7  1  0
  7  8  1  0
  8  9  2  0
  8 10  1  0
  9 11  1  0
 10 12  2  0
 11 13  2  0
 12 13  1  0
 13 14  1  0
 14 15  2  0
 14 16  1  0
 16 17  1  0
 16 18  1  0
 17 19  1  0
 18 20  1  0
 19 21  1  0
 20 21  1  0
 21 22  1  0
 22 23  1  0
 23 24  2  0
 23 25  1  0
 25 26  1  0
 25 27  1  0
 26 28  1  0
 27 29  1  0
 28 30  1  0
 29 31  1  0
 30 31  1  0
M  END
>  <ref_pdb>  (6) 
x0116

>  <ref_mols>  (6) 
x0116_0B,x0276_0A

>  <fragmensteinOld_score>  (6) 
-1.250710219009485

>  <LE_score>  (6) 
-0.13299479175978657

>  <comRMSD_score>  (6) 
0.9068522816609782

>  <fragmensteinNew_score>  (6) 
1.2389271224771281

>  <meanSuCosW_score>  (6) 
0.39080466546036019

>  <maxSuCosW_score>  (6) 
0.39978951452462447

>  <minSuCosW_score>  (6) 
0.38181981639609591

>  <sumSuCosW_score>  (6) 
0.78160933092072038

>  <SA_score>  (6) 
7.8621281354340802

>  <aLogP_score>  (6) 
0.93870000000000076

>  <hbondD_score>  (6) 
1

>  <hbondA_score>  (6) 
5

>  <polarSurfaceArea_score>  (6) 
90.029999999999987

>  <rotableBonds_score>  (6) 
7

>  <SC_score>  (6) 
4.756012484642401

>  <energyPoseVsEnsemble_score>  (6) 
1.7233557892322942

>  <xcos_score>  (6) 
5.8720657293396759

>  <plipMedianPreser_score>  (6) 
0.75

>  <plipGlobalPreser_score>  (6) 
0.42857142857142855

>  <plipGlobalPreserOverMw_score>  (6) 
0.095189426667878066

>  <original_name>  (6) 
x0276-0A-x0116-0B-CS-O-O-NCCc1ccc-C-O-N2CCN-CC-O-N3CCCCCC3-CC2-cc1

>  <original SMILES>  (6) 
[H]c1c([H])c(C([H])([H])C([H])([H])N([H])S(=O)(=O)C([H])([H])[H])c([H])c([H])c1C(=O)N1C([H])([H])C([H])([H])N(C([H])([H])C(=O)N2C([H])([H])C([H])([H])C([H])([H])C([H])([H])C([H])([H])C2([H])[H])C([H])([H])C1([H])[H]

$$$$
132_x0276_0A_-x0116_0B_CS
     RDKit          3D

 31 33  0  0  0  0  0  0  0  0999 V2000
   -2.1870   41.2220  -57.1570 C   0  0  0  0  0  0  0  0  0  0  0  0
   -2.0100   40.4370  -58.7440 S   0  0  0  0  0  0  0  0  0  0  0  0
   -3.3110   40.0740  -59.2460 O   0  0  0  0  0  0  0  0  0  0  0  0
   -1.0710   41.2110  -59.5220 O   0  0  0  0  0  0  0  0  0  0  0  0
   -1.2170   39.0260  -58.3230 N   0  0  0  0  0  0  0  0  0  0  0  0
    0.2250   38.9840  -58.5410 C   0  0  0  0  0  0  0  0  0  0  0  0
    0.6410   37.7740  -59.3460 C   0  0  0  0  0  0  0  0  0  0  0  0
    1.8210   37.1110  -59.0230 C   0  0  0  0  0  0  0  0  0  0  0  0
    2.8240   36.9450  -59.9760 C   0  0  0  0  0  0  0  0  0  0  0  0
    2.0350   36.5890  -57.7140 C   0  0  0  0  0  0  0  0  0  0  0  0
    4.0070   36.2930  -59.6700 C   0  0  0  0  0  0  0  0  0  0  0  0
    3.2170   35.9090  -57.3260 C   0  0  0  0  0  0  0  0  0  0  0  0
    4.2680   35.7110  -58.2350 C   0  0  0  0  0  0  0  0  0  0  0  0
    5.5990   34.9750  -57.8710 C   0  0  0  0  0  0  0  0  0  0  0  0
    5.7530   33.7820  -58.1210 O   0  0  0  0  0  0  0  0  0  0  0  0
    6.6340   35.6880  -57.2470 N   0  0  0  0  0  0  0  0  0  0  0  0
    8.0750   35.3180  -57.3500 C   0  0  0  0  0  0  0  0  0  0  0  0
    8.4030   35.1800  -58.7030 C   0  0  0  0  0  0  0  0  0  0  0  0
    8.0980   36.2300  -59.5460 C   0  0  0  0  0  0  0  0  0  0  0  0
    9.0210   34.0110  -59.2230 C   0  0  0  0  0  0  0  0  0  0  0  0
    8.3920   36.1050  -60.8710 C   0  0  0  0  0  0  0  0  0  0  0  0
    9.3290   33.8680  -60.5960 C   0  0  0  0  0  0  0  0  0  0  0  0
    9.0290   34.8880  -61.5080 C   0  0  0  0  0  0  0  0  0  0  0  0
    9.2810   34.7930  -62.9980 C   0  0  0  0  0  0  0  0  0  0  0  0
    8.1190   34.1630  -63.4830 O   0  0  0  0  0  0  0  0  0  0  0  0
    7.4700   33.4760  -62.4800 C   0  0  0  0  0  0  0  0  0  0  0  0
    6.1570   33.8550  -61.7970 C   0  0  0  0  0  0  0  0  0  0  0  0
    8.1530   32.3220  -62.0830 C   0  0  0  0  0  0  0  0  0  0  0  0
    5.6310   32.9610  -60.6770 C   0  0  0  0  0  0  0  0  0  0  0  0
    7.6390   31.4230  -60.9680 C   0  0  0  0  0  0  0  0  0  0  0  0
    6.4570   31.7630  -60.3320 C   0  0  0  0  0  0  0  0  0  0  0  0
  1  2  1  0
  2  3  2  0
  2  4  2  0
  2  5  1  0
  5  6  1  0
  6  7  1  0
  7  8  1  0
  8  9  2  0
  8 10  1  0
  9 11  1  0
 10 12  2  0
 11 13  2  0
 12 13  1  0
 13 14  1  0
 14 15  2  0
 14 16  1  0
 16 17  1  0
 17 18  1  0
 18 19  2  0
 18 20  1  0
 19 21  1  0
 20 22  2  0
 21 23  2  0
 22 23  1  0
 23 24  1  0
 24 25  1  0
 25 26  1  0
 26 27  2  0
 26 28  1  0
 27 29  1  0
 28 30  2  0
 29 31  2  0
 30 31  1  0
M  END
>  <ref_pdb>  (7) 
x0116

>  <ref_mols>  (7) 
x0116_0B,x0276_0A

>  <fragmensteinOld_score>  (7) 
-1.3462308251642883

>  <LE_score>  (7) 
-0.25165468432059146

>  <comRMSD_score>  (7) 
0.91402821762337871

>  <fragmensteinNew_score>  (7) 
1.4519235213796886

>  <meanSuCosW_score>  (7) 
0.44428988594169722

>  <maxSuCosW_score>  (7) 
0.44582230853078897

>  <minSuCosW_score>  (7) 
0.44275746335260546

>  <sumSuCosW_score>  (7) 
0.88857977188339443

>  <SA_score>  (7) 
6.9539551664132118

>  <aLogP_score>  (7) 
3.287300000000001

>  <hbondD_score>  (7) 
2

>  <hbondA_score>  (7) 
4

>  <polarSurfaceArea_score>  (7) 
84.5

>  <rotableBonds_score>  (7) 
10

>  <SC_score>  (7) 
3.9986192812856829

>  <energyPoseVsEnsemble_score>  (7) 
2.3161992425159936

>  <xcos_score>  (7) 
10.835366866379008

>  <plipMedianPreser_score>  (7) 
0

>  <plipGlobalPreser_score>  (7) 
0

>  <plipGlobalPreserOverMw_score>  (7) 
0

>  <original_name>  (7) 
x0276-0A-x0116-0B-CS-O-O-NCCc1ccc-C-O-NCc2ccc-COc3ccccc3-cc2-cc1

>  <original SMILES>  (7) 
[H]c1c([H])c([H])c(OC([H])([H])c2c([H])c([H])c(C([H])([H])N([H])C(=O)c3c([H])c([H])c(C([H])([H])C([H])([H])N([H])S(=O)(=O)C([H])([H])[H])c([H])c3[H])c([H])c2[H])c([H])c1[H]

$$$$
135_x0276_0A_-x0116_0B_CS
     RDKit          3D

 27 28  0  0  0  0  0  0  0  0999 V2000
   -2.2370   41.3510  -57.2230 C   0  0  0  0  0  0  0  0  0  0  0  0
   -1.9190   40.6350  -58.8080 S   0  0  0  0  0  0  0  0  0  0  0  0
   -3.1810   40.2130  -59.3460 O   0  0  0  0  0  0  0  0  0  0  0  0
   -0.9960   41.4600  -59.5300 O   0  0  0  0  0  0  0  0  0  0  0  0
   -1.1130   39.2140  -58.3730 N   0  0  0  0  0  0  0  0  0  0  0  0
    0.2750   39.0330  -58.7140 C   0  0  0  0  0  0  0  0  0  0  0  0
    0.4610   37.5400  -58.6660 C   0  0  0  0  0  0  0  0  0  0  0  0
    1.8370   36.9400  -58.8220 C   0  0  0  0  0  0  0  0  0  0  0  0
    2.4220   36.2310  -57.7710 C   0  0  0  0  0  0  0  0  0  0  0  0
    2.5660   37.0430  -60.0010 C   0  0  0  0  0  0  0  0  0  0  0  0
    3.6750   35.6240  -57.8280 C   0  0  0  0  0  0  0  0  0  0  0  0
    3.8310   36.4410  -60.0840 C   0  0  0  0  0  0  0  0  0  0  0  0
    4.4010   35.7300  -59.0170 C   0  0  0  0  0  0  0  0  0  0  0  0
    5.8020   35.1000  -59.2180 C   0  0  0  0  0  0  0  0  0  0  0  0
    6.2150   34.3320  -58.3590 O   0  0  0  0  0  0  0  0  0  0  0  0
    6.4700   35.4890  -60.3910 O   0  0  0  0  0  0  0  0  0  0  0  0
    7.2430   34.5210  -61.2170 C   0  0  0  0  0  0  0  0  0  0  0  0
    8.5830   35.1180  -61.8350 C   0  0  0  0  0  0  0  0  0  0  0  0
    9.1100   34.4830  -63.1890 C   0  0  0  0  0  0  0  0  0  0  0  0
    9.3500   35.4920  -64.3890 C   0  0  0  0  0  0  0  0  0  0  0  0
    8.2390   35.9210  -65.1630 O   0  0  0  0  0  0  0  0  0  0  0  0
   10.6390   35.9650  -64.7110 N   0  0  0  0  0  0  0  0  0  0  0  0
   10.9960   36.6570  -65.9390 C   0  0  0  0  0  0  0  0  0  0  0  0
   11.8300   35.4590  -64.0460 C   0  0  0  0  0  0  0  0  0  0  0  0
   11.8070   37.7590  -65.6720 C   0  0  0  0  0  0  0  0  0  0  0  0
   12.9900   36.0580  -64.5880 C   0  0  0  0  0  0  0  0  0  0  0  0
   12.9350   37.3990  -64.9660 C   0  0  0  0  0  0  0  0  0  0  0  0
  1  2  1  0
  2  3  2  0
  2  4  2  0
  2  5  1  0
  5  6  1  0
  6  7  1  0
  7  8  1  0
  8  9  2  0
  8 10  1  0
  9 11  1  0
 10 12  2  0
 11 13  2  0
 12 13  1  0
 13 14  1  0
 14 15  2  0
 14 16  1  0
 16 17  1  0
 17 18  1  0
 18 19  1  0
 19 20  1  0
 20 21  2  0
 20 22  1  0
 22 23  1  0
 22 24  1  0
 23 25  1  0
 24 26  1  0
 25 27  1  0
 26 27  1  0
M  END
>  <ref_pdb>  (8) 
x0116

>  <ref_mols>  (8) 
x0116_0B,x0276_0A

>  <fragmensteinOld_score>  (8) 
-1.7553041172451718

>  <LE_score>  (8) 
-0.24101417239760187

>  <comRMSD_score>  (8) 
0.89437524818139846

>  <fragmensteinNew_score>  (8) 
0.79825809441871787

>  <meanSuCosW_score>  (8) 
0.38484909078457802

>  <maxSuCosW_score>  (8) 
0.42670598728123599

>  <minSuCosW_score>  (8) 
0.34299219428792005

>  <sumSuCosW_score>  (8) 
0.76969818156915604

>  <SA_score>  (8) 
7.2818781426449037

>  <aLogP_score>  (8) 
1.7277999999999991

>  <hbondD_score>  (8) 
1

>  <hbondA_score>  (8) 
5

>  <polarSurfaceArea_score>  (8) 
92.779999999999987

>  <rotableBonds_score>  (8) 
9

>  <SC_score>  (8) 
4.4087331514068042

>  <energyPoseVsEnsemble_score>  (8) 
1.2712786475423117

>  <xcos_score>  (8) 
7.76209674646375

>  <plipMedianPreser_score>  (8) 
0.75

>  <plipGlobalPreser_score>  (8) 
0.42857142857142855

>  <plipGlobalPreserOverMw_score>  (8) 
0.10817815098653523

>  <original_name>  (8) 
x0276-0A-x0116-0B-CS-O-O-NCCc1ccc-C-O-OCCCC-O-N2CCCCC2-cc1

>  <original SMILES>  (8) 
[H]c1c([H])c(C([H])([H])C([H])([H])N([H])S(=O)(=O)C([H])([H])[H])c([H])c([H])c1C(=O)OC([H])([H])C([H])([H])C([H])([H])C(=O)N1C([H])([H])C([H])([H])C([H])([H])C([H])([H])C1([H])[H]

$$$$
264_x0306_0B_-x0276_0A_CS
     RDKit          3D

 21 22  0  0  0  0  0  0  0  0999 V2000
   -2.2400   41.1040  -57.3860 C   0  0  0  0  0  0  0  0  0  0  0  0
   -2.1400   40.3820  -59.0110 S   0  0  0  0  0  0  0  0  0  0  0  0
   -3.4330   40.5200  -59.6260 O   0  0  0  0  0  0  0  0  0  0  0  0
   -0.9530   40.8530  -59.6620 O   0  0  0  0  0  0  0  0  0  0  0  0
   -1.9180   38.7510  -58.7270 N   0  0  0  0  0  0  0  0  0  0  0  0
   -0.6250   38.2280  -58.2370 C   0  0  0  0  0  0  0  0  0  0  0  0
   -0.0960   37.0480  -59.0760 C   0  0  0  0  0  0  0  0  0  0  0  0
    1.2790   36.7660  -59.0030 C   0  0  0  0  0  0  0  0  0  0  0  0
    2.3640   37.3580  -59.8260 C   0  0  0  0  0  0  0  0  0  0  0  0
    1.9550   35.5510  -57.7930 S   0  0  0  0  0  0  0  0  0  0  0  0
    3.6830   36.7940  -59.4090 C   0  0  0  0  0  0  0  0  0  0  0  0
    3.6240   35.7830  -58.3080 C   0  0  0  0  0  0  0  0  0  0  0  0
    4.7590   35.1160  -57.7600 C   0  0  0  0  0  0  0  0  0  0  0  0
    4.6300   34.4120  -56.7630 O   0  0  0  0  0  0  0  0  0  0  0  0
    6.0240   35.3340  -58.4230 N   0  0  0  0  0  0  0  0  0  0  0  0
    7.2600   34.4420  -58.4320 C   0  0  1  0  0  0  0  0  0  0  0  0
    7.0570   33.2110  -57.8750 C   0  0  0  0  0  0  0  0  0  0  0  0
    7.8080   34.1460  -59.8780 C   0  0  0  0  0  0  0  0  0  0  0  0
    6.3870   32.7130  -59.0120 N   0  0  0  0  0  0  0  0  0  0  0  0
    6.6840   33.3570  -60.1680 C   0  0  0  0  0  0  0  0  0  0  0  0
    5.9970   33.2530  -61.4070 O   0  0  0  0  0  0  0  0  0  0  0  0
  1  2  1  0
  2  3  2  0
  2  4  2  0
  2  5  1  0
  5  6  1  0
  6  7  1  0
  7  8  1  0
  8  9  2  0
  8 10  1  0
  9 11  1  0
 10 12  1  0
 11 12  2  0
 12 13  1  0
 13 14  2  0
 13 15  1  0
 16 15  1  6
 16 17  1  0
 16 18  1  0
 17 19  1  0
 18 20  1  0
 19 20  1  0
 20 21  2  0
M  END
>  <ref_pdb>  (9) 
x0276

>  <ref_mols>  (9) 
x0276_0A,x0306_0B

>  <fragmensteinOld_score>  (9) 
-2.0935729036671145

>  <LE_score>  (9) 
-0.23569456561332655

>  <comRMSD_score>  (9) 
0.99062209815418778

>  <fragmensteinNew_score>  (9) 
0.18389583436100404

>  <meanSuCosW_score>  (9) 
0.38667466712307208

>  <maxSuCosW_score>  (9) 
0.5576411960611577

>  <minSuCosW_score>  (9) 
0.21570813818498652

>  <sumSuCosW_score>  (9) 
0.77334933424614416

>  <SA_score>  (9) 
4.2686359039999484

>  <aLogP_score>  (9) 
-0.54189999999999938

>  <hbondD_score>  (9) 
3

>  <hbondA_score>  (9) 
4

>  <polarSurfaceArea_score>  (9) 
104.37

>  <rotableBonds_score>  (9) 
6

>  <SC_score>  (9) 
4.0976067349093608

>  <energyPoseVsEnsemble_score>  (9) 
1.0462352117055822

>  <xcos_score>  (9) 
16.989355310053611

>  <plipMedianPreser_score>  (9) 
0

>  <plipGlobalPreser_score>  (9) 
0

>  <plipGlobalPreserOverMw_score>  (9) 
0

>  <original_name>  (9) 
x0306-0B-x0276-0A-CS-O-O-NCCc1ccc-C-O-NC2CNC-O-C2-s1

>  <original SMILES>  (9) 
[H]c1c(C(=O)N([H])[C@]2([H])C([H])([H])C(=O)N([H])C2([H])[H])sc(C([H])([H])C([H])([H])N([H])S(=O)(=O)C([H])([H])[H])c1[H]

$$$$
268_x0306_0B_-x0309_0B_CS
     RDKit          3D

 20 22  0  0  0  0  0  0  0  0999 V2000
   -0.1220   40.5770  -60.0790 C   0  0  0  0  0  0  0  0  0  0  0  0
   -1.3530   39.4260  -60.0020 S   0  0  0  0  0  0  0  0  0  0  0  0
   -1.4110   39.0800  -58.6040 O   0  0  0  0  0  0  0  0  0  0  0  0
   -2.4660   39.9520  -60.7510 O   0  0  0  0  0  0  0  0  0  0  0  0
   -0.5350   38.2560  -60.9620 N   0  0  0  0  0  0  0  0  0  0  0  0
    0.8240   37.8250  -60.5860 C   0  0  0  0  0  0  0  0  0  0  0  0
    2.0880   38.5800  -60.9880 C   0  0  0  0  0  0  0  0  0  0  0  0
    0.8900   36.7130  -59.8540 C   0  0  0  0  0  0  0  0  0  0  0  0
    3.3920   37.9610  -60.4560 C   0  0  0  0  0  0  0  0  0  0  0  0
    2.0480   36.1390  -59.3690 C   0  0  0  0  0  0  0  0  0  0  0  0
    3.2780   36.6880  -59.6140 C   0  0  0  0  0  0  0  0  0  0  0  0
    4.3320   35.9940  -59.0200 C   0  0  2  0  0  0  0  0  0  0  0  0
    5.4300   35.8690  -59.4780 C   0  0  0  0  0  0  0  0  0  0  0  0
    4.6890   34.4870  -59.5720 C   0  0  2  0  0  0  0  0  0  0  0  0
    5.7550   34.1060  -60.3920 C   0  0  0  0  0  0  0  0  0  0  0  0
    7.0570   34.3280  -60.1170 C   0  0  0  0  0  0  0  0  0  0  0  0
    5.4140   33.4450  -61.5830 C   0  0  0  0  0  0  0  0  0  0  0  0
    8.0580   33.9560  -60.9550 C   0  0  0  0  0  0  0  0  0  0  0  0
    6.3900   33.0380  -62.4650 C   0  0  0  0  0  0  0  0  0  0  0  0
    7.7570   33.2700  -62.2130 C   0  0  0  0  0  0  0  0  0  0  0  0
  1  2  1  0
  2  3  2  0
  2  4  2  0
  2  5  1  0
  5  6  1  0
  6  7  2  0
  6  8  1  0
  7  9  1  0
  8 10  2  0
  9 11  2  0
 10 11  1  0
 12 11  1  6
 12 13  1  0
 12 14  1  0
 13 14  1  0
 14 15  1  6
 15 16  2  0
 15 17  1  0
 16 18  1  0
 17 19  2  0
 18 20  2  0
 19 20  1  0
M  END
>  <ref_pdb>  (10) 
x0306

>  <ref_mols>  (10) 
x0306_0B,x0309_0B

>  <fragmensteinOld_score>  (10) 
-2.281891250037281

>  <LE_score>  (10) 
-0.22264991280990779

>  <comRMSD_score>  (10) 
0.74229834888829505

>  <fragmensteinNew_score>  (10) 
-0.29970701136736272

>  <meanSuCosW_score>  (10) 
0.52651398337475008

>  <maxSuCosW_score>  (10) 
0.64780454084557648

>  <minSuCosW_score>  (10) 
0.40522342590392374

>  <sumSuCosW_score>  (10) 
1.0530279667495002

>  <SA_score>  (10) 
7.2223606331682353

>  <aLogP_score>  (10) 
3.3292000000000019

>  <hbondD_score>  (10) 
1

>  <hbondA_score>  (10) 
2

>  <polarSurfaceArea_score>  (10) 
46.170000000000002

>  <rotableBonds_score>  (10) 
4

>  <SC_score>  (10) 
3.4149174282431249

>  <energyPoseVsEnsemble_score>  (10) 
0.97429214907559036

>  <xcos_score>  (10) 
20.207854995842691

>  <plipMedianPreser_score>  (10) 
0.80000000000000004

>  <plipGlobalPreser_score>  (10) 
0.5714285714285714

>  <plipGlobalPreserOverMw_score>  (10) 
0.19903606847086652

>  <original_name>  (10) 
x0306-0B-x0309-0B-CS-O-O-Nc1ccc-C-H-2C-C-H-2c2ccccc2-cc1

>  <original SMILES>  (10) 
[H]c1c([H])c([H])c([C@@]2([H])C([H])([H])[C@@]2([H])c2c([H])c([H])c(N([H])S(=O)(=O)C([H])([H])[H])c([H])c2[H])c([H])c1[H]

$$$$
269_x0306_0B_-x0309_0B_CS
     RDKit          3D

 20 21  0  0  0  0  0  0  0  0999 V2000
   -0.6020   40.9390  -60.1070 C   0  0  0  0  0  0  0  0  0  0  0  0
   -1.3390   39.4210  -59.9740 S   0  0  0  0  0  0  0  0  0  0  0  0
   -1.2590   39.0860  -58.5740 O   0  0  0  0  0  0  0  0  0  0  0  0
   -2.5580   39.6790  -60.6880 O   0  0  0  0  0  0  0  0  0  0  0  0
   -0.3680   38.4030  -60.9590 N   0  0  0  0  0  0  0  0  0  0  0  0
    0.9580   37.9550  -60.5210 C   0  0  0  0  0  0  0  0  0  0  0  0
    2.1990   38.6310  -61.0700 C   0  0  0  0  0  0  0  0  0  0  0  0
    1.0440   36.9430  -59.6300 C   0  0  0  0  0  0  0  0  0  0  0  0
    3.5120   38.0810  -60.5260 C   0  0  0  0  0  0  0  0  0  0  0  0
    2.2430   36.4250  -59.1330 C   0  0  0  0  0  0  0  0  0  0  0  0
    3.4730   36.9310  -59.5240 C   0  0  0  0  0  0  0  0  0  0  0  0
    4.6700   36.4060  -59.0070 C   0  0  0  0  0  0  0  0  0  0  0  0
    4.5730   35.0350  -58.6940 C   0  0  0  0  0  0  0  0  0  0  0  0
    4.4950   34.1470  -59.8890 C   0  0  0  0  0  0  0  0  0  0  0  0
    5.7020   33.8170  -60.4290 C   0  0  0  0  0  0  0  0  0  0  0  0
    6.9500   34.0490  -59.9300 C   0  0  0  0  0  0  0  0  0  0  0  0
    5.4950   33.1780  -61.6730 C   0  0  0  0  0  0  0  0  0  0  0  0
    8.0460   33.6780  -60.6580 C   0  0  0  0  0  0  0  0  0  0  0  0
    6.5830   32.7900  -62.4150 C   0  0  0  0  0  0  0  0  0  0  0  0
    7.8880   33.0200  -61.9600 C   0  0  0  0  0  0  0  0  0  0  0  0
  1  2  1  0
  2  3  2  0
  2  4  2  0
  2  5  1  0
  5  6  1  0
  6  7  2  0
  6  8  1  0
  7  9  1  0
  8 10  2  0
  9 11  2  0
 10 11  1  0
 11 12  1  0
 12 13  1  0
 13 14  1  0
 14 15  1  0
 15 16  2  0
 15 17  1  0
 16 18  1  0
 17 19  2  0
 18 20  2  0
 19 20  1  0
M  END
>  <ref_pdb>  (11) 
x0306

>  <ref_mols>  (11) 
x0306_0B,x0309_0B

>  <fragmensteinOld_score>  (11) 
-2.3485827808305366

>  <LE_score>  (11) 
-0.23722574313800407

>  <comRMSD_score>  (11) 
0.59521048897668116

>  <fragmensteinNew_score>  (11) 
-0.57880676767765538

>  <meanSuCosW_score>  (11) 
0.50720713768396142

>  <maxSuCosW_score>  (11) 
0.62649673756390456

>  <minSuCosW_score>  (11) 
0.38791753780401822

>  <sumSuCosW_score>  (11) 
1.0144142753679228

>  <SA_score>  (11) 
7.8732791241907503

>  <aLogP_score>  (11) 
3.2334000000000023

>  <hbondD_score>  (11) 
1

>  <hbondA_score>  (11) 
2

>  <polarSurfaceArea_score>  (11) 
46.170000000000002

>  <rotableBonds_score>  (11) 
6

>  <SC_score>  (11) 
2.7850612378068069

>  <energyPoseVsEnsemble_score>  (11) 
2.5867478893208422

>  <xcos_score>  (11) 
14.911687319737645

>  <plipMedianPreser_score>  (11) 
0.80000000000000004

>  <plipGlobalPreser_score>  (11) 
0.5714285714285714

>  <plipGlobalPreserOverMw_score>  (11) 
0.19764842363167423

>  <original_name>  (11) 
x0306-0B-x0309-0B-CS-O-O-Nc1ccc-CCCc2ccccc2-cc1

>  <original SMILES>  (11) 
[H]c1c([H])c([H])c(C([H])([H])C([H])([H])C([H])([H])c2c([H])c([H])c(N([H])S(=O)(=O)C([H])([H])[H])c([H])c2[H])c([H])c1[H]

$$$$
272_x0306_0B_-x0309_0B_CS
     RDKit          3D

 20 21  0  0  0  0  0  0  0  0999 V2000
   -0.4010   40.8470  -60.3770 C   0  0  0  0  0  0  0  0  0  0  0  0
   -1.4780   39.5900  -60.0340 S   0  0  0  0  0  0  0  0  0  0  0  0
   -1.3990   39.3960  -58.6040 O   0  0  0  0  0  0  0  0  0  0  0  0
   -2.6760   39.9390  -60.7450 O   0  0  0  0  0  0  0  0  0  0  0  0
   -0.6770   38.3540  -60.9080 N   0  0  0  0  0  0  0  0  0  0  0  0
    0.6810   37.9410  -60.5550 C   0  0  0  0  0  0  0  0  0  0  0  0
    1.9200   38.7590  -60.8820 C   0  0  0  0  0  0  0  0  0  0  0  0
    0.8790   36.6820  -59.8510 C   0  0  0  0  0  0  0  0  0  0  0  0
    3.2640   38.1850  -60.4110 C   0  0  0  0  0  0  0  0  0  0  0  0
    2.0950   36.1930  -59.4410 C   0  0  0  0  0  0  0  0  0  0  0  0
    3.2770   36.8570  -59.6660 C   0  0  0  0  0  0  0  0  0  0  0  0
    4.4280   36.2600  -59.2030 C   0  0  0  0  0  0  0  0  0  0  0  0
    4.5000   35.3380  -59.9760 O   0  0  0  0  0  0  0  0  0  0  0  0
    4.7160   34.0640  -59.5750 C   0  0  0  0  0  0  0  0  0  0  0  0
    5.7900   33.6230  -60.4700 C   0  0  0  0  0  0  0  0  0  0  0  0
    7.0580   33.9630  -60.0200 C   0  0  0  0  0  0  0  0  0  0  0  0
    5.6120   32.9510  -61.6930 C   0  0  0  0  0  0  0  0  0  0  0  0
    8.1880   33.6720  -60.7680 C   0  0  0  0  0  0  0  0  0  0  0  0
    6.7450   32.6660  -62.4190 C   0  0  0  0  0  0  0  0  0  0  0  0
    7.9940   33.0170  -61.9770 C   0  0  0  0  0  0  0  0  0  0  0  0
  1  2  1  0
  2  3  2  0
  2  4  2  0
  2  5  1  0
  5  6  1  0
  6  7  2  0
  6  8  1  0
  7  9  1  0
  8 10  2  0
  9 11  2  0
 10 11  1  0
 11 12  1  0
 12 13  1  0
 13 14  1  0
 14 15  1  0
 15 16  2  0
 15 17  1  0
 16 18  1  0
 17 19  2  0
 18 20  2  0
 19 20  1  0
M  END
>  <ref_pdb>  (12) 
x0306

>  <ref_mols>  (12) 
x0306_0B,x0309_0B

>  <fragmensteinOld_score>  (12) 
-2.5539558480673215

>  <LE_score>  (12) 
-0.27273836940674023

>  <comRMSD_score>  (12) 
0.54609297732233575

>  <fragmensteinNew_score>  (12) 
-0.7125544172550824

>  <meanSuCosW_score>  (12) 
0.51331938955725687

>  <maxSuCosW_score>  (12) 
0.64814952518165436

>  <minSuCosW_score>  (12) 
0.37848925393285932

>  <sumSuCosW_score>  (12) 
1.0266387791145137

>  <SA_score>  (12) 
7.7338647669937624

>  <aLogP_score>  (12) 
2.7749000000000015

>  <hbondD_score>  (12) 
1

>  <hbondA_score>  (12) 
3

>  <polarSurfaceArea_score>  (12) 
55.400000000000006

>  <rotableBonds_score>  (12) 
6

>  <SC_score>  (12) 
1.8733862756668618

>  <energyPoseVsEnsemble_score>  (12) 
2.5743152070296906

>  <xcos_score>  (12) 
17.372829052378425

>  <plipMedianPreser_score>  (12) 
0.80000000000000004

>  <plipGlobalPreser_score>  (12) 
0.5714285714285714

>  <plipGlobalPreserOverMw_score>  (12) 
0.19630452791973502

>  <original_name>  (12) 
x0306-0B-x0309-0B-CS-O-O-Nc1ccc-COCc2ccccc2-cc1

>  <original SMILES>  (12) 
[H]c1c([H])c([H])c(C([H])([H])OC([H])([H])c2c([H])c([H])c(N([H])S(=O)(=O)C([H])([H])[H])c([H])c2[H])c([H])c1[H]

$$$$
273_x0306_0B_-x0309_0B_CS
     RDKit          3D

 19 20  0  0  0  0  0  0  0  0999 V2000
    0.3800   40.8300  -60.0330 C   0  0  0  0  0  0  0  0  0  0  0  0
   -1.0740   39.8870  -59.7810 S   0  0  0  0  0  0  0  0  0  0  0  0
   -2.2110   40.4670  -60.4460 O   0  0  0  0  0  0  0  0  0  0  0  0
   -1.0930   39.5900  -58.3780 O   0  0  0  0  0  0  0  0  0  0  0  0
   -0.5850   38.4500  -60.5710 N   0  0  0  0  0  0  0  0  0  0  0  0
    0.7240   37.8320  -60.2760 C   0  0  0  0  0  0  0  0  0  0  0  0
    0.8490   37.1800  -58.9220 C   0  0  0  0  0  0  0  0  0  0  0  0
    1.7610   37.8220  -61.1510 C   0  0  0  0  0  0  0  0  0  0  0  0
    2.1880   36.5030  -58.6300 C   0  0  0  0  0  0  0  0  0  0  0  0
    2.9590   37.2160  -60.8790 C   0  0  0  0  0  0  0  0  0  0  0  0
    3.2590   36.5460  -59.6950 C   0  0  0  0  0  0  0  0  0  0  0  0
    4.5080   35.9260  -59.4890 C   0  0  0  0  0  0  0  0  0  0  0  0
    4.3910   34.7320  -59.8380 O   0  0  0  0  0  0  0  0  0  0  0  0
    5.3840   34.1790  -60.6150 C   0  0  0  0  0  0  0  0  0  0  0  0
    6.7550   34.4250  -60.0230 C   0  0  0  0  0  0  0  0  0  0  0  0
    5.3020   33.4590  -61.8350 C   0  0  0  0  0  0  0  0  0  0  0  0
    7.8900   33.9590  -60.7030 C   0  0  0  0  0  0  0  0  0  0  0  0
    6.4860   33.0540  -62.3870 C   0  0  0  0  0  0  0  0  0  0  0  0
    7.7490   33.2720  -61.8910 C   0  0  0  0  0  0  0  0  0  0  0  0
  1  2  1  0
  2  3  2  0
  2  4  2  0
  2  5  1  0
  5  6  1  0
  6  7  2  0
  6  8  1  0
  7  9  1  0
  8 10  2  0
  9 11  2  0
 10 11  1  0
 11 12  1  0
 12 13  1  0
 13 14  1  0
 14 15  2  0
 14 16  1  0
 15 17  1  0
 16 18  2  0
 17 19  2  0
 18 19  1  0
M  END
>  <ref_pdb>  (13) 
x0306

>  <ref_mols>  (13) 
x0306_0B,x0309_0B

>  <fragmensteinOld_score>  (13) 
-2.9123503829821762

>  <LE_score>  (13) 
-0.34561015102670517

>  <comRMSD_score>  (13) 
0.63921225132998549

>  <fragmensteinNew_score>  (13) 
-0.82646037813247508

>  <meanSuCosW_score>  (13) 
0.49307185772019341

>  <maxSuCosW_score>  (13) 
0.59351425488327147

>  <minSuCosW_score>  (13) 
0.39262946055711534

>  <sumSuCosW_score>  (13) 
0.98614371544038681

>  <SA_score>  (13) 
7.6217654945139017

>  <aLogP_score>  (13) 
2.6371000000000011

>  <hbondD_score>  (13) 
1

>  <hbondA_score>  (13) 
3

>  <polarSurfaceArea_score>  (13) 
55.400000000000006

>  <rotableBonds_score>  (13) 
5

>  <SC_score>  (13) 
2.4637548910852756

>  <energyPoseVsEnsemble_score>  (13) 
1.7473153309412655

>  <xcos_score>  (13) 
13.457729420337005

>  <plipMedianPreser_score>  (13) 
0.59999999999999998

>  <plipGlobalPreser_score>  (13) 
0.42857142857142855

>  <plipGlobalPreserOverMw_score>  (13) 
0.15467578315827829

>  <original_name>  (13) 
x0306-0B-x0309-0B-CS-O-O-Nc1ccc-COc2ccccc2-cc1

>  <original SMILES>  (13) 
[H]c1c([H])c([H])c(OC([H])([H])c2c([H])c([H])c(N([H])S(=O)(=O)C([H])([H])[H])c([H])c2[H])c([H])c1[H]

$$$$
274_x0306_0B_-x0309_0B_CS
     RDKit          3D

 19 20  0  0  0  0  0  0  0  0999 V2000
    0.4070   40.8140  -60.0000 C   0  0  0  0  0  0  0  0  0  0  0  0
   -1.0530   39.8920  -59.7070 S   0  0  0  0  0  0  0  0  0  0  0  0
   -2.1780   40.4690  -60.3980 O   0  0  0  0  0  0  0  0  0  0  0  0
   -1.1010   39.5810  -58.3030 O   0  0  0  0  0  0  0  0  0  0  0  0
   -0.6310   38.5300  -60.5710 N   0  0  0  0  0  0  0  0  0  0  0  0
    0.6550   37.8680  -60.3180 C   0  0  0  0  0  0  0  0  0  0  0  0
    0.7560   37.1960  -58.9890 C   0  0  0  0  0  0  0  0  0  0  0  0
    1.8230   37.7990  -61.2580 C   0  0  0  0  0  0  0  0  0  0  0  0
    2.0370   36.4580  -58.6900 C   0  0  0  0  0  0  0  0  0  0  0  0
    2.9950   37.1010  -60.9300 C   0  0  0  0  0  0  0  0  0  0  0  0
    3.1370   36.4390  -59.7270 C   0  0  0  0  0  0  0  0  0  0  0  0
    4.3180   35.6640  -59.3390 N   0  0  0  0  0  0  0  0  0  0  0  0
    4.3480   34.4030  -59.5940 N   0  0  0  0  0  0  0  0  0  0  0  0
    5.4010   33.8790  -60.3630 C   0  0  0  0  0  0  0  0  0  0  0  0
    6.6680   34.1300  -59.8560 C   0  0  0  0  0  0  0  0  0  0  0  0
    5.2820   33.1590  -61.5810 C   0  0  0  0  0  0  0  0  0  0  0  0
    7.8220   33.7330  -60.4940 C   0  0  0  0  0  0  0  0  0  0  0  0
    6.4590   32.7410  -62.2370 C   0  0  0  0  0  0  0  0  0  0  0  0
    7.7000   33.0370  -61.6890 C   0  0  0  0  0  0  0  0  0  0  0  0
  1  2  1  0
  2  3  2  0
  2  4  2  0
  2  5  1  0
  5  6  1  0
  6  7  2  0
  6  8  1  0
  7  9  1  0
  8 10  2  0
  9 11  2  0
 10 11  1  0
 11 12  1  0
 12 13  2  3
 13 14  1  0
 14 15  2  0
 14 16  1  0
 15 17  1  0
 16 18  2  0
 17 19  2  0
 18 19  1  0
M  END
>  <ref_pdb>  (14) 
x0306

>  <ref_mols>  (14) 
x0306_0B,x0309_0B

>  <fragmensteinOld_score>  (14) 
-2.8717173289362643

>  <LE_score>  (14) 
-0.33777138921409666

>  <comRMSD_score>  (14) 
0.64692250576294164

>  <fragmensteinNew_score>  (14) 
-0.80320110745395445

>  <meanSuCosW_score>  (14) 
0.45454463105237464

>  <maxSuCosW_score>  (14) 
0.53345378003371435

>  <minSuCosW_score>  (14) 
0.37563548207103492

>  <sumSuCosW_score>  (14) 
0.90908926210474927

>  <SA_score>  (14) 
7.2591906143580971

>  <aLogP_score>  (14) 
3.4735000000000014

>  <hbondD_score>  (14) 
1

>  <hbondA_score>  (14) 
2

>  <polarSurfaceArea_score>  (14) 
70.890000000000001

>  <rotableBonds_score>  (14) 
4

>  <SC_score>  (14) 
2.3214447713720676

>  <energyPoseVsEnsemble_score>  (14) 
1.0049952371612609

>  <xcos_score>  (14) 
12.75436190811201

>  <plipMedianPreser_score>  (14) 
0.77500000000000002

>  <plipGlobalPreser_score>  (14) 
0.7142857142857143

>  <plipGlobalPreserOverMw_score>  (14) 
0.25967147261985785

>  <original_name>  (14) 
x0306-0B-x0309-0B-CS-O-O-Nc1ccc-N-Nc2ccccc2-cc1

>  <original SMILES>  (14) 
[H]c1c([H])c([H])c(N=Nc2c([H])c([H])c(N([H])S(=O)(=O)C([H])([H])[H])c([H])c2[H])c([H])c1[H]

$$$$
275_x0306_0B_-x0309_0B_CS
     RDKit          3D

 20 21  0  0  0  0  0  0  0  0999 V2000
   -0.3440   40.8020  -60.3930 C   0  0  0  0  0  0  0  0  0  0  0  0
   -1.4260   39.5630  -60.0210 S   0  0  0  0  0  0  0  0  0  0  0  0
   -1.3760   39.4290  -58.5850 O   0  0  0  0  0  0  0  0  0  0  0  0
   -2.6140   39.9020  -60.7530 O   0  0  0  0  0  0  0  0  0  0  0  0
   -0.6500   38.2540  -60.8150 N   0  0  0  0  0  0  0  0  0  0  0  0
    0.7640   37.8870  -60.5670 C   0  0  0  0  0  0  0  0  0  0  0  0
    1.9050   38.7810  -61.0130 C   0  0  0  0  0  0  0  0  0  0  0  0
    0.9780   36.7130  -59.9320 C   0  0  0  0  0  0  0  0  0  0  0  0
    3.2970   38.2530  -60.6920 C   0  0  0  0  0  0  0  0  0  0  0  0
    2.2280   36.2490  -59.6450 C   0  0  0  0  0  0  0  0  0  0  0  0
    3.4030   36.9220  -59.9790 C   0  0  0  0  0  0  0  0  0  0  0  0
    4.5960   36.2880  -59.6270 N   0  0  0  0  0  0  0  0  0  0  0  0
    4.5570   34.8040  -59.6520 C   0  0  0  0  0  0  0  0  0  0  0  0
    3.7710   34.1540  -59.0320 O   0  0  0  0  0  0  0  0  0  0  0  0
    5.5570   34.2500  -60.4810 C   0  0  0  0  0  0  0  0  0  0  0  0
    6.9490   34.4350  -60.0120 C   0  0  0  0  0  0  0  0  0  0  0  0
    5.3920   33.5490  -61.7080 C   0  0  0  0  0  0  0  0  0  0  0  0
    8.0370   33.9740  -60.7290 C   0  0  0  0  0  0  0  0  0  0  0  0
    6.5440   33.1150  -62.3560 C   0  0  0  0  0  0  0  0  0  0  0  0
    7.8540   33.3010  -61.9200 C   0  0  0  0  0  0  0  0  0  0  0  0
  1  2  1  0
  2  3  2  0
  2  4  2  0
  2  5  1  0
  5  6  1  0
  6  7  2  0
  6  8  1  0
  7  9  1  0
  8 10  2  0
  9 11  2  0
 10 11  1  0
 11 12  1  0
 12 13  1  0
 13 14  2  0
 13 15  1  0
 15 16  2  0
 15 17  1  0
 16 18  1  0
 17 19  2  0
 18 20  2  0
 19 20  1  0
M  END
>  <ref_pdb>  (15) 
x0306

>  <ref_mols>  (15) 
x0306_0B,x0309_0B

>  <fragmensteinOld_score>  (15) 
-2.3721841533701822

>  <LE_score>  (15) 
-0.24221007561019572

>  <comRMSD_score>  (15) 
0.59354017931467884

>  <fragmensteinNew_score>  (15) 
-0.58713171947385168

>  <meanSuCosW_score>  (15) 
0.48748887129500151

>  <maxSuCosW_score>  (15) 
0.59045596026913794

>  <minSuCosW_score>  (15) 
0.38452178232086509

>  <sumSuCosW_score>  (15) 
0.97497774259000303

>  <SA_score>  (15) 
7.374759563101545

>  <aLogP_score>  (15) 
2.3104000000000005

>  <hbondD_score>  (15) 
2

>  <hbondA_score>  (15) 
3

>  <polarSurfaceArea_score>  (15) 
75.27000000000001

>  <rotableBonds_score>  (15) 
4

>  <SC_score>  (15) 
2.3385188294195332

>  <energyPoseVsEnsemble_score>  (15) 
2.6803000123461

>  <xcos_score>  (15) 
14.957598030783487

>  <plipMedianPreser_score>  (15) 
0.59999999999999998

>  <plipGlobalPreser_score>  (15) 
0.42857142857142855

>  <plipGlobalPreserOverMw_score>  (15) 
0.14774630787453114

>  <original_name>  (15) 
x0306-0B-x0309-0B-CS-O-O-Nc1ccc-NC-O-c2ccccc2-cc1

>  <original SMILES>  (15) 
[H]c1c([H])c([H])c(C(=O)N([H])c2c([H])c([H])c(N([H])S(=O)(=O)C([H])([H])[H])c([H])c2[H])c([H])c1[H]

$$$$
288_x0309_0B_-x0116_0B_CC
     RDKit          3D

 34 36  0  0  0  0  0  0  0  0999 V2000
    5.5490   37.2470  -57.7180 C   0  0  0  0  0  0  0  0  0  0  0  0
    4.5360   36.2040  -58.2250 C   0  0  2  0  0  0  0  0  0  0  0  0
    5.2000   35.0020  -58.8220 N   0  0  0  0  0  0  0  0  0  0  0  0
    3.3510   36.8240  -59.0080 C   0  0  0  0  0  0  0  0  0  0  0  0
    6.5540   34.7020  -58.5270 C   0  0  0  0  0  0  0  0  0  0  0  0
    3.3080   38.1440  -59.4960 C   0  0  0  0  0  0  0  0  0  0  0  0
    2.2250   36.0810  -59.2580 C   0  0  0  0  0  0  0  0  0  0  0  0
    7.4330   35.5190  -58.7190 O   0  0  0  0  0  0  0  0  0  0  0  0
    6.9980   33.3470  -57.9990 C   0  0  0  0  0  0  0  0  0  0  0  0
    2.2440   38.7280  -60.1850 C   0  0  0  0  0  0  0  0  0  0  0  0
    1.1220   36.6180  -59.9210 C   0  0  0  0  0  0  0  0  0  0  0  0
    6.6310   33.0980  -56.6510 O   0  0  0  0  0  0  0  0  0  0  0  0
    7.7350   32.5510  -58.9950 N   0  0  0  0  0  0  0  0  0  0  0  0
    1.0730   37.8690  -60.3710 C   0  0  0  0  0  0  0  0  0  0  0  0
    7.1690   32.7430  -60.2070 C   0  0  0  0  0  0  0  0  0  0  0  0
   -0.0810   38.3720  -61.0060 N   0  0  0  0  0  0  0  0  0  0  0  0
    5.8640   32.3000  -60.2420 C   0  0  0  0  0  0  0  0  0  0  0  0
    7.8270   33.3660  -61.2990 C   0  0  0  0  0  0  0  0  0  0  0  0
   -1.0910   39.3780  -60.0960 S   0  0  0  0  0  0  0  0  0  0  0  0
    5.1820   32.5020  -61.3940 C   0  0  0  0  0  0  0  0  0  0  0  0
    7.1210   33.5920  -62.4960 C   0  0  0  0  0  0  0  0  0  0  0  0
   -0.3230   40.9110  -60.1810 C   0  0  0  0  0  0  0  0  0  0  0  0
   -2.3220   39.6810  -60.7690 O   0  0  0  0  0  0  0  0  0  0  0  0
   -0.9870   38.9970  -58.7060 O   0  0  0  0  0  0  0  0  0  0  0  0
    5.7990   33.1650  -62.5540 C   0  0  0  0  0  0  0  0  0  0  0  0
    7.6280   34.1740  -63.4860 O   0  0  0  0  0  0  0  0  0  0  0  0
    9.0090   34.3570  -63.8340 C   0  0  0  0  0  0  0  0  0  0  0  0
    9.1780   35.4800  -64.6950 C   0  0  0  0  0  0  0  0  0  0  0  0
    8.2320   35.8570  -65.3850 O   0  0  0  0  0  0  0  0  0  0  0  0
   10.4800   36.1760  -64.7230 N   0  0  0  0  0  0  0  0  0  0  0  0
   10.4720   37.4750  -65.2920 C   0  0  0  0  0  0  0  0  0  0  0  0
   11.7870   35.5730  -64.9820 C   0  0  0  0  0  0  0  0  0  0  0  0
   11.7990   37.8130  -65.9240 C   0  0  0  0  0  0  0  0  0  0  0  0
   12.6400   36.5360  -65.8180 C   0  0  0  0  0  0  0  0  0  0  0  0
  2  1  1  6
  2  3  1  0
  2  4  1  0
  3  5  1  0
  4  6  2  0
  4  7  1  0
  5  8  2  0
  5  9  1  0
  6 10  1  0
  7 11  2  0
  9 12  2  0
  9 13  1  0
 10 14  2  0
 11 14  1  0
 13 15  1  0
 14 16  1  0
 15 17  2  0
 15 18  1  0
 19 16  1  0
 17 20  1  0
 18 21  2  0
 19 22  1  0
 19 23  2  0
 19 24  2  0
 20 25  2  0
 21 25  1  0
 21 26  1  0
 26 27  1  0
 27 28  1  0
 28 29  2  0
 28 30  1  0
 30 31  1  0
 30 32  1  0
 31 33  1  0
 32 34  1  0
 33 34  1  0
M  END
>  <ref_pdb>  (16) 
x0116

>  <ref_mols>  (16) 
x0116_0B,x0309_0B

>  <fragmensteinOld_score>  (16) 
-2.0356271944615871

>  <LE_score>  (16) 
-0.1681854148525514

>  <comRMSD_score>  (16) 
0.70803362653576196

>  <fragmensteinNew_score>  (16) 
0.46127160292703406

>  <meanSuCosW_score>  (16) 
0.63167992987041965

>  <maxSuCosW_score>  (16) 
0.68099527212251221

>  <minSuCosW_score>  (16) 
0.5823645876183271

>  <sumSuCosW_score>  (16) 
1.2633598597408393

>  <SA_score>  (16) 
7.9230472585148561

>  <aLogP_score>  (16) 
1.8751999999999993

>  <hbondD_score>  (16) 
3

>  <hbondA_score>  (16) 
6

>  <polarSurfaceArea_score>  (16) 
133.91000000000003

>  <rotableBonds_score>  (16) 
8

>  <SC_score>  (16) 
4.350868732537899

>  <energyPoseVsEnsemble_score>  (16) 
1.2300595498697611

>  <xcos_score>  (16) 
17.09392987438833

>  <plipMedianPreser_score>  (16) 
1

>  <plipGlobalPreser_score>  (16) 
1

>  <plipGlobalPreserOverMw_score>  (16) 
0.20484543203302827

>  <original_name>  (16) 
x0309-0B-x0116-0B-CC-NC-O-C-O-Nc1cccc-OCC-O-N2CCCC2-c1-c1ccc-NS-C-O-O-cc1

>  <original SMILES>  (16) 
[H]c1c([H])c(OC([H])([H])C(=O)N2C([H])([H])C([H])([H])C([H])([H])C2([H])[H])c([H])c(N([H])C(=O)C(=O)N([H])[C@]([H])(c2c([H])c([H])c(N([H])S(=O)(=O)C([H])([H])[H])c([H])c2[H])C([H])([H])[H])c1[H]

$$$$
292_x0309_0B_-x0116_0B_CC
     RDKit          3D

 32 34  0  0  0  0  0  0  0  0999 V2000
    5.7920   37.2420  -58.3690 C   0  0  0  0  0  0  0  0  0  0  0  0
    4.5940   36.3290  -58.6830 C   0  0  2  0  0  0  0  0  0  0  0  0
    4.9560   35.1540  -59.4720 N   0  0  0  0  0  0  0  0  0  0  0  0
    3.4200   37.0140  -59.3410 C   0  0  0  0  0  0  0  0  0  0  0  0
    5.2800   33.9550  -58.8740 C   0  0  0  0  0  0  0  0  0  0  0  0
    2.0760   36.6190  -58.8370 C   0  0  0  0  0  0  0  0  0  0  0  0
    3.4630   37.9700  -60.3640 C   0  0  0  0  0  0  0  0  0  0  0  0
    5.5880   33.8720  -57.6870 O   0  0  0  0  0  0  0  0  0  0  0  0
    5.2150   32.9080  -59.7830 N   0  0  0  0  0  0  0  0  0  0  0  0
    0.9710   37.2080  -59.4010 C   0  0  0  0  0  0  0  0  0  0  0  0
    2.2820   38.5180  -60.8910 C   0  0  0  0  0  0  0  0  0  0  0  0
    6.3400   32.4990  -60.4940 C   0  0  0  0  0  0  0  0  0  0  0  0
    1.0440   38.1230  -60.3930 C   0  0  0  0  0  0  0  0  0  0  0  0
    7.1970   31.4690  -60.1180 C   0  0  0  0  0  0  0  0  0  0  0  0
    6.5970   33.2240  -61.6460 C   0  0  0  0  0  0  0  0  0  0  0  0
   -0.1410   38.6530  -60.8980 N   0  0  0  0  0  0  0  0  0  0  0  0
    8.3050   31.2210  -60.9240 C   0  0  0  0  0  0  0  0  0  0  0  0
    7.7180   33.0080  -62.4460 C   0  0  0  0  0  0  0  0  0  0  0  0
   -1.1610   39.5590  -59.9320 S   0  0  0  0  0  0  0  0  0  0  0  0
    8.5540   31.9880  -62.0590 C   0  0  0  0  0  0  0  0  0  0  0  0
    8.0380   33.7330  -63.5670 O   0  0  0  0  0  0  0  0  0  0  0  0
   -0.4190   41.1030  -59.8490 C   0  0  0  0  0  0  0  0  0  0  0  0
   -2.3220   39.8360  -60.7350 O   0  0  0  0  0  0  0  0  0  0  0  0
   -1.1770   39.0750  -58.5760 O   0  0  0  0  0  0  0  0  0  0  0  0
    9.3610   34.0460  -64.0150 C   0  0  0  0  0  0  0  0  0  0  0  0
    9.2670   35.2770  -64.9720 C   0  0  0  0  0  0  0  0  0  0  0  0
    8.2020   35.6570  -65.4500 O   0  0  0  0  0  0  0  0  0  0  0  0
   10.4910   36.0250  -65.2840 N   0  0  0  0  0  0  0  0  0  0  0  0
   11.7340   35.4380  -65.2050 C   0  0  0  0  0  0  0  0  0  0  0  0
   10.6060   37.1660  -66.1770 C   0  0  0  0  0  0  0  0  0  0  0  0
   12.7960   36.3890  -65.7430 C   0  0  0  0  0  0  0  0  0  0  0  0
   12.0240   37.6880  -65.9910 C   0  0  0  0  0  0  0  0  0  0  0  0
  2  1  1  6
  2  3  1  0
  2  4  1  0
  3  5  1  0
  4  6  2  0
  4  7  1  0
  5  8  2  0
  5  9  1  0
  6 10  1  0
  7 11  2  0
  9 12  1  0
 10 13  2  0
 11 13  1  0
 12 14  2  0
 12 15  1  0
 13 16  1  0
 14 17  1  0
 15 18  2  0
 19 16  1  0
 17 20  2  0
 18 20  1  0
 18 21  1  0
 19 22  1  0
 19 23  2  0
 19 24  2  0
 21 25  1  0
 25 26  1  0
 26 27  2  0
 26 28  1  0
 28 29  1  0
 28 30  1  0
 29 31  1  0
 30 32  1  0
 31 32  1  0
M  END
>  <ref_pdb>  (17) 
x0116

>  <ref_mols>  (17) 
x0116_0B,x0309_0B

>  <fragmensteinOld_score>  (17) 
-2.4966918227709058

>  <LE_score>  (17) 
-0.16934330011614168

>  <comRMSD_score>  (17) 
0.58710529797240063

>  <fragmensteinNew_score>  (17) 
-0.12657052567017535

>  <meanSuCosW_score>  (17) 
0.64253280764990195

>  <maxSuCosW_score>  (17) 
0.64811808771111945

>  <minSuCosW_score>  (17) 
0.63694752758868434

>  <sumSuCosW_score>  (17) 
1.2850656152998039

>  <SA_score>  (17) 
7.9934130390725535

>  <aLogP_score>  (17) 
2.9420000000000011

>  <hbondD_score>  (17) 
3

>  <hbondA_score>  (17) 
5

>  <polarSurfaceArea_score>  (17) 
116.83999999999999

>  <rotableBonds_score>  (17) 
8

>  <SC_score>  (17) 
4.2944152130432194

>  <energyPoseVsEnsemble_score>  (17) 
0.44613431464472603

>  <xcos_score>  (17) 
17.297229737069202

>  <plipMedianPreser_score>  (17) 
0.77500000000000002

>  <plipGlobalPreser_score>  (17) 
0.8571428571428571

>  <plipGlobalPreserOverMw_score>  (17) 
0.1862633113235202

>  <original_name>  (17) 
x0309-0B-x0116-0B-CC-NC-O-Nc1cccc-OCC-O-N2CCCC2-c1-c1ccc-NS-C-O-O-cc1

>  <original SMILES>  (17) 
[H]c1c([H])c(OC([H])([H])C(=O)N2C([H])([H])C([H])([H])C([H])([H])C2([H])[H])c([H])c(N([H])C(=O)N([H])[C@]([H])(c2c([H])c([H])c(N([H])S(=O)(=O)C([H])([H])[H])c([H])c2[H])C([H])([H])[H])c1[H]

$$$$
295_x0309_0B_-x0116_0B_CCS
     RDKit          3D

 31 33  0  0  0  0  0  0  0  0999 V2000
    1.0860   41.3320  -58.3650 C   0  0  0  0  0  0  0  0  0  0  0  0
    0.6330   40.8160  -59.7390 C   0  0  0  0  0  0  0  0  0  0  0  0
   -0.8670   39.8930  -59.6450 S   0  0  0  0  0  0  0  0  0  0  0  0
   -1.9550   40.6040  -60.2660 O   0  0  0  0  0  0  0  0  0  0  0  0
   -0.9760   39.4530  -58.2790 O   0  0  0  0  0  0  0  0  0  0  0  0
   -0.4110   38.5630  -60.5380 N   0  0  0  0  0  0  0  0  0  0  0  0
    0.7400   37.9110  -60.1820 C   0  0  0  0  0  0  0  0  0  0  0  0
    1.8270   37.8430  -61.1300 C   0  0  0  0  0  0  0  0  0  0  0  0
    0.9310   37.3040  -58.9640 C   0  0  0  0  0  0  0  0  0  0  0  0
    3.0050   37.1810  -60.8320 C   0  0  0  0  0  0  0  0  0  0  0  0
    2.1340   36.6310  -58.6710 C   0  0  0  0  0  0  0  0  0  0  0  0
    3.1670   36.5640  -59.6020 C   0  0  0  0  0  0  0  0  0  0  0  0
    4.4660   35.9110  -59.4650 N   0  0  0  0  0  0  0  0  0  0  0  0
    4.6850   34.6320  -58.9520 C   0  0  0  0  0  0  0  0  0  0  0  0
    4.8820   34.5100  -57.7410 O   0  0  0  0  0  0  0  0  0  0  0  0
    4.7050   33.4300  -59.8710 N   0  0  0  0  0  0  0  0  0  0  0  0
    5.9730   32.9830  -60.4890 C   0  0  0  0  0  0  0  0  0  0  0  0
    6.7950   31.9760  -59.7390 C   0  0  0  0  0  0  0  0  0  0  0  0
    6.4940   33.4060  -61.7000 C   0  0  0  0  0  0  0  0  0  0  0  0
    8.1120   31.5300  -60.3460 C   0  0  0  0  0  0  0  0  0  0  0  0
    7.7520   32.9850  -62.2250 C   0  0  0  0  0  0  0  0  0  0  0  0
    8.5570   32.0500  -61.5610 C   0  0  0  0  0  0  0  0  0  0  0  0
    8.0760   33.5900  -63.4140 O   0  0  0  0  0  0  0  0  0  0  0  0
    9.3740   34.1820  -63.6320 C   0  0  0  0  0  0  0  0  0  0  0  0
    9.2630   35.3820  -64.6460 C   0  0  0  0  0  0  0  0  0  0  0  0
    8.2810   35.6090  -65.3520 O   0  0  0  0  0  0  0  0  0  0  0  0
   10.3280   36.2220  -64.7270 N   0  0  0  0  0  0  0  0  0  0  0  0
   11.6650   35.6870  -65.0300 C   0  0  0  0  0  0  0  0  0  0  0  0
   10.2390   37.6780  -64.9620 C   0  0  0  0  0  0  0  0  0  0  0  0
   12.2750   36.7540  -65.6630 C   0  0  0  0  0  0  0  0  0  0  0  0
   11.4550   38.0120  -65.5660 C   0  0  0  0  0  0  0  0  0  0  0  0
  1  2  1  0
  2  3  1  0
  3  4  2  0
  3  5  2  0
  3  6  1  0
  6  7  1  0
  7  8  2  0
  7  9  1  0
  8 10  1  0
  9 11  2  0
 10 12  2  0
 11 12  1  0
 12 13  1  0
 13 14  1  0
 14 15  2  0
 14 16  1  0
 16 17  1  0
 17 18  2  0
 17 19  1  0
 18 20  1  0
 19 21  2  0
 20 22  2  0
 21 22  1  0
 21 23  1  0
 23 24  1  0
 24 25  1  0
 25 26  2  0
 25 27  1  0
 27 28  1  0
 27 29  1  0
 28 30  1  0
 29 31  1  0
 30 31  1  0
M  END
>  <ref_pdb>  (18) 
x0116

>  <ref_mols>  (18) 
x0116_0B,x0309_0B

>  <fragmensteinOld_score>  (18) 
-3.1413879445515072

>  <LE_score>  (18) 
-0.24646402548338839

>  <comRMSD_score>  (18) 
0.58668901344550051

>  <fragmensteinNew_score>  (18) 
-0.37693761319467045

>  <meanSuCosW_score>  (18) 
0.61374050049099826

>  <maxSuCosW_score>  (18) 
0.69103746392761733

>  <minSuCosW_score>  (18) 
0.53644353705437919

>  <sumSuCosW_score>  (18) 
1.2274810009819965

>  <SA_score>  (18) 
6.9551195222210032

>  <aLogP_score>  (18) 
3.0934000000000017

>  <hbondD_score>  (18) 
3

>  <hbondA_score>  (18) 
5

>  <polarSurfaceArea_score>  (18) 
116.84000000000002

>  <rotableBonds_score>  (18) 
8

>  <SC_score>  (18) 
4.0200487684329342

>  <energyPoseVsEnsemble_score>  (18) 
0.71027980101757426

>  <xcos_score>  (18) 
16.008173759185294

>  <plipMedianPreser_score>  (18) 
0.80000000000000004

>  <plipGlobalPreser_score>  (18) 
0.7142857142857143

>  <plipGlobalPreserOverMw_score>  (18) 
0.16009545600507105

>  <original_name>  (18) 
x0309-0B-x0116-0B-CCS-O-O-Nc1ccc-NC-O-Nc2cccc-OCC-O-N3CCCC3-c2-cc1

>  <original SMILES>  (18) 
[H]c1c([H])c(OC([H])([H])C(=O)N2C([H])([H])C([H])([H])C([H])([H])C2([H])[H])c([H])c(N([H])C(=O)N([H])c2c([H])c([H])c(N([H])S(=O)(=O)C([H])([H])C([H])([H])[H])c([H])c2[H])c1[H]

$$$$
301_x0309_0B_-x0116_0B_CNC
     RDKit          3D

 27 28  0  0  0  0  0  0  0  0999 V2000
   10.1730   37.5940  -65.1110 C   0  0  0  0  0  0  0  0  0  0  0  0
   10.3840   36.1670  -64.8680 N   0  0  0  0  0  0  0  0  0  0  0  0
    9.3250   35.2660  -64.6790 C   0  0  0  0  0  0  0  0  0  0  0  0
    8.2600   35.3870  -65.2730 O   0  0  0  0  0  0  0  0  0  0  0  0
    9.5140   34.1290  -63.7120 C   0  0  0  0  0  0  0  0  0  0  0  0
    8.4660   33.1500  -63.5590 O   0  0  0  0  0  0  0  0  0  0  0  0
    7.8030   33.1040  -62.3610 C   0  0  0  0  0  0  0  0  0  0  0  0
    6.4280   33.2870  -62.4570 C   0  0  0  0  0  0  0  0  0  0  0  0
    8.3830   32.9140  -61.1140 C   0  0  0  0  0  0  0  0  0  0  0  0
    5.6410   33.3300  -61.3460 C   0  0  0  0  0  0  0  0  0  0  0  0
    7.6180   32.9480  -59.9410 C   0  0  0  0  0  0  0  0  0  0  0  0
    6.2430   33.1830  -59.9900 C   0  0  0  0  0  0  0  0  0  0  0  0
    5.3350   33.3230  -58.9110 N   0  0  0  0  0  0  0  0  0  0  0  0
    4.7420   34.5410  -58.4190 C   0  0  0  0  0  0  0  0  0  0  0  0
    4.5290   34.7450  -57.2300 O   0  0  0  0  0  0  0  0  0  0  0  0
    4.4380   35.4930  -59.4190 N   0  0  0  0  0  0  0  0  0  0  0  0
    3.2630   36.3120  -59.5970 C   0  0  0  0  0  0  0  0  0  0  0  0
    3.0320   37.0190  -60.7770 C   0  0  0  0  0  0  0  0  0  0  0  0
    2.3280   36.4150  -58.6240 C   0  0  0  0  0  0  0  0  0  0  0  0
    1.8830   37.9220  -61.2550 C   0  0  0  0  0  0  0  0  0  0  0  0
    1.2090   37.1870  -58.8790 C   0  0  0  0  0  0  0  0  0  0  0  0
    1.0060   37.8530  -60.0710 C   0  0  0  0  0  0  0  0  0  0  0  0
   -0.1800   38.5990  -60.3410 N   0  0  0  0  0  0  0  0  0  0  0  0
   -0.7800   39.9370  -59.5530 S   0  0  0  0  0  0  0  0  0  0  0  0
    0.5460   41.0130  -59.8990 C   0  0  0  0  0  0  0  0  0  0  0  0
   -0.8540   39.7360  -58.1290 O   0  0  0  0  0  0  0  0  0  0  0  0
   -1.9320   40.3620  -60.3170 O   0  0  0  0  0  0  0  0  0  0  0  0
  1  2  1  0
  2  3  1  0
  3  4  2  0
  3  5  1  0
  5  6  1  0
  6  7  1  0
  7  8  2  0
  7  9  1  0
  8 10  1  0
  9 11  2  0
 10 12  2  0
 11 12  1  0
 12 13  1  0
 13 14  1  0
 14 15  2  0
 14 16  1  0
 16 17  1  0
 17 18  2  0
 17 19  1  0
 18 20  1  0
 19 21  2  0
 20 22  2  0
 21 22  1  0
 22 23  1  0
 24 23  1  0
 24 25  1  0
 24 26  2  0
 24 27  2  0
M  END
>  <ref_pdb>  (19) 
x0116

>  <ref_mols>  (19) 
x0116_0B,x0309_0B

>  <fragmensteinOld_score>  (19) 
-3.1133374112201619

>  <LE_score>  (19) 
-0.29218399365135556

>  <comRMSD_score>  (19) 
0.88132975195770036

>  <fragmensteinNew_score>  (19) 
0.006968302278521521

>  <meanSuCosW_score>  (19) 
0.53242068742421467

>  <maxSuCosW_score>  (19) 
0.53778721280076458

>  <minSuCosW_score>  (19) 
0.52705416204766475

>  <sumSuCosW_score>  (19) 
1.0648413748484293

>  <SA_score>  (19) 
7.8093130090542848

>  <aLogP_score>  (19) 
1.8268999999999995

>  <hbondD_score>  (19) 
4

>  <hbondA_score>  (19) 
5

>  <polarSurfaceArea_score>  (19) 
125.63

>  <rotableBonds_score>  (19) 
7

>  <SC_score>  (19) 
3.42889160139049

>  <energyPoseVsEnsemble_score>  (19) 
0.85216581998102747

>  <xcos_score>  (19) 
6.9129970098244629

>  <plipMedianPreser_score>  (19) 
0.90000000000000002

>  <plipGlobalPreser_score>  (19) 
0.8571428571428571

>  <plipGlobalPreserOverMw_score>  (19) 
0.21859451786067299

>  <original_name>  (19) 
x0309-0B-x0116-0B-CNC-O-COc1ccc-NC-O-Nc2ccc-NS-C-O-O-cc2-cc1

>  <original SMILES>  (19) 
[H]c1c([H])c(N([H])C(=O)N([H])c2c([H])c([H])c(N([H])S(=O)(=O)C([H])([H])[H])c([H])c2[H])c([H])c([H])c1OC([H])([H])C(=O)N([H])C([H])([H])[H]

$$$$
302_x0309_0B_-x0116_0B_COC
     RDKit          3D

 29 30  0  0  0  0  0  0  0  0999 V2000
   10.6000   36.8320  -65.9390 C   0  0  0  0  0  0  0  0  0  0  0  0
   10.5740   35.8040  -64.9200 O   0  0  0  0  0  0  0  0  0  0  0  0
    9.3580   35.2120  -64.7240 C   0  0  0  0  0  0  0  0  0  0  0  0
    8.3690   35.4790  -65.4070 O   0  0  0  0  0  0  0  0  0  0  0  0
    9.4060   34.3050  -63.6360 C   0  0  0  0  0  0  0  0  0  0  0  0
    8.2590   33.4730  -63.5760 O   0  0  0  0  0  0  0  0  0  0  0  0
    7.6900   33.1930  -62.3770 C   0  0  0  0  0  0  0  0  0  0  0  0
    6.4880   33.7910  -62.0690 C   0  0  0  0  0  0  0  0  0  0  0  0
    8.3090   32.3290  -61.4910 C   0  0  0  0  0  0  0  0  0  0  0  0
    5.9080   33.5530  -60.8540 C   0  0  0  0  0  0  0  0  0  0  0  0
    7.7200   32.0770  -60.2460 C   0  0  0  0  0  0  0  0  0  0  0  0
    6.5110   32.7190  -59.9330 C   0  0  0  0  0  0  0  0  0  0  0  0
    5.7750   32.6700  -58.7590 N   0  0  0  0  0  0  0  0  0  0  0  0
    5.5380   33.9710  -58.0820 C   0  0  0  0  0  0  0  0  0  0  0  0
    6.1860   34.4360  -56.9020 O   0  0  0  0  0  0  0  0  0  0  0  0
    4.4720   34.8880  -58.7480 C   0  0  0  0  0  0  0  0  0  0  0  0
    3.4420   34.4430  -59.1580 O   0  0  0  0  0  0  0  0  0  0  0  0
    4.7950   36.3130  -58.8160 N   0  0  0  0  0  0  0  0  0  0  0  0
    3.5360   36.9360  -59.2810 C   0  0  0  0  0  0  0  0  0  0  0  0
    3.6740   37.9040  -60.2690 C   0  0  0  0  0  0  0  0  0  0  0  0
    2.2750   36.6130  -58.8070 C   0  0  0  0  0  0  0  0  0  0  0  0
    2.4770   38.6250  -60.8770 C   0  0  0  0  0  0  0  0  0  0  0  0
    1.0290   37.3120  -59.3600 C   0  0  0  0  0  0  0  0  0  0  0  0
    1.1240   38.2540  -60.3330 C   0  0  0  0  0  0  0  0  0  0  0  0
   -0.0150   38.8850  -60.8320 N   0  0  0  0  0  0  0  0  0  0  0  0
   -1.0450   39.7380  -59.8190 S   0  0  0  0  0  0  0  0  0  0  0  0
   -0.4660   41.2980  -59.6040 C   0  0  0  0  0  0  0  0  0  0  0  0
   -1.0000   39.1450  -58.5030 O   0  0  0  0  0  0  0  0  0  0  0  0
   -2.2170   40.0070  -60.6140 O   0  0  0  0  0  0  0  0  0  0  0  0
  1  2  1  0
  2  3  1  0
  3  4  2  0
  3  5  1  0
  5  6  1  0
  6  7  1  0
  7  8  2  0
  7  9  1  0
  8 10  1  0
  9 11  2  0
 10 12  2  0
 11 12  1  0
 12 13  1  0
 13 14  1  0
 14 15  2  0
 14 16  1  0
 16 17  2  0
 16 18  1  0
 18 19  1  0
 19 20  2  0
 19 21  1  0
 20 22  1  0
 21 23  2  0
 22 24  2  0
 23 24  1  0
 24 25  1  0
 26 25  1  0
 26 27  1  0
 26 28  2  0
 26 29  2  0
M  END
>  <ref_pdb>  (20) 
x0116

>  <ref_mols>  (20) 
x0116_0B,x0309_0B

>  <fragmensteinOld_score>  (20) 
-1.574888531377779

>  <LE_score>  (20) 
-0.069262587352266577

>  <comRMSD_score>  (20) 
0.75453951020627397

>  <fragmensteinNew_score>  (20) 
0.33345208221761491

>  <meanSuCosW_score>  (20) 
0.5222004700798728

>  <maxSuCosW_score>  (20) 
0.53475491076446069

>  <minSuCosW_score>  (20) 
0.50964602939528481

>  <sumSuCosW_score>  (20) 
1.0444009401597456

>  <SA_score>  (20) 
7.5623121642354043

>  <aLogP_score>  (20) 
1.1870999999999998

>  <hbondD_score>  (20) 
3

>  <hbondA_score>  (20) 
7

>  <polarSurfaceArea_score>  (20) 
139.89999999999998

>  <rotableBonds_score>  (20) 
7

>  <SC_score>  (20) 
2.8430988255892178

>  <energyPoseVsEnsemble_score>  (20) 
1.0739856597210733

>  <xcos_score>  (20) 
10.512906667530885

>  <plipMedianPreser_score>  (20) 
0.67500000000000004

>  <plipGlobalPreser_score>  (20) 
0.7142857142857143

>  <plipGlobalPreserOverMw_score>  (20) 
0.16962604194343864

>  <original_name>  (20) 
x0309-0B-x0116-0B-COC-O-COc1ccc-NC-O-C-O-Nc2ccc-NS-C-O-O-cc2-cc1

>  <original SMILES>  (20) 
[H]c1c([H])c(N([H])C(=O)C(=O)N([H])c2c([H])c([H])c(N([H])S(=O)(=O)C([H])([H])[H])c([H])c2[H])c([H])c([H])c1OC([H])([H])C(=O)OC([H])([H])[H]

$$$$
303_x0309_0B_-x0116_0B_COC
     RDKit          3D

 27 28  0  0  0  0  0  0  0  0999 V2000
   10.4430   36.9510  -65.7310 C   0  0  0  0  0  0  0  0  0  0  0  0
   10.4540   35.9730  -64.6840 O   0  0  0  0  0  0  0  0  0  0  0  0
    9.3550   35.1510  -64.6150 C   0  0  0  0  0  0  0  0  0  0  0  0
    8.3430   35.3400  -65.2970 O   0  0  0  0  0  0  0  0  0  0  0  0
    9.5730   34.1080  -63.6680 C   0  0  0  0  0  0  0  0  0  0  0  0
    8.5810   33.0490  -63.6230 O   0  0  0  0  0  0  0  0  0  0  0  0
    7.7240   33.0760  -62.5570 C   0  0  0  0  0  0  0  0  0  0  0  0
    8.3290   32.9740  -61.2960 C   0  0  0  0  0  0  0  0  0  0  0  0
    6.3520   33.2130  -62.6110 C   0  0  0  0  0  0  0  0  0  0  0  0
    7.5670   33.0700  -60.1090 C   0  0  0  0  0  0  0  0  0  0  0  0
    5.5470   33.3180  -61.3620 C   0  0  0  0  0  0  0  0  0  0  0  0
    6.1800   33.2790  -60.1620 C   0  0  0  0  0  0  0  0  0  0  0  0
    5.3320   33.5180  -59.0900 N   0  0  0  0  0  0  0  0  0  0  0  0
    4.5610   34.7360  -59.4940 C   0  0  0  0  0  0  0  0  0  0  0  0
    4.1260   34.9430  -60.8200 O   0  0  0  0  0  0  0  0  0  0  0  0
    4.2960   35.7480  -58.5760 N   0  0  0  0  0  0  0  0  0  0  0  0
    3.2100   36.5950  -59.1110 C   0  0  0  0  0  0  0  0  0  0  0  0
    3.4350   37.4550  -60.3650 C   0  0  0  0  0  0  0  0  0  0  0  0
    1.9850   36.6030  -58.5020 C   0  0  0  0  0  0  0  0  0  0  0  0
    2.3830   38.2240  -60.8960 C   0  0  0  0  0  0  0  0  0  0  0  0
    0.8450   37.4360  -59.0820 C   0  0  0  0  0  0  0  0  0  0  0  0
    1.0250   38.1950  -60.2170 C   0  0  0  0  0  0  0  0  0  0  0  0
   -0.0610   38.9390  -60.7500 N   0  0  0  0  0  0  0  0  0  0  0  0
   -1.1770   39.6790  -59.7290 S   0  0  0  0  0  0  0  0  0  0  0  0
   -0.5600   41.2600  -59.5800 C   0  0  0  0  0  0  0  0  0  0  0  0
   -1.1700   39.1290  -58.3960 O   0  0  0  0  0  0  0  0  0  0  0  0
   -2.3680   39.8860  -60.5300 O   0  0  0  0  0  0  0  0  0  0  0  0
  1  2  1  0
  2  3  1  0
  3  4  2  0
  3  5  1  0
  5  6  1  0
  6  7  1  0
  7  8  2  0
  7  9  1  0
  8 10  1  0
  9 11  2  0
 10 12  2  0
 11 12  1  0
 12 13  1  0
 13 14  1  0
 14 15  2  0
 14 16  1  0
 16 17  1  0
 17 18  2  0
 17 19  1  0
 18 20  1  0
 19 21  2  0
 20 22  2  0
 21 22  1  0
 22 23  1  0
 24 23  1  0
 24 25  1  0
 24 26  2  0
 24 27  2  0
M  END
>  <ref_pdb>  (21) 
x0116

>  <ref_mols>  (21) 
x0116_0B,x0309_0B

>  <fragmensteinOld_score>  (21) 
-2.587050643432971

>  <LE_score>  (21) 
-0.2120387504710019

>  <comRMSD_score>  (21) 
0.94277410929884042

>  <fragmensteinNew_score>  (21) 
0.21000226014115519

>  <meanSuCosW_score>  (21) 
0.48837978338730675

>  <maxSuCosW_score>  (21) 
0.5371830739256287

>  <minSuCosW_score>  (21) 
0.43957649284898481

>  <sumSuCosW_score>  (21) 
0.97675956677461351

>  <SA_score>  (21) 
7.6721044503439373

>  <aLogP_score>  (21) 
2.2538999999999998

>  <hbondD_score>  (21) 
3

>  <hbondA_score>  (21) 
6

>  <polarSurfaceArea_score>  (21) 
122.82999999999998

>  <rotableBonds_score>  (21) 
7

>  <SC_score>  (21) 
2.8110678234490756

>  <energyPoseVsEnsemble_score>  (21) 
2.3742813771411679

>  <xcos_score>  (21) 
7.257078531570067

>  <plipMedianPreser_score>  (21) 
0.67500000000000004

>  <plipGlobalPreser_score>  (21) 
0.7142857142857143

>  <plipGlobalPreserOverMw_score>  (21) 
0.18170610586897309

>  <original_name>  (21) 
x0309-0B-x0116-0B-COC-O-COc1ccc-NC-O-Nc2ccc-NS-C-O-O-cc2-cc1

>  <original SMILES>  (21) 
[H]c1c([H])c(N([H])C(=O)N([H])c2c([H])c([H])c(N([H])S(=O)(=O)C([H])([H])[H])c([H])c2[H])c([H])c([H])c1OC([H])([H])C(=O)OC([H])([H])[H]

$$$$
305_x0309_0B_-x0116_0B_COc1cc
     RDKit          3D

 31 33  0  0  0  0  0  0  0  0999 V2000
   10.2980   31.3950  -60.8730 C   0  0  0  0  0  0  0  0  0  0  0  0
    9.2030   31.1440  -61.7510 O   0  0  0  0  0  0  0  0  0  0  0  0
    8.2130   32.0650  -61.6440 C   0  0  0  0  0  0  0  0  0  0  0  0
    7.3230   32.1550  -60.5540 C   0  0  0  0  0  0  0  0  0  0  0  0
    8.0450   33.0160  -62.6750 C   0  0  0  0  0  0  0  0  0  0  0  0
    6.2400   33.2410  -60.5200 C   0  0  0  0  0  0  0  0  0  0  0  0
    7.0520   33.9390  -62.5810 C   0  0  0  0  0  0  0  0  0  0  0  0
    8.8570   33.0480  -63.7690 O   0  0  0  0  0  0  0  0  0  0  0  0
    5.2840   33.5850  -59.6180 C   0  0  0  0  0  0  0  0  0  0  0  0
    6.1780   34.0630  -61.5700 C   0  0  0  0  0  0  0  0  0  0  0  0
    9.7590   34.1490  -63.8070 C   0  0  0  0  0  0  0  0  0  0  0  0
    5.3130   35.0540  -59.7490 N   0  0  0  0  0  0  0  0  0  0  0  0
    9.4260   35.2310  -64.8670 C   0  0  0  0  0  0  0  0  0  0  0  0
    4.6550   35.9580  -58.9190 C   0  0  0  0  0  0  0  0  0  0  0  0
    8.3010   35.4450  -65.3140 O   0  0  0  0  0  0  0  0  0  0  0  0
   10.5450   36.0630  -65.3310 N   0  0  0  0  0  0  0  0  0  0  0  0
    3.4520   36.7210  -59.5100 C   0  0  0  0  0  0  0  0  0  0  0  0
   10.5010   37.3850  -65.9550 C   0  0  0  0  0  0  0  0  0  0  0  0
   11.9270   35.6430  -65.1950 C   0  0  0  0  0  0  0  0  0  0  0  0
    2.2010   36.1720  -59.4080 C   0  0  0  0  0  0  0  0  0  0  0  0
    3.5500   37.9700  -60.1520 C   0  0  0  0  0  0  0  0  0  0  0  0
   11.8920   37.9150  -65.6990 C   0  0  0  0  0  0  0  0  0  0  0  0
   12.7100   36.6350  -65.8360 C   0  0  0  0  0  0  0  0  0  0  0  0
    1.0950   36.8480  -59.9040 C   0  0  0  0  0  0  0  0  0  0  0  0
    2.3780   38.6030  -60.6370 C   0  0  0  0  0  0  0  0  0  0  0  0
    1.1230   38.0490  -60.5050 C   0  0  0  0  0  0  0  0  0  0  0  0
   -0.1020   38.6120  -60.9350 N   0  0  0  0  0  0  0  0  0  0  0  0
   -1.0980   39.5520  -59.9500 S   0  0  0  0  0  0  0  0  0  0  0  0
   -0.4360   41.1230  -59.9190 C   0  0  0  0  0  0  0  0  0  0  0  0
   -2.3330   39.7770  -60.6580 O   0  0  0  0  0  0  0  0  0  0  0  0
   -0.9700   39.0930  -58.5860 O   0  0  0  0  0  0  0  0  0  0  0  0
  1  2  1  0
  2  3  1  0
  3  4  2  0
  3  5  1  0
  4  6  1  0
  5  7  2  0
  5  8  1  0
  6  9  1  0
  6 10  2  0
  7 10  1  0
  8 11  1  0
  9 12  1  0
 11 13  1  0
 12 14  1  0
 13 15  2  0
 13 16  1  0
 14 17  1  0
 16 18  1  0
 16 19  1  0
 17 20  2  0
 17 21  1  0
 18 22  1  0
 19 23  1  0
 22 23  1  0
 20 24  1  0
 21 25  2  0
 24 26  2  0
 25 26  1  0
 26 27  1  0
 28 27  1  0
 28 29  1  0
 28 30  2  0
 28 31  2  0
M  END
>  <ref_pdb>  (22) 
x0116

>  <ref_mols>  (22) 
x0116_0B,x0309_0B

>  <fragmensteinOld_score>  (22) 
-2.4266726854156775

>  <LE_score>  (22) 
-0.16462741214448137

>  <comRMSD_score>  (22) 
0.79401726988010668

>  <fragmensteinNew_score>  (22) 
0.11955551301344891

>  <meanSuCosW_score>  (22) 
0.62959111342107543

>  <maxSuCosW_score>  (22) 
0.66659686327749523

>  <minSuCosW_score>  (22) 
0.59258536356465574

>  <sumSuCosW_score>  (22) 
1.2591822268421509

>  <SA_score>  (22) 
7.4495297632798234

>  <aLogP_score>  (22) 
2.3577000000000004

>  <hbondD_score>  (22) 
2

>  <hbondA_score>  (22) 
6

>  <polarSurfaceArea_score>  (22) 
96.969999999999999

>  <rotableBonds_score>  (22) 
10

>  <SC_score>  (22) 
3.6604476595930926

>  <energyPoseVsEnsemble_score>  (22) 
2.0358397853645398

>  <xcos_score>  (22) 
17.662222040621156

>  <plipMedianPreser_score>  (22) 
0.90000000000000002

>  <plipGlobalPreser_score>  (22) 
0.8571428571428571

>  <plipGlobalPreserOverMw_score>  (22) 
0.191676171897327

>  <original_name>  (22) 
x0309-0B-x0116-0B-COc1cc-CNCc2ccc-NS-C-O-O-cc2-ccc1OCC-O-N1CCCC1

>  <original SMILES>  (22) 
[H]c1c([H])c(C([H])([H])N([H])C([H])([H])c2c([H])c([H])c(N([H])S(=O)(=O)C([H])([H])[H])c([H])c2[H])c([H])c(OC([H])([H])[H])c1OC([H])([H])C(=O)N1C([H])([H])C([H])([H])C([H])([H])C1([H])[H]

$$$$
306_x0309_0B_-x0116_0B_COc1cc
     RDKit          3D

 31 33  0  0  0  0  0  0  0  0999 V2000
   10.2950   31.3670  -61.1900 C   0  0  0  0  0  0  0  0  0  0  0  0
    9.1050   31.0630  -61.9140 O   0  0  0  0  0  0  0  0  0  0  0  0
    8.1520   32.0320  -61.8230 C   0  0  0  0  0  0  0  0  0  0  0  0
    7.1590   32.0220  -60.7500 C   0  0  0  0  0  0  0  0  0  0  0  0
    8.0940   33.0670  -62.7480 C   0  0  0  0  0  0  0  0  0  0  0  0
    6.2130   33.0460  -60.7140 C   0  0  0  0  0  0  0  0  0  0  0  0
    7.1450   34.0400  -62.6670 C   0  0  0  0  0  0  0  0  0  0  0  0
    8.8960   33.1380  -63.6640 O   0  0  0  0  0  0  0  0  0  0  0  0
    5.2220   33.2270  -59.8250 C   0  0  0  0  0  0  0  0  0  0  0  0
    6.2230   34.0080  -61.6530 C   0  0  0  0  0  0  0  0  0  0  0  0
    9.6890   34.3050  -63.7080 C   0  0  0  0  0  0  0  0  0  0  0  0
    4.7210   34.5670  -59.6000 N   0  0  0  0  0  0  0  0  0  0  0  0
    9.4270   35.3060  -64.8540 C   0  0  0  0  0  0  0  0  0  0  0  0
    3.5010   35.0480  -59.0610 C   0  0  0  0  0  0  0  0  0  0  0  0
    8.3270   35.4800  -65.3790 O   0  0  0  0  0  0  0  0  0  0  0  0
   10.5880   36.1010  -65.2880 N   0  0  0  0  0  0  0  0  0  0  0  0
    2.9490   36.3550  -59.6990 C   0  0  0  0  0  0  0  0  0  0  0  0
   10.4700   37.4050  -65.9120 C   0  0  0  0  0  0  0  0  0  0  0  0
   11.9970   35.7240  -65.1400 C   0  0  0  0  0  0  0  0  0  0  0  0
    4.0810   37.3350  -59.9900 C   0  0  0  0  0  0  0  0  0  0  0  0
    1.5850   36.6160  -59.9820 C   0  0  0  0  0  0  0  0  0  0  0  0
   11.8220   37.9570  -65.6850 C   0  0  0  0  0  0  0  0  0  0  0  0
   12.7970   36.8360  -65.5060 C   0  0  0  0  0  0  0  0  0  0  0  0
    3.5220   38.4850  -60.5700 C   0  0  0  0  0  0  0  0  0  0  0  0
    1.1330   37.7860  -60.5270 C   0  0  0  0  0  0  0  0  0  0  0  0
    2.1870   38.7500  -60.8370 C   0  0  0  0  0  0  0  0  0  0  0  0
   -0.2480   38.0560  -60.7810 N   0  0  0  0  0  0  0  0  0  0  0  0
   -1.0580   39.3390  -59.9870 S   0  0  0  0  0  0  0  0  0  0  0  0
   -0.0390   40.6890  -60.1430 C   0  0  0  0  0  0  0  0  0  0  0  0
   -2.2310   39.7290  -60.7340 O   0  0  0  0  0  0  0  0  0  0  0  0
   -1.0940   39.1470  -58.5560 O   0  0  0  0  0  0  0  0  0  0  0  0
  1  2  1  0
  2  3  1  0
  3  4  2  0
  3  5  1  0
  4  6  1  0
  5  7  2  0
  5  8  1  0
  6  9  1  0
  6 10  2  0
  7 10  1  0
  8 11  1  0
  9 12  1  0
 11 13  1  0
 12 14  1  0
 13 15  2  0
 13 16  1  0
 14 17  1  0
 16 18  1  0
 16 19  1  0
 17 20  2  0
 17 21  1  0
 18 22  1  0
 19 23  1  0
 22 23  1  0
 20 24  1  0
 21 25  2  0
 24 26  2  0
 25 26  1  0
 25 27  1  0
 28 27  1  0
 28 29  1  0
 28 30  2  0
 28 31  2  0
M  END
>  <ref_pdb>  (23) 
x0116

>  <ref_mols>  (23) 
x0116_0B,x0309_0B

>  <fragmensteinOld_score>  (23) 
-1.7611671670711684

>  <LE_score>  (23) 
-0.12514050647139296

>  <comRMSD_score>  (23) 
0.86476017564002483

>  <fragmensteinNew_score>  (23) 
0.64535581641327

>  <meanSuCosW_score>  (23) 
0.63340906509846473

>  <maxSuCosW_score>  (23) 
0.65942415131445331

>  <minSuCosW_score>  (23) 
0.60739397888247615

>  <sumSuCosW_score>  (23) 
1.2668181301969295

>  <SA_score>  (23) 
7.4938409550397127

>  <aLogP_score>  (23) 
2.3577000000000004

>  <hbondD_score>  (23) 
2

>  <hbondA_score>  (23) 
6

>  <polarSurfaceArea_score>  (23) 
96.969999999999999

>  <rotableBonds_score>  (23) 
10

>  <SC_score>  (23) 
3.7876324517074216

>  <energyPoseVsEnsemble_score>  (23) 
2.0389881100781442

>  <xcos_score>  (23) 
18.910013235596772

>  <plipMedianPreser_score>  (23) 
0.90000000000000002

>  <plipGlobalPreser_score>  (23) 
0.8571428571428571

>  <plipGlobalPreserOverMw_score>  (23) 
0.191676171897327

>  <original_name>  (23) 
x0309-0B-x0116-0B-COc1cc-CNCc2cccc-NS-C-O-O-c2-ccc1OCC-O-N1CCCC1

>  <original SMILES>  (23) 
[H]c1c([H])c(N([H])S(=O)(=O)C([H])([H])[H])c([H])c(C([H])([H])N([H])C([H])([H])c2c([H])c([H])c(OC([H])([H])C(=O)N3C([H])([H])C([H])([H])C([H])([H])C3([H])[H])c(OC([H])([H])[H])c2[H])c1[H]

$$$$
309_x0309_0B_-x0116_0B_COc1ccc
     RDKit          3D

 31 33  0  0  0  0  0  0  0  0999 V2000
    9.0090   34.5260  -63.6910 C   0  0  0  0  0  0  0  0  0  0  0  0
    7.6100   34.3110  -63.5330 O   0  0  0  0  0  0  0  0  0  0  0  0
    7.2580   33.6170  -62.4160 C   0  0  0  0  0  0  0  0  0  0  0  0
    8.2090   32.6350  -61.8690 C   0  0  0  0  0  0  0  0  0  0  0  0
    6.0610   33.7530  -61.7230 C   0  0  0  0  0  0  0  0  0  0  0  0
    7.9500   31.9020  -60.7120 C   0  0  0  0  0  0  0  0  0  0  0  0
    5.8200   33.0170  -60.5730 C   0  0  0  0  0  0  0  0  0  0  0  0
    6.7330   32.1140  -60.0480 C   0  0  0  0  0  0  0  0  0  0  0  0
    6.4330   31.4580  -58.8720 C   0  0  0  0  0  0  0  0  0  0  0  0
    6.4530   32.4440  -57.6840 C   0  0  0  0  0  0  0  0  0  0  0  0
    6.3410   31.8790  -56.3800 O   0  0  0  0  0  0  0  0  0  0  0  0
    6.5880   33.8660  -57.9110 N   0  0  0  0  0  0  0  0  0  0  0  0
    7.6770   34.2290  -58.7540 C   0  0  0  0  0  0  0  0  0  0  0  0
    6.0430   34.7980  -56.8820 C   0  0  0  0  0  0  0  0  0  0  0  0
    7.6660   35.4500  -59.4510 C   0  0  0  0  0  0  0  0  0  0  0  0
    6.0760   36.1070  -57.3960 C   0  0  0  0  0  0  0  0  0  0  0  0
    6.3910   35.8910  -59.8570 C   0  0  0  0  0  0  0  0  0  0  0  0
    5.4920   36.1880  -58.7450 N   0  0  0  0  0  0  0  0  0  0  0  0
    4.1920   35.7400  -58.8070 C   0  0  0  0  0  0  0  0  0  0  0  0
    3.9380   34.6450  -58.3500 O   0  0  0  0  0  0  0  0  0  0  0  0
    3.0750   36.5540  -59.3720 C   0  0  0  0  0  0  0  0  0  0  0  0
    1.9100   36.7420  -58.5190 C   0  0  0  0  0  0  0  0  0  0  0  0
    3.0540   37.1150  -60.6290 C   0  0  0  0  0  0  0  0  0  0  0  0
    0.8090   37.4480  -58.9740 C   0  0  0  0  0  0  0  0  0  0  0  0
    1.9180   37.8240  -61.0460 C   0  0  0  0  0  0  0  0  0  0  0  0
    0.8100   37.9790  -60.2360 C   0  0  0  0  0  0  0  0  0  0  0  0
   -0.3540   38.6620  -60.6410 N   0  0  0  0  0  0  0  0  0  0  0  0
   -0.9430   39.9460  -59.7490 S   0  0  0  0  0  0  0  0  0  0  0  0
    0.4310   41.0130  -59.9720 C   0  0  0  0  0  0  0  0  0  0  0  0
   -0.9740   39.6340  -58.3410 O   0  0  0  0  0  0  0  0  0  0  0  0
   -2.1180   40.4240  -60.4410 O   0  0  0  0  0  0  0  0  0  0  0  0
  1  2  1  0
  2  3  1  0
  3  4  2  0
  3  5  1  0
  4  6  1  0
  5  7  2  0
  6  8  2  0
  7  8  1  0
  8  9  1  0
  9 10  1  0
 10 11  2  0
 10 12  1  0
 12 13  1  0
 12 14  1  0
 13 15  1  0
 14 16  1  0
 15 17  1  0
 16 18  1  0
 17 18  1  0
 18 19  1  0
 19 20  2  0
 19 21  1  0
 21 22  2  0
 21 23  1  0
 22 24  1  0
 23 25  2  0
 24 26  2  0
 25 26  1  0
 26 27  1  0
 28 27  1  0
 28 29  1  0
 28 30  2  0
 28 31  2  0
M  END
>  <ref_pdb>  (24) 
x0116

>  <ref_mols>  (24) 
x0116_0B,x0309_0B

>  <fragmensteinOld_score>  (24) 
-0.7639809479877373

>  <LE_score>  (24) 
-0.19449757284921043

>  <comRMSD_score>  (24) 
0.68080351824720964

>  <fragmensteinNew_score>  (24) 
1.5619774064415985

>  <meanSuCosW_score>  (24) 
0.50616816725710934

>  <maxSuCosW_score>  (24) 
0.57952957178416098

>  <minSuCosW_score>  (24) 
0.43280676273005764

>  <sumSuCosW_score>  (24) 
1.0123363345142187

>  <SA_score>  (24) 
7.0417057903738378

>  <aLogP_score>  (24) 
1.9838999999999998

>  <hbondD_score>  (24) 
1

>  <hbondA_score>  (24) 
5

>  <polarSurfaceArea_score>  (24) 
96.02000000000001

>  <rotableBonds_score>  (24) 
6

>  <SC_score>  (24) 
3.6436037337705822

>  <energyPoseVsEnsemble_score>  (24) 
4.9487251136273347

>  <xcos_score>  (24) 
13.8600746458083

>  <plipMedianPreser_score>  (24) 
0.59999999999999998

>  <plipGlobalPreser_score>  (24) 
0.42857142857142855

>  <plipGlobalPreserOverMw_score>  (24) 
0.09627202643048749

>  <original_name>  (24) 
x0309-0B-x0116-0B-COc1ccc-CC-O-N2CCCN-C-O-c3ccc-NS-C-O-O-cc3-CC2-cc1

>  <original SMILES>  (24) 
[H]c1c([H])c(C([H])([H])C(=O)N2C([H])([H])C([H])([H])N(C(=O)c3c([H])c([H])c(N([H])S(=O)(=O)C([H])([H])[H])c([H])c3[H])C([H])([H])C([H])([H])C2([H])[H])c([H])c([H])c1OC([H])([H])[H]

$$$$
324_x0309_0B_-x0116_0B_CS
     RDKit          3D

 31 33  0  0  0  0  0  0  0  0999 V2000
    0.5320   41.0310  -60.0930 C   0  0  0  0  0  0  0  0  0  0  0  0
   -0.9160   40.1430  -59.6820 S   0  0  0  0  0  0  0  0  0  0  0  0
   -0.8470   39.8320  -58.2780 O   0  0  0  0  0  0  0  0  0  0  0  0
   -2.0910   40.7200  -60.2780 O   0  0  0  0  0  0  0  0  0  0  0  0
   -0.5600   38.7640  -60.5680 N   0  0  0  0  0  0  0  0  0  0  0  0
    0.6610   38.0900  -60.1790 C   0  0  0  0  0  0  0  0  0  0  0  0
    1.6500   38.1030  -61.1190 C   0  0  0  0  0  0  0  0  0  0  0  0
    0.8310   37.4760  -58.9510 C   0  0  0  0  0  0  0  0  0  0  0  0
    2.9390   37.4200  -60.7730 C   0  0  0  0  0  0  0  0  0  0  0  0
    2.0350   36.8430  -58.6350 C   0  0  0  0  0  0  0  0  0  0  0  0
    3.0700   36.8270  -59.5540 C   0  0  0  0  0  0  0  0  0  0  0  0
    4.3890   36.1750  -59.3450 C   0  0  0  0  0  0  0  0  0  0  0  0
    4.5740   34.8970  -58.5700 C   0  0  0  0  0  0  0  0  0  0  0  0
    5.6950   34.1540  -58.3010 C   0  0  0  0  0  0  0  0  0  0  0  0
    6.5340   34.4270  -57.4430 O   0  0  0  0  0  0  0  0  0  0  0  0
    5.7770   33.0530  -59.1040 N   0  0  0  0  0  0  0  0  0  0  0  0
    6.5300   32.9500  -60.3190 C   0  0  0  0  0  0  0  0  0  0  0  0
    6.8890   31.6380  -60.4400 C   0  0  0  0  0  0  0  0  0  0  0  0
    6.8940   33.9240  -61.2500 C   0  0  0  0  0  0  0  0  0  0  0  0
    7.7080   31.1650  -61.6070 C   0  0  0  0  0  0  0  0  0  0  0  0
    7.6730   33.5900  -62.3740 C   0  0  0  0  0  0  0  0  0  0  0  0
    8.0940   32.2570  -62.5980 C   0  0  0  0  0  0  0  0  0  0  0  0
    7.9930   34.6430  -63.2030 O   0  0  0  0  0  0  0  0  0  0  0  0
    9.2300   34.4830  -63.9060 C   0  0  0  0  0  0  0  0  0  0  0  0
    9.2920   35.4700  -64.8850 C   0  0  0  0  0  0  0  0  0  0  0  0
    8.3310   35.6510  -65.6150 O   0  0  0  0  0  0  0  0  0  0  0  0
   10.4420   36.2360  -65.0010 N   0  0  0  0  0  0  0  0  0  0  0  0
   11.7730   35.6030  -65.0070 C   0  0  0  0  0  0  0  0  0  0  0  0
   10.5470   37.6340  -65.4900 C   0  0  0  0  0  0  0  0  0  0  0  0
   12.5430   36.5110  -65.7460 C   0  0  0  0  0  0  0  0  0  0  0  0
   11.8020   37.7930  -66.0140 C   0  0  0  0  0  0  0  0  0  0  0  0
  1  2  1  0
  2  3  2  0
  2  4  2  0
  2  5  1  0
  5  6  1  0
  6  7  2  0
  6  8  1  0
  7  9  1  0
  8 10  2  0
  9 11  2  0
 10 11  1  0
 11 12  1  0
 12 13  2  3
 13 14  1  0
 14 15  2  0
 14 16  1  0
 16 17  1  0
 17 18  2  0
 17 19  1  0
 18 20  1  0
 19 21  2  0
 20 22  2  0
 21 22  1  0
 21 23  1  0
 23 24  1  0
 24 25  1  0
 25 26  2  0
 25 27  1  0
 27 28  1  0
 27 29  1  0
 28 30  1  0
 29 31  1  0
 30 31  1  0
M  END
>  <ref_pdb>  (25) 
x0116

>  <ref_mols>  (25) 
x0116_0B,x0309_0B

>  <fragmensteinOld_score>  (25) 
-3.2282608128054626

>  <LE_score>  (25) 
-0.26117014382964987

>  <comRMSD_score>  (25) 
0.59099407893836642

>  <fragmensteinNew_score>  (25) 
-0.38303360055520019

>  <meanSuCosW_score>  (25) 
0.65206328466959895

>  <maxSuCosW_score>  (25) 
0.74071856149153725

>  <minSuCosW_score>  (25) 
0.56340800784766065

>  <sumSuCosW_score>  (25) 
1.3041265693391979

>  <SA_score>  (25) 
6.9479260990555485

>  <aLogP_score>  (25) 
2.7112000000000007

>  <hbondD_score>  (25) 
2

>  <hbondA_score>  (25) 
5

>  <polarSurfaceArea_score>  (25) 
104.80999999999999

>  <rotableBonds_score>  (25) 
8

>  <SC_score>  (25) 
4.0899072240826797

>  <energyPoseVsEnsemble_score>  (25) 
1.5212288984929681

>  <xcos_score>  (25) 
17.452531756181205

>  <plipMedianPreser_score>  (25) 
0.80000000000000004

>  <plipGlobalPreser_score>  (25) 
0.7142857142857143

>  <plipGlobalPreserOverMw_score>  (25) 
0.16118319070149861

>  <original_name>  (25) 
x0309-0B-x0116-0B-CS-O-O-Nc1ccc-C-CC-O-Nc2cccc-OCC-O-N3CCCC3-c2-cc1

>  <original SMILES>  (25) 
[H]C(C(=O)N([H])c1c([H])c([H])c([H])c(OC([H])([H])C(=O)N2C([H])([H])C([H])([H])C([H])([H])C2([H])[H])c1[H])=C([H])c1c([H])c([H])c(N([H])S(=O)(=O)C([H])([H])[H])c([H])c1[H]

$$$$
325_x0309_0B_-x0116_0B_CS
     RDKit          3D

 31 33  0  0  0  0  0  0  0  0999 V2000
   -0.5100   41.1330  -59.9570 C   0  0  0  0  0  0  0  0  0  0  0  0
   -1.3530   39.6760  -59.7640 S   0  0  0  0  0  0  0  0  0  0  0  0
   -1.3330   39.4060  -58.3490 O   0  0  0  0  0  0  0  0  0  0  0  0
   -2.5560   39.9380  -60.5180 O   0  0  0  0  0  0  0  0  0  0  0  0
   -0.4800   38.5410  -60.6330 N   0  0  0  0  0  0  0  0  0  0  0  0
    0.7450   37.9800  -60.2080 C   0  0  0  0  0  0  0  0  0  0  0  0
    1.7960   37.9920  -61.0580 C   0  0  0  0  0  0  0  0  0  0  0  0
    0.9320   37.3990  -58.9580 C   0  0  0  0  0  0  0  0  0  0  0  0
    3.0680   37.3930  -60.6500 C   0  0  0  0  0  0  0  0  0  0  0  0
    2.1630   36.8220  -58.5650 C   0  0  0  0  0  0  0  0  0  0  0  0
    3.2620   36.8120  -59.4260 C   0  0  0  0  0  0  0  0  0  0  0  0
    4.5200   36.2400  -59.1130 C   0  0  0  0  0  0  0  0  0  0  0  0
    4.7030   35.0570  -59.3630 O   0  0  0  0  0  0  0  0  0  0  0  0
    5.6850   36.8510  -58.5640 C   0  0  0  0  0  0  0  0  0  0  0  0
    6.4530   36.1260  -57.9110 O   0  0  0  0  0  0  0  0  0  0  0  0
    7.8110   36.2400  -58.1240 C   0  0  0  0  0  0  0  0  0  0  0  0
    8.5670   36.8290  -57.3480 O   0  0  0  0  0  0  0  0  0  0  0  0
    8.3650   35.5630  -59.4000 C   0  0  0  0  0  0  0  0  0  0  0  0
    9.1750   34.2350  -59.3370 C   0  0  0  0  0  0  0  0  0  0  0  0
    8.1330   36.1500  -60.6520 C   0  0  0  0  0  0  0  0  0  0  0  0
    9.6280   33.6650  -60.5410 C   0  0  0  0  0  0  0  0  0  0  0  0
    8.6000   35.5480  -61.8320 C   0  0  0  0  0  0  0  0  0  0  0  0
    9.2800   34.4080  -61.8140 C   0  0  0  0  0  0  0  0  0  0  0  0
    9.6960   33.8110  -63.1200 C   0  0  0  0  0  0  0  0  0  0  0  0
    8.4810   33.2390  -63.5230 O   0  0  0  0  0  0  0  0  0  0  0  0
    7.7720   32.7680  -62.4620 C   0  0  0  0  0  0  0  0  0  0  0  0
    8.2180   31.6880  -61.7100 C   0  0  0  0  0  0  0  0  0  0  0  0
    6.5620   33.4220  -62.1360 C   0  0  0  0  0  0  0  0  0  0  0  0
    7.4890   31.2420  -60.6340 C   0  0  0  0  0  0  0  0  0  0  0  0
    5.7780   33.0100  -61.0490 C   0  0  0  0  0  0  0  0  0  0  0  0
    6.1960   31.9370  -60.2750 C   0  0  0  0  0  0  0  0  0  0  0  0
  1  2  1  0
  2  3  2  0
  2  4  2  0
  2  5  1  0
  5  6  1  0
  6  7  2  0
  6  8  1  0
  7  9  1  0
  8 10  2  0
  9 11  2  0
 10 11  1  0
 11 12  1  0
 12 13  2  0
 12 14  1  0
 14 15  1  0
 15 16  1  0
 16 17  2  0
 16 18  1  0
 18 19  2  0
 18 20  1  0
 19 21  1  0
 20 22  2  0
 21 23  2  0
 22 23  1  0
 23 24  1  0
 24 25  1  0
 25 26  1  0
 26 27  2  0
 26 28  1  0
 27 29  1  0
 28 30  2  0
 29 31  2  0
 30 31  1  0
M  END
>  <ref_pdb>  (26) 
x0116

>  <ref_mols>  (26) 
x0116_0B,x0309_0B

>  <fragmensteinOld_score>  (26) 
-0.64940765590739424

>  <LE_score>  (26) 
-0.19362079682343064

>  <comRMSD_score>  (26) 
0.92848960312724782

>  <fragmensteinNew_score>  (26) 
1.9555468465512542

>  <meanSuCosW_score>  (26) 
0.48133232129671466

>  <maxSuCosW_score>  (26) 
0.59374205903451005

>  <minSuCosW_score>  (26) 
0.36892258355891921

>  <sumSuCosW_score>  (26) 
0.96266464259342932

>  <SA_score>  (26) 
7.8232557477295241

>  <aLogP_score>  (26) 
3.6768000000000027

>  <hbondD_score>  (26) 
1

>  <hbondA_score>  (26) 
6

>  <polarSurfaceArea_score>  (26) 
98.769999999999996

>  <rotableBonds_score>  (26) 
9

>  <SC_score>  (26) 
3.044280619478418

>  <energyPoseVsEnsemble_score>  (26) 
1.7690384422014296

>  <xcos_score>  (26) 
11.500219368947484

>  <plipMedianPreser_score>  (26) 
0.80000000000000004

>  <plipGlobalPreser_score>  (26) 
0.5714285714285714

>  <plipGlobalPreserOverMw_score>  (26) 
0.13013366284329975

>  <original_name>  (26) 
x0309-0B-x0116-0B-CS-O-O-Nc1ccc-C-O-COC-O-c2ccc-COc3ccccc3-cc2-cc1

>  <original SMILES>  (26) 
[H]c1c([H])c([H])c(OC([H])([H])c2c([H])c([H])c(C(=O)OC([H])([H])C(=O)c3c([H])c([H])c(N([H])S(=O)(=O)C([H])([H])[H])c([H])c3[H])c([H])c2[H])c([H])c1[H]

$$$$
327_x0309_0B_-x0116_0B_CS
     RDKit          3D

 28 30  0  0  0  0  0  0  0  0999 V2000
   -0.3760   41.0660  -59.9070 C   0  0  0  0  0  0  0  0  0  0  0  0
   -1.0640   39.5140  -59.8790 S   0  0  0  0  0  0  0  0  0  0  0  0
   -1.0240   39.1090  -58.4960 O   0  0  0  0  0  0  0  0  0  0  0  0
   -2.2820   39.7760  -60.6100 O   0  0  0  0  0  0  0  0  0  0  0  0
   -0.1000   38.5490  -60.8790 N   0  0  0  0  0  0  0  0  0  0  0  0
    1.1580   37.9860  -60.5320 C   0  0  0  0  0  0  0  0  0  0  0  0
    2.3700   38.6110  -60.6620 C   0  0  0  0  0  0  0  0  0  0  0  0
    1.1740   36.7310  -60.0450 C   0  0  0  0  0  0  0  0  0  0  0  0
    3.6410   37.9100  -60.2700 C   0  0  0  0  0  0  0  0  0  0  0  0
    2.3450   36.0460  -59.6640 C   0  0  0  0  0  0  0  0  0  0  0  0
    3.6270   36.5940  -59.7650 C   0  0  0  0  0  0  0  0  0  0  0  0
    4.8080   35.8560  -59.3850 C   0  0  0  0  0  0  0  0  0  0  0  0
    5.7480   36.4930  -58.9290 O   0  0  0  0  0  0  0  0  0  0  0  0
    4.7310   34.6090  -59.5700 O   0  0  0  0  0  0  0  0  0  0  0  0
    5.8930   33.7260  -59.8720 C   0  0  0  0  0  0  0  0  0  0  0  0
    6.9420   34.1980  -60.8640 C   0  0  0  0  0  0  0  0  0  0  0  0
    7.2240   33.2880  -62.0420 C   0  0  0  0  0  0  0  0  0  0  0  0
    7.6630   35.4070  -60.7870 C   0  0  0  0  0  0  0  0  0  0  0  0
    8.2000   33.7920  -63.0890 C   0  0  0  0  0  0  0  0  0  0  0  0
    8.5640   35.7990  -61.8120 C   0  0  0  0  0  0  0  0  0  0  0  0
    8.7940   35.0240  -62.9740 C   0  0  0  0  0  0  0  0  0  0  0  0
    9.6250   35.4720  -64.1770 C   0  0  0  0  0  0  0  0  0  0  0  0
    8.7940   35.4840  -65.3580 O   0  0  0  0  0  0  0  0  0  0  0  0
   10.9980   35.9570  -64.1090 N   0  0  0  0  0  0  0  0  0  0  0  0
   12.0340   35.2570  -64.7050 C   0  0  0  0  0  0  0  0  0  0  0  0
   11.1690   37.3090  -64.6770 C   0  0  0  0  0  0  0  0  0  0  0  0
   12.9930   36.2010  -65.4840 C   0  0  0  0  0  0  0  0  0  0  0  0
   12.5790   37.5000  -65.2120 C   0  0  0  0  0  0  0  0  0  0  0  0
  1  2  1  0
  2  3  2  0
  2  4  2  0
  2  5  1  0
  5  6  1  0
  6  7  2  0
  6  8  1  0
  7  9  1  0
  8 10  2  0
  9 11  2  0
 10 11  1  0
 11 12  1  0
 12 13  2  0
 12 14  1  0
 14 15  1  0
 15 16  1  0
 16 17  2  0
 16 18  1  0
 17 19  1  0
 18 20  2  0
 19 21  2  0
 20 21  1  0
 21 22  1  0
 22 23  2  0
 22 24  1  0
 24 25  1  0
 24 26  1  0
 25 27  1  0
 26 28  1  0
 27 28  1  0
M  END
>  <ref_pdb>  (27) 
x0116

>  <ref_mols>  (27) 
x0116_0B,x0309_0B

>  <fragmensteinOld_score>  (27) 
-1.9753727482160233

>  <LE_score>  (27) 
-0.1279010479923221

>  <comRMSD_score>  (27) 
0.89203353973790955

>  <fragmensteinNew_score>  (27) 
0.37123025206940174

>  <meanSuCosW_score>  (27) 
0.46858009863361927

>  <maxSuCosW_score>  (27) 
0.59813780092474877

>  <minSuCosW_score>  (27) 
0.33902239634248971

>  <sumSuCosW_score>  (27) 
0.93716019726723854

>  <SA_score>  (27) 
7.9213061662071702

>  <aLogP_score>  (27) 
2.6511000000000013

>  <hbondD_score>  (27) 
1

>  <hbondA_score>  (27) 
5

>  <polarSurfaceArea_score>  (27) 
92.779999999999987

>  <rotableBonds_score>  (27) 
6

>  <SC_score>  (27) 
3.2094065615516945

>  <energyPoseVsEnsemble_score>  (27) 
1.3592317452005456

>  <xcos_score>  (27) 
8.3599150357208654

>  <plipMedianPreser_score>  (27) 
0.90000000000000002

>  <plipGlobalPreser_score>  (27) 
0.8571428571428571

>  <plipGlobalPreserOverMw_score>  (27) 
0.21315336749967195

>  <original_name>  (27) 
x0309-0B-x0116-0B-CS-O-O-Nc1ccc-C-O-OCc2ccc-C-O-N3CCCC3-cc2-cc1

>  <original SMILES>  (27) 
[H]c1c([H])c(N([H])S(=O)(=O)C([H])([H])[H])c([H])c([H])c1C(=O)OC([H])([H])c1c([H])c([H])c(C(=O)N2C([H])([H])C([H])([H])C([H])([H])C2([H])[H])c([H])c1[H]

$$$$
340_x0309_0B_-x0116_0B_CS
     RDKit          3D

 27 28  0  0  0  0  0  0  0  0999 V2000
    0.5020   40.9830  -60.0310 C   0  0  0  0  0  0  0  0  0  0  0  0
   -0.8470   39.9120  -59.7190 S   0  0  0  0  0  0  0  0  0  0  0  0
   -2.0500   40.3890  -60.3600 O   0  0  0  0  0  0  0  0  0  0  0  0
   -0.8200   39.6520  -58.3020 O   0  0  0  0  0  0  0  0  0  0  0  0
   -0.2820   38.5250  -60.4660 N   0  0  0  0  0  0  0  0  0  0  0  0
    0.9420   37.8910  -60.1500 C   0  0  0  0  0  0  0  0  0  0  0  0
    1.9420   37.8300  -61.0560 C   0  0  0  0  0  0  0  0  0  0  0  0
    1.1520   37.2950  -58.9110 C   0  0  0  0  0  0  0  0  0  0  0  0
    3.2010   37.1400  -60.7170 C   0  0  0  0  0  0  0  0  0  0  0  0
    2.3720   36.6400  -58.6090 C   0  0  0  0  0  0  0  0  0  0  0  0
    3.4390   36.5430  -59.5080 C   0  0  0  0  0  0  0  0  0  0  0  0
    4.6880   35.8910  -59.2270 C   0  0  0  0  0  0  0  0  0  0  0  0
    5.0840   34.9610  -60.3090 N   0  0  0  0  0  0  0  0  0  0  0  0
    6.4100   34.6910  -60.7230 C   0  0  0  0  0  0  0  0  0  0  0  0
    7.3690   34.9560  -60.0050 O   0  0  0  0  0  0  0  0  0  0  0  0
    6.5790   34.0600  -62.1030 N   0  0  0  0  0  0  0  0  0  0  0  0
    7.9500   33.5930  -62.5700 C   0  0  0  0  0  0  0  0  0  0  0  0
    8.9460   34.7090  -63.0400 C   0  0  0  0  0  0  0  0  0  0  0  0
    9.1420   35.3090  -64.5050 C   0  0  0  0  0  0  0  0  0  0  0  0
    8.2880   35.2760  -65.3860 O   0  0  0  0  0  0  0  0  0  0  0  0
   10.3510   36.0210  -64.7880 N   0  0  0  0  0  0  0  0  0  0  0  0
   11.6190   35.2840  -64.8170 C   0  0  0  0  0  0  0  0  0  0  0  0
   10.2950   37.2160  -65.6570 C   0  0  0  0  0  0  0  0  0  0  0  0
   12.5010   35.6390  -66.0150 C   0  0  0  0  0  0  0  0  0  0  0  0
   11.3130   38.3290  -65.2880 C   0  0  0  0  0  0  0  0  0  0  0  0
   13.3470   36.7860  -65.5020 C   0  0  0  0  0  0  0  0  0  0  0  0
   12.7100   38.1390  -65.8610 C   0  0  0  0  0  0  0  0  0  0  0  0
  1  2  1  0
  2  3  2  0
  2  4  2  0
  2  5  1  0
  5  6  1  0
  6  7  2  0
  6  8  1  0
  7  9  1  0
  8 10  2  0
  9 11  2  0
 10 11  1  0
 11 12  1  0
 12 13  1  0
 13 14  1  0
 14 15  2  0
 14 16  1  0
 16 17  1  0
 17 18  1  0
 18 19  1  0
 19 20  2  0
 19 21  1  0
 21 22  1  0
 21 23  1  0
 22 24  1  0
 23 25  1  0
 24 26  1  0
 25 27  1  0
 26 27  1  0
M  END
>  <ref_pdb>  (28) 
x0116

>  <ref_mols>  (28) 
x0116_0B,x0309_0B

>  <fragmensteinOld_score>  (28) 
-2.1772038438143309

>  <LE_score>  (28) 
-0.19702349240829151

>  <comRMSD_score>  (28) 
0.80493711063541795

>  <fragmensteinNew_score>  (28) 
0.33879873628263546

>  <meanSuCosW_score>  (28) 
0.51068572610532437

>  <maxSuCosW_score>  (28) 
0.59379042538146687

>  <minSuCosW_score>  (28) 
0.42758102682918198

>  <sumSuCosW_score>  (28) 
1.0213714522106487

>  <SA_score>  (28) 
7.4040853834471436

>  <aLogP_score>  (28) 
1.6499999999999992

>  <hbondD_score>  (28) 
3

>  <hbondA_score>  (28) 
4

>  <polarSurfaceArea_score>  (28) 
107.61

>  <rotableBonds_score>  (28) 
7

>  <SC_score>  (28) 
4.1945034596646007

>  <energyPoseVsEnsemble_score>  (28) 
0.75269516685822602

>  <xcos_score>  (28) 
11.086662499774016

>  <plipMedianPreser_score>  (28) 
0.90000000000000002

>  <plipGlobalPreser_score>  (28) 
0.8571428571428571

>  <plipGlobalPreserOverMw_score>  (28) 
0.21635016740449939

>  <original_name>  (28) 
x0309-0B-x0116-0B-CS-O-O-Nc1ccc-CNC-O-NCCC-O-N2CCCCCC2-cc1

>  <original SMILES>  (28) 
[H]c1c([H])c(C([H])([H])N([H])C(=O)N([H])C([H])([H])C([H])([H])C(=O)N2C([H])([H])C([H])([H])C([H])([H])C([H])([H])C([H])([H])C2([H])[H])c([H])c([H])c1N([H])S(=O)(=O)C([H])([H])[H]

$$$$
341_x0309_0B_-x0116_0B_CS
     RDKit          3D

 27 28  0  0  0  0  0  0  0  0999 V2000
   -0.4210   41.1100  -60.3810 C   0  0  0  0  0  0  0  0  0  0  0  0
   -1.0760   39.5980  -60.0560 S   0  0  0  0  0  0  0  0  0  0  0  0
   -2.3890   39.8210  -60.6250 O   0  0  0  0  0  0  0  0  0  0  0  0
   -0.8410   39.3510  -58.6490 O   0  0  0  0  0  0  0  0  0  0  0  0
   -0.1410   38.5060  -60.9800 N   0  0  0  0  0  0  0  0  0  0  0  0
    1.0800   37.9990  -60.5630 C   0  0  0  0  0  0  0  0  0  0  0  0
    2.3440   38.6810  -60.6960 C   0  0  0  0  0  0  0  0  0  0  0  0
    1.0850   36.7800  -60.0030 C   0  0  0  0  0  0  0  0  0  0  0  0
    3.5300   38.0860  -60.2230 C   0  0  0  0  0  0  0  0  0  0  0  0
    2.2530   36.1870  -59.5320 C   0  0  0  0  0  0  0  0  0  0  0  0
    3.4880   36.8130  -59.6190 C   0  0  0  0  0  0  0  0  0  0  0  0
    4.6320   36.1690  -59.1020 C   0  0  0  0  0  0  0  0  0  0  0  0
    5.5210   35.4840  -59.9840 N   0  0  0  0  0  0  0  0  0  0  0  0
    6.8640   35.8310  -60.2020 C   0  0  0  0  0  0  0  0  0  0  0  0
    7.2510   36.9920  -60.2370 O   0  0  0  0  0  0  0  0  0  0  0  0
    7.7540   34.6770  -60.3940 N   0  0  0  0  0  0  0  0  0  0  0  0
    9.0610   34.7160  -60.9150 C   0  0  0  0  0  0  0  0  0  0  0  0
    9.3190   35.6210  -61.9640 C   0  0  0  0  0  0  0  0  0  0  0  0
    9.6050   35.2150  -63.3100 C   0  0  0  0  0  0  0  0  0  0  0  0
    8.9510   33.9540  -63.6720 C   0  0  0  0  0  0  0  0  0  0  0  0
    7.5960   34.0430  -63.4170 O   0  0  0  0  0  0  0  0  0  0  0  0
    7.2130   33.2660  -62.3490 C   0  0  0  0  0  0  0  0  0  0  0  0
    8.0080   32.1310  -61.8460 C   0  0  0  0  0  0  0  0  0  0  0  0
    6.0140   33.5770  -61.7110 C   0  0  0  0  0  0  0  0  0  0  0  0
    7.5530   31.4160  -60.7560 C   0  0  0  0  0  0  0  0  0  0  0  0
    5.6110   32.8180  -60.6160 C   0  0  0  0  0  0  0  0  0  0  0  0
    6.3580   31.7480  -60.1220 C   0  0  0  0  0  0  0  0  0  0  0  0
  1  2  1  0
  2  3  2  0
  2  4  2  0
  2  5  1  0
  5  6  1  0
  6  7  2  0
  6  8  1  0
  7  9  1  0
  8 10  2  0
  9 11  2  0
 10 11  1  0
 11 12  1  0
 12 13  1  0
 13 14  1  0
 14 15  2  0
 14 16  1  0
 16 17  1  0
 17 18  1  0
 18 19  1  0
 19 20  1  0
 20 21  1  0
 21 22  1  0
 22 23  2  0
 22 24  1  0
 23 25  1  0
 24 26  2  0
 25 27  2  0
 26 27  1  0
M  END
>  <ref_pdb>  (29) 
x0116

>  <ref_mols>  (29) 
x0116_0B,x0309_0B

>  <fragmensteinOld_score>  (29) 
-0.83124358454394232

>  <LE_score>  (29) 
-0.033678224873702915

>  <comRMSD_score>  (29) 
0.65735447474879394

>  <fragmensteinNew_score>  (29) 
0.53155249507740776

>  <meanSuCosW_score>  (29) 
0.54402202904101116

>  <maxSuCosW_score>  (29) 
0.62830539997254997

>  <minSuCosW_score>  (29) 
0.45973865810947223

>  <sumSuCosW_score>  (29) 
1.0880440580820223

>  <SA_score>  (29) 
7.0240841690717071

>  <aLogP_score>  (29) 
2.7165000000000008

>  <hbondD_score>  (29) 
3

>  <hbondA_score>  (29) 
4

>  <polarSurfaceArea_score>  (29) 
96.530000000000015

>  <rotableBonds_score>  (29) 
10

>  <SC_score>  (29) 
4.115341565615263

>  <energyPoseVsEnsemble_score>  (29) 
4.5195809766787445

>  <xcos_score>  (29) 
13.9280405935655

>  <plipMedianPreser_score>  (29) 
0.80000000000000004

>  <plipGlobalPreser_score>  (29) 
0.5714285714285714

>  <plipGlobalPreserOverMw_score>  (29) 
0.14608691368610863

>  <original_name>  (29) 
x0309-0B-x0116-0B-CS-O-O-Nc1ccc-CNC-O-NCCCCOc2ccccc2-cc1

>  <original SMILES>  (29) 
[H]c1c([H])c([H])c(OC([H])([H])C([H])([H])C([H])([H])C([H])([H])N([H])C(=O)N([H])C([H])([H])c2c([H])c([H])c(N([H])S(=O)(=O)C([H])([H])[H])c([H])c2[H])c([H])c1[H]

$$$$
343_x0309_0B_-x0116_0B_CS
     RDKit          3D

 31 33  0  0  0  0  0  0  0  0999 V2000
   -0.4800   40.9700  -59.8450 C   0  0  0  0  0  0  0  0  0  0  0  0
   -1.3160   39.4500  -59.8410 S   0  0  0  0  0  0  0  0  0  0  0  0
   -1.2920   38.9520  -58.4860 O   0  0  0  0  0  0  0  0  0  0  0  0
   -2.5520   39.7010  -60.5410 O   0  0  0  0  0  0  0  0  0  0  0  0
   -0.3560   38.5270  -60.8850 N   0  0  0  0  0  0  0  0  0  0  0  0
    0.9090   38.0880  -60.5540 C   0  0  0  0  0  0  0  0  0  0  0  0
    2.1370   38.7750  -60.8720 C   0  0  0  0  0  0  0  0  0  0  0  0
    0.9920   36.9390  -59.8960 C   0  0  0  0  0  0  0  0  0  0  0  0
    3.3610   38.2230  -60.4670 C   0  0  0  0  0  0  0  0  0  0  0  0
    2.1980   36.3640  -59.4830 C   0  0  0  0  0  0  0  0  0  0  0  0
    3.3990   37.0060  -59.7640 C   0  0  0  0  0  0  0  0  0  0  0  0
    4.6260   36.4570  -59.3560 C   0  0  0  0  0  0  0  0  0  0  0  0
    4.7510   35.0370  -59.4220 N   0  0  0  0  0  0  0  0  0  0  0  0
    5.1600   34.2850  -60.5060 C   0  0  0  0  0  0  0  0  0  0  0  0
    4.7390   34.3880  -61.6310 O   0  0  0  0  0  0  0  0  0  0  0  0
    6.1730   33.3250  -60.1900 N   0  0  0  0  0  0  0  0  0  0  0  0
    6.6170   32.4800  -61.1800 C   0  0  0  0  0  0  0  0  0  0  0  0
    7.5980   33.0090  -62.0100 C   0  0  0  0  0  0  0  0  0  0  0  0
    7.2700   34.1110  -62.7020 C   0  0  0  0  0  0  0  0  0  0  0  0
    8.8710   32.5010  -62.1750 C   0  0  0  0  0  0  0  0  0  0  0  0
    8.0340   34.9700  -63.6700 C   0  0  0  0  0  0  0  0  0  0  0  0
    9.7540   33.1430  -63.0370 C   0  0  0  0  0  0  0  0  0  0  0  0
    9.3010   34.2940  -63.7060 C   0  0  0  0  0  0  0  0  0  0  0  0
    9.9580   35.1860  -64.6650 C   0  0  0  0  0  0  0  0  0  0  0  0
    8.9740   35.6840  -65.5920 O   0  0  0  0  0  0  0  0  0  0  0  0
   11.2870   35.6070  -64.6160 N   0  0  0  0  0  0  0  0  0  0  0  0
   11.6200   37.0210  -64.5420 C   0  0  0  0  0  0  0  0  0  0  0  0
   12.1710   34.9970  -65.5710 C   0  0  0  0  0  0  0  0  0  0  0  0
   12.9330   37.2840  -64.2300 C   0  0  0  0  0  0  0  0  0  0  0  0
   13.0160   35.9670  -66.1210 C   0  0  0  0  0  0  0  0  0  0  0  0
   13.7660   36.6820  -65.1750 C   0  0  0  0  0  0  0  0  0  0  0  0
  1  2  1  0
  2  3  2  0
  2  4  2  0
  2  5  1  0
  5  6  1  0
  6  7  2  0
  6  8  1  0
  7  9  1  0
  8 10  2  0
  9 11  2  0
 10 11  1  0
 11 12  1  0
 12 13  1  0
 13 14  1  0
 14 15  2  0
 14 16  1  0
 16 17  1  0
 17 18  1  0
 18 19  2  0
 18 20  1  0
 19 21  1  0
 20 22  2  0
 21 23  2  0
 22 23  1  0
 23 24  1  0
 24 25  2  0
 24 26  1  0
 26 27  1  0
 26 28  1  0
 27 29  1  0
 28 30  1  0
 29 31  1  0
 30 31  1  0
M  END
>  <ref_pdb>  (30) 
x0116

>  <ref_mols>  (30) 
x0116_0B,x0309_0B

>  <fragmensteinOld_score>  (30) 
-1.5175361436354682

>  <LE_score>  (30) 
-0.13429638116056924

>  <comRMSD_score>  (30) 
0.86881997202428896

>  <fragmensteinNew_score>  (30) 
0.85412206918819922

>  <meanSuCosW_score>  (30) 
0.50877473630247394

>  <maxSuCosW_score>  (30) 
0.64924027667280926

>  <minSuCosW_score>  (30) 
0.36830919593213862

>  <sumSuCosW_score>  (30) 
1.0175494726049479

>  <SA_score>  (30) 
7.1690324278722262

>  <aLogP_score>  (30) 
2.6836000000000011

>  <hbondD_score>  (30) 
3

>  <hbondA_score>  (30) 
4

>  <polarSurfaceArea_score>  (30) 
107.61

>  <rotableBonds_score>  (30) 
7

>  <SC_score>  (30) 
4.0973535255368745

>  <energyPoseVsEnsemble_score>  (30) 
3.1280095632581379

>  <xcos_score>  (30) 
13.593758827730923

>  <plipMedianPreser_score>  (30) 
1

>  <plipGlobalPreser_score>  (30) 
1

>  <plipGlobalPreserOverMw_score>  (30) 
0.22513237010122272

>  <original_name>  (30) 
x0309-0B-x0116-0B-CS-O-O-Nc1ccc-CNC-O-NCc2ccc-C-O-N3CCCCC3-cc2-cc1

>  <original SMILES>  (30) 
[H]c1c([H])c(C([H])([H])N([H])C(=O)N([H])C([H])([H])c2c([H])c([H])c(N([H])S(=O)(=O)C([H])([H])[H])c([H])c2[H])c([H])c([H])c1C(=O)N1C([H])([H])C([H])([H])C([H])([H])C([H])([H])C1([H])[H]

$$$$
344_x0309_0B_-x0116_0B_CS
     RDKit          3D

 32 34  0  0  0  0  0  0  0  0999 V2000
    0.3750   40.9370  -60.0370 C   0  0  0  0  0  0  0  0  0  0  0  0
   -1.0190   39.9110  -59.7660 S   0  0  0  0  0  0  0  0  0  0  0  0
   -1.0530   39.6550  -58.3440 O   0  0  0  0  0  0  0  0  0  0  0  0
   -2.1890   40.4010  -60.4560 O   0  0  0  0  0  0  0  0  0  0  0  0
   -0.4940   38.5530  -60.6120 N   0  0  0  0  0  0  0  0  0  0  0  0
    0.6780   37.9810  -60.1610 C   0  0  0  0  0  0  0  0  0  0  0  0
    1.8330   37.9000  -61.0190 C   0  0  0  0  0  0  0  0  0  0  0  0
    0.7930   37.4730  -58.8900 C   0  0  0  0  0  0  0  0  0  0  0  0
    3.0260   37.3330  -60.5690 C   0  0  0  0  0  0  0  0  0  0  0  0
    2.1100   36.8540  -58.4150 C   0  0  0  0  0  0  0  0  0  0  0  0
    3.1910   36.8170  -59.2930 C   0  0  0  0  0  0  0  0  0  0  0  0
    4.4170   36.2760  -58.8940 C   0  0  0  0  0  0  0  0  0  0  0  0
    4.7160   34.9730  -59.3560 N   0  0  0  0  0  0  0  0  0  0  0  0
    5.6300   34.0940  -58.8340 C   0  0  0  0  0  0  0  0  0  0  0  0
    5.9040   33.9110  -57.6500 O   0  0  0  0  0  0  0  0  0  0  0  0
    6.2280   33.4150  -59.9500 N   0  0  0  0  0  0  0  0  0  0  0  0
    7.5650   33.1480  -60.0160 C   0  0  0  0  0  0  0  0  0  0  0  0
    8.1200   33.8230  -61.0830 C   0  0  0  0  0  0  0  0  0  0  0  0
    8.2250   33.1850  -62.3210 C   0  0  0  0  0  0  0  0  0  0  0  0
    8.5490   35.0980  -60.9430 C   0  0  0  0  0  0  0  0  0  0  0  0
    8.7360   33.5920  -63.6950 C   0  0  0  0  0  0  0  0  0  0  0  0
    9.0700   35.7280  -62.1820 C   0  0  0  0  0  0  0  0  0  0  0  0
    9.1050   35.0130  -63.3870 C   0  0  0  0  0  0  0  0  0  0  0  0
    9.5350   35.7330  -64.5950 C   0  0  0  0  0  0  0  0  0  0  0  0
    8.5170   35.7240  -65.5880 O   0  0  0  0  0  0  0  0  0  0  0  0
   10.7340   36.4050  -64.7650 N   0  0  0  0  0  0  0  0  0  0  0  0
   11.9950   35.6950  -64.8860 C   0  0  0  0  0  0  0  0  0  0  0  0
   10.6080   37.6150  -65.5730 C   0  0  0  0  0  0  0  0  0  0  0  0
   12.8780   36.3600  -65.7440 C   0  0  0  0  0  0  0  0  0  0  0  0
   11.5340   38.5970  -65.2120 C   0  0  0  0  0  0  0  0  0  0  0  0
   13.5400   37.3950  -65.0800 C   0  0  0  0  0  0  0  0  0  0  0  0
   12.6440   38.2460  -64.4430 C   0  0  0  0  0  0  0  0  0  0  0  0
  1  2  1  0
  2  3  2  0
  2  4  2  0
  2  5  1  0
  5  6  1  0
  6  7  2  0
  6  8  1  0
  7  9  1  0
  8 10  2  0
  9 11  2  0
 10 11  1  0
 11 12  1  0
 12 13  1  0
 13 14  1  0
 14 15  2  0
 14 16  1  0
 16 17  1  0
 17 18  1  0
 18 19  2  0
 18 20  1  0
 19 21  1  0
 20 22  2  0
 21 23  2  0
 22 23  1  0
 23 24  1  0
 24 25  2  0
 24 26  1  0
 26 27  1  0
 26 28  1  0
 27 29  1  0
 28 30  1  0
 29 31  1  0
 30 32  1  0
 31 32  1  0
M  END
>  <ref_pdb>  (31) 
x0116

>  <ref_mols>  (31) 
x0116_0B,x0309_0B

>  <fragmensteinOld_score>  (31) 
-1.4739886833852864

>  <LE_score>  (31) 
-0.19351539514501248

>  <comRMSD_score>  (31) 
0.81932216165880356

>  <fragmensteinNew_score>  (31) 
1.2316217201870712

>  <meanSuCosW_score>  (31) 
0.5358321882544459

>  <maxSuCosW_score>  (31) 
0.63618138823981019

>  <minSuCosW_score>  (31) 
0.43548298826908155

>  <sumSuCosW_score>  (31) 
1.0716643765088918

>  <SA_score>  (31) 
7.4252644400003707

>  <aLogP_score>  (31) 
3.0737000000000014

>  <hbondD_score>  (31) 
3

>  <hbondA_score>  (31) 
4

>  <polarSurfaceArea_score>  (31) 
107.61

>  <rotableBonds_score>  (31) 
7

>  <SC_score>  (31) 
4.0973535255368745

>  <energyPoseVsEnsemble_score>  (31) 
2.240114482404485

>  <xcos_score>  (31) 
18.722617658624866

>  <plipMedianPreser_score>  (31) 
0.75

>  <plipGlobalPreser_score>  (31) 
0.42857142857142855

>  <plipGlobalPreserOverMw_score>  (31) 
0.093533953080633794

>  <original_name>  (31) 
x0309-0B-x0116-0B-CS-O-O-Nc1ccc-CNC-O-NCc2ccc-C-O-N3CCCCCC3-cc2-cc1

>  <original SMILES>  (31) 
[H]c1c([H])c(C([H])([H])N([H])C(=O)N([H])C([H])([H])c2c([H])c([H])c(N([H])S(=O)(=O)C([H])([H])[H])c([H])c2[H])c([H])c([H])c1C(=O)N1C([H])([H])C([H])([H])C([H])([H])C([H])([H])C([H])([H])C1([H])[H]

$$$$
345_x0309_0B_-x0116_0B_CS
     RDKit          3D

 28 29  0  0  0  0  0  0  0  0999 V2000
   -0.3700   41.0750  -59.9610 C   0  0  0  0  0  0  0  0  0  0  0  0
   -1.1370   39.5590  -59.8830 S   0  0  0  0  0  0  0  0  0  0  0  0
   -1.0920   39.1940  -58.4880 O   0  0  0  0  0  0  0  0  0  0  0  0
   -2.3660   39.8410  -60.5910 O   0  0  0  0  0  0  0  0  0  0  0  0
   -0.2330   38.5150  -60.8600 N   0  0  0  0  0  0  0  0  0  0  0  0
    1.0560   38.0290  -60.5260 C   0  0  0  0  0  0  0  0  0  0  0  0
    2.2150   38.7130  -60.7140 C   0  0  0  0  0  0  0  0  0  0  0  0
    1.1130   36.7880  -59.9830 C   0  0  0  0  0  0  0  0  0  0  0  0
    3.5050   38.0940  -60.3060 C   0  0  0  0  0  0  0  0  0  0  0  0
    2.3140   36.1670  -59.5810 C   0  0  0  0  0  0  0  0  0  0  0  0
    3.5440   36.8160  -59.7350 C   0  0  0  0  0  0  0  0  0  0  0  0
    4.7940   36.2560  -59.3490 C   0  0  0  0  0  0  0  0  0  0  0  0
    4.7050   34.8530  -58.9180 N   0  0  0  0  0  0  0  0  0  0  0  0
    5.7860   34.2380  -58.2720 C   0  0  0  0  0  0  0  0  0  0  0  0
    6.8740   34.8030  -58.2040 O   0  0  0  0  0  0  0  0  0  0  0  0
    5.5860   32.8710  -57.6520 N   0  0  0  0  0  0  0  0  0  0  0  0
    6.1680   31.7310  -58.4340 C   0  0  0  0  0  0  0  0  0  0  0  0
    6.6350   32.2830  -59.7630 C   0  0  0  0  0  0  0  0  0  0  0  0
    5.6840   33.1510  -60.5580 C   0  0  0  0  0  0  0  0  0  0  0  0
    7.9080   32.0720  -60.3120 C   0  0  0  0  0  0  0  0  0  0  0  0
    6.0480   33.7350  -61.7360 C   0  0  0  0  0  0  0  0  0  0  0  0
    8.3320   32.7310  -61.6470 C   0  0  0  0  0  0  0  0  0  0  0  0
    7.4230   33.5560  -62.3240 C   0  0  0  0  0  0  0  0  0  0  0  0
    7.8620   34.1350  -63.4580 O   0  0  0  0  0  0  0  0  0  0  0  0
    9.2540   34.1810  -63.7050 C   0  0  0  0  0  0  0  0  0  0  0  0
    9.3980   35.3600  -64.6760 C   0  0  0  0  0  0  0  0  0  0  0  0
   10.6260   35.9050  -64.7940 N   0  0  0  0  0  0  0  0  0  0  0  0
    8.4570   35.8260  -65.3180 O   0  0  0  0  0  0  0  0  0  0  0  0
  1  2  1  0
  2  3  2  0
  2  4  2  0
  2  5  1  0
  5  6  1  0
  6  7  2  0
  6  8  1  0
  7  9  1  0
  8 10  2  0
  9 11  2  0
 10 11  1  0
 11 12  1  0
 12 13  1  0
 13 14  1  0
 14 15  2  0
 14 16  1  0
 16 17  1  0
 17 18  1  0
 18 19  2  0
 18 20  1  0
 19 21  1  0
 20 22  2  0
 21 23  2  0
 22 23  1  0
 23 24  1  0
 24 25  1  0
 25 26  1  0
 26 27  1  0
 26 28  2  0
M  END
>  <ref_pdb>  (32) 
x0116

>  <ref_mols>  (32) 
x0116_0B,x0309_0B

>  <fragmensteinOld_score>  (32) 
-2.1967734367288378

>  <LE_score>  (32) 
-0.16829658118821283

>  <comRMSD_score>  (32) 
0.61300605040043921

>  <fragmensteinNew_score>  (32) 
-0.016336472967243498

>  <meanSuCosW_score>  (32) 
0.62579327954260355

>  <maxSuCosW_score>  (32) 
0.64779570568243006

>  <minSuCosW_score>  (32) 
0.60379085340277716

>  <sumSuCosW_score>  (32) 
1.2515865590852071

>  <SA_score>  (32) 
7.9925608843247815

>  <aLogP_score>  (32) 
0.92159999999999997

>  <hbondD_score>  (32) 
4

>  <hbondA_score>  (32) 
5

>  <polarSurfaceArea_score>  (32) 
139.62

>  <rotableBonds_score>  (32) 
9

>  <SC_score>  (32) 
3.8042688645494827

>  <energyPoseVsEnsemble_score>  (32) 
1.5596690022977278

>  <xcos_score>  (32) 
14.667153419013221

>  <plipMedianPreser_score>  (32) 
0.77500000000000002

>  <plipGlobalPreser_score>  (32) 
0.8571428571428571

>  <plipGlobalPreserOverMw_score>  (32) 
0.21105078546092285

>  <original_name>  (32) 
x0309-0B-x0116-0B-CS-O-O-Nc1ccc-CNC-O-NCc2ccc-OCC-N-O-cc2-cc1

>  <original SMILES>  (32) 
[H]c1c([H])c(C([H])([H])N([H])C(=O)N([H])C([H])([H])c2c([H])c([H])c(N([H])S(=O)(=O)C([H])([H])[H])c([H])c2[H])c([H])c([H])c1OC([H])([H])C(=O)N([H])[H]

$$$$
347_x0309_0B_-x0116_0B_CS
     RDKit          3D

 31 33  0  0  0  0  0  0  0  0999 V2000
   -0.3270   41.0030  -59.9580 C   0  0  0  0  0  0  0  0  0  0  0  0
   -1.0570   39.4660  -59.9660 S   0  0  0  0  0  0  0  0  0  0  0  0
   -1.0430   39.0610  -58.5820 O   0  0  0  0  0  0  0  0  0  0  0  0
   -2.2700   39.7560  -60.6950 O   0  0  0  0  0  0  0  0  0  0  0  0
   -0.0770   38.4850  -60.9470 N   0  0  0  0  0  0  0  0  0  0  0  0
    1.1590   37.9490  -60.5020 C   0  0  0  0  0  0  0  0  0  0  0  0
    2.3470   38.6160  -60.5680 C   0  0  0  0  0  0  0  0  0  0  0  0
    1.1630   36.6980  -59.9770 C   0  0  0  0  0  0  0  0  0  0  0  0
    3.5900   37.9800  -60.0470 C   0  0  0  0  0  0  0  0  0  0  0  0
    2.3170   36.0630  -59.4700 C   0  0  0  0  0  0  0  0  0  0  0  0
    3.5590   36.6910  -59.4830 C   0  0  0  0  0  0  0  0  0  0  0  0
    4.7480   36.0950  -58.9520 C   0  0  0  0  0  0  0  0  0  0  0  0
    4.7710   34.6210  -58.9390 N   0  0  0  0  0  0  0  0  0  0  0  0
    5.1360   33.9620  -57.7560 C   0  0  0  0  0  0  0  0  0  0  0  0
    4.5530   34.2390  -56.7070 O   0  0  0  0  0  0  0  0  0  0  0  0
    6.2580   32.9280  -57.7290 N   0  0  0  0  0  0  0  0  0  0  0  0
    6.2750   31.7420  -58.6650 C   0  0  0  0  0  0  0  0  0  0  0  0
    6.7820   32.2400  -59.9910 C   0  0  0  0  0  0  0  0  0  0  0  0
    8.2610   32.1730  -60.3410 C   0  0  0  0  0  0  0  0  0  0  0  0
    5.9330   32.8010  -60.9310 C   0  0  0  0  0  0  0  0  0  0  0  0
    8.7380   32.6860  -61.5180 C   0  0  0  0  0  0  0  0  0  0  0  0
    6.4400   33.3150  -62.1280 C   0  0  0  0  0  0  0  0  0  0  0  0
    7.8070   33.3320  -62.5020 C   0  0  0  0  0  0  0  0  0  0  0  0
    8.2210   33.9190  -63.6680 O   0  0  0  0  0  0  0  0  0  0  0  0
    9.5420   33.8500  -64.2050 C   0  0  0  0  0  0  0  0  0  0  0  0
    9.8360   35.2070  -64.9300 C   0  0  0  0  0  0  0  0  0  0  0  0
   11.0950   35.4050  -65.5240 C   0  0  0  0  0  0  0  0  0  0  0  0
    8.8950   36.2580  -65.0080 C   0  0  0  0  0  0  0  0  0  0  0  0
   11.3730   36.6080  -66.1480 C   0  0  0  0  0  0  0  0  0  0  0  0
    9.1750   37.4870  -65.6100 C   0  0  0  0  0  0  0  0  0  0  0  0
   10.3900   37.7100  -66.1950 C   0  0  0  0  0  0  0  0  0  0  0  0
  1  2  1  0
  2  3  2  0
  2  4  2  0
  2  5  1  0
  5  6  1  0
  6  7  2  0
  6  8  1  0
  7  9  1  0
  8 10  2  0
  9 11  2  0
 10 11  1  0
 11 12  1  0
 12 13  1  0
 13 14  1  0
 14 15  2  0
 14 16  1  0
 16 17  1  0
 17 18  1  0
 18 19  2  0
 18 20  1  0
 19 21  1  0
 20 22  2  0
 21 23  2  0
 22 23  1  0
 23 24  1  0
 24 25  1  0
 25 26  1  0
 26 27  2  0
 26 28  1  0
 27 29  1  0
 28 30  2  0
 29 31  2  0
 30 31  1  0
M  END
>  <ref_pdb>  (33) 
x0116

>  <ref_mols>  (33) 
x0116_0B,x0309_0B

>  <fragmensteinOld_score>  (33) 
-1.395568483862228

>  <LE_score>  (33) 
-0.10601740198365862

>  <comRMSD_score>  (33) 
0.80414636922991933

>  <fragmensteinNew_score>  (33) 
0.75305384277637066

>  <meanSuCosW_score>  (33) 
0.55029636904904267

>  <maxSuCosW_score>  (33) 
0.63012459055251813

>  <minSuCosW_score>  (33) 
0.47046814754556721

>  <sumSuCosW_score>  (33) 
1.1005927380980853

>  <SA_score>  (33) 
6.5985470458109754

>  <aLogP_score>  (33) 
3.6365000000000025

>  <hbondD_score>  (33) 
3

>  <hbondA_score>  (33) 
4

>  <polarSurfaceArea_score>  (33) 
96.530000000000015

>  <rotableBonds_score>  (33) 
9

>  <SC_score>  (33) 
3.053613691715233

>  <energyPoseVsEnsemble_score>  (33) 
0.67137685193353225

>  <xcos_score>  (33) 
10.924440692689325

>  <plipMedianPreser_score>  (33) 
0.875

>  <plipGlobalPreser_score>  (33) 
0.8571428571428571

>  <plipGlobalPreserOverMw_score>  (33) 
0.19517932816849368

>  <original_name>  (33) 
x0309-0B-x0116-0B-CS-O-O-Nc1ccc-CNC-O-NCc2ccc-OCc3ccccc3-cc2-cc1

>  <original SMILES>  (33) 
[H]c1c([H])c([H])c(C([H])([H])Oc2c([H])c([H])c(C([H])([H])N([H])C(=O)N([H])C([H])([H])c3c([H])c([H])c(N([H])S(=O)(=O)C([H])([H])[H])c([H])c3[H])c([H])c2[H])c([H])c1[H]

$$$$
348_x0309_0B_-x0116_0B_CS
     RDKit          3D

 30 32  0  0  0  0  0  0  0  0999 V2000
   -0.5300   41.1370  -59.8530 C   0  0  0  0  0  0  0  0  0  0  0  0
   -1.3550   39.6450  -59.8020 S   0  0  0  0  0  0  0  0  0  0  0  0
   -2.5750   39.9280  -60.5160 O   0  0  0  0  0  0  0  0  0  0  0  0
   -1.2880   39.2200  -58.4280 O   0  0  0  0  0  0  0  0  0  0  0  0
   -0.3950   38.5870  -60.7130 N   0  0  0  0  0  0  0  0  0  0  0  0
    0.8090   37.9460  -60.1650 C   0  0  0  0  0  0  0  0  0  0  0  0
    1.8860   37.9410  -61.0090 C   0  0  0  0  0  0  0  0  0  0  0  0
    0.8990   37.3670  -58.9090 C   0  0  0  0  0  0  0  0  0  0  0  0
    3.1680   37.2770  -60.5260 C   0  0  0  0  0  0  0  0  0  0  0  0
    2.0940   36.7510  -58.4670 C   0  0  0  0  0  0  0  0  0  0  0  0
    3.2200   36.7060  -59.2730 C   0  0  0  0  0  0  0  0  0  0  0  0
    4.5730   36.0830  -58.9300 C   0  0  0  0  0  0  0  0  0  0  0  0
    4.7930   34.6970  -58.9350 N   0  0  0  0  0  0  0  0  0  0  0  0
    6.1130   34.0570  -58.7770 C   0  0  0  0  0  0  0  0  0  0  0  0
    7.1620   34.5890  -59.1320 O   0  0  0  0  0  0  0  0  0  0  0  0
    6.0820   32.8010  -58.1840 N   0  0  0  0  0  0  0  0  0  0  0  0
    6.2270   31.4740  -58.8250 C   0  0  0  0  0  0  0  0  0  0  0  0
    6.6230   32.1060  -60.0030 C   0  0  0  0  0  0  0  0  0  0  0  0
    7.8580   31.8300  -60.5870 C   0  0  0  0  0  0  0  0  0  0  0  0
    5.7770   33.0400  -60.6070 C   0  0  0  0  0  0  0  0  0  0  0  0
    8.3060   32.5420  -61.8380 C   0  0  0  0  0  0  0  0  0  0  0  0
    6.1260   33.7440  -61.7640 C   0  0  0  0  0  0  0  0  0  0  0  0
    7.3480   33.5650  -62.4110 C   0  0  0  0  0  0  0  0  0  0  0  0
    7.5960   34.2350  -63.4030 O   0  0  0  0  0  0  0  0  0  0  0  0
    8.9040   34.5130  -63.7420 C   0  0  0  0  0  0  0  0  0  0  0  0
    9.2440   35.1100  -65.0530 C   0  0  0  0  0  0  0  0  0  0  0  0
    9.9390   34.2310  -62.8370 C   0  0  0  0  0  0  0  0  0  0  0  0
   10.5680   35.3910  -65.4040 C   0  0  0  0  0  0  0  0  0  0  0  0
   11.3550   34.5300  -63.2170 C   0  0  0  0  0  0  0  0  0  0  0  0
   11.6770   35.0850  -64.4440 C   0  0  0  0  0  0  0  0  0  0  0  0
  1  2  1  0
  2  3  2  0
  2  4  2  0
  2  5  1  0
  5  6  1  0
  6  7  2  0
  6  8  1  0
  7  9  1  0
  8 10  2  0
  9 11  2  0
 10 11  1  0
 11 12  1  0
 12 13  1  0
 13 14  1  0
 14 15  2  0
 14 16  1  0
 16 17  1  0
 17 18  1  0
 18 19  2  0
 18 20  1  0
 19 21  1  0
 20 22  2  0
 21 23  2  0
 22 23  1  0
 23 24  1  0
 24 25  1  0
 25 26  2  0
 25 27  1  0
 26 28  1  0
 27 29  2  0
 28 30  2  0
 29 30  1  0
M  END
>  <ref_pdb>  (34) 
x0116

>  <ref_mols>  (34) 
x0116_0B,x0309_0B

>  <fragmensteinOld_score>  (34) 
-1.6214129446407628

>  <LE_score>  (34) 
-0.14093750960031121

>  <comRMSD_score>  (34) 
0.80877461872129142

>  <fragmensteinNew_score>  (34) 
0.72739023414246229

>  <meanSuCosW_score>  (34) 
0.55887875483992322

>  <maxSuCosW_score>  (34) 
0.61521659021743913

>  <minSuCosW_score>  (34) 
0.50254091946240742

>  <sumSuCosW_score>  (34) 
1.1177575096798464

>  <SA_score>  (34) 
3.999389803460959

>  <aLogP_score>  (34) 
3.8498000000000019

>  <hbondD_score>  (34) 
3

>  <hbondA_score>  (34) 
4

>  <polarSurfaceArea_score>  (34) 
96.530000000000015

>  <rotableBonds_score>  (34) 
8

>  <SC_score>  (34) 
3.4255677889185661

>  <energyPoseVsEnsemble_score>  (34) 
4.4629660382102081

>  <xcos_score>  (34) 
13.930699184272683

>  <plipMedianPreser_score>  (34) 
0.80000000000000004

>  <plipGlobalPreser_score>  (34) 
0.5714285714285714

>  <plipGlobalPreserOverMw_score>  (34) 
0.13440921229826613

>  <original_name>  (34) 
x0309-0B-x0116-0B-CS-O-O-Nc1ccc-CNC-O-NCc2ccc-Oc3ccccc3-cc2-cc1

>  <original SMILES>  (34) 
[H]c1c([H])c([H])c(Oc2c([H])c([H])c(C([H])([H])N([H])C(=O)N([H])C([H])([H])c3c([H])c([H])c(N([H])S(=O)(=O)C([H])([H])[H])c([H])c3[H])c([H])c2[H])c([H])c1[H]

$$$$
352_x0309_0B_-x0116_0B_CS
     RDKit          3D

 28 30  0  0  0  0  0  0  0  0999 V2000
    0.4410   40.9580  -59.9920 C   0  0  0  0  0  0  0  0  0  0  0  0
   -0.9060   39.8780  -59.6920 S   0  0  0  0  0  0  0  0  0  0  0  0
   -0.9460   39.6610  -58.2720 O   0  0  0  0  0  0  0  0  0  0  0  0
   -2.0790   40.3000  -60.4200 O   0  0  0  0  0  0  0  0  0  0  0  0
   -0.3590   38.4790  -60.4660 N   0  0  0  0  0  0  0  0  0  0  0  0
    0.8960   37.8070  -60.0640 C   0  0  0  0  0  0  0  0  0  0  0  0
    1.8220   37.7210  -61.0560 C   0  0  0  0  0  0  0  0  0  0  0  0
    1.1800   37.2650  -58.8190 C   0  0  0  0  0  0  0  0  0  0  0  0
    3.1310   37.0050  -60.7500 C   0  0  0  0  0  0  0  0  0  0  0  0
    2.3960   36.6000  -58.5240 C   0  0  0  0  0  0  0  0  0  0  0  0
    3.3900   36.4620  -59.5080 C   0  0  0  0  0  0  0  0  0  0  0  0
    4.7610   35.7540  -59.3500 C   0  0  0  0  0  0  0  0  0  0  0  0
    4.9350   34.4610  -59.9110 N   0  0  0  0  0  0  0  0  0  0  0  0
    6.1100   33.5140  -59.9270 C   0  0  0  0  0  0  0  0  0  0  0  0
    7.0110   34.0210  -60.8910 C   0  0  0  0  0  0  0  0  0  0  0  0
    7.2780   33.3100  -62.0620 C   0  0  0  0  0  0  0  0  0  0  0  0
    7.6850   35.2630  -60.7120 C   0  0  0  0  0  0  0  0  0  0  0  0
    8.1090   33.7950  -63.0410 C   0  0  0  0  0  0  0  0  0  0  0  0
    8.5650   35.8130  -61.6970 C   0  0  0  0  0  0  0  0  0  0  0  0
    8.7700   35.1150  -62.9090 C   0  0  0  0  0  0  0  0  0  0  0  0
    9.5720   35.5910  -64.1440 C   0  0  0  0  0  0  0  0  0  0  0  0
    8.6700   35.7190  -65.2590 O   0  0  0  0  0  0  0  0  0  0  0  0
   10.9090   35.9380  -64.1880 N   0  0  0  0  0  0  0  0  0  0  0  0
   11.8070   35.1670  -64.9580 C   0  0  0  0  0  0  0  0  0  0  0  0
   11.4690   37.2270  -63.7370 C   0  0  0  0  0  0  0  0  0  0  0  0
   12.0350   36.0350  -66.1220 C   0  0  0  0  0  0  0  0  0  0  0  0
   12.3410   37.8620  -64.6480 C   0  0  0  0  0  0  0  0  0  0  0  0
   12.7150   37.1920  -65.8080 C   0  0  0  0  0  0  0  0  0  0  0  0
  1  2  1  0
  2  3  2  0
  2  4  2  0
  2  5  1  0
  5  6  1  0
  6  7  2  0
  6  8  1  0
  7  9  1  0
  8 10  2  0
  9 11  2  0
 10 11  1  0
 11 12  1  0
 12 13  1  0
 13 14  1  0
 14 15  1  0
 15 16  2  0
 15 17  1  0
 16 18  1  0
 17 19  2  0
 18 20  2  0
 19 20  1  0
 20 21  1  0
 21 22  2  0
 21 23  1  0
 23 24  1  0
 23 25  1  0
 24 26  1  0
 25 27  1  0
 26 28  1  0
 27 28  1  0
M  END
>  <ref_pdb>  (35) 
x0116

>  <ref_mols>  (35) 
x0116_0B,x0309_0B

>  <fragmensteinOld_score>  (35) 
-2.4729632829162371

>  <LE_score>  (35) 
-0.22317047857389444

>  <comRMSD_score>  (35) 
0.96605958852712992

>  <fragmensteinNew_score>  (35) 
0.42401291906627026

>  <meanSuCosW_score>  (35) 
0.50131648717123545

>  <maxSuCosW_score>  (35) 
0.64476958323713385

>  <minSuCosW_score>  (35) 
0.3578633911053371

>  <sumSuCosW_score>  (35) 
1.0026329743424709

>  <SA_score>  (35) 
7.1440468932849646

>  <aLogP_score>  (35) 
2.9740000000000011

>  <hbondD_score>  (35) 
2

>  <hbondA_score>  (35) 
4

>  <polarSurfaceArea_score>  (35) 
78.510000000000005

>  <rotableBonds_score>  (35) 
7

>  <SC_score>  (35) 
3.7892162490202552

>  <energyPoseVsEnsemble_score>  (35) 
1.8035009651977663

>  <xcos_score>  (35) 
9.568625351209187

>  <plipMedianPreser_score>  (35) 
0.90000000000000002

>  <plipGlobalPreser_score>  (35) 
0.8571428571428571

>  <plipGlobalPreserOverMw_score>  (35) 
0.21365686193041239

>  <original_name>  (35) 
x0309-0B-x0116-0B-CS-O-O-Nc1ccc-CNCc2ccc-C-O-N3CCCCC3-cc2-cc1

>  <original SMILES>  (35) 
[H]c1c([H])c(C([H])([H])N([H])C([H])([H])c2c([H])c([H])c(N([H])S(=O)(=O)C([H])([H])[H])c([H])c2[H])c([H])c([H])c1C(=O)N1C([H])([H])C([H])([H])C([H])([H])C([H])([H])C1([H])[H]

$$$$
353_x0309_0B_-x0116_0B_CS
     RDKit          3D

 31 33  0  0  0  0  0  0  0  0999 V2000
    0.4630   41.0080  -59.9290 C   0  0  0  0  0  0  0  0  0  0  0  0
   -0.8520   39.8760  -59.7080 S   0  0  0  0  0  0  0  0  0  0  0  0
   -0.8660   39.5510  -58.3090 O   0  0  0  0  0  0  0  0  0  0  0  0
   -2.0480   40.3130  -60.3890 O   0  0  0  0  0  0  0  0  0  0  0  0
   -0.2390   38.5780  -60.6000 N   0  0  0  0  0  0  0  0  0  0  0  0
    0.9380   37.8400  -60.1090 C   0  0  0  0  0  0  0  0  0  0  0  0
    1.9630   37.7290  -61.0060 C   0  0  0  0  0  0  0  0  0  0  0  0
    1.0370   37.2740  -58.8600 C   0  0  0  0  0  0  0  0  0  0  0  0
    3.2100   36.9460  -60.5940 C   0  0  0  0  0  0  0  0  0  0  0  0
    2.1800   36.5470  -58.4690 C   0  0  0  0  0  0  0  0  0  0  0  0
    3.2640   36.3700  -59.3280 C   0  0  0  0  0  0  0  0  0  0  0  0
    4.5340   35.5840  -58.9820 C   0  0  0  0  0  0  0  0  0  0  0  0
    4.6450   34.1710  -59.0420 N   0  0  0  0  0  0  0  0  0  0  0  0
    5.8440   33.3080  -58.7410 C   0  0  0  0  0  0  0  0  0  0  0  0
    6.4780   33.2030  -59.9810 C   0  0  0  0  0  0  0  0  0  0  0  0
    7.8610   33.0290  -60.0710 C   0  0  0  0  0  0  0  0  0  0  0  0
    5.7410   33.2940  -61.1470 C   0  0  0  0  0  0  0  0  0  0  0  0
    8.5190   32.9940  -61.2800 C   0  0  0  0  0  0  0  0  0  0  0  0
    6.3470   33.2630  -62.4100 C   0  0  0  0  0  0  0  0  0  0  0  0
    7.7400   33.1420  -62.5490 C   0  0  0  0  0  0  0  0  0  0  0  0
    8.4190   33.1490  -63.5770 O   0  0  0  0  0  0  0  0  0  0  0  0
    9.5030   34.1130  -63.6770 C   0  0  0  0  0  0  0  0  0  0  0  0
    9.2310   35.1580  -64.6110 C   0  0  0  0  0  0  0  0  0  0  0  0
    8.2520   35.1760  -65.5540 O   0  0  0  0  0  0  0  0  0  0  0  0
   10.1040   36.2190  -64.4700 N   0  0  0  0  0  0  0  0  0  0  0  0
   11.4670   36.3140  -64.9580 C   0  0  0  0  0  0  0  0  0  0  0  0
   11.8850   37.4530  -65.6220 C   0  0  0  0  0  0  0  0  0  0  0  0
   12.3690   35.2580  -64.7600 C   0  0  0  0  0  0  0  0  0  0  0  0
   13.2570   37.6390  -66.1460 C   0  0  0  0  0  0  0  0  0  0  0  0
   13.6790   35.3740  -65.2350 C   0  0  0  0  0  0  0  0  0  0  0  0
   14.1640   36.6020  -65.9580 C   0  0  0  0  0  0  0  0  0  0  0  0
  1  2  1  0
  2  3  2  0
  2  4  2  0
  2  5  1  0
  5  6  1  0
  6  7  2  0
  6  8  1  0
  7  9  1  0
  8 10  2  0
  9 11  2  0
 10 11  1  0
 11 12  1  0
 12 13  1  0
 13 14  1  0
 14 15  1  0
 15 16  2  0
 15 17  1  0
 16 18  1  0
 17 19  2  0
 18 20  2  0
 19 20  1  0
 20 21  1  0
 21 22  1  0
 22 23  1  0
 23 24  2  0
 23 25  1  0
 25 26  1  0
 26 27  2  0
 26 28  1  0
 27 29  1  0
 28 30  2  0
 29 31  2  0
 30 31  1  0
M  END
>  <ref_pdb>  (36) 
x0116

>  <ref_mols>  (36) 
x0116_0B,x0309_0B

>  <fragmensteinOld_score>  (36) 
-2.4950808073540554

>  <LE_score>  (36) 
-0.22116965864781793

>  <comRMSD_score>  (36) 
0.92040500799197911

>  <fragmensteinNew_score>  (36) 
0.48820253583730533

>  <meanSuCosW_score>  (36) 
0.58202755289028008

>  <maxSuCosW_score>  (36) 
0.61110195481016216

>  <minSuCosW_score>  (36) 
0.55295315097039788

>  <sumSuCosW_score>  (36) 
1.1640551057805602

>  <SA_score>  (36) 
6.6997845185766831

>  <aLogP_score>  (36) 
3.3654000000000019

>  <hbondD_score>  (36) 
3

>  <hbondA_score>  (36) 
5

>  <polarSurfaceArea_score>  (36) 
96.530000000000001

>  <rotableBonds_score>  (36) 
10

>  <SC_score>  (36) 
3.6809660128627635

>  <energyPoseVsEnsemble_score>  (36) 
1.3403142228672031

>  <xcos_score>  (36) 
9.1115698328093462

>  <plipMedianPreser_score>  (36) 
0.90000000000000002

>  <plipGlobalPreser_score>  (36) 
0.8571428571428571

>  <plipGlobalPreserOverMw_score>  (36) 
0.19517932816849368

>  <original_name>  (36) 
x0309-0B-x0116-0B-CS-O-O-Nc1ccc-CNCc2ccc-OCC-O-Nc3ccccc3-cc2-cc1

>  <original SMILES>  (36) 
[H]c1c([H])c([H])c(N([H])C(=O)C([H])([H])Oc2c([H])c([H])c(C([H])([H])N([H])C([H])([H])c3c([H])c([H])c(N([H])S(=O)(=O)C([H])([H])[H])c([H])c3[H])c([H])c2[H])c([H])c1[H]

$$$$
355_x0309_0B_-x0116_0B_CS
     RDKit          3D

 27 28  0  0  0  0  0  0  0  0999 V2000
   -0.3060   41.0160  -59.9140 C   0  0  0  0  0  0  0  0  0  0  0  0
   -1.0540   39.4950  -59.9430 S   0  0  0  0  0  0  0  0  0  0  0  0
   -2.3090   39.8040  -60.6020 O   0  0  0  0  0  0  0  0  0  0  0  0
   -0.9560   39.0190  -58.5840 O   0  0  0  0  0  0  0  0  0  0  0  0
   -0.0520   38.5350  -60.9380 N   0  0  0  0  0  0  0  0  0  0  0  0
    1.1450   37.9490  -60.5210 C   0  0  0  0  0  0  0  0  0  0  0  0
    2.4390   38.5840  -60.6310 C   0  0  0  0  0  0  0  0  0  0  0  0
    1.0850   36.7110  -59.9930 C   0  0  0  0  0  0  0  0  0  0  0  0
    3.5960   37.9220  -60.1870 C   0  0  0  0  0  0  0  0  0  0  0  0
    2.2420   36.0460  -59.5440 C   0  0  0  0  0  0  0  0  0  0  0  0
    3.5130   36.6290  -59.6300 C   0  0  0  0  0  0  0  0  0  0  0  0
    4.6800   35.9370  -59.1730 C   0  0  0  0  0  0  0  0  0  0  0  0
    4.5470   34.5760  -58.6680 N   0  0  0  0  0  0  0  0  0  0  0  0
    5.9570   33.6560  -58.2250 S   0  0  0  0  0  0  0  0  0  0  0  0
    6.8260   34.5620  -57.5030 O   0  0  0  0  0  0  0  0  0  0  0  0
    5.6180   32.3790  -57.6450 O   0  0  0  0  0  0  0  0  0  0  0  0
    6.6380   33.4110  -59.8520 C   0  0  0  0  0  0  0  0  0  0  0  0
    8.0390   32.7360  -59.8910 C   0  0  0  0  0  0  0  0  0  0  0  0
    5.8980   33.8590  -60.9050 C   0  0  0  0  0  0  0  0  0  0  0  0
    8.4050   32.7460  -61.2480 C   0  0  0  0  0  0  0  0  0  0  0  0
    6.4090   33.7720  -62.1480 C   0  0  0  0  0  0  0  0  0  0  0  0
    7.6620   33.2410  -62.3210 C   0  0  0  0  0  0  0  0  0  0  0  0
    8.3210   33.1540  -63.5210 O   0  0  0  0  0  0  0  0  0  0  0  0
    9.4150   34.0390  -63.6130 C   0  0  0  0  0  0  0  0  0  0  0  0
    9.3620   35.1480  -64.6320 C   0  0  0  0  0  0  0  0  0  0  0  0
    8.3980   35.5480  -65.2770 O   0  0  0  0  0  0  0  0  0  0  0  0
   10.5520   35.7590  -64.8050 O   0  0  0  0  0  0  0  0  0  0  0  0
  1  2  1  0
  2  3  2  0
  2  4  2  0
  2  5  1  0
  5  6  1  0
  6  7  2  0
  6  8  1  0
  7  9  1  0
  8 10  2  0
  9 11  2  0
 10 11  1  0
 11 12  1  0
 12 13  1  0
 14 13  1  0
 14 15  2  0
 14 16  2  0
 14 17  1  0
 17 18  2  0
 17 19  1  0
 18 20  1  0
 19 21  2  0
 20 22  2  0
 21 22  1  0
 22 23  1  0
 23 24  1  0
 24 25  1  0
 25 26  2  0
 25 27  1  0
M  END
>  <ref_pdb>  (37) 
x0116

>  <ref_mols>  (37) 
x0116_0B,x0309_0B

>  <fragmensteinOld_score>  (37) 
-1.53952946969244

>  <LE_score>  (37) 
-0.089124997347383925

>  <comRMSD_score>  (37) 
0.85957051545291019

>  <fragmensteinNew_score>  (37) 
0.39924680278920566

>  <meanSuCosW_score>  (37) 
0.53313498526015146

>  <maxSuCosW_score>  (37) 
0.61856288795434966

>  <minSuCosW_score>  (37) 
0.44770708256595326

>  <sumSuCosW_score>  (37) 
1.0662699705203029

>  <SA_score>  (37) 
7.626370115519995

>  <aLogP_score>  (37) 
0.99999999999999978

>  <hbondD_score>  (37) 
3

>  <hbondA_score>  (37) 
7

>  <polarSurfaceArea_score>  (37) 
138.87

>  <rotableBonds_score>  (37) 
9

>  <SC_score>  (37) 
3.8417356195167609

>  <energyPoseVsEnsemble_score>  (37) 
1.1342688626338069

>  <xcos_score>  (37) 
10.767078720714826

>  <plipMedianPreser_score>  (37) 
0.77500000000000002

>  <plipGlobalPreser_score>  (37) 
0.8571428571428571

>  <plipGlobalPreserOverMw_score>  (37) 
0.20701156446461239

>  <original_name>  (37) 
x0309-0B-x0116-0B-CS-O-O-Nc1ccc-CNS-O-O-c2ccc-OCC-O-O-cc2-cc1

>  <original SMILES>  (37) 
[H]OC(=O)C([H])([H])Oc1c([H])c([H])c(S(=O)(=O)N([H])C([H])([H])c2c([H])c([H])c(N([H])S(=O)(=O)C([H])([H])[H])c([H])c2[H])c([H])c1[H]

$$$$
358_x0309_0B_-x0116_0B_CS
     RDKit          3D

 28 30  0  0  0  0  0  0  0  0999 V2000
   -0.4390   41.1070  -60.3490 C   0  0  0  0  0  0  0  0  0  0  0  0
   -1.1210   39.6090  -59.9780 S   0  0  0  0  0  0  0  0  0  0  0  0
   -2.4390   39.8200  -60.5380 O   0  0  0  0  0  0  0  0  0  0  0  0
   -0.8800   39.3740  -58.5740 O   0  0  0  0  0  0  0  0  0  0  0  0
   -0.2080   38.5050  -60.8940 N   0  0  0  0  0  0  0  0  0  0  0  0
    1.0550   37.9830  -60.5880 C   0  0  0  0  0  0  0  0  0  0  0  0
    2.3370   38.6390  -60.7890 C   0  0  0  0  0  0  0  0  0  0  0  0
    1.0870   36.7500  -60.0810 C   0  0  0  0  0  0  0  0  0  0  0  0
    3.5520   37.9790  -60.4590 C   0  0  0  0  0  0  0  0  0  0  0  0
    2.2720   36.1020  -59.7550 C   0  0  0  0  0  0  0  0  0  0  0  0
    3.5320   36.6660  -59.9370 C   0  0  0  0  0  0  0  0  0  0  0  0
    4.7430   35.9380  -59.6240 N   0  0  0  0  0  0  0  0  0  0  0  0
    4.7400   34.5700  -59.3260 C   0  0  0  0  0  0  0  0  0  0  0  0
    6.1290   36.4510  -59.7640 C   0  0  0  0  0  0  0  0  0  0  0  0
    5.5470   33.7120  -60.3540 C   0  0  0  0  0  0  0  0  0  0  0  0
    7.0950   35.5050  -60.2330 C   0  0  0  0  0  0  0  0  0  0  0  0
    6.5600   34.4530  -61.0670 N   0  0  0  0  0  0  0  0  0  0  0  0
    7.4890   33.7970  -61.9100 C   0  0  0  0  0  0  0  0  0  0  0  0
    7.9490   32.6880  -61.6370 O   0  0  0  0  0  0  0  0  0  0  0  0
    7.8720   34.4960  -63.1510 N   0  0  0  0  0  0  0  0  0  0  0  0
    9.1510   34.4110  -63.7230 C   0  0  0  0  0  0  0  0  0  0  0  0
    9.2500   35.3340  -64.8080 C   0  0  0  0  0  0  0  0  0  0  0  0
    8.3340   35.5820  -65.5710 O   0  0  0  0  0  0  0  0  0  0  0  0
   10.4540   36.0140  -64.9760 N   0  0  0  0  0  0  0  0  0  0  0  0
   11.7950   35.4280  -64.9350 C   0  0  0  0  0  0  0  0  0  0  0  0
   10.4860   37.2530  -65.7780 C   0  0  0  0  0  0  0  0  0  0  0  0
   12.6370   36.6140  -65.3200 C   0  0  0  0  0  0  0  0  0  0  0  0
   11.7710   37.7440  -65.6880 C   0  0  0  0  0  0  0  0  0  0  0  0
  1  2  1  0
  2  3  2  0
  2  4  2  0
  2  5  1  0
  5  6  1  0
  6  7  2  0
  6  8  1  0
  7  9  1  0
  8 10  2  0
  9 11  2  0
 10 11  1  0
 11 12  1  0
 12 13  1  0
 12 14  1  0
 13 15  1  0
 14 16  1  0
 15 17  1  0
 16 17  1  0
 17 18  1  0
 18 19  2  0
 18 20  1  0
 20 21  1  0
 21 22  1  0
 22 23  2  0
 22 24  1  0
 24 25  1  0
 24 26  1  0
 25 27  1  0
 26 28  1  0
 27 28  1  0
M  END
>  <ref_pdb>  (38) 
x0116

>  <ref_mols>  (38) 
x0116_0B,x0309_0B

>  <fragmensteinOld_score>  (38) 
-2.8882227323635421

>  <LE_score>  (38) 
-0.20066859778073692

>  <comRMSD_score>  (38) 
0.57565513476473218

>  <fragmensteinNew_score>  (38) 
-0.51286553623679632

>  <meanSuCosW_score>  (38) 
0.51460850300182881

>  <maxSuCosW_score>  (38) 
0.56586161799998846

>  <minSuCosW_score>  (38) 
0.46335538800366904

>  <sumSuCosW_score>  (38) 
1.0292170060036576

>  <SA_score>  (38) 
7.1578982715588708

>  <aLogP_score>  (38) 
0.51210000000000044

>  <hbondD_score>  (38) 
2

>  <hbondA_score>  (38) 
5

>  <polarSurfaceArea_score>  (38) 
102.05999999999999

>  <rotableBonds_score>  (38) 
5

>  <SC_score>  (38) 
4.128367318792959

>  <energyPoseVsEnsemble_score>  (38) 
0.71917513032591829

>  <xcos_score>  (38) 
18.001329566403566

>  <plipMedianPreser_score>  (38) 
0.90000000000000002

>  <plipGlobalPreser_score>  (38) 
0.8571428571428571

>  <plipGlobalPreserOverMw_score>  (38) 
0.20947902156907672

>  <original_name>  (38) 
x0309-0B-x0116-0B-CS-O-O-Nc1ccc-N2CCN-C-O-NCC-O-N3CCCC3-CC2-cc1

>  <original SMILES>  (38) 
[H]c1c([H])c(N([H])S(=O)(=O)C([H])([H])[H])c([H])c([H])c1N1C([H])([H])C([H])([H])N(C(=O)N([H])C([H])([H])C(=O)N2C([H])([H])C([H])([H])C([H])([H])C2([H])[H])C([H])([H])C1([H])[H]

$$$$
361_x0309_0B_-x0116_0B_CS
     RDKit          3D

 30 32  0  0  0  0  0  0  0  0999 V2000
    0.5010   40.9980  -59.9560 C   0  0  0  0  0  0  0  0  0  0  0  0
   -0.8470   39.9180  -59.6920 S   0  0  0  0  0  0  0  0  0  0  0  0
   -2.0410   40.4320  -60.3200 O   0  0  0  0  0  0  0  0  0  0  0  0
   -0.8290   39.5950  -58.2900 O   0  0  0  0  0  0  0  0  0  0  0  0
   -0.2810   38.5760  -60.5080 N   0  0  0  0  0  0  0  0  0  0  0  0
    0.9160   37.8890  -60.1730 C   0  0  0  0  0  0  0  0  0  0  0  0
    1.9400   37.8150  -61.0530 C   0  0  0  0  0  0  0  0  0  0  0  0
    1.0560   37.2620  -58.9490 C   0  0  0  0  0  0  0  0  0  0  0  0
    3.1580   37.0530  -60.6930 C   0  0  0  0  0  0  0  0  0  0  0  0
    2.2190   36.5300  -58.6030 C   0  0  0  0  0  0  0  0  0  0  0  0
    3.2910   36.4040  -59.4750 C   0  0  0  0  0  0  0  0  0  0  0  0
    4.4430   35.6290  -59.0990 N   0  0  0  0  0  0  0  0  0  0  0  0
    4.5870   34.7810  -57.9850 C   0  0  0  0  0  0  0  0  0  0  0  0
    3.8440   34.6400  -57.0100 O   0  0  0  0  0  0  0  0  0  0  0  0
    5.7630   33.9720  -57.8350 C   0  0  0  0  0  0  0  0  0  0  0  0
    6.6500   34.4710  -57.1520 O   0  0  0  0  0  0  0  0  0  0  0  0
    5.8020   32.6110  -58.4720 N   0  0  0  0  0  0  0  0  0  0  0  0
    6.4200   32.7480  -59.7860 C   0  0  0  0  0  0  0  0  0  0  0  0
    7.9140   32.4810  -59.8900 C   0  0  0  0  0  0  0  0  0  0  0  0
    5.7170   33.1230  -60.8940 C   0  0  0  0  0  0  0  0  0  0  0  0
    8.5470   32.6930  -61.2530 C   0  0  0  0  0  0  0  0  0  0  0  0
    6.3430   33.2960  -62.1130 C   0  0  0  0  0  0  0  0  0  0  0  0
    7.7220   33.1050  -62.2880 C   0  0  0  0  0  0  0  0  0  0  0  0
    8.1640   33.3620  -63.5380 O   0  0  0  0  0  0  0  0  0  0  0  0
    9.3670   33.9230  -63.8960 C   0  0  0  0  0  0  0  0  0  0  0  0
    9.4560   35.2180  -64.7190 C   0  0  0  0  0  0  0  0  0  0  0  0
   10.5240   33.2460  -63.4940 C   0  0  0  0  0  0  0  0  0  0  0  0
   10.8440   35.7510  -65.1070 C   0  0  0  0  0  0  0  0  0  0  0  0
   11.9100   33.7920  -63.8820 C   0  0  0  0  0  0  0  0  0  0  0  0
   11.9990   35.0830  -64.7160 C   0  0  0  0  0  0  0  0  0  0  0  0
  1  2  1  0
  2  3  2  0
  2  4  2  0
  2  5  1  0
  5  6  1  0
  6  7  2  0
  6  8  1  0
  7  9  1  0
  8 10  2  0
  9 11  2  0
 10 11  1  0
 11 12  1  0
 12 13  1  0
 13 14  2  0
 13 15  1  0
 15 16  2  0
 15 17  1  0
 17 18  1  0
 18 19  2  0
 18 20  1  0
 19 21  1  0
 20 22  2  0
 21 23  2  0
 22 23  1  0
 23 24  1  0
 24 25  1  0
 25 26  2  0
 25 27  1  0
 26 28  1  0
 27 29  2  0
 28 30  2  0
 29 30  1  0
M  END
>  <ref_pdb>  (39) 
x0116

>  <ref_mols>  (39) 
x0116_0B,x0309_0B

>  <fragmensteinOld_score>  (39) 
-1.8897664106220995

>  <LE_score>  (39) 
-0.25009956499385039

>  <comRMSD_score>  (39) 
0.96089071833731299

>  <fragmensteinNew_score>  (39) 
1.1531854346564221

>  <meanSuCosW_score>  (39) 
0.46118586348810181

>  <maxSuCosW_score>  (39) 
0.53344722493479901

>  <minSuCosW_score>  (39) 
0.38892450204140461

>  <sumSuCosW_score>  (39) 
0.92237172697620362

>  <SA_score>  (39) 
7.5468971026261507

>  <aLogP_score>  (39) 
3.4276000000000018

>  <hbondD_score>  (39) 
3

>  <hbondA_score>  (39) 
5

>  <polarSurfaceArea_score>  (39) 
113.60000000000001

>  <rotableBonds_score>  (39) 
6

>  <SC_score>  (39) 
2.9194692309252934

>  <energyPoseVsEnsemble_score>  (39) 
0.8499772871143203

>  <xcos_score>  (39) 
9.151350713960797

>  <plipMedianPreser_score>  (39) 
0.77500000000000002

>  <plipGlobalPreser_score>  (39) 
0.7142857142857143

>  <plipGlobalPreserOverMw_score>  (39) 
0.16802589579867369

>  <original_name>  (39) 
x0309-0B-x0116-0B-CS-O-O-Nc1ccc-NC-O-C-O-Nc2ccc-Oc3ccccc3-cc2-cc1

>  <original SMILES>  (39) 
[H]c1c([H])c([H])c(Oc2c([H])c([H])c(N([H])C(=O)C(=O)N([H])c3c([H])c([H])c(N([H])S(=O)(=O)C([H])([H])[H])c([H])c3[H])c([H])c2[H])c([H])c1[H]

$$$$
365_x0309_0B_-x0116_0B_CS
     RDKit          3D

 28 30  0  0  0  0  0  0  0  0999 V2000
   -0.3750   41.0110  -59.9170 C   0  0  0  0  0  0  0  0  0  0  0  0
   -1.2290   39.5580  -59.8230 S   0  0  0  0  0  0  0  0  0  0  0  0
   -1.1700   39.1840  -58.4270 O   0  0  0  0  0  0  0  0  0  0  0  0
   -2.4580   39.8760  -60.5150 O   0  0  0  0  0  0  0  0  0  0  0  0
   -0.3780   38.4890  -60.8280 N   0  0  0  0  0  0  0  0  0  0  0  0
    0.9120   38.0350  -60.5900 C   0  0  0  0  0  0  0  0  0  0  0  0
    2.1230   38.7880  -60.8450 C   0  0  0  0  0  0  0  0  0  0  0  0
    1.0520   36.7950  -60.1000 C   0  0  0  0  0  0  0  0  0  0  0  0
    3.3830   38.2130  -60.5740 C   0  0  0  0  0  0  0  0  0  0  0  0
    2.2860   36.2140  -59.8220 C   0  0  0  0  0  0  0  0  0  0  0  0
    3.4770   36.9040  -60.0610 C   0  0  0  0  0  0  0  0  0  0  0  0
    4.7490   36.2990  -59.8040 N   0  0  0  0  0  0  0  0  0  0  0  0
    5.1120   34.9390  -59.9190 C   0  0  0  0  0  0  0  0  0  0  0  0
    4.5560   34.0800  -59.2830 O   0  0  0  0  0  0  0  0  0  0  0  0
    6.1880   34.5840  -60.7950 N   0  0  0  0  0  0  0  0  0  0  0  0
    6.0530   33.5280  -61.8500 C   0  0  0  0  0  0  0  0  0  0  0  0
    7.5230   35.1210  -60.5460 C   0  0  0  0  0  0  0  0  0  0  0  0
    7.3950   32.8360  -62.3090 C   0  0  0  0  0  0  0  0  0  0  0  0
    8.5100   34.5600  -61.3550 C   0  0  0  0  0  0  0  0  0  0  0  0
    7.9740   34.0440  -62.6900 C   0  0  0  0  0  0  0  0  0  0  0  0
    9.0970   34.0170  -63.5730 C   0  0  0  0  0  0  0  0  0  0  0  0
    9.4350   35.2340  -64.4460 C   0  0  0  0  0  0  0  0  0  0  0  0
    8.4110   35.8230  -65.2070 O   0  0  0  0  0  0  0  0  0  0  0  0
   10.7880   35.6870  -64.4300 N   0  0  0  0  0  0  0  0  0  0  0  0
   11.1690   36.9470  -65.0440 C   0  0  0  0  0  0  0  0  0  0  0  0
   11.9740   34.8180  -64.6910 C   0  0  0  0  0  0  0  0  0  0  0  0
   12.6210   36.9680  -65.1080 C   0  0  0  0  0  0  0  0  0  0  0  0
   13.0370   35.6540  -65.1000 C   0  0  0  0  0  0  0  0  0  0  0  0
  1  2  1  0
  2  3  2  0
  2  4  2  0
  2  5  1  0
  5  6  1  0
  6  7  2  0
  6  8  1  0
  7  9  1  0
  8 10  2  0
  9 11  2  0
 10 11  1  0
 11 12  1  0
 12 13  1  0
 13 14  2  0
 13 15  1  0
 15 16  1  0
 15 17  1  0
 16 18  1  0
 17 19  1  0
 18 20  1  0
 19 20  1  0
 20 21  1  0
 21 22  1  0
 22 23  2  0
 22 24  1  0
 24 25  1  0
 24 26  1  0
 25 27  1  0
 26 28  1  0
 27 28  1  0
M  END
>  <ref_pdb>  (40) 
x0116

>  <ref_mols>  (40) 
x0116_0B,x0309_0B

>  <fragmensteinOld_score>  (40) 
-2.3134539477855602

>  <LE_score>  (40) 
-0.19246457070488904

>  <comRMSD_score>  (40) 
0.94133347644377441

>  <fragmensteinNew_score>  (40) 
0.40526660276856452

>  <meanSuCosW_score>  (40) 
0.46619190411165456

>  <maxSuCosW_score>  (40) 
0.56392812262680292

>  <minSuCosW_score>  (40) 
0.36845568559650627

>  <sumSuCosW_score>  (40) 
0.93238380822330913

>  <SA_score>  (40) 
7.247371738889969

>  <aLogP_score>  (40) 
2.3144999999999998

>  <hbondD_score>  (40) 
2

>  <hbondA_score>  (40) 
4

>  <polarSurfaceArea_score>  (40) 
98.820000000000007

>  <rotableBonds_score>  (40) 
5

>  <SC_score>  (40) 
4.2646991172103874

>  <energyPoseVsEnsemble_score>  (40) 
1.4294513888867226

>  <xcos_score>  (40) 
13.361473019085039

>  <plipMedianPreser_score>  (40) 
0.67500000000000004

>  <plipGlobalPreser_score>  (40) 
0.7142857142857143

>  <plipGlobalPreserOverMw_score>  (40) 
0.17499148498062728

>  <original_name>  (40) 
x0309-0B-x0116-0B-CS-O-O-Nc1ccc-NC-O-N2CCC-CC-O-N3CCCC3-CC2-cc1

>  <original SMILES>  (40) 
[H]c1c([H])c(N([H])S(=O)(=O)C([H])([H])[H])c([H])c([H])c1N([H])C(=O)N1C([H])([H])C([H])([H])C([H])(C([H])([H])C(=O)N2C([H])([H])C([H])([H])C([H])([H])C2([H])[H])C([H])([H])C1([H])[H]

$$$$
370_x0309_0B_-x0116_0B_CS
     RDKit          3D

 29 31  0  0  0  0  0  0  0  0999 V2000
   -0.4640   41.1310  -60.3270 C   0  0  0  0  0  0  0  0  0  0  0  0
   -1.2420   39.6790  -59.9530 S   0  0  0  0  0  0  0  0  0  0  0  0
   -2.5460   39.9080  -60.5220 O   0  0  0  0  0  0  0  0  0  0  0  0
   -1.0040   39.4510  -58.5460 O   0  0  0  0  0  0  0  0  0  0  0  0
   -0.3690   38.5540  -60.8320 N   0  0  0  0  0  0  0  0  0  0  0  0
    0.9290   38.0730  -60.5680 C   0  0  0  0  0  0  0  0  0  0  0  0
    1.0160   36.8930  -59.9540 C   0  0  0  0  0  0  0  0  0  0  0  0
    2.0820   38.7350  -60.9170 C   0  0  0  0  0  0  0  0  0  0  0  0
    2.3110   36.2630  -59.6380 C   0  0  0  0  0  0  0  0  0  0  0  0
    3.3320   38.1550  -60.6260 C   0  0  0  0  0  0  0  0  0  0  0  0
    3.4800   36.9050  -59.9920 C   0  0  0  0  0  0  0  0  0  0  0  0
    4.7680   36.3630  -59.7570 N   0  0  0  0  0  0  0  0  0  0  0  0
    5.1030   35.0020  -59.7840 C   0  0  0  0  0  0  0  0  0  0  0  0
    4.5850   34.1870  -59.0600 O   0  0  0  0  0  0  0  0  0  0  0  0
    6.1150   34.6040  -60.6980 N   0  0  0  0  0  0  0  0  0  0  0  0
    7.4920   34.7090  -60.1920 C   0  0  0  0  0  0  0  0  0  0  0  0
    5.9960   33.5020  -61.6760 C   0  0  0  0  0  0  0  0  0  0  0  0
    8.4830   35.0270  -61.2960 C   0  0  0  0  0  0  0  0  0  0  0  0
    7.4240   33.2250  -62.2290 C   0  0  0  0  0  0  0  0  0  0  0  0
    8.0900   34.4870  -62.6270 N   0  0  0  0  0  0  0  0  0  0  0  0
    9.2270   34.3170  -63.5960 C   0  0  0  0  0  0  0  0  0  0  0  0
   10.1800   33.2810  -63.4140 O   0  0  0  0  0  0  0  0  0  0  0  0
    9.2320   35.3560  -64.7730 C   0  0  0  0  0  0  0  0  0  0  0  0
    8.2480   35.5580  -65.4600 O   0  0  0  0  0  0  0  0  0  0  0  0
   10.3890   36.0990  -65.0250 N   0  0  0  0  0  0  0  0  0  0  0  0
   10.4720   37.3110  -65.8310 C   0  0  0  0  0  0  0  0  0  0  0  0
   11.7050   35.4870  -64.9920 C   0  0  0  0  0  0  0  0  0  0  0  0
   11.8770   37.7980  -65.5630 C   0  0  0  0  0  0  0  0  0  0  0  0
   12.6640   36.4950  -65.6420 C   0  0  0  0  0  0  0  0  0  0  0  0
  1  2  1  0
  2  3  2  0
  2  4  2  0
  2  5  1  0
  5  6  1  0
  6  7  2  0
  6  8  1  0
  7  9  1  0
  8 10  2  0
  9 11  2  0
 10 11  1  0
 11 12  1  0
 12 13  1  0
 13 14  2  0
 13 15  1  0
 15 16  1  0
 15 17  1  0
 16 18  1  0
 17 19  1  0
 18 20  1  0
 19 20  1  0
 20 21  1  0
 21 22  2  0
 21 23  1  0
 23 24  2  0
 23 25  1  0
 25 26  1  0
 25 27  1  0
 26 28  1  0
 27 29  1  0
 28 29  1  0
M  END
>  <ref_pdb>  (41) 
x0116

>  <ref_mols>  (41) 
x0116_0B,x0309_0B

>  <fragmensteinOld_score>  (41) 
-2.6303204106286819

>  <LE_score>  (41) 
-0.23964886259567417

>  <comRMSD_score>  (41) 
0.60757276494536305

>  <fragmensteinNew_score>  (41) 
-0.09855532528485722

>  <meanSuCosW_score>  (41) 
0.52145437075199275

>  <maxSuCosW_score>  (41) 
0.58423160722279976

>  <minSuCosW_score>  (41) 
0.45867713428118573

>  <sumSuCosW_score>  (41) 
1.0429087415039855

>  <SA_score>  (41) 
5.5814293618558608

>  <aLogP_score>  (41) 
0.35660000000000069

>  <hbondD_score>  (41) 
2

>  <hbondA_score>  (41) 
5

>  <polarSurfaceArea_score>  (41) 
119.12999999999998

>  <rotableBonds_score>  (41) 
3

>  <SC_score>  (41) 
3.5179511664384897

>  <energyPoseVsEnsemble_score>  (41) 
0.84183968145565147

>  <xcos_score>  (41) 
19.534019509395112

>  <plipMedianPreser_score>  (41) 
0.90000000000000002

>  <plipGlobalPreser_score>  (41) 
0.8571428571428571

>  <plipGlobalPreserOverMw_score>  (41) 
0.20255875738068072

>  <original_name>  (41) 
x0309-0B-x0116-0B-CS-O-O-Nc1ccc-NC-O-N2CCN-C-O-C-O-N3CCCC3-CC2-cc1

>  <original SMILES>  (41) 
[H]c1c([H])c(N([H])S(=O)(=O)C([H])([H])[H])c([H])c([H])c1N([H])C(=O)N1C([H])([H])C([H])([H])N(C(=O)C(=O)N2C([H])([H])C([H])([H])C([H])([H])C2([H])[H])C([H])([H])C1([H])[H]

$$$$
375_x0309_0B_-x0116_0B_CS
     RDKit          3D

 28 30  0  0  0  0  0  0  0  0999 V2000
    0.4530   40.9550  -59.9780 C   0  0  0  0  0  0  0  0  0  0  0  0
   -0.9480   39.9500  -59.6450 S   0  0  0  0  0  0  0  0  0  0  0  0
   -1.0080   39.7630  -58.2180 O   0  0  0  0  0  0  0  0  0  0  0  0
   -2.0900   40.4360  -60.3820 O   0  0  0  0  0  0  0  0  0  0  0  0
   -0.4670   38.5440  -60.4020 N   0  0  0  0  0  0  0  0  0  0  0  0
    0.7800   37.9580  -60.1650 C   0  0  0  0  0  0  0  0  0  0  0  0
    1.6740   37.9150  -61.1520 C   0  0  0  0  0  0  0  0  0  0  0  0
    1.1080   37.4070  -58.9240 C   0  0  0  0  0  0  0  0  0  0  0  0
    2.9660   37.3030  -60.9060 C   0  0  0  0  0  0  0  0  0  0  0  0
    2.3740   36.8160  -58.6920 C   0  0  0  0  0  0  0  0  0  0  0  0
    3.3390   36.7630  -59.7050 C   0  0  0  0  0  0  0  0  0  0  0  0
    4.6270   36.1940  -59.4840 N   0  0  0  0  0  0  0  0  0  0  0  0
    5.1080   34.8970  -59.6330 C   0  0  0  0  0  0  0  0  0  0  0  0
    4.7780   33.9920  -58.9180 O   0  0  0  0  0  0  0  0  0  0  0  0
    6.0850   34.6960  -60.6350 N   0  0  0  0  0  0  0  0  0  0  0  0
    6.0020   33.4580  -61.4480 C   0  0  0  0  0  0  0  0  0  0  0  0
    7.4550   35.1950  -60.3390 C   0  0  0  0  0  0  0  0  0  0  0  0
    7.2110   33.1770  -62.3290 C   0  0  0  0  0  0  0  0  0  0  0  0
    8.5440   34.6860  -61.3080 C   0  0  0  0  0  0  0  0  0  0  0  0
    8.0310   34.3670  -62.6390 N   0  0  0  0  0  0  0  0  0  0  0  0
    9.1440   34.1850  -63.6260 C   0  0  0  0  0  0  0  0  0  0  0  0
    9.2760   35.3590  -64.6490 C   0  0  0  0  0  0  0  0  0  0  0  0
    8.2990   35.8690  -65.2060 O   0  0  0  0  0  0  0  0  0  0  0  0
   10.5370   35.8700  -64.9550 N   0  0  0  0  0  0  0  0  0  0  0  0
   11.0660   36.3430  -66.2100 C   0  0  0  0  0  0  0  0  0  0  0  0
   11.6670   35.7850  -64.0510 C   0  0  0  0  0  0  0  0  0  0  0  0
   12.0310   37.4220  -65.7660 C   0  0  0  0  0  0  0  0  0  0  0  0
   12.7700   36.6240  -64.7140 C   0  0  0  0  0  0  0  0  0  0  0  0
  1  2  1  0
  2  3  2  0
  2  4  2  0
  2  5  1  0
  5  6  1  0
  6  7  2  0
  6  8  1  0
  7  9  1  0
  8 10  2  0
  9 11  2  0
 10 11  1  0
 11 12  1  0
 12 13  1  0
 13 14  2  0
 13 15  1  0
 15 16  1  0
 15 17  1  0
 16 18  1  0
 17 19  1  0
 18 20  1  0
 19 20  1  0
 20 21  1  0
 21 22  1  0
 22 23  2  0
 22 24  1  0
 24 25  1  0
 24 26  1  0
 25 27  1  0
 26 28  1  0
 27 28  1  0
M  END
>  <ref_pdb>  (42) 
x0116

>  <ref_mols>  (42) 
x0116_0B,x0309_0B

>  <fragmensteinOld_score>  (42) 
-2.807219773124551

>  <LE_score>  (42) 
-0.27540922245089711

>  <comRMSD_score>  (42) 
0.94523556158083188

>  <fragmensteinNew_score>  (42) 
0.33012612129667152

>  <meanSuCosW_score>  (42) 
0.47210729098662119

>  <maxSuCosW_score>  (42) 
0.5396257727277477

>  <minSuCosW_score>  (42) 
0.40458880924549462

>  <sumSuCosW_score>  (42) 
0.94421458197324237

>  <SA_score>  (42) 
7.1151803493091288

>  <aLogP_score>  (42) 
0.83000000000000052

>  <hbondD_score>  (42) 
2

>  <hbondA_score>  (42) 
5

>  <polarSurfaceArea_score>  (42) 
102.05999999999999

>  <rotableBonds_score>  (42) 
5

>  <SC_score>  (42) 
4.0885596425848947

>  <energyPoseVsEnsemble_score>  (42) 
0.53176240045474488

>  <xcos_score>  (42) 
16.466574029661945

>  <plipMedianPreser_score>  (42) 
0.80000000000000004

>  <plipGlobalPreser_score>  (42) 
0.7142857142857143

>  <plipGlobalPreserOverMw_score>  (42) 
0.17456585130756394

>  <original_name>  (42) 
x0309-0B-x0116-0B-CS-O-O-Nc1ccc-NC-O-N2CCN-CC-O-N3CCCC3-CC2-cc1

>  <original SMILES>  (42) 
[H]c1c([H])c(N([H])S(=O)(=O)C([H])([H])[H])c([H])c([H])c1N([H])C(=O)N1C([H])([H])C([H])([H])N(C([H])([H])C(=O)N2C([H])([H])C([H])([H])C([H])([H])C2([H])[H])C([H])([H])C1([H])[H]

$$$$
376_x0309_0B_-x0116_0B_CS
     RDKit          3D

 29 31  0  0  0  0  0  0  0  0999 V2000
    0.3700   40.8710  -60.2000 C   0  0  0  0  0  0  0  0  0  0  0  0
   -1.0780   39.9570  -59.7860 S   0  0  0  0  0  0  0  0  0  0  0  0
   -2.2290   40.4960  -60.4600 O   0  0  0  0  0  0  0  0  0  0  0  0
   -1.0440   39.8200  -58.3510 O   0  0  0  0  0  0  0  0  0  0  0  0
   -0.7180   38.4320  -60.3730 N   0  0  0  0  0  0  0  0  0  0  0  0
    0.5840   37.9110  -60.1470 C   0  0  0  0  0  0  0  0  0  0  0  0
    0.9400   37.3470  -58.9440 C   0  0  0  0  0  0  0  0  0  0  0  0
    1.5350   37.9550  -61.1200 C   0  0  0  0  0  0  0  0  0  0  0  0
    2.3120   36.8070  -58.7290 C   0  0  0  0  0  0  0  0  0  0  0  0
    2.8140   37.4510  -60.9120 C   0  0  0  0  0  0  0  0  0  0  0  0
    3.2680   36.8660  -59.7380 C   0  0  0  0  0  0  0  0  0  0  0  0
    4.6010   36.3880  -59.6130 N   0  0  0  0  0  0  0  0  0  0  0  0
    5.0930   35.1000  -59.7550 C   0  0  0  0  0  0  0  0  0  0  0  0
    4.7510   34.1680  -59.0610 O   0  0  0  0  0  0  0  0  0  0  0  0
    6.0800   34.9330  -60.7550 N   0  0  0  0  0  0  0  0  0  0  0  0
    7.4550   35.2240  -60.2980 C   0  0  0  0  0  0  0  0  0  0  0  0
    6.0820   33.6630  -61.5120 C   0  0  0  0  0  0  0  0  0  0  0  0
    8.4870   35.2860  -61.4130 C   0  0  0  0  0  0  0  0  0  0  0  0
    7.4000   33.3560  -62.2750 C   0  0  0  0  0  0  0  0  0  0  0  0
    8.0830   34.6000  -62.6600 N   0  0  0  0  0  0  0  0  0  0  0  0
    9.2090   34.4260  -63.6180 C   0  0  0  0  0  0  0  0  0  0  0  0
    9.2220   35.5070  -64.7340 C   0  0  0  0  0  0  0  0  0  0  0  0
    8.2290   35.7510  -65.4110 O   0  0  0  0  0  0  0  0  0  0  0  0
   10.3800   36.2240  -64.9820 N   0  0  0  0  0  0  0  0  0  0  0  0
   10.3910   37.4940  -65.7090 C   0  0  0  0  0  0  0  0  0  0  0  0
   11.7620   35.7230  -64.9100 C   0  0  0  0  0  0  0  0  0  0  0  0
   11.4330   38.3870  -65.0430 C   0  0  0  0  0  0  0  0  0  0  0  0
   12.6260   36.4290  -65.9590 C   0  0  0  0  0  0  0  0  0  0  0  0
   12.6810   37.9250  -65.7630 C   0  0  0  0  0  0  0  0  0  0  0  0
  1  2  1  0
  2  3  2  0
  2  4  2  0
  2  5  1  0
  5  6  1  0
  6  7  2  0
  6  8  1  0
  7  9  1  0
  8 10  2  0
  9 11  2  0
 10 11  1  0
 11 12  1  0
 12 13  1  0
 13 14  2  0
 13 15  1  0
 15 16  1  0
 15 17  1  0
 16 18  1  0
 17 19  1  0
 18 20  1  0
 19 20  1  0
 20 21  1  0
 21 22  1  0
 22 23  2  0
 22 24  1  0
 24 25  1  0
 24 26  1  0
 25 27  1  0
 26 28  1  0
 27 29  1  0
 28 29  1  0
M  END
>  <ref_pdb>  (43) 
x0116

>  <ref_mols>  (43) 
x0116_0B,x0309_0B

>  <fragmensteinOld_score>  (43) 
-2.8583133779628014

>  <LE_score>  (43) 
-0.29492506902495386

>  <comRMSD_score>  (43) 
0.57022204999191273

>  <fragmensteinNew_score>  (43) 
-0.043347776435852081

>  <meanSuCosW_score>  (43) 
0.50811646131149191

>  <maxSuCosW_score>  (43) 
0.54668229903961663

>  <minSuCosW_score>  (43) 
0.46955062358336719

>  <sumSuCosW_score>  (43) 
1.0162329226229838

>  <SA_score>  (43) 
7.4046138296338633

>  <aLogP_score>  (43) 
1.2201000000000004

>  <hbondD_score>  (43) 
2

>  <hbondA_score>  (43) 
5

>  <polarSurfaceArea_score>  (43) 
102.05999999999999

>  <rotableBonds_score>  (43) 
5

>  <SC_score>  (43) 
4.1404097667531623

>  <energyPoseVsEnsemble_score>  (43) 
0.76214497946157711

>  <xcos_score>  (43) 
20.265816814646787

>  <plipMedianPreser_score>  (43) 
0.80000000000000004

>  <plipGlobalPreser_score>  (43) 
0.7142857142857143

>  <plipGlobalPreserOverMw_score>  (43) 
0.16878445143384818

>  <original_name>  (43) 
x0309-0B-x0116-0B-CS-O-O-Nc1ccc-NC-O-N2CCN-CC-O-N3CCCCC3-CC2-cc1

>  <original SMILES>  (43) 
[H]c1c([H])c(N([H])S(=O)(=O)C([H])([H])[H])c([H])c([H])c1N([H])C(=O)N1C([H])([H])C([H])([H])N(C([H])([H])C(=O)N2C([H])([H])C([H])([H])C([H])([H])C([H])([H])C2([H])[H])C([H])([H])C1([H])[H]

$$$$
377_x0309_0B_-x0116_0B_CS
     RDKit          3D

 30 32  0  0  0  0  0  0  0  0999 V2000
   -0.2500   40.8430  -60.0470 C   0  0  0  0  0  0  0  0  0  0  0  0
   -1.2370   39.4470  -59.9960 S   0  0  0  0  0  0  0  0  0  0  0  0
   -2.4050   39.8450  -60.7300 O   0  0  0  0  0  0  0  0  0  0  0  0
   -1.2360   39.0930  -58.5980 O   0  0  0  0  0  0  0  0  0  0  0  0
   -0.3510   38.2750  -60.8060 N   0  0  0  0  0  0  0  0  0  0  0  0
    0.9010   37.8400  -60.3260 C   0  0  0  0  0  0  0  0  0  0  0  0
    1.9540   38.6480  -60.1340 C   0  0  0  0  0  0  0  0  0  0  0  0
    1.0540   36.5410  -60.0370 C   0  0  0  0  0  0  0  0  0  0  0  0
    3.2270   38.0850  -59.6060 C   0  0  0  0  0  0  0  0  0  0  0  0
    2.2470   35.9750  -59.5440 C   0  0  0  0  0  0  0  0  0  0  0  0
    3.3940   36.7080  -59.3130 C   0  0  0  0  0  0  0  0  0  0  0  0
    4.6300   36.1170  -58.8310 N   0  0  0  0  0  0  0  0  0  0  0  0
    5.2110   34.8130  -59.0030 C   0  0  0  0  0  0  0  0  0  0  0  0
    5.0600   33.9540  -58.1520 O   0  0  0  0  0  0  0  0  0  0  0  0
    6.0630   34.5020  -60.1490 N   0  0  0  0  0  0  0  0  0  0  0  0
    5.4350   34.0230  -61.3480 C   0  0  0  0  0  0  0  0  0  0  0  0
    7.2520   33.6450  -59.9860 C   0  0  0  0  0  0  0  0  0  0  0  0
    6.4890   33.7690  -62.4160 C   0  0  0  0  0  0  0  0  0  0  0  0
    8.2930   33.9000  -60.9380 C   0  0  0  0  0  0  0  0  0  0  0  0
    7.7980   34.4630  -62.2110 N   0  0  0  0  0  0  0  0  0  0  0  0
    8.8260   34.3240  -63.3240 C   0  0  0  0  0  0  0  0  0  0  0  0
    9.0160   35.4860  -64.3870 C   0  0  0  0  0  0  0  0  0  0  0  0
    8.1430   35.8060  -65.1950 O   0  0  0  0  0  0  0  0  0  0  0  0
   10.2160   36.1970  -64.4720 N   0  0  0  0  0  0  0  0  0  0  0  0
   11.5650   35.6330  -64.5310 C   0  0  0  0  0  0  0  0  0  0  0  0
   10.0710   37.6640  -64.4920 C   0  0  0  0  0  0  0  0  0  0  0  0
   12.1740   36.0670  -65.8630 C   0  0  0  0  0  0  0  0  0  0  0  0
   11.1070   38.4380  -65.3520 C   0  0  0  0  0  0  0  0  0  0  0  0
   13.2260   37.0610  -65.4000 C   0  0  0  0  0  0  0  0  0  0  0  0
   12.5470   38.3230  -64.8600 C   0  0  0  0  0  0  0  0  0  0  0  0
  1  2  1  0
  2  3  2  0
  2  4  2  0
  2  5  1  0
  5  6  1  0
  6  7  2  0
  6  8  1  0
  7  9  1  0
  8 10  2  0
  9 11  2  0
 10 11  1  0
 11 12  1  0
 12 13  1  0
 13 14  2  0
 13 15  1  0
 15 16  1  0
 15 17  1  0
 16 18  1  0
 17 19  1  0
 18 20  1  0
 19 20  1  0
 20 21  1  0
 21 22  1  0
 22 23  2  0
 22 24  1  0
 24 25  1  0
 24 26  1  0
 25 27  1  0
 26 28  1  0
 27 29  1  0
 28 30  1  0
 29 30  1  0
M  END
>  <ref_pdb>  (44) 
x0116

>  <ref_mols>  (44) 
x0116_0B,x0309_0B

>  <fragmensteinOld_score>  (44) 
-0.43618231594527845

>  <LE_score>  (44) 
-0.09089009233409584

>  <comRMSD_score>  (44) 
0.76369229345975409

>  <fragmensteinNew_score>  (44) 
1.4365125729196413

>  <meanSuCosW_score>  (44) 
0.50127019900618131

>  <maxSuCosW_score>  (44) 
0.57145625526112664

>  <minSuCosW_score>  (44) 
0.43108414275123591

>  <sumSuCosW_score>  (44) 
1.0025403980123626

>  <SA_score>  (44) 
7.6032711832854218

>  <aLogP_score>  (44) 
1.6102000000000003

>  <hbondD_score>  (44) 
2

>  <hbondA_score>  (44) 
5

>  <polarSurfaceArea_score>  (44) 
102.05999999999999

>  <rotableBonds_score>  (44) 
5

>  <SC_score>  (44) 
4.1404097667531623

>  <energyPoseVsEnsemble_score>  (44) 
1.1003294568531217

>  <xcos_score>  (44) 
12.547459319910645

>  <plipMedianPreser_score>  (44) 
0.90000000000000002

>  <plipGlobalPreser_score>  (44) 
0.8571428571428571

>  <plipGlobalPreserOverMw_score>  (44) 
0.19604846489673552

>  <original_name>  (44) 
x0309-0B-x0116-0B-CS-O-O-Nc1ccc-NC-O-N2CCN-CC-O-N3CCCCCC3-CC2-cc1

>  <original SMILES>  (44) 
[H]c1c([H])c(N([H])S(=O)(=O)C([H])([H])[H])c([H])c([H])c1N([H])C(=O)N1C([H])([H])C([H])([H])N(C([H])([H])C(=O)N2C([H])([H])C([H])([H])C([H])([H])C([H])([H])C([H])([H])C2([H])[H])C([H])([H])C1([H])[H]

$$$$
381_x0309_0B_-x0116_0B_CS
     RDKit          3D

 30 32  0  0  0  0  0  0  0  0999 V2000
    0.4860   41.0020  -59.9270 C   0  0  0  0  0  0  0  0  0  0  0  0
   -0.8650   39.9250  -59.6750 S   0  0  0  0  0  0  0  0  0  0  0  0
   -2.0580   40.4620  -60.3020 O   0  0  0  0  0  0  0  0  0  0  0  0
   -0.8630   39.5630  -58.2800 O   0  0  0  0  0  0  0  0  0  0  0  0
   -0.2970   38.5940  -60.5330 N   0  0  0  0  0  0  0  0  0  0  0  0
    0.8430   37.8770  -60.1440 C   0  0  0  0  0  0  0  0  0  0  0  0
    1.9220   37.7510  -61.0860 C   0  0  0  0  0  0  0  0  0  0  0  0
    1.0000   37.2630  -58.9210 C   0  0  0  0  0  0  0  0  0  0  0  0
    3.0740   37.0110  -60.7970 C   0  0  0  0  0  0  0  0  0  0  0  0
    2.2840   36.4430  -58.6170 C   0  0  0  0  0  0  0  0  0  0  0  0
    3.2750   36.3420  -59.5910 C   0  0  0  0  0  0  0  0  0  0  0  0
    4.4930   35.5740  -59.4320 N   0  0  0  0  0  0  0  0  0  0  0  0
    4.8870   34.6510  -58.4390 C   0  0  0  0  0  0  0  0  0  0  0  0
    4.7600   34.8920  -57.2390 O   0  0  0  0  0  0  0  0  0  0  0  0
    5.4740   33.3840  -58.8540 N   0  0  0  0  0  0  0  0  0  0  0  0
    6.3520   33.2310  -60.0440 C   0  0  0  0  0  0  0  0  0  0  0  0
    5.5510   33.3340  -61.3190 C   0  0  0  0  0  0  0  0  0  0  0  0
    7.7320   33.0400  -60.0370 C   0  0  0  0  0  0  0  0  0  0  0  0
    6.3980   33.2730  -62.4100 C   0  0  0  0  0  0  0  0  0  0  0  0
    8.4630   32.9870  -61.2150 C   0  0  0  0  0  0  0  0  0  0  0  0
    7.7900   33.1270  -62.4100 C   0  0  0  0  0  0  0  0  0  0  0  0
    8.5010   33.1240  -63.4270 O   0  0  0  0  0  0  0  0  0  0  0  0
    9.4890   34.1800  -63.5890 C   0  0  0  0  0  0  0  0  0  0  0  0
    9.3190   35.2360  -64.6830 C   0  0  0  0  0  0  0  0  0  0  0  0
   10.4360   36.1210  -64.8890 N   0  0  0  0  0  0  0  0  0  0  0  0
   11.7200   35.5590  -65.2640 C   0  0  0  0  0  0  0  0  0  0  0  0
   10.2280   37.4900  -65.3940 C   0  0  0  0  0  0  0  0  0  0  0  0
   12.4510   36.5550  -65.9290 C   0  0  0  0  0  0  0  0  0  0  0  0
   11.2890   38.3660  -65.1300 C   0  0  0  0  0  0  0  0  0  0  0  0
   12.5150   37.7010  -65.1430 C   0  0  0  0  0  0  0  0  0  0  0  0
  1  2  1  0
  2  3  2  0
  2  4  2  0
  2  5  1  0
  5  6  1  0
  6  7  2  0
  6  8  1  0
  7  9  1  0
  8 10  2  0
  9 11  2  0
 10 11  1  0
 11 12  1  0
 12 13  1  0
 13 14  2  0
 13 15  1  0
 15 16  1  0
 16 17  2  0
 16 18  1  0
 17 19  1  0
 18 20  2  0
 19 21  2  0
 20 21  1  0
 21 22  1  0
 22 23  1  0
 23 24  1  0
 24 25  1  0
 25 26  1  0
 25 27  1  0
 26 28  1  0
 27 29  1  0
 28 30  1  0
 29 30  1  0
M  END
>  <ref_pdb>  (45) 
x0116

>  <ref_mols>  (45) 
x0116_0B,x0309_0B

>  <fragmensteinOld_score>  (45) 
-2.8304108607841654

>  <LE_score>  (45) 
-0.24105521790939927

>  <comRMSD_score>  (45) 
0.86413149025410974

>  <fragmensteinNew_score>  (45) 
0.1833561479965371

>  <meanSuCosW_score>  (45) 
0.52896706778074132

>  <maxSuCosW_score>  (45) 
0.54294624276022907

>  <minSuCosW_score>  (45) 
0.51498789280125357

>  <sumSuCosW_score>  (45) 
1.0579341355614826

>  <SA_score>  (45) 
7.3832761508438089

>  <aLogP_score>  (45) 
3.5668000000000024

>  <hbondD_score>  (45) 
3

>  <hbondA_score>  (45) 
5

>  <polarSurfaceArea_score>  (45) 
99.77000000000001

>  <rotableBonds_score>  (45) 
8

>  <SC_score>  (45) 
4.0177248106206145

>  <energyPoseVsEnsemble_score>  (45) 
1.2951848206052832

>  <xcos_score>  (45) 
11.91461549338063

>  <plipMedianPreser_score>  (45) 
0.875

>  <plipGlobalPreser_score>  (45) 
0.8571428571428571

>  <plipGlobalPreserOverMw_score>  (45) 
0.19832862618452618

>  <original_name>  (45) 
x0309-0B-x0116-0B-CS-O-O-Nc1ccc-NC-O-Nc2ccc-OCCN3CCCCC3-cc2-cc1

>  <original SMILES>  (45) 
[H]c1c([H])c(N([H])C(=O)N([H])c2c([H])c([H])c(N([H])S(=O)(=O)C([H])([H])[H])c([H])c2[H])c([H])c([H])c1OC([H])([H])C([H])([H])N1C([H])([H])C([H])([H])C([H])([H])C([H])([H])C1([H])[H]

$$$$
385_x0309_0B_-x0116_0B_CS
     RDKit          3D

 27 29  0  0  0  0  0  0  0  0999 V2000
    0.4440   41.0200  -59.8950 C   0  0  0  0  0  0  0  0  0  0  0  0
   -0.9730   40.0060  -59.6650 S   0  0  0  0  0  0  0  0  0  0  0  0
   -2.1470   40.5720  -60.2850 O   0  0  0  0  0  0  0  0  0  0  0  0
   -0.9770   39.6420  -58.2720 O   0  0  0  0  0  0  0  0  0  0  0  0
   -0.4660   38.6600  -60.5010 N   0  0  0  0  0  0  0  0  0  0  0  0
    0.7340   37.9630  -60.2140 C   0  0  0  0  0  0  0  0  0  0  0  0
    1.6980   37.8890  -61.1540 C   0  0  0  0  0  0  0  0  0  0  0  0
    0.9710   37.3320  -59.0120 C   0  0  0  0  0  0  0  0  0  0  0  0
    2.9270   37.1370  -60.8860 C   0  0  0  0  0  0  0  0  0  0  0  0
    2.1620   36.6040  -58.7540 C   0  0  0  0  0  0  0  0  0  0  0  0
    3.1820   36.4790  -59.7060 C   0  0  0  0  0  0  0  0  0  0  0  0
    4.3800   35.7290  -59.5220 N   0  0  0  0  0  0  0  0  0  0  0  0
    5.5650   36.0170  -58.8940 C   0  0  0  0  0  0  0  0  0  0  0  0
    5.7650   36.5610  -57.8080 O   0  0  0  0  0  0  0  0  0  0  0  0
    6.7820   35.6620  -59.5400 C   0  0  0  0  0  0  0  0  0  0  0  0
    8.1450   35.5630  -58.9170 C   0  0  0  0  0  0  0  0  0  0  0  0
    6.9200   35.3390  -60.9150 O   0  0  0  0  0  0  0  0  0  0  0  0
    9.1030   35.1710  -59.9850 C   0  0  0  0  0  0  0  0  0  0  0  0
    8.2620   35.0450  -61.2530 C   0  0  0  0  0  0  0  0  0  0  0  0
    8.7100   34.7000  -62.5640 C   0  0  0  0  0  0  0  0  0  0  0  0
    7.7820   34.3220  -63.3020 O   0  0  0  0  0  0  0  0  0  0  0  0
    7.4330   33.4310  -62.3380 C   0  0  0  0  0  0  0  0  0  0  0  0
    6.0610   33.6940  -61.7260 C   0  0  0  0  0  0  0  0  0  0  0  0
    8.2250   32.3590  -61.8990 C   0  0  0  0  0  0  0  0  0  0  0  0
    5.5600   32.7810  -60.6040 C   0  0  0  0  0  0  0  0  0  0  0  0
    7.7010   31.4560  -60.7760 C   0  0  0  0  0  0  0  0  0  0  0  0
    6.3290   31.7250  -60.1450 C   0  0  0  0  0  0  0  0  0  0  0  0
  1  2  1  0
  2  3  2  0
  2  4  2  0
  2  5  1  0
  5  6  1  0
  6  7  2  0
  6  8  1  0
  7  9  1  0
  8 10  2  0
  9 11  2  0
 10 11  1  0
 11 12  1  0
 12 13  1  0
 13 14  2  0
 13 15  1  0
 15 16  2  0
 15 17  1  0
 16 18  1  0
 17 19  1  0
 18 19  2  0
 19 20  1  0
 20 21  1  0
 21 22  1  0
 22 23  2  0
 22 24  1  0
 23 25  1  0
 24 26  2  0
 25 27  2  0
 26 27  1  0
M  END
>  <ref_pdb>  (46) 
x0116

>  <ref_mols>  (46) 
x0116_0B,x0309_0B

>  <fragmensteinOld_score>  (46) 
-1.6844801276628227

>  <LE_score>  (46) 
-0.27004875682623325

>  <comRMSD_score>  (46) 
0.67378315919883691

>  <fragmensteinNew_score>  (46) 
0.6818791954420631

>  <meanSuCosW_score>  (46) 
0.49582706007313559

>  <maxSuCosW_score>  (46) 
0.53998960479268743

>  <minSuCosW_score>  (46) 
0.45166451535358376

>  <sumSuCosW_score>  (46) 
0.99165412014627119

>  <SA_score>  (46) 
7.7488044272608869

>  <aLogP_score>  (46) 
3.4824000000000019

>  <hbondD_score>  (46) 
2

>  <hbondA_score>  (46) 
5

>  <polarSurfaceArea_score>  (46) 
97.640000000000015

>  <rotableBonds_score>  (46) 
7

>  <SC_score>  (46) 
3.664843951228657

>  <energyPoseVsEnsemble_score>  (46) 
3.7703453223707863

>  <xcos_score>  (46) 
12.310579921823454

>  <plipMedianPreser_score>  (46) 
0.80000000000000004

>  <plipGlobalPreser_score>  (46) 
0.5714285714285714

>  <plipGlobalPreserOverMw_score>  (46) 
0.1480025849345826

>  <original_name>  (46) 
x0309-0B-x0116-0B-CS-O-O-Nc1ccc-NC-O-c2ccc-COc3ccccc3-o2-cc1

>  <original SMILES>  (46) 
[H]c1c(C(=O)N([H])c2c([H])c([H])c(N([H])S(=O)(=O)C([H])([H])[H])c([H])c2[H])oc(C([H])([H])Oc2c([H])c([H])c([H])c([H])c2[H])c1[H]

$$$$
407_x0309_0B_-x0116_0B_CS
     RDKit          3D

 30 32  0  0  0  0  0  0  0  0999 V2000
    0.4270   41.0370  -59.9780 C   0  0  0  0  0  0  0  0  0  0  0  0
   -0.7670   39.7710  -59.8880 S   0  0  0  0  0  0  0  0  0  0  0  0
   -1.9730   40.2080  -60.5340 O   0  0  0  0  0  0  0  0  0  0  0  0
   -0.7720   39.3640  -58.5070 O   0  0  0  0  0  0  0  0  0  0  0  0
   -0.0090   38.5490  -60.8070 N   0  0  0  0  0  0  0  0  0  0  0  0
    1.0940   37.8340  -60.1490 C   0  0  0  0  0  0  0  0  0  0  0  0
    0.8050   37.6230  -58.8280 C   0  0  0  0  0  0  0  0  0  0  0  0
    2.3080   37.3880  -60.7020 C   0  0  0  0  0  0  0  0  0  0  0  0
    1.8210   36.9050  -57.9740 C   0  0  0  0  0  0  0  0  0  0  0  0
    3.2360   36.7010  -59.8610 C   0  0  0  0  0  0  0  0  0  0  0  0
    2.9930   36.4780  -58.5410 C   0  0  0  0  0  0  0  0  0  0  0  0
    4.5950   36.0890  -60.2000 C   0  0  0  0  0  0  0  0  0  0  0  0
    5.0240   35.1280  -59.2630 C   0  0  0  0  0  0  0  0  0  0  0  0
    5.3770   35.4300  -58.1220 O   0  0  0  0  0  0  0  0  0  0  0  0
    5.0590   33.8110  -59.6770 N   0  0  0  0  0  0  0  0  0  0  0  0
    6.0550   33.2890  -60.5740 C   0  0  0  0  0  0  0  0  0  0  0  0
    6.2760   31.9370  -60.4400 C   0  0  0  0  0  0  0  0  0  0  0  0
    6.7210   34.0720  -61.4630 C   0  0  0  0  0  0  0  0  0  0  0  0
    7.3270   31.2940  -61.3490 C   0  0  0  0  0  0  0  0  0  0  0  0
    7.6970   33.6140  -62.3450 C   0  0  0  0  0  0  0  0  0  0  0  0
    8.0250   32.2490  -62.3240 C   0  0  0  0  0  0  0  0  0  0  0  0
    8.2280   34.6170  -63.1420 O   0  0  0  0  0  0  0  0  0  0  0  0
    9.2970   34.3270  -64.0390 C   0  0  0  0  0  0  0  0  0  0  0  0
    9.2950   35.3500  -64.9910 C   0  0  0  0  0  0  0  0  0  0  0  0
    8.2680   35.6260  -65.5890 O   0  0  0  0  0  0  0  0  0  0  0  0
   10.4410   36.0920  -65.2380 N   0  0  0  0  0  0  0  0  0  0  0  0
   11.7990   35.5490  -65.0590 C   0  0  0  0  0  0  0  0  0  0  0  0
   10.5300   37.4350  -65.8380 C   0  0  0  0  0  0  0  0  0  0  0  0
   12.6340   36.6590  -65.3020 C   0  0  0  0  0  0  0  0  0  0  0  0
   11.8150   37.8740  -65.6550 C   0  0  0  0  0  0  0  0  0  0  0  0
  1  2  1  0
  2  3  2  0
  2  4  2  0
  2  5  1  0
  5  6  1  0
  6  7  2  0
  6  8  1  0
  7  9  1  0
  8 10  2  0
  9 11  2  0
 10 11  1  0
 10 12  1  0
 12 13  1  0
 13 14  2  0
 13 15  1  0
 15 16  1  0
 16 17  2  0
 16 18  1  0
 17 19  1  0
 18 20  2  0
 19 21  2  0
 20 21  1  0
 20 22  1  0
 22 23  1  0
 23 24  1  0
 24 25  2  0
 24 26  1  0
 26 27  1  0
 26 28  1  0
 27 29  1  0
 28 30  1  0
 29 30  1  0
M  END
>  <ref_pdb>  (47) 
x0116

>  <ref_mols>  (47) 
x0116_0B,x0309_0B

>  <fragmensteinOld_score>  (47) 
-2.9195303983678489

>  <LE_score>  (47) 
-0.27742410924032657

>  <comRMSD_score>  (47) 
0.85598390077024111

>  <fragmensteinNew_score>  (47) 
0.30310587080132068

>  <meanSuCosW_score>  (47) 
0.64659581671727828

>  <maxSuCosW_score>  (47) 
0.73382851587479081

>  <minSuCosW_score>  (47) 
0.55936311755976575

>  <sumSuCosW_score>  (47) 
1.2931916334345566

>  <SA_score>  (47) 
6.8866530977383347

>  <aLogP_score>  (47) 
2.2404999999999999

>  <hbondD_score>  (47) 
2

>  <hbondA_score>  (47) 
5

>  <polarSurfaceArea_score>  (47) 
104.80999999999999

>  <rotableBonds_score>  (47) 
8

>  <SC_score>  (47) 
3.9912316662675527

>  <energyPoseVsEnsemble_score>  (47) 
4.4488844574987434

>  <xcos_score>  (47) 
14.910213016187782

>  <plipMedianPreser_score>  (47) 
0.77500000000000002

>  <plipGlobalPreser_score>  (47) 
0.8571428571428571

>  <plipGlobalPreserOverMw_score>  (47) 
0.19880317550696516

>  <original_name>  (47) 
x0309-0B-x0116-0B-CS-O-O-Nc1cccc-CC-O-Nc2cccc-OCC-O-N3CCCC3-c2-c1

>  <original SMILES>  (47) 
[H]c1c([H])c(OC([H])([H])C(=O)N2C([H])([H])C([H])([H])C([H])([H])C2([H])[H])c([H])c(N([H])C(=O)C([H])([H])c2c([H])c([H])c([H])c(N([H])S(=O)(=O)C([H])([H])[H])c2[H])c1[H]

$$$$
414_x0309_0B_-x0116_0B_CS
     RDKit          3D

 33 35  0  0  0  0  0  0  0  0999 V2000
   -0.5130   41.1790  -59.9530 C   0  0  0  0  0  0  0  0  0  0  0  0
   -1.3080   39.6790  -59.8390 S   0  0  0  0  0  0  0  0  0  0  0  0
   -1.2870   39.3500  -58.4340 O   0  0  0  0  0  0  0  0  0  0  0  0
   -2.5220   39.9290  -60.5820 O   0  0  0  0  0  0  0  0  0  0  0  0
   -0.3930   38.6110  -60.7550 N   0  0  0  0  0  0  0  0  0  0  0  0
    0.9410   38.2680  -60.4520 C   0  0  0  0  0  0  0  0  0  0  0  0
    2.0260   38.8780  -61.0290 C   0  0  0  0  0  0  0  0  0  0  0  0
    1.1660   37.2720  -59.5350 C   0  0  0  0  0  0  0  0  0  0  0  0
    3.3800   38.4600  -60.6610 C   0  0  0  0  0  0  0  0  0  0  0  0
    2.4540   36.8700  -59.1880 C   0  0  0  0  0  0  0  0  0  0  0  0
    3.5630   37.4540  -59.7450 C   0  0  0  0  0  0  0  0  0  0  0  0
    2.6700   35.8750  -58.2730 C   0  0  0  0  0  0  0  0  0  0  0  0
    3.9180   35.8690  -57.7130 N   0  0  0  0  0  0  0  0  0  0  0  0
    4.8250   34.7790  -58.0050 C   0  0  0  0  0  0  0  0  0  0  0  0
    5.3460   34.0320  -57.1750 O   0  0  0  0  0  0  0  0  0  0  0  0
    5.1260   34.5990  -59.4900 C   0  0  0  0  0  0  0  0  0  0  0  0
    5.5350   35.7920  -60.1460 O   0  0  0  0  0  0  0  0  0  0  0  0
    4.9430   33.2120  -59.9530 N   0  0  0  0  0  0  0  0  0  0  0  0
    6.0100   32.9450  -60.7080 C   0  0  0  0  0  0  0  0  0  0  0  0
    6.7030   31.7680  -60.3990 C   0  0  0  0  0  0  0  0  0  0  0  0
    6.3920   33.7980  -61.7280 C   0  0  0  0  0  0  0  0  0  0  0  0
    7.9470   31.3010  -61.1530 C   0  0  0  0  0  0  0  0  0  0  0  0
    7.5030   33.5420  -62.5120 C   0  0  0  0  0  0  0  0  0  0  0  0
    8.3020   32.2900  -62.2480 C   0  0  0  0  0  0  0  0  0  0  0  0
    7.7660   34.3740  -63.3870 O   0  0  0  0  0  0  0  0  0  0  0  0
    9.1340   34.5810  -63.7150 C   0  0  0  0  0  0  0  0  0  0  0  0
    9.2440   35.4750  -64.7760 C   0  0  0  0  0  0  0  0  0  0  0  0
    8.2860   35.6890  -65.5120 O   0  0  0  0  0  0  0  0  0  0  0  0
   10.5160   36.1840  -64.9970 N   0  0  0  0  0  0  0  0  0  0  0  0
   10.6690   37.0710  -66.1250 C   0  0  0  0  0  0  0  0  0  0  0  0
   11.8400   35.7410  -64.5800 C   0  0  0  0  0  0  0  0  0  0  0  0
   12.0000   37.4270  -65.9680 C   0  0  0  0  0  0  0  0  0  0  0  0
   12.7400   36.3660  -65.4760 C   0  0  0  0  0  0  0  0  0  0  0  0
  1  2  1  0
  2  3  2  0
  2  4  2  0
  2  5  1  0
  5  6  1  0
  6  7  2  0
  6  8  1  0
  7  9  1  0
  8 10  2  0
  9 11  2  0
 10 11  1  0
 10 12  1  0
 12 13  1  0
 13 14  1  0
 14 15  2  0
 14 16  1  0
 16 17  2  0
 16 18  1  0
 18 19  1  0
 19 20  2  0
 19 21  1  0
 20 22  1  0
 21 23  2  0
 22 24  2  0
 23 24  1  0
 23 25  1  0
 25 26  1  0
 26 27  1  0
 27 28  2  0
 27 29  1  0
 29 30  1  0
 29 31  1  0
 30 32  1  0
 31 33  1  0
 32 33  1  0
M  END
>  <ref_pdb>  (48) 
x0116

>  <ref_mols>  (48) 
x0116_0B,x0309_0B

>  <fragmensteinOld_score>  (48) 
-2.3972552433478649

>  <LE_score>  (48) 
-0.20878718704797314

>  <comRMSD_score>  (48) 
0.62249762857835256

>  <fragmensteinNew_score>  (48) 
0.24959783481679354

>  <meanSuCosW_score>  (48) 
0.67515663733849784

>  <maxSuCosW_score>  (48) 
0.76880690749542613

>  <minSuCosW_score>  (48) 
0.58150636718156945

>  <sumSuCosW_score>  (48) 
1.3503132746769957

>  <SA_score>  (48) 
6.9803658639145185

>  <aLogP_score>  (48) 
1.3141999999999991

>  <hbondD_score>  (48) 
3

>  <hbondA_score>  (48) 
6

>  <polarSurfaceArea_score>  (48) 
133.91000000000003

>  <rotableBonds_score>  (48) 
8

>  <SC_score>  (48) 
4.2251808149949124

>  <energyPoseVsEnsemble_score>  (48) 
1.9447992252589095

>  <xcos_score>  (48) 
21.476421657321382

>  <plipMedianPreser_score>  (48) 
0

>  <plipGlobalPreser_score>  (48) 
0

>  <plipGlobalPreserOverMw_score>  (48) 
0

>  <original_name>  (48) 
x0309-0B-x0116-0B-CS-O-O-Nc1cccc-CNC-O-C-O-Nc2cccc-OCC-O-N3CCCC3-c2-c1

>  <original SMILES>  (48) 
[H]c1c([H])c(OC([H])([H])C(=O)N2C([H])([H])C([H])([H])C([H])([H])C2([H])[H])c([H])c(N([H])C(=O)C(=O)N([H])C([H])([H])c2c([H])c([H])c([H])c(N([H])S(=O)(=O)C([H])([H])[H])c2[H])c1[H]

$$$$
429_x0309_0B_-x0116_0B_CS
     RDKit          3D

 27 29  0  0  0  0  0  0  0  0999 V2000
   -0.6200   39.8420  -60.0360 C   0  0  0  0  0  0  0  0  0  0  0  0
   -0.0190   38.2600  -60.5930 S   0  0  0  0  0  0  0  0  0  0  0  0
   -0.9400   37.2200  -60.2260 O   0  0  0  0  0  0  0  0  0  0  0  0
    0.5130   38.3340  -61.8590 O   0  0  0  0  0  0  0  0  0  0  0  0
    1.6060   37.7750  -60.2030 C   0  0  0  0  0  0  0  0  0  0  0  0
    1.4930   36.5380  -59.7990 C   0  0  0  0  0  0  0  0  0  0  0  0
    2.8380   38.3830  -60.2760 C   0  0  0  0  0  0  0  0  0  0  0  0
    2.6580   35.7260  -59.3680 C   0  0  0  0  0  0  0  0  0  0  0  0
    3.9870   37.6680  -59.8900 C   0  0  0  0  0  0  0  0  0  0  0  0
    3.8790   36.3310  -59.4340 C   0  0  0  0  0  0  0  0  0  0  0  0
    5.0080   35.4300  -58.9910 C   0  0  0  0  0  0  0  0  0  0  0  0
    4.8940   34.0950  -59.4490 N   0  0  0  0  0  0  0  0  0  0  0  0
    5.9660   33.4870  -60.2810 C   0  0  0  0  0  0  0  0  0  0  0  0
    6.6810   32.3170  -60.0020 C   0  0  0  0  0  0  0  0  0  0  0  0
    6.4280   34.1030  -61.5630 C   0  0  0  0  0  0  0  0  0  0  0  0
    7.7060   31.8110  -60.8260 C   0  0  0  0  0  0  0  0  0  0  0  0
    7.4460   33.6270  -62.3860 C   0  0  0  0  0  0  0  0  0  0  0  0
    8.0980   32.4520  -62.0100 C   0  0  0  0  0  0  0  0  0  0  0  0
    7.8090   34.1860  -63.4340 O   0  0  0  0  0  0  0  0  0  0  0  0
    9.1980   34.3360  -63.8070 C   0  0  0  0  0  0  0  0  0  0  0  0
    9.2110   35.2930  -64.8530 C   0  0  0  0  0  0  0  0  0  0  0  0
    8.2170   35.5000  -65.7370 O   0  0  0  0  0  0  0  0  0  0  0  0
   10.4130   36.1010  -64.8710 N   0  0  0  0  0  0  0  0  0  0  0  0
   11.6960   35.3820  -64.9670 C   0  0  0  0  0  0  0  0  0  0  0  0
   10.5090   37.3380  -65.6730 C   0  0  0  0  0  0  0  0  0  0  0  0
   12.5760   36.4190  -65.3290 C   0  0  0  0  0  0  0  0  0  0  0  0
   11.8350   37.7000  -65.5760 C   0  0  0  0  0  0  0  0  0  0  0  0
  2  1  1  0
  2  3  2  0
  2  4  2  0
  2  5  1  0
  5  6  2  0
  5  7  1  0
  6  8  1  0
  7  9  2  0
  8 10  2  0
  9 10  1  0
 10 11  1  0
 11 12  1  0
 12 13  1  0
 13 14  2  0
 13 15  1  0
 14 16  1  0
 15 17  2  0
 16 18  2  0
 17 18  1  0
 17 19  1  0
 19 20  1  0
 20 21  1  0
 21 22  2  0
 21 23  1  0
 23 24  1  0
 23 25  1  0
 24 26  1  0
 25 27  1  0
 26 27  1  0
M  END
>  <ref_pdb>  (49) 
x0116

>  <ref_mols>  (49) 
x0116_0B,x0309_0B

>  <fragmensteinOld_score>  (49) 
-3.0340686790892608

>  <LE_score>  (49) 
-0.21237313449282408

>  <comRMSD_score>  (49) 
0.64017012786768335

>  <fragmensteinNew_score>  (49) 
-0.40829828646318889

>  <meanSuCosW_score>  (49) 
0.56493052068273064

>  <maxSuCosW_score>  (49) 
0.72788015351123381

>  <minSuCosW_score>  (49) 
0.40198088785422748

>  <sumSuCosW_score>  (49) 
1.1298610413654613

>  <SA_score>  (49) 
6.8061914646815502

>  <aLogP_score>  (49) 
2.7034000000000011

>  <hbondD_score>  (49) 
1

>  <hbondA_score>  (49) 
5

>  <polarSurfaceArea_score>  (49) 
75.709999999999994

>  <rotableBonds_score>  (49) 
7

>  <SC_score>  (49) 
3.7984541291335883

>  <energyPoseVsEnsemble_score>  (49) 
2.3114142316435013

>  <xcos_score>  (49) 
14.485697842205266

>  <plipMedianPreser_score>  (49) 
0.67500000000000004

>  <plipGlobalPreser_score>  (49) 
0.7142857142857143

>  <plipGlobalPreserOverMw_score>  (49) 
0.18402516228180973

>  <original_name>  (49) 
x0309-0B-x0116-0B-CS-O-O-c1ccc-CNc2cccc-OCC-O-N3CCCC3-c2-cc1

>  <original SMILES>  (49) 
[H]c1c([H])c(OC([H])([H])C(=O)N2C([H])([H])C([H])([H])C([H])([H])C2([H])[H])c([H])c(N([H])C([H])([H])c2c([H])c([H])c(S(=O)(=O)C([H])([H])[H])c([H])c2[H])c1[H]

$$$$
479_x0309_0B_-x0499_0B_CS
     RDKit          3D

 33 36  0  0  0  0  0  0  0  0999 V2000
    0.2940   40.7090  -60.5130 C   0  0  0  0  0  0  0  0  0  0  0  0
   -1.0670   39.7340  -60.0340 S   0  0  0  0  0  0  0  0  0  0  0  0
   -2.2610   40.1840  -60.7040 O   0  0  0  0  0  0  0  0  0  0  0  0
   -0.9810   39.5920  -58.6010 O   0  0  0  0  0  0  0  0  0  0  0  0
   -0.5920   38.3060  -60.7880 N   0  0  0  0  0  0  0  0  0  0  0  0
    0.7100   37.8270  -60.3690 C   0  0  0  0  0  0  0  0  0  0  0  0
    1.8280   38.1440  -61.0840 C   0  0  0  0  0  0  0  0  0  0  0  0
    0.8400   37.0460  -59.2380 C   0  0  0  0  0  0  0  0  0  0  0  0
    3.1450   37.6710  -60.6660 C   0  0  0  0  0  0  0  0  0  0  0  0
    2.0820   36.5800  -58.8100 C   0  0  0  0  0  0  0  0  0  0  0  0
    3.2360   36.8840  -59.5150 C   0  0  0  0  0  0  0  0  0  0  0  0
    2.1620   35.8440  -57.7060 F   0  0  0  0  0  0  0  0  0  0  0  0
    4.7570   36.2520  -58.8790 S   0  0  0  0  0  0  0  0  0  0  0  0
    4.6170   36.1950  -57.4390 O   0  0  0  0  0  0  0  0  0  0  0  0
    5.8290   37.0010  -59.4830 O   0  0  0  0  0  0  0  0  0  0  0  0
    4.8940   34.6680  -59.3890 N   0  0  0  0  0  0  0  0  0  0  0  0
    6.2560   34.2570  -59.5000 C   0  0  0  0  0  0  0  0  0  0  0  0
    6.6180   32.9260  -59.7210 C   0  0  0  0  0  0  0  0  0  0  0  0
    6.7060   32.4430  -61.0050 C   0  0  0  0  0  0  0  0  0  0  0  0
    6.8920   32.1320  -58.5970 C   0  0  0  0  0  0  0  0  0  0  0  0
    7.1000   31.1370  -61.1530 C   0  0  0  0  0  0  0  0  0  0  0  0
    7.2820   30.8050  -58.6860 C   0  0  0  0  0  0  0  0  0  0  0  0
    7.4050   30.2930  -59.9410 C   0  0  0  0  0  0  0  0  0  0  0  0
    7.5600   29.9660  -57.4540 C   0  0  0  0  0  0  0  0  0  0  0  0
    6.3960   29.1120  -57.2040 N   0  0  0  0  0  0  0  0  0  0  0  0
    5.4070   29.4910  -56.3630 C   0  0  0  0  0  0  0  0  0  0  0  0
    6.2140   27.8990  -57.7770 C   0  0  0  0  0  0  0  0  0  0  0  0
    4.5100   28.5200  -56.3370 N   0  0  0  0  0  0  0  0  0  0  0  0
    4.9890   27.5340  -57.2000 C   0  0  0  0  0  0  0  0  0  0  0  0
    6.9100   27.0930  -58.6800 C   0  0  0  0  0  0  0  0  0  0  0  0
    4.4180   26.2970  -57.5380 C   0  0  0  0  0  0  0  0  0  0  0  0
    6.3210   25.8650  -59.0020 C   0  0  0  0  0  0  0  0  0  0  0  0
    5.0940   25.4690  -58.4420 C   0  0  0  0  0  0  0  0  0  0  0  0
  1  2  1  0
  2  3  2  0
  2  4  2  0
  2  5  1  0
  5  6  1  0
  6  7  2  0
  6  8  1  0
  7  9  1  0
  8 10  2  0
  9 11  2  0
 10 11  1  0
 10 12  1  0
 11 13  1  0
 13 14  2  0
 13 15  2  0
 13 16  1  0
 16 17  1  0
 17 18  1  0
 18 19  2  0
 18 20  1  0
 19 21  1  0
 20 22  2  0
 21 23  2  0
 22 23  1  0
 22 24  1  0
 24 25  1  0
 25 26  1  0
 25 27  1  0
 26 28  2  0
 27 29  2  0
 28 29  1  0
 27 30  1  0
 29 31  1  0
 30 32  2  0
 31 33  2  0
 32 33  1  0
M  END
>  <ref_pdb>  (50) 
x0309

>  <ref_mols>  (50) 
x0309_0B,x0499_0B

>  <fragmensteinOld_score>  (50) 
-3.4732665483989473

>  <LE_score>  (50) 
-0.31544418210700437

>  <comRMSD_score>  (50) 
0.8717538899286823

>  <fragmensteinNew_score>  (50) 
0.33268109788135858

>  <meanSuCosW_score>  (50) 
0.75121083173639969

>  <maxSuCosW_score>  (50) 
0.8098753477034063

>  <minSuCosW_score>  (50) 
0.69254631576939296

>  <sumSuCosW_score>  (50) 
1.5024216634727994

>  <SA_score>  (50) 
7.9322448827671499

>  <aLogP_score>  (50) 
3.0737000000000014

>  <hbondD_score>  (50) 
2

>  <hbondA_score>  (50) 
5

>  <polarSurfaceArea_score>  (50) 
110.16000000000001

>  <rotableBonds_score>  (50) 
8

>  <SC_score>  (50) 
4.5655501467328303

>  <energyPoseVsEnsemble_score>  (50) 
0.59622539070139902

>  <xcos_score>  (50) 
30.498943457881687

>  <plipMedianPreser_score>  (50) 
0.59999999999999998

>  <plipGlobalPreser_score>  (50) 
0.375

>  <plipGlobalPreserOverMw_score>  (50) 
0.076828703636849918

>  <original_name>  (50) 
x0309-0B-x0499-0B-CS-O-O-Nc1ccc-S-O-O-NCc2cccc-Cn3cnc4ccccc43-c2-c-F-c1

>  <original SMILES>  (50) 
[H]c1c([H])c(C([H])([H])N([H])S(=O)(=O)c2c([H])c([H])c(N([H])S(=O)(=O)C([H])([H])[H])c([H])c2F)c([H])c(C([H])([H])n2c([H])nc3c([H])c([H])c([H])c([H])c32)c1[H]

$$$$
538_x0494_0A_-x0116_0B_CCOc1ccc
     RDKit          3D

 28 29  0  0  0  0  0  0  0  0999 V2000
    9.0050   35.1780  -65.1230 C   0  0  0  0  0  0  0  0  0  0  0  0
    8.9890   34.5170  -63.7300 C   0  0  0  0  0  0  0  0  0  0  0  0
    7.6280   34.3940  -63.3030 O   0  0  0  0  0  0  0  0  0  0  0  0
    7.4280   33.5470  -62.2570 C   0  0  0  0  0  0  0  0  0  0  0  0
    6.2390   33.6060  -61.4970 C   0  0  0  0  0  0  0  0  0  0  0  0
    8.3620   32.5990  -61.8760 C   0  0  0  0  0  0  0  0  0  0  0  0
    5.9970   32.7600  -60.3830 C   0  0  0  0  0  0  0  0  0  0  0  0
    8.1280   31.6790  -60.6840 C   0  0  0  0  0  0  0  0  0  0  0  0
    6.9460   31.7980  -59.9660 C   0  0  0  0  0  0  0  0  0  0  0  0
    6.7360   30.8760  -58.7450 C   0  0  0  0  0  0  0  0  0  0  0  0
    7.2400   29.6090  -58.6330 O   0  0  0  0  0  0  0  0  0  0  0  0
    5.9590   31.5100  -57.6900 N   0  0  0  0  0  0  0  0  0  0  0  0
    6.6660   32.6300  -57.0570 C   0  0  0  0  0  0  0  0  0  0  0  0
    6.0090   33.2280  -55.8290 C   0  0  0  0  0  0  0  0  0  0  0  0
    4.5930   33.6830  -56.1350 C   0  0  0  0  0  0  0  0  0  0  0  0
    4.2510   35.1210  -55.9500 C   0  0  0  0  0  0  0  0  0  0  0  0
    3.1590   35.6090  -56.7940 N   0  0  0  0  0  0  0  0  0  0  0  0
    3.2720   35.8910  -58.1640 C   0  0  0  0  0  0  0  0  0  0  0  0
    4.1840   35.4840  -58.8680 O   0  0  0  0  0  0  0  0  0  0  0  0
    2.2720   36.6940  -58.7180 C   0  0  0  0  0  0  0  0  0  0  0  0
    2.3020   37.0480  -60.0710 C   0  0  0  0  0  0  0  0  0  0  0  0
    1.2260   37.1490  -57.9100 C   0  0  0  0  0  0  0  0  0  0  0  0
    1.2990   37.8460  -60.6130 C   0  0  0  0  0  0  0  0  0  0  0  0
    0.1980   37.9420  -58.4060 C   0  0  0  0  0  0  0  0  0  0  0  0
    0.1750   38.3280  -59.7380 C   0  0  0  0  0  0  0  0  0  0  0  0
   -0.8580   39.1070  -60.1160 O   0  0  0  0  0  0  0  0  0  0  0  0
   -1.2670   40.1280  -59.2340 C   0  0  0  0  0  0  0  0  0  0  0  0
   -2.4920   40.6720  -59.8000 C   0  0  0  0  0  0  0  0  0  0  0  0
  1  2  1  0
  2  3  1  0
  3  4  1  0
  4  5  2  0
  4  6  1  0
  5  7  1  0
  6  8  2  0
  7  9  2  0
  8  9  1  0
  9 10  1  0
 10 11  2  0
 10 12  1  0
 12 13  1  0
 13 14  1  0
 14 15  3  0
 15 16  1  0
 16 17  1  0
 17 18  1  0
 18 19  2  0
 18 20  1  0
 20 21  2  0
 20 22  1  0
 21 23  1  0
 22 24  2  0
 23 25  2  0
 24 25  1  0
 25 26  1  0
 26 27  1  0
 27 28  1  0
M  END
>  <ref_pdb>  (51) 
x0116

>  <ref_mols>  (51) 
x0116_0B,x0494_0A

>  <fragmensteinOld_score>  (51) 
-2.152860276557826

>  <LE_score>  (51) 
-0.19113000640215641

>  <comRMSD_score>  (51) 
0.77037176441597521

>  <fragmensteinNew_score>  (51) 
0.42182060015855605

>  <meanSuCosW_score>  (51) 
0.41194666532677271

>  <maxSuCosW_score>  (51) 
0.46261676202301344

>  <minSuCosW_score>  (51) 
0.36127656863053192

>  <sumSuCosW_score>  (51) 
0.82389333065354542

>  <SA_score>  (51) 
7.9364315257957596

>  <aLogP_score>  (51) 
2.6472000000000007

>  <hbondD_score>  (51) 
2

>  <hbondA_score>  (51) 
4

>  <polarSurfaceArea_score>  (51) 
76.660000000000011

>  <rotableBonds_score>  (51) 
8

>  <SC_score>  (51) 
2.0127405201800515

>  <energyPoseVsEnsemble_score>  (51) 
4.4741952975921295

>  <xcos_score>  (51) 
8.3006341906139376

>  <plipMedianPreser_score>  (51) 
0

>  <plipGlobalPreser_score>  (51) 
0

>  <plipGlobalPreserOverMw_score>  (51) 
0

>  <original_name>  (51) 
x0494-0A-x0116-0B-CCOc1ccc-C-O-NCC-CCNC-O-c2ccc-OCC-cc2-cc1

>  <original SMILES>  (51) 
[H]c1c([H])c(C(=O)N([H])C([H])([H])C#CC([H])([H])N([H])C(=O)c2c([H])c([H])c(OC([H])([H])C([H])([H])[H])c([H])c2[H])c([H])c([H])c1OC([H])([H])C([H])([H])[H]

$$$$
539_x0494_0A_-x0116_0B_CCOc1ccc
     RDKit          3D

 36 38  0  0  0  0  0  0  0  0999 V2000
   -2.2600   40.6330  -60.0230 C   0  0  0  0  0  0  0  0  0  0  0  0
   -1.3630   39.5780  -60.1730 C   0  0  0  0  0  0  0  0  0  0  0  0
   -1.1310   39.0560  -59.1110 O   0  0  0  0  0  0  0  0  0  0  0  0
   -0.0340   38.2740  -58.9730 C   0  0  0  0  0  0  0  0  0  0  0  0
    0.7650   38.0130  -60.0850 C   0  0  0  0  0  0  0  0  0  0  0  0
    0.3290   37.7250  -57.7450 C   0  0  0  0  0  0  0  0  0  0  0  0
    1.9080   37.2180  -59.9580 C   0  0  0  0  0  0  0  0  0  0  0  0
    1.4760   36.9330  -57.6110 C   0  0  0  0  0  0  0  0  0  0  0  0
    2.2740   36.6740  -58.7210 C   0  0  0  0  0  0  0  0  0  0  0  0
    3.5090   35.8380  -58.6380 C   0  0  0  0  0  0  0  0  0  0  0  0
    4.3770   36.0410  -59.6610 O   0  0  0  0  0  0  0  0  0  0  0  0
    3.7590   34.9210  -57.5860 N   0  0  0  0  0  0  0  0  0  0  0  0
    3.8350   35.2920  -56.1810 C   0  0  0  0  0  0  0  0  0  0  0  0
    4.8740   34.3920  -55.4990 C   0  0  0  0  0  0  0  0  0  0  0  0
    4.5830   33.3360  -54.9400 O   0  0  0  0  0  0  0  0  0  0  0  0
    6.1810   34.8610  -55.5320 N   0  0  0  0  0  0  0  0  0  0  0  0
    7.1780   34.6230  -54.5440 C   0  0  0  0  0  0  0  0  0  0  0  0
    6.6830   35.4130  -56.8030 C   0  0  0  0  0  0  0  0  0  0  0  0
    8.3470   33.8650  -55.0530 C   0  0  0  0  0  0  0  0  0  0  0  0
    7.9100   34.8670  -57.2210 C   0  0  0  0  0  0  0  0  0  0  0  0
    8.2290   33.6570  -56.4510 N   0  0  0  0  0  0  0  0  0  0  0  0
    7.7000   32.3320  -56.7620 C   0  0  0  0  0  0  0  0  0  0  0  0
    8.4660   31.1250  -56.6530 O   0  0  0  0  0  0  0  0  0  0  0  0
    6.3610   32.3050  -57.1710 C   0  0  0  0  0  0  0  0  0  0  0  0
    6.1530   31.0920  -57.9460 N   0  0  0  0  0  0  0  0  0  0  0  0
    6.9470   30.8280  -59.0310 C   0  0  0  0  0  0  0  0  0  0  0  0
    7.6280   29.8120  -59.1690 O   0  0  0  0  0  0  0  0  0  0  0  0
    7.0170   31.7500  -60.0810 C   0  0  0  0  0  0  0  0  0  0  0  0
    8.1920   31.7580  -60.8280 C   0  0  0  0  0  0  0  0  0  0  0  0
    5.9950   32.6530  -60.4270 C   0  0  0  0  0  0  0  0  0  0  0  0
    8.3550   32.6470  -61.8830 C   0  0  0  0  0  0  0  0  0  0  0  0
    6.1690   33.5420  -61.4870 C   0  0  0  0  0  0  0  0  0  0  0  0
    7.3520   33.5520  -62.2220 C   0  0  0  0  0  0  0  0  0  0  0  0
    7.6740   34.3630  -63.2640 O   0  0  0  0  0  0  0  0  0  0  0  0
    9.0030   34.3150  -63.7870 C   0  0  0  0  0  0  0  0  0  0  0  0
    9.0620   35.2550  -64.8030 C   0  0  0  0  0  0  0  0  0  0  0  0
  1  2  1  0
  2  3  1  0
  3  4  1  0
  4  5  2  0
  4  6  1  0
  5  7  1  0
  6  8  2  0
  7  9  2  0
  8  9  1  0
  9 10  1  0
 10 11  2  0
 10 12  1  0
 12 13  1  0
 13 14  1  0
 14 15  2  0
 14 16  1  0
 16 17  1  0
 16 18  1  0
 17 19  1  0
 18 20  1  0
 19 21  1  0
 20 21  1  0
 21 22  1  0
 22 23  2  0
 22 24  1  0
 24 25  1  0
 25 26  1  0
 26 27  2  0
 26 28  1  0
 28 29  2  0
 28 30  1  0
 29 31  1  0
 30 32  2  0
 31 33  2  0
 32 33  1  0
 33 34  1  0
 34 35  1  0
 35 36  1  0
M  END
>  <ref_pdb>  (52) 
x0116

>  <ref_mols>  (52) 
x0116_0B,x0494_0A

>  <fragmensteinOld_score>  (52) 
0.21379137858608166

>  <LE_score>  (52) 
-0.10770001560879376

>  <comRMSD_score>  (52) 
0.87539150345643191

>  <fragmensteinNew_score>  (52) 
2.4208828505760129

>  <meanSuCosW_score>  (52) 
0.40084037618619806

>  <maxSuCosW_score>  (52) 
0.46554208072968595

>  <minSuCosW_score>  (52) 
0.33613867164271011

>  <sumSuCosW_score>  (52) 
0.80168075237239611

>  <SA_score>  (52) 
7.1434485312527327

>  <aLogP_score>  (52) 
1.3146000000000013

>  <hbondD_score>  (52) 
2

>  <hbondA_score>  (52) 
6

>  <polarSurfaceArea_score>  (52) 
117.28000000000002

>  <rotableBonds_score>  (52) 
10

>  <SC_score>  (52) 
2.859693553866026

>  <energyPoseVsEnsemble_score>  (52) 
1.8272216047936587

>  <xcos_score>  (52) 
10.368107112985143

>  <plipMedianPreser_score>  (52) 
0.75

>  <plipGlobalPreser_score>  (52) 
0.42857142857142855

>  <plipGlobalPreserOverMw_score>  (52) 
0.086365101206106271

>  <original_name>  (52) 
x0494-0A-x0116-0B-CCOc1ccc-C-O-NCC-O-N2CCN-C-O-CNC-O-c3ccc-OCC-cc3-CC2-cc1

>  <original SMILES>  (52) 
[H]c1c([H])c(C(=O)N([H])C([H])([H])C(=O)N2C([H])([H])C([H])([H])N(C(=O)C([H])([H])N([H])C(=O)c3c([H])c([H])c(OC([H])([H])C([H])([H])[H])c([H])c3[H])C([H])([H])C2([H])[H])c([H])c([H])c1OC([H])([H])C([H])([H])[H]

$$$$
554_x0494_0A_-x0116_0B_CS
     RDKit          3D

 35 38  0  0  0  0  0  0  0  0999 V2000
   -2.3330   40.1270  -57.8560 C   0  0  0  0  0  0  0  0  0  0  0  0
   -1.8040   40.0420  -59.5550 S   0  0  0  0  0  0  0  0  0  0  0  0
   -0.5230   40.7050  -59.6360 O   0  0  0  0  0  0  0  0  0  0  0  0
   -2.8820   40.4410  -60.4030 O   0  0  0  0  0  0  0  0  0  0  0  0
   -1.5000   38.4020  -59.7790 N   0  0  0  0  0  0  0  0  0  0  0  0
   -0.2510   37.8850  -59.3530 C   0  0  0  0  0  0  0  0  0  0  0  0
    0.7280   37.6300  -60.3030 C   0  0  0  0  0  0  0  0  0  0  0  0
    0.0150   37.6340  -57.9990 C   0  0  0  0  0  0  0  0  0  0  0  0
    1.9730   37.1270  -59.9060 C   0  0  0  0  0  0  0  0  0  0  0  0
    1.2710   37.1280  -57.5970 C   0  0  0  0  0  0  0  0  0  0  0  0
    2.2560   36.8750  -58.5540 C   0  0  0  0  0  0  0  0  0  0  0  0
    3.5440   36.3980  -58.2140 C   0  0  0  0  0  0  0  0  0  0  0  0
    4.4650   37.1830  -58.2520 O   0  0  0  0  0  0  0  0  0  0  0  0
    3.8530   35.0250  -57.8890 N   0  0  0  0  0  0  0  0  0  0  0  0
    4.2460   34.5700  -56.6220 C   0  0  0  0  0  0  0  0  0  0  0  0
    4.8210   34.5830  -58.9010 C   0  0  0  0  0  0  0  0  0  0  0  0
    5.0290   33.3780  -56.4550 C   0  0  0  0  0  0  0  0  0  0  0  0
    6.0750   34.3610  -58.3380 C   0  0  0  0  0  0  0  0  0  0  0  0
    6.0040   33.1460  -57.5550 N   0  0  0  0  0  0  0  0  0  0  0  0
    6.1710   31.9710  -58.3550 C   0  0  0  0  0  0  0  0  0  0  0  0
    5.9490   30.6510  -57.8730 O   0  0  0  0  0  0  0  0  0  0  0  0
    6.6320   32.3800  -59.7690 C   0  0  0  0  0  0  0  0  0  0  0  0
    8.0060   32.3730  -60.0740 C   0  0  0  0  0  0  0  0  0  0  0  0
    5.6990   32.7880  -60.7140 C   0  0  0  0  0  0  0  0  0  0  0  0
    8.4930   32.8180  -61.3210 C   0  0  0  0  0  0  0  0  0  0  0  0
    6.2120   33.2700  -62.0680 C   0  0  0  0  0  0  0  0  0  0  0  0
    7.5970   33.2750  -62.2790 C   0  0  0  0  0  0  0  0  0  0  0  0
    8.1100   33.7880  -63.5150 O   0  0  0  0  0  0  0  0  0  0  0  0
    9.4410   33.8640  -63.8530 C   0  0  0  0  0  0  0  0  0  0  0  0
    9.8020   35.0380  -64.5770 C   0  0  0  0  0  0  0  0  0  0  0  0
   11.0980   35.1260  -65.0800 C   0  0  0  0  0  0  0  0  0  0  0  0
    8.9550   36.1200  -64.8160 C   0  0  0  0  0  0  0  0  0  0  0  0
   11.5390   36.2520  -65.7790 C   0  0  0  0  0  0  0  0  0  0  0  0
    9.3880   37.2550  -65.5030 C   0  0  0  0  0  0  0  0  0  0  0  0
   10.6830   37.3200  -65.9860 C   0  0  0  0  0  0  0  0  0  0  0  0
  1  2  1  0
  2  3  2  0
  2  4  2  0
  2  5  1  0
  5  6  1  0
  6  7  2  0
  6  8  1  0
  7  9  1  0
  8 10  2  0
  9 11  2  0
 10 11  1  0
 11 12  1  0
 12 13  2  0
 12 14  1  0
 14 15  1  0
 14 16  1  0
 15 17  1  0
 16 18  1  0
 17 19  1  0
 18 19  1  0
 19 20  1  0
 20 21  2  0
 20 22  1  0
 22 23  2  0
 22 24  1  0
 23 25  1  0
 24 26  2  0
 25 27  2  0
 26 27  1  0
 27 28  1  0
 28 29  1  0
 29 30  1  0
 30 31  2  0
 30 32  1  0
 31 33  1  0
 32 34  2  0
 33 35  2  0
 34 35  1  0
M  END
>  <ref_pdb>  (53) 
x0116

>  <ref_mols>  (53) 
x0116_0B,x0494_0A

>  <fragmensteinOld_score>  (53) 
-2.0951645639376038

>  <LE_score>  (53) 
-0.2296822304702866

>  <comRMSD_score>  (53) 
0.91261104935440218

>  <fragmensteinNew_score>  (53) 
0.98134342605002778

>  <meanSuCosW_score>  (53) 
0.46592783911489888

>  <maxSuCosW_score>  (53) 
0.47693993772923787

>  <minSuCosW_score>  (53) 
0.45491574050055994

>  <sumSuCosW_score>  (53) 
0.93185567822979776

>  <SA_score>  (53) 
6.6974557872938476

>  <aLogP_score>  (53) 
3.2353000000000023

>  <hbondD_score>  (53) 
1

>  <hbondA_score>  (53) 
5

>  <polarSurfaceArea_score>  (53) 
96.019999999999996

>  <rotableBonds_score>  (53) 
7

>  <SC_score>  (53) 
2.7877972713230803

>  <energyPoseVsEnsemble_score>  (53) 
3.1179784701300606

>  <xcos_score>  (53) 
10.443381279726122

>  <plipMedianPreser_score>  (53) 
0

>  <plipGlobalPreser_score>  (53) 
0

>  <plipGlobalPreserOverMw_score>  (53) 
0

>  <original_name>  (53) 
x0494-0A-x0116-0B-CS-O-O-Nc1ccc-C-O-N2CCN-C-O-c3ccc-OCc4ccccc4-cc3-CC2-cc1

>  <original SMILES>  (53) 
[H]c1c([H])c([H])c(C([H])([H])Oc2c([H])c([H])c(C(=O)N3C([H])([H])C([H])([H])N(C(=O)c4c([H])c([H])c(N([H])S(=O)(=O)C([H])([H])[H])c([H])c4[H])C([H])([H])C3([H])[H])c([H])c2[H])c([H])c1[H]

$$$$
616_x0494_0A_-x0499_0B_CCS
     RDKit          3D

 32 35  0  0  0  0  0  0  0  0999 V2000
   -1.1550   41.0630  -57.0750 C   0  0  0  0  0  0  0  0  0  0  0  0
   -1.2080   39.6440  -57.6080 C   0  0  0  0  0  0  0  0  0  0  0  0
   -1.3830   39.7400  -59.3590 S   0  0  0  0  0  0  0  0  0  0  0  0
   -2.7990   39.8940  -59.6450 O   0  0  0  0  0  0  0  0  0  0  0  0
   -0.4940   40.7550  -59.8270 O   0  0  0  0  0  0  0  0  0  0  0  0
   -0.7910   38.2720  -60.0340 N   0  0  0  0  0  0  0  0  0  0  0  0
    0.2330   37.4540  -59.5230 C   0  0  0  0  0  0  0  0  0  0  0  0
   -0.0730   36.9930  -58.2690 C   0  0  0  0  0  0  0  0  0  0  0  0
    1.4990   37.0070  -60.1100 C   0  0  0  0  0  0  0  0  0  0  0  0
    0.7400   36.1430  -57.5540 C   0  0  0  0  0  0  0  0  0  0  0  0
    2.3700   36.0780  -59.3820 C   0  0  0  0  0  0  0  0  0  0  0  0
    1.9450   35.6940  -58.1160 C   0  0  0  0  0  0  0  0  0  0  0  0
    3.7460   35.3700  -59.7540 C   0  0  0  0  0  0  0  0  0  0  0  0
    4.7100   35.7560  -59.1220 O   0  0  0  0  0  0  0  0  0  0  0  0
    3.8420   34.2660  -60.7320 N   0  0  0  0  0  0  0  0  0  0  0  0
    4.9530   33.4090  -61.2790 C   0  0  0  0  0  0  0  0  0  0  0  0
    5.5980   32.5510  -60.4100 C   0  0  0  0  0  0  0  0  0  0  0  0
    5.1200   32.4880  -59.1290 C   0  0  0  0  0  0  0  0  0  0  0  0
    6.7030   31.7470  -60.7870 C   0  0  0  0  0  0  0  0  0  0  0  0
    5.6690   31.6680  -58.1720 C   0  0  0  0  0  0  0  0  0  0  0  0
    7.3170   30.8800  -59.8550 C   0  0  0  0  0  0  0  0  0  0  0  0
    6.8340   30.8050  -58.5360 C   0  0  0  0  0  0  0  0  0  0  0  0
    7.3700   29.9750  -57.5610 C   0  0  0  0  0  0  0  0  0  0  0  0
    6.4450   29.0820  -57.2790 N   0  0  0  0  0  0  0  0  0  0  0  0
    5.4610   29.5110  -56.4280 C   0  0  0  0  0  0  0  0  0  0  0  0
    6.2310   27.8010  -57.6520 C   0  0  0  0  0  0  0  0  0  0  0  0
    4.5920   28.5400  -56.2230 N   0  0  0  0  0  0  0  0  0  0  0  0
    5.0570   27.4770  -56.9730 C   0  0  0  0  0  0  0  0  0  0  0  0
    6.8930   26.8980  -58.4750 C   0  0  0  0  0  0  0  0  0  0  0  0
    4.5330   26.1970  -57.1290 C   0  0  0  0  0  0  0  0  0  0  0  0
    6.3750   25.6160  -58.6290 C   0  0  0  0  0  0  0  0  0  0  0  0
    5.1920   25.2780  -57.9470 C   0  0  0  0  0  0  0  0  0  0  0  0
  1  2  1  0
  2  3  1  0
  3  4  2  0
  3  5  2  0
  3  6  1  0
  6  7  1  0
  7  8  2  0
  7  9  1  0
  8 10  1  0
  9 11  2  0
 10 12  2  0
 11 12  1  0
 11 13  1  0
 13 14  2  0
 13 15  1  0
 15 16  1  0
 16 17  1  0
 17 18  2  0
 17 19  1  0
 18 20  1  0
 19 21  2  0
 20 22  2  0
 21 22  1  0
 22 23  1  0
 23 24  1  0
 24 25  1  0
 24 26  1  0
 25 27  2  0
 26 28  2  0
 27 28  1  0
 26 29  1  0
 28 30  1  0
 29 31  2  0
 30 32  2  0
 31 32  1  0
M  END
>  <ref_pdb>  (54) 
x0494

>  <ref_mols>  (54) 
x0494_0A,x0499_0B

>  <fragmensteinOld_score>  (54) 
-3.5257234875786092

>  <LE_score>  (54) 
-0.30708713487495343

>  <comRMSD_score>  (54) 
0.9010516025960833

>  <fragmensteinNew_score>  (54) 
0.23834324786756633

>  <meanSuCosW_score>  (54) 
0.58739862661601172

>  <maxSuCosW_score>  (54) 
0.76447259586335325

>  <minSuCosW_score>  (54) 
0.41032465736867024

>  <sumSuCosW_score>  (54) 
1.1747972532320234

>  <SA_score>  (54) 
6.7415189843438199

>  <aLogP_score>  (54) 
3.7762000000000029

>  <hbondD_score>  (54) 
2

>  <hbondA_score>  (54) 
4

>  <polarSurfaceArea_score>  (54) 
93.089999999999989

>  <rotableBonds_score>  (54) 
8

>  <SC_score>  (54) 
4.5788748225746136

>  <energyPoseVsEnsemble_score>  (54) 
1.1932301503875276

>  <xcos_score>  (54) 
22.008827039162302

>  <plipMedianPreser_score>  (54) 
0

>  <plipGlobalPreser_score>  (54) 
0

>  <plipGlobalPreserOverMw_score>  (54) 
0

>  <original_name>  (54) 
x0494-0A-x0499-0B-CCS-O-O-Nc1cccc-C-O-NCc2ccc-Cn3cnc4ccccc43-cc2-c1

>  <original SMILES>  (54) 
[H]c1c([H])c(C(=O)N([H])C([H])([H])c2c([H])c([H])c(C([H])([H])n3c([H])nc4c([H])c([H])c([H])c([H])c43)c([H])c2[H])c([H])c(N([H])S(=O)(=O)C([H])([H])C([H])([H])[H])c1[H]

$$$$
620_x0494_0A_-x0499_0B_CS
     RDKit          3D

 32 35  0  0  0  0  0  0  0  0999 V2000
   -1.6190   39.4840  -57.5400 C   0  0  0  0  0  0  0  0  0  0  0  0
   -1.6130   39.7880  -59.2880 S   0  0  0  0  0  0  0  0  0  0  0  0
   -2.9820   40.0420  -59.6910 O   0  0  0  0  0  0  0  0  0  0  0  0
   -0.5950   40.7570  -59.5670 O   0  0  0  0  0  0  0  0  0  0  0  0
   -1.0300   38.3200  -59.9640 N   0  0  0  0  0  0  0  0  0  0  0  0
   -0.0550   37.4610  -59.3260 C   0  0  0  0  0  0  0  0  0  0  0  0
   -0.3000   37.0120  -58.0340 C   0  0  0  0  0  0  0  0  0  0  0  0
    1.1320   37.0450  -59.9950 C   0  0  0  0  0  0  0  0  0  0  0  0
    0.6160   36.1690  -57.3970 C   0  0  0  0  0  0  0  0  0  0  0  0
    2.0470   36.1630  -59.3340 C   0  0  0  0  0  0  0  0  0  0  0  0
    1.7760   35.7590  -58.0530 C   0  0  0  0  0  0  0  0  0  0  0  0
    3.2570   35.6640  -59.9020 C   0  0  0  0  0  0  0  0  0  0  0  0
    2.7140   34.9470  -57.4750 O   0  0  0  0  0  0  0  0  0  0  0  0
    3.9090   36.6320  -59.9370 O   0  0  0  0  0  0  0  0  0  0  0  0
    3.6780   34.2490  -60.2920 N   0  0  0  0  0  0  0  0  0  0  0  0
    4.5100   33.4980  -61.2190 C   0  0  0  0  0  0  0  0  0  0  0  0
    5.3200   32.6230  -60.4850 C   0  0  0  0  0  0  0  0  0  0  0  0
    4.9500   32.4790  -59.1690 C   0  0  0  0  0  0  0  0  0  0  0  0
    6.4490   31.8920  -60.9630 C   0  0  0  0  0  0  0  0  0  0  0  0
    5.7010   31.5820  -58.2740 C   0  0  0  0  0  0  0  0  0  0  0  0
    7.1710   31.0250  -60.1000 C   0  0  0  0  0  0  0  0  0  0  0  0
    6.7870   30.8700  -58.7470 C   0  0  0  0  0  0  0  0  0  0  0  0
    7.4510   29.9690  -57.7510 C   0  0  0  0  0  0  0  0  0  0  0  0
    6.3860   29.0970  -57.2830 N   0  0  0  0  0  0  0  0  0  0  0  0
    5.4040   29.4300  -56.3810 C   0  0  0  0  0  0  0  0  0  0  0  0
    6.1800   27.8080  -57.6750 C   0  0  0  0  0  0  0  0  0  0  0  0
    4.5750   28.4300  -56.1720 N   0  0  0  0  0  0  0  0  0  0  0  0
    5.0400   27.4160  -56.9690 C   0  0  0  0  0  0  0  0  0  0  0  0
    6.8560   26.9700  -58.5540 C   0  0  0  0  0  0  0  0  0  0  0  0
    4.5390   26.1210  -57.1460 C   0  0  0  0  0  0  0  0  0  0  0  0
    6.3460   25.6880  -58.7090 C   0  0  0  0  0  0  0  0  0  0  0  0
    5.2060   25.2650  -58.0210 C   0  0  0  0  0  0  0  0  0  0  0  0
  1  2  1  0
  2  3  2  0
  2  4  2  0
  2  5  1  0
  5  6  1  0
  6  7  2  0
  6  8  1  0
  7  9  1  0
  8 10  2  0
  9 11  2  0
 10 11  1  0
 10 12  1  0
 11 13  1  0
 12 14  2  0
 12 15  1  0
 15 16  1  0
 16 17  1  0
 17 18  2  0
 17 19  1  0
 18 20  1  0
 19 21  2  0
 20 22  2  0
 21 22  1  0
 22 23  1  0
 23 24  1  0
 24 25  1  0
 24 26  1  0
 25 27  2  0
 26 28  2  0
 27 28  1  0
 26 29  1  0
 28 30  1  0
 29 31  2  0
 30 32  2  0
 31 32  1  0
M  END
>  <ref_pdb>  (55) 
x0494

>  <ref_mols>  (55) 
x0494_0A,x0499_0B

>  <fragmensteinOld_score>  (55) 
-3.6384586288996221

>  <LE_score>  (55) 
-0.285799242291297

>  <comRMSD_score>  (55) 
0.94781637022293841

>  <fragmensteinNew_score>  (55) 
0.33471226026755252

>  <meanSuCosW_score>  (55) 
0.60438188481278643

>  <maxSuCosW_score>  (55) 
0.75810303849480298

>  <minSuCosW_score>  (55) 
0.45066073113076988

>  <sumSuCosW_score>  (55) 
1.2087637696255729

>  <SA_score>  (55) 
5.7106976508509222

>  <aLogP_score>  (55) 
3.0917000000000012

>  <hbondD_score>  (55) 
3

>  <hbondA_score>  (55) 
5

>  <polarSurfaceArea_score>  (55) 
113.32000000000001

>  <rotableBonds_score>  (55) 
7

>  <SC_score>  (55) 
4.4726605640626351

>  <energyPoseVsEnsemble_score>  (55) 
2.0920873874711154

>  <xcos_score>  (55) 
19.682258390096489

>  <plipMedianPreser_score>  (55) 
0

>  <plipGlobalPreser_score>  (55) 
0

>  <plipGlobalPreserOverMw_score>  (55) 
0

>  <original_name>  (55) 
x0494-0A-x0499-0B-CS-O-O-Nc1ccc-O-c-C-O-NCc2ccc-Cn3cnc4ccccc43-cc2-c1

>  <original SMILES>  (55) 
[H]Oc1c([H])c([H])c(N([H])S(=O)(=O)C([H])([H])[H])c([H])c1C(=O)N([H])C([H])([H])c1c([H])c([H])c(C([H])([H])n2c([H])nc3c([H])c([H])c([H])c([H])c32)c([H])c1[H]

$$$$
624_x0494_0A_-x0499_0B_CS
     RDKit          3D

 31 34  0  0  0  0  0  0  0  0999 V2000
   -2.1060   39.9510  -57.4200 C   0  0  0  0  0  0  0  0  0  0  0  0
   -1.8040   39.7110  -59.1510 S   0  0  0  0  0  0  0  0  0  0  0  0
   -0.6880   40.5440  -59.5290 O   0  0  0  0  0  0  0  0  0  0  0  0
   -3.0850   39.8620  -59.8050 O   0  0  0  0  0  0  0  0  0  0  0  0
   -1.3900   38.0420  -59.2070 N   0  0  0  0  0  0  0  0  0  0  0  0
   -0.0420   37.5580  -59.2100 C   0  0  0  0  0  0  0  0  0  0  0  0
    0.8050   38.2180  -60.0700 C   0  0  0  0  0  0  0  0  0  0  0  0
    0.4540   36.4720  -58.3960 C   0  0  0  0  0  0  0  0  0  0  0  0
    2.1180   37.8500  -60.1600 C   0  0  0  0  0  0  0  0  0  0  0  0
    1.8480   36.1150  -58.5170 C   0  0  0  0  0  0  0  0  0  0  0  0
    2.6130   36.8080  -59.3880 C   0  0  0  0  0  0  0  0  0  0  0  0
    2.6200   35.1070  -57.8300 C   0  0  0  0  0  0  0  0  0  0  0  0
    2.2690   34.8700  -56.6900 O   0  0  0  0  0  0  0  0  0  0  0  0
    3.8370   34.4220  -58.3270 N   0  0  0  0  0  0  0  0  0  0  0  0
    3.9990   33.5100  -59.4060 C   0  0  0  0  0  0  0  0  0  0  0  0
    5.1550   32.6650  -59.5380 C   0  0  0  0  0  0  0  0  0  0  0  0
    5.8470   32.5800  -60.7800 C   0  0  0  0  0  0  0  0  0  0  0  0
    5.6290   31.8740  -58.4630 C   0  0  0  0  0  0  0  0  0  0  0  0
    7.0380   31.6700  -60.9120 C   0  0  0  0  0  0  0  0  0  0  0  0
    6.7570   31.0100  -58.5810 C   0  0  0  0  0  0  0  0  0  0  0  0
    7.4350   30.9260  -59.8030 C   0  0  0  0  0  0  0  0  0  0  0  0
    7.1970   30.2410  -57.4840 C   0  0  0  0  0  0  0  0  0  0  0  0
    6.3190   29.2830  -57.2470 N   0  0  0  0  0  0  0  0  0  0  0  0
    5.3040   29.6580  -56.4160 C   0  0  0  0  0  0  0  0  0  0  0  0
    6.1570   27.9430  -57.6320 C   0  0  0  0  0  0  0  0  0  0  0  0
    4.4660   28.5270  -56.2570 N   0  0  0  0  0  0  0  0  0  0  0  0
    4.9750   27.5030  -56.9820 C   0  0  0  0  0  0  0  0  0  0  0  0
    6.8760   27.0670  -58.4480 C   0  0  0  0  0  0  0  0  0  0  0  0
    4.5440   26.1960  -57.1610 C   0  0  0  0  0  0  0  0  0  0  0  0
    6.4480   25.7470  -58.6320 C   0  0  0  0  0  0  0  0  0  0  0  0
    5.2760   25.3240  -57.9760 C   0  0  0  0  0  0  0  0  0  0  0  0
  1  2  1  0
  2  3  2  0
  2  4  2  0
  2  5  1  0
  5  6  1  0
  6  7  2  0
  6  8  1  0
  7  9  1  0
  8 10  2  0
  9 11  2  0
 10 11  1  0
 10 12  1  0
 12 13  2  0
 12 14  1  0
 14 15  1  0
 15 16  1  0
 16 17  2  0
 16 18  1  0
 17 19  1  0
 18 20  2  0
 19 21  2  0
 20 21  1  0
 20 22  1  0
 22 23  1  0
 23 24  1  0
 23 25  1  0
 24 26  2  0
 25 27  2  0
 26 27  1  0
 25 28  1  0
 27 29  1  0
 28 30  2  0
 29 31  2  0
 30 31  1  0
M  END
>  <ref_pdb>  (56) 
x0494

>  <ref_mols>  (56) 
x0494_0A,x0499_0B

>  <fragmensteinOld_score>  (56) 
-4.1764951604272689

>  <LE_score>  (56) 
-0.32810620333504437

>  <comRMSD_score>  (56) 
0.68900578158402348

>  <fragmensteinNew_score>  (56) 
-0.22521587805402477

>  <meanSuCosW_score>  (56) 
0.60941770852374011

>  <maxSuCosW_score>  (56) 
0.77664663186659955

>  <minSuCosW_score>  (56) 
0.44218878518088067

>  <sumSuCosW_score>  (56) 
1.2188354170474802

>  <SA_score>  (56) 
5.8801627419714428

>  <aLogP_score>  (56) 
3.3861000000000026

>  <hbondD_score>  (56) 
2

>  <hbondA_score>  (56) 
4

>  <polarSurfaceArea_score>  (56) 
93.089999999999989

>  <rotableBonds_score>  (56) 
7

>  <SC_score>  (56) 
4.3462127726650692

>  <energyPoseVsEnsemble_score>  (56) 
0.66216451097317208

>  <xcos_score>  (56) 
23.46114024186598

>  <plipMedianPreser_score>  (56) 
0

>  <plipGlobalPreser_score>  (56) 
0

>  <plipGlobalPreserOverMw_score>  (56) 
0

>  <original_name>  (56) 
x0494-0A-x0499-0B-CS-O-O-Nc1cccc-C-O-NCc2cccc-Cn3cnc4ccccc43-c2-c1

>  <original SMILES>  (56) 
[H]c1c([H])c(C(=O)N([H])C([H])([H])c2c([H])c([H])c([H])c(C([H])([H])n3c([H])nc4c([H])c([H])c([H])c([H])c43)c2[H])c([H])c(N([H])S(=O)(=O)C([H])([H])[H])c1[H]

$$$$
625_x0494_0A_-x0499_0B_CS
     RDKit          3D

 30 33  0  0  0  0  0  0  0  0999 V2000
   -1.3310   39.4180  -57.6600 C   0  0  0  0  0  0  0  0  0  0  0  0
   -1.3640   39.7490  -59.4050 S   0  0  0  0  0  0  0  0  0  0  0  0
   -0.6650   40.9700  -59.6460 O   0  0  0  0  0  0  0  0  0  0  0  0
   -2.7560   39.6900  -59.8010 O   0  0  0  0  0  0  0  0  0  0  0  0
   -0.5120   38.4570  -60.1880 N   0  0  0  0  0  0  0  0  0  0  0  0
    0.3080   37.4920  -59.4720 C   0  0  0  0  0  0  0  0  0  0  0  0
   -0.2010   37.1200  -58.2450 C   0  0  0  0  0  0  0  0  0  0  0  0
    1.5630   36.9040  -59.9420 C   0  0  0  0  0  0  0  0  0  0  0  0
    0.4710   36.2110  -57.4640 C   0  0  0  0  0  0  0  0  0  0  0  0
    2.2340   35.9250  -59.0910 C   0  0  0  0  0  0  0  0  0  0  0  0
    1.6490   35.6430  -57.8930 C   0  0  0  0  0  0  0  0  0  0  0  0
    3.5110   35.0120  -59.1040 C   0  0  0  0  0  0  0  0  0  0  0  0
    4.0660   35.0620  -58.0350 O   0  0  0  0  0  0  0  0  0  0  0  0
    3.9690   34.0850  -60.1070 N   0  0  0  0  0  0  0  0  0  0  0  0
    5.0230   33.0320  -60.0000 C   0  0  0  0  0  0  0  0  0  0  0  0
    5.7320   32.7270  -61.1880 C   0  0  0  0  0  0  0  0  0  0  0  0
    5.4170   32.2800  -58.8390 C   0  0  0  0  0  0  0  0  0  0  0  0
    6.7500   31.7580  -61.2340 C   0  0  0  0  0  0  0  0  0  0  0  0
    6.4680   31.2840  -58.8840 C   0  0  0  0  0  0  0  0  0  0  0  0
    7.1150   31.0450  -60.1000 C   0  0  0  0  0  0  0  0  0  0  0  0
    6.9190   30.4750  -57.6670 C   0  0  0  0  0  0  0  0  0  0  0  0
    6.0180   29.3950  -57.2720 N   0  0  0  0  0  0  0  0  0  0  0  0
    4.9700   29.5700  -56.4130 C   0  0  0  0  0  0  0  0  0  0  0  0
    6.0350   28.0600  -57.6540 C   0  0  0  0  0  0  0  0  0  0  0  0
    4.3060   28.4580  -56.2090 N   0  0  0  0  0  0  0  0  0  0  0  0
    4.9440   27.5150  -56.9640 C   0  0  0  0  0  0  0  0  0  0  0  0
    6.8450   27.2820  -58.4960 C   0  0  0  0  0  0  0  0  0  0  0  0
    4.6370   26.1580  -57.1050 C   0  0  0  0  0  0  0  0  0  0  0  0
    6.5170   25.9260  -58.6150 C   0  0  0  0  0  0  0  0  0  0  0  0
    5.4340   25.3760  -57.9320 C   0  0  0  0  0  0  0  0  0  0  0  0
  1  2  1  0
  2  3  2  0
  2  4  2  0
  2  5  1  0
  5  6  1  0
  6  7  2  0
  6  8  1  0
  7  9  1  0
  8 10  2  0
  9 11  2  0
 10 11  1  0
 10 12  1  0
 12 13  2  0
 12 14  1  0
 14 15  1  0
 15 16  2  0
 15 17  1  0
 16 18  1  0
 17 19  2  0
 18 20  2  0
 19 20  1  0
 19 21  1  0
 21 22  1  0
 22 23  1  0
 22 24  1  0
 23 25  2  0
 24 26  2  0
 25 26  1  0
 24 27  1  0
 26 28  1  0
 27 29  2  0
 28 30  2  0
 29 30  1  0
M  END
>  <ref_pdb>  (57) 
x0494

>  <ref_mols>  (57) 
x0494_0A,x0499_0B

>  <fragmensteinOld_score>  (57) 
-4.261029296530646

>  <LE_score>  (57) 
-0.34146883639500347

>  <comRMSD_score>  (57) 
0.82437125639737618

>  <fragmensteinNew_score>  (57) 
-0.12409756148727835

>  <meanSuCosW_score>  (57) 
0.55815990782896341

>  <maxSuCosW_score>  (57) 
0.71905630268994436

>  <minSuCosW_score>  (57) 
0.3972635129679824

>  <sumSuCosW_score>  (57) 
1.1163198156579268

>  <SA_score>  (57) 
7.9326052650904071

>  <aLogP_score>  (57) 
3.7084000000000019

>  <hbondD_score>  (57) 
2

>  <hbondA_score>  (57) 
4

>  <polarSurfaceArea_score>  (57) 
93.089999999999989

>  <rotableBonds_score>  (57) 
6

>  <SC_score>  (57) 
3.8964511127535162

>  <energyPoseVsEnsemble_score>  (57) 
2.0762646591246585

>  <xcos_score>  (57) 
15.774222655099152

>  <plipMedianPreser_score>  (57) 
0

>  <plipGlobalPreser_score>  (57) 
0

>  <plipGlobalPreserOverMw_score>  (57) 
0

>  <original_name>  (57) 
x0494-0A-x0499-0B-CS-O-O-Nc1cccc-C-O-Nc2cccc-Cn3cnc4ccccc43-c2-c1

>  <original SMILES>  (57) 
[H]c1c([H])c(C(=O)N([H])c2c([H])c([H])c([H])c(C([H])([H])n3c([H])nc4c([H])c([H])c([H])c([H])c43)c2[H])c([H])c(N([H])S(=O)(=O)C([H])([H])[H])c1[H]

$$$$
626_x0494_0A_-x0499_0B_CS
     RDKit          3D

 32 35  0  0  0  0  0  0  0  0999 V2000
   -1.7340   39.6490  -57.4580 C   0  0  0  0  0  0  0  0  0  0  0  0
   -1.7570   39.9530  -59.2070 S   0  0  0  0  0  0  0  0  0  0  0  0
   -3.1220   40.2230  -59.6140 O   0  0  0  0  0  0  0  0  0  0  0  0
   -0.7190   40.8940  -59.5150 O   0  0  0  0  0  0  0  0  0  0  0  0
   -1.2240   38.4820  -59.8860 N   0  0  0  0  0  0  0  0  0  0  0  0
   -0.2250   37.6510  -59.2840 C   0  0  0  0  0  0  0  0  0  0  0  0
   -0.5060   37.0610  -58.0580 C   0  0  0  0  0  0  0  0  0  0  0  0
    1.0090   37.3900  -59.8830 C   0  0  0  0  0  0  0  0  0  0  0  0
    0.4310   36.2290  -57.4380 C   0  0  0  0  0  0  0  0  0  0  0  0
    1.9440   36.5350  -59.2450 C   0  0  0  0  0  0  0  0  0  0  0  0
    1.6540   35.9690  -58.0380 C   0  0  0  0  0  0  0  0  0  0  0  0
    3.2390   36.2380  -59.8720 C   0  0  0  0  0  0  0  0  0  0  0  0
    3.9540   34.8660  -59.8100 C   0  0  0  0  0  0  0  0  0  0  0  0
    4.4990   34.6040  -58.7620 O   0  0  0  0  0  0  0  0  0  0  0  0
    4.0310   33.9750  -60.9390 N   0  0  0  0  0  0  0  0  0  0  0  0
    5.1990   33.2100  -61.4320 C   0  0  0  0  0  0  0  0  0  0  0  0
    5.7940   32.3920  -60.5100 C   0  0  0  0  0  0  0  0  0  0  0  0
    5.1930   32.3100  -59.2830 C   0  0  0  0  0  0  0  0  0  0  0  0
    6.9630   31.6500  -60.7760 C   0  0  0  0  0  0  0  0  0  0  0  0
    5.6850   31.5270  -58.2730 C   0  0  0  0  0  0  0  0  0  0  0  0
    7.5250   30.8210  -59.7870 C   0  0  0  0  0  0  0  0  0  0  0  0
    6.9200   30.7280  -58.5190 C   0  0  0  0  0  0  0  0  0  0  0  0
    7.4020   29.9360  -57.4930 C   0  0  0  0  0  0  0  0  0  0  0  0
    6.4600   29.0600  -57.2300 N   0  0  0  0  0  0  0  0  0  0  0  0
    5.4740   29.4970  -56.3890 C   0  0  0  0  0  0  0  0  0  0  0  0
    6.2340   27.7840  -57.6160 C   0  0  0  0  0  0  0  0  0  0  0  0
    4.5880   28.5360  -56.2000 N   0  0  0  0  0  0  0  0  0  0  0  0
    5.0500   27.4720  -56.9520 C   0  0  0  0  0  0  0  0  0  0  0  0
    6.8960   26.8800  -58.4390 C   0  0  0  0  0  0  0  0  0  0  0  0
    4.5150   26.1980  -57.1220 C   0  0  0  0  0  0  0  0  0  0  0  0
    6.3670   25.6060  -58.6080 C   0  0  0  0  0  0  0  0  0  0  0  0
    5.1750   25.2780  -57.9400 C   0  0  0  0  0  0  0  0  0  0  0  0
  1  2  1  0
  2  3  2  0
  2  4  2  0
  2  5  1  0
  5  6  1  0
  6  7  2  0
  6  8  1  0
  7  9  1  0
  8 10  2  0
  9 11  2  0
 10 11  1  0
 10 12  1  0
 12 13  1  0
 13 14  2  0
 13 15  1  0
 15 16  1  0
 16 17  1  0
 17 18  2  0
 17 19  1  0
 18 20  1  0
 19 21  2  0
 20 22  2  0
 21 22  1  0
 22 23  1  0
 23 24  1  0
 24 25  1  0
 24 26  1  0
 25 27  2  0
 26 28  2  0
 27 28  1  0
 26 29  1  0
 28 30  1  0
 29 31  2  0
 30 32  2  0
 31 32  1  0
M  END
>  <ref_pdb>  (58) 
x0494

>  <ref_mols>  (58) 
x0494_0A,x0499_0B

>  <fragmensteinOld_score>  (58) 
-3.8132316728646982

>  <LE_score>  (58) 
-0.2798662635965114

>  <comRMSD_score>  (58) 
0.7338856668722773

>  <fragmensteinNew_score>  (58) 
-0.087216167738984218

>  <meanSuCosW_score>  (58) 
0.62773872365895078

>  <maxSuCosW_score>  (58) 
0.78275766302460958

>  <minSuCosW_score>  (58) 
0.47271978429329203

>  <sumSuCosW_score>  (58) 
1.2554774473179016

>  <SA_score>  (58) 
6.754831264730357

>  <aLogP_score>  (58) 
3.3150000000000013

>  <hbondD_score>  (58) 
2

>  <hbondA_score>  (58) 
4

>  <polarSurfaceArea_score>  (58) 
93.089999999999989

>  <rotableBonds_score>  (58) 
8

>  <SC_score>  (58) 
4.2613131445698098

>  <energyPoseVsEnsemble_score>  (58) 
1.5033840806110321

>  <xcos_score>  (58) 
25.873801789511688

>  <plipMedianPreser_score>  (58) 
0

>  <plipGlobalPreser_score>  (58) 
0

>  <plipGlobalPreserOverMw_score>  (58) 
0

>  <original_name>  (58) 
x0494-0A-x0499-0B-CS-O-O-Nc1cccc-CC-O-NCc2ccc-Cn3cnc4ccccc43-cc2-c1

>  <original SMILES>  (58) 
[H]c1c([H])c(N([H])S(=O)(=O)C([H])([H])[H])c([H])c(C([H])([H])C(=O)N([H])C([H])([H])c2c([H])c([H])c(C([H])([H])n3c([H])nc4c([H])c([H])c([H])c([H])c43)c([H])c2[H])c1[H]

$$$$
627_x0494_0A_-x0499_0B_CS
     RDKit          3D

 32 35  0  0  0  0  0  0  0  0999 V2000
   -1.7950   39.7070  -57.5050 C   0  0  0  0  0  0  0  0  0  0  0  0
   -1.8390   39.9840  -59.2510 S   0  0  0  0  0  0  0  0  0  0  0  0
   -0.7640   40.8730  -59.5940 O   0  0  0  0  0  0  0  0  0  0  0  0
   -3.2120   40.2600  -59.6130 O   0  0  0  0  0  0  0  0  0  0  0  0
   -1.3880   38.4840  -59.8940 N   0  0  0  0  0  0  0  0  0  0  0  0
   -0.2680   37.7390  -59.3250 C   0  0  0  0  0  0  0  0  0  0  0  0
   -0.5780   37.0010  -58.2230 C   0  0  0  0  0  0  0  0  0  0  0  0
    1.0460   37.7220  -59.8170 C   0  0  0  0  0  0  0  0  0  0  0  0
    0.4090   36.1950  -57.5430 C   0  0  0  0  0  0  0  0  0  0  0  0
    2.0180   36.9210  -59.1390 C   0  0  0  0  0  0  0  0  0  0  0  0
    1.6790   36.1850  -58.0360 C   0  0  0  0  0  0  0  0  0  0  0  0
    3.3270   36.8090  -59.5090 C   0  0  0  0  0  0  0  0  0  0  0  0
    4.1280   36.2320  -58.4920 C   0  0  0  0  0  0  0  0  0  0  0  0
    4.1720   36.8040  -57.4070 O   0  0  0  0  0  0  0  0  0  0  0  0
    4.8460   35.0530  -58.7400 N   0  0  0  0  0  0  0  0  0  0  0  0
    4.3160   33.9260  -59.5100 C   0  0  0  0  0  0  0  0  0  0  0  0
    5.3840   32.8600  -59.7600 C   0  0  0  0  0  0  0  0  0  0  0  0
    6.1550   32.7530  -60.9310 C   0  0  0  0  0  0  0  0  0  0  0  0
    5.6290   31.9020  -58.7810 C   0  0  0  0  0  0  0  0  0  0  0  0
    7.1900   31.6840  -61.1020 C   0  0  0  0  0  0  0  0  0  0  0  0
    6.5900   30.8830  -58.9360 C   0  0  0  0  0  0  0  0  0  0  0  0
    7.3920   30.7570  -60.0840 C   0  0  0  0  0  0  0  0  0  0  0  0
    6.6550   29.9870  -57.8960 C   0  0  0  0  0  0  0  0  0  0  0  0
    6.0340   28.9940  -57.3690 N   0  0  0  0  0  0  0  0  0  0  0  0
    5.1780   29.3040  -56.3540 C   0  0  0  0  0  0  0  0  0  0  0  0
    6.0250   27.6870  -57.6530 C   0  0  0  0  0  0  0  0  0  0  0  0
    4.5740   28.2080  -55.9480 N   0  0  0  0  0  0  0  0  0  0  0  0
    5.0840   27.1970  -56.7530 C   0  0  0  0  0  0  0  0  0  0  0  0
    6.7010   26.8970  -58.5750 C   0  0  0  0  0  0  0  0  0  0  0  0
    4.8000   25.8340  -56.7870 C   0  0  0  0  0  0  0  0  0  0  0  0
    6.4490   25.5400  -58.6310 C   0  0  0  0  0  0  0  0  0  0  0  0
    5.5010   25.0300  -57.7400 C   0  0  0  0  0  0  0  0  0  0  0  0
  1  2  1  0
  2  3  2  0
  2  4  2  0
  2  5  1  0
  5  6  1  0
  6  7  2  0
  6  8  1  0
  7  9  1  0
  8 10  2  0
  9 11  2  0
 10 11  1  0
 10 12  1  0
 12 13  1  0
 13 14  2  0
 13 15  1  0
 15 16  1  0
 16 17  1  0
 17 18  2  0
 17 19  1  0
 18 20  1  0
 19 21  2  0
 20 22  2  0
 21 22  1  0
 21 23  1  0
 23 24  1  0
 24 25  1  0
 24 26  1  0
 25 27  2  0
 26 28  2  0
 27 28  1  0
 26 29  1  0
 28 30  1  0
 29 31  2  0
 30 32  2  0
 31 32  1  0
M  END
>  <ref_pdb>  (59) 
x0494

>  <ref_mols>  (59) 
x0494_0A,x0499_0B

>  <fragmensteinOld_score>  (59) 
-3.5942941729908067

>  <LE_score>  (59) 
-0.31768918564294746

>  <comRMSD_score>  (59) 
0.62953012650982521

>  <fragmensteinNew_score>  (59) 
0.0072788900883465901

>  <meanSuCosW_score>  (59) 
0.60577381967674548

>  <maxSuCosW_score>  (59) 
0.73226514914547591

>  <minSuCosW_score>  (59) 
0.47928249020801506

>  <sumSuCosW_score>  (59) 
1.211547639353491

>  <SA_score>  (59) 
6.7988001272525302

>  <aLogP_score>  (59) 
3.3150000000000013

>  <hbondD_score>  (59) 
2

>  <hbondA_score>  (59) 
4

>  <polarSurfaceArea_score>  (59) 
93.089999999999989

>  <rotableBonds_score>  (59) 
8

>  <SC_score>  (59) 
4.4033804088897153

>  <energyPoseVsEnsemble_score>  (59) 
1.4525996717748855

>  <xcos_score>  (59) 
23.615625986897964

>  <plipMedianPreser_score>  (59) 
0

>  <plipGlobalPreser_score>  (59) 
0

>  <plipGlobalPreserOverMw_score>  (59) 
0

>  <original_name>  (59) 
x0494-0A-x0499-0B-CS-O-O-Nc1cccc-CC-O-NCc2cccc-Cn3cnc4ccccc43-c2-c1

>  <original SMILES>  (59) 
[H]c1c([H])c(N([H])S(=O)(=O)C([H])([H])[H])c([H])c(C([H])([H])C(=O)N([H])C([H])([H])c2c([H])c([H])c([H])c(C([H])([H])n3c([H])nc4c([H])c([H])c([H])c([H])c43)c2[H])c1[H]

$$$$
629_x0494_0A_-x0499_0B_CS
     RDKit          3D

 31 34  0  0  0  0  0  0  0  0999 V2000
   -1.7310   40.0390  -57.5000 C   0  0  0  0  0  0  0  0  0  0  0  0
   -1.6940   39.7930  -59.2620 S   0  0  0  0  0  0  0  0  0  0  0  0
   -0.6300   40.5950  -59.7920 O   0  0  0  0  0  0  0  0  0  0  0  0
   -3.0450   39.9910  -59.7450 O   0  0  0  0  0  0  0  0  0  0  0  0
   -1.2070   38.1770  -59.4400 N   0  0  0  0  0  0  0  0  0  0  0  0
    0.0940   37.5900  -59.2610 C   0  0  0  0  0  0  0  0  0  0  0  0
    1.1480   38.2720  -59.8160 C   0  0  0  0  0  0  0  0  0  0  0  0
    0.3740   36.3740  -58.5700 C   0  0  0  0  0  0  0  0  0  0  0  0
    2.4530   37.7860  -59.6940 C   0  0  0  0  0  0  0  0  0  0  0  0
    1.7380   35.9020  -58.4720 C   0  0  0  0  0  0  0  0  0  0  0  0
    2.7130   36.6180  -59.0250 C   0  0  0  0  0  0  0  0  0  0  0  0
    2.1990   34.7290  -57.8480 C   0  0  0  0  0  0  0  0  0  0  0  0
    3.5350   34.1580  -57.9520 C   0  0  0  0  0  0  0  0  0  0  0  0
    4.1950   34.0470  -56.9240 O   0  0  0  0  0  0  0  0  0  0  0  0
    4.0370   33.6940  -59.2870 N   0  0  0  0  0  0  0  0  0  0  0  0
    5.0720   32.7600  -59.5680 C   0  0  0  0  0  0  0  0  0  0  0  0
    5.6600   32.5010  -60.8290 C   0  0  0  0  0  0  0  0  0  0  0  0
    5.6060   31.9770  -58.5120 C   0  0  0  0  0  0  0  0  0  0  0  0
    6.6770   31.5730  -61.0570 C   0  0  0  0  0  0  0  0  0  0  0  0
    6.6510   31.0150  -58.7160 C   0  0  0  0  0  0  0  0  0  0  0  0
    7.1810   30.8230  -60.0000 C   0  0  0  0  0  0  0  0  0  0  0  0
    7.1740   30.2420  -57.6680 C   0  0  0  0  0  0  0  0  0  0  0  0
    6.1810   29.2650  -57.2450 N   0  0  0  0  0  0  0  0  0  0  0  0
    5.1400   29.5260  -56.3900 C   0  0  0  0  0  0  0  0  0  0  0  0
    6.0950   27.9430  -57.6110 C   0  0  0  0  0  0  0  0  0  0  0  0
    4.3970   28.4650  -56.1820 N   0  0  0  0  0  0  0  0  0  0  0  0
    4.9770   27.4760  -56.9320 C   0  0  0  0  0  0  0  0  0  0  0  0
    6.8430   27.0980  -58.4420 C   0  0  0  0  0  0  0  0  0  0  0  0
    4.5960   26.1150  -57.0870 C   0  0  0  0  0  0  0  0  0  0  0  0
    6.4820   25.7580  -58.6020 C   0  0  0  0  0  0  0  0  0  0  0  0
    5.3480   25.2810  -57.9090 C   0  0  0  0  0  0  0  0  0  0  0  0
  1  2  1  0
  2  3  2  0
  2  4  2  0
  2  5  1  0
  5  6  1  0
  6  7  2  0
  6  8  1  0
  7  9  1  0
  8 10  2  0
  9 11  2  0
 10 11  1  0
 10 12  1  0
 12 13  1  0
 13 14  2  0
 13 15  1  0
 15 16  1  0
 16 17  2  0
 16 18  1  0
 17 19  1  0
 18 20  2  0
 19 21  2  0
 20 21  1  0
 20 22  1  0
 22 23  1  0
 23 24  1  0
 23 25  1  0
 24 26  2  0
 25 27  2  0
 26 27  1  0
 25 28  1  0
 27 29  1  0
 28 30  2  0
 29 31  2  0
 30 31  1  0
M  END
>  <ref_pdb>  (60) 
x0494

>  <ref_mols>  (60) 
x0494_0A,x0499_0B

>  <fragmensteinOld_score>  (60) 
-4.2990623638257599

>  <LE_score>  (60) 
-0.34492741651204367

>  <comRMSD_score>  (60) 
0.67745858515372859

>  <fragmensteinNew_score>  (60) 
-0.26513148409161391

>  <meanSuCosW_score>  (60) 
0.59621344377031582

>  <maxSuCosW_score>  (60) 
0.74923729161220287

>  <minSuCosW_score>  (60) 
0.44318959592842871

>  <sumSuCosW_score>  (60) 
1.1924268875406316

>  <SA_score>  (60) 
5.8827809707070742

>  <aLogP_score>  (60) 
3.6373000000000024

>  <hbondD_score>  (60) 
2

>  <hbondA_score>  (60) 
4

>  <polarSurfaceArea_score>  (60) 
93.089999999999989

>  <rotableBonds_score>  (60) 
7

>  <SC_score>  (60) 
3.8226243783496732

>  <energyPoseVsEnsemble_score>  (60) 
0.33822155850870494

>  <xcos_score>  (60) 
22.256634377926616

>  <plipMedianPreser_score>  (60) 
0

>  <plipGlobalPreser_score>  (60) 
0

>  <plipGlobalPreserOverMw_score>  (60) 
0

>  <original_name>  (60) 
x0494-0A-x0499-0B-CS-O-O-Nc1cccc-CC-O-Nc2cccc-Cn3cnc4ccccc43-c2-c1

>  <original SMILES>  (60) 
[H]c1c([H])c(N([H])S(=O)(=O)C([H])([H])[H])c([H])c(C([H])([H])C(=O)N([H])c2c([H])c([H])c([H])c(C([H])([H])n3c([H])nc4c([H])c([H])c([H])c([H])c43)c2[H])c1[H]

$$$$
632_x0494_0A_-x0499_0B_CS
     RDKit          3D

 30 33  0  0  0  0  0  0  0  0999 V2000
   -1.5060   39.5050  -57.5430 C   0  0  0  0  0  0  0  0  0  0  0  0
   -1.5460   39.7990  -59.2930 S   0  0  0  0  0  0  0  0  0  0  0  0
   -2.9290   40.0060  -59.6840 O   0  0  0  0  0  0  0  0  0  0  0  0
   -0.5880   40.8170  -59.5980 O   0  0  0  0  0  0  0  0  0  0  0  0
   -0.9260   38.3640  -60.0020 N   0  0  0  0  0  0  0  0  0  0  0  0
    0.0340   37.4830  -59.3680 C   0  0  0  0  0  0  0  0  0  0  0  0
   -0.2730   37.0390  -58.0950 C   0  0  0  0  0  0  0  0  0  0  0  0
    1.2440   37.0300  -59.9850 C   0  0  0  0  0  0  0  0  0  0  0  0
    0.5890   36.1720  -57.4350 C   0  0  0  0  0  0  0  0  0  0  0  0
    2.1150   36.1150  -59.2950 C   0  0  0  0  0  0  0  0  0  0  0  0
    1.7580   35.7230  -58.0310 C   0  0  0  0  0  0  0  0  0  0  0  0
    3.4290   35.5050  -59.8090 C   0  0  0  0  0  0  0  0  0  0  0  0
    3.5380   34.2760  -60.6590 N   0  0  0  0  0  0  0  0  0  0  0  0
    4.5940   33.4360  -61.2700 C   0  0  0  0  0  0  0  0  0  0  0  0
    5.3510   32.6030  -60.4500 C   0  0  0  0  0  0  0  0  0  0  0  0
    6.4800   31.8580  -60.8750 C   0  0  0  0  0  0  0  0  0  0  0  0
    4.9750   32.4830  -59.1390 C   0  0  0  0  0  0  0  0  0  0  0  0
    7.2270   31.0070  -60.0460 C   0  0  0  0  0  0  0  0  0  0  0  0
    5.7090   31.6460  -58.3250 C   0  0  0  0  0  0  0  0  0  0  0  0
    6.8180   30.8930  -58.7080 C   0  0  0  0  0  0  0  0  0  0  0  0
    7.4630   30.0240  -57.6760 C   0  0  0  0  0  0  0  0  0  0  0  0
    6.4070   29.1270  -57.2470 N   0  0  0  0  0  0  0  0  0  0  0  0
    5.3940   29.4010  -56.3890 C   0  0  0  0  0  0  0  0  0  0  0  0
    6.1980   27.8290  -57.6180 C   0  0  0  0  0  0  0  0  0  0  0  0
    4.5340   28.4620  -56.1350 N   0  0  0  0  0  0  0  0  0  0  0  0
    5.0360   27.4400  -56.9180 C   0  0  0  0  0  0  0  0  0  0  0  0
    6.8790   26.9600  -58.4730 C   0  0  0  0  0  0  0  0  0  0  0  0
    4.5480   26.1420  -57.0820 C   0  0  0  0  0  0  0  0  0  0  0  0
    6.3750   25.6720  -58.6160 C   0  0  0  0  0  0  0  0  0  0  0  0
    5.2270   25.2630  -57.9310 C   0  0  0  0  0  0  0  0  0  0  0  0
  1  2  1  0
  2  3  2  0
  2  4  2  0
  2  5  1  0
  5  6  1  0
  6  7  2  0
  6  8  1  0
  7  9  1  0
  8 10  2  0
  9 11  2  0
 10 11  1  0
 10 12  1  0
 12 13  1  0
 13 14  1  0
 14 15  1  0
 15 16  2  0
 15 17  1  0
 16 18  1  0
 17 19  2  0
 18 20  2  0
 19 20  1  0
 20 21  1  0
 21 22  1  0
 22 23  1  0
 22 24  1  0
 23 25  2  0
 24 26  2  0
 25 26  1  0
 24 27  1  0
 26 28  1  0
 27 29  2  0
 28 30  2  0
 29 30  1  0
M  END
>  <ref_pdb>  (61) 
x0494

>  <ref_mols>  (61) 
x0494_0A,x0499_0B

>  <fragmensteinOld_score>  (61) 
-3.5465956775338454

>  <LE_score>  (61) 
-0.27108604605170739

>  <comRMSD_score>  (61) 
0.93413780798674062

>  <fragmensteinNew_score>  (61) 
0.017936102310836921

>  <meanSuCosW_score>  (61) 
0.58028503197582371

>  <maxSuCosW_score>  (61) 
0.75439309347326677

>  <minSuCosW_score>  (61) 
0.40617697047838075

>  <sumSuCosW_score>  (61) 
1.1605700639516474

>  <SA_score>  (61) 
6.7330274579059406

>  <aLogP_score>  (61) 
3.7459000000000024

>  <hbondD_score>  (61) 
2

>  <hbondA_score>  (61) 
4

>  <polarSurfaceArea_score>  (61) 
76.02000000000001

>  <rotableBonds_score>  (61) 
8

>  <SC_score>  (61) 
4.0950518233539661

>  <energyPoseVsEnsemble_score>  (61) 
1.1305759114138396

>  <xcos_score>  (61) 
21.616639887695968

>  <plipMedianPreser_score>  (61) 
0

>  <plipGlobalPreser_score>  (61) 
0

>  <plipGlobalPreserOverMw_score>  (61) 
0

>  <original_name>  (61) 
x0494-0A-x0499-0B-CS-O-O-Nc1cccc-CNCc2ccc-Cn3cnc4ccccc43-cc2-c1

>  <original SMILES>  (61) 
[H]c1c([H])c(N([H])S(=O)(=O)C([H])([H])[H])c([H])c(C([H])([H])N([H])C([H])([H])c2c([H])c([H])c(C([H])([H])n3c([H])nc4c([H])c([H])c([H])c([H])c43)c([H])c2[H])c1[H]

$$$$
644_x0494_0A_-x0499_0B_N
     RDKit          3D

 31 34  0  0  0  0  0  0  0  0999 V2000
   -2.4420   39.5960  -59.6900 N   0  0  0  0  0  0  0  0  0  0  0  0
   -1.5380   38.8910  -59.5350 C   0  0  0  0  0  0  0  0  0  0  0  0
   -0.3690   38.0090  -59.2460 C   0  0  0  0  0  0  0  0  0  0  0  0
    0.8110   38.1640  -59.9430 C   0  0  0  0  0  0  0  0  0  0  0  0
   -0.4690   37.0340  -58.2530 C   0  0  0  0  0  0  0  0  0  0  0  0
    1.9130   37.3630  -59.6420 C   0  0  0  0  0  0  0  0  0  0  0  0
    0.6310   36.2270  -57.9480 C   0  0  0  0  0  0  0  0  0  0  0  0
    1.8330   36.3920  -58.6330 C   0  0  0  0  0  0  0  0  0  0  0  0
    3.0550   35.5730  -58.3210 C   0  0  0  0  0  0  0  0  0  0  0  0
    4.1130   35.8410  -58.8310 O   0  0  0  0  0  0  0  0  0  0  0  0
    2.9190   34.5180  -57.3570 N   0  0  0  0  0  0  0  0  0  0  0  0
    3.9760   34.3020  -56.5290 C   0  0  0  0  0  0  0  0  0  0  0  0
    5.2130   34.2890  -57.2140 C   0  0  0  0  0  0  0  0  0  0  0  0
    6.2390   34.5420  -56.5820 O   0  0  0  0  0  0  0  0  0  0  0  0
    5.1640   33.9780  -58.5980 N   0  0  0  0  0  0  0  0  0  0  0  0
    5.7740   32.8440  -59.1950 C   0  0  0  0  0  0  0  0  0  0  0  0
    5.8880   32.6710  -60.5840 C   0  0  0  0  0  0  0  0  0  0  0  0
    6.2620   31.8740  -58.3490 C   0  0  0  0  0  0  0  0  0  0  0  0
    6.4960   31.5230  -61.0370 C   0  0  0  0  0  0  0  0  0  0  0  0
    6.8490   30.7420  -58.7890 C   0  0  0  0  0  0  0  0  0  0  0  0
    6.9740   30.5620  -60.1420 C   0  0  0  0  0  0  0  0  0  0  0  0
    7.2650   29.8170  -57.8650 C   0  0  0  0  0  0  0  0  0  0  0  0
    6.3420   28.9620  -57.3740 N   0  0  0  0  0  0  0  0  0  0  0  0
    5.2870   29.2720  -56.4190 C   0  0  0  0  0  0  0  0  0  0  0  0
    6.1780   27.6520  -57.6720 C   0  0  0  0  0  0  0  0  0  0  0  0
    4.6030   28.3530  -56.1700 N   0  0  0  0  0  0  0  0  0  0  0  0
    5.0820   27.3010  -56.9070 C   0  0  0  0  0  0  0  0  0  0  0  0
    6.8400   26.7610  -58.5010 C   0  0  0  0  0  0  0  0  0  0  0  0
    4.6110   25.9600  -56.9760 C   0  0  0  0  0  0  0  0  0  0  0  0
    6.3950   25.4520  -58.5720 C   0  0  0  0  0  0  0  0  0  0  0  0
    5.2750   25.0570  -57.8030 C   0  0  0  0  0  0  0  0  0  0  0  0
  1  2  3  0
  2  3  1  0
  3  4  2  0
  3  5  1  0
  4  6  1  0
  5  7  2  0
  6  8  2  0
  7  8  1  0
  8  9  1  0
  9 10  2  0
  9 11  1  0
 11 12  1  0
 12 13  1  0
 13 14  2  0
 13 15  1  0
 15 16  1  0
 16 17  2  0
 16 18  1  0
 17 19  1  0
 18 20  2  0
 19 21  2  0
 20 21  1  0
 20 22  1  0
 22 23  1  0
 23 24  1  0
 23 25  1  0
 24 26  2  0
 25 27  2  0
 26 27  1  0
 25 28  1  0
 27 29  1  0
 28 30  2  0
 29 31  2  0
 30 31  1  0
M  END
>  <ref_pdb>  (62) 
x0494

>  <ref_mols>  (62) 
x0494_0A,x0499_0B

>  <fragmensteinOld_score>  (62) 
-3.3754443239841239

>  <LE_score>  (62) 
-0.27679594363760934

>  <comRMSD_score>  (62) 
0.99604971529657571

>  <fragmensteinNew_score>  (62) 
0.29734034192525027

>  <meanSuCosW_score>  (62) 
0.59349090602344634

>  <maxSuCosW_score>  (62) 
0.75149373946232245

>  <minSuCosW_score>  (62) 
0.43548807258457023

>  <sumSuCosW_score>  (62) 
1.1869818120468927

>  <SA_score>  (62) 
7.7820507772799896

>  <aLogP_score>  (62) 
3.3247800000000023

>  <hbondD_score>  (62) 
2

>  <hbondA_score>  (62) 
4

>  <polarSurfaceArea_score>  (62) 
99.810000000000016

>  <rotableBonds_score>  (62) 
6

>  <SC_score>  (62) 
4.3056288750045635

>  <energyPoseVsEnsemble_score>  (62) 
3.1043077715560714

>  <xcos_score>  (62) 
23.691370684173805

>  <plipMedianPreser_score>  (62) 
0

>  <plipGlobalPreser_score>  (62) 
0

>  <plipGlobalPreserOverMw_score>  (62) 
0

>  <original_name>  (62) 
x0494-0A-x0499-0B-N-Cc1ccc-C-O-NCC-O-Nc2cccc-Cn3cnc4ccccc43-c2-cc1

>  <original SMILES>  (62) 
[H]c1c([H])c(N([H])C(=O)C([H])([H])N([H])C(=O)c2c([H])c([H])c(C#N)c([H])c2[H])c([H])c(C([H])([H])n2c([H])nc3c([H])c([H])c([H])c([H])c32)c1[H]

$$$$
652_x0499_0B_-x0116_0B_O
     RDKit          3D

 29 32  0  0  0  0  0  0  0  0999 V2000
    5.6030   31.5670  -59.5450 O   0  0  0  0  0  0  0  0  0  0  0  0
    6.6010   32.2000  -59.7970 C   0  0  0  0  0  0  0  0  0  0  0  0
    7.9630   31.6250  -59.4790 C   0  0  0  0  0  0  0  0  0  0  0  0
    6.5670   33.4500  -60.4040 N   0  0  0  0  0  0  0  0  0  0  0  0
    7.8470   30.3500  -58.8930 C   0  0  0  0  0  0  0  0  0  0  0  0
    7.6980   34.4030  -60.2810 C   0  0  0  0  0  0  0  0  0  0  0  0
    6.3890   33.3540  -61.7200 C   0  0  0  0  0  0  0  0  0  0  0  0
    7.5460   30.2480  -57.5120 C   0  0  0  0  0  0  0  0  0  0  0  0
    8.5040   34.8860  -61.5070 C   0  0  0  0  0  0  0  0  0  0  0  0
    7.4860   33.0930  -62.4890 C   0  0  0  0  0  0  0  0  0  0  0  0
    6.5040   29.3270  -57.2620 N   0  0  0  0  0  0  0  0  0  0  0  0
    8.1010   34.3940  -62.6820 N   0  0  0  0  0  0  0  0  0  0  0  0
    5.4230   29.5570  -56.4000 C   0  0  0  0  0  0  0  0  0  0  0  0
    6.3020   27.9440  -57.8250 C   0  0  0  0  0  0  0  0  0  0  0  0
    9.1420   34.5490  -63.5890 C   0  0  0  0  0  0  0  0  0  0  0  0
    4.5390   28.4870  -56.3380 N   0  0  0  0  0  0  0  0  0  0  0  0
    5.1200   27.5150  -57.2370 C   0  0  0  0  0  0  0  0  0  0  0  0
    6.9810   27.0950  -58.7220 C   0  0  0  0  0  0  0  0  0  0  0  0
   10.1630   33.5500  -63.5630 O   0  0  0  0  0  0  0  0  0  0  0  0
    9.2880   35.5970  -64.5330 C   0  0  0  0  0  0  0  0  0  0  0  0
    4.5290   26.2020  -57.5150 C   0  0  0  0  0  0  0  0  0  0  0  0
    6.4270   25.8130  -59.0100 C   0  0  0  0  0  0  0  0  0  0  0  0
    8.2390   35.6750  -65.4800 O   0  0  0  0  0  0  0  0  0  0  0  0
   10.3160   36.4180  -64.4760 N   0  0  0  0  0  0  0  0  0  0  0  0
    5.2270   25.3080  -58.4570 C   0  0  0  0  0  0  0  0  0  0  0  0
   11.3700   35.8040  -65.0850 C   0  0  0  0  0  0  0  0  0  0  0  0
   10.3120   37.7540  -64.8870 C   0  0  0  0  0  0  0  0  0  0  0  0
   12.1740   36.6820  -65.7720 C   0  0  0  0  0  0  0  0  0  0  0  0
   11.5550   37.9200  -65.5670 C   0  0  0  0  0  0  0  0  0  0  0  0
  1  2  2  0
  2  3  1  0
  2  4  1  0
  3  5  1  0
  4  6  1  0
  4  7  1  0
  5  8  1  0
  6  9  1  0
  7 10  1  0
  8 11  1  0
  9 12  1  0
 10 12  1  0
 11 13  1  0
 11 14  1  0
 12 15  1  0
 13 16  2  0
 14 17  2  0
 16 17  1  0
 14 18  1  0
 15 19  2  0
 15 20  1  0
 17 21  1  0
 18 22  2  0
 20 23  2  0
 20 24  1  0
 21 25  2  0
 22 25  1  0
 24 26  1  0
 24 27  1  0
 26 28  1  0
 27 29  1  0
 28 29  1  0
M  END
>  <ref_pdb>  (63) 
x0116

>  <ref_mols>  (63) 
x0116_0B,x0499_0B

>  <fragmensteinOld_score>  (63) 
-2.9363253392678716

>  <LE_score>  (63) 
-0.21461586986492032

>  <comRMSD_score>  (63) 
0.7372162278676182

>  <fragmensteinNew_score>  (63) 
-0.043650157038225168

>  <meanSuCosW_score>  (63) 
0.55658969164074923

>  <maxSuCosW_score>  (63) 
0.62641475475050146

>  <minSuCosW_score>  (63) 
0.486764628530997

>  <sumSuCosW_score>  (63) 
1.1131793832814985

>  <SA_score>  (63) 
6.9211622690639034

>  <aLogP_score>  (63) 
1.1096999999999997

>  <hbondD_score>  (63) 
0

>  <hbondA_score>  (63) 
4

>  <polarSurfaceArea_score>  (63) 
78.75

>  <rotableBonds_score>  (63) 
4

>  <SC_score>  (63) 
3.4914959966650199

>  <energyPoseVsEnsemble_score>  (63) 
2.260517880479163

>  <xcos_score>  (63) 
20.556873329583169

>  <plipMedianPreser_score>  (63) 
0

>  <plipGlobalPreser_score>  (63) 
0

>  <plipGlobalPreserOverMw_score>  (63) 
0

>  <original_name>  (63) 
x0499-0B-x0116-0B-O-C-CCCn1cnc2ccccc21-N1CCN-C-O-C-O-N2CCCC2-CC1

>  <original SMILES>  (63) 
[H]c1c([H])c([H])c2c(nc([H])n2C([H])([H])C([H])([H])C([H])([H])C(=O)N2C([H])([H])C([H])([H])N(C(=O)C(=O)N3C([H])([H])C([H])([H])C([H])([H])C3([H])[H])C([H])([H])C2([H])[H])c1[H]

$$$$
655_x0499_0B_-x0116_0B_O
     RDKit          3D

 32 35  0  0  0  0  0  0  0  0999 V2000
    9.4610   32.6480  -61.7010 O   0  0  0  0  0  0  0  0  0  0  0  0
    8.9220   32.7750  -62.7980 C   0  0  0  0  0  0  0  0  0  0  0  0
    9.3290   33.6190  -63.7710 N   0  0  0  0  0  0  0  0  0  0  0  0
    7.6820   31.9380  -63.1720 C   0  0  0  0  0  0  0  0  0  0  0  0
    9.1270   34.9940  -63.5850 C   0  0  0  0  0  0  0  0  0  0  0  0
    7.8230   30.8410  -63.6940 O   0  0  0  0  0  0  0  0  0  0  0  0
    6.4410   32.6200  -62.8280 N   0  0  0  0  0  0  0  0  0  0  0  0
    9.2910   35.8340  -64.6680 C   0  0  0  0  0  0  0  0  0  0  0  0
    6.3900   33.3910  -61.5950 C   0  0  0  0  0  0  0  0  0  0  0  0
    8.3690   35.9770  -65.4720 O   0  0  0  0  0  0  0  0  0  0  0  0
   10.4510   36.4420  -64.7560 N   0  0  0  0  0  0  0  0  0  0  0  0
    6.6350   32.5520  -60.5240 C   0  0  0  0  0  0  0  0  0  0  0  0
   10.2590   37.7440  -65.1340 C   0  0  0  0  0  0  0  0  0  0  0  0
   11.5370   35.7660  -65.3500 C   0  0  0  0  0  0  0  0  0  0  0  0
    7.6060   31.5530  -60.6310 C   0  0  0  0  0  0  0  0  0  0  0  0
    5.9250   32.6740  -59.3320 C   0  0  0  0  0  0  0  0  0  0  0  0
   11.2920   38.6060  -65.4930 C   0  0  0  0  0  0  0  0  0  0  0  0
   12.4030   36.6350  -66.0360 C   0  0  0  0  0  0  0  0  0  0  0  0
    7.8620   30.6320  -59.4850 C   0  0  0  0  0  0  0  0  0  0  0  0
    6.1660   31.8090  -58.2570 C   0  0  0  0  0  0  0  0  0  0  0  0
   12.5250   37.9650  -65.6330 C   0  0  0  0  0  0  0  0  0  0  0  0
    7.1230   30.7890  -58.3210 C   0  0  0  0  0  0  0  0  0  0  0  0
    7.3290   29.9430  -57.2320 C   0  0  0  0  0  0  0  0  0  0  0  0
    6.4000   29.0150  -57.1290 N   0  0  0  0  0  0  0  0  0  0  0  0
    5.4010   29.3290  -56.2520 C   0  0  0  0  0  0  0  0  0  0  0  0
    6.1860   27.7960  -57.6950 C   0  0  0  0  0  0  0  0  0  0  0  0
    4.5200   28.3500  -56.2080 N   0  0  0  0  0  0  0  0  0  0  0  0
    4.9900   27.3950  -57.0980 C   0  0  0  0  0  0  0  0  0  0  0  0
    6.8730   27.0150  -58.6340 C   0  0  0  0  0  0  0  0  0  0  0  0
    4.4510   26.1580  -57.4520 C   0  0  0  0  0  0  0  0  0  0  0  0
    6.3200   25.7730  -58.9830 C   0  0  0  0  0  0  0  0  0  0  0  0
    5.1140   25.3560  -58.3890 C   0  0  0  0  0  0  0  0  0  0  0  0
  1  2  2  0
  2  3  1  0
  2  4  1  0
  3  5  1  0
  4  6  2  0
  4  7  1  0
  5  8  1  0
  7  9  1  0
  8 10  2  0
  8 11  1  0
  9 12  1  0
 11 13  1  0
 11 14  1  0
 12 15  2  0
 12 16  1  0
 13 17  1  0
 14 18  1  0
 15 19  1  0
 16 20  2  0
 17 21  1  0
 18 21  1  0
 19 22  2  0
 20 22  1  0
 22 23  1  0
 23 24  1  0
 24 25  1  0
 24 26  1  0
 25 27  2  0
 26 28  2  0
 27 28  1  0
 26 29  1  0
 28 30  1  0
 29 31  2  0
 30 32  2  0
 31 32  1  0
M  END
>  <ref_pdb>  (64) 
x0116

>  <ref_mols>  (64) 
x0116_0B,x0499_0B

>  <fragmensteinOld_score>  (64) 
-2.3184129763796779

>  <LE_score>  (64) 
-0.16081793565269312

>  <comRMSD_score>  (64) 
0.67514898605863538

>  <fragmensteinNew_score>  (64) 
0.21934662688936979

>  <meanSuCosW_score>  (64) 
0.66499324695948037

>  <maxSuCosW_score>  (64) 
0.81819638722049259

>  <minSuCosW_score>  (64) 
0.51179010669846825

>  <sumSuCosW_score>  (64) 
1.3299864939189607

>  <SA_score>  (64) 
7.2239761968262401

>  <aLogP_score>  (64) 
1.8294999999999999

>  <hbondD_score>  (64) 
2

>  <hbondA_score>  (64) 
4

>  <polarSurfaceArea_score>  (64) 
96.329999999999998

>  <rotableBonds_score>  (64) 
6

>  <SC_score>  (64) 
4.1031103529169242

>  <energyPoseVsEnsemble_score>  (64) 
3.0111722741828038

>  <xcos_score>  (64) 
23.573997838602562

>  <plipMedianPreser_score>  (64) 
0

>  <plipGlobalPreser_score>  (64) 
0

>  <plipGlobalPreserOverMw_score>  (64) 
0

>  <original_name>  (64) 
x0499-0B-x0116-0B-O-C-NCC-O-N1CCCCC1-C-O-NCc1ccc-Cn2cnc3ccccc32-cc1

>  <original SMILES>  (64) 
[H]c1c([H])c(C([H])([H])n2c([H])nc3c([H])c([H])c([H])c([H])c32)c([H])c([H])c1C([H])([H])N([H])C(=O)C(=O)N([H])C([H])([H])C(=O)N1C([H])([H])C([H])([H])C([H])([H])C([H])([H])C1([H])[H]

$$$$
656_x0499_0B_-x0116_0B_O
     RDKit          3D

 30 33  0  0  0  0  0  0  0  0999 V2000
    7.7390   34.7380  -61.4860 O   0  0  0  0  0  0  0  0  0  0  0  0
    7.6240   34.0560  -62.5030 C   0  0  0  0  0  0  0  0  0  0  0  0
    8.6580   33.9210  -63.4910 N   0  0  0  0  0  0  0  0  0  0  0  0
    6.5100   33.3480  -62.8170 N   0  0  0  0  0  0  0  0  0  0  0  0
    9.6320   34.9700  -63.5000 C   0  0  0  0  0  0  0  0  0  0  0  0
    5.7800   33.0720  -61.7620 C   0  0  0  0  0  0  0  0  0  0  0  0
    9.4160   35.8190  -64.7310 C   0  0  0  0  0  0  0  0  0  0  0  0
    6.2760   32.2860  -60.7470 C   0  0  0  0  0  0  0  0  0  0  0  0
    8.3510   35.8990  -65.3630 O   0  0  0  0  0  0  0  0  0  0  0  0
   10.6460   36.5360  -65.0690 N   0  0  0  0  0  0  0  0  0  0  0  0
    5.7710   32.4780  -59.4860 C   0  0  0  0  0  0  0  0  0  0  0  0
    7.2560   31.3110  -60.9290 C   0  0  0  0  0  0  0  0  0  0  0  0
   10.4190   37.8390  -65.7160 C   0  0  0  0  0  0  0  0  0  0  0  0
   11.8740   35.8610  -65.4430 C   0  0  0  0  0  0  0  0  0  0  0  0
    6.1940   31.7080  -58.4070 C   0  0  0  0  0  0  0  0  0  0  0  0
    7.6970   30.5320  -59.8570 C   0  0  0  0  0  0  0  0  0  0  0  0
   11.5580   38.6980  -65.1550 C   0  0  0  0  0  0  0  0  0  0  0  0
   12.7130   36.8900  -66.1680 C   0  0  0  0  0  0  0  0  0  0  0  0
    7.1520   30.7200  -58.5730 C   0  0  0  0  0  0  0  0  0  0  0  0
   12.8470   37.8600  -65.1730 C   0  0  0  0  0  0  0  0  0  0  0  0
    7.5260   29.9500  -57.4690 C   0  0  0  0  0  0  0  0  0  0  0  0
    6.5550   29.0790  -57.2450 N   0  0  0  0  0  0  0  0  0  0  0  0
    5.5880   29.4340  -56.3350 C   0  0  0  0  0  0  0  0  0  0  0  0
    6.1940   27.7900  -57.7170 C   0  0  0  0  0  0  0  0  0  0  0  0
    4.6670   28.4570  -56.2160 N   0  0  0  0  0  0  0  0  0  0  0  0
    5.0320   27.4200  -57.0790 C   0  0  0  0  0  0  0  0  0  0  0  0
    6.9520   27.1270  -58.6540 C   0  0  0  0  0  0  0  0  0  0  0  0
    4.3520   26.0630  -57.3650 C   0  0  0  0  0  0  0  0  0  0  0  0
    6.3990   25.7600  -59.0440 C   0  0  0  0  0  0  0  0  0  0  0  0
    5.1210   25.2320  -58.4150 C   0  0  0  0  0  0  0  0  0  0  0  0
  1  2  2  0
  2  3  1  0
  2  4  1  0
  3  5  1  0
  4  6  1  0
  5  7  1  0
  6  8  1  0
  7  9  2  0
  7 10  1  0
  8 11  2  0
  8 12  1  0
 10 13  1  0
 10 14  1  0
 11 15  1  0
 12 16  2  0
 13 17  1  0
 14 18  1  0
 15 19  2  0
 16 19  1  0
 17 20  1  0
 18 20  1  0
 19 21  1  0
 21 22  1  0
 22 23  1  0
 22 24  1  0
 23 25  2  0
 24 26  2  0
 25 26  1  0
 24 27  1  0
 26 28  1  0
 27 29  2  0
 28 30  2  0
 29 30  1  0
M  END
>  <ref_pdb>  (65) 
x0116

>  <ref_mols>  (65) 
x0116_0B,x0499_0B

>  <fragmensteinOld_score>  (65) 
-3.3944908931424163

>  <LE_score>  (65) 
-0.21355001899777026

>  <comRMSD_score>  (65) 
0.57222922844331359

>  <fragmensteinNew_score>  (65) 
-0.48705470714143495

>  <meanSuCosW_score>  (65) 
0.68453806817453966

>  <maxSuCosW_score>  (65) 
0.8642526494424656

>  <minSuCosW_score>  (65) 
0.50482348690661383

>  <sumSuCosW_score>  (65) 
1.3690761363490793

>  <SA_score>  (65) 
7.4032579283554112

>  <aLogP_score>  (65) 
2.8963000000000001

>  <hbondD_score>  (65) 
2

>  <hbondA_score>  (65) 
3

>  <polarSurfaceArea_score>  (65) 
79.260000000000005

>  <rotableBonds_score>  (65) 
6

>  <SC_score>  (65) 
3.9256917311038753

>  <energyPoseVsEnsemble_score>  (65) 
1.3264414121056958

>  <xcos_score>  (65) 
25.63511019210322

>  <plipMedianPreser_score>  (65) 
0

>  <plipGlobalPreser_score>  (65) 
0

>  <plipGlobalPreserOverMw_score>  (65) 
0

>  <original_name>  (65) 
x0499-0B-x0116-0B-O-C-NCC-O-N1CCCCC1-NCc1ccc-Cn2cnc3ccccc32-cc1

>  <original SMILES>  (65) 
[H]c1c([H])c(C([H])([H])n2c([H])nc3c([H])c([H])c([H])c([H])c32)c([H])c([H])c1C([H])([H])N([H])C(=O)N([H])C([H])([H])C(=O)N1C([H])([H])C([H])([H])C([H])([H])C([H])([H])C1([H])[H]

$$$$
0_x0034_0B_-x0176_0B_CCCNS
     RDKit          3D

 18 18  0  0  0  0  0  0  0  0999 V2000
  -16.5960    8.8210  -71.0400 C   0  0  0  0  0  0  0  0  0  0  0  0
  -16.0360    7.7390  -71.9190 C   0  0  0  0  0  0  0  0  0  0  0  0
  -14.5060    7.6670  -72.0430 C   0  0  0  0  0  0  0  0  0  0  0  0
  -14.0730    7.2390  -73.3840 N   0  0  0  0  0  0  0  0  0  0  0  0
  -12.6410    6.3900  -73.6480 S   0  0  0  0  0  0  0  0  0  0  0  0
  -11.4850    7.1670  -73.2550 O   0  0  0  0  0  0  0  0  0  0  0  0
  -12.8440    5.0280  -73.2280 O   0  0  0  0  0  0  0  0  0  0  0  0
  -12.7260    6.4670  -75.3050 N   0  0  0  0  0  0  0  0  0  0  0  0
  -13.2390    5.3270  -76.0650 C   0  0  0  0  0  0  0  0  0  0  0  0
  -12.3900    5.0720  -77.1510 C   0  0  0  0  0  0  0  0  0  0  0  0
  -11.2870    4.2300  -76.9850 C   0  0  0  0  0  0  0  0  0  0  0  0
  -10.2190    4.3250  -77.8560 C   0  0  0  0  0  0  0  0  0  0  0  0
  -11.2140    3.2710  -75.9530 C   0  0  0  0  0  0  0  0  0  0  0  0
   -9.0360    3.4150  -77.6910 C   0  0  0  0  0  0  0  0  0  0  0  0
  -10.1160    2.4160  -75.8040 C   0  0  0  0  0  0  0  0  0  0  0  0
   -9.0080    2.4590  -76.6640 C   0  0  0  0  0  0  0  0  0  0  0  0
   -7.8170    1.5170  -76.5140 C   0  0  0  0  0  0  0  0  0  0  0  0
   -8.3640    0.0780  -76.4910 C   0  0  0  0  0  0  0  0  0  0  0  0
  1  2  1  0
  2  3  1  0
  3  4  1  0
  5  4  1  0
  5  6  2  0
  5  7  2  0
  5  8  1  0
  8  9  1  0
  9 10  1  0
 10 11  1  0
 11 12  2  0
 11 13  1  0
 12 14  1  0
 13 15  2  0
 14 16  2  0
 15 16  1  0
 16 17  1  0
 17 18  1  0
M  END
>  <ref_pdb>  (2) 
x0034

>  <ref_mols>  (2) 
x0034_0B,x0176_0B

>  <fragmensteinOld_score>  (2) 
-2.1739200606839715

>  <LE_score>  (2) 
-0.27479140232134491

>  <comRMSD_score>  (2) 
0.33516210952994624

>  <fragmensteinNew_score>  (2) 
-0.52405550388933753

>  <meanSuCosW_score>  (2) 
0.34418162851064804

>  <maxSuCosW_score>  (2) 
0.35959249357002082

>  <minSuCosW_score>  (2) 
0.32877076345127532

>  <sumSuCosW_score>  (2) 
0.68836325702129608

>  <SA_score>  (2) 
6.2506932278181804

>  <aLogP_score>  (2) 
1.6254999999999999

>  <hbondD_score>  (2) 
2

>  <hbondA_score>  (2) 
2

>  <polarSurfaceArea_score>  (2) 
58.200000000000003

>  <rotableBonds_score>  (2) 
8

>  <SC_score>  (2) 
3.1362580305735124

>  <energyPoseVsEnsemble_score>  (2) 
1.132763515813028

>  <xcos_score>  (2) 
22.836078577383031

>  <plipMedianPreser_score>  (2) 
0

>  <plipGlobalPreser_score>  (2) 
0.27272727272727271

>  <plipGlobalPreserOverMw_score>  (2) 
0.10095767819576107

>  <original_name>  (2) 
x0034-0B-x0176-0B-CCCNS-O-O-NCCc1ccc-CC-cc1

>  <original SMILES>  (2) 
[H]c1c([H])c(C([H])([H])C([H])([H])N([H])S(=O)(=O)N([H])C([H])([H])C([H])([H])C([H])([H])[H])c([H])c([H])c1C([H])([H])C([H])([H])[H]

$$$$
3_x0034_0B_-x0176_0B_CCNS
     RDKit          3D

 17 17  0  0  0  0  0  0  0  0999 V2000
  -14.7370    8.4140  -71.2980 C   0  0  0  0  0  0  0  0  0  0  0  0
  -14.1620    8.5050  -72.6960 C   0  0  0  0  0  0  0  0  0  0  0  0
  -14.0930    7.1810  -73.3400 N   0  0  0  0  0  0  0  0  0  0  0  0
  -12.6270    6.4140  -73.6570 S   0  0  0  0  0  0  0  0  0  0  0  0
  -11.5000    7.2140  -73.2350 O   0  0  0  0  0  0  0  0  0  0  0  0
  -12.7820    5.0340  -73.2820 O   0  0  0  0  0  0  0  0  0  0  0  0
  -12.7120    6.5480  -75.3130 N   0  0  0  0  0  0  0  0  0  0  0  0
  -13.2610    5.4100  -76.0770 C   0  0  0  0  0  0  0  0  0  0  0  0
  -12.3480    5.1110  -77.2430 C   0  0  0  0  0  0  0  0  0  0  0  0
  -11.2730    4.2260  -77.0500 C   0  0  0  0  0  0  0  0  0  0  0  0
  -11.1900    3.3980  -75.9330 C   0  0  0  0  0  0  0  0  0  0  0  0
  -10.2360    4.1570  -77.9810 C   0  0  0  0  0  0  0  0  0  0  0  0
  -10.1530    2.5080  -75.7050 C   0  0  0  0  0  0  0  0  0  0  0  0
   -9.1560    3.2820  -77.8210 C   0  0  0  0  0  0  0  0  0  0  0  0
   -9.0380    2.4170  -76.7130 C   0  0  0  0  0  0  0  0  0  0  0  0
   -7.9500    1.5330  -76.5540 C   0  0  0  0  0  0  0  0  0  0  0  0
   -8.3810    0.0630  -76.4730 C   0  0  0  0  0  0  0  0  0  0  0  0
  1  2  1  0
  2  3  1  0
  4  3  1  0
  4  5  2  0
  4  6  2  0
  4  7  1  0
  7  8  1  0
  8  9  1  0
  9 10  1  0
 10 11  2  0
 10 12  1  0
 11 13  1  0
 12 14  2  0
 13 15  2  0
 14 15  1  0
 15 16  1  0
 16 17  1  0
M  END
>  <ref_pdb>  (3) 
x0034

>  <ref_mols>  (3) 
x0034_0B,x0176_0B

>  <fragmensteinOld_score>  (3) 
-2.2852344205297976

>  <LE_score>  (3) 
-0.26164611663546689

>  <comRMSD_score>  (3) 
0.31367926933916329

>  <fragmensteinNew_score>  (3) 
-0.80387589858502562

>  <meanSuCosW_score>  (3) 
0.34605762805033913

>  <maxSuCosW_score>  (3) 
0.3649995434068033

>  <minSuCosW_score>  (3) 
0.32711571269387502

>  <sumSuCosW_score>  (3) 
0.69211525610067826

>  <SA_score>  (3) 
4.2669056862296681

>  <aLogP_score>  (3) 
1.2353999999999994

>  <hbondD_score>  (3) 
2

>  <hbondA_score>  (3) 
2

>  <polarSurfaceArea_score>  (3) 
58.200000000000003

>  <rotableBonds_score>  (3) 
7

>  <SC_score>  (3) 
2.9931602191841149

>  <energyPoseVsEnsemble_score>  (3) 
1.0500352812190934

>  <xcos_score>  (3) 
23.268430927341669

>  <plipMedianPreser_score>  (3) 
0.5714285714285714

>  <plipGlobalPreser_score>  (3) 
0.36363636363636365

>  <plipGlobalPreserOverMw_score>  (3) 
0.14197638032999926

>  <original_name>  (3) 
x0034-0B-x0176-0B-CCNS-O-O-NCCc1ccc-CC-cc1

>  <original SMILES>  (3) 
[H]c1c([H])c(C([H])([H])C([H])([H])N([H])S(=O)(=O)N([H])C([H])([H])C([H])([H])[H])c([H])c([H])c1C([H])([H])C([H])([H])[H]

$$$$
4_x0034_0B_-x0176_0B_CCc1ccc
     RDKit          3D

 20 20  0  0  0  0  0  0  0  0999 V2000
  -13.2490    5.6050  -76.0560 C   0  0  0  0  0  0  0  0  0  0  0  0
  -12.4590    5.2620  -77.2880 C   0  0  0  0  0  0  0  0  0  0  0  0
  -11.2700    4.3090  -77.1230 C   0  0  0  0  0  0  0  0  0  0  0  0
  -11.2070    3.4460  -75.8890 C   0  0  0  0  0  0  0  0  0  0  0  0
  -10.2430    4.2040  -78.0570 C   0  0  0  0  0  0  0  0  0  0  0  0
  -10.1230    2.5700  -75.7370 C   0  0  0  0  0  0  0  0  0  0  0  0
   -9.1840    3.3240  -77.8650 C   0  0  0  0  0  0  0  0  0  0  0  0
   -9.1180    2.5060  -76.7170 C   0  0  0  0  0  0  0  0  0  0  0  0
   -8.0410    1.6200  -76.5510 C   0  0  0  0  0  0  0  0  0  0  0  0
   -8.6390   -0.0860  -76.5560 S   0  0  0  0  0  0  0  0  0  0  0  0
   -9.5770   -0.2390  -75.4790 O   0  0  0  0  0  0  0  0  0  0  0  0
   -8.9550   -0.4450  -77.9160 O   0  0  0  0  0  0  0  0  0  0  0  0
   -7.3100   -1.0030  -76.1200 N   0  0  0  0  0  0  0  0  0  0  0  0
   -6.1370   -1.1440  -76.9890 C   0  0  0  0  0  0  0  0  0  0  0  0
   -6.3470   -2.2550  -77.8220 C   0  0  0  0  0  0  0  0  0  0  0  0
   -5.5270   -3.3920  -77.6520 N   0  0  0  0  0  0  0  0  0  0  0  0
   -4.2260   -3.5420  -78.6810 S   0  0  0  0  0  0  0  0  0  0  0  0
   -2.8800   -3.4580  -77.5270 C   0  0  0  0  0  0  0  0  0  0  0  0
   -4.2540   -4.8760  -79.2410 O   0  0  0  0  0  0  0  0  0  0  0  0
   -4.2160   -2.3660  -79.5250 O   0  0  0  0  0  0  0  0  0  0  0  0
  1  2  1  0
  2  3  1  0
  3  4  2  0
  3  5  1  0
  4  6  1  0
  5  7  2  0
  6  8  2  0
  7  8  1  0
  8  9  1  0
  9 10  1  0
 10 11  2  0
 10 12  2  0
 10 13  1  0
 13 14  1  0
 14 15  1  0
 15 16  1  0
 17 16  1  0
 17 18  1  0
 17 19  2  0
 17 20  2  0
M  END
>  <ref_pdb>  (4) 
x0034

>  <ref_mols>  (4) 
x0034_0B,x0176_0B

>  <fragmensteinOld_score>  (4) 
-0.97157369400128257

>  <LE_score>  (4) 
-0.276427617295955

>  <comRMSD_score>  (4) 
0.34470782210091955

>  <fragmensteinNew_score>  (4) 
1.4718008813896282

>  <meanSuCosW_score>  (4) 
0.3479812434401916

>  <maxSuCosW_score>  (4) 
0.49681862257309012

>  <minSuCosW_score>  (4) 
0.19914386430729306

>  <sumSuCosW_score>  (4) 
0.6959624868803832

>  <SA_score>  (4) 
7.8268186013066785

>  <aLogP_score>  (4) 
0.21760000000000029

>  <hbondD_score>  (4) 
2

>  <hbondA_score>  (4) 
4

>  <polarSurfaceArea_score>  (4) 
92.340000000000003

>  <rotableBonds_score>  (4) 
8

>  <SC_score>  (4) 
2.6397470986229523

>  <energyPoseVsEnsemble_score>  (4) 
0.45225168779159353

>  <xcos_score>  (4) 
22.997364375912092

>  <plipMedianPreser_score>  (4) 
0.80000000000000004

>  <plipGlobalPreser_score>  (4) 
0.36363636363636365

>  <plipGlobalPreserOverMw_score>  (4) 
0.11360567266627282

>  <original_name>  (4) 
x0034-0B-x0176-0B-CCc1ccc-CS-O-O-NCCNS-C-O-O-cc1

>  <original SMILES>  (4) 
[H]c1c([H])c(C([H])([H])S(=O)(=O)N([H])C([H])([H])C([H])([H])N([H])S(=O)(=O)C([H])([H])[H])c([H])c([H])c1C([H])([H])C([H])([H])[H]

$$$$
5_x0034_0B_-x0176_0B_CNCc1ccc
     RDKit          3D

 15 15  0  0  0  0  0  0  0  0999 V2000
   -9.2500   -0.1070  -77.8140 C   0  0  0  0  0  0  0  0  0  0  0  0
   -7.9780    0.5720  -77.5290 N   0  0  0  0  0  0  0  0  0  0  0  0
   -7.9670    1.6310  -76.5100 C   0  0  0  0  0  0  0  0  0  0  0  0
   -9.1280    2.5950  -76.7600 C   0  0  0  0  0  0  0  0  0  0  0  0
  -10.3330    2.4240  -75.8840 C   0  0  0  0  0  0  0  0  0  0  0  0
   -9.1370    3.5950  -77.7320 C   0  0  0  0  0  0  0  0  0  0  0  0
  -11.4280    3.2710  -76.0740 C   0  0  0  0  0  0  0  0  0  0  0  0
  -10.2600    4.4080  -77.8840 C   0  0  0  0  0  0  0  0  0  0  0  0
  -11.3970    4.2580  -77.0710 C   0  0  0  0  0  0  0  0  0  0  0  0
  -12.4990    5.0950  -77.2500 C   0  0  0  0  0  0  0  0  0  0  0  0
  -13.3320    5.4440  -76.1620 N   0  0  0  0  0  0  0  0  0  0  0  0
  -13.0800    6.9380  -75.4190 S   0  0  0  0  0  0  0  0  0  0  0  0
  -12.5900    6.4690  -73.7490 C   0  0  0  0  0  0  0  0  0  0  0  0
  -14.3800    7.5420  -75.3360 O   0  0  0  0  0  0  0  0  0  0  0  0
  -11.9930    7.6300  -76.0550 O   0  0  0  0  0  0  0  0  0  0  0  0
  1  2  1  0
  2  3  1  0
  3  4  1  0
  4  5  2  0
  4  6  1  0
  5  7  1  0
  6  8  2  0
  7  9  2  0
  8  9  1  0
  9 10  1  0
 10 11  1  0
 12 11  1  0
 12 13  1  0
 12 14  2  0
 12 15  2  0
M  END
>  <ref_pdb>  (5) 
x0034

>  <ref_mols>  (5) 
x0034_0B,x0176_0B

>  <fragmensteinOld_score>  (5) 
-1.4295676858655928

>  <LE_score>  (5) 
-0.22155461312446709

>  <comRMSD_score>  (5) 
0.70096168925716895

>  <fragmensteinNew_score>  (5) 
0.38504000477765765

>  <meanSuCosW_score>  (5) 
0.26499560386386262

>  <maxSuCosW_score>  (5) 
0.31580492412775024

>  <minSuCosW_score>  (5) 
0.21418628359997502

>  <sumSuCosW_score>  (5) 
0.52999120772772523

>  <SA_score>  (5) 
7.8195670077310631

>  <aLogP_score>  (5) 
0.4552000000000001

>  <hbondD_score>  (5) 
2

>  <hbondA_score>  (5) 
3

>  <polarSurfaceArea_score>  (5) 
58.199999999999996

>  <rotableBonds_score>  (5) 
5

>  <SC_score>  (5) 
2.610226534399533

>  <energyPoseVsEnsemble_score>  (5) 
0.64606587177842567

>  <xcos_score>  (5) 
14.203512320719273

>  <plipMedianPreser_score>  (5) 
0

>  <plipGlobalPreser_score>  (5) 
0

>  <plipGlobalPreserOverMw_score>  (5) 
0

>  <original_name>  (5) 
x0034-0B-x0176-0B-CNCc1ccc-CNS-C-O-O-cc1

>  <original SMILES>  (5) 
[H]c1c([H])c(C([H])([H])N([H])S(=O)(=O)C([H])([H])[H])c([H])c([H])c1C([H])([H])N([H])C([H])([H])[H]

$$$$
6_x0034_0B_-x0176_0B_CS
     RDKit          3D

 17 17  0  0  0  0  0  0  0  0999 V2000
   -6.9830   -0.9910  -76.4050 C   0  0  0  0  0  0  0  0  0  0  0  0
   -8.5290   -0.1330  -76.5830 S   0  0  0  0  0  0  0  0  0  0  0  0
   -8.9650   -0.3010  -77.9460 O   0  0  0  0  0  0  0  0  0  0  0  0
   -9.3730   -0.5030  -75.4760 O   0  0  0  0  0  0  0  0  0  0  0  0
   -8.0400    1.5670  -76.3520 C   0  0  0  0  0  0  0  0  0  0  0  0
   -9.2330    2.5220  -76.4880 C   0  0  0  0  0  0  0  0  0  0  0  0
  -10.4470    2.3350  -75.6200 C   0  0  0  0  0  0  0  0  0  0  0  0
   -9.2340    3.5500  -77.4010 C   0  0  0  0  0  0  0  0  0  0  0  0
  -11.5410    3.2060  -75.7930 C   0  0  0  0  0  0  0  0  0  0  0  0
  -10.3470    4.3730  -77.5410 C   0  0  0  0  0  0  0  0  0  0  0  0
  -11.4930    4.2170  -76.7680 C   0  0  0  0  0  0  0  0  0  0  0  0
  -12.5650    5.0790  -76.9950 C   0  0  0  0  0  0  0  0  0  0  0  0
  -13.3860    5.4340  -75.8960 N   0  0  0  0  0  0  0  0  0  0  0  0
  -13.1520    6.9280  -75.1940 S   0  0  0  0  0  0  0  0  0  0  0  0
  -12.5340    6.4760  -73.5910 C   0  0  0  0  0  0  0  0  0  0  0  0
  -14.4770    7.4820  -75.0180 O   0  0  0  0  0  0  0  0  0  0  0  0
  -12.1430    7.6490  -75.9390 O   0  0  0  0  0  0  0  0  0  0  0  0
  2  1  1  0
  2  3  2  0
  2  4  2  0
  2  5  1  0
  5  6  1  0
  6  7  2  0
  6  8  1  0
  7  9  1  0
  8 10  2  0
  9 11  2  0
 10 11  1  0
 11 12  1  0
 12 13  1  0
 14 13  1  0
 14 15  1  0
 14 16  2  0
 14 17  2  0
M  END
>  <ref_pdb>  (6) 
x0034

>  <ref_mols>  (6) 
x0034_0B,x0176_0B

>  <fragmensteinOld_score>  (6) 
-2.1006044887046431

>  <LE_score>  (6) 
-0.25280778709864943

>  <comRMSD_score>  (6) 
0.46118821710968416

>  <fragmensteinNew_score>  (6) 
-0.50001967350716625

>  <meanSuCosW_score>  (6) 
0.3234012440675092

>  <maxSuCosW_score>  (6) 
0.44086185360636904

>  <minSuCosW_score>  (6) 
0.20594063452864939

>  <sumSuCosW_score>  (6) 
0.64680248813501839

>  <SA_score>  (6) 
7.4495027463032351

>  <aLogP_score>  (6) 
0.28040000000000026

>  <hbondD_score>  (6) 
1

>  <hbondA_score>  (6) 
4

>  <polarSurfaceArea_score>  (6) 
80.310000000000002

>  <rotableBonds_score>  (6) 
5

>  <SC_score>  (6) 
2.5429611969443915

>  <energyPoseVsEnsemble_score>  (6) 
0.60158363881713051

>  <xcos_score>  (6) 
16.993355747495283

>  <plipMedianPreser_score>  (6) 
0

>  <plipGlobalPreser_score>  (6) 
0

>  <plipGlobalPreserOverMw_score>  (6) 
0

>  <original_name>  (6) 
x0034-0B-x0176-0B-CS-O-O-Cc1ccc-CNS-C-O-O-cc1

>  <original SMILES>  (6) 
[H]c1c([H])c(C([H])([H])S(=O)(=O)C([H])([H])[H])c([H])c([H])c1C([H])([H])N([H])S(=O)(=O)C([H])([H])[H]

$$$$
7_x0034_0B_-x0176_0B_CS
     RDKit          3D

 14 14  0  0  0  0  0  0  0  0999 V2000
  -12.5810    6.4900  -73.7120 C   0  0  0  0  0  0  0  0  0  0  0  0
  -13.1540    6.9760  -75.3290 S   0  0  0  0  0  0  0  0  0  0  0  0
  -12.1090    7.6150  -76.0800 O   0  0  0  0  0  0  0  0  0  0  0  0
  -14.4400    7.5970  -75.1580 O   0  0  0  0  0  0  0  0  0  0  0  0
  -13.4310    5.5030  -76.0670 N   0  0  0  0  0  0  0  0  0  0  0  0
  -12.6510    5.1920  -77.2670 C   0  0  0  0  0  0  0  0  0  0  0  0
  -11.5290    4.2030  -76.9340 C   0  0  0  0  0  0  0  0  0  0  0  0
  -10.2580    4.4090  -77.6800 C   0  0  0  0  0  0  0  0  0  0  0  0
  -11.5710    3.1380  -76.0190 C   0  0  0  0  0  0  0  0  0  0  0  0
   -9.1700    3.5530  -77.4510 C   0  0  0  0  0  0  0  0  0  0  0  0
  -10.4720    2.3020  -75.8210 C   0  0  0  0  0  0  0  0  0  0  0  0
   -9.2780    2.5050  -76.5370 C   0  0  0  0  0  0  0  0  0  0  0  0
   -8.1900    1.6590  -76.3500 C   0  0  0  0  0  0  0  0  0  0  0  0
   -8.4170    0.3280  -75.9200 N   0  0  0  0  0  0  0  0  0  0  0  0
  1  2  1  0
  2  3  2  0
  2  4  2  0
  2  5  1  0
  5  6  1  0
  6  7  1  0
  7  8  2  0
  7  9  1  0
  8 10  1  0
  9 11  2  0
 10 12  2  0
 11 12  1  0
 12 13  1  0
 13 14  1  0
M  END
>  <ref_pdb>  (7) 
x0034

>  <ref_mols>  (7) 
x0034_0B,x0176_0B

>  <fragmensteinOld_score>  (7) 
-1.4119035971812464

>  <LE_score>  (7) 
-0.14753457354665039

>  <comRMSD_score>  (7) 
0.57823469700535535

>  <fragmensteinNew_score>  (7) 
-0.049551834884995039

>  <meanSuCosW_score>  (7) 
0.25415441010254025

>  <maxSuCosW_score>  (7) 
0.29447921378990743

>  <minSuCosW_score>  (7) 
0.21382960641517307

>  <sumSuCosW_score>  (7) 
0.5083088202050805

>  <SA_score>  (7) 
7.650453522708041

>  <aLogP_score>  (7) 
0.19450000000000001

>  <hbondD_score>  (7) 
2

>  <hbondA_score>  (7) 
3

>  <polarSurfaceArea_score>  (7) 
72.189999999999998

>  <rotableBonds_score>  (7) 
4

>  <SC_score>  (7) 
2.9213176713250544

>  <energyPoseVsEnsemble_score>  (7) 
0.73838019880563888

>  <xcos_score>  (7) 
13.725276726920812

>  <plipMedianPreser_score>  (7) 
0

>  <plipGlobalPreser_score>  (7) 
0

>  <plipGlobalPreserOverMw_score>  (7) 
0

>  <original_name>  (7) 
x0034-0B-x0176-0B-CS-O-O-NCc1ccc-CN-cc1

>  <original SMILES>  (7) 
[H]c1c([H])c(C([H])([H])N([H])S(=O)(=O)C([H])([H])[H])c([H])c([H])c1C([H])([H])N([H])[H]

$$$$
8_x0034_0B_-x0176_0B_CS
     RDKit          3D

 16 16  0  0  0  0  0  0  0  0999 V2000
  -12.5780    6.5440  -73.6010 C   0  0  0  0  0  0  0  0  0  0  0  0
  -13.1860    6.9640  -75.2160 S   0  0  0  0  0  0  0  0  0  0  0  0
  -14.5260    7.4700  -75.0810 O   0  0  0  0  0  0  0  0  0  0  0  0
  -12.1690    7.6790  -75.9450 O   0  0  0  0  0  0  0  0  0  0  0  0
  -13.3520    5.4570  -75.9050 N   0  0  0  0  0  0  0  0  0  0  0  0
  -12.5510    5.2370  -77.1040 C   0  0  0  0  0  0  0  0  0  0  0  0
  -11.3750    4.2880  -76.8530 C   0  0  0  0  0  0  0  0  0  0  0  0
  -10.2360    4.4750  -77.7780 C   0  0  0  0  0  0  0  0  0  0  0  0
  -11.2800    3.2840  -75.8590 C   0  0  0  0  0  0  0  0  0  0  0  0
   -9.1150    3.6510  -77.6560 C   0  0  0  0  0  0  0  0  0  0  0  0
  -10.1310    2.4690  -75.7840 C   0  0  0  0  0  0  0  0  0  0  0  0
   -9.0620    2.6490  -76.6880 C   0  0  0  0  0  0  0  0  0  0  0  0
   -7.5950    1.6380  -76.7060 S   0  0  0  0  0  0  0  0  0  0  0  0
   -8.1980    0.0680  -76.5140 N   0  0  0  0  0  0  0  0  0  0  0  0
   -6.7250    1.9680  -75.6220 O   0  0  0  0  0  0  0  0  0  0  0  0
   -7.0950    1.6800  -78.0640 O   0  0  0  0  0  0  0  0  0  0  0  0
  1  2  1  0
  2  3  2  0
  2  4  2  0
  2  5  1  0
  5  6  1  0
  6  7  1  0
  7  8  2  0
  7  9  1  0
  8 10  1  0
  9 11  2  0
 10 12  2  0
 11 12  1  0
 12 13  1  0
 13 14  1  0
 13 15  2  0
 13 16  2  0
M  END
>  <ref_pdb>  (8) 
x0034

>  <ref_mols>  (8) 
x0034_0B,x0176_0B

>  <fragmensteinOld_score>  (8) 
-1.1511974912487133

>  <LE_score>  (8) 
-0.13692209033152025

>  <comRMSD_score>  (8) 
0.4512597062099758

>  <fragmensteinNew_score>  (8) 
0.23342645621306013

>  <meanSuCosW_score>  (8) 
0.26046135447798036

>  <maxSuCosW_score>  (8) 
0.31255319953651872

>  <minSuCosW_score>  (8) 
0.20836950941944193

>  <sumSuCosW_score>  (8) 
0.52092270895596071

>  <SA_score>  (8) 
7.132655734707912

>  <aLogP_score>  (8) 
-0.61679999999999935

>  <hbondD_score>  (8) 
2

>  <hbondA_score>  (8) 
4

>  <polarSurfaceArea_score>  (8) 
106.32999999999998

>  <rotableBonds_score>  (8) 
4

>  <SC_score>  (8) 
2.73910420528117

>  <energyPoseVsEnsemble_score>  (8) 
0.21950478159283024

>  <xcos_score>  (8) 
10.228899193895996

>  <plipMedianPreser_score>  (8) 
0.59999999999999998

>  <plipGlobalPreser_score>  (8) 
0.27272727272727271

>  <plipGlobalPreserOverMw_score>  (8) 
0.10329645367292394

>  <original_name>  (8) 
x0034-0B-x0176-0B-CS-O-O-NCc1ccc-S-N-O-O-cc1

>  <original SMILES>  (8) 
[H]c1c([H])c(S(=O)(=O)N([H])[H])c([H])c([H])c1C([H])([H])N([H])S(=O)(=O)C([H])([H])[H]

$$$$
9_x0034_0B_-x0176_0B_Cc1ccc
     RDKit          3D

 17 17  0  0  0  0  0  0  0  0999 V2000
   -8.1200    1.8570  -76.6340 C   0  0  0  0  0  0  0  0  0  0  0  0
   -9.3970    2.6370  -76.8180 C   0  0  0  0  0  0  0  0  0  0  0  0
   -9.4060    3.8160  -77.7840 C   0  0  0  0  0  0  0  0  0  0  0  0
  -10.5790    2.3250  -76.1460 C   0  0  0  0  0  0  0  0  0  0  0  0
  -10.7240    4.5450  -77.9210 C   0  0  0  0  0  0  0  0  0  0  0  0
  -11.7580    3.0470  -76.3160 C   0  0  0  0  0  0  0  0  0  0  0  0
  -10.6740    1.1460  -75.1650 C   0  0  0  0  0  0  0  0  0  0  0  0
  -11.8520    4.1450  -77.1880 C   0  0  0  0  0  0  0  0  0  0  0  0
  -13.0750    4.8330  -77.3220 C   0  0  0  0  0  0  0  0  0  0  0  0
  -13.4440    5.4350  -76.0140 N   0  0  0  0  0  0  0  0  0  0  0  0
  -12.5550    6.0470  -75.1600 C   0  0  0  0  0  0  0  0  0  0  0  0
  -12.9580    6.2720  -73.7220 C   0  0  0  0  0  0  0  0  0  0  0  0
  -13.9960    7.1790  -73.5390 N   0  0  0  0  0  0  0  0  0  0  0  0
  -15.3330    6.8230  -72.5660 S   0  0  0  0  0  0  0  0  0  0  0  0
  -14.9430    7.7300  -71.0720 C   0  0  0  0  0  0  0  0  0  0  0  0
  -15.2960    5.4050  -72.2910 O   0  0  0  0  0  0  0  0  0  0  0  0
  -16.4940    7.4500  -73.1440 O   0  0  0  0  0  0  0  0  0  0  0  0
  1  2  1  0
  2  3  2  0
  2  4  1  0
  3  5  1  0
  4  6  2  0
  4  7  1  0
  5  8  2  0
  6  8  1  0
  8  9  1  0
  9 10  1  0
 10 11  1  0
 11 12  1  0
 12 13  1  0
 14 13  1  0
 14 15  1  0
 14 16  2  0
 14 17  2  0
M  END
>  <ref_pdb>  (9) 
x0034

>  <ref_mols>  (9) 
x0034_0B,x0176_0B

>  <fragmensteinOld_score>  (9) 
-1.1445598859888104

>  <LE_score>  (9) 
-0.24899220215746787

>  <comRMSD_score>  (9) 
0.65100580350404791

>  <fragmensteinNew_score>  (9) 
0.97581483363026722

>  <meanSuCosW_score>  (9) 
0.25935421629098682

>  <maxSuCosW_score>  (9) 
0.29001025810337289

>  <minSuCosW_score>  (9) 
0.22869817447860075

>  <sumSuCosW_score>  (9) 
0.51870843258197363

>  <SA_score>  (9) 
5.3241990195006359

>  <aLogP_score>  (9) 
0.94224000000000052

>  <hbondD_score>  (9) 
2

>  <hbondA_score>  (9) 
3

>  <polarSurfaceArea_score>  (9) 
58.199999999999996

>  <rotableBonds_score>  (9) 
6

>  <SC_score>  (9) 
3.3434653921268005

>  <energyPoseVsEnsemble_score>  (9) 
1.2443633968533929

>  <xcos_score>  (9) 
13.709822879309993

>  <plipMedianPreser_score>  (9) 
0

>  <plipGlobalPreser_score>  (9) 
0

>  <plipGlobalPreserOverMw_score>  (9) 
0

>  <original_name>  (9) 
x0034-0B-x0176-0B-Cc1ccc-CNCCNS-C-O-O-cc1C

>  <original SMILES>  (9) 
[H]c1c([H])c(C([H])([H])N([H])C([H])([H])C([H])([H])N([H])S(=O)(=O)C([H])([H])[H])c([H])c(C([H])([H])[H])c1C([H])([H])[H]

$$$$
10_x0034_0B_-x0176_0B_Cc1ccc
     RDKit          3D

 14 14  0  0  0  0  0  0  0  0999 V2000
   -8.2040    1.4700  -76.3480 C   0  0  0  0  0  0  0  0  0  0  0  0
   -9.3850    2.3720  -76.5770 C   0  0  0  0  0  0  0  0  0  0  0  0
   -9.1890    3.6380  -77.3740 C   0  0  0  0  0  0  0  0  0  0  0  0
  -10.6580    2.0730  -76.0900 C   0  0  0  0  0  0  0  0  0  0  0  0
  -10.4320    4.4660  -77.5820 C   0  0  0  0  0  0  0  0  0  0  0  0
  -11.7560    2.9150  -76.3170 C   0  0  0  0  0  0  0  0  0  0  0  0
  -10.9920    0.4930  -75.0950 Br  0  0  0  0  0  0  0  0  0  0  0  0
  -11.6550    4.0980  -77.0590 C   0  0  0  0  0  0  0  0  0  0  0  0
  -12.7560    4.9310  -77.3000 C   0  0  0  0  0  0  0  0  0  0  0  0
  -13.4000    5.2810  -76.0180 N   0  0  0  0  0  0  0  0  0  0  0  0
  -13.1440    6.8080  -75.3850 S   0  0  0  0  0  0  0  0  0  0  0  0
  -12.5800    6.4710  -73.7080 C   0  0  0  0  0  0  0  0  0  0  0  0
  -12.1000    7.4780  -76.1040 O   0  0  0  0  0  0  0  0  0  0  0  0
  -14.4430    7.4080  -75.2690 O   0  0  0  0  0  0  0  0  0  0  0  0
  1  2  1  0
  2  3  2  0
  2  4  1  0
  3  5  1  0
  4  6  2  0
  4  7  1  0
  5  8  2  0
  6  8  1  0
  8  9  1  0
  9 10  1  0
 11 10  1  0
 11 12  1  0
 11 13  2  0
 11 14  2  0
M  END
>  <ref_pdb>  (10) 
x0034

>  <ref_mols>  (10) 
x0034_0B,x0176_0B

>  <fragmensteinOld_score>  (10) 
-1.1175923490370587

>  <LE_score>  (10) 
-0.19041923747314088

>  <comRMSD_score>  (10) 
0.74408460085550476

>  <fragmensteinNew_score>  (10) 
0.6649898374619525

>  <meanSuCosW_score>  (10) 
0.25913198997269898

>  <maxSuCosW_score>  (10) 
0.30474339474270606

>  <minSuCosW_score>  (10) 
0.21352058520269193

>  <sumSuCosW_score>  (10) 
0.51826397994539797

>  <SA_score>  (10) 
7.2956206982548695

>  <aLogP_score>  (10) 
1.8067200000000001

>  <hbondD_score>  (10) 
1

>  <hbondA_score>  (10) 
2

>  <polarSurfaceArea_score>  (10) 
46.170000000000002

>  <rotableBonds_score>  (10) 
3

>  <SC_score>  (10) 
2.6145588195154774

>  <energyPoseVsEnsemble_score>  (10) 
0.63721025991654756

>  <xcos_score>  (10) 
13.794238263665404

>  <plipMedianPreser_score>  (10) 
0

>  <plipGlobalPreser_score>  (10) 
0

>  <plipGlobalPreserOverMw_score>  (10) 
0

>  <original_name>  (10) 
x0034-0B-x0176-0B-Cc1ccc-CNS-C-O-O-cc1Br

>  <original SMILES>  (10) 
[H]c1c([H])c(C([H])([H])N([H])S(=O)(=O)C([H])([H])[H])c([H])c(Br)c1C([H])([H])[H]

$$$$
11_x0034_0B_-x0176_0B_Cc1ccc
     RDKit          3D

 14 14  0  0  0  0  0  0  0  0999 V2000
   -8.1670    1.2820  -76.5900 C   0  0  0  0  0  0  0  0  0  0  0  0
   -9.2650    2.2910  -76.7730 C   0  0  0  0  0  0  0  0  0  0  0  0
  -10.5570    2.0700  -75.9970 C   0  0  0  0  0  0  0  0  0  0  0  0
   -9.1350    3.4030  -77.6310 C   0  0  0  0  0  0  0  0  0  0  0  0
  -11.6360    3.0940  -76.2280 C   0  0  0  0  0  0  0  0  0  0  0  0
  -10.1960    4.2990  -77.7900 C   0  0  0  0  0  0  0  0  0  0  0  0
   -7.9350    3.6020  -78.3310 C   0  0  0  0  0  0  0  0  0  0  0  0
  -11.4130    4.1590  -77.1160 C   0  0  0  0  0  0  0  0  0  0  0  0
  -12.4090    5.1140  -77.3510 C   0  0  0  0  0  0  0  0  0  0  0  0
  -13.1870    5.3360  -76.1110 N   0  0  0  0  0  0  0  0  0  0  0  0
  -13.1770    6.8790  -75.4620 S   0  0  0  0  0  0  0  0  0  0  0  0
  -12.8230    6.5300  -73.8730 N   0  0  0  0  0  0  0  0  0  0  0  0
  -14.5220    7.3860  -75.4450 O   0  0  0  0  0  0  0  0  0  0  0  0
  -12.0970    7.6140  -76.0650 O   0  0  0  0  0  0  0  0  0  0  0  0
  1  2  1  0
  2  3  2  0
  2  4  1  0
  3  5  1  0
  4  6  2  0
  4  7  1  0
  5  8  2  0
  6  8  1  0
  8  9  1  0
  9 10  1  0
 11 10  1  0
 11 12  1  0
 11 13  2  0
 11 14  2  0
M  END
>  <ref_pdb>  (11) 
x0034

>  <ref_mols>  (11) 
x0034_0B,x0176_0B

>  <fragmensteinOld_score>  (11) 
-0.88769215140821134

>  <LE_score>  (11) 
-0.16654281282225308

>  <comRMSD_score>  (11) 
0.87847909988080097

>  <fragmensteinNew_score>  (11) 
0.95765526016343272

>  <meanSuCosW_score>  (11) 
0.25971586424359777

>  <maxSuCosW_score>  (11) 
0.3101025490182992

>  <minSuCosW_score>  (11) 
0.20932917946889631

>  <sumSuCosW_score>  (11) 
0.51943172848719554

>  <SA_score>  (11) 
7.5922631114521684

>  <aLogP_score>  (11) 
0.59654000000000051

>  <hbondD_score>  (11) 
2

>  <hbondA_score>  (11) 
2

>  <polarSurfaceArea_score>  (11) 
72.189999999999998

>  <rotableBonds_score>  (11) 
3

>  <SC_score>  (11) 
2.8892979622176913

>  <energyPoseVsEnsemble_score>  (11) 
0.95126692789626666

>  <xcos_score>  (11) 
12.915257973344815

>  <plipMedianPreser_score>  (11) 
0

>  <plipGlobalPreser_score>  (11) 
0

>  <plipGlobalPreserOverMw_score>  (11) 
0

>  <original_name>  (11) 
x0034-0B-x0176-0B-Cc1ccc-CNS-N-O-O-cc1C

>  <original SMILES>  (11) 
[H]c1c([H])c(C([H])([H])N([H])S(=O)(=O)N([H])[H])c([H])c(C([H])([H])[H])c1C([H])([H])[H]

$$$$
12_x0034_0B_-x0176_0B_Cc1ccc
     RDKit          3D

 20 21  0  0  0  0  0  0  0  0999 V2000
   -8.0700    1.9700  -76.4870 C   0  0  0  0  0  0  0  0  0  0  0  0
   -9.3760    2.7020  -76.6570 C   0  0  0  0  0  0  0  0  0  0  0  0
   -9.4870    3.7970  -77.7210 C   0  0  0  0  0  0  0  0  0  0  0  0
  -10.4960    2.4000  -75.8620 C   0  0  0  0  0  0  0  0  0  0  0  0
  -10.8350    4.4730  -77.8300 C   0  0  0  0  0  0  0  0  0  0  0  0
  -11.7070    3.0750  -76.0290 C   0  0  0  0  0  0  0  0  0  0  0  0
  -11.8970    4.0940  -76.9870 C   0  0  0  0  0  0  0  0  0  0  0  0
  -13.1610    4.7160  -77.0830 C   0  0  0  0  0  0  0  0  0  0  0  0
  -13.6230    5.1370  -75.7280 N   0  0  0  0  0  0  0  0  0  0  0  0
  -12.4320    5.8650  -74.8260 S   0  0  0  0  0  0  0  0  0  0  0  0
  -11.4080    4.8740  -74.6740 O   0  0  0  0  0  0  0  0  0  0  0  0
  -12.2290    7.1560  -75.4430 O   0  0  0  0  0  0  0  0  0  0  0  0
  -12.9730    6.1260  -73.2840 N   0  0  0  0  0  0  0  0  0  0  0  0
  -14.1700    6.9750  -73.2470 C   0  0  0  0  0  0  0  0  0  0  0  0
  -14.7640    7.1750  -74.5960 C   0  0  0  0  0  0  0  0  0  0  0  0
  -15.8270    6.3720  -75.0080 C   0  0  0  0  0  0  0  0  0  0  0  0
  -14.2280    8.1610  -75.4290 C   0  0  0  0  0  0  0  0  0  0  0  0
  -16.4170    6.5550  -76.3790 C   0  0  0  0  0  0  0  0  0  0  0  0
  -14.7240    8.3800  -76.7030 C   0  0  0  0  0  0  0  0  0  0  0  0
  -15.7780    7.6430  -77.2320 C   0  0  0  0  0  0  0  0  0  0  0  0
  1  2  1  0
  2  3  2  0
  2  4  1  0
  3  5  1  0
  4  6  2  0
  5  7  2  0
  6  7  1  0
  7  8  1  0
  8  9  1  0
 10  9  1  0
 10 11  2  0
 10 12  2  0
 10 13  1  0
 13 14  1  0
 14 15  1  0
 15 16  2  0
 15 17  1  0
 16 18  1  0
 17 19  2  0
 18 20  2  0
 19 20  1  0
M  END
>  <ref_pdb>  (12) 
x0034

>  <ref_mols>  (12) 
x0034_0B,x0176_0B

>  <fragmensteinOld_score>  (12) 
0.67432813969956173

>  <LE_score>  (12) 
-0.022467324238520762

>  <comRMSD_score>  (12) 
0.67767783119675717

>  <fragmensteinNew_score>  (12) 
2.7042011926387377

>  <meanSuCosW_score>  (12) 
0.26623662235462459

>  <maxSuCosW_score>  (12) 
0.29901665073037259

>  <minSuCosW_score>  (12) 
0.23345659397887655

>  <sumSuCosW_score>  (12) 
0.53247324470924917

>  <SA_score>  (12) 
7.7092358436019133

>  <aLogP_score>  (12) 
2.1192199999999999

>  <hbondD_score>  (12) 
2

>  <hbondA_score>  (12) 
2

>  <polarSurfaceArea_score>  (12) 
58.200000000000003

>  <rotableBonds_score>  (12) 
6

>  <SC_score>  (12) 
2.297476920828049

>  <energyPoseVsEnsemble_score>  (12) 
2.0671068083720705

>  <xcos_score>  (12) 
13.375608198624315

>  <plipMedianPreser_score>  (12) 
0

>  <plipGlobalPreser_score>  (12) 
0

>  <plipGlobalPreserOverMw_score>  (12) 
0

>  <original_name>  (12) 
x0034-0B-x0176-0B-Cc1ccc-CNS-O-O-NCc2ccccc2-cc1

>  <original SMILES>  (12) 
[H]c1c([H])c([H])c(C([H])([H])N([H])S(=O)(=O)N([H])C([H])([H])c2c([H])c([H])c(C([H])([H])[H])c([H])c2[H])c([H])c1[H]

$$$$
13_x0034_0B_-x0176_0B_Cc1ccc
     RDKit          3D

 20 21  0  0  0  0  0  0  0  0999 V2000
  -12.4320    5.2680  -77.1540 C   0  0  0  0  0  0  0  0  0  0  0  0
  -11.2940    4.2870  -77.0250 C   0  0  0  0  0  0  0  0  0  0  0  0
  -10.2500    4.2460  -78.1290 C   0  0  0  0  0  0  0  0  0  0  0  0
  -11.1710    3.4240  -75.9340 C   0  0  0  0  0  0  0  0  0  0  0  0
   -9.1450    3.2400  -77.9410 C   0  0  0  0  0  0  0  0  0  0  0  0
  -10.1160    2.5070  -75.8200 C   0  0  0  0  0  0  0  0  0  0  0  0
  -12.0890    3.4710  -74.9570 F   0  0  0  0  0  0  0  0  0  0  0  0
   -9.1210    2.4110  -76.8050 C   0  0  0  0  0  0  0  0  0  0  0  0
   -8.0850    1.4660  -76.6520 C   0  0  0  0  0  0  0  0  0  0  0  0
   -8.0970    0.5120  -77.7880 N   0  0  0  0  0  0  0  0  0  0  0  0
   -7.2270   -0.9200  -77.6140 S   0  0  0  0  0  0  0  0  0  0  0  0
   -6.3840   -0.7250  -76.4710 O   0  0  0  0  0  0  0  0  0  0  0  0
   -8.2610   -1.9230  -77.5380 O   0  0  0  0  0  0  0  0  0  0  0  0
   -6.3180   -1.0310  -78.7570 O   0  0  0  0  0  0  0  0  0  0  0  0
   -5.1590   -1.7810  -78.7400 C   0  0  0  0  0  0  0  0  0  0  0  0
   -4.3970   -2.1530  -79.9900 C   0  0  0  0  0  0  0  0  0  0  0  0
   -4.6290   -2.2390  -77.5070 C   0  0  0  0  0  0  0  0  0  0  0  0
   -3.2320   -2.9120  -79.9120 C   0  0  0  0  0  0  0  0  0  0  0  0
   -3.4530   -3.0010  -77.4570 C   0  0  0  0  0  0  0  0  0  0  0  0
   -2.7110   -3.3730  -78.5750 C   0  0  0  0  0  0  0  0  0  0  0  0
  1  2  1  0
  2  3  2  0
  2  4  1  0
  3  5  1  0
  4  6  2  0
  4  7  1  0
  5  8  2  0
  6  8  1  0
  8  9  1  0
  9 10  1  0
 10 11  1  0
 11 12  2  0
 11 13  2  0
 11 14  1  0
 14 15  1  0
 15 16  2  0
 15 17  1  0
 16 18  1  0
 17 19  2  0
 18 20  2  0
 19 20  1  0
M  END
>  <ref_pdb>  (13) 
x0034

>  <ref_mols>  (13) 
x0034_0B,x0176_0B

>  <fragmensteinOld_score>  (13) 
0.33000520793467758

>  <LE_score>  (13) 
-0.19878835020785762

>  <comRMSD_score>  (13) 
0.54443161889082259

>  <fragmensteinNew_score>  (13) 
3.7544420731511581

>  <meanSuCosW_score>  (13) 
0.27363654356018136

>  <maxSuCosW_score>  (13) 
0.36771382735696778

>  <minSuCosW_score>  (13) 
0.1795592597633949

>  <sumSuCosW_score>  (13) 
0.54727308712036271

>  <SA_score>  (13) 
7.4052026308845553

>  <aLogP_score>  (13) 
2.5475200000000005

>  <hbondD_score>  (13) 
1

>  <hbondA_score>  (13) 
3

>  <polarSurfaceArea_score>  (13) 
55.400000000000006

>  <rotableBonds_score>  (13) 
5

>  <SC_score>  (13) 
2.7601265457584017

>  <energyPoseVsEnsemble_score>  (13) 
1.8484151995884444

>  <xcos_score>  (13) 
14.629322837413913

>  <plipMedianPreser_score>  (13) 
0.80000000000000004

>  <plipGlobalPreser_score>  (13) 
0.36363636363636365

>  <plipGlobalPreserOverMw_score>  (13) 
0.12323822227488464

>  <original_name>  (13) 
x0034-0B-x0176-0B-Cc1ccc-CNS-O-O-Oc2ccccc2-cc1F

>  <original SMILES>  (13) 
[H]c1c([H])c([H])c(OS(=O)(=O)N([H])C([H])([H])c2c([H])c([H])c(C([H])([H])[H])c(F)c2[H])c([H])c1[H]

$$$$
17_x0034_0B_-x0176_0B_Cc1ccc
     RDKit          3D

 19 19  0  0  0  0  0  0  0  0999 V2000
  -12.4110    5.3720  -77.4410 C   0  0  0  0  0  0  0  0  0  0  0  0
  -11.3160    4.3730  -77.1600 C   0  0  0  0  0  0  0  0  0  0  0  0
  -10.1890    4.2460  -78.1770 C   0  0  0  0  0  0  0  0  0  0  0  0
  -11.3020    3.5660  -76.0140 C   0  0  0  0  0  0  0  0  0  0  0  0
   -9.1290    3.2210  -77.8620 C   0  0  0  0  0  0  0  0  0  0  0  0
  -10.2890    2.6360  -75.7860 C   0  0  0  0  0  0  0  0  0  0  0  0
  -12.2780    3.6710  -75.1040 F   0  0  0  0  0  0  0  0  0  0  0  0
   -9.2310    2.4620  -76.6900 C   0  0  0  0  0  0  0  0  0  0  0  0
   -8.1740    1.4660  -76.4750 N   0  0  0  0  0  0  0  0  0  0  0  0
   -8.7490   -0.1010  -76.6650 S   0  0  0  0  0  0  0  0  0  0  0  0
   -8.9670   -0.3620  -78.0610 O   0  0  0  0  0  0  0  0  0  0  0  0
   -9.7810   -0.2770  -75.6760 O   0  0  0  0  0  0  0  0  0  0  0  0
   -7.4300   -1.1920  -76.1590 C   0  0  0  0  0  0  0  0  0  0  0  0
   -7.5150   -2.4120  -76.8450 C   0  0  0  0  0  0  0  0  0  0  0  0
   -8.6120   -3.2890  -76.6390 N   0  0  0  0  0  0  0  0  0  0  0  0
   -8.5100   -4.8450  -77.2430 S   0  0  0  0  0  0  0  0  0  0  0  0
   -7.2240   -5.5500  -76.2380 C   0  0  0  0  0  0  0  0  0  0  0  0
   -9.7490   -5.5270  -76.9450 O   0  0  0  0  0  0  0  0  0  0  0  0
   -8.0290   -4.7140  -78.6010 O   0  0  0  0  0  0  0  0  0  0  0  0
  1  2  1  0
  2  3  2  0
  2  4  1  0
  3  5  1  0
  4  6  2  0
  4  7  1  0
  5  8  2  0
  6  8  1  0
  8  9  1  0
 10  9  1  0
 10 11  2  0
 10 12  2  0
 10 13  1  0
 13 14  1  0
 14 15  1  0
 16 15  1  0
 16 17  1  0
 16 18  2  0
 16 19  2  0
M  END
>  <ref_pdb>  (14) 
x0034

>  <ref_mols>  (14) 
x0034_0B,x0176_0B

>  <fragmensteinOld_score>  (14) 
-0.84285392057194586

>  <LE_score>  (14) 
-0.28103662483135061

>  <comRMSD_score>  (14) 
0.48129257875345655

>  <fragmensteinNew_score>  (14) 
1.7585894434965033

>  <meanSuCosW_score>  (14) 
0.29820133319099629

>  <maxSuCosW_score>  (14) 
0.41502696120024068

>  <minSuCosW_score>  (14) 
0.18137570518175195

>  <sumSuCosW_score>  (14) 
0.59640266638199257

>  <SA_score>  (14) 
7.3699722744117597

>  <aLogP_score>  (14) 
0.42501999999999979

>  <hbondD_score>  (14) 
2

>  <hbondA_score>  (14) 
4

>  <polarSurfaceArea_score>  (14) 
92.340000000000003

>  <rotableBonds_score>  (14) 
6

>  <SC_score>  (14) 
3.2673214504069623

>  <energyPoseVsEnsemble_score>  (14) 
0.50294664990542526

>  <xcos_score>  (14) 
13.739149658131147

>  <plipMedianPreser_score>  (14) 
0.80000000000000004

>  <plipGlobalPreser_score>  (14) 
0.36363636363636365

>  <plipGlobalPreserOverMw_score>  (14) 
0.11728475246015911

>  <original_name>  (14) 
x0034-0B-x0176-0B-Cc1ccc-NS-O-O-CCNS-C-O-O-cc1F

>  <original SMILES>  (14) 
[H]c1c([H])c(C([H])([H])[H])c(F)c([H])c1N([H])S(=O)(=O)C([H])([H])C([H])([H])N([H])S(=O)(=O)C([H])([H])[H]

$$$$
18_x0034_0B_-x0212_0B_Cc1ccc
     RDKit          3D

 19 20  0  0  0  0  0  0  0  0999 V2000
  -13.4410    4.8090  -77.1310 C   0  0  0  0  0  0  0  0  0  0  0  0
  -12.0190    4.3320  -77.0890 C   0  0  0  0  0  0  0  0  0  0  0  0
  -11.1660    4.5790  -78.2970 C   0  0  0  0  0  0  0  0  0  0  0  0
  -11.4360    3.6200  -75.8740 C   0  0  0  0  0  0  0  0  0  0  0  0
   -9.7580    4.1200  -78.2480 C   0  0  0  0  0  0  0  0  0  0  0  0
  -10.1020    3.2020  -75.8670 C   0  0  0  0  0  0  0  0  0  0  0  0
  -12.1990    3.3990  -74.7980 F   0  0  0  0  0  0  0  0  0  0  0  0
   -9.2790    3.4370  -76.9800 C   0  0  0  0  0  0  0  0  0  0  0  0
   -7.8660    3.0640  -76.9870 C   0  0  0  0  0  0  0  0  0  0  0  0
   -7.0930    3.7750  -76.4100 O   0  0  0  0  0  0  0  0  0  0  0  0
   -7.5010    1.8970  -77.7270 N   0  0  0  0  0  0  0  0  0  0  0  0
   -7.1090    2.2260  -79.0990 C   0  0  0  0  0  0  0  0  0  0  0  0
   -7.9430    1.3810  -80.0410 C   0  0  0  0  0  0  0  0  0  0  0  0
   -8.3720    0.0490  -79.5200 C   0  0  0  0  0  0  0  0  0  0  0  0
   -8.3140    1.7630  -81.3100 C   0  0  0  0  0  0  0  0  0  0  0  0
   -9.1420   -0.7670  -80.3490 C   0  0  0  0  0  0  0  0  0  0  0  0
   -9.0780    0.9260  -82.1070 C   0  0  0  0  0  0  0  0  0  0  0  0
   -7.9370    2.9450  -81.7680 F   0  0  0  0  0  0  0  0  0  0  0  0
   -9.4880   -0.3280  -81.6320 C   0  0  0  0  0  0  0  0  0  0  0  0
  1  2  1  0
  2  3  2  0
  2  4  1  0
  3  5  1  0
  4  6  2  0
  4  7  1  0
  5  8  2  0
  6  8  1  0
  8  9  1  0
  9 10  2  0
  9 11  1  0
 11 12  1  0
 12 13  1  0
 13 14  2  0
 13 15  1  0
 14 16  1  0
 15 17  2  0
 15 18  1  0
 16 19  2  0
 17 19  1  0
M  END
>  <ref_pdb>  (15) 
x0034

>  <ref_mols>  (15) 
x0034_0B,x0212_0B

>  <fragmensteinOld_score>  (15) 
-2.1977134459628003

>  <LE_score>  (15) 
-0.24972553407674994

>  <comRMSD_score>  (15) 
0.95113379715954949

>  <fragmensteinNew_score>  (15) 
-0.10673266952339189

>  <meanSuCosW_score>  (15) 
0.30583409590274424

>  <maxSuCosW_score>  (15) 
0.36324813900440595

>  <minSuCosW_score>  (15) 
0.24842005280108248

>  <sumSuCosW_score>  (15) 
0.61166819180548848

>  <SA_score>  (15) 
7.221620203934398

>  <aLogP_score>  (15) 
3.2032200000000017

>  <hbondD_score>  (15) 
1

>  <hbondA_score>  (15) 
1

>  <polarSurfaceArea_score>  (15) 
29.100000000000001

>  <rotableBonds_score>  (15) 
3

>  <SC_score>  (15) 
2.7797456193328589

>  <energyPoseVsEnsemble_score>  (15) 
1.311582132294685

>  <xcos_score>  (15) 
14.1802498192577

>  <plipMedianPreser_score>  (15) 
0.80000000000000004

>  <plipGlobalPreser_score>  (15) 
0.7142857142857143

>  <plipGlobalPreserOverMw_score>  (15) 
0.27357151791357215

>  <original_name>  (15) 
x0034-0B-x0212-0B-Cc1ccc-C-O-NCc2ccccc2F-cc1F

>  <original SMILES>  (15) 
[H]c1c([H])c([H])c(C([H])([H])N([H])C(=O)c2c([H])c([H])c(C([H])([H])[H])c(F)c2[H])c(F)c1[H]

$$$$
21_x0034_0B_-x0212_0B_NS
     RDKit          3D

 18 19  0  0  0  0  0  0  0  0999 V2000
  -12.4900    0.5030  -75.1090 N   0  0  0  0  0  0  0  0  0  0  0  0
  -11.0600    1.1690  -74.5380 S   0  0  0  0  0  0  0  0  0  0  0  0
  -11.3810    1.9090  -73.3390 O   0  0  0  0  0  0  0  0  0  0  0  0
  -10.0550    0.1180  -74.5100 O   0  0  0  0  0  0  0  0  0  0  0  0
  -10.5930    2.3130  -75.8260 C   0  0  0  0  0  0  0  0  0  0  0  0
   -9.2700    2.0130  -76.4510 C   0  0  0  0  0  0  0  0  0  0  0  0
  -11.3520    3.3830  -76.2480 C   0  0  0  0  0  0  0  0  0  0  0  0
   -8.8140    2.9150  -77.5670 C   0  0  0  0  0  0  0  0  0  0  0  0
  -10.8780    4.1890  -77.3050 C   0  0  0  0  0  0  0  0  0  0  0  0
  -12.5290    3.6580  -75.6680 F   0  0  0  0  0  0  0  0  0  0  0  0
   -7.5090    2.5930  -78.1590 N   0  0  0  0  0  0  0  0  0  0  0  0
   -9.6440    3.9770  -77.9670 C   0  0  0  0  0  0  0  0  0  0  0  0
   -7.4100    2.7660  -79.5930 C   0  0  0  0  0  0  0  0  0  0  0  0
   -8.0060    1.6640  -80.2340 C   0  0  0  0  0  0  0  0  0  0  0  0
   -8.3900    1.5390  -81.5500 C   0  0  0  0  0  0  0  0  0  0  0  0
   -8.3360    0.4580  -79.6560 C   0  0  0  0  0  0  0  0  0  0  0  0
   -8.9420    0.3560  -81.8740 N   0  0  0  0  0  0  0  0  0  0  0  0
   -8.8930   -0.2910  -80.6760 N   0  0  0  0  0  0  0  0  0  0  0  0
  2  1  1  0
  2  3  2  0
  2  4  2  0
  2  5  1  0
  5  6  2  0
  5  7  1  0
  6  8  1  0
  7  9  2  0
  7 10  1  0
  8 11  1  0
  8 12  2  0
  9 12  1  0
 11 13  1  0
 13 14  1  0
 14 15  1  0
 14 16  2  0
 15 17  2  0
 16 18  1  0
 17 18  1  0
M  END
>  <ref_pdb>  (16) 
x0034

>  <ref_mols>  (16) 
x0034_0B,x0212_0B

>  <fragmensteinOld_score>  (16) 
-1.1758213689474415

>  <LE_score>  (16) 
-0.15956194153729319

>  <comRMSD_score>  (16) 
0.8262511738166487

>  <fragmensteinNew_score>  (16) 
0.57335208546811911

>  <meanSuCosW_score>  (16) 
0.2736215998916578

>  <maxSuCosW_score>  (16) 
0.28579236362414506

>  <minSuCosW_score>  (16) 
0.26145083615917053

>  <sumSuCosW_score>  (16) 
0.54724319978331559

>  <SA_score>  (16) 
7.0118328878015204

>  <aLogP_score>  (16) 
0.80830000000000024

>  <hbondD_score>  (16) 
3

>  <hbondA_score>  (16) 
4

>  <polarSurfaceArea_score>  (16) 
100.87

>  <rotableBonds_score>  (16) 
4

>  <SC_score>  (16) 
3.4136721457430088

>  <energyPoseVsEnsemble_score>  (16) 
0.3141928768864134

>  <xcos_score>  (16) 
10.649612774095646

>  <plipMedianPreser_score>  (16) 
0

>  <plipGlobalPreser_score>  (16) 
0

>  <plipGlobalPreserOverMw_score>  (16) 
0

>  <original_name>  (16) 
x0034-0B-x0212-0B-NS-O-O-c1cc-NCc2cn-nH-c2-ccc1F

>  <original SMILES>  (16) 
[H]c1nn([H])c([H])c1C([H])([H])N([H])c1c([H])c([H])c(F)c(S(=O)(=O)N([H])[H])c1[H]

$$$$
22_x0034_0B_-x0246_0B_C
     RDKit          3D

 19 19  0  0  0  0  0  0  0  0999 V2000
  -17.1660    4.7240  -80.2610 C   0  0  0  0  0  0  0  0  0  0  0  0
  -16.1260    4.0250  -79.3780 C   0  0  2  0  0  0  0  0  0  0  0  0
  -16.5010    3.0100  -78.8040 O   0  0  0  0  0  0  0  0  0  0  0  0
  -15.3460    5.0220  -78.5000 C   0  0  0  0  0  0  0  0  0  0  0  0
  -13.6120    4.7100  -78.6990 S   0  0  0  0  0  0  0  0  0  0  0  0
  -13.4660    3.2690  -78.7890 O   0  0  0  0  0  0  0  0  0  0  0  0
  -13.3030    5.5470  -79.8150 O   0  0  0  0  0  0  0  0  0  0  0  0
  -12.6610    5.2830  -77.2580 C   0  0  0  0  0  0  0  0  0  0  0  0
  -11.4350    4.3740  -77.0180 C   0  0  0  0  0  0  0  0  0  0  0  0
  -10.3120    4.3580  -78.0050 C   0  0  0  0  0  0  0  0  0  0  0  0
  -11.3150    3.5330  -75.8980 C   0  0  0  0  0  0  0  0  0  0  0  0
   -9.2070    3.5150  -77.7910 C   0  0  0  0  0  0  0  0  0  0  0  0
  -10.1940    2.7070  -75.7370 C   0  0  0  0  0  0  0  0  0  0  0  0
   -9.1410    2.6830  -76.6740 C   0  0  0  0  0  0  0  0  0  0  0  0
   -8.0380    1.8390  -76.5090 C   0  0  0  0  0  0  0  0  0  0  0  0
   -8.5620    0.1130  -76.5830 S   0  0  0  0  0  0  0  0  0  0  0  0
   -7.0500   -0.7770  -76.3240 C   0  0  0  0  0  0  0  0  0  0  0  0
   -8.9490   -0.1780  -77.9470 O   0  0  0  0  0  0  0  0  0  0  0  0
   -9.4360   -0.2030  -75.4710 O   0  0  0  0  0  0  0  0  0  0  0  0
  2  1  1  1
  2  3  1  0
  2  4  1  0
  5  4  1  0
  5  6  2  0
  5  7  2  0
  5  8  1  0
  8  9  1  0
  9 10  2  0
  9 11  1  0
 10 12  1  0
 11 13  2  0
 12 14  2  0
 13 14  1  0
 14 15  1  0
 16 15  1  0
 16 17  1  0
 16 18  2  0
 16 19  2  0
M  END
>  <ref_pdb>  (17) 
x0034

>  <ref_mols>  (17) 
x0034_0B,x0246_0B

>  <fragmensteinOld_score>  (17) 
-1.8509965813029576

>  <LE_score>  (17) 
-0.23049018343633607

>  <comRMSD_score>  (17) 
0.45535629919145559

>  <fragmensteinNew_score>  (17) 
-0.092734191059986815

>  <meanSuCosW_score>  (17) 
0.39058742893930665

>  <maxSuCosW_score>  (17) 
0.45178863865266849

>  <minSuCosW_score>  (17) 
0.3293862192259448

>  <sumSuCosW_score>  (17) 
0.78117485787861329

>  <SA_score>  (17) 
5.8254183089816145

>  <aLogP_score>  (17) 
0.52680000000000038

>  <hbondD_score>  (17) 
1

>  <hbondA_score>  (17) 
5

>  <polarSurfaceArea_score>  (17) 
88.509999999999991

>  <rotableBonds_score>  (17) 
6

>  <SC_score>  (17) 
2.3884355669307729

>  <energyPoseVsEnsemble_score>  (17) 
1.1415516394250982

>  <xcos_score>  (17) 
16.569442277924114

>  <plipMedianPreser_score>  (17) 
0

>  <plipGlobalPreser_score>  (17) 
0

>  <plipGlobalPreserOverMw_score>  (17) 
0

>  <original_name>  (17) 
x0034-0B-x0246-0B-C-C-H-O-CS-O-O-Cc1ccc-CS-C-O-O-cc1

>  <original SMILES>  (17) 
[H]O[C@@]([H])(C([H])([H])[H])C([H])([H])S(=O)(=O)C([H])([H])c1c([H])c([H])c(C([H])([H])S(=O)(=O)C([H])([H])[H])c([H])c1[H]

$$$$
23_x0034_0B_-x0246_0B_CC
     RDKit          3D

 17 17  0  0  0  0  0  0  0  0999 V2000
  -14.9940    5.3460  -78.5750 C   0  0  0  0  0  0  0  0  0  0  0  0
  -13.5410    4.8170  -78.5290 C   0  0  0  0  0  0  0  0  0  0  0  0
  -13.5180    3.2740  -78.6230 C   0  0  0  0  0  0  0  0  0  0  0  0
  -12.6670    5.2820  -77.3330 C   0  0  0  0  0  0  0  0  0  0  0  0
  -11.5080    4.3090  -77.0460 C   0  0  0  0  0  0  0  0  0  0  0  0
  -10.4650    4.1470  -78.1380 C   0  0  0  0  0  0  0  0  0  0  0  0
  -11.3340    3.5610  -75.8720 C   0  0  0  0  0  0  0  0  0  0  0  0
   -9.3170    3.1840  -77.9070 C   0  0  0  0  0  0  0  0  0  0  0  0
  -10.2360    2.6790  -75.7190 C   0  0  0  0  0  0  0  0  0  0  0  0
   -9.2330    2.4700  -76.7090 C   0  0  0  0  0  0  0  0  0  0  0  0
   -8.1680    1.5630  -76.4840 C   0  0  2  0  0  0  0  0  0  0  0  0
   -7.0620    2.0180  -76.7990 O   0  0  0  0  0  0  0  0  0  0  0  0
   -8.3510    0.1960  -76.7880 C   0  0  0  0  0  0  0  0  0  0  0  0
   -9.8410   -0.3680  -76.0040 S   0  0  0  0  0  0  0  0  0  0  0  0
  -11.0980    0.1460  -77.1530 C   0  0  0  0  0  0  0  0  0  0  0  0
  -10.0440    0.3420  -74.7720 O   0  0  0  0  0  0  0  0  0  0  0  0
   -9.8010   -1.8210  -76.0010 O   0  0  0  0  0  0  0  0  0  0  0  0
  1  2  1  0
  2  3  1  0
  2  4  1  0
  4  5  1  0
  5  6  2  0
  5  7  1  0
  6  8  1  0
  7  9  2  0
  8 10  2  0
  9 10  1  0
 10 11  1  0
 11 12  1  6
 11 13  1  0
 14 13  1  0
 14 15  1  0
 14 16  2  0
 14 17  2  0
M  END
>  <ref_pdb>  (18) 
x0034

>  <ref_mols>  (18) 
x0034_0B,x0246_0B

>  <fragmensteinOld_score>  (18) 
-1.4960127158359777

>  <LE_score>  (18) 
-0.19497370501820938

>  <comRMSD_score>  (18) 
0.47885580925506921

>  <fragmensteinNew_score>  (18) 
0.22787654558060488

>  <meanSuCosW_score>  (18) 
0.34696081837428983

>  <maxSuCosW_score>  (18) 
0.35315618261864168

>  <minSuCosW_score>  (18) 
0.34076545412993792

>  <sumSuCosW_score>  (18) 
0.69392163674857965

>  <SA_score>  (18) 
7.4061102872196063

>  <aLogP_score>  (18) 
1.9630999999999998

>  <hbondD_score>  (18) 
1

>  <hbondA_score>  (18) 
3

>  <polarSurfaceArea_score>  (18) 
54.369999999999997

>  <rotableBonds_score>  (18) 
5

>  <SC_score>  (18) 
2.813066458146384

>  <energyPoseVsEnsemble_score>  (18) 
3.4367715529370968

>  <xcos_score>  (18) 
14.985999915193011

>  <plipMedianPreser_score>  (18) 
0

>  <plipGlobalPreser_score>  (18) 
0

>  <plipGlobalPreserOverMw_score>  (18) 
0

>  <original_name>  (18) 
x0034-0B-x0246-0B-CC-C-Cc1ccc-C-O-CS-C-O-O-cc1

>  <original SMILES>  (18) 
[H]O[C@@]([H])(c1c([H])c([H])c(C([H])([H])C([H])(C([H])([H])[H])C([H])([H])[H])c([H])c1[H])C([H])([H])S(=O)(=O)C([H])([H])[H]

$$$$
24_x0034_0B_-x0246_0B_CC
     RDKit          3D

 15 15  0  0  0  0  0  0  0  0999 V2000
  -14.9820    5.3500  -78.5850 C   0  0  0  0  0  0  0  0  0  0  0  0
  -13.5440    4.7760  -78.5810 C   0  0  0  0  0  0  0  0  0  0  0  0
  -13.5290    3.2440  -78.4900 C   0  0  0  0  0  0  0  0  0  0  0  0
  -12.4980    5.3850  -77.5720 C   0  0  0  0  0  0  0  0  0  0  0  0
  -11.3410    4.4310  -77.2160 C   0  0  0  0  0  0  0  0  0  0  0  0
  -10.1690    4.3510  -78.1400 C   0  0  0  0  0  0  0  0  0  0  0  0
  -11.3010    3.6130  -76.0700 C   0  0  0  0  0  0  0  0  0  0  0  0
   -9.1090    3.4820  -77.8580 C   0  0  0  0  0  0  0  0  0  0  0  0
  -10.2150    2.7550  -75.8360 C   0  0  0  0  0  0  0  0  0  0  0  0
   -9.1220    2.6740  -76.7230 C   0  0  0  0  0  0  0  0  0  0  0  0
   -8.0520    1.8070  -76.4970 C   0  0  0  0  0  0  0  0  0  0  0  0
   -8.5760    0.0830  -76.5780 S   0  0  0  0  0  0  0  0  0  0  0  0
   -7.1120   -0.8950  -76.3430 C   0  0  0  0  0  0  0  0  0  0  0  0
   -9.4490   -0.1630  -75.4480 O   0  0  0  0  0  0  0  0  0  0  0  0
   -9.0270   -0.2200  -77.9210 O   0  0  0  0  0  0  0  0  0  0  0  0
  1  2  1  0
  2  3  1  0
  2  4  1  0
  4  5  1  0
  5  6  2  0
  5  7  1  0
  6  8  1  0
  7  9  2  0
  8 10  2  0
  9 10  1  0
 10 11  1  0
 12 11  1  0
 12 13  1  0
 12 14  2  0
 12 15  2  0
M  END
>  <ref_pdb>  (19) 
x0034

>  <ref_mols>  (19) 
x0034_0B,x0246_0B

>  <fragmensteinOld_score>  (19) 
-2.3739002377366161

>  <LE_score>  (19) 
-0.26878435845445325

>  <comRMSD_score>  (19) 
0.55499406777208748

>  <fragmensteinNew_score>  (19) 
-0.64603854320255449

>  <meanSuCosW_score>  (19) 
0.38487043142184474

>  <maxSuCosW_score>  (19) 
0.4448791831676156

>  <minSuCosW_score>  (19) 
0.32486167967607388

>  <sumSuCosW_score>  (19) 
0.76974086284368948

>  <SA_score>  (19) 
7.8976387428456594

>  <aLogP_score>  (19) 
2.4297000000000004

>  <hbondD_score>  (19) 
0

>  <hbondA_score>  (19) 
2

>  <polarSurfaceArea_score>  (19) 
34.140000000000001

>  <rotableBonds_score>  (19) 
4

>  <SC_score>  (19) 
2.5785768717232598

>  <energyPoseVsEnsemble_score>  (19) 
1.1261489591290847

>  <xcos_score>  (19) 
16.193057976853936

>  <plipMedianPreser_score>  (19) 
0

>  <plipGlobalPreser_score>  (19) 
0

>  <plipGlobalPreserOverMw_score>  (19) 
0

>  <original_name>  (19) 
x0034-0B-x0246-0B-CC-C-Cc1ccc-CS-C-O-O-cc1

>  <original SMILES>  (19) 
[H]c1c([H])c(C([H])([H])S(=O)(=O)C([H])([H])[H])c([H])c([H])c1C([H])([H])C([H])(C([H])([H])[H])C([H])([H])[H]

$$$$
25_x0034_0B_-x0246_0B_CCS
     RDKit          3D

 15 15  0  0  0  0  0  0  0  0999 V2000
  -16.7890    3.4500  -79.8280 C   0  0  0  0  0  0  0  0  0  0  0  0
  -15.8210    4.6100  -80.0310 C   0  0  0  0  0  0  0  0  0  0  0  0
  -15.0720    5.3120  -78.5460 S   0  0  0  0  0  0  0  0  0  0  0  0
  -14.6470    6.6510  -78.8640 O   0  0  0  0  0  0  0  0  0  0  0  0
  -15.9760    5.0590  -77.4460 O   0  0  0  0  0  0  0  0  0  0  0  0
  -13.6050    4.3470  -78.2320 C   0  0  0  0  0  0  0  0  0  0  0  0
  -12.3710    5.2050  -77.8930 C   0  0  1  0  0  0  0  0  0  0  0  0
  -12.6390    6.2090  -76.9200 O   0  0  0  0  0  0  0  0  0  0  0  0
  -11.1980    4.3480  -77.4140 C   0  0  0  0  0  0  0  0  0  0  0  0
   -9.9410    4.2250  -78.2570 C   0  0  0  0  0  0  0  0  0  0  0  0
  -11.2590    3.5810  -76.0740 C   0  0  0  0  0  0  0  0  0  0  0  0
   -8.7830    3.3700  -77.8200 C   0  0  0  0  0  0  0  0  0  0  0  0
  -10.0400    2.7240  -75.6910 C   0  0  0  0  0  0  0  0  0  0  0  0
  -12.3120    3.6310  -75.2480 F   0  0  0  0  0  0  0  0  0  0  0  0
   -8.8290    2.6650  -76.6310 C   0  0  0  0  0  0  0  0  0  0  0  0
  1  2  1  0
  3  2  1  0
  3  4  2  0
  3  5  2  0
  3  6  1  0
  6  7  1  0
  7  8  1  1
  7  9  1  0
  9 10  2  0
  9 11  1  0
 10 12  1  0
 11 13  2  0
 11 14  1  0
 12 15  2  0
 13 15  1  0
M  END
>  <ref_pdb>  (20) 
x0034

>  <ref_mols>  (20) 
x0034_0B,x0246_0B

>  <fragmensteinOld_score>  (20) 
-1.5782375398334147

>  <LE_score>  (20) 
-0.22579942024734986

>  <comRMSD_score>  (20) 
0.58948048900757477

>  <fragmensteinNew_score>  (20) 
-0.065378061415563349

>  <meanSuCosW_score>  (20) 
0.37147035419805785

>  <maxSuCosW_score>  (20) 
0.45440169035050326

>  <minSuCosW_score>  (20) 
0.28853901804561244

>  <sumSuCosW_score>  (20) 
0.7429407083961157

>  <SA_score>  (20) 
7.9081429685231983

>  <aLogP_score>  (20) 
1.2938000000000001

>  <hbondD_score>  (20) 
1

>  <hbondA_score>  (20) 
3

>  <polarSurfaceArea_score>  (20) 
54.370000000000005

>  <rotableBonds_score>  (20) 
4

>  <SC_score>  (20) 
2.4785380516188913

>  <energyPoseVsEnsemble_score>  (20) 
1.2150119773334291

>  <xcos_score>  (20) 
13.91492832933648

>  <plipMedianPreser_score>  (20) 
0.59999999999999998

>  <plipGlobalPreser_score>  (20) 
0.59999999999999998

>  <plipGlobalPreserOverMw_score>  (20) 
0.25855722779109269

>  <original_name>  (20) 
x0034-0B-x0246-0B-CCS-O-O-CC-O-c1ccccc1F

>  <original SMILES>  (20) 
[H]O[C@@]([H])(c1c([H])c([H])c([H])c([H])c1F)C([H])([H])S(=O)(=O)C([H])([H])C([H])([H])[H]

$$$$
26_x0034_0B_-x0246_0B_CCS
     RDKit          3D

 17 17  0  0  0  0  0  0  0  0999 V2000
  -15.6450    4.6660  -79.8500 C   0  0  0  0  0  0  0  0  0  0  0  0
  -15.1520    5.3260  -78.5490 C   0  0  0  0  0  0  0  0  0  0  0  0
  -13.9270    4.3440  -77.6880 S   0  0  0  0  0  0  0  0  0  0  0  0
  -13.7080    3.1540  -78.4890 O   0  0  0  0  0  0  0  0  0  0  0  0
  -14.3690    4.2090  -76.3120 O   0  0  0  0  0  0  0  0  0  0  0  0
  -12.3680    5.2250  -77.6830 C   0  0  0  0  0  0  0  0  0  0  0  0
  -11.3000    4.3780  -77.3470 C   0  0  0  0  0  0  0  0  0  0  0  0
  -10.1540    4.2330  -78.3020 C   0  0  0  0  0  0  0  0  0  0  0  0
  -11.2210    3.6230  -76.1550 C   0  0  0  0  0  0  0  0  0  0  0  0
   -9.0180    3.3200  -78.0000 C   0  0  0  0  0  0  0  0  0  0  0  0
  -10.1260    2.7660  -75.9000 C   0  0  0  0  0  0  0  0  0  0  0  0
   -9.0420    2.6000  -76.7980 C   0  0  0  0  0  0  0  0  0  0  0  0
   -7.9980    1.7190  -76.5060 C   0  0  0  0  0  0  0  0  0  0  0  0
   -8.5010    0.0040  -76.5740 S   0  0  0  0  0  0  0  0  0  0  0  0
   -7.0150   -0.9280  -76.3330 C   0  0  0  0  0  0  0  0  0  0  0  0
   -9.4070   -0.2810  -75.4760 O   0  0  0  0  0  0  0  0  0  0  0  0
   -8.9170   -0.2750  -77.9360 O   0  0  0  0  0  0  0  0  0  0  0  0
  1  2  1  0
  3  2  1  0
  3  4  2  0
  3  5  2  0
  3  6  1  0
  6  7  1  0
  7  8  2  0
  7  9  1  0
  8 10  1  0
  9 11  2  0
 10 12  2  0
 11 12  1  0
 12 13  1  0
 14 13  1  0
 14 15  1  0
 14 16  2  0
 14 17  2  0
M  END
>  <ref_pdb>  (21) 
x0034

>  <ref_mols>  (21) 
x0034_0B,x0246_0B

>  <fragmensteinOld_score>  (21) 
-2.2074074848567768

>  <LE_score>  (21) 
-0.25827481075327802

>  <comRMSD_score>  (21) 
0.52900168245764612

>  <fragmensteinNew_score>  (21) 
-0.44941852803502402

>  <meanSuCosW_score>  (21) 
0.37448459477359253

>  <maxSuCosW_score>  (21) 
0.45286137020517847

>  <minSuCosW_score>  (21) 
0.29610781934200664

>  <sumSuCosW_score>  (21) 
0.74896918954718505

>  <SA_score>  (21) 
7.3978999658683815

>  <aLogP_score>  (21) 
1.1659000000000002

>  <hbondD_score>  (21) 
0

>  <hbondA_score>  (21) 
4

>  <polarSurfaceArea_score>  (21) 
68.280000000000001

>  <rotableBonds_score>  (21) 
5

>  <SC_score>  (21) 
2.3148260928151627

>  <energyPoseVsEnsemble_score>  (21) 
0.72463891855753237

>  <xcos_score>  (21) 
16.309335794644255

>  <plipMedianPreser_score>  (21) 
0

>  <plipGlobalPreser_score>  (21) 
0

>  <plipGlobalPreserOverMw_score>  (21) 
0

>  <original_name>  (21) 
x0034-0B-x0246-0B-CCS-O-O-Cc1ccc-CS-C-O-O-cc1

>  <original SMILES>  (21) 
[H]c1c([H])c(C([H])([H])S(=O)(=O)C([H])([H])C([H])([H])[H])c([H])c([H])c1C([H])([H])S(=O)(=O)C([H])([H])[H]

$$$$
27_x0034_0B_-x0246_0B_CS
     RDKit          3D

 15 15  0  0  0  0  0  0  0  0999 V2000
  -15.7870    4.5080  -79.9370 C   0  0  0  0  0  0  0  0  0  0  0  0
  -15.0860    5.2830  -78.4990 S   0  0  0  0  0  0  0  0  0  0  0  0
  -14.6600    6.6030  -78.8810 O   0  0  0  0  0  0  0  0  0  0  0  0
  -16.0040    5.0770  -77.3990 O   0  0  0  0  0  0  0  0  0  0  0  0
  -13.6420    4.2980  -78.1420 C   0  0  0  0  0  0  0  0  0  0  0  0
  -12.3760    5.1330  -77.8170 C   0  0  1  0  0  0  0  0  0  0  0  0
  -12.6290    6.1380  -76.8400 O   0  0  0  0  0  0  0  0  0  0  0  0
  -11.1740    4.2840  -77.3620 C   0  0  0  0  0  0  0  0  0  0  0  0
  -11.2930    3.5290  -76.0250 C   0  0  0  0  0  0  0  0  0  0  0  0
   -9.8780    4.1780  -78.2250 C   0  0  0  0  0  0  0  0  0  0  0  0
  -12.3740    3.5910  -75.2380 F   0  0  0  0  0  0  0  0  0  0  0  0
  -10.0920    2.6690  -75.6110 C   0  0  0  0  0  0  0  0  0  0  0  0
   -8.7520    3.3040  -77.7110 C   0  0  0  0  0  0  0  0  0  0  0  0
   -9.7370    4.8060  -79.3800 F   0  0  0  0  0  0  0  0  0  0  0  0
   -8.8290    2.5390  -76.4220 C   0  0  0  0  0  0  0  0  0  0  0  0
  2  1  1  0
  2  3  2  0
  2  4  2  0
  2  5  1  0
  5  6  1  0
  6  7  1  1
  6  8  1  0
  8  9  2  0
  8 10  1  0
  9 11  1  0
  9 12  1  0
 10 13  2  0
 10 14  1  0
 12 15  2  0
 13 15  1  0
M  END
>  <ref_pdb>  (22) 
x0034

>  <ref_mols>  (22) 
x0034_0B,x0246_0B

>  <fragmensteinOld_score>  (22) 
-1.339517742861327

>  <LE_score>  (22) 
-0.15685257721782786

>  <comRMSD_score>  (22) 
0.59378101967928787

>  <fragmensteinNew_score>  (22) 
0.012169842957384769

>  <meanSuCosW_score>  (22) 
0.37031919895651333

>  <maxSuCosW_score>  (22) 
0.45065175839972388

>  <minSuCosW_score>  (22) 
0.28998663951330284

>  <sumSuCosW_score>  (22) 
0.74063839791302666

>  <SA_score>  (22) 
7.3133328695171871

>  <aLogP_score>  (22) 
1.0428000000000004

>  <hbondD_score>  (22) 
1

>  <hbondA_score>  (22) 
3

>  <polarSurfaceArea_score>  (22) 
54.370000000000005

>  <rotableBonds_score>  (22) 
3

>  <SC_score>  (22) 
2.4886128858828886

>  <energyPoseVsEnsemble_score>  (22) 
1.335431035408261

>  <xcos_score>  (22) 
15.589176750571154

>  <plipMedianPreser_score>  (22) 
0

>  <plipGlobalPreser_score>  (22) 
0

>  <plipGlobalPreserOverMw_score>  (22) 
0

>  <original_name>  (22) 
x0034-0B-x0246-0B-CS-O-O-CC-O-c1c-F-cccc1F

>  <original SMILES>  (22) 
[H]O[C@@]([H])(c1c(F)c([H])c([H])c([H])c1F)C([H])([H])S(=O)(=O)C([H])([H])[H]

$$$$
28_x0034_0B_-x0246_0B_CS
     RDKit          3D

 15 15  0  0  0  0  0  0  0  0999 V2000
  -15.8400    4.5210  -79.9110 C   0  0  0  0  0  0  0  0  0  0  0  0
  -15.1130    5.3010  -78.4910 S   0  0  0  0  0  0  0  0  0  0  0  0
  -15.9850    5.0680  -77.3640 O   0  0  0  0  0  0  0  0  0  0  0  0
  -14.7170    6.6360  -78.8720 O   0  0  0  0  0  0  0  0  0  0  0  0
  -13.6550    4.3270  -78.1960 C   0  0  0  0  0  0  0  0  0  0  0  0
  -12.3870    5.1510  -77.8530 C   0  0  1  0  0  0  0  0  0  0  0  0
  -12.6630    6.2050  -76.9410 O   0  0  0  0  0  0  0  0  0  0  0  0
  -11.2640    4.2760  -77.2880 C   0  0  0  0  0  0  0  0  0  0  0  0
  -10.0070    4.2500  -78.1530 C   0  0  0  0  0  0  0  0  0  0  0  0
  -11.3250    3.4490  -75.9640 C   0  0  0  0  0  0  0  0  0  0  0  0
   -8.7610    3.4200  -77.7940 C   0  0  0  0  0  0  0  0  0  0  0  0
  -10.0740    2.6430  -75.6530 C   0  0  0  0  0  0  0  0  0  0  0  0
  -12.3800    3.4250  -75.1410 F   0  0  0  0  0  0  0  0  0  0  0  0
   -7.6680    3.3980  -78.5630 F   0  0  0  0  0  0  0  0  0  0  0  0
   -8.8280    2.6080  -76.5170 C   0  0  0  0  0  0  0  0  0  0  0  0
  2  1  1  0
  2  3  2  0
  2  4  2  0
  2  5  1  0
  5  6  1  0
  6  7  1  1
  6  8  1  0
  8  9  2  0
  8 10  1  0
  9 11  1  0
 10 12  2  0
 10 13  1  0
 11 14  1  0
 11 15  2  0
 12 15  1  0
M  END
>  <ref_pdb>  (23) 
x0034

>  <ref_mols>  (23) 
x0034_0B,x0246_0B

>  <fragmensteinOld_score>  (23) 
-1.5967450884079919

>  <LE_score>  (23) 
-0.22552003252151653

>  <comRMSD_score>  (23) 
0.57002302216516443

>  <fragmensteinNew_score>  (23) 
-0.10401360737455068

>  <meanSuCosW_score>  (23) 
0.37727951925711389

>  <maxSuCosW_score>  (23) 
0.4656610587392922

>  <minSuCosW_score>  (23) 
0.28889797977493564

>  <sumSuCosW_score>  (23) 
0.75455903851422779

>  <SA_score>  (23) 
7.3133328695171862

>  <aLogP_score>  (23) 
1.0428000000000004

>  <hbondD_score>  (23) 
1

>  <hbondA_score>  (23) 
3

>  <polarSurfaceArea_score>  (23) 
54.370000000000005

>  <rotableBonds_score>  (23) 
3

>  <SC_score>  (23) 
2.6175440631621099

>  <energyPoseVsEnsemble_score>  (23) 
1.6983356623431791

>  <xcos_score>  (23) 
16.054085081429665

>  <plipMedianPreser_score>  (23) 
0.59999999999999998

>  <plipGlobalPreser_score>  (23) 
0.59999999999999998

>  <plipGlobalPreserOverMw_score>  (23) 
0.25420295821996924

>  <original_name>  (23) 
x0034-0B-x0246-0B-CS-O-O-CC-O-c1cc-F-ccc1F

>  <original SMILES>  (23) 
[H]O[C@@]([H])(c1c([H])c(F)c([H])c([H])c1F)C([H])([H])S(=O)(=O)C([H])([H])[H]

$$$$
29_x0034_0B_-x0246_0B_CS
     RDKit          3D

 17 17  0  0  0  0  0  0  0  0999 V2000
  -15.8550    4.6090  -79.9150 C   0  0  0  0  0  0  0  0  0  0  0  0
  -15.0440    5.4100  -78.5500 S   0  0  0  0  0  0  0  0  0  0  0  0
  -15.7100    4.9810  -77.3360 O   0  0  0  0  0  0  0  0  0  0  0  0
  -14.9170    6.8140  -78.8700 O   0  0  0  0  0  0  0  0  0  0  0  0
  -13.4040    4.7280  -78.5230 C   0  0  0  0  0  0  0  0  0  0  0  0
  -12.5780    5.0080  -77.2580 C   0  0  2  0  0  0  0  0  0  0  0  0
  -12.1500    6.3670  -77.3280 O   0  0  0  0  0  0  0  0  0  0  0  0
  -11.4610    4.1780  -77.0450 C   0  0  0  0  0  0  0  0  0  0  0  0
  -10.3810    4.0210  -78.0960 C   0  0  0  0  0  0  0  0  0  0  0  0
  -11.2790    3.4350  -75.8610 C   0  0  0  0  0  0  0  0  0  0  0  0
   -9.2180    3.1050  -77.8560 C   0  0  0  0  0  0  0  0  0  0  0  0
  -10.1760    2.5890  -75.6790 C   0  0  0  0  0  0  0  0  0  0  0  0
   -9.1570    2.4010  -76.6380 C   0  0  0  0  0  0  0  0  0  0  0  0
   -8.0680    1.5670  -76.4990 O   0  0  0  0  0  0  0  0  0  0  0  0
   -8.2910    0.1450  -76.4690 C   0  0  0  0  0  0  0  0  0  0  0  0
   -9.3600   -0.1640  -75.6760 F   0  0  0  0  0  0  0  0  0  0  0  0
   -8.6140   -0.2570  -77.7100 F   0  0  0  0  0  0  0  0  0  0  0  0
  2  1  1  0
  2  3  2  0
  2  4  2  0
  2  5  1  0
  5  6  1  0
  6  7  1  6
  6  8  1  0
  8  9  2  0
  8 10  1  0
  9 11  1  0
 10 12  2  0
 11 13  2  0
 12 13  1  0
 13 14  1  0
 14 15  1  0
 15 16  1  0
 15 17  1  0
M  END
>  <ref_pdb>  (24) 
x0034

>  <ref_mols>  (24) 
x0034_0B,x0246_0B

>  <fragmensteinOld_score>  (24) 
-2.0944086348804216

>  <LE_score>  (24) 
-0.13243646068703921

>  <comRMSD_score>  (24) 
0.43533720786773528

>  <fragmensteinNew_score>  (24) 
-0.98709960333908287

>  <meanSuCosW_score>  (24) 
0.40430100657209656

>  <maxSuCosW_score>  (24) 
0.4988422888554136

>  <minSuCosW_score>  (24) 
0.30975972428877946

>  <sumSuCosW_score>  (24) 
0.80860201314419311

>  <SA_score>  (24) 
7.6267671257016891

>  <aLogP_score>  (24) 
1.3660000000000003

>  <hbondD_score>  (24) 
1

>  <hbondA_score>  (24) 
4

>  <polarSurfaceArea_score>  (24) 
63.600000000000009

>  <rotableBonds_score>  (24) 
5

>  <SC_score>  (24) 
3.1211607721664376

>  <energyPoseVsEnsemble_score>  (24) 
0.52045712808439304

>  <xcos_score>  (24) 
13.952921125049549

>  <plipMedianPreser_score>  (24) 
0

>  <plipGlobalPreser_score>  (24) 
0

>  <plipGlobalPreserOverMw_score>  (24) 
0

>  <original_name>  (24) 
x0034-0B-x0246-0B-CS-O-O-CC-O-c1ccc-OC-F-F-cc1

>  <original SMILES>  (24) 
[H]O[C@]([H])(c1c([H])c([H])c(OC([H])(F)F)c([H])c1[H])C([H])([H])S(=O)(=O)C([H])([H])[H]

$$$$
30_x0034_0B_-x0246_0B_CS
     RDKit          3D

 18 18  0  0  0  0  0  0  0  0999 V2000
  -15.1890    5.3640  -78.6790 C   0  0  0  0  0  0  0  0  0  0  0  0
  -13.9670    4.2950  -77.9490 S   0  0  0  0  0  0  0  0  0  0  0  0
  -14.5870    3.7460  -76.7620 O   0  0  0  0  0  0  0  0  0  0  0  0
  -13.4970    3.3840  -78.9670 O   0  0  0  0  0  0  0  0  0  0  0  0
  -12.5800    5.2590  -77.3540 C   0  0  0  0  0  0  0  0  0  0  0  0
  -11.3820    4.3310  -77.1020 C   0  0  0  0  0  0  0  0  0  0  0  0
  -11.2870    3.5910  -75.9120 C   0  0  0  0  0  0  0  0  0  0  0  0
  -10.3710    4.2110  -78.0740 C   0  0  0  0  0  0  0  0  0  0  0  0
  -10.1030    2.6650  -75.7090 C   0  0  0  0  0  0  0  0  0  0  0  0
   -9.2610    3.3720  -77.9300 C   0  0  0  0  0  0  0  0  0  0  0  0
   -9.0720    2.5760  -76.7900 C   0  0  0  0  0  0  0  0  0  0  0  0
   -7.9610    1.7230  -76.6670 C   0  0  0  0  0  0  0  0  0  0  0  0
   -8.5560    0.0280  -76.6640 S   0  0  0  0  0  0  0  0  0  0  0  0
   -9.3050   -0.1890  -77.8830 O   0  0  0  0  0  0  0  0  0  0  0  0
   -9.1720   -0.2730  -75.3860 O   0  0  0  0  0  0  0  0  0  0  0  0
   -7.0270   -0.8860  -76.8580 C   0  0  0  0  0  0  0  0  0  0  0  0
   -7.1280   -2.1790  -76.4460 F   0  0  0  0  0  0  0  0  0  0  0  0
   -5.9760   -0.3250  -76.2540 F   0  0  0  0  0  0  0  0  0  0  0  0
  2  1  1  0
  2  3  2  0
  2  4  2  0
  2  5  1  0
  5  6  1  0
  6  7  2  0
  6  8  1  0
  7  9  1  0
  8 10  2  0
  9 11  2  0
 10 11  1  0
 11 12  1  0
 13 12  1  0
 13 14  2  0
 13 15  2  0
 13 16  1  0
 16 17  1  0
 16 18  1  0
M  END
>  <ref_pdb>  (25) 
x0034

>  <ref_mols>  (25) 
x0034_0B,x0246_0B

>  <fragmensteinOld_score>  (25) 
-1.2706929148753272

>  <LE_score>  (25) 
-0.11335087193641906

>  <comRMSD_score>  (25) 
0.47339127041948431

>  <fragmensteinNew_score>  (25) 
0.060475062895987586

>  <meanSuCosW_score>  (25) 
0.37397226413291773

>  <maxSuCosW_score>  (25) 
0.44762620242072954

>  <minSuCosW_score>  (25) 
0.30031832584510598

>  <sumSuCosW_score>  (25) 
0.74794452826583546

>  <SA_score>  (25) 
6.832975687230725

>  <aLogP_score>  (25) 
1.3686000000000003

>  <hbondD_score>  (25) 
0

>  <hbondA_score>  (25) 
4

>  <polarSurfaceArea_score>  (25) 
68.280000000000001

>  <rotableBonds_score>  (25) 
5

>  <SC_score>  (25) 
2.3898182385972842

>  <energyPoseVsEnsemble_score>  (25) 
0.59513971942963206

>  <xcos_score>  (25) 
18.470672877914883

>  <plipMedianPreser_score>  (25) 
0

>  <plipGlobalPreser_score>  (25) 
0

>  <plipGlobalPreserOverMw_score>  (25) 
0

>  <original_name>  (25) 
x0034-0B-x0246-0B-CS-O-O-Cc1ccc-CS-O-O-C-F-F-cc1

>  <original SMILES>  (25) 
[H]c1c([H])c(C([H])([H])S(=O)(=O)C([H])(F)F)c([H])c([H])c1C([H])([H])S(=O)(=O)C([H])([H])[H]

$$$$
31_x0034_0B_-x0246_0B_CS
     RDKit          3D

 20 21  0  0  0  0  0  0  0  0999 V2000
   -7.0640   -0.9490  -76.3260 C   0  0  0  0  0  0  0  0  0  0  0  0
   -8.5420   -0.0190  -76.6200 S   0  0  0  0  0  0  0  0  0  0  0  0
   -9.4140   -0.2350  -75.4850 O   0  0  0  0  0  0  0  0  0  0  0  0
   -8.9910   -0.3580  -77.9540 O   0  0  0  0  0  0  0  0  0  0  0  0
   -8.0600    1.7000  -76.6140 C   0  0  0  0  0  0  0  0  0  0  0  0
   -9.2660    2.6490  -76.7180 C   0  0  0  0  0  0  0  0  0  0  0  0
  -10.1830    2.7100  -75.6680 C   0  0  0  0  0  0  0  0  0  0  0  0
   -9.4720    3.4620  -77.8490 C   0  0  0  0  0  0  0  0  0  0  0  0
  -11.3830    3.6420  -75.7590 C   0  0  0  0  0  0  0  0  0  0  0  0
  -10.5650    4.3370  -77.9850 C   0  0  0  0  0  0  0  0  0  0  0  0
  -11.5420    4.4750  -77.0000 C   0  0  0  0  0  0  0  0  0  0  0  0
  -12.6260    5.3600  -77.1910 C   0  0  0  0  0  0  0  0  0  0  0  0
  -13.3610    4.8600  -78.7290 S   0  0  0  0  0  0  0  0  0  0  0  0
  -15.1390    5.1140  -78.7160 C   0  0  0  0  0  0  0  0  0  0  0  0
  -15.7040    4.2140  -79.6300 C   0  0  0  0  0  0  0  0  0  0  0  0
  -16.9290    4.4170  -80.2520 C   0  0  0  0  0  0  0  0  0  0  0  0
  -15.0000    3.0420  -79.9370 C   0  0  0  0  0  0  0  0  0  0  0  0
  -17.4760    3.5160  -81.1530 C   0  0  0  0  0  0  0  0  0  0  0  0
  -15.5350    2.1200  -80.8430 C   0  0  0  0  0  0  0  0  0  0  0  0
  -16.7700    2.3530  -81.4530 C   0  0  0  0  0  0  0  0  0  0  0  0
  2  1  1  0
  2  3  2  0
  2  4  2  0
  2  5  1  0
  5  6  1  0
  6  7  2  0
  6  8  1  0
  7  9  1  0
  8 10  2  0
  9 11  2  0
 10 11  1  0
 11 12  1  0
 12 13  1  0
 13 14  1  0
 14 15  1  0
 15 16  2  0
 15 17  1  0
 16 18  1  0
 17 19  2  0
 18 20  2  0
 19 20  1  0
M  END
>  <ref_pdb>  (26) 
x0034

>  <ref_mols>  (26) 
x0034_0B,x0246_0B

>  <fragmensteinOld_score>  (26) 
-1.7202016800052684

>  <LE_score>  (26) 
-0.2343238833905264

>  <comRMSD_score>  (26) 
0.45141773694736342

>  <fragmensteinNew_score>  (26) 
0.1336502225928764

>  <meanSuCosW_score>  (26) 
0.3906686897979883

>  <maxSuCosW_score>  (26) 
0.45124379798036968

>  <minSuCosW_score>  (26) 
0.33009358161560698

>  <sumSuCosW_score>  (26) 
0.7813373795959766

>  <SA_score>  (26) 
7.738697715421992

>  <aLogP_score>  (26) 
3.6646000000000027

>  <hbondD_score>  (26) 
0

>  <hbondA_score>  (26) 
3

>  <polarSurfaceArea_score>  (26) 
34.140000000000001

>  <rotableBonds_score>  (26) 
6

>  <SC_score>  (26) 
2.1474968604995253

>  <energyPoseVsEnsemble_score>  (26) 
1.6106338491280039

>  <xcos_score>  (26) 
14.64134438316821

>  <plipMedianPreser_score>  (26) 
0

>  <plipGlobalPreser_score>  (26) 
0

>  <plipGlobalPreserOverMw_score>  (26) 
0

>  <original_name>  (26) 
x0034-0B-x0246-0B-CS-O-O-Cc1ccc-CSCc2ccccc2-cc1

>  <original SMILES>  (26) 
[H]c1c([H])c([H])c(C([H])([H])SC([H])([H])c2c([H])c([H])c(C([H])([H])S(=O)(=O)C([H])([H])[H])c([H])c2[H])c([H])c1[H]

$$$$
33_x0034_0B_-x0246_0B_Cc1ccccc1
     RDKit          3D

 18 19  0  0  0  0  0  0  0  0999 V2000
  -14.7280    4.8180  -78.9520 C   0  0  0  0  0  0  0  0  0  0  0  0
  -14.0770    5.5910  -77.8190 C   0  0  0  0  0  0  0  0  0  0  0  0
  -15.0660    6.7380  -77.5620 C   0  0  0  0  0  0  0  0  0  0  0  0
  -12.8640    5.4730  -77.0300 C   0  0  0  0  0  0  0  0  0  0  0  0
  -14.8320    7.6710  -76.5840 C   0  0  0  0  0  0  0  0  0  0  0  0
  -12.7230    6.4620  -76.0630 C   0  0  0  0  0  0  0  0  0  0  0  0
  -11.7440    4.5550  -77.0070 C   0  0  0  0  0  0  0  0  0  0  0  0
  -13.5780    7.5150  -75.7880 C   0  0  0  0  0  0  0  0  0  0  0  0
  -11.4840    3.7440  -75.8930 C   0  0  0  0  0  0  0  0  0  0  0  0
  -10.7970    4.4160  -78.0560 C   0  0  0  0  0  0  0  0  0  0  0  0
  -10.3890    2.8760  -75.8080 C   0  0  0  0  0  0  0  0  0  0  0  0
   -9.6800    3.5290  -77.9580 C   0  0  0  0  0  0  0  0  0  0  0  0
   -9.4510    2.7310  -76.8120 C   0  0  0  0  0  0  0  0  0  0  0  0
   -8.3340    1.8620  -76.7020 C   0  0  0  0  0  0  0  0  0  0  0  0
   -8.8360    0.1380  -76.6490 S   0  0  0  0  0  0  0  0  0  0  0  0
   -7.3520   -0.7070  -76.1850 C   0  0  0  0  0  0  0  0  0  0  0  0
   -9.7930   -0.0220  -75.5780 O   0  0  0  0  0  0  0  0  0  0  0  0
   -9.1440   -0.3000  -77.9950 O   0  0  0  0  0  0  0  0  0  0  0  0
  1  2  1  0
  2  3  2  0
  2  4  1  0
  3  5  1  0
  4  6  2  0
  4  7  1  0
  5  8  2  0
  6  8  1  0
  7  9  2  0
  7 10  1  0
  9 11  1  0
 10 12  2  0
 11 13  2  0
 12 13  1  0
 13 14  1  0
 15 14  1  0
 15 16  1  0
 15 17  2  0
 15 18  2  0
M  END
>  <ref_pdb>  (27) 
x0034

>  <ref_mols>  (27) 
x0034_0B,x0246_0B

>  <fragmensteinOld_score>  (27) 
-1.6872174883302027

>  <LE_score>  (27) 
-0.25084771833167269

>  <comRMSD_score>  (27) 
0.86668201599549188

>  <fragmensteinNew_score>  (27) 
0.47146446955751098

>  <meanSuCosW_score>  (27) 
0.36457491135654552

>  <maxSuCosW_score>  (27) 
0.41461249249723475

>  <minSuCosW_score>  (27) 
0.31453733021585634

>  <sumSuCosW_score>  (27) 
0.72914982271309103

>  <SA_score>  (27) 
7.5538241566486786

>  <aLogP_score>  (27) 
3.2066200000000018

>  <hbondD_score>  (27) 
0

>  <hbondA_score>  (27) 
2

>  <polarSurfaceArea_score>  (27) 
34.140000000000001

>  <rotableBonds_score>  (27) 
3

>  <SC_score>  (27) 
2.8007362704922203

>  <energyPoseVsEnsemble_score>  (27) 
1.4164192567924625

>  <xcos_score>  (27) 
11.993627152036701

>  <plipMedianPreser_score>  (27) 
0

>  <plipGlobalPreser_score>  (27) 
0

>  <plipGlobalPreserOverMw_score>  (27) 
0

>  <original_name>  (27) 
x0034-0B-x0246-0B-Cc1ccccc1-c1ccc-CS-C-O-O-cc1

>  <original SMILES>  (27) 
[H]c1c([H])c([H])c(C([H])([H])[H])c(-c2c([H])c([H])c(C([H])([H])S(=O)(=O)C([H])([H])[H])c([H])c2[H])c1[H]

$$$$
35_x0034_0B_-x0276_0B_Cc1ccc
     RDKit          3D

 20 21  0  0  0  0  0  0  0  0999 V2000
  -12.4290    5.3370  -77.3790 C   0  0  0  0  0  0  0  0  0  0  0  0
  -11.2860    4.3510  -77.1540 C   0  0  0  0  0  0  0  0  0  0  0  0
  -10.2070    4.3460  -78.2340 C   0  0  0  0  0  0  0  0  0  0  0  0
  -11.1910    3.4970  -76.0520 C   0  0  0  0  0  0  0  0  0  0  0  0
   -9.0830    3.3550  -77.9840 C   0  0  0  0  0  0  0  0  0  0  0  0
  -10.1210    2.6100  -75.8930 C   0  0  0  0  0  0  0  0  0  0  0  0
  -12.1510    3.5250  -75.1200 F   0  0  0  0  0  0  0  0  0  0  0  0
   -9.0920    2.5450  -76.8470 C   0  0  0  0  0  0  0  0  0  0  0  0
   -7.9590    1.5670  -76.6400 C   0  0  0  0  0  0  0  0  0  0  0  0
   -8.5520   -0.1260  -76.5400 S   0  0  0  0  0  0  0  0  0  0  0  0
   -8.8280   -0.5560  -77.8950 O   0  0  0  0  0  0  0  0  0  0  0  0
   -9.6160   -0.1720  -75.5560 O   0  0  0  0  0  0  0  0  0  0  0  0
   -7.2730   -0.7280  -76.2140 O   0  0  0  0  0  0  0  0  0  0  0  0
   -6.8250   -1.9000  -76.7640 C   0  0  0  0  0  0  0  0  0  0  0  0
   -7.5780   -3.0290  -76.9390 C   0  0  0  0  0  0  0  0  0  0  0  0
   -5.5020   -1.9670  -77.1800 C   0  0  0  0  0  0  0  0  0  0  0  0
   -7.0720   -4.1820  -77.5010 C   0  0  0  0  0  0  0  0  0  0  0  0
   -4.9490   -3.1250  -77.7590 C   0  0  0  0  0  0  0  0  0  0  0  0
   -5.7320   -4.3020  -77.9460 C   0  0  0  0  0  0  0  0  0  0  0  0
   -5.2340   -5.4200  -78.4980 F   0  0  0  0  0  0  0  0  0  0  0  0
  1  2  1  0
  2  3  2  0
  2  4  1  0
  3  5  1  0
  4  6  2  0
  4  7  1  0
  5  8  2  0
  6  8  1  0
  8  9  1  0
  9 10  1  0
 10 11  2  0
 10 12  2  0
 10 13  1  0
 13 14  1  0
 14 15  2  0
 14 16  1  0
 15 17  1  0
 16 18  2  0
 17 19  2  0
 18 19  1  0
 19 20  1  0
M  END
>  <ref_pdb>  (28) 
x0034

>  <ref_mols>  (28) 
x0034_0B,x0276_0B

>  <fragmensteinOld_score>  (28) 
-0.30122999418266438

>  <LE_score>  (28) 
-0.20889552361401892

>  <comRMSD_score>  (28) 
0.57613120499621517

>  <fragmensteinNew_score>  (28) 
2.3537411305326854

>  <meanSuCosW_score>  (28) 
0.33089463058118163

>  <maxSuCosW_score>  (28) 
0.4846701505195038

>  <minSuCosW_score>  (28) 
0.17711911064285951

>  <sumSuCosW_score>  (28) 
0.66178926116236325

>  <SA_score>  (28) 
6.961210396242091

>  <aLogP_score>  (28) 
3.1820200000000023

>  <hbondD_score>  (28) 
0

>  <hbondA_score>  (28) 
3

>  <polarSurfaceArea_score>  (28) 
43.370000000000005

>  <rotableBonds_score>  (28) 
4

>  <SC_score>  (28) 
2.6484042504817182

>  <energyPoseVsEnsemble_score>  (28) 
1.3192795819345522

>  <xcos_score>  (28) 
18.357179777835178

>  <plipMedianPreser_score>  (28) 
0.59999999999999998

>  <plipGlobalPreser_score>  (28) 
0.375

>  <plipGlobalPreserOverMw_score>  (28) 
0.12581886199932479

>  <original_name>  (28) 
x0034-0B-x0276-0B-Cc1ccc-CS-O-O-Oc2ccc-F-cc2-cc1F

>  <original SMILES>  (28) 
[H]c1c([H])c(OS(=O)(=O)C([H])([H])c2c([H])c([H])c(C([H])([H])[H])c(F)c2[H])c([H])c([H])c1F

$$$$
36_x0034_0B_-x0276_0B_Cc1ccc
     RDKit          3D

 20 21  0  0  0  0  0  0  0  0999 V2000
  -12.4560    5.2730  -77.3140 C   0  0  0  0  0  0  0  0  0  0  0  0
  -11.2810    4.3260  -77.1110 C   0  0  0  0  0  0  0  0  0  0  0  0
  -10.1490    4.4210  -78.1330 C   0  0  0  0  0  0  0  0  0  0  0  0
  -11.2130    3.4100  -76.0620 C   0  0  0  0  0  0  0  0  0  0  0  0
   -9.0050    3.4470  -77.8850 C   0  0  0  0  0  0  0  0  0  0  0  0
  -10.1350    2.5420  -75.8990 C   0  0  0  0  0  0  0  0  0  0  0  0
  -12.2260    3.3600  -75.1820 F   0  0  0  0  0  0  0  0  0  0  0  0
   -9.0560    2.5610  -76.8030 C   0  0  0  0  0  0  0  0  0  0  0  0
   -7.9310    1.5770  -76.5920 C   0  0  0  0  0  0  0  0  0  0  0  0
   -8.6720   -0.0600  -76.6140 S   0  0  0  0  0  0  0  0  0  0  0  0
   -9.4790   -0.1520  -77.8070 O   0  0  0  0  0  0  0  0  0  0  0  0
   -9.2470   -0.3570  -75.3140 O   0  0  0  0  0  0  0  0  0  0  0  0
   -7.3560   -1.2140  -76.9200 C   0  0  0  0  0  0  0  0  0  0  0  0
   -7.7150   -2.3190  -77.6440 C   0  0  0  0  0  0  0  0  0  0  0  0
   -6.0440   -1.0990  -76.5090 C   0  0  0  0  0  0  0  0  0  0  0  0
   -6.8410   -3.3230  -77.9860 C   0  0  0  0  0  0  0  0  0  0  0  0
   -5.1290   -2.1150  -76.8430 C   0  0  0  0  0  0  0  0  0  0  0  0
   -7.2830   -4.3670  -78.7000 F   0  0  0  0  0  0  0  0  0  0  0  0
   -5.4850   -3.2710  -77.5960 C   0  0  0  0  0  0  0  0  0  0  0  0
   -3.8630   -2.0070  -76.4430 F   0  0  0  0  0  0  0  0  0  0  0  0
  1  2  1  0
  2  3  2  0
  2  4  1  0
  3  5  1  0
  4  6  2  0
  4  7  1  0
  5  8  2  0
  6  8  1  0
  8  9  1  0
 10  9  1  0
 10 11  2  0
 10 12  2  0
 10 13  1  0
 13 14  2  0
 13 15  1  0
 14 16  1  0
 15 17  2  0
 16 18  1  0
 16 19  2  0
 17 19  1  0
 17 20  1  0
M  END
>  <ref_pdb>  (29) 
x0034

>  <ref_mols>  (29) 
x0034_0B,x0276_0B

>  <fragmensteinOld_score>  (29) 
-0.17252480591841657

>  <LE_score>  (29) 
-0.20182737893966307

>  <comRMSD_score>  (29) 
0.6751501856281682

>  <fragmensteinNew_score>  (29) 
2.5588472364709469

>  <meanSuCosW_score>  (29) 
0.31749591500994589

>  <maxSuCosW_score>  (29) 
0.45935509603907498

>  <minSuCosW_score>  (29) 
0.17563673398081675

>  <sumSuCosW_score>  (29) 
0.63499183001989179

>  <SA_score>  (29) 
6.7030851995788412

>  <aLogP_score>  (29) 
3.3862200000000025

>  <hbondD_score>  (29) 
0

>  <hbondA_score>  (29) 
2

>  <polarSurfaceArea_score>  (29) 
34.140000000000001

>  <rotableBonds_score>  (29) 
3

>  <SC_score>  (29) 
2.7607743405653817

>  <energyPoseVsEnsemble_score>  (29) 
0.70990886734224901

>  <xcos_score>  (29) 
17.322772270322552

>  <plipMedianPreser_score>  (29) 
0.59999999999999998

>  <plipGlobalPreser_score>  (29) 
0.375

>  <plipGlobalPreserOverMw_score>  (29) 
0.12498200873485761

>  <original_name>  (29) 
x0034-0B-x0276-0B-Cc1ccc-CS-O-O-c2cc-F-cc-F-c2-cc1F

>  <original SMILES>  (29) 
[H]c1c(F)c([H])c(S(=O)(=O)C([H])([H])c2c([H])c([H])c(C([H])([H])[H])c(F)c2[H])c([H])c1F

$$$$
37_x0034_0B_-x0276_0B_Cc1ccc
     RDKit          3D

 20 21  0  0  0  0  0  0  0  0999 V2000
  -12.6070    5.3740  -77.2910 C   0  0  0  0  0  0  0  0  0  0  0  0
  -11.4400    4.4100  -77.1120 C   0  0  0  0  0  0  0  0  0  0  0  0
  -10.3820    4.4290  -78.2150 C   0  0  0  0  0  0  0  0  0  0  0  0
  -11.3180    3.5510  -76.0210 C   0  0  0  0  0  0  0  0  0  0  0  0
   -9.2420    3.4480  -77.9880 C   0  0  0  0  0  0  0  0  0  0  0  0
  -10.2430    2.6760  -75.8810 C   0  0  0  0  0  0  0  0  0  0  0  0
  -12.2680    3.5620  -75.0720 F   0  0  0  0  0  0  0  0  0  0  0  0
   -9.2360    2.6320  -76.8520 C   0  0  0  0  0  0  0  0  0  0  0  0
   -8.1110    1.6560  -76.6550 C   0  0  0  0  0  0  0  0  0  0  0  0
   -8.7860   -0.0080  -76.6340 S   0  0  0  0  0  0  0  0  0  0  0  0
   -9.5270   -0.2140  -77.8560 O   0  0  0  0  0  0  0  0  0  0  0  0
   -9.3760   -0.2950  -75.3390 O   0  0  0  0  0  0  0  0  0  0  0  0
   -7.3400   -1.0060  -76.8160 C   0  0  0  0  0  0  0  0  0  0  0  0
   -7.5030   -2.2480  -77.3590 C   0  0  0  0  0  0  0  0  0  0  0  0
   -6.0780   -0.6000  -76.4520 C   0  0  0  0  0  0  0  0  0  0  0  0
   -6.4560   -3.1140  -77.5640 C   0  0  0  0  0  0  0  0  0  0  0  0
   -4.9870   -1.4620  -76.6390 C   0  0  0  0  0  0  0  0  0  0  0  0
   -5.8860    0.6150  -75.9210 F   0  0  0  0  0  0  0  0  0  0  0  0
   -6.6950   -4.3180  -78.1070 F   0  0  0  0  0  0  0  0  0  0  0  0
   -5.1310   -2.7590  -77.2120 C   0  0  0  0  0  0  0  0  0  0  0  0
  1  2  1  0
  2  3  2  0
  2  4  1  0
  3  5  1  0
  4  6  2  0
  4  7  1  0
  5  8  2  0
  6  8  1  0
  8  9  1  0
 10  9  1  0
 10 11  2  0
 10 12  2  0
 10 13  1  0
 13 14  2  0
 13 15  1  0
 14 16  1  0
 15 17  2  0
 15 18  1  0
 16 19  1  0
 16 20  2  0
 17 20  1  0
M  END
>  <ref_pdb>  (30) 
x0034

>  <ref_mols>  (30) 
x0034_0B,x0276_0B

>  <fragmensteinOld_score>  (30) 
-0.19596124143929483

>  <LE_score>  (30) 
-0.18087793075065273

>  <comRMSD_score>  (30) 
0.69990165386357728

>  <fragmensteinNew_score>  (30) 
2.2777382314602459

>  <meanSuCosW_score>  (30) 
0.32184733363120527

>  <maxSuCosW_score>  (30) 
0.46184866847199951

>  <minSuCosW_score>  (30) 
0.18184599879041105

>  <sumSuCosW_score>  (30) 
0.64369466726241054

>  <SA_score>  (30) 
6.7265555045850824

>  <aLogP_score>  (30) 
3.3862200000000025

>  <hbondD_score>  (30) 
0

>  <hbondA_score>  (30) 
2

>  <polarSurfaceArea_score>  (30) 
34.140000000000001

>  <rotableBonds_score>  (30) 
3

>  <SC_score>  (30) 
3.0764023268099931

>  <energyPoseVsEnsemble_score>  (30) 
0.79482401690374138

>  <xcos_score>  (30) 
16.46311241460451

>  <plipMedianPreser_score>  (30) 
0.59999999999999998

>  <plipGlobalPreser_score>  (30) 
0.375

>  <plipGlobalPreserOverMw_score>  (30) 
0.12498200873485761

>  <original_name>  (30) 
x0034-0B-x0276-0B-Cc1ccc-CS-O-O-c2cc-F-ccc2F-cc1F

>  <original SMILES>  (30) 
[H]c1c([H])c(F)c(S(=O)(=O)C([H])([H])c2c([H])c([H])c(C([H])([H])[H])c(F)c2[H])c([H])c1F

$$$$
38_x0034_0B_-x0276_0B_Cc1ccc
     RDKit          3D

 18 19  0  0  0  0  0  0  0  0999 V2000
  -12.3610    5.4530  -77.5390 C   0  0  0  0  0  0  0  0  0  0  0  0
  -11.2590    4.4620  -77.2080 C   0  0  0  0  0  0  0  0  0  0  0  0
  -11.3420    3.6050  -76.1090 C   0  0  0  0  0  0  0  0  0  0  0  0
  -10.1260    4.3920  -78.0110 C   0  0  0  0  0  0  0  0  0  0  0  0
  -10.2150    2.6350  -75.8470 C   0  0  0  0  0  0  0  0  0  0  0  0
   -9.0670    3.5080  -77.7820 C   0  0  0  0  0  0  0  0  0  0  0  0
   -9.1120    2.6240  -76.7100 C   0  0  0  0  0  0  0  0  0  0  0  0
   -7.9890    1.6440  -76.4810 C   0  0  0  0  0  0  0  0  0  0  0  0
   -8.6310   -0.0360  -76.5580 S   0  0  0  0  0  0  0  0  0  0  0  0
   -9.1560   -0.4080  -75.2650 O   0  0  0  0  0  0  0  0  0  0  0  0
   -9.4860   -0.0920  -77.7220 O   0  0  0  0  0  0  0  0  0  0  0  0
   -7.3250   -1.1710  -77.0010 C   0  0  0  0  0  0  0  0  0  0  0  0
   -6.2510   -0.6310  -77.6920 C   0  0  0  0  0  0  0  0  0  0  0  0
   -7.3700   -2.5350  -76.6990 C   0  0  0  0  0  0  0  0  0  0  0  0
   -5.2130   -1.4600  -78.0940 C   0  0  0  0  0  0  0  0  0  0  0  0
   -6.3160   -3.3450  -77.1060 C   0  0  0  0  0  0  0  0  0  0  0  0
   -5.2370   -2.8150  -77.8060 C   0  0  0  0  0  0  0  0  0  0  0  0
   -4.2250   -3.5980  -78.2050 F   0  0  0  0  0  0  0  0  0  0  0  0
  1  2  1  0
  2  3  2  0
  2  4  1  0
  3  5  1  0
  4  6  2  0
  5  7  2  0
  6  7  1  0
  7  8  1  0
  9  8  1  0
  9 10  2  0
  9 11  2  0
  9 12  1  0
 12 13  2  0
 12 14  1  0
 13 15  1  0
 14 16  2  0
 15 17  2  0
 16 17  1  0
 17 18  1  0
M  END
>  <ref_pdb>  (31) 
x0034

>  <ref_mols>  (31) 
x0034_0B,x0276_0B

>  <fragmensteinOld_score>  (31) 
-0.39010181664635246

>  <LE_score>  (31) 
-0.25623640540852949

>  <comRMSD_score>  (31) 
0.68359652390605963

>  <fragmensteinNew_score>  (31) 
2.5467523994095318

>  <meanSuCosW_score>  (31) 
0.30299066546546638

>  <maxSuCosW_score>  (31) 
0.42876343799245042

>  <minSuCosW_score>  (31) 
0.17721789293848231

>  <sumSuCosW_score>  (31) 
0.60598133093093276

>  <SA_score>  (31) 
7.2269918309078864

>  <aLogP_score>  (31) 
3.1080200000000016

>  <hbondD_score>  (31) 
0

>  <hbondA_score>  (31) 
2

>  <polarSurfaceArea_score>  (31) 
34.140000000000001

>  <rotableBonds_score>  (31) 
3

>  <SC_score>  (31) 
2.1633063669164341

>  <energyPoseVsEnsemble_score>  (31) 
0.58848203134463706

>  <xcos_score>  (31) 
16.327115133958685

>  <plipMedianPreser_score>  (31) 
0

>  <plipGlobalPreser_score>  (31) 
0

>  <plipGlobalPreserOverMw_score>  (31) 
0

>  <original_name>  (31) 
x0034-0B-x0276-0B-Cc1ccc-CS-O-O-c2ccc-F-cc2-cc1

>  <original SMILES>  (31) 
[H]c1c([H])c(S(=O)(=O)C([H])([H])c2c([H])c([H])c(C([H])([H])[H])c([H])c2[H])c([H])c([H])c1F

$$$$
39_x0034_0B_-x0276_0B_Cc1ccc
     RDKit          3D

 19 20  0  0  0  0  0  0  0  0999 V2000
  -12.3080    5.3660  -77.3060 C   0  0  0  0  0  0  0  0  0  0  0  0
  -11.1370    4.4020  -77.1010 C   0  0  0  0  0  0  0  0  0  0  0  0
  -10.0780    4.3920  -78.1990 C   0  0  0  0  0  0  0  0  0  0  0  0
  -11.0010    3.5680  -75.9930 C   0  0  0  0  0  0  0  0  0  0  0  0
   -8.9340    3.4130  -77.9520 C   0  0  0  0  0  0  0  0  0  0  0  0
   -9.9300    2.6930  -75.8460 C   0  0  0  0  0  0  0  0  0  0  0  0
  -12.0190    3.5860  -74.9050 C   0  0  0  0  0  0  0  0  0  0  0  0
   -8.9230    2.6150  -76.8060 C   0  0  0  0  0  0  0  0  0  0  0  0
   -7.8080    1.6250  -76.5740 C   0  0  0  0  0  0  0  0  0  0  0  0
   -8.5050   -0.0350  -76.6350 S   0  0  0  0  0  0  0  0  0  0  0  0
   -9.3040   -0.1420  -77.8350 O   0  0  0  0  0  0  0  0  0  0  0  0
   -9.0740   -0.3880  -75.3450 O   0  0  0  0  0  0  0  0  0  0  0  0
   -7.1080   -1.0950  -76.9520 C   0  0  0  0  0  0  0  0  0  0  0  0
   -7.3360   -2.1530  -77.7890 C   0  0  0  0  0  0  0  0  0  0  0  0
   -5.8270   -0.9500  -76.4520 C   0  0  0  0  0  0  0  0  0  0  0  0
   -6.3500   -3.0480  -78.1370 C   0  0  0  0  0  0  0  0  0  0  0  0
   -4.7930   -1.8480  -76.7830 C   0  0  0  0  0  0  0  0  0  0  0  0
   -5.0190   -2.9510  -77.6600 C   0  0  0  0  0  0  0  0  0  0  0  0
   -4.0550   -3.8220  -78.0040 F   0  0  0  0  0  0  0  0  0  0  0  0
  1  2  1  0
  2  3  2  0
  2  4  1  0
  3  5  1  0
  4  6  2  0
  4  7  1  0
  5  8  2  0
  6  8  1  0
  8  9  1  0
 10  9  1  0
 10 11  2  0
 10 12  2  0
 10 13  1  0
 13 14  2  0
 13 15  1  0
 14 16  1  0
 15 17  2  0
 16 18  2  0
 17 18  1  0
 18 19  1  0
M  END
>  <ref_pdb>  (32) 
x0034

>  <ref_mols>  (32) 
x0034_0B,x0276_0B

>  <fragmensteinOld_score>  (32) 
-0.87355280394384216

>  <LE_score>  (32) 
-0.24904962340941075

>  <comRMSD_score>  (32) 
0.47245561437568295

>  <fragmensteinNew_score>  (32) 
1.4421744598256994

>  <meanSuCosW_score>  (32) 
0.31001990561028336

>  <maxSuCosW_score>  (32) 
0.44598549951548017

>  <minSuCosW_score>  (32) 
0.17405431170508662

>  <sumSuCosW_score>  (32) 
0.62003981122056673

>  <SA_score>  (32) 
7.3465873681397165

>  <aLogP_score>  (32) 
3.4164400000000024

>  <hbondD_score>  (32) 
0

>  <hbondA_score>  (32) 
2

>  <polarSurfaceArea_score>  (32) 
34.140000000000001

>  <rotableBonds_score>  (32) 
3

>  <SC_score>  (32) 
2.6713425712138168

>  <energyPoseVsEnsemble_score>  (32) 
0.7899195656712531

>  <xcos_score>  (32) 
16.530251977194649

>  <plipMedianPreser_score>  (32) 
0

>  <plipGlobalPreser_score>  (32) 
0

>  <plipGlobalPreserOverMw_score>  (32) 
0

>  <original_name>  (32) 
x0034-0B-x0276-0B-Cc1ccc-CS-O-O-c2ccc-F-cc2-cc1C

>  <original SMILES>  (32) 
[H]c1c([H])c(S(=O)(=O)C([H])([H])c2c([H])c([H])c(C([H])([H])[H])c(C([H])([H])[H])c2[H])c([H])c([H])c1F

$$$$
40_x0034_0B_-x0276_0B_Cc1ccc
     RDKit          3D

 20 21  0  0  0  0  0  0  0  0999 V2000
  -12.5490    5.2590  -77.4440 C   0  0  0  0  0  0  0  0  0  0  0  0
  -11.3790    4.3270  -77.1780 C   0  0  0  0  0  0  0  0  0  0  0  0
  -10.2120    4.4330  -78.1510 C   0  0  0  0  0  0  0  0  0  0  0  0
  -11.3510    3.4190  -76.1200 C   0  0  0  0  0  0  0  0  0  0  0  0
   -9.0720    3.4710  -77.8510 C   0  0  0  0  0  0  0  0  0  0  0  0
  -10.2700    2.5620  -75.9070 C   0  0  0  0  0  0  0  0  0  0  0  0
  -12.3970    3.3590  -75.2790 F   0  0  0  0  0  0  0  0  0  0  0  0
   -9.1640    2.5950  -76.7660 C   0  0  0  0  0  0  0  0  0  0  0  0
   -8.0460    1.6290  -76.4990 C   0  0  0  0  0  0  0  0  0  0  0  0
   -8.7000   -0.0410  -76.6130 S   0  0  0  0  0  0  0  0  0  0  0  0
   -9.4280   -0.1660  -77.8520 O   0  0  0  0  0  0  0  0  0  0  0  0
   -9.3020   -0.4250  -75.3500 O   0  0  0  0  0  0  0  0  0  0  0  0
   -7.2470   -1.0200  -76.8610 C   0  0  0  0  0  0  0  0  0  0  0  0
   -7.4020   -2.2050  -77.5230 C   0  0  0  0  0  0  0  0  0  0  0  0
   -5.9910   -0.6570  -76.4430 C   0  0  0  0  0  0  0  0  0  0  0  0
   -6.3440   -3.0400  -77.7880 C   0  0  0  0  0  0  0  0  0  0  0  0
   -4.8910   -1.5000  -76.6940 C   0  0  0  0  0  0  0  0  0  0  0  0
   -5.8120    0.5030  -75.7990 F   0  0  0  0  0  0  0  0  0  0  0  0
   -5.0210   -2.7360  -77.3920 C   0  0  0  0  0  0  0  0  0  0  0  0
   -3.9750   -3.5370  -77.6490 F   0  0  0  0  0  0  0  0  0  0  0  0
  1  2  1  0
  2  3  2  0
  2  4  1  0
  3  5  1  0
  4  6  2  0
  4  7  1  0
  5  8  2  0
  6  8  1  0
  8  9  1  0
 10  9  1  0
 10 11  2  0
 10 12  2  0
 10 13  1  0
 13 14  2  0
 13 15  1  0
 14 16  1  0
 15 17  2  0
 15 18  1  0
 16 19  2  0
 17 19  1  0
 19 20  1  0
M  END
>  <ref_pdb>  (33) 
x0034

>  <ref_mols>  (33) 
x0034_0B,x0276_0B

>  <fragmensteinOld_score>  (33) 
-0.022782489078398083

>  <LE_score>  (33) 
-0.1789742989265487

>  <comRMSD_score>  (33) 
0.72890956641310634

>  <fragmensteinNew_score>  (33) 
2.6892190780539376

>  <meanSuCosW_score>  (33) 
0.31834643471661528

>  <maxSuCosW_score>  (33) 
0.455767051340419

>  <minSuCosW_score>  (33) 
0.18092581809281158

>  <sumSuCosW_score>  (33) 
0.63669286943323056

>  <SA_score>  (33) 
6.749256151154845

>  <aLogP_score>  (33) 
3.3862200000000025

>  <hbondD_score>  (33) 
0

>  <hbondA_score>  (33) 
2

>  <polarSurfaceArea_score>  (33) 
34.140000000000001

>  <rotableBonds_score>  (33) 
3

>  <SC_score>  (33) 
2.8503971477295051

>  <energyPoseVsEnsemble_score>  (33) 
0.7572318914602415

>  <xcos_score>  (33) 
17.343792564444946

>  <plipMedianPreser_score>  (33) 
0.59999999999999998

>  <plipGlobalPreser_score>  (33) 
0.375

>  <plipGlobalPreserOverMw_score>  (33) 
0.12498200873485761

>  <original_name>  (33) 
x0034-0B-x0276-0B-Cc1ccc-CS-O-O-c2ccc-F-cc2F-cc1F

>  <original SMILES>  (33) 
[H]c1c([H])c(S(=O)(=O)C([H])([H])c2c([H])c([H])c(C([H])([H])[H])c(F)c2[H])c(F)c([H])c1F

$$$$
41_x0034_0B_-x0276_0B_Cc1ccc
     RDKit          3D

 20 20  0  0  0  0  0  0  0  0999 V2000
  -12.6580    5.2700  -77.2400 C   0  0  0  0  0  0  0  0  0  0  0  0
  -11.4100    4.4150  -77.1430 C   0  0  0  0  0  0  0  0  0  0  0  0
  -10.4290    4.5100  -78.1270 C   0  0  0  0  0  0  0  0  0  0  0  0
  -11.2190    3.5240  -76.0710 C   0  0  0  0  0  0  0  0  0  0  0  0
   -9.1870    3.6640  -78.0260 C   0  0  0  0  0  0  0  0  0  0  0  0
  -10.0690    2.7200  -75.9560 C   0  0  0  0  0  0  0  0  0  0  0  0
  -12.1690    3.4410  -75.1290 F   0  0  0  0  0  0  0  0  0  0  0  0
   -9.0760    2.8010  -76.9400 C   0  0  0  0  0  0  0  0  0  0  0  0
   -7.5550    1.8610  -76.9760 S   0  0  0  0  0  0  0  0  0  0  0  0
   -6.7830    2.1250  -75.8010 O   0  0  0  0  0  0  0  0  0  0  0  0
   -6.9540    2.0750  -78.2750 O   0  0  0  0  0  0  0  0  0  0  0  0
   -8.0080    0.2260  -76.8680 N   0  0  0  0  0  0  0  0  0  0  0  0
   -8.2920   -0.5290  -78.0970 C   0  0  0  0  0  0  0  0  0  0  0  0
   -7.3020   -0.2530  -79.0730 C   0  0  0  0  0  0  0  0  0  0  0  0
   -6.0740   -0.9120  -78.8900 C   0  0  0  0  0  0  0  0  0  0  0  0
   -5.5950   -0.6730  -77.5270 N   0  0  0  0  0  0  0  0  0  0  0  0
   -4.9550   -1.9800  -76.7120 S   0  0  0  0  0  0  0  0  0  0  0  0
   -4.0330   -2.8510  -77.9550 C   0  0  0  0  0  0  0  0  0  0  0  0
   -3.9990   -1.4800  -75.7360 O   0  0  0  0  0  0  0  0  0  0  0  0
   -6.1080   -2.7850  -76.3770 O   0  0  0  0  0  0  0  0  0  0  0  0
  1  2  1  0
  2  3  2  0
  2  4  1  0
  3  5  1  0
  4  6  2  0
  4  7  1  0
  5  8  2  0
  6  8  1  0
  8  9  1  0
  9 10  2  0
  9 11  2  0
  9 12  1  0
 12 13  1  0
 13 14  1  0
 14 15  1  0
 15 16  1  0
 17 16  1  0
 17 18  1  0
 17 19  2  0
 17 20  2  0
M  END
>  <ref_pdb>  (34) 
x0034

>  <ref_mols>  (34) 
x0034_0B,x0276_0B

>  <fragmensteinOld_score>  (34) 
0.81057256488582485

>  <LE_score>  (34) 
-0.07227310661839724

>  <comRMSD_score>  (34) 
0.74302885533045182

>  <fragmensteinNew_score>  (34) 
3.4908255148634466

>  <meanSuCosW_score>  (34) 
0.26995884994425845

>  <maxSuCosW_score>  (34) 
0.34950251990023007

>  <minSuCosW_score>  (34) 
0.19041517998828689

>  <sumSuCosW_score>  (34) 
0.5399176998885169

>  <SA_score>  (34) 
7.5456991053802849

>  <aLogP_score>  (34) 
0.35172000000000009

>  <hbondD_score>  (34) 
2

>  <hbondA_score>  (34) 
4

>  <polarSurfaceArea_score>  (34) 
92.340000000000003

>  <rotableBonds_score>  (34) 
7

>  <SC_score>  (34) 
2.890325317648081

>  <energyPoseVsEnsemble_score>  (34) 
2.9565862559390181

>  <xcos_score>  (34) 
10.830651743085932

>  <plipMedianPreser_score>  (34) 
0.59999999999999998

>  <plipGlobalPreser_score>  (34) 
0.375

>  <plipGlobalPreserOverMw_score>  (34) 
0.11571881943760474

>  <original_name>  (34) 
x0034-0B-x0276-0B-Cc1ccc-S-O-O-NCCCNS-C-O-O-cc1F

>  <original SMILES>  (34) 
[H]c1c([H])c(S(=O)(=O)N([H])C([H])([H])C([H])([H])C([H])([H])N([H])S(=O)(=O)C([H])([H])[H])c([H])c(F)c1C([H])([H])[H]

$$$$
55_x0034_0B_-x0311_0B_NS
     RDKit          3D

 19 20  0  0  0  0  0  0  0  0999 V2000
   -7.3670   -1.4810  -76.1610 N   0  0  0  0  0  0  0  0  0  0  0  0
   -8.7760   -0.6720  -76.4970 S   0  0  0  0  0  0  0  0  0  0  0  0
   -9.6740   -0.9360  -75.3950 O   0  0  0  0  0  0  0  0  0  0  0  0
   -9.1350   -0.9900  -77.8640 O   0  0  0  0  0  0  0  0  0  0  0  0
   -8.2760    1.0210  -76.3930 C   0  0  0  0  0  0  0  0  0  0  0  0
   -9.3590    2.0310  -76.2260 C   0  0  0  0  0  0  0  0  0  0  0  0
   -8.9470    3.2640  -75.7690 C   0  0  0  0  0  0  0  0  0  0  0  0
   -9.8470    2.8680  -77.4350 C   0  0  0  0  0  0  0  0  0  0  0  0
   -8.5950    3.4560  -77.1450 N   0  0  0  0  0  0  0  0  0  0  0  0
   -7.4840    3.1570  -77.8660 C   0  0  0  0  0  0  0  0  0  0  0  0
   -6.4210    2.7260  -77.4150 O   0  0  0  0  0  0  0  0  0  0  0  0
   -7.8160    3.4070  -79.1720 C   0  0  2  0  0  0  0  0  0  0  0  0
   -8.9360    4.1820  -79.0710 F   0  0  0  0  0  0  0  0  0  0  0  0
   -8.1690    2.2790  -80.0870 C   0  0  0  0  0  0  0  0  0  0  0  0
   -8.2060    2.5030  -81.4360 C   0  0  0  0  0  0  0  0  0  0  0  0
   -8.4760    0.9930  -79.6170 C   0  0  0  0  0  0  0  0  0  0  0  0
   -8.5780    1.3830  -82.4070 C   0  0  0  0  0  0  0  0  0  0  0  0
   -8.8200   -0.0510  -80.4990 C   0  0  0  0  0  0  0  0  0  0  0  0
   -8.8720    0.1420  -81.8790 C   0  0  0  0  0  0  0  0  0  0  0  0
  2  1  1  0
  2  3  2  0
  2  4  2  0
  2  5  1  0
  5  6  1  0
  6  7  1  0
  6  8  1  0
  7  9  1  0
  8  9  1  0
  9 10  1  0
 10 11  2  0
 10 12  1  0
 12 13  1  1
 12 14  1  0
 14 15  2  0
 14 16  1  0
 15 17  1  0
 16 18  2  0
 17 19  2  0
 18 19  1  0
M  END
>  <ref_pdb>  (35) 
x0034

>  <ref_mols>  (35) 
x0034_0B,x0311_0B

>  <fragmensteinOld_score>  (35) 
-1.6426447841916083

>  <LE_score>  (35) 
-0.17093576123569063

>  <comRMSD_score>  (35) 
0.87528541299829232

>  <fragmensteinNew_score>  (35) 
0.092392744468617782

>  <meanSuCosW_score>  (35) 
0.25820160115324919

>  <maxSuCosW_score>  (35) 
0.26332458356922051

>  <minSuCosW_score>  (35) 
0.25307861873727783

>  <sumSuCosW_score>  (35) 
0.51640320230649839

>  <SA_score>  (35) 
7.9965953774294931

>  <aLogP_score>  (35) 
0.44410000000000061

>  <hbondD_score>  (35) 
1

>  <hbondA_score>  (35) 
3

>  <polarSurfaceArea_score>  (35) 
80.469999999999999

>  <rotableBonds_score>  (35) 
4

>  <SC_score>  (35) 
3.3730474818514895

>  <energyPoseVsEnsemble_score>  (35) 
2.5238004393021969

>  <xcos_score>  (35) 
10.793608541639104

>  <plipMedianPreser_score>  (35) 
0.59999999999999998

>  <plipGlobalPreser_score>  (35) 
0.54545454545454541

>  <plipGlobalPreserOverMw_score>  (35) 
0.19066587838025184

>  <original_name>  (35) 
x0034-0B-x0311-0B-NS-O-O-CC1CN-C-O-C-F-c2ccccc2-C1

>  <original SMILES>  (35) 
[H]c1c([H])c([H])c([C@@]([H])(F)C(=O)N2C([H])([H])C([H])(C([H])([H])S(=O)(=O)N([H])[H])C2([H])[H])c([H])c1[H]

$$$$
57_x0176_0B_-x0212_0B_CS
     RDKit          3D

 20 21  0  0  0  0  0  0  0  0999 V2000
  -12.5580    6.5120  -73.4770 C   0  0  0  0  0  0  0  0  0  0  0  0
  -13.1760    6.8700  -75.0930 S   0  0  0  0  0  0  0  0  0  0  0  0
  -12.2940    7.8070  -75.7470 O   0  0  0  0  0  0  0  0  0  0  0  0
  -14.5850    7.1250  -74.9630 O   0  0  0  0  0  0  0  0  0  0  0  0
  -13.0470    5.3860  -75.8040 N   0  0  0  0  0  0  0  0  0  0  0  0
  -12.4650    5.3650  -77.0270 C   0  0  0  0  0  0  0  0  0  0  0  0
  -11.1810    4.5310  -77.1240 C   0  0  0  0  0  0  0  0  0  0  0  0
  -10.9350    3.5290  -75.9990 C   0  0  0  0  0  0  0  0  0  0  0  0
  -10.2990    4.6810  -78.1770 C   0  0  0  0  0  0  0  0  0  0  0  0
   -9.6440    2.7250  -76.1580 C   0  0  0  0  0  0  0  0  0  0  0  0
   -9.1350    3.9480  -78.3130 C   0  0  0  0  0  0  0  0  0  0  0  0
   -8.7660    2.9960  -77.3830 C   0  0  0  0  0  0  0  0  0  0  0  0
   -7.5660    2.3130  -77.6350 N   0  0  0  0  0  0  0  0  0  0  0  0
   -6.9650    2.2130  -78.8880 C   0  0  0  0  0  0  0  0  0  0  0  0
   -7.8530    1.5400  -79.7440 C   0  0  0  0  0  0  0  0  0  0  0  0
   -8.2770    2.1500  -81.0910 C   0  0  0  0  0  0  0  0  0  0  0  0
   -8.3600    0.2830  -79.3560 C   0  0  0  0  0  0  0  0  0  0  0  0
   -9.2320    1.3360  -81.9240 C   0  0  0  0  0  0  0  0  0  0  0  0
   -9.2510   -0.4620  -80.1470 C   0  0  0  0  0  0  0  0  0  0  0  0
   -9.6990   -0.0060  -81.3800 C   0  0  0  0  0  0  0  0  0  0  0  0
  1  2  1  0
  2  3  2  0
  2  4  2  0
  2  5  1  0
  5  6  1  0
  6  7  1  0
  7  8  2  0
  7  9  1  0
  8 10  1  0
  9 11  2  0
 10 12  2  0
 11 12  1  0
 12 13  1  0
 13 14  1  0
 14 15  1  0
 15 16  2  0
 15 17  1  0
 16 18  1  0
 17 19  2  0
 18 20  2  0
 19 20  1  0
M  END
>  <ref_pdb>  (36) 
x0176

>  <ref_mols>  (36) 
x0176_0B,x0212_0B

>  <fragmensteinOld_score>  (36) 
-2.7612066620873352

>  <LE_score>  (36) 
-0.28214483016948061

>  <comRMSD_score>  (36) 
0.54951748876006734

>  <fragmensteinNew_score>  (36) 
-0.55758808219582323

>  <meanSuCosW_score>  (36) 
0.27162348321176616

>  <maxSuCosW_score>  (36) 
0.35587329672667795

>  <minSuCosW_score>  (36) 
0.18737366969685437

>  <sumSuCosW_score>  (36) 
0.54324696642353232

>  <SA_score>  (36) 
7.8413469170014185

>  <aLogP_score>  (36) 
2.3479000000000001

>  <hbondD_score>  (36) 
2

>  <hbondA_score>  (36) 
3

>  <polarSurfaceArea_score>  (36) 
58.200000000000003

>  <rotableBonds_score>  (36) 
6

>  <SC_score>  (36) 
2.6385677086273107

>  <energyPoseVsEnsemble_score>  (36) 
1.3731970710071035

>  <xcos_score>  (36) 
13.1953282838984

>  <plipMedianPreser_score>  (36) 
0

>  <plipGlobalPreser_score>  (36) 
0

>  <plipGlobalPreserOverMw_score>  (36) 
0

>  <original_name>  (36) 
x0176-0B-x0212-0B-CS-O-O-NCc1ccc-NCc2ccccc2-cc1

>  <original SMILES>  (36) 
[H]c1c([H])c([H])c(C([H])([H])N([H])c2c([H])c([H])c(C([H])([H])N([H])S(=O)(=O)C([H])([H])[H])c([H])c2[H])c([H])c1[H]

$$$$
166_x0246_0B_-x0176_0B_CC
     RDKit          3D

 18 18  0  0  0  0  0  0  0  0999 V2000
  -13.6660    4.4150  -78.2360 C   0  0  0  0  0  0  0  0  0  0  0  0
  -12.6750    5.1590  -77.3420 C   0  0  1  0  0  0  0  0  0  0  0  0
  -13.2720    5.5400  -75.9840 C   0  0  0  0  0  0  0  0  0  0  0  0
  -11.3780    4.3390  -77.1230 C   0  0  0  0  0  0  0  0  0  0  0  0
  -14.4610    4.8720  -75.5940 O   0  0  0  0  0  0  0  0  0  0  0  0
  -12.6430    6.4060  -75.3670 O   0  0  0  0  0  0  0  0  0  0  0  0
  -11.3070    3.3990  -76.0840 C   0  0  0  0  0  0  0  0  0  0  0  0
  -10.2490    4.5070  -77.9250 C   0  0  0  0  0  0  0  0  0  0  0  0
  -12.7160    6.3860  -73.9220 C   0  0  0  0  0  0  0  0  0  0  0  0
  -10.1560    2.6550  -75.8550 C   0  0  0  0  0  0  0  0  0  0  0  0
   -9.0870    3.7670  -77.7030 C   0  0  0  0  0  0  0  0  0  0  0  0
  -13.9100    7.2870  -73.4900 C   0  0  0  0  0  0  0  0  0  0  0  0
   -9.0380    2.8390  -76.6660 C   0  0  0  0  0  0  0  0  0  0  0  0
  -13.9710    8.5590  -74.2260 N   0  0  0  0  0  0  0  0  0  0  0  0
  -12.7190    9.6660  -74.0660 S   0  0  0  0  0  0  0  0  0  0  0  0
  -13.3080   10.7250  -72.7500 C   0  0  0  0  0  0  0  0  0  0  0  0
  -12.6160   10.4550  -75.2680 O   0  0  0  0  0  0  0  0  0  0  0  0
  -11.5990    8.9050  -73.5730 O   0  0  0  0  0  0  0  0  0  0  0  0
  2  1  1  1
  2  3  1  0
  2  4  1  0
  3  5  2  0
  3  6  1  0
  4  7  2  0
  4  8  1  0
  6  9  1  0
  7 10  1  0
  8 11  2  0
  9 12  1  0
 10 13  2  0
 11 13  1  0
 12 14  1  0
 15 14  1  0
 15 16  1  0
 15 17  2  0
 15 18  2  0
M  END
>  <ref_pdb>  (37) 
x0176

>  <ref_mols>  (37) 
x0176_0B,x0246_0B

>  <fragmensteinOld_score>  (37) 
-0.77495463884411731

>  <LE_score>  (37) 
-0.1939602652723775

>  <comRMSD_score>  (37) 
0.61726258140881929

>  <fragmensteinNew_score>  (37) 
1.2411381041026781

>  <meanSuCosW_score>  (37) 
0.27773710792722694

>  <maxSuCosW_score>  (37) 
0.30369969318626316

>  <minSuCosW_score>  (37) 
0.25177452266819067

>  <sumSuCosW_score>  (37) 
0.55547421585445389

>  <SA_score>  (37) 
6.4044664775932638

>  <aLogP_score>  (37) 
0.88249999999999984

>  <hbondD_score>  (37) 
1

>  <hbondA_score>  (37) 
4

>  <polarSurfaceArea_score>  (37) 
72.469999999999999

>  <rotableBonds_score>  (37) 
6

>  <SC_score>  (37) 
2.9013734157424196

>  <energyPoseVsEnsemble_score>  (37) 
0.76909168469271039

>  <xcos_score>  (37) 
14.030046358900769

>  <plipMedianPreser_score>  (37) 
0

>  <plipGlobalPreser_score>  (37) 
0

>  <plipGlobalPreserOverMw_score>  (37) 
0

>  <original_name>  (37) 
x0246-0B-x0176-0B-CC-C-O-OCCNS-C-O-O-c1ccccc1

>  <original SMILES>  (37) 
[H]c1c([H])c([H])c([C@]([H])(C(=O)OC([H])([H])C([H])([H])N([H])S(=O)(=O)C([H])([H])[H])C([H])([H])[H])c([H])c1[H]

$$$$
167_x0246_0B_-x0176_0B_CC
     RDKit          3D

 18 18  0  0  0  0  0  0  0  0999 V2000
  -13.0910    6.0130  -76.2180 C   0  0  0  0  0  0  0  0  0  0  0  0
  -13.0370    4.6040  -76.7740 C   0  0  2  0  0  0  0  0  0  0  0  0
  -11.6050    4.0320  -76.8360 C   0  0  0  0  0  0  0  0  0  0  0  0
  -13.7730    4.5530  -78.4230 S   0  0  0  0  0  0  0  0  0  0  0  0
  -11.4310    2.8480  -75.8410 C   0  0  0  0  0  0  0  0  0  0  0  0
  -10.6680    4.5670  -77.6940 C   0  0  0  0  0  0  0  0  0  0  0  0
  -13.1260    5.6030  -79.1450 O   0  0  0  0  0  0  0  0  0  0  0  0
  -13.8120    3.1960  -78.9030 O   0  0  0  0  0  0  0  0  0  0  0  0
  -15.3760    5.0440  -78.3190 N   0  0  0  0  0  0  0  0  0  0  0  0
   -9.9810    2.2100  -75.8520 C   0  0  0  0  0  0  0  0  0  0  0  0
   -9.2710    4.0180  -77.7590 C   0  0  0  0  0  0  0  0  0  0  0  0
  -16.2460    4.4150  -79.3420 C   0  0  0  0  0  0  0  0  0  0  0  0
   -8.9660    2.8540  -76.8340 C   0  0  0  0  0  0  0  0  0  0  0  0
  -17.0590    3.4880  -78.6860 C   0  0  0  0  0  0  0  0  0  0  0  0
  -17.9590    2.5240  -79.8820 S   0  0  0  0  0  0  0  0  0  0  0  0
  -17.8110    3.4910  -81.3570 C   0  0  0  0  0  0  0  0  0  0  0  0
  -19.3640    2.5340  -79.5070 O   0  0  0  0  0  0  0  0  0  0  0  0
  -17.2510    1.2790  -80.0860 O   0  0  0  0  0  0  0  0  0  0  0  0
  2  1  1  6
  2  3  1  0
  2  4  1  0
  3  5  2  0
  3  6  1  0
  4  7  2  0
  4  8  2  0
  4  9  1  0
  5 10  1  0
  6 11  2  0
  9 12  1  0
 10 13  2  0
 11 13  1  0
 12 14  1  0
 15 14  1  0
 15 16  1  0
 15 17  2  0
 15 18  2  0
M  END
>  <ref_pdb>  (38) 
x0176

>  <ref_mols>  (38) 
x0176_0B,x0246_0B

>  <fragmensteinOld_score>  (38) 
-0.027829972849253037

>  <LE_score>  (38) 
-0.21275361747908406

>  <comRMSD_score>  (38) 
0.72318449706708321

>  <fragmensteinNew_score>  (38) 
3.026553990803881

>  <meanSuCosW_score>  (38) 
0.2688974955029092

>  <maxSuCosW_score>  (38) 
0.33205261212888781

>  <minSuCosW_score>  (38) 
0.20574237887693061

>  <sumSuCosW_score>  (38) 
0.5377949910058184

>  <SA_score>  (38) 
6.0401957094825924

>  <aLogP_score>  (38) 
0.71160000000000023

>  <hbondD_score>  (38) 
1

>  <hbondA_score>  (38) 
4

>  <polarSurfaceArea_score>  (38) 
80.310000000000002

>  <rotableBonds_score>  (38) 
6

>  <SC_score>  (38) 
3.0193914483628768

>  <energyPoseVsEnsemble_score>  (38) 
2.4222132795844433

>  <xcos_score>  (38) 
6.5388341403991959

>  <plipMedianPreser_score>  (38) 
0

>  <plipGlobalPreser_score>  (38) 
0

>  <plipGlobalPreserOverMw_score>  (38) 
0

>  <original_name>  (38) 
x0246-0B-x0176-0B-CC-c1ccccc1-S-O-O-NCCS-C-O-O

>  <original SMILES>  (38) 
[H]c1c([H])c([H])c([C@@]([H])(C([H])([H])[H])S(=O)(=O)N([H])C([H])([H])C([H])([H])S(=O)(=O)C([H])([H])[H])c([H])c1[H]

$$$$
172_x0246_0B_-x0176_0B_CNS
     RDKit          3D

 15 15  0  0  0  0  0  0  0  0999 V2000
  -15.1840    7.3580  -73.8310 C   0  0  0  0  0  0  0  0  0  0  0  0
  -13.8950    7.4390  -73.1350 N   0  0  0  0  0  0  0  0  0  0  0  0
  -12.6290    6.5240  -73.7380 S   0  0  0  0  0  0  0  0  0  0  0  0
  -11.4090    7.1850  -73.3020 O   0  0  0  0  0  0  0  0  0  0  0  0
  -12.8910    5.1280  -73.4840 O   0  0  0  0  0  0  0  0  0  0  0  0
  -12.9260    6.7500  -75.3510 N   0  0  0  0  0  0  0  0  0  0  0  0
  -13.2870    5.6110  -76.2060 C   0  0  0  0  0  0  0  0  0  0  0  0
  -12.2210    5.4860  -77.2670 C   0  0  2  0  0  0  0  0  0  0  0  0
  -12.7620    5.3010  -78.5660 O   0  0  0  0  0  0  0  0  0  0  0  0
  -11.1900    4.4200  -76.9460 C   0  0  0  0  0  0  0  0  0  0  0  0
  -11.4230    3.4340  -75.9970 C   0  0  0  0  0  0  0  0  0  0  0  0
   -9.9500    4.3940  -77.5960 C   0  0  0  0  0  0  0  0  0  0  0  0
  -10.4170    2.3360  -75.6190 C   0  0  0  0  0  0  0  0  0  0  0  0
   -8.9480    3.4410  -77.3300 C   0  0  0  0  0  0  0  0  0  0  0  0
   -9.1210    2.4290  -76.3870 C   0  0  0  0  0  0  0  0  0  0  0  0
  1  2  1  0
  3  2  1  0
  3  4  2  0
  3  5  2  0
  3  6  1  0
  6  7  1  0
  7  8  1  0
  8  9  1  6
  8 10  1  0
 10 11  2  0
 10 12  1  0
 11 13  1  0
 12 14  2  0
 13 15  2  0
 14 15  1  0
M  END
>  <ref_pdb>  (39) 
x0176

>  <ref_mols>  (39) 
x0176_0B,x0246_0B

>  <fragmensteinOld_score>  (39) 
-1.1375219174566467

>  <LE_score>  (39) 
-0.16635679583168445

>  <comRMSD_score>  (39) 
0.56154847003840658

>  <fragmensteinNew_score>  (39) 
0.36711438839940247

>  <meanSuCosW_score>  (39) 
0.27882369830903742

>  <maxSuCosW_score>  (39) 
0.29092769000036622

>  <minSuCosW_score>  (39) 
0.26671970661770855

>  <sumSuCosW_score>  (39) 
0.55764739661807483

>  <SA_score>  (39) 
6.4856538697551507

>  <aLogP_score>  (39) 
-0.22619999999999973

>  <hbondD_score>  (39) 
3

>  <hbondA_score>  (39) 
3

>  <polarSurfaceArea_score>  (39) 
78.430000000000007

>  <rotableBonds_score>  (39) 
5

>  <SC_score>  (39) 
2.6590816088897924

>  <energyPoseVsEnsemble_score>  (39) 
1.4223427937679751

>  <xcos_score>  (39) 
9.1243893423866016

>  <plipMedianPreser_score>  (39) 
0

>  <plipGlobalPreser_score>  (39) 
0.375

>  <plipGlobalPreserOverMw_score>  (39) 
0.1629920908883124

>  <original_name>  (39) 
x0246-0B-x0176-0B-CNS-O-O-NC-C-H-O-c1ccccc1

>  <original SMILES>  (39) 
[H]O[C@]([H])(c1c([H])c([H])c([H])c([H])c1[H])C([H])([H])N([H])S(=O)(=O)N([H])C([H])([H])[H]

$$$$
173_x0246_0B_-x0176_0B_CNS
     RDKit          3D

 15 15  0  0  0  0  0  0  0  0999 V2000
  -14.6220    7.2090  -71.9930 C   0  0  0  0  0  0  0  0  0  0  0  0
  -13.9730    7.3820  -73.3000 N   0  0  0  0  0  0  0  0  0  0  0  0
  -12.6050    6.4800  -73.6720 S   0  0  0  0  0  0  0  0  0  0  0  0
  -11.4480    7.2570  -73.2600 O   0  0  0  0  0  0  0  0  0  0  0  0
  -12.7810    5.1090  -73.2660 O   0  0  0  0  0  0  0  0  0  0  0  0
  -12.7690    6.4830  -75.3250 N   0  0  0  0  0  0  0  0  0  0  0  0
  -13.4890    5.3810  -75.9750 C   0  0  0  0  0  0  0  0  0  0  0  0
  -12.7950    4.9790  -77.2630 C   0  0  1  0  0  0  0  0  0  0  0  0
  -12.5160    6.1320  -78.0550 O   0  0  0  0  0  0  0  0  0  0  0  0
  -11.4960    4.2420  -77.0070 C   0  0  0  0  0  0  0  0  0  0  0  0
  -11.4560    3.2070  -76.0830 C   0  0  0  0  0  0  0  0  0  0  0  0
  -10.2990    4.5570  -77.6740 C   0  0  0  0  0  0  0  0  0  0  0  0
  -10.2080    2.3870  -75.7370 C   0  0  0  0  0  0  0  0  0  0  0  0
   -9.0870    3.8670  -77.4360 C   0  0  0  0  0  0  0  0  0  0  0  0
   -8.9900    2.8190  -76.5170 C   0  0  0  0  0  0  0  0  0  0  0  0
  1  2  1  0
  3  2  1  0
  3  4  2  0
  3  5  2  0
  3  6  1  0
  6  7  1  0
  7  8  1  0
  8  9  1  6
  8 10  1  0
 10 11  2  0
 10 12  1  0
 11 13  1  0
 12 14  2  0
 13 15  2  0
 14 15  1  0
M  END
>  <ref_pdb>  (40) 
x0176

>  <ref_mols>  (40) 
x0176_0B,x0246_0B

>  <fragmensteinOld_score>  (40) 
-1.7044356207198219

>  <LE_score>  (40) 
-0.25082272028057484

>  <comRMSD_score>  (40) 
0.39819708417801764

>  <fragmensteinNew_score>  (40) 
-0.2706156974407955

>  <meanSuCosW_score>  (40) 
0.31889458220434991

>  <maxSuCosW_score>  (40) 
0.32801358809397563

>  <minSuCosW_score>  (40) 
0.30977557631472419

>  <sumSuCosW_score>  (40) 
0.63778916440869982

>  <SA_score>  (40) 
6.4856538697551507

>  <aLogP_score>  (40) 
-0.22619999999999973

>  <hbondD_score>  (40) 
3

>  <hbondA_score>  (40) 
3

>  <polarSurfaceArea_score>  (40) 
78.430000000000007

>  <rotableBonds_score>  (40) 
5

>  <SC_score>  (40) 
2.2360673725167679

>  <energyPoseVsEnsemble_score>  (40) 
0.41683726380282049

>  <xcos_score>  (40) 
18.700277873251949

>  <plipMedianPreser_score>  (40) 
0

>  <plipGlobalPreser_score>  (40) 
0.375

>  <plipGlobalPreserOverMw_score>  (40) 
0.1629920908883124

>  <original_name>  (40) 
x0246-0B-x0176-0B-CNS-O-O-NCC-O-c1ccccc1

>  <original SMILES>  (40) 
[H]O[C@@]([H])(c1c([H])c([H])c([H])c([H])c1[H])C([H])([H])N([H])S(=O)(=O)N([H])C([H])([H])[H]

$$$$
174_x0246_0B_-x0176_0B_CS
     RDKit          3D

 18 18  0  0  0  0  0  0  0  0999 V2000
  -13.9490    9.6540  -75.0910 C   0  0  0  0  0  0  0  0  0  0  0  0
  -13.1910    9.1340  -73.5680 S   0  0  0  0  0  0  0  0  0  0  0  0
  -13.9070   10.1870  -72.3140 C   0  0  0  0  0  0  0  0  0  0  0  0
  -11.7490    9.2810  -73.6280 O   0  0  0  0  0  0  0  0  0  0  0  0
  -13.6860    7.5290  -73.3800 N   0  0  0  0  0  0  0  0  0  0  0  0
  -12.5380    6.5580  -73.6160 S   0  0  0  0  0  0  0  0  0  0  0  0
  -11.1970    7.0660  -73.4000 O   0  0  0  0  0  0  0  0  0  0  0  0
  -12.7290    5.1570  -73.3050 O   0  0  0  0  0  0  0  0  0  0  0  0
  -12.7750    6.5130  -75.2800 N   0  0  0  0  0  0  0  0  0  0  0  0
  -13.2480    5.2690  -75.9440 C   0  0  0  0  0  0  0  0  0  0  0  0
  -12.7330    5.0450  -77.3840 C   0  0  1  0  0  0  0  0  0  0  0  0
  -12.2060    6.2340  -77.9560 O   0  0  0  0  0  0  0  0  0  0  0  0
  -11.5970    4.0900  -76.9040 C   0  0  0  0  0  0  0  0  0  0  0  0
  -10.4480    4.5680  -77.7940 C   0  0  0  0  0  0  0  0  0  0  0  0
  -11.5020    3.0610  -75.9650 C   0  0  0  0  0  0  0  0  0  0  0  0
   -9.1360    3.8250  -77.5790 C   0  0  0  0  0  0  0  0  0  0  0  0
  -10.1320    2.3830  -75.8380 C   0  0  0  0  0  0  0  0  0  0  0  0
   -9.0600    2.7910  -76.6270 C   0  0  0  0  0  0  0  0  0  0  0  0
  2  1  1  0
  2  3  1  0
  2  4  2  0
  2  5  2  0
  6  5  1  0
  6  7  2  0
  6  8  2  0
  6  9  1  0
  9 10  1  0
 10 11  1  0
 11 12  1  1
 11 13  1  0
 13 14  2  0
 13 15  1  0
 14 16  1  0
 15 17  2  0
 16 18  2  0
 17 18  1  0
M  END
>  <ref_pdb>  (41) 
x0176

>  <ref_mols>  (41) 
x0176_0B,x0246_0B

>  <fragmensteinOld_score>  (41) 
-1.611049226485245

>  <LE_score>  (41) 
-0.34914976023051947

>  <comRMSD_score>  (41) 
0.41571986239072894

>  <fragmensteinNew_score>  (41) 
0.60360281903468249

>  <meanSuCosW_score>  (41) 
0.3228367297364807

>  <maxSuCosW_score>  (41) 
0.33790081508673658

>  <minSuCosW_score>  (41) 
0.30777264438622481

>  <sumSuCosW_score>  (41) 
0.6456734594729614

>  <SA_score>  (41) 
6.7953863114712787

>  <aLogP_score>  (41) 
0.28200000000000014

>  <hbondD_score>  (41) 
2

>  <hbondA_score>  (41) 
4

>  <polarSurfaceArea_score>  (41) 
95.829999999999998

>  <rotableBonds_score>  (41) 
5

>  <SC_score>  (41) 
2.3223961489209661

>  <energyPoseVsEnsemble_score>  (41) 
2.4705643026788593

>  <xcos_score>  (41) 
20.851892392547963

>  <plipMedianPreser_score>  (41) 
0

>  <plipGlobalPreser_score>  (41) 
0.375

>  <plipGlobalPreserOverMw_score>  (41) 
0.12840040701020869

>  <original_name>  (41) 
x0246-0B-x0176-0B-CS-C-O-NS-O-O-NC-C-H-O-c1ccccc1

>  <original SMILES>  (41) 
[H]O[C@@]([H])(c1c([H])c([H])c([H])c([H])c1[H])C([H])([H])N([H])S(=O)(=O)N=S(=O)(C([H])([H])[H])C([H])([H])[H]

$$$$
175_x0246_0B_-x0176_0B_CS
     RDKit          3D

 17 17  0  0  0  0  0  0  0  0999 V2000
  -13.3540   10.1590  -75.1590 C   0  0  0  0  0  0  0  0  0  0  0  0
  -12.7300    9.6730  -73.5660 S   0  0  0  0  0  0  0  0  0  0  0  0
  -11.4930    8.9690  -73.7700 O   0  0  0  0  0  0  0  0  0  0  0  0
  -12.7820   10.7850  -72.6560 O   0  0  0  0  0  0  0  0  0  0  0  0
  -13.9620    8.5360  -72.9650 C   0  0  0  0  0  0  0  0  0  0  0  0
  -14.0650    7.0960  -73.4610 C   0  0  0  0  0  0  0  0  0  0  0  0
  -12.7340    6.4750  -73.8510 C   0  0  0  0  0  0  0  0  0  0  0  0
  -12.6850    6.4460  -75.3190 N   0  0  0  0  0  0  0  0  0  0  0  0
  -13.4310    5.4120  -76.0120 C   0  0  0  0  0  0  0  0  0  0  0  0
  -12.7130    4.9670  -77.2950 C   0  0  1  0  0  0  0  0  0  0  0  0
  -12.3410    5.9720  -78.1190 O   0  0  0  0  0  0  0  0  0  0  0  0
  -11.4440    4.2070  -76.9530 C   0  0  0  0  0  0  0  0  0  0  0  0
  -10.2660    4.4980  -77.6440 C   0  0  0  0  0  0  0  0  0  0  0  0
  -11.4140    3.2160  -75.9560 C   0  0  0  0  0  0  0  0  0  0  0  0
   -9.0800    3.8140  -77.3580 C   0  0  0  0  0  0  0  0  0  0  0  0
  -10.2280    2.5360  -75.6710 C   0  0  0  0  0  0  0  0  0  0  0  0
   -9.0710    2.8400  -76.3710 C   0  0  0  0  0  0  0  0  0  0  0  0
  2  1  1  0
  2  3  2  0
  2  4  2  0
  2  5  1  0
  5  6  1  0
  6  7  1  0
  7  8  1  0
  8  9  1  0
  9 10  1  0
 10 11  1  6
 10 12  1  0
 12 13  2  0
 12 14  1  0
 13 15  1  0
 14 16  2  0
 15 17  2  0
 16 17  1  0
M  END
>  <ref_pdb>  (42) 
x0176

>  <ref_mols>  (42) 
x0176_0B,x0246_0B

>  <fragmensteinOld_score>  (42) 
-0.80007387189926282

>  <LE_score>  (42) 
-0.17594713047452423

>  <comRMSD_score>  (42) 
0.40371464999883416

>  <fragmensteinNew_score>  (42) 
1.0652950240068881

>  <meanSuCosW_score>  (42) 
0.28546696814038641

>  <maxSuCosW_score>  (42) 
0.32751959752710269

>  <minSuCosW_score>  (42) 
0.24341433875367019

>  <sumSuCosW_score>  (42) 
0.57093393628077282

>  <SA_score>  (42) 
7.5256058104924231

>  <aLogP_score>  (42) 
0.74430000000000007

>  <hbondD_score>  (42) 
2

>  <hbondA_score>  (42) 
4

>  <polarSurfaceArea_score>  (42) 
66.400000000000006

>  <rotableBonds_score>  (42) 
7

>  <SC_score>  (42) 
3.0932899565222263

>  <energyPoseVsEnsemble_score>  (42) 
1.0616972381104779

>  <xcos_score>  (42) 
17.219851116039521

>  <plipMedianPreser_score>  (42) 
0

>  <plipGlobalPreser_score>  (42) 
0

>  <plipGlobalPreserOverMw_score>  (42) 
0

>  <original_name>  (42) 
x0246-0B-x0176-0B-CS-O-O-CCCNCC-O-c1ccccc1

>  <original SMILES>  (42) 
[H]O[C@@]([H])(c1c([H])c([H])c([H])c([H])c1[H])C([H])([H])N([H])C([H])([H])C([H])([H])C([H])([H])S(=O)(=O)C([H])([H])[H]

$$$$
176_x0246_0B_-x0176_0B_CS
     RDKit          3D

 20 20  0  0  0  0  0  0  0  0999 V2000
  -16.0020    7.3410  -69.3210 C   0  0  0  0  0  0  0  0  0  0  0  0
  -16.6540    7.0760  -70.9560 S   0  0  0  0  0  0  0  0  0  0  0  0
  -16.1740    5.8010  -71.4690 O   0  0  0  0  0  0  0  0  0  0  0  0
  -18.0610    7.4110  -70.9550 O   0  0  0  0  0  0  0  0  0  0  0  0
  -15.8110    8.3370  -71.8690 C   0  0  0  0  0  0  0  0  0  0  0  0
  -14.3380    8.1130  -72.1410 C   0  0  0  0  0  0  0  0  0  0  0  0
  -14.1540    7.3990  -73.4590 C   0  0  0  0  0  0  0  0  0  0  0  0
  -12.6500    6.4340  -73.6540 S   0  0  0  0  0  0  0  0  0  0  0  0
  -11.5030    7.2190  -73.2110 O   0  0  0  0  0  0  0  0  0  0  0  0
  -12.8390    5.0670  -73.2180 O   0  0  0  0  0  0  0  0  0  0  0  0
  -12.6490    6.3830  -75.3220 N   0  0  0  0  0  0  0  0  0  0  0  0
  -13.4270    5.3410  -75.9690 C   0  0  0  0  0  0  0  0  0  0  0  0
  -12.7310    4.8910  -77.2640 C   0  0  1  0  0  0  0  0  0  0  0  0
  -12.3760    6.0700  -77.9880 O   0  0  0  0  0  0  0  0  0  0  0  0
  -11.4740    4.1070  -76.9320 C   0  0  0  0  0  0  0  0  0  0  0  0
  -11.5000    3.0620  -75.9910 C   0  0  0  0  0  0  0  0  0  0  0  0
  -10.2640    4.4160  -77.5530 C   0  0  0  0  0  0  0  0  0  0  0  0
  -10.3350    2.3500  -75.6860 C   0  0  0  0  0  0  0  0  0  0  0  0
   -9.0990    3.7050  -77.2440 C   0  0  0  0  0  0  0  0  0  0  0  0
   -9.1430    2.6800  -76.3150 C   0  0  0  0  0  0  0  0  0  0  0  0
  2  1  1  0
  2  3  2  0
  2  4  2  0
  2  5  1  0
  5  6  1  0
  6  7  1  0
  7  8  1  0
  8  9  2  0
  8 10  2  0
  8 11  1  0
 11 12  1  0
 12 13  1  0
 13 14  1  6
 13 15  1  0
 15 16  2  0
 15 17  1  0
 16 18  1  0
 17 19  2  0
 18 20  2  0
 19 20  1  0
M  END
>  <ref_pdb>  (43) 
x0176

>  <ref_mols>  (43) 
x0176_0B,x0246_0B

>  <fragmensteinOld_score>  (43) 
-1.2260144364538759

>  <LE_score>  (43) 
-0.30947895197021069

>  <comRMSD_score>  (43) 
0.37379716182100925

>  <fragmensteinNew_score>  (43) 
1.1844282261555519

>  <meanSuCosW_score>  (43) 
0.32124292906178503

>  <maxSuCosW_score>  (43) 
0.33518362068486668

>  <minSuCosW_score>  (43) 
0.30730223743870339

>  <sumSuCosW_score>  (43) 
0.64248585812357006

>  <SA_score>  (43) 
7.0155249082242639

>  <aLogP_score>  (43) 
0.074100000000000943

>  <hbondD_score>  (43) 
2

>  <hbondA_score>  (43) 
5

>  <polarSurfaceArea_score>  (43) 
100.54000000000001

>  <rotableBonds_score>  (43) 
8

>  <SC_score>  (43) 
2.7917466323111908

>  <energyPoseVsEnsemble_score>  (43) 
0.43787831924866927

>  <xcos_score>  (43) 
20.398089356826446

>  <plipMedianPreser_score>  (43) 
0.7142857142857143

>  <plipGlobalPreser_score>  (43) 
0.625

>  <plipGlobalPreserOverMw_score>  (43) 
0.19466131852657639

>  <original_name>  (43) 
x0246-0B-x0176-0B-CS-O-O-CCCS-O-O-NC-C-H-O-c1ccccc1

>  <original SMILES>  (43) 
[H]O[C@@]([H])(c1c([H])c([H])c([H])c([H])c1[H])C([H])([H])N([H])S(=O)(=O)C([H])([H])C([H])([H])C([H])([H])S(=O)(=O)C([H])([H])[H]

$$$$
179_x0246_0B_-x0176_0B_CS
     RDKit          3D

 17 17  0  0  0  0  0  0  0  0999 V2000
  -13.9180    7.2820  -73.2150 C   0  0  0  0  0  0  0  0  0  0  0  0
  -12.4850    6.3520  -73.7100 S   0  0  0  0  0  0  0  0  0  0  0  0
  -11.3210    7.1430  -73.3600 O   0  0  0  0  0  0  0  0  0  0  0  0
  -12.6340    4.9910  -73.2750 O   0  0  0  0  0  0  0  0  0  0  0  0
  -12.6170    6.3110  -75.3840 N   0  0  0  0  0  0  0  0  0  0  0  0
  -13.7420    5.5840  -75.9780 C   0  0  0  0  0  0  0  0  0  0  0  0
  -13.2960    4.4460  -76.9020 C   0  0  1  0  0  0  0  0  0  0  0  0
  -13.6780    4.7770  -78.3160 C   0  0  0  0  0  0  0  0  0  0  0  0
  -11.8300    3.9910  -76.7990 C   0  0  0  0  0  0  0  0  0  0  0  0
  -14.4370    3.8940  -79.0730 C   0  0  0  0  0  0  0  0  0  0  0  0
  -11.4710    2.8590  -75.8480 C   0  0  0  0  0  0  0  0  0  0  0  0
  -10.7730    4.5480  -77.5440 C   0  0  0  0  0  0  0  0  0  0  0  0
  -14.1370    2.5010  -78.8850 O   0  0  0  0  0  0  0  0  0  0  0  0
  -15.3780    4.5550  -79.9000 O   0  0  0  0  0  0  0  0  0  0  0  0
  -10.1390    2.4260  -75.7570 C   0  0  0  0  0  0  0  0  0  0  0  0
   -9.4850    4.0360  -77.3750 C   0  0  0  0  0  0  0  0  0  0  0  0
   -9.1270    3.0040  -76.5170 C   0  0  0  0  0  0  0  0  0  0  0  0
  1  2  1  0
  2  3  2  0
  2  4  2  0
  2  5  1  0
  5  6  1  0
  7  6  1  1
  7  8  1  0
  7  9  1  0
  8 10  1  0
  9 11  2  0
  9 12  1  0
 10 13  2  0
 10 14  1  0
 11 15  1  0
 12 16  2  0
 15 17  2  0
 16 17  1  0
M  END
>  <ref_pdb>  (44) 
x0176

>  <ref_mols>  (44) 
x0176_0B,x0246_0B

>  <fragmensteinOld_score>  (44) 
-1.1039165842867367

>  <LE_score>  (44) 
-0.19528872606729314

>  <comRMSD_score>  (44) 
0.63818057476897738

>  <fragmensteinNew_score>  (44) 
0.65076809840494576

>  <meanSuCosW_score>  (44) 
0.33867179216204796

>  <maxSuCosW_score>  (44) 
0.34713943357119681

>  <minSuCosW_score>  (44) 
0.33020415075289911

>  <sumSuCosW_score>  (44) 
0.67734358432409592

>  <SA_score>  (44) 
5.6286071483688236

>  <aLogP_score>  (44) 
0.79409999999999936

>  <hbondD_score>  (44) 
2

>  <hbondA_score>  (44) 
4

>  <polarSurfaceArea_score>  (44) 
83.469999999999999

>  <rotableBonds_score>  (44) 
6

>  <SC_score>  (44) 
2.7474102156169535

>  <energyPoseVsEnsemble_score>  (44) 
0.99244532350945502

>  <xcos_score>  (44) 
15.309095294926051

>  <plipMedianPreser_score>  (44) 
0.5714285714285714

>  <plipGlobalPreser_score>  (44) 
0.5

>  <plipGlobalPreserOverMw_score>  (44) 
0.19449790406055534

>  <original_name>  (44) 
x0246-0B-x0176-0B-CS-O-O-NCC-CC-O-O-c1ccccc1

>  <original SMILES>  (44) 
[H]OC(=O)C([H])([H])[C@@]([H])(c1c([H])c([H])c([H])c([H])c1[H])C([H])([H])N([H])S(=O)(=O)C([H])([H])[H]

$$$$
180_x0246_0B_-x0176_0B_CS
     RDKit          3D

 16 16  0  0  0  0  0  0  0  0999 V2000
  -13.9800    7.2680  -73.3150 C   0  0  0  0  0  0  0  0  0  0  0  0
  -12.5230    6.3370  -73.7470 S   0  0  0  0  0  0  0  0  0  0  0  0
  -11.3670    7.1310  -73.3560 O   0  0  0  0  0  0  0  0  0  0  0  0
  -12.6830    4.9800  -73.3090 O   0  0  0  0  0  0  0  0  0  0  0  0
  -12.5780    6.3140  -75.4300 N   0  0  0  0  0  0  0  0  0  0  0  0
  -13.7450    5.7660  -76.1300 C   0  0  0  0  0  0  0  0  0  0  0  0
  -13.3760    4.5530  -76.9860 C   0  0  1  0  0  0  0  0  0  0  0  0
  -13.8220    4.7540  -78.4190 C   0  0  0  0  0  0  0  0  0  0  0  0
  -11.9170    4.0700  -76.8930 C   0  0  0  0  0  0  0  0  0  0  0  0
  -15.1230    5.2330  -78.6420 C   0  0  0  0  0  0  0  0  0  0  0  0
  -10.8350    4.5800  -77.8180 C   0  0  0  0  0  0  0  0  0  0  0  0
  -11.5330    3.1130  -75.9370 C   0  0  0  0  0  0  0  0  0  0  0  0
  -15.7580    4.4940  -79.6980 O   0  0  0  0  0  0  0  0  0  0  0  0
   -9.5310    4.0860  -77.6840 C   0  0  0  0  0  0  0  0  0  0  0  0
  -10.2200    2.6610  -75.8500 C   0  0  0  0  0  0  0  0  0  0  0  0
   -9.2250    3.1380  -76.7110 C   0  0  0  0  0  0  0  0  0  0  0  0
  1  2  1  0
  2  3  2  0
  2  4  2  0
  2  5  1  0
  5  6  1  0
  7  6  1  1
  7  8  1  0
  7  9  1  0
  8 10  1  0
  9 11  2  0
  9 12  1  0
 10 13  1  0
 11 14  1  0
 12 15  2  0
 14 16  2  0
 15 16  1  0
M  END
>  <ref_pdb>  (45) 
x0176

>  <ref_mols>  (45) 
x0176_0B,x0246_0B

>  <fragmensteinOld_score>  (45) 
-1.9840331359277277

>  <LE_score>  (45) 
-0.19057340919500662

>  <comRMSD_score>  (45) 
0.50203113717429626

>  <fragmensteinNew_score>  (45) 
-0.7713135796691537

>  <meanSuCosW_score>  (45) 
0.34209284462704098

>  <maxSuCosW_score>  (45) 
0.35261558291819572

>  <minSuCosW_score>  (45) 
0.33157010633588624

>  <sumSuCosW_score>  (45) 
0.68418568925408196

>  <SA_score>  (45) 
7.2767438301027365

>  <aLogP_score>  (45) 
0.70179999999999954

>  <hbondD_score>  (45) 
2

>  <hbondA_score>  (45) 
3

>  <polarSurfaceArea_score>  (45) 
66.400000000000006

>  <rotableBonds_score>  (45) 
6

>  <SC_score>  (45) 
2.8644284299865013

>  <energyPoseVsEnsemble_score>  (45) 
0.66803170384467025

>  <xcos_score>  (45) 
20.514250525427119

>  <plipMedianPreser_score>  (45) 
0.5714285714285714

>  <plipGlobalPreser_score>  (45) 
0.5

>  <plipGlobalPreserOverMw_score>  (45) 
0.20568267126414141

>  <original_name>  (45) 
x0246-0B-x0176-0B-CS-O-O-NCC-CCO-c1ccccc1

>  <original SMILES>  (45) 
[H]OC([H])([H])C([H])([H])[C@@]([H])(c1c([H])c([H])c([H])c([H])c1[H])C([H])([H])N([H])S(=O)(=O)C([H])([H])[H]

$$$$
192_x0276_0A_-x0176_0A_CCCNS
     RDKit          3D

  8  7  0  0  0  0  0  0  0  0999 V2000
    0.9550   36.6480  -58.8880 C   0  0  0  0  0  0  0  0  0  0  0  0
   -0.0210   37.4930  -59.6650 C   0  0  0  0  0  0  0  0  0  0  0  0
   -0.2870   38.7940  -59.2090 C   0  0  0  0  0  0  0  0  0  0  0  0
   -1.5380   38.8610  -58.4810 N   0  0  0  0  0  0  0  0  0  0  0  0
   -2.6140   40.1250  -58.7250 S   0  0  0  0  0  0  0  0  0  0  0  0
   -1.5750   41.5430  -58.8410 C   0  0  0  0  0  0  0  0  0  0  0  0
   -3.4030   40.3000  -57.5210 O   0  0  0  0  0  0  0  0  0  0  0  0
   -3.2340   39.9570  -60.0200 O   0  0  0  0  0  0  0  0  0  0  0  0
  1  2  1  0
  2  3  1  0
  3  4  1  0
  5  4  1  0
  5  6  1  0
  5  7  2  0
  5  8  2  0
M  END
>  <ref_pdb>  (46) 
x0176

>  <ref_mols>  (46) 
x0176_0A,x0276_0A

>  <fragmensteinOld_score>  (46) 
-1.1410071464661182

>  <LE_score>  (46) 
-0.2885969198675179

>  <comRMSD_score>  (46) 
0.75162546121592466

>  <fragmensteinNew_score>  (46) 
0.72183618190543264

>  <meanSuCosW_score>  (46) 
0.46893550624140423

>  <maxSuCosW_score>  (46) 
0.54646757533738133

>  <minSuCosW_score>  (46) 
0.39140343714542719

>  <sumSuCosW_score>  (46) 
0.93787101248280846

>  <SA_score>  (46) 
7.6945108316364053

>  <aLogP_score>  (46) 
-0.054399999999999726

>  <hbondD_score>  (46) 
1

>  <hbondA_score>  (46) 
2

>  <polarSurfaceArea_score>  (46) 
46.170000000000002

>  <rotableBonds_score>  (46) 
3

>  <SC_score>  (46) 
1.7809109058138843

>  <energyPoseVsEnsemble_score>  (46) 
0.72222813223715299

>  <xcos_score>  (46) 
17.35124750078122

>  <plipMedianPreser_score>  (46) 
0

>  <plipGlobalPreser_score>  (46) 
0

>  <plipGlobalPreserOverMw_score>  (46) 
0

>  <original_name>  (46) 
x0276-0A-x0176-0A-CCCNS-C-O-O

>  <original SMILES>  (46) 
[H]N(C([H])([H])C([H])([H])C([H])([H])[H])S(=O)(=O)C([H])([H])[H]

$$$$
197_x0276_0B_-x0212_0B_CCc1ccc
     RDKit          3D

 20 21  0  0  0  0  0  0  0  0999 V2000
  -13.5240    5.5680  -76.4350 C   0  0  0  0  0  0  0  0  0  0  0  0
  -12.9740    4.7590  -77.4200 C   0  0  0  0  0  0  0  0  0  0  0  0
  -11.6630    4.3260  -77.2430 C   0  0  0  0  0  0  0  0  0  0  0  0
  -11.2770    3.6430  -76.0870 C   0  0  0  0  0  0  0  0  0  0  0  0
  -10.7200    4.5860  -78.2430 C   0  0  0  0  0  0  0  0  0  0  0  0
   -9.8570    3.2090  -75.9230 C   0  0  0  0  0  0  0  0  0  0  0  0
   -9.3870    4.2040  -78.1360 C   0  0  0  0  0  0  0  0  0  0  0  0
   -8.9060    3.5360  -77.0170 C   0  0  0  0  0  0  0  0  0  0  0  0
   -7.1940    3.1120  -76.9460 S   0  0  0  0  0  0  0  0  0  0  0  0
   -6.8800    2.4910  -75.7160 O   0  0  0  0  0  0  0  0  0  0  0  0
   -6.3810    4.1400  -77.5430 O   0  0  0  0  0  0  0  0  0  0  0  0
   -7.2640    1.8640  -77.9780 N   0  0  0  0  0  0  0  0  0  0  0  0
   -7.1300    2.1310  -79.3230 C   0  0  0  0  0  0  0  0  0  0  0  0
   -7.9380    1.3440  -80.1070 C   0  0  0  0  0  0  0  0  0  0  0  0
   -8.3280    0.1010  -79.6240 C   0  0  0  0  0  0  0  0  0  0  0  0
   -8.3560    1.7750  -81.3400 C   0  0  0  0  0  0  0  0  0  0  0  0
   -9.1500   -0.7060  -80.4090 C   0  0  0  0  0  0  0  0  0  0  0  0
   -9.1690    0.9810  -82.1220 C   0  0  0  0  0  0  0  0  0  0  0  0
   -7.9820    2.9670  -81.7910 F   0  0  0  0  0  0  0  0  0  0  0  0
   -9.5700   -0.2680  -81.6550 C   0  0  0  0  0  0  0  0  0  0  0  0
  1  2  1  0
  2  3  1  0
  3  4  2  0
  3  5  1  0
  4  6  1  0
  5  7  2  0
  6  8  2  0
  7  8  1  0
  8  9  1  0
  9 10  2  0
  9 11  2  0
  9 12  1  0
 12 13  1  0
 13 14  1  0
 14 15  2  0
 14 16  1  0
 15 17  1  0
 16 18  2  0
 16 19  1  0
 17 20  2  0
 18 20  1  0
M  END
>  <ref_pdb>  (47) 
x0212

>  <ref_mols>  (47) 
x0212_0B,x0276_0B

>  <fragmensteinOld_score>  (47) 
-1.7272693546885818

>  <LE_score>  (47) 
-0.17608673540717026

>  <comRMSD_score>  (47) 
0.64751228110296755

>  <fragmensteinNew_score>  (47) 
-0.13020925539827344

>  <meanSuCosW_score>  (47) 
0.2850898517000342

>  <maxSuCosW_score>  (47) 
0.37105054077272548

>  <minSuCosW_score>  (47) 
0.1991291626273429

>  <sumSuCosW_score>  (47) 
0.57017970340006841

>  <SA_score>  (47) 
7.5980811462085063

>  <aLogP_score>  (47) 
2.8666000000000009

>  <hbondD_score>  (47) 
1

>  <hbondA_score>  (47) 
2

>  <polarSurfaceArea_score>  (47) 
46.170000000000002

>  <rotableBonds_score>  (47) 
5

>  <SC_score>  (47) 
2.5593444925345725

>  <energyPoseVsEnsemble_score>  (47) 
1.4658577180351096

>  <xcos_score>  (47) 
16.998724176895543

>  <plipMedianPreser_score>  (47) 
0

>  <plipGlobalPreser_score>  (47) 
0

>  <plipGlobalPreserOverMw_score>  (47) 
0

>  <original_name>  (47) 
x0276-0B-x0212-0B-CCc1ccc-S-O-O-NCc2ccccc2F-cc1

>  <original SMILES>  (47) 
[H]c1c([H])c([H])c(C([H])([H])N([H])S(=O)(=O)c2c([H])c([H])c(C([H])([H])C([H])([H])[H])c([H])c2[H])c(F)c1[H]

$$$$
199_x0276_0B_-x0212_0B_FCCc1ccc
     RDKit          3D

 18 19  0  0  0  0  0  0  0  0999 V2000
  -12.5490    6.9080  -75.9050 F   0  0  0  0  0  0  0  0  0  0  0  0
  -13.0420    5.6660  -75.9280 C   0  0  0  0  0  0  0  0  0  0  0  0
  -12.7460    4.8600  -77.0130 C   0  0  0  0  0  0  0  0  0  0  0  0
  -11.4730    4.2830  -77.1190 C   0  0  0  0  0  0  0  0  0  0  0  0
  -10.9160    3.4830  -76.1040 C   0  0  0  0  0  0  0  0  0  0  0  0
  -10.7520    4.5240  -78.2900 C   0  0  0  0  0  0  0  0  0  0  0  0
   -9.5460    2.8930  -76.2970 C   0  0  0  0  0  0  0  0  0  0  0  0
   -9.4800    4.0050  -78.5200 C   0  0  0  0  0  0  0  0  0  0  0  0
   -8.8490    3.2010  -77.5780 C   0  0  0  0  0  0  0  0  0  0  0  0
   -7.5230    2.6170  -77.7490 N   0  0  0  0  0  0  0  0  0  0  0  0
   -7.1210    2.4410  -79.0810 C   0  0  0  0  0  0  0  0  0  0  0  0
   -7.8750    1.5700  -79.8600 C   0  0  0  0  0  0  0  0  0  0  0  0
   -8.2550    1.8900  -81.1700 C   0  0  0  0  0  0  0  0  0  0  0  0
   -8.2570    0.3500  -79.3040 C   0  0  0  0  0  0  0  0  0  0  0  0
   -9.0180    0.9660  -81.9010 C   0  0  0  0  0  0  0  0  0  0  0  0
   -9.0120   -0.5590  -80.0270 C   0  0  0  0  0  0  0  0  0  0  0  0
   -9.3890   -0.2530  -81.3170 C   0  0  0  0  0  0  0  0  0  0  0  0
  -10.1140   -1.1490  -81.9770 F   0  0  0  0  0  0  0  0  0  0  0  0
  1  2  1  0
  2  3  1  0
  3  4  1  0
  4  5  2  0
  4  6  1  0
  5  7  1  0
  6  8  2  0
  7  9  2  0
  8  9  1  0
  9 10  1  0
 10 11  1  0
 11 12  1  0
 12 13  2  0
 12 14  1  0
 13 15  1  0
 14 16  2  0
 15 17  2  0
 16 17  1  0
 17 18  1  0
M  END
>  <ref_pdb>  (48) 
x0212

>  <ref_mols>  (48) 
x0212_0B,x0276_0B

>  <fragmensteinOld_score>  (48) 
-2.4975363489364661

>  <LE_score>  (48) 
-0.27432547460536932

>  <comRMSD_score>  (48) 
0.60949573932715884

>  <fragmensteinNew_score>  (48) 
-0.58733599844406537

>  <meanSuCosW_score>  (48) 
0.27108320886559478

>  <maxSuCosW_score>  (48) 
0.35366034371620331

>  <minSuCosW_score>  (48) 
0.18850607401498626

>  <sumSuCosW_score>  (48) 
0.54216641773118956

>  <SA_score>  (48) 
7.6425494339232181

>  <aLogP_score>  (48) 
3.9498000000000024

>  <hbondD_score>  (48) 
1

>  <hbondA_score>  (48) 
1

>  <polarSurfaceArea_score>  (48) 
12.029999999999999

>  <rotableBonds_score>  (48) 
5

>  <SC_score>  (48) 
3.0595013421582782

>  <energyPoseVsEnsemble_score>  (48) 
1.369547400544824

>  <xcos_score>  (48) 
16.4228132646959

>  <plipMedianPreser_score>  (48) 
0

>  <plipGlobalPreser_score>  (48) 
0

>  <plipGlobalPreserOverMw_score>  (48) 
0

>  <original_name>  (48) 
x0276-0B-x0212-0B-FCCc1ccc-NCc2ccc-F-cc2-cc1

>  <original SMILES>  (48) 
[H]c1c([H])c(C([H])([H])N([H])c2c([H])c([H])c(C([H])([H])C([H])([H])F)c([H])c2[H])c([H])c([H])c1F

$$$$
200_x0276_0B_-x0212_0B_FCCc1ccc
     RDKit          3D

 18 19  0  0  0  0  0  0  0  0999 V2000
  -14.5710    4.5020  -75.9570 F   0  0  0  0  0  0  0  0  0  0  0  0
  -13.4620    5.2880  -76.0060 C   0  0  0  0  0  0  0  0  0  0  0  0
  -12.7710    5.0980  -77.3430 C   0  0  0  0  0  0  0  0  0  0  0  0
  -11.4330    4.3560  -77.3080 C   0  0  0  0  0  0  0  0  0  0  0  0
  -10.9860    3.5850  -76.2240 C   0  0  0  0  0  0  0  0  0  0  0  0
  -10.6330    4.4670  -78.4260 C   0  0  0  0  0  0  0  0  0  0  0  0
   -9.6290    2.8670  -76.2740 C   0  0  0  0  0  0  0  0  0  0  0  0
   -9.3980    3.8540  -78.5480 C   0  0  0  0  0  0  0  0  0  0  0  0
   -8.8480    3.0630  -77.5500 C   0  0  0  0  0  0  0  0  0  0  0  0
   -7.6070    2.4540  -77.7100 N   0  0  0  0  0  0  0  0  0  0  0  0
   -7.0580    2.3430  -79.0640 C   0  0  0  0  0  0  0  0  0  0  0  0
   -7.7980    1.4660  -79.8710 C   0  0  0  0  0  0  0  0  0  0  0  0
   -8.1680    0.2090  -79.4030 C   0  0  0  0  0  0  0  0  0  0  0  0
   -8.1720    1.8460  -81.1720 C   0  0  0  0  0  0  0  0  0  0  0  0
   -8.9640   -0.7760  -80.2520 C   0  0  0  0  0  0  0  0  0  0  0  0
   -8.8990    1.0180  -82.0260 C   0  0  0  0  0  0  0  0  0  0  0  0
   -7.8260    3.0440  -81.6230 F   0  0  0  0  0  0  0  0  0  0  0  0
   -9.2820   -0.2440  -81.5920 C   0  0  0  0  0  0  0  0  0  0  0  0
  1  2  1  0
  2  3  1  0
  3  4  1  0
  4  5  2  0
  4  6  1  0
  5  7  1  0
  6  8  2  0
  7  9  2  0
  8  9  1  0
  9 10  1  0
 10 11  1  0
 11 12  1  0
 12 13  2  0
 12 14  1  0
 13 15  1  0
 14 16  2  0
 14 17  1  0
 15 18  2  0
 16 18  1  0
M  END
>  <ref_pdb>  (49) 
x0212

>  <ref_mols>  (49) 
x0212_0B,x0276_0B

>  <fragmensteinOld_score>  (49) 
-2.1251142190624615

>  <LE_score>  (49) 
-0.21337445508518194

>  <comRMSD_score>  (49) 
0.57105849229530259

>  <fragmensteinNew_score>  (49) 
-0.55849979078685308

>  <meanSuCosW_score>  (49) 
0.28187713503812412

>  <maxSuCosW_score>  (49) 
0.37973125401664209

>  <minSuCosW_score>  (49) 
0.18402301605960614

>  <sumSuCosW_score>  (49) 
0.56375427007624823

>  <SA_score>  (49) 
7.6660197389294593

>  <aLogP_score>  (49) 
3.9498000000000024

>  <hbondD_score>  (49) 
1

>  <hbondA_score>  (49) 
1

>  <polarSurfaceArea_score>  (49) 
12.029999999999999

>  <rotableBonds_score>  (49) 
5

>  <SC_score>  (49) 
3.1239367860879677

>  <energyPoseVsEnsemble_score>  (49) 
1.5668872672364889

>  <xcos_score>  (49) 
19.212135165487648

>  <plipMedianPreser_score>  (49) 
0

>  <plipGlobalPreser_score>  (49) 
0

>  <plipGlobalPreserOverMw_score>  (49) 
0

>  <original_name>  (49) 
x0276-0B-x0212-0B-FCCc1ccc-NCc2ccccc2F-cc1

>  <original SMILES>  (49) 
[H]c1c([H])c([H])c(C([H])([H])N([H])c2c([H])c([H])c(C([H])([H])C([H])([H])F)c([H])c2[H])c(F)c1[H]

$$$$
203_x0276_0B_-x0212_0B_NCCCCc1ccc
     RDKit          3D

 20 21  0  0  0  0  0  0  0  0999 V2000
  -13.5390    7.4170  -73.4480 N   0  0  0  0  0  0  0  0  0  0  0  0
  -12.4360    6.6430  -74.0300 C   0  0  0  0  0  0  0  0  0  0  0  0
  -12.6410    6.6210  -75.5310 C   0  0  0  0  0  0  0  0  0  0  0  0
  -13.2200    5.2960  -75.9860 C   0  0  0  0  0  0  0  0  0  0  0  0
  -12.8260    4.7710  -77.2150 C   0  0  0  0  0  0  0  0  0  0  0  0
  -11.4270    4.1690  -77.3460 C   0  0  0  0  0  0  0  0  0  0  0  0
  -10.9050    3.2830  -76.2460 C   0  0  0  0  0  0  0  0  0  0  0  0
  -10.6310    4.4070  -78.4390 C   0  0  0  0  0  0  0  0  0  0  0  0
   -9.6210    2.7280  -76.3900 C   0  0  0  0  0  0  0  0  0  0  0  0
   -9.3730    3.8390  -78.5350 C   0  0  0  0  0  0  0  0  0  0  0  0
   -8.8590    3.0060  -77.5400 C   0  0  0  0  0  0  0  0  0  0  0  0
   -7.6580    2.4390  -77.6160 N   0  0  0  0  0  0  0  0  0  0  0  0
   -7.0010    2.4360  -78.9230 C   0  0  0  0  0  0  0  0  0  0  0  0
   -7.8030    1.5290  -79.8820 C   0  0  0  0  0  0  0  0  0  0  0  0
   -8.1960    0.1910  -79.4260 C   0  0  0  0  0  0  0  0  0  0  0  0
   -8.1880    1.8870  -81.1770 C   0  0  0  0  0  0  0  0  0  0  0  0
   -8.9170   -0.6910  -80.2370 C   0  0  0  0  0  0  0  0  0  0  0  0
   -8.9110    0.9890  -81.9900 C   0  0  0  0  0  0  0  0  0  0  0  0
   -7.8730    3.0810  -81.6580 F   0  0  0  0  0  0  0  0  0  0  0  0
   -9.2780   -0.2980  -81.5290 C   0  0  0  0  0  0  0  0  0  0  0  0
  1  2  1  0
  2  3  1  0
  3  4  1  0
  4  5  1  0
  5  6  1  0
  6  7  2  0
  6  8  1  0
  7  9  1  0
  8 10  2  0
  9 11  2  0
 10 11  1  0
 11 12  1  0
 12 13  1  0
 13 14  1  0
 14 15  2  0
 14 16  1  0
 15 17  1  0
 16 18  2  0
 16 19  1  0
 17 20  2  0
 18 20  1  0
M  END
>  <ref_pdb>  (50) 
x0212

>  <ref_mols>  (50) 
x0212_0B,x0276_0B

>  <fragmensteinOld_score>  (50) 
-2.9207964172159411

>  <LE_score>  (50) 
-0.21598602122673496

>  <comRMSD_score>  (50) 
0.51593648467238684

>  <fragmensteinNew_score>  (50) 
-0.98409497354773223

>  <meanSuCosW_score>  (50) 
0.29517890735383223

>  <maxSuCosW_score>  (50) 
0.3772398818043774

>  <minSuCosW_score>  (50) 
0.21311793290328712

>  <sumSuCosW_score>  (50) 
0.59035781470766446

>  <SA_score>  (50) 
6.4304740270619485

>  <aLogP_score>  (50) 
3.7192000000000025

>  <hbondD_score>  (50) 
2

>  <hbondA_score>  (50) 
2

>  <polarSurfaceArea_score>  (50) 
38.049999999999997

>  <rotableBonds_score>  (50) 
7

>  <SC_score>  (50) 
3.6652830711918485

>  <energyPoseVsEnsemble_score>  (50) 
1.2581514162609091

>  <xcos_score>  (50) 
18.875194380372395

>  <plipMedianPreser_score>  (50) 
0

>  <plipGlobalPreser_score>  (50) 
0

>  <plipGlobalPreserOverMw_score>  (50) 
0

>  <original_name>  (50) 
x0276-0B-x0212-0B-NCCCCc1ccc-NCc2ccccc2F-cc1

>  <original SMILES>  (50) 
[H]c1c([H])c([H])c(C([H])([H])N([H])c2c([H])c([H])c(C([H])([H])C([H])([H])C([H])([H])C([H])([H])N([H])[H])c([H])c2[H])c(F)c1[H]

$$$$
204_x0276_0B_-x0212_0B_NCCc1ccc
     RDKit          3D

 19 20  0  0  0  0  0  0  0  0999 V2000
  -12.6310    6.3970  -75.6430 N   0  0  0  0  0  0  0  0  0  0  0  0
  -13.8260    5.6580  -76.0880 C   0  0  0  0  0  0  0  0  0  0  0  0
  -13.4760    4.6480  -76.9700 C   0  0  0  0  0  0  0  0  0  0  0  0
  -12.1620    4.2040  -76.9280 C   0  0  0  0  0  0  0  0  0  0  0  0
  -11.2880    4.6340  -77.8900 C   0  0  0  0  0  0  0  0  0  0  0  0
  -11.6650    3.3280  -75.9440 C   0  0  0  0  0  0  0  0  0  0  0  0
   -9.8850    4.2260  -77.9260 C   0  0  0  0  0  0  0  0  0  0  0  0
  -10.3250    2.8870  -75.9060 C   0  0  0  0  0  0  0  0  0  0  0  0
   -9.4110    3.3150  -76.8740 C   0  0  0  0  0  0  0  0  0  0  0  0
   -8.1030    2.9430  -76.8920 C   0  0  0  0  0  0  0  0  0  0  0  0
   -7.7400    1.9550  -77.8140 N   0  0  0  0  0  0  0  0  0  0  0  0
   -7.1930    2.1650  -79.0680 C   0  0  0  0  0  0  0  0  0  0  0  0
   -7.8980    1.3480  -79.9330 C   0  0  0  0  0  0  0  0  0  0  0  0
   -8.2560    0.0510  -79.5020 C   0  0  0  0  0  0  0  0  0  0  0  0
   -8.2580    1.7900  -81.2220 C   0  0  0  0  0  0  0  0  0  0  0  0
   -8.9630   -0.7810  -80.3630 C   0  0  0  0  0  0  0  0  0  0  0  0
   -8.9600    0.9490  -82.0630 C   0  0  0  0  0  0  0  0  0  0  0  0
   -7.9290    3.0110  -81.6390 F   0  0  0  0  0  0  0  0  0  0  0  0
   -9.2960   -0.3150  -81.6180 C   0  0  0  0  0  0  0  0  0  0  0  0
  1  2  1  0
  2  3  1  0
  3  4  1  0
  4  5  2  0
  4  6  1  0
  5  7  1  0
  6  8  2  0
  7  9  2  0
  8  9  1  0
  9 10  1  0
 10 11  1  0
 11 12  1  0
 12 13  1  0
 13 14  2  0
 13 15  1  0
 14 16  1  0
 15 17  2  0
 15 18  1  0
 16 19  2  0
 17 19  1  0
M  END
>  <ref_pdb>  (51) 
x0212

>  <ref_mols>  (51) 
x0212_0B,x0276_0B

>  <fragmensteinOld_score>  (51) 
-1.9745427100818453

>  <LE_score>  (51) 
-0.18476031842798193

>  <comRMSD_score>  (51) 
0.90145062731567893

>  <fragmensteinNew_score>  (51) 
-0.14113379356236511

>  <meanSuCosW_score>  (51) 
0.27878411425820854

>  <maxSuCosW_score>  (51) 
0.35359873616315979

>  <minSuCosW_score>  (51) 
0.20396949235325729

>  <sumSuCosW_score>  (51) 
0.55756822851641707

>  <SA_score>  (51) 
7.9975639382780139

>  <aLogP_score>  (51) 
2.6167000000000007

>  <hbondD_score>  (51) 
2

>  <hbondA_score>  (51) 
2

>  <polarSurfaceArea_score>  (51) 
38.049999999999997

>  <rotableBonds_score>  (51) 
6

>  <SC_score>  (51) 
3.0637859481959913

>  <energyPoseVsEnsemble_score>  (51) 
2.2911373965870654

>  <xcos_score>  (51) 
15.56642369813077

>  <plipMedianPreser_score>  (51) 
0.80000000000000004

>  <plipGlobalPreser_score>  (51) 
0.7142857142857143

>  <plipGlobalPreserOverMw_score>  (51) 
0.27669060079641072

>  <original_name>  (51) 
x0276-0B-x0212-0B-NCCc1ccc-CNCc2ccccc2F-cc1

>  <original SMILES>  (51) 
[H]c1c([H])c([H])c(C([H])([H])N([H])C([H])([H])c2c([H])c([H])c(C([H])([H])C([H])([H])N([H])[H])c([H])c2[H])c(F)c1[H]

$$$$
205_x0276_0B_-x0212_0B_NCCc1ccc
     RDKit          3D

 18 19  0  0  0  0  0  0  0  0999 V2000
  -12.4360    6.3900  -75.3430 N   0  0  0  0  0  0  0  0  0  0  0  0
  -13.3090    5.3000  -75.7640 C   0  0  0  0  0  0  0  0  0  0  0  0
  -12.9240    4.8430  -77.1590 C   0  0  0  0  0  0  0  0  0  0  0  0
  -11.5260    4.2250  -77.2570 C   0  0  0  0  0  0  0  0  0  0  0  0
  -10.8060    4.4900  -78.4020 C   0  0  0  0  0  0  0  0  0  0  0  0
  -10.9610    3.4180  -76.2620 C   0  0  0  0  0  0  0  0  0  0  0  0
   -9.4160    3.9340  -78.6360 C   0  0  0  0  0  0  0  0  0  0  0  0
   -9.6690    2.8600  -76.4030 C   0  0  0  0  0  0  0  0  0  0  0  0
   -8.8680    3.0740  -77.5410 C   0  0  0  0  0  0  0  0  0  0  0  0
   -7.6400    2.5410  -77.6850 N   0  0  0  0  0  0  0  0  0  0  0  0
   -7.0800    2.6450  -79.0520 C   0  0  0  0  0  0  0  0  0  0  0  0
   -7.7760    1.7180  -79.8410 C   0  0  0  0  0  0  0  0  0  0  0  0
   -8.1600    2.0220  -81.1530 C   0  0  0  0  0  0  0  0  0  0  0  0
   -8.0930    0.4460  -79.3020 C   0  0  0  0  0  0  0  0  0  0  0  0
   -8.9010    0.9920  -81.9740 C   0  0  0  0  0  0  0  0  0  0  0  0
   -8.7820   -0.5570  -80.0040 C   0  0  0  0  0  0  0  0  0  0  0  0
   -9.1750   -0.2940  -81.3060 C   0  0  0  0  0  0  0  0  0  0  0  0
   -9.8270   -1.2650  -81.9450 F   0  0  0  0  0  0  0  0  0  0  0  0
  1  2  1  0
  2  3  1  0
  3  4  1  0
  4  5  2  0
  4  6  1  0
  5  7  1  0
  6  8  2  0
  7  9  2  0
  8  9  1  0
  9 10  1  0
 10 11  1  0
 11 12  1  0
 12 13  2  0
 12 14  1  0
 13 15  1  0
 14 16  2  0
 15 17  2  0
 16 17  1  0
 17 18  1  0
M  END
>  <ref_pdb>  (52) 
x0212

>  <ref_mols>  (52) 
x0212_0B,x0276_0B

>  <fragmensteinOld_score>  (52) 
-2.2630748036536317

>  <LE_score>  (52) 
-0.26039977537662984

>  <comRMSD_score>  (52) 
0.63060425292821376

>  <fragmensteinNew_score>  (52) 
-0.48643358981247864

>  <meanSuCosW_score>  (52) 
0.2794924828991141

>  <maxSuCosW_score>  (52) 
0.34518111147576175

>  <minSuCosW_score>  (52) 
0.21380385432246643

>  <sumSuCosW_score>  (52) 
0.55898496579822821

>  <SA_score>  (52) 
7.9052988706542768

>  <aLogP_score>  (52) 
2.9390000000000009

>  <hbondD_score>  (52) 
2

>  <hbondA_score>  (52) 
2

>  <polarSurfaceArea_score>  (52) 
38.049999999999997

>  <rotableBonds_score>  (52) 
5

>  <SC_score>  (52) 
3.1893045332358234

>  <energyPoseVsEnsemble_score>  (52) 
1.6748570506897082

>  <xcos_score>  (52) 
18.877218941191039

>  <plipMedianPreser_score>  (52) 
0

>  <plipGlobalPreser_score>  (52) 
0

>  <plipGlobalPreserOverMw_score>  (52) 
0

>  <original_name>  (52) 
x0276-0B-x0212-0B-NCCc1ccc-NCc2ccc-F-cc2-cc1

>  <original SMILES>  (52) 
[H]c1c([H])c(C([H])([H])N([H])c2c([H])c([H])c(C([H])([H])C([H])([H])N([H])[H])c([H])c2[H])c([H])c([H])c1F

$$$$
208_x0276_0B_-x0212_0B_OCCCCc1ccc
     RDKit          3D

 20 21  0  0  0  0  0  0  0  0999 V2000
  -13.4590    7.0460  -73.4210 O   0  0  0  0  0  0  0  0  0  0  0  0
  -12.5200    6.8710  -74.2040 C   0  0  0  0  0  0  0  0  0  0  0  0
  -12.7660    6.8000  -75.5670 C   0  0  0  0  0  0  0  0  0  0  0  0
  -13.2770    5.5950  -76.0600 C   0  0  0  0  0  0  0  0  0  0  0  0
  -12.7550    5.0750  -77.2460 C   0  0  0  0  0  0  0  0  0  0  0  0
  -11.4300    4.3550  -77.2810 C   0  0  0  0  0  0  0  0  0  0  0  0
  -10.8760    3.5160  -76.1630 C   0  0  0  0  0  0  0  0  0  0  0  0
  -10.6630    4.4610  -78.4170 C   0  0  0  0  0  0  0  0  0  0  0  0
   -9.6380    2.8850  -76.3160 C   0  0  0  0  0  0  0  0  0  0  0  0
   -9.4360    3.8210  -78.5330 C   0  0  0  0  0  0  0  0  0  0  0  0
   -8.9130    3.0340  -77.5050 C   0  0  0  0  0  0  0  0  0  0  0  0
   -7.6550    2.4190  -77.7380 N   0  0  0  0  0  0  0  0  0  0  0  0
   -7.0100    2.3070  -79.0340 C   0  0  0  0  0  0  0  0  0  0  0  0
   -7.7740    1.4530  -79.8600 C   0  0  0  0  0  0  0  0  0  0  0  0
   -8.1590    0.1730  -79.4390 C   0  0  0  0  0  0  0  0  0  0  0  0
   -8.1800    1.8540  -81.1520 C   0  0  0  0  0  0  0  0  0  0  0  0
   -8.9050   -0.6400  -80.2910 C   0  0  0  0  0  0  0  0  0  0  0  0
   -8.9260    1.0170  -81.9850 C   0  0  0  0  0  0  0  0  0  0  0  0
   -7.8480    3.0600  -81.6030 F   0  0  0  0  0  0  0  0  0  0  0  0
   -9.2950   -0.2510  -81.5530 C   0  0  0  0  0  0  0  0  0  0  0  0
  1  2  1  0
  2  3  1  0
  3  4  1  0
  4  5  1  0
  5  6  1  0
  6  7  2  0
  6  8  1  0
  7  9  1  0
  8 10  2  0
  9 11  2  0
 10 11  1  0
 11 12  1  0
 12 13  1  0
 13 14  1  0
 14 15  2  0
 14 16  1  0
 15 17  1  0
 16 18  2  0
 16 19  1  0
 17 20  2  0
 18 20  1  0
M  END
>  <ref_pdb>  (53) 
x0212

>  <ref_mols>  (53) 
x0212_0B,x0276_0B

>  <fragmensteinOld_score>  (53) 
-2.7250866328890839

>  <LE_score>  (53) 
-0.1862604341663231

>  <comRMSD_score>  (53) 
0.56896345110926672

>  <fragmensteinNew_score>  (53) 
-0.84831545361356064

>  <meanSuCosW_score>  (53) 
0.29579546092364384

>  <maxSuCosW_score>  (53) 
0.37644099963817806

>  <minSuCosW_score>  (53) 
0.21514992220910956

>  <sumSuCosW_score>  (53) 
0.59159092184728768

>  <SA_score>  (53) 
6.3410717898961906

>  <aLogP_score>  (53) 
3.7528000000000024

>  <hbondD_score>  (53) 
2

>  <hbondA_score>  (53) 
2

>  <polarSurfaceArea_score>  (53) 
32.259999999999998

>  <rotableBonds_score>  (53) 
7

>  <SC_score>  (53) 
3.1984958525902907

>  <energyPoseVsEnsemble_score>  (53) 
1.6965008586180004

>  <xcos_score>  (53) 
21.129155221126503

>  <plipMedianPreser_score>  (53) 
0

>  <plipGlobalPreser_score>  (53) 
0

>  <plipGlobalPreserOverMw_score>  (53) 
0

>  <original_name>  (53) 
x0276-0B-x0212-0B-OCCCCc1ccc-NCc2ccccc2F-cc1

>  <original SMILES>  (53) 
[H]OC([H])([H])C([H])([H])C([H])([H])C([H])([H])c1c([H])c([H])c(N([H])C([H])([H])c2c([H])c([H])c([H])c([H])c2F)c([H])c1[H]

$$$$
214_x0283_0B_-x0034_0B_CC1CCCCC1NCc1ccc
     RDKit          3D

 19 20  0  0  0  0  0  0  0  0999 V2000
  -12.5140    5.0450  -76.9510 C   0  0  0  0  0  0  0  0  0  0  0  0
  -11.2900    4.1710  -76.7610 C   0  0  2  0  0  0  0  0  0  0  0  0
  -10.5120    3.9320  -78.0480 C   0  0  0  0  0  0  0  0  0  0  0  0
  -11.5140    2.7800  -76.1620 C   0  0  1  0  0  0  0  0  0  0  0  0
   -9.2270    3.4030  -77.8800 C   0  0  0  0  0  0  0  0  0  0  0  0
  -10.1060    2.2580  -75.7730 C   0  0  0  0  0  0  0  0  0  0  0  0
  -12.3110    2.6720  -75.0380 N   0  0  0  0  0  0  0  0  0  0  0  0
   -9.0290    2.3080  -76.8500 C   0  0  0  0  0  0  0  0  0  0  0  0
  -11.9450    1.9090  -73.9150 C   0  0  0  0  0  0  0  0  0  0  0  0
  -12.9050    1.4620  -73.0260 C   0  0  0  0  0  0  0  0  0  0  0  0
  -13.3750    2.2010  -71.9710 C   0  0  0  0  0  0  0  0  0  0  0  0
  -13.4600    0.2080  -73.1380 C   0  0  0  0  0  0  0  0  0  0  0  0
  -14.4400    1.6520  -71.0150 C   0  0  0  0  0  0  0  0  0  0  0  0
  -14.4110   -0.3580  -72.3300 C   0  0  0  0  0  0  0  0  0  0  0  0
  -14.9180    0.3560  -71.2610 C   0  0  0  0  0  0  0  0  0  0  0  0
  -16.1580   -0.4020  -70.2570 S   0  0  0  0  0  0  0  0  0  0  0  0
  -15.2200   -1.2050  -69.1140 N   0  0  0  0  0  0  0  0  0  0  0  0
  -16.9030    0.6350  -69.5850 O   0  0  0  0  0  0  0  0  0  0  0  0
  -16.8310   -1.4140  -71.0480 O   0  0  0  0  0  0  0  0  0  0  0  0
  2  1  1  6
  2  3  1  0
  2  4  1  0
  3  5  1  0
  4  6  1  0
  4  7  1  1
  5  8  1  0
  6  8  1  0
  7  9  1  0
  9 10  1  0
 10 11  2  0
 10 12  1  0
 11 13  1  0
 12 14  2  0
 13 15  2  0
 14 15  1  0
 15 16  1  0
 16 17  1  0
 16 18  2  0
 16 19  2  0
M  END
>  <ref_pdb>  (54) 
x0034

>  <ref_mols>  (54) 
x0034_0B

>  <fragmensteinOld_score>  (54) 
-0.16997128396303385

>  <LE_score>  (54) 
-0.10863278552579042

>  <comRMSD_score>  (54) 
0.95146608656076026

>  <fragmensteinNew_score>  (54) 
1.7884443111940431

>  <meanSuCosW_score>  (54) 
0.26692405809156611

>  <maxSuCosW_score>  (54) 
0.31665050679332091

>  <minSuCosW_score>  (54) 
0.21719760938981131

>  <sumSuCosW_score>  (54) 
0.53384811618313222

>  <SA_score>  (54) 
7.9728504414488075

>  <aLogP_score>  (54) 
2.0023

>  <hbondD_score>  (54) 
2

>  <hbondA_score>  (54) 
3

>  <polarSurfaceArea_score>  (54) 
72.189999999999998

>  <rotableBonds_score>  (54) 
4

>  <SC_score>  (54) 
2.701251020349976

>  <energyPoseVsEnsemble_score>  (54) 
1.7759736080294668

>  <xcos_score>  (54) 
9.6951948558065961

>  <plipMedianPreser_score>  (54) 
0

>  <plipGlobalPreser_score>  (54) 
0

>  <plipGlobalPreserOverMw_score>  (54) 
0

>  <original_name>  (54) 
x0283-0B-x0034-0B-CC1CCCCC1NCc1ccc-S-N-O-O-cc1

>  <original SMILES>  (54) 
[H]c1c([H])c(S(=O)(=O)N([H])[H])c([H])c([H])c1C([H])([H])N([H])[C@]1([H])C([H])([H])C([H])([H])C([H])([H])C([H])([H])[C@@]1([H])C([H])([H])[H]

$$$$
216_x0283_0B_-x0176_0B_CS
     RDKit          3D

 18 19  0  0  0  0  0  0  0  0999 V2000
  -12.5330    6.5090  -73.6830 C   0  0  0  0  0  0  0  0  0  0  0  0
  -13.2430    6.7420  -75.3390 S   0  0  0  0  0  0  0  0  0  0  0  0
  -14.5170    7.3860  -75.1320 O   0  0  0  0  0  0  0  0  0  0  0  0
  -12.2650    7.2680  -76.2530 O   0  0  0  0  0  0  0  0  0  0  0  0
  -13.6300    5.1590  -75.7800 N   0  0  0  0  0  0  0  0  0  0  0  0
  -12.9280    4.4630  -76.8440 C   0  0  0  0  0  0  0  0  0  0  0  0
  -11.4600    4.0900  -76.4980 C   0  0  2  0  0  0  0  0  0  0  0  0
  -10.6350    4.4130  -77.7570 C   0  0  0  0  0  0  0  0  0  0  0  0
  -11.1520    2.8140  -76.0100 C   0  0  1  0  0  0  0  0  0  0  0  0
   -9.2010    3.8120  -77.8110 C   0  0  0  0  0  0  0  0  0  0  0  0
   -9.8060    2.5810  -75.8200 C   0  0  0  0  0  0  0  0  0  0  0  0
  -11.9550    2.2410  -75.0250 C   0  0  0  0  0  0  0  0  0  0  0  0
   -9.0220    2.6060  -76.9450 C   0  0  0  0  0  0  0  0  0  0  0  0
  -11.9860    0.8740  -75.1420 C   0  0  0  0  0  0  0  0  0  0  0  0
  -12.7030    2.8360  -73.9730 C   0  0  0  0  0  0  0  0  0  0  0  0
  -12.6710   -0.0020  -74.3550 C   0  0  0  0  0  0  0  0  0  0  0  0
  -13.4400    1.9860  -73.1210 C   0  0  0  0  0  0  0  0  0  0  0  0
  -13.4170    0.4780  -73.3380 C   0  0  0  0  0  0  0  0  0  0  0  0
  1  2  1  0
  2  3  2  0
  2  4  2  0
  2  5  1  0
  5  6  1  0
  7  6  1  6
  7  8  1  0
  7  9  1  0
  8 10  1  0
  9 11  1  0
  9 12  1  1
 10 13  1  0
 11 13  1  0
 12 14  2  0
 12 15  1  0
 14 16  1  0
 15 17  2  0
 16 18  2  0
 17 18  1  0
M  END
>  <ref_pdb>  (55) 
x0176

>  <ref_mols>  (55) 
x0176_0B

>  <fragmensteinOld_score>  (55) 
-1.1126008550163453

>  <LE_score>  (55) 
-0.1241257112364505

>  <comRMSD_score>  (55) 
0.85837741667132694

>  <fragmensteinNew_score>  (55) 
0.58157727800440329

>  <meanSuCosW_score>  (55) 
0.24693954391376419

>  <maxSuCosW_score>  (55) 
0.30959808999896871

>  <minSuCosW_score>  (55) 
0.18428099782855967

>  <sumSuCosW_score>  (55) 
0.49387908782752837

>  <SA_score>  (55) 
7.9345827266003335

>  <aLogP_score>  (55) 
2.5096000000000007

>  <hbondD_score>  (55) 
1

>  <hbondA_score>  (55) 
2

>  <polarSurfaceArea_score>  (55) 
46.170000000000002

>  <rotableBonds_score>  (55) 
4

>  <SC_score>  (55) 
3.1084623240823941

>  <energyPoseVsEnsemble_score>  (55) 
2.3319052085702552

>  <xcos_score>  (55) 
8.5878699138507564

>  <plipMedianPreser_score>  (55) 
0

>  <plipGlobalPreser_score>  (55) 
0.21428571428571427

>  <plipGlobalPreserOverMw_score>  (55) 
0.080217974724714147

>  <original_name>  (55) 
x0283-0B-x0176-0B-CS-O-O-NCC1CCCCC1c1ccccc1

>  <original SMILES>  (55) 
[H]c1c([H])c([H])c([C@]2([H])C([H])([H])C([H])([H])C([H])([H])C([H])([H])[C@@]2([H])C([H])([H])N([H])S(=O)(=O)C([H])([H])[H])c([H])c1[H]

$$$$
220_x0283_0B_-x0212_0B_CC1CCC
     RDKit          3D

 17 18  0  0  0  0  0  0  0  0999 V2000
  -12.8350    4.1000  -76.9150 C   0  0  0  0  0  0  0  0  0  0  0  0
  -11.3040    4.0420  -76.8050 C   0  0  2  0  0  0  0  0  0  0  0  0
  -10.6770    4.1280  -78.2100 C   0  0  0  0  0  0  0  0  0  0  0  0
  -10.8510    2.8210  -75.9700 C   0  0  0  0  0  0  0  0  0  0  0  0
   -9.2030    3.7440  -78.3290 C   0  0  0  0  0  0  0  0  0  0  0  0
   -9.9540    2.0030  -76.6630 C   0  0  0  0  0  0  0  0  0  0  0  0
   -8.7380    2.7700  -77.2490 C   0  0  2  0  0  0  0  0  0  0  0  0
   -8.0690    3.4280  -76.1230 C   0  0  0  0  0  0  0  0  0  0  0  0
   -7.8920    1.9000  -77.6530 N   0  0  0  0  0  0  0  0  0  0  0  0
   -7.3170    2.1220  -78.9910 C   0  0  0  0  0  0  0  0  0  0  0  0
   -7.9750    1.3490  -79.9160 C   0  0  0  0  0  0  0  0  0  0  0  0
   -8.3410    0.0710  -79.5050 C   0  0  0  0  0  0  0  0  0  0  0  0
   -8.2700    1.8120  -81.1910 C   0  0  0  0  0  0  0  0  0  0  0  0
   -9.0670   -0.8480  -80.4180 C   0  0  0  0  0  0  0  0  0  0  0  0
   -8.9890    0.9720  -82.1720 C   0  0  0  0  0  0  0  0  0  0  0  0
   -7.9100    3.0380  -81.5590 F   0  0  0  0  0  0  0  0  0  0  0  0
   -9.3850   -0.4310  -81.6950 C   0  0  0  0  0  0  0  0  0  0  0  0
  2  1  1  6
  2  3  1  0
  2  4  1  0
  3  5  1  0
  4  6  1  0
  5  7  1  0
  6  7  1  0
  7  8  1  1
  7  9  1  0
  9 10  1  0
 10 11  1  0
 11 12  2  0
 11 13  1  0
 12 14  1  0
 13 15  2  0
 13 16  1  0
 14 17  2  0
 15 17  1  0
M  END
>  <ref_pdb>  (56) 
x0212

>  <ref_mols>  (56) 
x0212_0B

>  <fragmensteinOld_score>  (56) 
-1.5540953306592022

>  <LE_score>  (56) 
-0.17087857569506679

>  <comRMSD_score>  (56) 
0.69524325698205169

>  <fragmensteinNew_score>  (56) 
-0.10203661181686086

>  <meanSuCosW_score>  (56) 
0.28418283154839497

>  <maxSuCosW_score>  (56) 
0.34430076220599554

>  <minSuCosW_score>  (56) 
0.22406490089079434

>  <sumSuCosW_score>  (56) 
0.56836566309678993

>  <SA_score>  (56) 
7.1643368959507336

>  <aLogP_score>  (56) 
3.8841000000000028

>  <hbondD_score>  (56) 
1

>  <hbondA_score>  (56) 
1

>  <polarSurfaceArea_score>  (56) 
12.029999999999999

>  <rotableBonds_score>  (56) 
3

>  <SC_score>  (56) 
3.1965691612661882

>  <energyPoseVsEnsemble_score>  (56) 
4.2013780455934047

>  <xcos_score>  (56) 
12.31796861291757

>  <plipMedianPreser_score>  (56) 
0

>  <plipGlobalPreser_score>  (56) 
0

>  <plipGlobalPreserOverMw_score>  (56) 
0

>  <original_name>  (56) 
x0283-0B-x0212-0B-CC1CCC-C-NCc2ccccc2F-CC1

>  <original SMILES>  (56) 
[H]c1c([H])c([H])c(C([H])([H])N([H])[C@]2(C([H])([H])[H])C([H])([H])C([H])([H])[C@]([H])(C([H])([H])[H])C([H])([H])C2([H])[H])c(F)c1[H]

$$$$
221_x0283_0B_-x0212_0B_CC1CCC
     RDKit          3D

 18 19  0  0  0  0  0  0  0  0999 V2000
  -12.7480    4.0100  -77.1950 C   0  0  0  0  0  0  0  0  0  0  0  0
  -11.2590    4.1930  -76.8700 C   0  0  1  0  0  0  0  0  0  0  0  0
  -10.7320    3.0530  -75.9860 C   0  0  0  0  0  0  0  0  0  0  0  0
  -10.4720    4.4330  -78.1800 C   0  0  0  0  0  0  0  0  0  0  0  0
   -9.2130    2.9490  -75.9360 C   0  0  0  0  0  0  0  0  0  0  0  0
   -9.3300    3.6500  -78.4340 C   0  0  0  0  0  0  0  0  0  0  0  0
   -8.4850    3.0230  -77.2550 C   0  0  1  0  0  0  0  0  0  0  0  0
   -7.1060    3.6300  -77.1160 C   0  0  0  0  0  0  0  0  0  0  0  0
   -8.1840    1.8800  -77.6810 N   0  0  0  0  0  0  0  0  0  0  0  0
   -6.8010    3.7730  -75.7350 O   0  0  0  0  0  0  0  0  0  0  0  0
   -7.4100    1.9560  -78.9360 C   0  0  0  0  0  0  0  0  0  0  0  0
   -8.0330    1.2220  -79.8900 C   0  0  0  0  0  0  0  0  0  0  0  0
   -8.4170   -0.0520  -79.5040 C   0  0  0  0  0  0  0  0  0  0  0  0
   -8.2830    1.7160  -81.1630 C   0  0  0  0  0  0  0  0  0  0  0  0
   -9.1220   -0.9450  -80.4460 C   0  0  0  0  0  0  0  0  0  0  0  0
   -8.9800    0.9030  -82.1730 C   0  0  0  0  0  0  0  0  0  0  0  0
   -7.8990    2.9480  -81.5000 F   0  0  0  0  0  0  0  0  0  0  0  0
   -9.3980   -0.5040  -81.7210 C   0  0  0  0  0  0  0  0  0  0  0  0
  2  1  1  6
  2  3  1  0
  2  4  1  0
  3  5  1  0
  4  6  1  0
  5  7  1  0
  6  7  1  0
  7  8  1  1
  7  9  1  0
  8 10  1  0
  9 11  1  0
 11 12  1  0
 12 13  2  0
 12 14  1  0
 13 15  1  0
 14 16  2  0
 14 17  1  0
 15 18  2  0
 16 18  1  0
M  END
>  <ref_pdb>  (57) 
x0212

>  <ref_mols>  (57) 
x0212_0B

>  <fragmensteinOld_score>  (57) 
-1.2203326668177423

>  <LE_score>  (57) 
-0.12672124210608599

>  <comRMSD_score>  (57) 
0.68655230160660163

>  <fragmensteinNew_score>  (57) 
0.18789670575806205

>  <meanSuCosW_score>  (57) 
0.27644243495686432

>  <maxSuCosW_score>  (57) 
0.33634685561504901

>  <minSuCosW_score>  (57) 
0.21653801429867967

>  <sumSuCosW_score>  (57) 
0.55288486991372865

>  <SA_score>  (57) 
7.340984156393545

>  <aLogP_score>  (57) 
2.8565000000000014

>  <hbondD_score>  (57) 
2

>  <hbondA_score>  (57) 
2

>  <polarSurfaceArea_score>  (57) 
32.259999999999998

>  <rotableBonds_score>  (57) 
4

>  <SC_score>  (57) 
3.205407876262055

>  <energyPoseVsEnsemble_score>  (57) 
3.7598805388912253

>  <xcos_score>  (57) 
12.017819659065982

>  <plipMedianPreser_score>  (57) 
0

>  <plipGlobalPreser_score>  (57) 
0

>  <plipGlobalPreserOverMw_score>  (57) 
0

>  <original_name>  (57) 
x0283-0B-x0212-0B-CC1CCC-CO-NCc2ccccc2F-CC1

>  <original SMILES>  (57) 
[H]OC([H])([H])[C@]1(N([H])C([H])([H])c2c([H])c([H])c([H])c([H])c2F)C([H])([H])C([H])([H])[C@@]([H])(C([H])([H])[H])C([H])([H])C1([H])[H]

$$$$
225_x0283_0B_-x0276_0B_C
     RDKit          3D

 15 15  0  0  0  0  0  0  0  0999 V2000
  -12.3970    5.1280  -76.8900 C   0  0  0  0  0  0  0  0  0  0  0  0
  -11.5680    3.8920  -77.2330 C   0  0  1  0  0  0  0  0  0  0  0  0
  -10.3900    4.3050  -78.1150 C   0  0  0  0  0  0  0  0  0  0  0  0
  -11.2260    2.9430  -76.2440 C   0  0  1  0  0  0  0  0  0  0  0  0
   -9.0940    3.5180  -77.9880 C   0  0  0  0  0  0  0  0  0  0  0  0
   -9.9170    2.9120  -75.7720 C   0  0  0  0  0  0  0  0  0  0  0  0
  -12.0850    2.9630  -75.0590 N   0  0  0  0  0  0  0  0  0  0  0  0
   -8.8790    2.7810  -76.6820 C   0  0  0  0  0  0  0  0  0  0  0  0
  -12.2380    1.6290  -74.4380 C   0  0  0  0  0  0  0  0  0  0  0  0
  -13.2980    1.8710  -73.3690 C   0  0  0  0  0  0  0  0  0  0  0  0
  -13.4220    0.7500  -72.4200 N   0  0  0  0  0  0  0  0  0  0  0  0
  -14.7860    0.7600  -71.4420 S   0  0  0  0  0  0  0  0  0  0  0  0
  -14.7460   -0.8420  -70.6650 C   0  0  0  0  0  0  0  0  0  0  0  0
  -15.9260    0.8050  -72.3420 O   0  0  0  0  0  0  0  0  0  0  0  0
  -14.6140    1.7890  -70.4370 O   0  0  0  0  0  0  0  0  0  0  0  0
  2  1  1  1
  2  3  1  0
  2  4  1  0
  3  5  1  0
  4  6  1  0
  4  7  1  1
  5  8  1  0
  6  8  1  0
  7  9  1  0
  9 10  1  0
 10 11  1  0
 12 11  1  0
 12 13  1  0
 12 14  2  0
 12 15  2  0
M  END
>  <ref_pdb>  (58) 
x0276

>  <ref_mols>  (58) 
x0276_0B

>  <fragmensteinOld_score>  (58) 
-1.0917163110938897

>  <LE_score>  (58) 
-0.15864244171803948

>  <comRMSD_score>  (58) 
0.64285345577826836

>  <fragmensteinNew_score>  (58) 
0.49430434306258109

>  <meanSuCosW_score>  (58) 
0.22841021945451104

>  <maxSuCosW_score>  (58) 
0.32852251941735539

>  <minSuCosW_score>  (58) 
0.12829791949166669

>  <sumSuCosW_score>  (58) 
0.45682043890902208

>  <SA_score>  (58) 
8.1007547674542977

>  <aLogP_score>  (58) 
0.70390000000000019

>  <hbondD_score>  (58) 
2

>  <hbondA_score>  (58) 
3

>  <polarSurfaceArea_score>  (58) 
58.199999999999996

>  <rotableBonds_score>  (58) 
5

>  <SC_score>  (58) 
3.1664614770981254

>  <energyPoseVsEnsemble_score>  (58) 
1.1465638603165564

>  <xcos_score>  (58) 
11.375887903829939

>  <plipMedianPreser_score>  (58) 
0

>  <plipGlobalPreser_score>  (58) 
0

>  <plipGlobalPreserOverMw_score>  (58) 
0

>  <original_name>  (58) 
x0283-0B-x0276-0B-C-C-H-1CCCC-C-H-1NCCNS-C-O-O

>  <original SMILES>  (58) 
[H]N(C([H])([H])C([H])([H])N([H])S(=O)(=O)C([H])([H])[H])[C@]1([H])C([H])([H])C([H])([H])C([H])([H])C([H])([H])[C@]1([H])C([H])([H])[H]

$$$$
226_x0283_0B_-x0276_0B_C
     RDKit          3D

 20 21  0  0  0  0  0  0  0  0999 V2000
  -12.2230    5.2050  -76.7070 C   0  0  0  0  0  0  0  0  0  0  0  0
  -11.5010    4.0100  -77.2530 C   0  0  1  0  0  0  0  0  0  0  0  0
  -10.4230    4.3150  -78.1070 C   0  0  0  0  0  0  0  0  0  0  0  0
  -11.2080    3.0030  -76.3290 C   0  0  1  0  0  0  0  0  0  0  0  0
   -9.2670    3.5090  -78.1320 C   0  0  0  0  0  0  0  0  0  0  0  0
   -9.9230    2.9490  -75.8250 C   0  0  0  0  0  0  0  0  0  0  0  0
  -12.1680    2.9940  -75.3060 N   0  0  0  0  0  0  0  0  0  0  0  0
   -8.8200    2.9160  -76.8520 C   0  0  0  0  0  0  0  0  0  0  0  0
  -12.4430    1.6700  -74.7320 C   0  0  0  0  0  0  0  0  0  0  0  0
  -12.6560    1.7690  -73.3730 C   0  0  0  0  0  0  0  0  0  0  0  0
  -13.6100    0.4200  -72.7460 S   0  0  0  0  0  0  0  0  0  0  0  0
  -15.0050    0.7760  -72.7210 O   0  0  0  0  0  0  0  0  0  0  0  0
  -13.1140   -0.8260  -73.2620 O   0  0  0  0  0  0  0  0  0  0  0  0
  -13.0920    0.5360  -71.0980 C   0  0  0  0  0  0  0  0  0  0  0  0
  -13.7340    1.4950  -70.3260 C   0  0  0  0  0  0  0  0  0  0  0  0
  -12.0900   -0.2610  -70.5480 C   0  0  0  0  0  0  0  0  0  0  0  0
  -13.3790    1.6580  -69.0150 C   0  0  0  0  0  0  0  0  0  0  0  0
  -11.7600   -0.0720  -69.2340 C   0  0  0  0  0  0  0  0  0  0  0  0
  -12.4030    0.8820  -68.4770 C   0  0  0  0  0  0  0  0  0  0  0  0
  -12.1410    1.1110  -67.2400 F   0  0  0  0  0  0  0  0  0  0  0  0
  2  1  1  1
  2  3  1  0
  2  4  1  0
  3  5  1  0
  4  6  1  0
  4  7  1  1
  5  8  1  0
  6  8  1  0
  7  9  1  0
  9 10  1  0
 11 10  1  0
 11 12  2  0
 11 13  2  0
 11 14  1  0
 14 15  2  0
 14 16  1  0
 15 17  1  0
 16 18  2  0
 17 19  2  0
 18 19  1  0
 19 20  1  0
M  END
>  <ref_pdb>  (59) 
x0276

>  <ref_mols>  (59) 
x0276_0B

>  <fragmensteinOld_score>  (59) 
-0.35437715876640152

>  <LE_score>  (59) 
-0.15335784359293189

>  <comRMSD_score>  (59) 
0.68174049047967167

>  <fragmensteinNew_score>  (59) 
1.6884741217016064

>  <meanSuCosW_score>  (59) 
0.23600229927570446

>  <maxSuCosW_score>  (59) 
0.34853607676303955

>  <minSuCosW_score>  (59) 
0.12346852178836937

>  <sumSuCosW_score>  (59) 
0.47200459855140892

>  <SA_score>  (59) 
7.9106238428032132

>  <aLogP_score>  (59) 
2.7677000000000014

>  <hbondD_score>  (59) 
1

>  <hbondA_score>  (59) 
3

>  <polarSurfaceArea_score>  (59) 
46.170000000000002

>  <rotableBonds_score>  (59) 
5

>  <SC_score>  (59) 
3.0467279983115536

>  <energyPoseVsEnsemble_score>  (59) 
1.8985586769523506

>  <xcos_score>  (59) 
6.101694915254237

>  <plipMedianPreser_score>  (59) 
0

>  <plipGlobalPreser_score>  (59) 
0

>  <plipGlobalPreserOverMw_score>  (59) 
0

>  <original_name>  (59) 
x0283-0B-x0276-0B-C-C-H-1CCCC-C-H-1NCCS-O-O-c1ccc-F-cc1

>  <original SMILES>  (59) 
[H]c1c([H])c(S(=O)(=O)C([H])([H])C([H])([H])N([H])[C@]2([H])C([H])([H])C([H])([H])C([H])([H])C([H])([H])[C@]2([H])C([H])([H])[H])c([H])c([H])c1F

$$$$
228_x0283_0B_-x0276_0B_CC1CCCC
     RDKit          3D

 16 16  0  0  0  0  0  0  0  0999 V2000
  -12.4660    4.6980  -77.6250 C   0  0  0  0  0  0  0  0  0  0  0  0
  -11.1480    4.2460  -77.0320 C   0  0  2  0  0  0  0  0  0  0  0  0
   -9.9610    4.3390  -78.0520 C   0  0  0  0  0  0  0  0  0  0  0  0
  -11.2710    2.9010  -76.2490 C   0  0  1  0  0  0  0  0  0  0  0  0
   -9.7060    2.8360  -78.1890 C   0  0  0  0  0  0  0  0  0  0  0  0
   -9.8620    2.4330  -75.8260 C   0  0  2  0  0  0  0  0  0  0  0  0
  -12.1070    3.0100  -75.0390 N   0  0  0  0  0  0  0  0  0  0  0  0
   -8.8900    2.8120  -76.9210 C   0  0  0  0  0  0  0  0  0  0  0  0
   -9.8880    1.0970  -75.4120 C   0  0  0  0  0  0  0  0  0  0  0  0
  -12.5890    1.7160  -74.5390 C   0  0  0  0  0  0  0  0  0  0  0  0
  -12.7300    1.7710  -73.1610 C   0  0  0  0  0  0  0  0  0  0  0  0
  -13.6550    0.7100  -72.7090 N   0  0  0  0  0  0  0  0  0  0  0  0
  -14.7620    1.1090  -71.5180 S   0  0  0  0  0  0  0  0  0  0  0  0
  -15.9220    2.1130  -72.4150 C   0  0  0  0  0  0  0  0  0  0  0  0
  -15.4720   -0.1440  -71.0980 O   0  0  0  0  0  0  0  0  0  0  0  0
  -14.0790    1.9550  -70.5750 O   0  0  0  0  0  0  0  0  0  0  0  0
  2  1  1  6
  2  3  1  0
  2  4  1  0
  3  5  1  0
  4  6  1  0
  4  7  1  1
  5  8  1  0
  6  8  1  0
  6  9  1  6
  7 10  1  0
 10 11  1  0
 11 12  1  0
 13 12  1  0
 13 14  1  0
 13 15  2  0
 13 16  2  0
M  END
>  <ref_pdb>  (60) 
x0276

>  <ref_mols>  (60) 
x0276_0B

>  <fragmensteinOld_score>  (60) 
-0.70053898908228374

>  <LE_score>  (60) 
-0.11692130032664959

>  <comRMSD_score>  (60) 
0.81391473235497436

>  <fragmensteinNew_score>  (60) 
0.9787372985079279

>  <meanSuCosW_score>  (60) 
0.22110871684914504

>  <maxSuCosW_score>  (60) 
0.31604392188686703

>  <minSuCosW_score>  (60) 
0.12617351181142306

>  <sumSuCosW_score>  (60) 
0.44221743369829009

>  <SA_score>  (60) 
8.2879922602982585

>  <aLogP_score>  (60) 
0.94990000000000019

>  <hbondD_score>  (60) 
2

>  <hbondA_score>  (60) 
3

>  <polarSurfaceArea_score>  (60) 
58.199999999999996

>  <rotableBonds_score>  (60) 
5

>  <SC_score>  (60) 
3.6724736440659984

>  <energyPoseVsEnsemble_score>  (60) 
4.9073714587075576

>  <xcos_score>  (60) 
8.6333333333333329

>  <plipMedianPreser_score>  (60) 
0

>  <plipGlobalPreser_score>  (60) 
0

>  <plipGlobalPreserOverMw_score>  (60) 
0

>  <original_name>  (60) 
x0283-0B-x0276-0B-CC1CCCC-C-C1NCCNS-C-O-O

>  <original SMILES>  (60) 
[H]N(C([H])([H])C([H])([H])N([H])S(=O)(=O)C([H])([H])[H])[C@]1([H])[C@@]([H])(C([H])([H])[H])C([H])([H])C([H])([H])C([H])([H])[C@@]1([H])C([H])([H])[H]

$$$$
230_x0283_0B_-x0276_0B_CC1CCCCC1C
     RDKit          3D

 20 21  0  0  0  0  0  0  0  0999 V2000
  -12.6150    4.6750  -77.0650 C   0  0  0  0  0  0  0  0  0  0  0  0
  -11.5320    3.6070  -77.2480 C   0  0  1  0  0  0  0  0  0  0  0  0
  -10.3400    4.2750  -77.8750 C   0  0  0  0  0  0  0  0  0  0  0  0
  -11.1910    2.7280  -76.1930 C   0  0  1  0  0  0  0  0  0  0  0  0
   -9.0520    3.4790  -77.8300 C   0  0  0  0  0  0  0  0  0  0  0  0
   -9.8780    2.7150  -75.7080 C   0  0  0  0  0  0  0  0  0  0  0  0
  -12.1090    2.8360  -75.1790 C   0  0  0  0  0  0  0  0  0  0  0  0
   -8.8110    2.6930  -76.5760 C   0  0  0  0  0  0  0  0  0  0  0  0
  -12.4400    3.9230  -74.7120 O   0  0  0  0  0  0  0  0  0  0  0  0
  -12.6450    1.5680  -74.6930 N   0  0  0  0  0  0  0  0  0  0  0  0
  -13.6010    1.8020  -73.3750 S   0  0  0  0  0  0  0  0  0  0  0  0
  -12.6940    2.4560  -72.4740 O   0  0  0  0  0  0  0  0  0  0  0  0
  -14.7940    2.4850  -73.8500 O   0  0  0  0  0  0  0  0  0  0  0  0
  -14.1870    0.2740  -72.6700 C   0  0  0  0  0  0  0  0  0  0  0  0
  -14.1520    0.1560  -71.1890 C   0  0  0  0  0  0  0  0  0  0  0  0
  -14.7180   -0.8760  -73.4660 C   0  0  0  0  0  0  0  0  0  0  0  0
  -14.6130   -1.0190  -70.5540 C   0  0  0  0  0  0  0  0  0  0  0  0
  -15.1620   -2.0180  -72.8230 C   0  0  0  0  0  0  0  0  0  0  0  0
  -15.1100   -2.0980  -71.3000 C   0  0  0  0  0  0  0  0  0  0  0  0
  -15.5410   -3.1990  -70.6710 F   0  0  0  0  0  0  0  0  0  0  0  0
  2  1  1  1
  2  3  1  0
  2  4  1  0
  3  5  1  0
  4  6  1  0
  4  7  1  1
  5  8  1  0
  6  8  1  0
  7  9  2  0
  7 10  1  0
 11 10  1  0
 11 12  2  0
 11 13  2  0
 11 14  1  0
 14 15  2  0
 14 16  1  0
 15 17  1  0
 16 18  2  0
 17 19  2  0
 18 19  1  0
 19 20  1  0
M  END
>  <ref_pdb>  (61) 
x0276

>  <ref_mols>  (61) 
x0276_0B

>  <fragmensteinOld_score>  (61) 
-0.018351406415567206

>  <LE_score>  (61) 
-0.05965810696067339

>  <comRMSD_score>  (61) 
0.94414426421139563

>  <fragmensteinNew_score>  (61) 
1.751425850241757

>  <meanSuCosW_score>  (61) 
0.23673230189402697

>  <maxSuCosW_score>  (61) 
0.32179740802402268

>  <minSuCosW_score>  (61) 
0.15166719576403126

>  <sumSuCosW_score>  (61) 
0.47346460378805394

>  <SA_score>  (61) 
7.2018753857525954

>  <aLogP_score>  (61) 
2.456900000000001

>  <hbondD_score>  (61) 
1

>  <hbondA_score>  (61) 
3

>  <polarSurfaceArea_score>  (61) 
63.240000000000002

>  <rotableBonds_score>  (61) 
3

>  <SC_score>  (61) 
2.7547114344801562

>  <energyPoseVsEnsemble_score>  (61) 
1.628778784613607

>  <xcos_score>  (61) 
9.1090116279069768

>  <plipMedianPreser_score>  (61) 
0.59999999999999998

>  <plipGlobalPreser_score>  (61) 
0.27272727272727271

>  <plipGlobalPreserOverMw_score>  (61) 
0.091182900193378838

>  <original_name>  (61) 
x0283-0B-x0276-0B-CC1CCCCC1C-O-NS-O-O-c1ccc-F-cc1

>  <original SMILES>  (61) 
[H]c1c([H])c(S(=O)(=O)N([H])C(=O)[C@]2([H])C([H])([H])C([H])([H])C([H])([H])C([H])([H])[C@]2([H])C([H])([H])[H])c([H])c([H])c1F

$$$$
231_x0283_0B_-x0276_0B_CC1CCCCC1CNS
     RDKit          3D

 19 20  0  0  0  0  0  0  0  0999 V2000
  -12.4360    4.8270  -77.5080 C   0  0  0  0  0  0  0  0  0  0  0  0
  -11.2820    3.8760  -77.3540 C   0  0  1  0  0  0  0  0  0  0  0  0
  -10.0990    4.3130  -77.9260 C   0  0  0  0  0  0  0  0  0  0  0  0
  -11.0320    3.4140  -76.0630 C   0  0  2  0  0  0  0  0  0  0  0  0
   -8.9110    3.5510  -77.7920 C   0  0  0  0  0  0  0  0  0  0  0  0
  -10.1730    2.3270  -76.0120 C   0  0  0  0  0  0  0  0  0  0  0  0
  -12.1020    3.3120  -75.2150 C   0  0  0  0  0  0  0  0  0  0  0  0
   -8.8820    2.4590  -76.7890 C   0  0  0  0  0  0  0  0  0  0  0  0
  -12.1150    2.2610  -74.3240 N   0  0  0  0  0  0  0  0  0  0  0  0
  -13.4960    1.9970  -73.4650 S   0  0  0  0  0  0  0  0  0  0  0  0
  -14.4970    2.6550  -74.2750 O   0  0  0  0  0  0  0  0  0  0  0  0
  -13.2240    2.3930  -72.1100 O   0  0  0  0  0  0  0  0  0  0  0  0
  -13.6610    0.2320  -73.6180 C   0  0  0  0  0  0  0  0  0  0  0  0
  -15.0190   -0.3260  -73.8640 C   0  0  0  0  0  0  0  0  0  0  0  0
  -12.6060   -0.6870  -73.5210 C   0  0  0  0  0  0  0  0  0  0  0  0
  -15.2310   -1.7100  -73.9960 C   0  0  0  0  0  0  0  0  0  0  0  0
  -12.8570   -2.0520  -73.6570 C   0  0  0  0  0  0  0  0  0  0  0  0
  -14.1360   -2.5850  -73.8930 C   0  0  0  0  0  0  0  0  0  0  0  0
  -14.3250   -3.9030  -74.0190 F   0  0  0  0  0  0  0  0  0  0  0  0
  2  1  1  1
  2  3  1  0
  2  4  1  0
  3  5  1  0
  4  6  1  0
  4  7  1  6
  5  8  1  0
  6  8  1  0
  7  9  1  0
 10  9  1  0
 10 11  2  0
 10 12  2  0
 10 13  1  0
 13 14  2  0
 13 15  1  0
 14 16  1  0
 15 17  2  0
 16 18  2  0
 17 18  1  0
 18 19  1  0
M  END
>  <ref_pdb>  (62) 
x0276

>  <ref_mols>  (62) 
x0276_0B

>  <fragmensteinOld_score>  (62) 
0.12647672747049188

>  <LE_score>  (62) 
-0.014868674860877656

>  <comRMSD_score>  (62) 
0.99487263183052899

>  <fragmensteinNew_score>  (62) 
1.7058636176616513

>  <meanSuCosW_score>  (62) 
0.23397635334057554

>  <maxSuCosW_score>  (62) 
0.31781972353480253

>  <minSuCosW_score>  (62) 
0.15013298314634854

>  <sumSuCosW_score>  (62) 
0.46795270668115108

>  <SA_score>  (62) 
7.6484800704745224

>  <aLogP_score>  (62) 
2.9303000000000008

>  <hbondD_score>  (62) 
1

>  <hbondA_score>  (62) 
2

>  <polarSurfaceArea_score>  (62) 
46.170000000000002

>  <rotableBonds_score>  (62) 
4

>  <SC_score>  (62) 
3.6069982662315434

>  <energyPoseVsEnsemble_score>  (62) 
2.2641384413058665

>  <xcos_score>  (62) 
9.4964086193136481

>  <plipMedianPreser_score>  (62) 
0

>  <plipGlobalPreser_score>  (62) 
0

>  <plipGlobalPreserOverMw_score>  (62) 
0

>  <original_name>  (62) 
x0283-0B-x0276-0B-CC1CCCCC1CNS-O-O-c1ccc-F-cc1

>  <original SMILES>  (62) 
[H]c1c([H])c(S(=O)(=O)N([H])C([H])([H])[C@@]2([H])C([H])([H])C([H])([H])C([H])([H])C([H])([H])[C@]2([H])C([H])([H])[H])c([H])c([H])c1F

$$$$
233_x0283_0B_-x0276_0B_CC1CCCCC1N
     RDKit          3D

 19 20  0  0  0  0  0  0  0  0999 V2000
  -12.4620    5.2450  -76.5260 C   0  0  0  0  0  0  0  0  0  0  0  0
  -11.5180    4.0700  -76.7770 C   0  0  1  0  0  0  0  0  0  0  0  0
  -10.6370    4.3630  -77.9900 C   0  0  0  0  0  0  0  0  0  0  0  0
  -10.8080    3.5130  -75.7020 C   0  0  2  0  0  0  0  0  0  0  0  0
   -9.2840    3.6600  -78.0770 C   0  0  0  0  0  0  0  0  0  0  0  0
   -9.8570    2.5420  -76.0070 C   0  0  0  0  0  0  0  0  0  0  0  0
  -11.6360    2.9110  -74.6560 N   0  0  0  0  0  0  0  0  0  0  0  0
   -8.8240    2.9010  -76.8420 C   0  0  0  0  0  0  0  0  0  0  0  0
  -12.5270    3.8290  -73.9250 C   0  0  0  0  0  0  0  0  0  0  0  0
  -12.0160    1.3080  -74.7210 S   0  0  0  0  0  0  0  0  0  0  0  0
  -11.7580    0.7820  -76.0370 O   0  0  0  0  0  0  0  0  0  0  0  0
  -11.4750    0.6660  -73.5480 O   0  0  0  0  0  0  0  0  0  0  0  0
  -13.7690    1.4330  -74.5100 C   0  0  0  0  0  0  0  0  0  0  0  0
  -14.3270    0.3940  -73.6320 C   0  0  0  0  0  0  0  0  0  0  0  0
  -14.6380    2.5050  -75.1690 C   0  0  0  0  0  0  0  0  0  0  0  0
  -15.7050    0.3890  -73.3890 C   0  0  0  0  0  0  0  0  0  0  0  0
  -16.0060    2.4530  -74.8930 C   0  0  0  0  0  0  0  0  0  0  0  0
  -16.5420    1.3540  -73.9720 C   0  0  0  0  0  0  0  0  0  0  0  0
  -17.8560    1.3110  -73.7140 F   0  0  0  0  0  0  0  0  0  0  0  0
  2  1  1  1
  2  3  1  0
  2  4  1  0
  3  5  1  0
  4  6  1  0
  4  7  1  1
  5  8  1  0
  6  8  1  0
  7  9  1  0
 10  7  1  0
 10 11  2  0
 10 12  2  0
 10 13  1  0
 13 14  2  0
 13 15  1  0
 14 16  1  0
 15 17  2  0
 16 18  2  0
 17 18  1  0
 18 19  1  0
M  END
>  <ref_pdb>  (63) 
x0276

>  <ref_mols>  (63) 
x0276_0B

>  <fragmensteinOld_score>  (63) 
0.19502831733771786

>  <LE_score>  (63) 
-0.0040897430230194239

>  <comRMSD_score>  (63) 
0.81465908384821106

>  <fragmensteinNew_score>  (63) 
1.6193733482717159

>  <meanSuCosW_score>  (63) 
0.21736698460276538

>  <maxSuCosW_score>  (63) 
0.30389282955292157

>  <minSuCosW_score>  (63) 
0.13084113965260918

>  <sumSuCosW_score>  (63) 
0.43473396920553076

>  <SA_score>  (63) 
7.6758209304450249

>  <aLogP_score>  (63) 
3.0249000000000015

>  <hbondD_score>  (63) 
0

>  <hbondA_score>  (63) 
2

>  <polarSurfaceArea_score>  (63) 
37.380000000000003

>  <rotableBonds_score>  (63) 
3

>  <SC_score>  (63) 
3.1920398427778589

>  <energyPoseVsEnsemble_score>  (63) 
2.9718238562023531

>  <xcos_score>  (63) 
8.8038385294647679

>  <plipMedianPreser_score>  (63) 
0

>  <plipGlobalPreser_score>  (63) 
0

>  <plipGlobalPreserOverMw_score>  (63) 
0

>  <original_name>  (63) 
x0283-0B-x0276-0B-CC1CCCCC1N-C-S-O-O-c1ccc-F-cc1

>  <original SMILES>  (63) 
[H]c1c([H])c(S(=O)(=O)N(C([H])([H])[H])[C@@]2([H])C([H])([H])C([H])([H])C([H])([H])C([H])([H])[C@]2([H])C([H])([H])[H])c([H])c([H])c1F

$$$$
241_x0311_0B_-x0438_0B_O
     RDKit          3D

 16 17  0  0  0  0  0  0  0  0999 V2000
   -8.7150    1.5280  -76.3440 O   0  0  0  0  0  0  0  0  0  0  0  0
   -9.4320    2.0360  -77.5360 S   0  0  0  0  0  0  0  0  0  0  0  0
   -8.3180    2.9250  -78.6650 C   0  0  0  0  0  0  0  0  0  0  0  0
  -10.4920    3.3790  -77.0450 C   0  0  0  0  0  0  0  0  0  0  0  0
   -8.3720    1.9840  -79.8330 C   0  0  0  0  0  0  0  0  0  0  0  0
  -10.8090    4.3680  -77.9670 C   0  0  0  0  0  0  0  0  0  0  0  0
  -11.0110    3.4420  -75.7610 C   0  0  0  0  0  0  0  0  0  0  0  0
   -8.3190    2.5080  -81.2450 C   0  0  0  0  0  0  0  0  0  0  0  0
   -8.4850    0.6170  -79.6120 C   0  0  0  0  0  0  0  0  0  0  0  0
  -11.6460    5.4150  -77.6450 C   0  0  0  0  0  0  0  0  0  0  0  0
  -11.8570    4.4960  -75.4200 C   0  0  0  0  0  0  0  0  0  0  0  0
   -8.3980    1.5220  -82.3340 C   0  0  0  0  0  0  0  0  0  0  0  0
   -8.5670   -0.4450  -80.7210 C   0  0  0  0  0  0  0  0  0  0  0  0
  -12.1680    5.4640  -76.3640 C   0  0  0  0  0  0  0  0  0  0  0  0
   -8.5210    0.0210  -82.0490 C   0  0  0  0  0  0  0  0  0  0  0  0
  -13.0240    6.5500  -76.0920 O   0  0  0  0  0  0  0  0  0  0  0  0
  1  2  2  0
  2  3  1  6
  2  4  1  0
  3  5  1  0
  4  6  2  0
  4  7  1  0
  5  8  2  0
  5  9  1  0
  6 10  1  0
  7 11  2  0
  8 12  1  0
  9 13  2  0
 10 14  2  0
 11 14  1  0
 12 15  2  0
 13 15  1  0
 14 16  1  0
M  END
>  <ref_pdb>  (64) 
x0311

>  <ref_mols>  (64) 
x0311_0B,x0438_0B

>  <fragmensteinOld_score>  (64) 
-1.6085092021515814

>  <LE_score>  (64) 
-0.29616047900408621

>  <comRMSD_score>  (64) 
0.95766852226312893

>  <fragmensteinNew_score>  (64) 
0.43086088319069993

>  <meanSuCosW_score>  (64) 
0.29219130294834028

>  <maxSuCosW_score>  (64) 
0.30738901000042401

>  <minSuCosW_score>  (64) 
0.27699359589625661

>  <sumSuCosW_score>  (64) 
0.58438260589668056

>  <SA_score>  (64) 
4.4655958369564157

>  <aLogP_score>  (64) 
2.7000000000000006

>  <hbondD_score>  (64) 
1

>  <hbondA_score>  (64) 
2

>  <polarSurfaceArea_score>  (64) 
37.299999999999997

>  <rotableBonds_score>  (64) 
3

>  <SC_score>  (64) 
1.8762170732801211

>  <energyPoseVsEnsemble_score>  (64) 
2.644757699644003

>  <xcos_score>  (64) 
6.5936117936117942

>  <plipMedianPreser_score>  (64) 
0

>  <plipGlobalPreser_score>  (64) 
0.36363636363636365

>  <plipGlobalPreserOverMw_score>  (64) 
0.15670212192866648

>  <original_name>  (64) 
x0311-0B-x0438-0B-O-S-Cc1ccccc1-c1ccc-O-cc1

>  <original SMILES>  (64) 
[H]Oc1c([H])c([H])c([S@](=O)C([H])([H])c2c([H])c([H])c([H])c([H])c2[H])c([H])c1[H]

$$$$
