ver_1.2
     RDKit          3D

 13 13  0  0  1  0  0  0  0  0999 V2000
   -5.7380   12.5130   29.3220 O   0  0  0  0  0  0  0  0  0  0  0  0
   -4.5090   12.4270   29.6730 C   0  0  0  0  0  0  0  0  0  0  0  0
   -4.1520   11.8160   30.8560 C   0  0  0  0  0  0  0  0  0  0  0  0
   -2.8090   11.7610   31.1680 C   0  0  0  0  0  0  0  0  0  0  0  0
   -1.8360   12.2890   30.3460 C   0  0  0  0  0  0  0  0  0  0  0  0
   -2.2640   12.8680   29.2110 N   0  0  0  0  0  0  0  0  0  0  0  0
   -3.5460   12.9320   28.8910 N   0  0  0  0  0  0  0  0  0  0  0  0
   -0.4150   12.2000   30.7340 C   0  0  1  0  0  0  0  0  0  0  0  0
   -0.1540   10.8310   31.3190 C   0  0  0  0  0  0  0  0  0  0  0  0
    0.4960   12.5700   29.7010 N   0  0  0  0  0  0  0  0  0  0  0  0
    1.8690   12.3290   29.9750 C   0  0  0  0  0  0  0  0  0  0  0  0
    2.6260   13.6120   30.3380 C   0  0  0  0  0  0  0  0  0  0  0  0
    2.4220   14.0040   31.6360 O   0  0  0  0  0  0  0  0  0  0  0  0
  1  2  2  0
  2  3  1  0
  3  4  2  0
  8  5  1  0
  5  4  1  0
  6  5  2  0
  7  6  1  0
  7  2  1  0
  8  9  1  6
 10 11  1  0
  8 10  1  0
 11 12  1  0
 12 13  1  0
M  END
>  <submitter_name>
Rachael E Skyner

>  <submitter_email>
rachael.skyner@diamond.ac.uk

>  <submitter_institution>
DLS

>  <generation_date>
2019-12-01

>  <method>
OFUP (docking)

>  <ref_url>
https://github.com/xchem/OFUp/tree/master/projects/KALRNA

$$$$
s269862____7193048____9291266
     RDKit          3D

 13 13  0  0  1  0  0  0  0  0999 V2000
   -5.7380   12.5130   29.3220 O   0  0  0  0  0  0  0  0  0  0  0  0
   -4.5090   12.4270   29.6730 C   0  0  0  0  0  0  0  0  0  0  0  0
   -4.1520   11.8160   30.8560 C   0  0  0  0  0  0  0  0  0  0  0  0
   -2.8090   11.7610   31.1680 C   0  0  0  0  0  0  0  0  0  0  0  0
   -1.8360   12.2890   30.3460 C   0  0  0  0  0  0  0  0  0  0  0  0
   -2.2640   12.8680   29.2110 N   0  0  0  0  0  0  0  0  0  0  0  0
   -3.5460   12.9320   28.8910 N   0  0  0  0  0  0  0  0  0  0  0  0
   -0.4150   12.2000   30.7340 C   0  0  1  0  0  0  0  0  0  0  0  0
   -0.1540   10.8310   31.3190 C   0  0  0  0  0  0  0  0  0  0  0  0
    0.4960   12.5700   29.7010 N   0  0  0  0  0  0  0  0  0  0  0  0
    1.8690   12.3290   29.9750 C   0  0  0  0  0  0  0  0  0  0  0  0
    2.6260   13.6120   30.3380 C   0  0  0  0  0  0  0  0  0  0  0  0
    2.4220   14.0040   31.6360 O   0  0  0  0  0  0  0  0  0  0  0  0
  1  2  2  0
  2  3  1  0
  3  4  2  0
  8  5  1  0
  5  4  1  0
  6  5  2  0
  7  6  1  0
  7  2  1  0
  8  9  1  6
 10 11  1  0
  8 10  1  0
 11 12  1  0
 12 13  1  0
M  END
>  <Name>
GDP_ana1

>  <ref_mols>
x1389, x1376

>  <ref_pdb>
x1389

>  <original SMILES>
C[C@@H](NCCO)c1ccc(=O)[nH]n1

$$$$
EN300-106352
     RDKit          3D

 11 11  0  0  0  0  0  0  0  0999 V2000
   -4.5550   13.9870   27.3670 O   0  0  0  0  0  0  0  0  0  0  0  0
   -3.7370   13.5940   28.2120 C   0  0  0  0  0  0  0  0  0  0  0  0
   -4.2070   12.9660   29.3650 C   0  0  0  0  0  0  0  0  0  0  0  0
   -5.5880   12.7670   29.5920 N   0  0  0  0  0  0  0  0  0  0  0  0
   -3.3160   12.5220   30.3170 C   0  0  0  0  0  0  0  0  0  0  0  0
   -2.0040   12.7150   30.0920 N   0  0  0  0  0  0  0  0  0  0  0  0
   -1.5150   13.3160   28.9920 C   0  0  0  0  0  0  0  0  0  0  0  0
   -2.4070   13.7410   28.0800 N   0  0  0  0  0  0  0  0  0  0  0  0
   -3.8230   11.8860   31.4780 N   0  0  0  0  0  0  0  0  0  0  0  0
   -4.3140   12.7530   32.5400 C   0  0  0  0  0  0  0  0  0  0  0  0
   -3.8910   10.4770   31.6840 C   0  0  0  0  0  0  0  0  0  0  0  0
  1  2  2  0
  2  3  1  0
  3  4  1  0
  3  5  2  0
  5  9  1  0
  6  5  1  0
  7  6  2  0
  8  2  1  0
  8  7  1  0
  9 11  1  0
  9 10  1  0
M  END
>  <Name>
GDP_ana2

>  <ref_mols>
x1389, x1376

>  <ref_pdb>
x1389

>  <original SMILES>
CN(C)c1nc[nH]c(=O)c1N

$$$$
EN300-204342
     RDKit          3D

 20 22  0  0  1  0  0  0  0  0999 V2000
   -5.5820   12.4460   29.2430 O   0  0  0  0  0  0  0  0  0  0  0  0
   -4.7180   12.3650   30.1420 C   0  0  0  0  0  0  0  0  0  0  0  0
   -3.3750   12.5290   29.8030 C   0  0  0  0  0  0  0  0  0  0  0  0
   -2.4140   12.4410   30.7910 C   0  0  0  0  0  0  0  0  0  0  0  0
   -1.2120   12.6350   30.2030 N   0  0  0  0  0  0  0  0  0  0  0  0
   -1.3910   12.8380   28.8910 C   0  0  0  0  0  0  0  0  0  0  0  0
   -2.8220   12.2000   32.0520 N   0  0  0  0  0  0  0  0  0  0  0  0
   -4.1100   12.0400   32.3970 C   0  0  0  0  0  0  0  0  0  0  0  0
   -4.4740   11.7860   33.7570 N   0  0  0  0  0  0  0  0  0  0  0  0
   -2.7130   12.7690   28.6730 N   0  0  0  0  0  0  0  0  0  0  0  0
   -5.0330   12.1270   31.4230 N   0  0  0  0  0  0  0  0  0  0  0  0
    0.0320   12.6130   30.9370 C   0  0  1  0  0  0  0  0  0  0  0  0
    0.6030   11.2380   30.8510 C   0  0  2  0  0  0  0  0  0  0  0  0
    0.0220   10.3450   31.7310 O   0  0  0  0  0  0  0  0  0  0  0  0
    2.0660   11.4670   31.1050 C   0  0  2  0  0  0  0  0  0  0  0  0
    2.4700   10.9900   32.3430 O   0  0  0  0  0  0  0  0  0  0  0  0
    2.1700   12.9730   31.0350 C   0  0  2  0  0  0  0  0  0  0  0  0
    1.0140   13.4000   30.3560 O   0  0  0  0  0  0  0  0  0  0  0  0
    3.3530   13.3390   30.1640 C   0  0  0  0  0  0  0  0  0  0  0  0
    3.2500   12.7380   28.9340 O   0  0  0  0  0  0  0  0  0  0  0  0
  1  2  2  0
  2 11  1  0
  3  2  1  0
  3  4  2  0
  4  7  1  0
  5  4  1  0
  6  5  1  0
  7  8  2  0
  8  9  1  0
 10  6  2  0
 10  3  1  0
 11  8  1  0
 12  5  1  6
 13 12  1  0
 13 15  1  0
 13 14  1  1
 15 16  1  1
 17 19  1  6
 17 15  1  0
 12 18  1  0
 17 18  1  0
 20 19  1  0
M  END
>  <Name>
GDP_ana3

>  <ref_mols>
x1389, x1376

>  <ref_pdb>
x1389

>  <original SMILES>
Nc1nc2c(ncn2[C@@H]2O[C@H](CO)[C@@H](O)[C@H]2O)c(=O)[nH]1

$$$$
