ver_1.2
     RDKit          2D

  1  0  0  0  0  0  0  0  0  0999 V2000
    0.0000    0.0000    0.0000 C   0  0  0  0  0  0  0  0  0  0  0  0
M  END
>  <submitter_name>  (1) 
Ruben Sanchez Garcia

>  <submitter_email>  (1) 
ruben.sanchez-garcia@stats.ox.ac.uk

>  <submitter_institution>  (1) 
University of Oxford

>  <method>  (1) 
denovo_fragmenstein

>  <ref_url>  (1) 
https://github.com/matteoferla/Fragmenstein

>  <original SMILES>  (1) 
The SMILES of the compound

>  <ref_pdb>  (1) 
A pdb included in fragalysis or uploaded. E.g. x0830_0

>  <ref_mols>  (1) 
The inspirational fragments usded to propose the compound

>  <generation_date>  (1) 
2021-04-28

>  <fragmensteinOld_score>  (1) 
Score fragmensteinOld_score

>  <LE_score>  (1) 
Score LE_score

>  <comRMSD_score>  (1) 
Score comRMSD_score

>  <fragmensteinNew_score>  (1) 
Score fragmensteinNew_score

>  <meanSuCosW_score>  (1) 
Score meanSuCosW_score

>  <maxSuCosW_score>  (1) 
Score maxSuCosW_score

>  <minSuCosW_score>  (1) 
Score minSuCosW_score

>  <sumSuCosW_score>  (1) 
Score sumSuCosW_score

>  <SA_score>  (1) 
Score SA_score

>  <aLogP_score>  (1) 
Score aLogP_score

>  <hbondD_score>  (1) 
Score hbondD_score

>  <hbondA_score>  (1) 
Score hbondA_score

>  <polarSurfaceArea_score>  (1) 
Score polarSurfaceArea_score

>  <rotableBonds_score>  (1) 
Score rotableBonds_score

>  <SC_score>  (1) 
Score SC_score

>  <energyPoseVsEnsemble_score>  (1) 
Score energyPoseVsEnsemble_score

>  <xcos_score>  (1) 
Score xcos_score

>  <plipMedianPreser_score>  (1) 
Score plipMedianPreser_score

>  <plipGlobalPreser_score>  (1) 
Score plipGlobalPreser_score

>  <plipGlobalPreserOverMw_score>  (1) 
Score plipGlobalPreserOverMw_score

117_x0161_1_0b1_0b2-x0238_1_0b1_0b3
  MOLSOFT 03252117243D

 18 18  0  0  0  0  0  0  0  0999 V2000
   17.0850   19.2600   24.9290 N   0  0  0
   16.2970   19.7040   26.0260 C   0  0  0
   17.0780   19.7590   27.2830 C   0  0  0
   17.3700   20.3470   23.9860 C   0  0  0
   18.5880   21.1360   24.3930 C   0  0  0
   16.2490   19.0540   28.3350 C   0  0  0
   17.3700   21.1800   27.7320 C   0  0  0
   19.0010   22.1080   23.3090 C   0  0  0
   20.1630   22.8420   23.3400 C   0  0  0
   18.1590   22.2750   22.2070 C   0  0  0
   20.9990   22.6750   24.4080 O   0  0  0
   20.5320   23.7460   22.3420 C   0  0  0
   18.4800   23.1710   21.1840 C   0  0  0
   19.6700   23.9160   21.2530 C   0  0  0
   21.7470   24.4540   22.4620 O   0  0  0
   22.9500   23.8080   22.0140 C   0  0  0
   23.9580   24.7820   22.0070 C   0  0  0
   23.1080   22.6330   21.6790 O   0  0  0
  1  2  1
  2  3  1
  1  4  1
  4  5  1
  3  6  1
  3  7  1
  5  8  1
  8  9  2
  8 10  1
  9 11  1
  9 12  1
 10 13  2
 12 14  2
 13 14  1
 12 15  1
 15 16  1
 16 17  1
 16 18  2
M  END
> <submitter_name>


> <submitter_email>


> <submitter_institution>


> <method>


> <ref_url>


> <ref_pdb>
x0161

> <ref_mols>
x0161_1,x0238_1

> <generation_date>


> <fragmensteinOld_score>
2.557934

> <LE_score>
-0.415725

> <comRMSD_score>
0.454546

> <fragmensteinNew_score>
95.398815

> <meanSuCosW_score>
0.22762

> <maxSuCosW_score>
0.231861

> <minSuCosW_score>
0.223379

> <SA_score>
6.331615

> <aLogP_score>
2.1056

> <hbondD_score>
2

> <hbondA_score>
4

> <polarSurfaceArea_score>
58.56

> <rotableBonds_score>
6

> <original_name>
x0161-1-0b1-x0161-1-0b2-x0238-1-0b1-x0238-1-0b3

> <SC_score>
2.962298

> <original SMILES>
[H]Oc1c(OC(=O)C([H])([H])[H])c([H])c([H])c([H])c1C([H])([H])C([H])([H])N([H])C([H])([H])C([H])(C([H])([H])[H])C([H])([H])[H]

> <energyPoseVsEnsemble_score>
0.397421

> <xcos_score>
14.51087

> <plipMedianPreser_score>
1.

> <plipGlobalPreser_score>
0.8

> <plipGlobalPreserOverMw_score>
0.318532

576_x0266_1_0b0_0b1-x0238_1_0b0_0b1_0b3
  MOLSOFT 03252117243D

 14 14  0  0  0  0  0  0  0  0999 V2000
   17.5250   20.3410   25.6670 C   0  0  0
   16.7200   19.6350   24.6540 N   0  0  0
   16.1540   20.5450   23.6310 C   0  0  0
   16.8250   20.6890   26.9520 C   0  0  0
   16.5270   19.6530   27.8420 C   0  0  0
   17.6290   21.7450   27.7130 C   0  0  0
   16.1780   20.1120   22.2450 N   0  0  0
   15.1620   19.2360   21.6530 C   0  0  0
   13.9720   18.7700   22.2220 C   0  0  0
   15.3490   18.8010   20.4080 C   0  0  0
   13.0260   17.9250   21.5950 C   0  0  0
   14.4180   17.9050   19.6310 C   0  0  0
   13.2490   17.4590   20.2250 C   0  0  0
   12.3540   16.6170   19.5400 N   0  0  0
  1  2  1
  2  3  1
  1  4  1
  4  5  1
  4  6  1
  3  7  1
  7  8  1
  8  9  2
  8 10  1
  9 11  1
 10 12  2
 11 13  2
 12 13  1
 13 14  1
M  END
> <ref_pdb>
x0238

> <ref_mols>
x0238_1,x0266_1

> <fragmensteinOld_score>
2.206919

> <LE_score>
-0.344676

> <comRMSD_score>
0.372013

> <fragmensteinNew_score>
75.304798

> <meanSuCosW_score>
0.292781

> <maxSuCosW_score>
0.343795

> <minSuCosW_score>
0.241767

> <SA_score>
6.743721

> <aLogP_score>
1.8838

> <hbondD_score>
3

> <hbondA_score>
3

> <polarSurfaceArea_score>
50.08

> <rotableBonds_score>
5

> <original_name>
x0266-1-0b0-x0266-1-0b1-x0238-1-0b0-x0238-1-0b1-x0238-1-0b3

> <SC_score>
2.661073

> <original SMILES>
[H]c1c([H])c(N([H])C([H])([H])N([H])C([H])([H])C([H])(C([H])([H])[H])C([H])([H])[H])c([H])c([H])c1N([H])[H]

> <energyPoseVsEnsemble_score>
0.94677

> <xcos_score>
11.108744

> <plipMedianPreser_score>
0.

> <plipGlobalPreser_score>
0.375

> <plipGlobalPreserOverMw_score>
0.194142

$$$$
892_x0315_1_0b0_0b2_0b4-x0457_1_0b0_0b1-x0712_1_0b
  MOLSOFT 03252117243D

 20 21  0  0  1  0  0  0  0  0999 V2000
   16.5310   22.0400   22.2480 O   0  0  0
   17.7430   22.6730   22.2930 C   0  0  0
   18.0940   23.6040   21.3220 C   0  0  0
   18.6340   22.3910   23.3190 C   0  0  0
   18.6340   22.0510   24.6610 C   0  0  1
   19.3210   24.2440   21.3780 C   0  0  0
   19.8610   23.0320   23.3730 C   0  0  0
   20.2150   23.9620   22.4030 C   0  0  0
   19.5350   22.4340   25.5840 N   0  0  0
   17.5140   21.1770   25.1690 C   0  0  0
   20.5930   23.3690   25.4620 C   0  0  0
   21.1870   23.7210   24.2470 C   0  0  0
   21.0560   23.9450   26.6470 C   0  0  0
   22.2330   24.6420   24.2240 C   0  0  0
   22.0920   24.8600   26.6140 C   0  0  0
   22.6810   25.2170   25.4140 C   0  0  0
   23.0410   24.8180   23.4390 O   0  0  0
   23.8490   24.9940   22.6540 C   0  0  0
   25.2150   24.5470   20.7130 C   0  0  0
   23.1050   23.1190   21.8800 O   0  0  0
  1  2  1
  2  3  2
  2  4  1
  5  4  1
  3  6  1
  4  7  2
  6  8  2
  7  8  1
  5  9  1
  5 10  1
  9 11  1
 11 12  2
 11 13  1
 12 14  1
 13 15  2
 14 16  2
 15 16  1
 14 17  1
 17 18  1
 18 19  1
 18 20  2
M  END
> <ref_pdb>
x0315

> <ref_mols>
x0315_1,x0457_1,x0712_1

> <fragmensteinOld_score>
2.954314

> <LE_score>
-0.261422

> <comRMSD_score>
9.374177e-7

> <fragmensteinNew_score>
104.644029

> <meanSuCosW_score>
0.266054

> <maxSuCosW_score>
0.345086

> <minSuCosW_score>
0.177188

> <SA_score>
6.502602

> <aLogP_score>
3.4906

> <hbondD_score>
2

> <hbondA_score>
4

> <polarSurfaceArea_score>
58.56

> <rotableBonds_score>
4

> <original_name>
x0315-1-0b0-x0315-1-0b2-x0315-1-0b4-x0457-1-0b0-x0457-1-0b1-x0712-1-0b0-x0712-1-0b2-x0712-1-0b4-x0712-1-0b5-x0712-1-0b6

> <SC_score>
2.5749

> <original SMILES>
[H]Oc1c([H])c([H])c([H])c([H])c1C([H])(N([H])c1c([H])c([H])c([H])c(OC(=O)C([H])([H])[H])c1[H])C([H])([H])[H]

> <energyPoseVsEnsemble_score>
1592.717421

> <xcos_score>
27.327998

> <plipMedianPreser_score>
0.633333

> <plipGlobalPreser_score>
0.5

> <plipGlobalPreserOverMw_score>
0.18442

$$$$
1358_x0324_1_0b3-x0590_1_0b0_0b1_0b2
  MOLSOFT 03252117243D

 12 12  0  0  0  0  0  0  0  0999 V2000
   21.7220   23.8500   22.4910 N   0  0  0
   23.0620   23.7310   22.2060 C   0  0  0
   23.4770   22.6330   21.9080 O   0  0  0
   21.1020   24.5350   23.5710 C   0  0  0
   23.9030   24.9970   22.2250 C   0  0  0
   21.1650   23.8440   24.9290 C   0  0  0
   25.0000   24.9660   21.1650 C   0  0  0
   22.5620   23.3750   25.2420 C   0  0  0
   20.2580   22.6360   25.1480 C   0  0  0
   20.1810   22.4050   26.6500 C   0  0  0
   22.6380   23.0880   26.7340 C   0  0  0
   21.5680   22.1030   27.2400 C   0  0  0
  1  2  1
  2  3  2
  1  4  1
  2  5  1
  4  6  1
  5  7  1
  6  8  1
  6  9  1
  9 10  1
  8 11  1
 10 12  1
 11 12  1
M  END
> <ref_pdb>
x0324

> <ref_mols>
x0324_1,x0590_1

> <fragmensteinOld_score>
1.530318

> <LE_score>
-0.592433

> <comRMSD_score>
0.552158

> <fragmensteinNew_score>
65.417332

> <meanSuCosW_score>
0.252998

> <maxSuCosW_score>
0.382159

> <minSuCosW_score>
0.123838

> <SA_score>
6.854945

> <aLogP_score>
2.0929

> <hbondD_score>
1

> <hbondA_score>
1

> <polarSurfaceArea_score>
29.1

> <rotableBonds_score>
3

> <original_name>
x0324-1-0b3-x0590-1-0b0-x0590-1-0b1-x0590-1-0b2

> <SC_score>
2.328587

> <original SMILES>
[H]N(C(=O)C([H])([H])C([H])([H])[H])C([H])([H])C1([H])C([H])([H])C([H])([H])C([H])([H])C([H])([H])C1([H])[H]

> <energyPoseVsEnsemble_score>
0.42756

> <xcos_score>
10.326626

> <plipMedianPreser_score>
0.75

> <plipGlobalPreser_score>
0.6

> <plipGlobalPreserOverMw_score>
0.354722

$$$$
1381_x0334_1_0b0-x0266_1_0b0_0b1-x0457_1_0b0_0b3
  MOLSOFT 03252117243D

 20 21  0  0  0  0  0  0  0  0999 V2000
   21.8400   24.5760   23.9200 N   0  0  0
   20.8170   23.8010   24.1020 C   0  0  0
   19.8380   23.3090   23.2390 C   0  0  0
   20.8980   23.5040   25.5820 C   0  0  0
   19.8060   22.5960   26.1050 C   0  0  0
   18.8860   22.5020   23.7440 C   0  0  0
   18.8330   22.1100   25.2130 C   0  0  0
   17.8590   21.2700   25.7940 N   0  0  0
   18.1200   20.9870   27.0420 C   0  0  0
   17.3430   20.1310   25.0220 C   0  0  0
   15.8370   20.2480   24.6880 C   0  0  0
   15.7370   20.8260   23.2590 C   0  0  0
   16.1470   19.8490   22.2630 N   0  0  0
   15.2970   19.1280   21.6300 C   0  0  0
   14.0930   18.7050   22.2090 C   0  0  0
   15.4540   18.6410   20.2200 C   0  0  0
   13.1000   17.9020   21.5800 C   0  0  0
   14.5420   17.8630   19.5320 C   0  0  0
   13.3690   17.4680   20.1560 C   0  0  0
   12.4500   16.6700   19.4570 N   0  0  0
  1  2  1
  2  3  2
  2  4  1
  4  5  2
  3  6  1
  5  7  1
  6  7  2
  7  8  1
  8  9  1
  8 10  1
 10 11  1
 11 12  1
 12 13  1
 13 14  1
 14 15  2
 14 16  1
 15 17  1
 16 18  2
 17 19  2
 18 19  1
 19 20  1
M  END
> <ref_pdb>
x0266

> <ref_mols>
x0266_1,x0334_1,x0457_1

> <fragmensteinOld_score>
2.512047

> <LE_score>
-0.438616

> <comRMSD_score>
0.266512

> <fragmensteinNew_score>
104.999856

> <meanSuCosW_score>
0.243538

> <maxSuCosW_score>
0.373495

> <minSuCosW_score>
0.168398

> <SA_score>
6.102065

> <aLogP_score>
2.7894

> <hbondD_score>
3

> <hbondA_score>
4

> <polarSurfaceArea_score>
67.31

> <rotableBonds_score>
6

> <original_name>
x0334-1-0b0-x0266-1-0b0-x0266-1-0b1-x0457-1-0b0-x0457-1-0b3

> <SC_score>
3.146383

> <original SMILES>
[H]c1c([H])c(N([H])C([H])([H])C([H])([H])C([H])([H])N(c2c([H])c([H])c(N([H])[H])c([H])c2[H])C([H])([H])[H])c([H])c([H])c1N([H])[H]

> <energyPoseVsEnsemble_score>
2.810991

> <xcos_score>
20.077694

> <plipMedianPreser_score>
0.

> <plipGlobalPreser_score>
0.3

> <plipGlobalPreserOverMw_score>
0.111035

$$$$
1570_x0334_1_0b1_0b2_0b4-x0238_1_0b1_0b4
  MOLSOFT 03252117243D

 15 16  0  0  0  0  0  0  0  0999 V2000
   17.4810   22.0080   22.8220 N   0  0  0
   16.4960   22.4090   21.8680 C   0  0  0
   15.2530   21.9520   22.2090 N   0  0  0
   17.0920   21.0960   23.9300 C   0  0  0
   16.4920   23.2460   20.5590 C   0  0  0
   17.7920   21.2190   25.1820 C   0  0  0
   14.9000   21.1660   23.3450 C   0  0  0
   14.0410   22.1220   21.5940 C   0  0  0
   15.2640   23.4440   19.8870 C   0  0  0
   16.8680   20.7510   26.3480 C   0  0  0
   13.5700   20.9550   23.3140 C   0  0  0
   12.9760   21.5310   22.2270 N   0  0  0
   14.0660   22.8930   20.3930 C   0  0  0
   17.3940   20.9080   27.6250 C   0  0  0
   12.9470   20.1450   24.4520 C   0  0  0
  1  2  1
  2  3  1
  1  4  1
  2  5  2
  4  6  1
  3  7  1
  3  8  1
  5  9  1
  6 10  1
  7 11  2
  8 12  2
 11 12  1
  8 13  1
  9 13  2
 10 14  1
 11 15  1
M  END
> <ref_pdb>
x0238

> <ref_mols>
x0238_1,x0334_1

> <fragmensteinOld_score>
2.744608

> <LE_score>
-0.344721

> <comRMSD_score>
0.778771

> <fragmensteinNew_score>
81.11827

> <meanSuCosW_score>
0.292477

> <maxSuCosW_score>
0.443344

> <minSuCosW_score>
0.141611

> <SA_score>
1.

> <aLogP_score>
2.85472

> <hbondD_score>
1

> <hbondA_score>
2

> <polarSurfaceArea_score>
29.33

> <rotableBonds_score>
4

> <original_name>
x0334-1-0b1-x0334-1-0b2-x0334-1-0b4-x0238-1-0b1-x0238-1-0b4

> <SC_score>
3.411271

> <original SMILES>
[H]c1c([H])c(N([H])C([H])([H])C([H])([H])C([H])([H])C([H])([H])[H])n2c([H])c(C([H])([H])[H])nc2c1[H]

> <energyPoseVsEnsemble_score>
23922.673255

> <xcos_score>
10.12033

> <plipMedianPreser_score>
1.

> <plipGlobalPreser_score>
0.6

> <plipGlobalPreserOverMw_score>
0.29536

$$$$
1598_x0334_1_0b1_0b3_0b4-x0315_1_0b4-x0590_1_0b0_0
  MOLSOFT 03252117243D

 16 16  0  0  0  0  0  0  0  0999 V2000
   21.5870   24.5500   22.2960 N   0  0  0
   22.8470   24.0390   22.0520 C   0  0  0
   23.1030   22.6540   21.8050 O   0  0  0
   20.3770   23.8750   22.4600 C   0  0  0
   23.9420   25.1110   22.0410 C   0  0  0
   19.3540   24.0700   21.5500 C   0  0  0
   20.2380   23.0200   23.5380 C   0  0  0
   25.0360   24.8040   21.0140 C   0  0  0
   21.3210   22.9050   24.3630 O   0  0  0
   18.0960   23.4800   21.5580 C   0  0  0
   19.0560   22.3460   23.7190 C   0  0  0
   17.9060   22.5060   22.7680 C   0  0  0
   16.7800   21.7490   23.0850 N   0  0  0
   15.5990   21.8170   22.3820 C   0  0  0
   15.6580   20.9030   21.1760 C   0  0  0
   15.9160   19.4240   21.5260 C   0  0  0
  1  2  1
  2  3  2
  1  4  1
  2  5  1
  4  6  2
  4  7  1
  5  8  1
  7  9  1
  6 10  1
  7 11  2
 10 12  2
 11 12  1
 12 13  1
 13 14  1
 14 15  1
 15 16  1
M  END
> <ref_pdb>
x0315

> <ref_mols>
x0315_1,x0334_1,x0590_1

> <fragmensteinOld_score>
1.49142

> <LE_score>
-0.669521

> <comRMSD_score>
0.433886

> <fragmensteinNew_score>
85.103699

> <meanSuCosW_score>
0.215053

> <maxSuCosW_score>
0.255016

> <minSuCosW_score>
0.144847

> <SA_score>
5.416469

> <aLogP_score>
2.5626

> <hbondD_score>
3

> <hbondA_score>
3

> <polarSurfaceArea_score>
61.36

> <rotableBonds_score>
5

> <original_name>
x0334-1-0b1-x0334-1-0b3-x0334-1-0b4-x0315-1-0b4-x0590-1-0b0-x0590-1-0b1-x0590-1-0b2-x0590-1-0b3

> <SC_score>
3.161585

> <original SMILES>
[H]Oc1c([H])c(N([H])C([H])([H])C([H])([H])C([H])([H])[H])c([H])c([H])c1N([H])C(=O)C([H])([H])C([H])([H])[H]

> <energyPoseVsEnsemble_score>
0.957452

> <xcos_score>
14.352483

> <plipMedianPreser_score>
0.833333

> <plipGlobalPreser_score>
0.571429

> <plipGlobalPreserOverMw_score>
0.257242

$$$$
1810_x0412_1_0b0_0b2-x0712_1_0b1_0b3_0b5_0b6
  MOLSOFT 03252117243D

 16 16  0  0  0  0  0  0  0  0999 V2000
   22.4950   25.3670   22.7760 N   0  0  0
   23.3630   24.4450   22.2370 C   0  0  0
   24.4280   25.2500   21.4760 C   0  0  0
   22.1810   24.6980   24.0890 C   0  0  0
   23.1760   23.0280   22.4010 O   0  0  0
   21.2720   23.6170   24.0880 C   0  0  0
   22.7610   25.1290   25.2860 C   0  0  0
   20.9480   22.9700   25.2870 C   0  0  0
   22.4330   24.4870   26.4850 C   0  0  0
   21.5310   23.4210   26.4710 C   0  0  0
   20.1000   21.8940   25.4470 O   0  0  0
   18.6850   22.0820   25.4500 C   0  0  0
   18.0120   20.8940   25.1280 C   0  0  0
   17.4210   20.2130   26.2690 N   0  0  0
   18.1710   19.1990   26.7390 C   0  0  0
   16.6230   21.0090   27.0540 C   0  0  0
  1  2  1
  2  3  1
  1  4  1
  2  5  2
  4  6  2
  4  7  1
  6  8  1
  7  9  2
  8 10  2
  9 10  1
  8 11  1
 11 12  1
 12 13  1
 13 14  1
 14 15  1
 14 16  1
M  END
> <ref_pdb>
x0412

> <ref_mols>
x0412_1,x0712_1

> <fragmensteinOld_score>
2.429615

> <LE_score>
-0.421059

> <comRMSD_score>
0.577002

> <fragmensteinNew_score>
85.638395

> <meanSuCosW_score>
0.205042

> <maxSuCosW_score>
0.310113

> <minSuCosW_score>
0.099971

> <SA_score>
4.911221

> <aLogP_score>
1.5854

> <hbondD_score>
1

> <hbondA_score>
3

> <polarSurfaceArea_score>
41.57

> <rotableBonds_score>
5

> <original_name>
x0412-1-0b0-x0412-1-0b2-x0712-1-0b1-x0712-1-0b3-x0712-1-0b5-x0712-1-0b6

> <SC_score>
2.308498

> <original SMILES>
[H]c1c([H])c(OC([H])([H])C([H])([H])N(C([H])([H])[H])C([H])([H])[H])c([H])c(N([H])C(=O)C([H])([H])[H])c1[H]

> <energyPoseVsEnsemble_score>
2.365908

> <xcos_score>
5.852696

> <plipMedianPreser_score>
0.75

> <plipGlobalPreser_score>
0.375

> <plipGlobalPreserOverMw_score>
0.168815

$$$$
1841_x0412_1_0b1_0b2-x0238_1_0b0_0b1_0b2_0b3_0b4
  MOLSOFT 03252117243D

 20 21  0  0  0  0  0  0  0  0999 V2000
   17.4970   21.2510   24.7700 C   0  0  0
   16.9660   20.7990   23.4110 C   0  0  0
   15.6220   21.2510   22.9470 C   0  0  0
   18.8590   21.7080   24.8300 O   0  0  0
   16.7240   21.1590   25.8990 O   0  0  0
   16.8190   20.0450   26.7660 C   0  0  0
   14.3060   21.0200   23.3710 C   0  0  0
   15.4560   22.0540   21.8860 N   0  0  0
   17.4890   18.9610   26.2230 C   0  0  0
   15.4170   19.6640   27.2390 C   0  0  0
   17.6180   20.5410   27.9800 C   0  0  0
   13.9170   20.2460   24.4610 C   0  0  0
   14.1060   22.3040   21.6320 C   0  0  0
   13.3440   21.6940   22.5130 N   0  0  0
   16.6090   22.5580   21.1480 C   0  0  0
   16.9630   19.9870   29.2330 C   0  0  0
   17.7800   22.0560   28.0940 C   0  0  0
   13.8160   23.1440   20.5170 C   0  0  0
   16.3650   23.3590   20.1070 C   0  0  0
   14.9700   23.6940   19.7290 C   0  0  0
  1  2  1
  2  3  1
  1  4  2
  1  5  1
  6  5  1
  3  7  2
  3  8  1
  6  9  1
  6 10  1
  6 11  1
  7 12  1
  8 13  1
  7 14  1
 13 14  2
  8 15  1
 11 16  1
 11 17  1
 13 18  1
 15 19  2
 18 20  2
 19 20  1
M  END
> <ref_pdb>
x0238

> <ref_mols>
x0238_1,x0412_1

> <fragmensteinOld_score>
3.479984

> <LE_score>
-0.311688

> <comRMSD_score>
0.726737

> <fragmensteinNew_score>
106.047234

> <meanSuCosW_score>
0.372463

> <maxSuCosW_score>
0.5212

> <minSuCosW_score>
0.223726

> <SA_score>
6.093199

> <aLogP_score>
3.16302

> <hbondD_score>
0

> <hbondA_score>
3

> <polarSurfaceArea_score>
43.6

> <rotableBonds_score>
4

> <original_name>
x0412-1-0b1-x0412-1-0b2-x0238-1-0b0-x0238-1-0b1-x0238-1-0b2-x0238-1-0b3-x0238-1-0b4

> <SC_score>
2.850421

> <original SMILES>
[H]c1c([H])c([H])n2c(C([H])([H])C(=O)OC(C([H])([H])[H])(C([H])([H])[H])C([H])(C([H])([H])[H])C([H])([H])[H])c(C([H])([H])[H])nc2c1[H]

> <energyPoseVsEnsemble_score>
2.1011

> <xcos_score>
9.55681

> <plipMedianPreser_score>
0.75

> <plipGlobalPreser_score>
0.75

> <plipGlobalPreserOverMw_score>
0.273555

$$$$
1856_x0412_1_0b1_0b2_0b3-x0334_1_0b0_0b1_0b2_0b3_0
  MOLSOFT 03252117243D

 19 20  0  0  1  0  0  0  0  0999 V2000
   17.9810   21.2240   24.8100 C   0  0  0
   17.4470   21.7990   23.5300 C   0  0  0
   18.1800   22.8010   22.9250 C   0  0  0
   19.3280   20.9400   25.1810 O   0  0  0
   16.9890   20.9650   25.7990 O   0  0  0
   16.3220   21.3380   23.0680 N   0  0  0
   16.9470   19.6800   26.4430 C   0  0  1
   15.7380   21.8420   21.9490 C   0  0  0
   17.6680   23.3710   21.7720 C   0  0  0
   18.2300   19.2700   26.7830 C   0  0  0
   16.0360   19.7940   27.4190 C   0  0  0
   16.4460   22.9410   21.2580 C   0  0  0
   14.4930   21.2350   21.6050 C   0  0  0
   16.3750   20.6750   28.5880 C   0  0  0
   15.0560   20.5400   22.8100 C   0  0  0
   15.9770   23.5630   20.1640 C   0  0  0
   14.1190   22.0480   20.4170 C   0  0  0
   17.3300   21.8280   28.3480 C   0  0  0
   14.7170   23.0890   19.7260 C   0  0  0
  1  2  1
  2  3  2
  1  4  2
  1  5  1
  2  6  1
  7  5  1
  6  8  2
  3  9  1
  7 10  1  1
  7 11  1
  8 12  1
  9 12  2
  8 13  1
 11 14  1
 13 15  1
 12 16  1
 13 17  2
 14 18  1
 16 19  2
 17 19  1
M  END
> <ref_pdb>
x0334

> <ref_mols>
x0334_1,x0412_1

> <fragmensteinOld_score>
3.626321

> <LE_score>
-0.227184

> <comRMSD_score>
0.689621

> <fragmensteinNew_score>
101.057506

> <meanSuCosW_score>
0.28658

> <maxSuCosW_score>
0.394773

> <minSuCosW_score>
0.178386

> <SA_score>
6.577656

> <aLogP_score>
3.88862

> <hbondD_score>
0

> <hbondA_score>
3

> <polarSurfaceArea_score>
39.19

> <rotableBonds_score>
4

> <original_name>
x0412-1-0b1-x0412-1-0b2-x0412-1-0b3-x0334-1-0b0-x0334-1-0b1-x0334-1-0b2-x0334-1-0b3-x0334-1-0b4

> <SC_score>
3.067496

> <original SMILES>
[H]c1c([H])c([H])c2c([H])c([H])c(C(=O)O[C@@]([H])(C([H])([H])[H])C([H])([H])C([H])([H])C([H])([H])[H])nc2c1C([H])([H])[H]

> <energyPoseVsEnsemble_score>
179.834517

> <xcos_score>
12.211764

> <plipMedianPreser_score>
1.

> <plipGlobalPreser_score>
0.8

> <plipGlobalPreserOverMw_score>
0.311113

$$$$
2195_x0457_1_0b2-x0334_1_0b0_0b2-x0315_1
  MOLSOFT 03252117243D

 18 18  0  0  0  0  0  0  0  0999 V2000
   18.1590   20.4930   26.5510 C   0  0  0
   17.0080   21.0650   27.3750 C   0  0  0
   16.4070   20.0380   28.3180 C   0  0  0
   18.6140   21.4590   25.6090 O   0  0  0
   17.9700   21.3300   24.3420 C   0  0  0
   18.4570   22.3300   23.3190 C   0  0  0
   17.6550   22.6340   22.2090 C   0  0  0
   19.6540   22.9460   23.4430 C   0  0  0
   16.4430   22.0330   22.0410 O   0  0  0
   20.1780   23.8880   22.5410 C   0  0  0
   18.0890   23.6320   21.1590 C   0  0  0
   21.4390   24.5150   22.6990 N   0  0  0
   19.4350   24.2470   21.4170 C   0  0  0
   22.7000   24.0200   22.3770 C   0  0  0
   22.9620   22.9180   21.8970 O   0  0  0
   23.8240   25.0340   22.6630 C   0  0  0
   25.1110   24.6010   22.2020 O   0  0  0
   25.2210   24.7170   20.7920 C   0  0  0
  1  2  1
  2  3  1
  1  4  1
  4  5  1
  5  6  1
  6  7  2
  6  8  1
  7  9  1
  8 10  2
  7 11  1
 10 12  1
 10 13  1
 11 13  2
 12 14  1
 14 15  2
 14 16  1
 16 17  1
 17 18  1
M  END
> <ref_pdb>
x0315

> <ref_mols>
x0315_1,x0334_1,x0457_1

> <fragmensteinOld_score>
1.759735

> <LE_score>
-0.569598

> <comRMSD_score>
0.210288

> <fragmensteinNew_score>
94.756426

> <meanSuCosW_score>
0.222328

> <maxSuCosW_score>
0.327822

> <minSuCosW_score>
0.160899

> <SA_score>
5.552931

> <aLogP_score>
1.9037

> <hbondD_score>
2

> <hbondA_score>
4

> <polarSurfaceArea_score>
67.79

> <rotableBonds_score>
7

> <original_name>
x0457-1-0b2-x0334-1-0b0-x0334-1-0b2-x0315-1

> <SC_score>
3.067242

> <original SMILES>
[H]Oc1c([H])c([H])c(N([H])C(=O)C([H])([H])OC([H])([H])[H])c([H])c1C([H])([H])OC([H])([H])C([H])([H])C([H])([H])[H]

> <energyPoseVsEnsemble_score>
0.067455

> <xcos_score>
23.017727

> <plipMedianPreser_score>
0.9

> <plipGlobalPreser_score>
0.75

> <plipGlobalPreserOverMw_score>
0.296289

$$$$
2397_x0473_1_0b0_0b2-x0590_1_0b0_0b1_0b2_0b3
  MOLSOFT 03252117243D

 17 17  0  0  0  0  0  0  0  0999 V2000
   21.4140   23.9780   23.0220 N   0  0  0
   22.7040   23.6150   22.5280 C   0  0  0
   23.0060   22.5110   22.0510 O   0  0  0
   20.1340   23.3460   22.7220 C   0  0  0
   19.7760   22.2950   23.5330 C   0  0  0
   19.2100   23.6750   21.6980 C   0  0  0
   23.7260   24.7620   22.5600 C   0  0  0
   20.6430   21.9580   24.5390 O   0  0  0
   18.5510   21.5900   23.3230 C   0  0  0
   18.0290   23.0010   21.4570 C   0  0  0
   24.5930   24.7360   21.4510 C   0  0  0
   17.6780   21.9470   22.2590 C   0  0  0
   16.3820   21.2380   21.9490 C   0  0  0
   15.5680   21.0040   23.1040 O   0  0  0
   14.2550   20.5450   22.7660 C   0  0  0
   13.2000   20.9610   23.7920 C   0  0  0
   11.7970   20.5350   23.3680 C   0  0  0
  1  2  1
  2  3  2
  1  4  1
  4  5  2
  4  6  1
  2  7  1
  5  8  1
  5  9  1
  6 10  2
  7 11  1
  9 12  2
 10 12  1
 12 13  1
 13 14  1
 14 15  1
 15 16  1
 16 17  1
M  END
> <ref_pdb>
x0473

> <ref_mols>
x0473_1,x0590_1

> <fragmensteinOld_score>
2.871863

> <LE_score>
-0.384151

> <comRMSD_score>
0.777977

> <fragmensteinNew_score>
91.077252

> <meanSuCosW_score>
0.213341

> <maxSuCosW_score>
0.242691

> <minSuCosW_score>
0.18399

> <SA_score>
5.872858

> <aLogP_score>
2.6673

> <hbondD_score>
2

> <hbondA_score>
3

> <polarSurfaceArea_score>
58.56

> <rotableBonds_score>
6

> <original_name>
x0473-1-0b0-x0473-1-0b2-x0590-1-0b0-x0590-1-0b1-x0590-1-0b2-x0590-1-0b3

> <SC_score>
3.000266

> <original SMILES>
[H]Oc1c([H])c(C([H])([H])OC([H])([H])C([H])([H])C([H])([H])[H])c([H])c([H])c1N([H])C(=O)C([H])([H])C([H])([H])[H]

> <energyPoseVsEnsemble_score>
0.470526

> <xcos_score>
7.495797

> <plipMedianPreser_score>
1.

> <plipGlobalPreser_score>
0.8

> <plipGlobalPreserOverMw_score>
0.337358

$$$$
2443_x0473_1_0b1-x0334_1_0b0_0b2_0b3-x0266_1_0b1_0
  MOLSOFT 03252117243D

 21 22  0  0  0  0  0  0  0  0999 V2000
   17.6590   20.5490   25.6930 C   0  0  0
   16.7200   20.9240   26.8510 C   0  0  0
   16.6400   19.8830   27.9790 C   0  0  0
   17.0660   19.6540   24.7320 O   0  0  0
   15.9070   20.1750   24.0480 C   0  0  0
   15.9910   20.0710   22.5780 N   0  0  0
   15.1160   19.2870   21.9850 C   0  0  0
   16.6120   21.2550   21.9980 C   0  0  0
   13.8470   18.7890   22.5710 C   0  0  0
   15.4770   18.8810   20.5760 C   0  0  0
   16.0640   21.8740   20.8780 N   0  0  0
   17.7400   21.7230   22.6020 N   0  0  0
   13.0220   17.9000   21.6730 C   0  0  0
   14.6870   18.0710   19.7990 C   0  0  0
   16.6930   22.9670   20.3850 C   0  0  0
   18.3330   22.8040   22.0950 C   0  0  0
   13.4630   17.5380   20.2530 C   0  0  0
   16.1040   23.6680   19.1510 C   0  0  0
   19.5600   23.2820   22.7990 C   0  0  0
   17.8080   23.4330   20.9710 C   0  0  0
   12.6060   16.6530   19.4040 N   0  0  0
  1  2  1
  2  3  1
  1  4  1
  4  5  1
  5  6  1
  6  7  1
  6  8  1
  7  9  2
  7 10  1
  8 11  2
  8 12  1
  9 13  1
 10 14  2
 11 15  1
 12 16  2
 13 17  2
 14 17  1
 15 18  1
 16 19  1
 15 20  2
 16 20  1
 17 21  1
M  END
> <ref_pdb>
x0266

> <ref_mols>
x0266_1,x0334_1,x0473_1

> <fragmensteinOld_score>
2.600538

> <LE_score>
-0.467179

> <comRMSD_score>
0.362692

> <fragmensteinNew_score>
110.163653

> <meanSuCosW_score>
0.335212

> <maxSuCosW_score>
0.565341

> <minSuCosW_score>
0.164084

> <SA_score>
5.907802

> <aLogP_score>
3.19784

> <hbondD_score>
1

> <hbondA_score>
5

> <polarSurfaceArea_score>
64.27

> <rotableBonds_score>
6

> <original_name>
x0473-1-0b1-x0334-1-0b0-x0334-1-0b2-x0334-1-0b3-x0266-1-0b1-x0266-1-0b2

> <SC_score>
3.238433

> <original SMILES>
[H]c1c(C([H])([H])[H])nc(N(c2c([H])c([H])c(N([H])[H])c([H])c2[H])C([H])([H])OC([H])([H])C([H])([H])C([H])([H])[H])nc1C([H])([H])[H]

> <energyPoseVsEnsemble_score>
0.999291

> <xcos_score>
23.791463

> <plipMedianPreser_score>
0.666667

> <plipGlobalPreser_score>
0.444444

> <plipGlobalPreserOverMw_score>
0.155303

$$$$
2760_x0505_1_0b0_0b3-x0712_1_0b0_0b1_0b2_0b3
  MOLSOFT 03252117243D

 13 13  0  0  1  0  0  0  0  0999 V2000
   21.7230   24.4060   22.1670 N   0  0  0
   20.7150   23.6140   22.7540 C   0  0  0
   19.3410   23.2760   22.2600 C   0  0  0
   20.8720   22.9290   24.0870 C   0  0  0
   18.8860   23.8640   20.8970 C   0  0  0
   21.9750   22.8680   25.0740 C   0  0  0
   19.6430   22.3000   24.2420 N   0  0  0
   18.6740   22.4880   23.1100 N   0  0  0
   19.2800   21.5130   25.4210 C   0  0  2
   20.4380   20.6660   25.6900 N   0  0  0
   17.9710   20.7160   25.2610 C   0  0  0
   17.4550   20.3070   26.5420 O   0  0  0
   16.0880   20.5760   26.7870 C   0  0  0
  1  2  1
  2  3  1
  2  4  2
  3  5  1
  4  6  1
  4  7  1
  3  8  2
  7  8  1
  9  7  1
  9 10  1  6
  9 11  1
 11 12  1
 12 13  1
M  END
> <ref_pdb>
x0505

> <ref_mols>
x0505_1,x0712_1

> <fragmensteinOld_score>
2.252557

> <LE_score>
-0.403944

> <comRMSD_score>
0.70281

> <fragmensteinNew_score>
70.907126

> <meanSuCosW_score>
0.205242

> <maxSuCosW_score>
0.243523

> <minSuCosW_score>
0.166962

> <SA_score>
6.945477

> <aLogP_score>
0.18584

> <hbondD_score>
2

> <hbondA_score>
4

> <polarSurfaceArea_score>
79.09

> <rotableBonds_score>
3

> <original_name>
x0505-1-0b0-x0505-1-0b3-x0712-1-0b0-x0712-1-0b1-x0712-1-0b2-x0712-1-0b3

> <SC_score>
2.849534

> <original SMILES>
[H]N([H])c1c(C([H])([H])[H])nn([C@]([H])(N([H])[H])C([H])([H])OC([H])([H])[H])c1C([H])([H])[H]

> <energyPoseVsEnsemble_score>
1.389111

> <xcos_score>
9.64656

> <plipMedianPreser_score>
0.666667

> <plipGlobalPreser_score>
0.444444

> <plipGlobalPreserOverMw_score>
0.241372

$$$$
2777_x0505_1_0b1_0b2-x0161_1_0b1_0b2-x0712_1_0b3
  MOLSOFT 03252117243D

 16 16  0  0  0  0  0  0  0  0999 V2000
   23.0720   23.8510   21.7700 C   0  0  0
   24.1590   24.6200   21.2860 C   0  0  0
   25.0830   25.1810   20.8310 N   0  0  0
   23.1910   22.4380   21.8030 O   0  0  0
   21.9250   24.5780   22.1450 O   0  0  0
   20.6990   23.8390   22.2580 C   0  0  0
   20.5590   22.8670   23.4490 C   0  0  0
   19.6890   24.0150   21.3120 C   0  0  0
   21.5410   22.6840   24.3810 O   0  0  0
   19.1940   22.0900   23.5170 C   0  0  0
   18.3710   23.2500   21.3960 C   0  0  0
   18.1090   22.3390   22.4180 C   0  0  0
   19.0970   21.2230   24.5870 O   0  0  0
   17.8390   20.6890   24.9930 C   0  0  0
   17.6100   20.8080   26.4050 O   0  0  0
   16.3670   20.2580   26.8140 C   0  0  0
  1  2  1
  2  3  3
  1  4  2
  1  5  1
  5  6  1
  6  7  2
  6  8  1
  7  9  1
  7 10  1
  8 11  2
 10 12  2
 11 12  1
 10 13  1
 13 14  1
 14 15  1
 15 16  1
M  END
> <ref_pdb>
x0161

> <ref_mols>
x0161_1,x0505_1,x0712_1

> <fragmensteinOld_score>
2.616839

> <LE_score>
-0.334988

> <comRMSD_score>
0.488802

> <fragmensteinNew_score>
85.548065

> <meanSuCosW_score>
0.209726

> <maxSuCosW_score>
0.223512

> <minSuCosW_score>
0.195596

> <SA_score>
6.709762

> <aLogP_score>
0.80388

> <hbondD_score>
1

> <hbondA_score>
6

> <polarSurfaceArea_score>
88.78

> <rotableBonds_score>
4

> <original_name>
x0505-1-0b1-x0505-1-0b2-x0161-1-0b1-x0161-1-0b2-x0712-1-0b3

> <SC_score>
2.289858

> <original SMILES>
[H]Oc1c(OC(=O)C#N)c([H])c([H])c([H])c1OC([H])([H])OC([H])([H])[H]

> <energyPoseVsEnsemble_score>
1.021668

> <xcos_score>
7.950961

> <plipMedianPreser_score>
0.916667

> <plipGlobalPreser_score>
0.555556

> <plipGlobalPreserOverMw_score>
0.249074

$$$$
2831_x0505_1_0b1-x0712_1_0b0_0b1_0b3_0b4_0b5_0b6
  MOLSOFT 03252117243D

 16 16  0  0  0  0  0  0  0  0999 V2000
   23.3170   24.1220   21.9890 C   0  0  0
   24.3360   24.8800   21.2420 C   0  0  0
   23.1920   22.8940   21.9360 O   0  0  0
   22.5610   25.0410   22.7110 O   0  0  0
   22.1370   24.6370   23.9820 C   0  0  0
   20.9880   23.8390   24.1280 C   0  0  0
   22.8600   25.0370   25.1090 C   0  0  0
   20.5370   23.4210   25.5150 C   0  0  0
   22.3660   24.5810   26.5180 C   0  0  0
   21.2150   23.7920   26.6110 C   0  0  0
   19.3960   22.6290   25.7550 O   0  0  0
   18.6790   22.1010   24.6800 C   0  0  0
   17.4800   21.3300   25.2230 C   0  0  0
   18.9290   22.2000   23.4890 O   0  0  0
   17.4630   21.1240   26.6290 O   0  0  0
   16.2360   20.5770   27.0900 C   0  0  0
  1  2  1
  1  3  2
  1  4  1
  4  5  1
  5  6  2
  5  7  1
  6  8  1
  7  9  2
  8 10  2
  9 10  1
  8 11  1
 11 12  1
 12 13  1
 12 14  2
 13 15  1
 15 16  1
M  END
> <ref_pdb>
x0505

> <ref_mols>
x0505_1,x0712_1

> <fragmensteinOld_score>
2.466889

> <LE_score>
-0.312579

> <comRMSD_score>
0.267142

> <fragmensteinNew_score>
85.127154

> <meanSuCosW_score>
0.296057

> <maxSuCosW_score>
0.396127

> <minSuCosW_score>
0.195987

> <SA_score>
6.978586

> <aLogP_score>
1.1637

> <hbondD_score>
0

> <hbondA_score>
5

> <polarSurfaceArea_score>
61.83

> <rotableBonds_score>
4

> <original_name>
x0505-1-0b1-x0712-1-0b0-x0712-1-0b1-x0712-1-0b3-x0712-1-0b4-x0712-1-0b5-x0712-1-0b6

> <SC_score>
1.808267

> <original SMILES>
[H]c1c([H])c(OC(=O)C([H])([H])[H])c([H])c(OC(=O)C([H])([H])OC([H])([H])[H])c1[H]

> <energyPoseVsEnsemble_score>
0.531125

> <xcos_score>
14.071876

> <plipMedianPreser_score>
0.

> <plipGlobalPreser_score>
0.333333

> <plipGlobalPreserOverMw_score>
0.148764

$$$$
2837_x0505_1_0b2-x0412_1_0b0_0b2-x0315_1_0b2_0b4
  MOLSOFT 03252117243D

 18 18  0  0  0  0  0  0  0  0999 V2000
   17.1040   20.5860   25.4460 N   0  0  0
   16.9020   19.9100   26.7230 C   0  0  0
   18.1680   19.1260   27.1340 C   0  0  0
   16.0090   20.4500   24.4830 C   0  0  0
   16.3870   20.8190   27.8440 C   0  0  0
   16.6100   20.4590   23.0340 C   0  0  0
   16.3960   21.7380   22.4140 O   0  0  0
   17.5520   22.5430   22.2470 C   0  0  0
   17.9270   23.4660   21.2800 C   0  0  0
   18.6940   22.4380   23.3230 C   0  0  0
   19.2170   24.2440   21.2570 C   0  0  0
   19.8730   23.1080   23.3540 C   0  0  0
   20.2140   24.0230   22.3660 C   0  0  0
   21.4080   24.7980   22.2590 O   0  0  0
   22.6750   24.1950   22.5120 C   0  0  0
   23.7380   25.2940   22.5290 C   0  0  0
   24.8070   25.0520   21.4690 C   0  0  0
   25.8210   24.8410   20.5490 N   0  0  0
  1  2  1
  2  3  1
  1  4  1
  2  5  1
  4  6  1
  6  7  1
  7  8  1
  8  9  2
  8 10  1
  9 11  1
 10 12  2
 11 13  2
 12 13  1
 13 14  1
 14 15  1
 15 16  1
 16 17  1
 17 18  3
M  END
> <ref_pdb>
x0315

> <ref_mols>
x0315_1,x0412_1,x0505_1

> <fragmensteinOld_score>
2.627104

> <LE_score>
-0.3678

> <comRMSD_score>
0.351183

> <fragmensteinNew_score>
95.240014

> <meanSuCosW_score>
0.202867

> <maxSuCosW_score>
0.221077

> <minSuCosW_score>
0.169003

> <SA_score>
5.511993

> <aLogP_score>
2.35588

> <hbondD_score>
1

> <hbondA_score>
4

> <polarSurfaceArea_score>
54.28

> <rotableBonds_score>
8

> <original_name>
x0505-1-0b2-x0412-1-0b0-x0412-1-0b2-x0315-1-0b2-x0315-1-0b4

> <SC_score>
2.311804

> <original SMILES>
[H]c1c([H])c(OC([H])([H])C([H])([H])N([H])C([H])(C([H])([H])[H])C([H])([H])[H])c([H])c([H])c1OC([H])([H])C([H])([H])C#N

> <energyPoseVsEnsemble_score>
3.665611

> <xcos_score>
13.256898

> <plipMedianPreser_score>
0.833333

> <plipGlobalPreser_score>
0.777778

> <plipGlobalPreserOverMw_score>
0.313427

$$$$
3214_x0637_1_0b0-x0712_1_0b0_0b1_0b2_0b4_0b6
  MOLSOFT 03252117243D

 18 19  0  0  0  0  0  0  0  0999 V2000
   16.6970   22.4700   20.4650 O   0  0  0
   17.6320   22.6770   21.4320 C   0  0  0
   17.5030   21.9490   22.6100 C   0  0  0
   18.6640   23.5770   21.2500 C   0  0  0
   19.5840   23.7440   22.2670 C   0  0  0
   18.4140   22.0980   23.6650 C   0  0  0
   19.4490   23.0150   23.4470 C   0  0  0
   18.3100   21.3860   24.8620 N   0  0  0
   17.0520   20.7670   25.2290 C   0  0  0
   19.1610   21.7710   25.9780 C   0  0  0
   20.4690   21.8460   25.4220 N   0  0  0
   21.2230   23.0130   25.3640 C   0  0  0
   21.6870   23.5740   24.1590 C   0  0  0
   21.5570   23.6660   26.5500 C   0  0  0
   22.4580   24.7430   24.1360 C   0  0  0
   22.3290   24.8260   26.5330 C   0  0  0
   22.9130   25.2860   22.9290 N   0  0  0
   22.7730   25.3590   25.3350 C   0  0  0
  1  2  1
  2  3  2
  2  4  1
  4  5  2
  3  6  1
  5  7  1
  6  7  2
  6  8  1
  8  9  1
  8 10  1
 10 11  1
 11 12  1
 12 13  2
 12 14  1
 13 15  1
 14 16  2
 15 17  1
 15 18  2
 16 18  1
M  END
> <ref_pdb>
x0637

> <ref_mols>
x0637_1,x0712_1

> <fragmensteinOld_score>
2.478492

> <LE_score>
-0.435508

> <comRMSD_score>
0.44632

> <fragmensteinNew_score>
95.36258

> <meanSuCosW_score>
0.270972

> <maxSuCosW_score>
0.275133

> <minSuCosW_score>
0.266811

> <SA_score>
4.778989

> <aLogP_score>
2.4802

> <hbondD_score>
3

> <hbondA_score>
4

> <polarSurfaceArea_score>
61.52

> <rotableBonds_score>
4

> <original_name>
x0637-1-0b0-x0712-1-0b0-x0712-1-0b1-x0712-1-0b2-x0712-1-0b4-x0712-1-0b6

> <SC_score>
3.23403

> <original SMILES>
[H]Oc1c([H])c([H])c([H])c(N(C([H])([H])[H])C([H])([H])N([H])c2c([H])c([H])c([H])c(N([H])[H])c2[H])c1[H]

> <energyPoseVsEnsemble_score>
21.289804

> <xcos_score>
13.895674

> <plipMedianPreser_score>
1.

> <plipGlobalPreser_score>
0.428571

> <plipGlobalPreserOverMw_score>
0.176267

$$$$
3334_x0712_1_0b0_0b1_0b2_0b3_0b4_0b5_0b6-x0473_1_0
  MOLSOFT 03252117243D

 21 22  0  0  0  0  0  0  0  0999 V2000
   23.3180   25.1180   23.0730 N   0  0  0
   23.7990   24.4190   22.0840 C   0  0  0
   24.5800   25.2140   21.2410 C   0  0  0
   22.5820   24.5700   24.1370 C   0  0  0
   23.6080   23.2190   21.8920 O   0  0  0
   21.3560   23.6670   23.9530 C   0  0  0
   23.0420   24.8890   25.4040 C   0  0  0
   20.6860   23.1460   25.0430 C   0  0  0
   22.4200   24.4030   26.5570 C   0  0  0
   21.1870   23.4900   26.4350 C   0  0  0
   19.5770   22.3170   24.9040 N   0  0  0
   19.0180   22.1350   23.5640 C   0  0  0
   17.7860   21.2430   23.5710 C   0  0  0
   17.2080   20.6850   24.6830 C   0  0  0
   17.1580   20.9670   22.1890 C   0  0  0
   17.5390   20.7410   26.1780 C   0  0  0
   17.0630   22.0490   21.1530 C   0  0  0
   17.9650   23.1290   20.6060 C   0  0  0
   15.8650   22.1730   20.4440 O   0  0  0
   17.1310   23.8000   19.5650 C   0  0  0
   15.9330   23.2150   19.5120 C   0  0  0
  1  2  1
  2  3  1
  1  4  1
  2  5  2
  4  6  2
  4  7  1
  6  8  1
  7  9  2
  8 10  2
  9 10  1
  8 11  1
 11 12  1
 12 13  1
 13 14  2  3
 13 15  1
 14 16  1
 15 17  1
 17 18  2
 17 19  1
 18 20  1
 19 21  1
 20 21  2
M  END
> <ref_pdb>
x0473

> <ref_mols>
x0473_1,x0712_1

> <fragmensteinOld_score>
2.374579

> <LE_score>
-0.59418

> <comRMSD_score>
0.670133

> <fragmensteinNew_score>
110.651535

> <meanSuCosW_score>
0.270862

> <maxSuCosW_score>
0.329637

> <minSuCosW_score>
0.212087

> <SA_score>
6.29174

> <aLogP_score>
3.8389

> <hbondD_score>
2

> <hbondA_score>
3

> <polarSurfaceArea_score>
54.27

> <rotableBonds_score>
6

> <original_name>
x0712-1-0b0-x0712-1-0b1-x0712-1-0b2-x0712-1-0b3-x0712-1-0b4-x0712-1-0b5-x0712-1-0b6-x0473-1-0b4

> <SC_score>
3.176003

> <original SMILES>
[H]C(=C(C([H])([H])c1oc([H])c([H])c1[H])C([H])([H])N([H])c1c([H])c([H])c([H])c(N([H])C(=O)C([H])([H])[H])c1[H])C([H])([H])[H]

> <energyPoseVsEnsemble_score>
1.104761

> <xcos_score>
8.803748

> <plipMedianPreser_score>
0.75

> <plipGlobalPreser_score>
0.428571

> <plipGlobalPreserOverMw_score>
0.150824

$$$$
3489_x0712_1_0b0_0b2_0b5_0b6-x0315_1_0b0_0b2
  MOLSOFT 03252117243D

 16 16  0  0  0  0  0  0  0  0999 V2000
   19.3270   22.4120   25.7090 N   0  0  0
   20.3760   23.3750   25.6370 C   0  0  0
   20.7880   24.0380   24.3290 C   0  0  0
   18.5450   22.0720   24.6000 C   0  0  0
   21.1240   23.7710   26.8790 C   0  0  0
   17.5180   21.1490   24.8140 C   0  0  0
   21.7870   24.9660   24.2170 C   0  0  0
   22.2460   24.8120   26.7360 C   0  0  0
   22.5030   25.3610   25.3250 C   0  0  0
   22.1750   25.5780   23.0700 O   0  0  0
   23.4980   25.3150   22.6680 C   0  0  0
   23.6300   24.0830   21.7740 C   0  0  0
   24.4830   24.3040   20.5510 C   0  0  0
   23.0880   22.9920   22.0190 O   0  0  0
   25.7750   24.8720   21.0030 C   0  0  0
   25.7080   24.9450   22.2230 O   0  0  0
  1  2  1
  2  3  2
  1  4  1
  2  5  1
  4  6  1
  3  7  1
  5  8  2
  7  9  2
  8  9  1
  7 10  1
 10 11  1
 11 12  1
 12 13  1
 12 14  2
 13 15  1
 15 16  1
M  END
> <ref_pdb>
x0315

> <ref_mols>
x0315_1,x0712_1

> <fragmensteinOld_score>
1.8897

> <LE_score>
-0.566495

> <comRMSD_score>
0.502483

> <fragmensteinNew_score>
85.34392

> <meanSuCosW_score>
0.223956

> <maxSuCosW_score>
0.3229

> <minSuCosW_score>
0.125012

> <SA_score>
2.729002

> <aLogP_score>
1.4487

> <hbondD_score>
2

> <hbondA_score>
4

> <polarSurfaceArea_score>
58.56

> <rotableBonds_score>
7

> <original_name>
x0712-1-0b0-x0712-1-0b2-x0712-1-0b5-x0712-1-0b6-x0315-1-0b0-x0315-1-0b2

> <SC_score>
3.073434

> <original SMILES>
[H]OC([H])([H])C([H])([H])C(=O)C([H])([H])Oc1c([H])c([H])c([H])c(N([H])C([H])([H])C([H])([H])[H])c1[H]

> <energyPoseVsEnsemble_score>
3.691152

> <xcos_score>
11.000291

> <plipMedianPreser_score>
0.916667

> <plipGlobalPreser_score>
0.875

> <plipGlobalPreserOverMw_score>
0.392164

$$$$
750_x0637_1_-x0161_1_-x0315_1
  MOLSOFT 03252117183D

 20 21  0  0  0  0  0  0  0  0999 V2000
   22.3400   22.9680   28.2680 N   0  0  0
   22.0140   23.1230   26.9770 C   0  0  0
   22.8220   23.8510   25.9960 N   0  0  0
   20.5090   22.4340   26.2900 S   0  0  0
   22.1670   23.8220   24.6870 N   0  0  0
   20.9240   23.0930   24.7510 C   0  0  0
   19.9470   22.9150   23.5150 C   0  0  0
   20.1590   23.6600   22.2160 C   0  0  0
   18.7540   22.0010   23.6180 C   0  0  0
   21.3560   24.4930   22.0840 N   0  0  0
   18.6110   21.2830   24.8560 O   0  0  0
   17.7910   21.8110   22.5990 C   0  0  0
   19.2600   23.5280   21.2210 C   0  0  0
   22.6630   23.9730   22.0110 C   0  0  0
   18.0250   22.5670   21.4280 C   0  0  0
   17.0990   22.4780   20.3190 O   0  0  0
   23.7370   24.9850   22.3290 C   0  0  0
   22.9810   22.8090   21.7140 O   0  0  0
   25.0640   24.5380   22.0320 O   0  0  0
   25.3590   24.7640   20.6680 C   0  0  0
  1  2  1
  2  3  2
  2  4  1
  3  5  1
  4  6  1
  5  6  2
  6  7  1
  7  8  2
  7  9  1
  8 10  1
  9 11  1
  9 12  2
  8 13  1
 10 14  1
 12 15  1
 13 15  2
 15 16  1
 14 17  1
 14 18  2
 17 19  1
 19 20  1
M  END
> <ref_pdb>
x0161

> <ref_mols>
x0161_1,x0315_1,x0637_1

> <fragmensteinOld_score>
2.860481

> <LE_score>
-0.477236

> <comRMSD_score>
0.769425

> <fragmensteinNew_score>
105.967063

> <meanSuCosW_score>
0.260079

> <maxSuCosW_score>
0.337245

> <minSuCosW_score>
0.195763

> <SA_score>
6.850714

> <aLogP_score>
0.7834

> <hbondD_score>
4

> <hbondA_score>
7

> <polarSurfaceArea_score>
130.59

> <rotableBonds_score>
4

> <original_name>
x0637-1-x0161-1-x0315-1

> <SC_score>
3.392117

> <original SMILES>
[H]Oc1c([H])c(O[H])c(-c2nnc(N([H])[H])s2)c(N([H])C(=O)C([H])([H])OC([H])([H])[H])c1[H]

> <energyPoseVsEnsemble_score>
0.478163

> <xcos_score>
17.607298

> <plipMedianPreser_score>
0.791667

> <plipGlobalPreser_score>
0.857143

> <plipGlobalPreserOverMw_score>
0.289519

$$$$
762_x0637_1_-x0315_1
  MOLSOFT 03252117183D

 19 20  0  0  0  0  0  0  0  0999 V2000
   22.0710   23.1310   28.3310 N   0  0  0
   21.6940   23.2310   27.0480 C   0  0  0
   22.5270   23.7530   25.9840 N   0  0  0
   20.1490   22.7480   26.4840 S   0  0  0
   21.8570   23.7190   24.7930 N   0  0  0
   20.6360   23.2330   24.8980 C   0  0  0
   19.7060   23.1140   23.7300 C   0  0  0
   20.0180   23.8380   22.4370 C   0  0  0
   18.4880   22.3020   23.8370 C   0  0  0
   21.2550   24.6030   22.3650 N   0  0  0
   17.5830   22.1880   22.7510 C   0  0  0
   19.1430   23.7350   21.4190 C   0  0  0
   22.5770   24.0860   22.2710 C   0  0  0
   17.9090   22.8910   21.5860 C   0  0  0
   17.0330   22.8310   20.4420 O   0  0  0
   23.7170   25.0710   22.5870 C   0  0  0
   22.9030   22.7500   21.8820 O   0  0  0
   24.8690   24.7260   22.2410 O   0  0  0
   25.0930   24.8250   20.8440 C   0  0  0
  1  2  1
  2  3  2
  2  4  1
  3  5  1
  4  6  1
  5  6  2
  6  7  1
  7  8  2
  7  9  1
  8 10  1
  9 11  2
  8 12  1
 10 13  1
 11 14  1
 12 14  2
 14 15  1
 13 16  1
 13 17  2
 16 18  1
 18 19  1
M  END
> <ref_pdb>
x0315

> <ref_mols>
x0315_1,x0637_1

> <fragmensteinOld_score>
2.042339

> <LE_score>
-0.538155

> <comRMSD_score>
0.287329

> <fragmensteinNew_score>
99.941951

> <meanSuCosW_score>
0.312742

> <maxSuCosW_score>
0.364594

> <minSuCosW_score>
0.260889

> <SA_score>
6.889908

> <aLogP_score>
1.0778

> <hbondD_score>
3

> <hbondA_score>
6

> <polarSurfaceArea_score>
110.36

> <rotableBonds_score>
4

> <original_name>
x0637-1-x0315-1

> <SC_score>
3.151585

> <original SMILES>
[H]Oc1c([H])c([H])c(-c2nnc(N([H])[H])s2)c(N([H])C(=O)C([H])([H])OC([H])([H])[H])c1[H]

> <energyPoseVsEnsemble_score>
0.215458

> <xcos_score>
19.393623

> <plipMedianPreser_score>
0.833333

> <plipGlobalPreser_score>
0.857143

> <plipGlobalPreserOverMw_score>
0.306054

$$$$
834_x0712_1_-x0324_1
  MOLSOFT 03252117183D

 18 18  0  0  1  0  0  0  0  0999 V2000
   24.1820   25.2020   20.9950 C   0  0  1
   23.2970   24.3890   21.9270 C   0  0  0
   22.5870   25.0550   22.9000 N   0  0  0
   25.5770   24.9590   21.3570 C   0  0  0
   24.0570   24.8500   19.9020 N   0  0  0
   23.2360   23.1650   21.7890 O   0  0  0
   22.2200   24.7030   24.1750 C   0  0  0
   21.0930   23.7620   24.3310 C   0  0  0
   22.8080   25.1480   25.2980 C   0  0  0
   20.5560   23.2730   25.4620 C   0  0  0
   22.3100   24.6820   26.6410 C   0  0  0
   19.5070   22.3940   25.6100 N   0  0  0
   21.1430   23.7140   26.6850 C   0  0  0
   18.6850   21.9550   24.5010 C   0  0  0
   17.6450   20.9540   25.0220 C   0  0  0
   18.7650   22.2990   23.3300 O   0  0  0
   17.5560   21.1250   26.4330 O   0  0  0
   16.3060   20.7140   26.9740 C   0  0  0
  1  2  1
  2  3  1
  1  4  1  1
  1  5  1
  2  6  2
  3  7  1
  7  8  2
  7  9  1
  8 10  1
  9 11  2
 10 12  1
 10 13  2
 11 13  1
 12 14  1
 14 15  1
 14 16  2
 15 17  1
 17 18  1
M  END
> <ref_pdb>
x0324

> <ref_mols>
x0324_1,x0712_1

> <fragmensteinOld_score>
2.28397

> <LE_score>
-0.491552

> <comRMSD_score>
0.453559

> <fragmensteinNew_score>
95.321013

> <meanSuCosW_score>
0.378942

> <maxSuCosW_score>
0.478904

> <minSuCosW_score>
0.278981

> <SA_score>
6.627488

> <aLogP_score>
0.5572

> <hbondD_score>
3

> <hbondA_score>
4

> <polarSurfaceArea_score>
93.45

> <rotableBonds_score>
5

> <original_name>
x0712-1-x0324-1

> <SC_score>
2.99243

> <original SMILES>
[H]c1c([H])c(N([H])C(=O)C([H])([H])OC([H])([H])[H])c([H])c(N([H])C(=O)[C@]([H])(N([H])[H])C([H])([H])[H])c1[H]

> <energyPoseVsEnsemble_score>
1.449211

> <xcos_score>
15.699343

> <plipMedianPreser_score>
0.

> <plipGlobalPreser_score>
0.166667

> <plipGlobalPreserOverMw_score>
0.066367

$$$$
