ver_1.2
     RDKit          2D

  0  0  0  0  0  0  0  0  0  0999 V2000
M  END
>  <submitter_name>  (1) 
Harold Grosjean

>  <submitter_email>  (1) 
harold.grosjean@linacre.ox.ac.uk

>  <submitter_institution>  (1) 
University of Oxford - Diamond Light Source

>  <method>  (1) 
Docking_SuCos_mmgbsa_noprescreen

>  <ref_url>  (1) 
https://github.com/haroldgrosjean

>  <original SMILES>  (1) 
The SMILES of the compound

>  <ref_pdb>  (1) 
A pdb included in fragalysis or uploaded.

>  <ref_mols>  (1) 
The inspirational fragments usded to propose the compound

>  <generation_date>  (1) 
2022-02-25

>  <original>  (1) 
The inspirational fragments usded to propose the compound

>  <CNNaffinity>  (1) 
Gnina docking score

>  <SuCos Score>  (1) 
Shape and colour overlap score

>  <Polar Hotspot>  (1) 
Polar Hotspot

>  <Apolar Hotspot>  (1) 
Apolar Hotspot

>  <dH av>  (1) 
Average enthalpic term calculated via MMGBSA (in Kcal/mol)

>  <-TdS av>  (1) 
Average entropic term calculated via interaction entroy (IE) method (in Kcal/mol)

>  <dG av>  (1) 
Average Free energy term calculated by dG av = dH av - TdS av (in Kcal/mol)

>  <Price>  (1) 
Price from Enamine quote (in Euros)

>  <Lead time>  (1) 
Expected lead time from Enamine quote (in weeks)

$$$$
F710-Su-366
     RDKit          3D

 25 26  0  0  0  0  0  0  0  0999 V2000
  -15.6570   16.3980   26.2060 N   0  0  0  0  0  0  0  0  0  0  0  0
  -15.8300   15.3320   27.0520 C   0  0  0  0  0  0  0  0  0  0  0  0
  -15.2450   15.2930   28.1540 O   0  0  0  0  0  0  0  0  0  0  0  0
  -16.7480   14.3780   26.6460 N   0  0  0  0  0  0  0  0  0  0  0  0
  -17.1210   13.2670   27.5650 C   0  0  0  0  0  0  0  0  0  0  0  0
  -18.5770   13.2550   27.9160 C   0  0  0  0  0  0  0  0  0  0  0  0
  -19.5220   13.3520   26.7190 N   0  0  0  0  0  0  0  0  0  0  0  0
  -18.8670   13.4800   25.3570 C   0  0  0  0  0  0  0  0  0  0  0  0
  -17.5450   14.4200   25.3670 C   0  0  0  0  0  0  0  0  0  0  0  0
  -20.8610   12.9130   26.8130 C   0  0  0  0  0  0  0  0  0  0  0  0
  -21.5530   12.1660   25.7620 C   0  0  0  0  0  0  0  0  0  0  0  0
  -22.9070   11.9570   25.8340 C   0  0  0  0  0  0  0  0  0  0  0  0
  -23.6280   12.6170   26.8860 C   0  0  0  0  0  0  0  0  0  0  0  0
  -24.9800   12.5970   26.8160 F   0  0  0  0  0  0  0  0  0  0  0  0
  -22.9980   13.2760   27.9190 C   0  0  0  0  0  0  0  0  0  0  0  0
  -21.6470   13.3150   27.9000 C   0  0  0  0  0  0  0  0  0  0  0  0
  -14.7980   17.5120   26.4800 C   0  0  0  0  0  0  0  0  0  0  0  0
  -15.5500   18.8460   26.9750 C   0  0  0  0  0  0  0  0  0  0  0  0
  -15.2560   18.7220   29.5930 C   0  0  0  0  0  0  0  0  0  0  0  0
  -16.1930   18.7480   28.3760 C   0  0  0  0  0  0  0  0  0  0  0  0
  -16.6300   14.0730   24.1280 C   0  0  0  0  0  0  0  0  0  0  0  0
  -15.7900   12.7340   24.1520 C   0  0  0  0  0  0  0  0  0  0  0  0
  -15.6150   12.0920   22.7070 C   0  0  0  0  0  0  0  0  0  0  0  0
  -16.8380   11.5220   22.0720 C   0  0  0  0  0  0  0  0  0  0  0  0
  -17.9130   11.4130   22.5890 O   0  0  0  0  0  0  0  0  0  0  0  0
  2  1  1  0
  3  2  2  0
  4  2  1  0
  5  4  1  0
  6  5  1  0
  7  6  1  0
  8  7  1  0
  9  8  1  0
  9  4  1  0
 10  7  1  0
 11 10  2  0
 12 11  1  0
 13 12  2  0
 14 13  1  0
 15 13  1  0
 16 15  2  0
 16 10  1  0
 17  1  1  0
 18 17  1  0
 20 18  1  0
 20 19  1  0
 21  9  1  0
 22 21  1  0
 23 22  1  0
 24 23  1  0
 25 24  2  0
M  END
>  <original SMILES>  (2) 
CCCCNC(=O)N1CCN(c2ccc(F)cc2)CC1CCCC=O

>  <ref_pdb>  (2) 
F710-Su-366_bound.pdb

>  <ref_mols>  (2) 
x20552_0A

>  <CNNaffinity>  (2) 
6.330119133

>  <SuCos Score>  (2) 
0.6431823839308141

>  <Polar Hotspot>  (2) 
54.99

>  <Apolar Hotspot>  (2) 
230.64

>  <dH av>  (2) 
-45.00945437007861

>  <-TdS av>  (2) 
6.657769298828601

>  <dG av>  (2) 
-38.35168507125

>  <Price>  (2) 
3250

>  <Lead time>  (2) 
12

$$$$
F740-Si-380
     RDKit          3D

 32 37  0  0  0  0  0  0  0  0999 V2000
  -18.6320   15.2240   25.7350 C   0  0  0  0  0  0  0  0  0  0  0  0
  -18.6020   14.4140   27.0810 C   0  0  0  0  0  0  0  0  0  0  0  0
  -18.8820   12.8620   27.0200 C   0  0  0  0  0  0  0  0  0  0  0  0
  -17.5380   12.0620   26.8930 C   0  0  0  0  0  0  0  0  0  0  0  0
  -17.3550   12.0810   25.4080 C   0  0  0  0  0  0  0  0  0  0  0  0
  -18.5680   12.8560   24.7520 C   0  0  0  0  0  0  0  0  0  0  0  0
  -18.2360   14.3670   24.5110 C   0  0  0  0  0  0  0  0  0  0  0  0
  -19.6000   12.6160   25.8000 N   0  0  0  0  0  0  0  0  0  0  0  0
  -20.9680   12.6430   25.5030 C   0  0  0  0  0  0  0  0  0  0  0  0
  -21.3070   12.4910   24.3130 O   0  0  0  0  0  0  0  0  0  0  0  0
  -22.1530   12.7110   26.5430 C   0  0  0  0  0  0  0  0  0  0  0  0
  -23.5120   12.2870   26.1000 C   0  0  0  0  0  0  0  0  0  0  0  0
  -24.5880   12.1050   26.9880 C   0  0  0  0  0  0  0  0  0  0  0  0
  -24.3270   12.4270   28.3500 C   0  0  0  0  0  0  0  0  0  0  0  0
  -23.0080   12.7720   28.8140 C   0  0  0  0  0  0  0  0  0  0  0  0
  -21.9410   12.9440   27.9160 C   0  0  0  0  0  0  0  0  0  0  0  0
  -22.7750   13.0240   30.1870 O   0  0  0  0  0  0  0  0  0  0  0  0
  -23.7500   12.5130   31.0460 C   0  0  0  0  0  0  0  0  0  0  0  0
  -25.1560   12.8580   30.5280 C   0  0  0  0  0  0  0  0  0  0  0  0
  -25.3770   12.4550   29.1860 O   0  0  0  0  0  0  0  0  0  0  0  0
  -18.9760   17.6560   27.5840 O   0  0  0  0  0  0  0  0  0  0  0  0
  -18.0870   17.6260   26.7320 C   0  0  0  0  0  0  0  0  0  0  0  0
  -17.8610   16.5310   25.8050 N   0  0  0  0  0  0  0  0  0  0  0  0
  -17.2340   18.8310   26.4010 C   0  0  0  0  0  0  0  0  0  0  0  0
  -17.7750   20.0890   26.7850 C   0  0  0  0  0  0  0  0  0  0  0  0
  -16.9960   21.2950   26.6960 C   0  0  0  0  0  0  0  0  0  0  0  0
  -15.6460   21.1830   26.2530 C   0  0  0  0  0  0  0  0  0  0  0  0
  -15.1250   19.9440   25.8900 C   0  0  0  0  0  0  0  0  0  0  0  0
  -15.9050   18.7880   25.9180 C   0  0  0  0  0  0  0  0  0  0  0  0
  -13.8130   20.0620   25.5960 O   0  0  0  0  0  0  0  0  0  0  0  0
  -13.4480   21.4370   25.8160 C   0  0  0  0  0  0  0  0  0  0  0  0
  -14.6650   22.1700   26.2010 O   0  0  0  0  0  0  0  0  0  0  0  0
  2  1  1  0
  3  2  1  0
  4  3  1  0
  5  4  1  0
  6  5  1  0
  7  6  1  0
  7  1  1  0
  8  6  1  0
  8  3  1  0
  9  8  1  0
 10  9  2  0
 11  9  1  0
 12 11  2  0
 13 12  1  0
 14 13  2  0
 15 14  1  0
 16 11  1  0
 16 15  2  0
 17 15  1  0
 18 17  1  0
 19 18  1  0
 20 19  1  0
 20 14  1  0
 22 21  2  0
 23  1  1  0
 23 22  1  0
 24 22  1  0
 25 24  2  0
 26 25  1  0
 27 26  2  0
 28 27  1  0
 29 24  1  0
 29 28  2  0
 30 28  1  0
 31 30  1  0
 32 31  1  0
 32 27  1  0
M  END
>  <original SMILES>  (3) 
O=C(N[C@@H]1C[C@@H]2CC[C@H](C1)N2C(=O)c1ccc2c(c1)OCCO2)c1ccc2c(c1)OCO2

>  <ref_pdb>  (3) 
F740-Si-380_bound.pdb

>  <ref_mols>  (3) 
x20906_0A

>  <CNNaffinity>  (3) 
6.2929697037

>  <SuCos Score>  (3) 
0.6609487705850462

>  <Polar Hotspot>  (3) 
37.88

>  <Apolar Hotspot>  (3) 
217.5

>  <dH av>  (3) 
-44.48794277889758

>  <-TdS av>  (3) 
7.534408449630703

>  <dG av>  (3) 
-36.95353432926688

>  <Price>  (3) 
490

>  <Lead time>  (3) 
6

$$$$
F710-Si-91
     RDKit          3D

 34 37  0  0  0  0  0  0  0  0999 V2000
  -14.6910   18.4190   27.2720 C   0  0  0  0  0  0  0  0  0  0  0  0
  -15.7660   17.4420   26.6770 C   0  0  0  0  0  0  0  0  0  0  0  0
  -15.3010   15.9050   28.4620 O   0  0  0  0  0  0  0  0  0  0  0  0
  -15.9500   16.1110   27.4590 C   0  0  0  0  0  0  0  0  0  0  0  0
  -16.8340   15.0990   26.9080 N   0  0  0  0  0  0  0  0  0  0  0  0
  -16.9920   13.7860   27.5890 C   0  0  0  0  0  0  0  0  0  0  0  0
  -18.4280   13.3710   27.7170 C   0  0  0  0  0  0  0  0  0  0  0  0
  -19.1610   13.4630   26.4290 N   0  0  0  0  0  0  0  0  0  0  0  0
  -18.3420   13.8310   25.2330 C   0  0  0  0  0  0  0  0  0  0  0  0
  -17.4400   15.1070   25.5680 C   0  0  0  0  0  0  0  0  0  0  0  0
  -20.4760   12.9510   26.3640 C   0  0  0  0  0  0  0  0  0  0  0  0
  -21.4860   13.4410   27.2210 C   0  0  0  0  0  0  0  0  0  0  0  0
  -22.8220   12.9790   27.1060 C   0  0  0  0  0  0  0  0  0  0  0  0
  -23.2080   12.0790   26.1150 C   0  0  0  0  0  0  0  0  0  0  0  0
  -24.4720   11.6850   25.9960 F   0  0  0  0  0  0  0  0  0  0  0  0
  -22.2470   11.5900   25.2800 C   0  0  0  0  0  0  0  0  0  0  0  0
  -20.8740   11.9110   25.3870 C   0  0  0  0  0  0  0  0  0  0  0  0
  -14.9030   18.8820   28.6820 C   0  0  0  0  0  0  0  0  0  0  0  0
  -16.2770   19.5200   29.0280 C   0  0  0  0  0  0  0  0  0  0  0  0
  -16.7400   20.8080   28.3490 C   0  0  0  0  0  0  0  0  0  0  0  0
  -15.9460   21.4380   27.7290 O   0  0  0  0  0  0  0  0  0  0  0  0
  -18.0600   21.1900   28.4180 N   0  0  0  0  0  0  0  0  0  0  0  0
  -19.1270   20.3770   29.0900 C   0  0  0  0  0  0  0  0  0  0  0  0
  -20.5440   21.0290   29.0570 C   0  0  0  0  0  0  0  0  0  0  0  0
  -20.9670   21.5240   27.7520 N   0  0  0  0  0  0  0  0  0  0  0  0
  -19.8340   21.7780   26.7670 C   0  0  0  0  0  0  0  0  0  0  0  0
  -18.5480   22.2330   27.4640 C   0  0  0  0  0  0  0  0  0  0  0  0
  -22.2780   21.2850   27.3310 C   0  0  0  0  0  0  0  0  0  0  0  0
  -22.6290   21.0770   26.0060 C   0  0  0  0  0  0  0  0  0  0  0  0
  -23.9390   20.7900   25.6460 C   0  0  0  0  0  0  0  0  0  0  0  0
  -24.9860   20.8920   26.5720 C   0  0  0  0  0  0  0  0  0  0  0  0
  -26.2730   20.8030   26.1570 F   0  0  0  0  0  0  0  0  0  0  0  0
  -24.6840   21.1420   27.9270 C   0  0  0  0  0  0  0  0  0  0  0  0
  -23.2960   21.3470   28.2560 C   0  0  0  0  0  0  0  0  0  0  0  0
  2  1  1  0
  4  3  2  0
  4  2  1  0
  5  4  1  0
  6  5  1  0
  7  6  1  0
  8  7  1  0
  9  8  1  0
 10  9  1  0
 10  5  1  0
 11  8  1  0
 12 11  2  0
 13 12  1  0
 14 13  2  0
 15 14  1  0
 16 14  1  0
 17 16  2  0
 17 11  1  0
 18  1  1  0
 19 18  1  0
 20 19  1  0
 21 20  2  0
 22 20  1  0
 23 22  1  0
 24 23  1  0
 25 24  1  0
 26 25  1  0
 27 26  1  0
 27 22  1  0
 28 25  1  0
 29 28  2  0
 30 29  1  0
 31 30  2  0
 32 31  1  0
 33 31  1  0
 34 33  2  0
 34 28  1  0
M  END
>  <original SMILES>  (4) 
O=C(CCCCC(=O)N1CCN(c2ccc(F)cc2)CC1)N1CCN(c2ccc(F)cc2)CC1

>  <ref_pdb>  (4) 
F710-Si-91_bound.pdb

>  <ref_mols>  (4) 
x20552_0A

>  <CNNaffinity>  (4) 
6.8830742836

>  <SuCos Score>  (4) 
0.6090829276542802

>  <Polar Hotspot>  (4) 
12.5

>  <Apolar Hotspot>  (4) 
176.0

>  <dH av>  (4) 
-45.473947608503785

>  <-TdS av>  (4) 
9.243236446206003

>  <dG av>  (4) 
-36.23071116229778

>  <Price>  (4) 
250

>  <Lead time>  (4) 
4

$$$$
F217-Su-461
     RDKit          3D

 32 35  0  0  0  0  0  0  0  0999 V2000
  -20.7940   12.1910   25.5940 C   0  0  0  0  0  0  0  0  0  0  0  0
  -21.6280   11.5920   24.8050 N   0  0  0  0  0  0  0  0  0  0  0  0
  -22.8310   11.8650   25.3440 C   0  0  0  0  0  0  0  0  0  0  0  0
  -24.0270   11.4420   24.8580 C   0  0  0  0  0  0  0  0  0  0  0  0
  -25.1720   11.9310   25.4530 C   0  0  0  0  0  0  0  0  0  0  0  0
  -25.1010   12.7270   26.6250 C   0  0  0  0  0  0  0  0  0  0  0  0
  -23.8250   13.0470   27.1640 C   0  0  0  0  0  0  0  0  0  0  0  0
  -22.7100   12.6270   26.4430 C   0  0  0  0  0  0  0  0  0  0  0  0
  -21.4020   12.8280   26.6920 N   0  0  0  0  0  0  0  0  0  0  0  0
  -16.7590   12.3270   23.5980 C   0  0  0  0  0  0  0  0  0  0  0  0
  -17.4700   13.7330   24.1820 C   0  0  0  0  0  0  0  0  0  0  0  0
  -18.9590   13.4680   24.3690 C   0  0  0  0  0  0  0  0  0  0  0  0
  -19.2740   12.2680   25.3820 C   0  0  0  0  0  0  0  0  0  0  0  0
  -18.6940   10.9540   24.7550 C   0  0  0  0  0  0  0  0  0  0  0  0
  -17.1630   11.0500   24.4250 C   0  0  0  0  0  0  0  0  0  0  0  0
  -14.6340   13.5380   22.6110 C   0  0  0  0  0  0  0  0  0  0  0  0
  -15.2200   12.5080   23.5960 C   0  0  0  0  0  0  0  0  0  0  0  0
  -26.3470   13.3080   27.1970 C   0  0  0  0  0  0  0  0  0  0  0  0
  -26.8510   14.4010   26.3440 O   0  0  0  0  0  0  0  0  0  0  0  0
  -20.8420   13.9080   27.5860 C   0  0  0  0  0  0  0  0  0  0  0  0
  -20.3530   13.4080   28.9640 C   0  0  0  0  0  0  0  0  0  0  0  0
  -19.7920   14.4580   29.8660 C   0  0  0  0  0  0  0  0  0  0  0  0
  -20.1890   15.5860   29.6380 O   0  0  0  0  0  0  0  0  0  0  0  0
  -19.0030   14.0640   30.9310 N   0  0  0  0  0  0  0  0  0  0  0  0
  -18.2820   15.0660   31.8100 C   0  0  0  0  0  0  0  0  0  0  0  0
  -17.3160   15.9860   30.9880 C   0  0  0  0  0  0  0  0  0  0  0  0
  -16.4940   16.8620   31.9680 C   0  0  0  0  0  0  0  0  0  0  0  0
  -17.4530   17.8090   32.7680 C   0  0  0  0  0  0  0  0  0  0  0  0
  -18.3790   16.8590   33.5870 C   0  0  0  0  0  0  0  0  0  0  0  0
  -19.2610   15.9690   32.6570 C   0  0  0  0  0  0  0  0  0  0  0  0
  -18.7050   12.6850   31.2910 C   0  0  0  0  0  0  0  0  0  0  0  0
  -17.3890   12.1350   30.7220 C   0  0  0  0  0  0  0  0  0  0  0  0
  2  1  2  0
  3  2  1  0
  4  3  2  0
  5  4  1  0
  6  5  2  0
  7  6  1  0
  8  7  2  0
  8  3  1  0
  9  8  1  0
  9  1  1  0
 11 10  1  0
 12 11  1  0
 13 12  1  0
 13  1  1  0
 14 13  1  0
 15 14  1  0
 15 10  1  0
 17 10  1  0
 17 16  1  0
 18  6  1  0
 19 18  1  0
 20  9  1  0
 21 20  1  0
 22 21  1  0
 23 22  2  0
 24 22  1  0
 25 24  1  0
 26 25  1  0
 27 26  1  0
 28 27  1  0
 29 28  1  0
 30 25  1  0
 30 29  1  0
 31 24  1  0
 32 31  1  0
M  END
>  <original SMILES>  (5) 
CCC1CCC(c2nc3ccc(CO)cc3n2CCC(=O)N(CC)C2CCCCC2)CC1

>  <ref_pdb>  (5) 
F217-Su-461_bound.pdb

>  <ref_mols>  (5) 
x20566_0A

>  <CNNaffinity>  (5) 
7.0271177292

>  <SuCos Score>  (5) 
0.5500612115229613

>  <Polar Hotspot>  (5) 
32.51

>  <Apolar Hotspot>  (5) 
299.84

>  <dH av>  (5) 
-47.09654153574809

>  <-TdS av>  (5) 
10.977108662797542

>  <dG av>  (5) 
-36.11943287295055

>  <Price>  (5) 
1610

>  <Lead time>  (5) 
9

$$$$
F710-Su-289
     RDKit          3D

 23 24  0  0  0  0  0  0  0  0999 V2000
  -15.6650   16.7530   26.2550 N   0  0  0  0  0  0  0  0  0  0  0  0
  -15.8620   15.7410   27.1550 C   0  0  0  0  0  0  0  0  0  0  0  0
  -15.2680   15.7400   28.2110 O   0  0  0  0  0  0  0  0  0  0  0  0
  -16.5750   14.6520   26.6260 N   0  0  0  0  0  0  0  0  0  0  0  0
  -16.6610   13.4360   27.4150 C   0  0  0  0  0  0  0  0  0  0  0  0
  -18.1790   13.2320   27.7640 C   0  0  0  0  0  0  0  0  0  0  0  0
  -19.0200   13.1570   26.5340 N   0  0  0  0  0  0  0  0  0  0  0  0
  -18.8340   14.4210   25.7210 C   0  0  0  0  0  0  0  0  0  0  0  0
  -17.3630   14.6950   25.3530 C   0  0  0  0  0  0  0  0  0  0  0  0
  -20.2820   12.7120   26.5690 C   0  0  0  0  0  0  0  0  0  0  0  0
  -21.2090   13.1420   27.5450 C   0  0  0  0  0  0  0  0  0  0  0  0
  -22.5420   12.7370   27.5120 C   0  0  0  0  0  0  0  0  0  0  0  0
  -22.9700   11.9120   26.3830 C   0  0  0  0  0  0  0  0  0  0  0  0
  -24.2920   11.6860   26.2060 F   0  0  0  0  0  0  0  0  0  0  0  0
  -22.0130   11.4720   25.4660 C   0  0  0  0  0  0  0  0  0  0  0  0
  -20.6300   11.7870   25.6300 C   0  0  0  0  0  0  0  0  0  0  0  0
  -15.6940   19.2170   26.3620 C   0  0  0  0  0  0  0  0  0  0  0  0
  -14.8580   17.9240   26.4300 C   0  0  0  0  0  0  0  0  0  0  0  0
  -16.7960   13.6930   24.2540 C   0  0  0  0  0  0  0  0  0  0  0  0
  -15.5000   14.0980   23.5480 C   0  0  0  0  0  0  0  0  0  0  0  0
  -14.6950   12.8870   23.0260 C   0  0  0  0  0  0  0  0  0  0  0  0
  -15.5310   12.0060   22.0870 C   0  0  0  0  0  0  0  0  0  0  0  0
  -15.2680   10.8450   21.8670 O   0  0  0  0  0  0  0  0  0  0  0  0
  2  1  1  0
  3  2  2  0
  4  2  1  0
  5  4  1  0
  6  5  1  0
  7  6  1  0
  8  7  1  0
  9  8  1  0
  9  4  1  0
 10  7  1  0
 11 10  2  0
 12 11  1  0
 13 12  2  0
 14 13  1  0
 15 13  1  0
 16 15  2  0
 16 10  1  0
 18 17  1  0
 18  1  1  0
 19  9  1  0
 20 19  1  0
 21 20  1  0
 22 21  1  0
 23 22  2  0
M  END
>  <original SMILES>  (6) 
CCNC(=O)N1CCN(c2ccc(F)cc2)CC1CCCC=O

>  <ref_pdb>  (6) 
F710-Su-289_bound.pdb

>  <ref_mols>  (6) 
x20552_0A

>  <CNNaffinity>  (6) 
6.4087152481

>  <SuCos Score>  (6) 
0.823543106996747

>  <Polar Hotspot>  (6) 
50.25

>  <Apolar Hotspot>  (6) 
195.46

>  <dH av>  (6) 
-46.43131463244096

>  <-TdS av>  (6) 
10.887588772400637

>  <dG av>  (6) 
-35.543725860040325

>  <Price>  (6) 
3250

>  <Lead time>  (6) 
12

$$$$
F217-Su-472
     RDKit          3D

 33 36  0  0  0  0  0  0  0  0999 V2000
  -19.3840   11.6430   25.4490 C   0  0  0  0  0  0  0  0  0  0  0  0
  -20.4150   11.2840   24.6390 N   0  0  0  0  0  0  0  0  0  0  0  0
  -21.4530   11.7510   25.3040 C   0  0  0  0  0  0  0  0  0  0  0  0
  -22.8180   11.5780   24.9660 C   0  0  0  0  0  0  0  0  0  0  0  0
  -23.7850   12.1250   25.8110 C   0  0  0  0  0  0  0  0  0  0  0  0
  -23.4170   12.7060   27.0250 C   0  0  0  0  0  0  0  0  0  0  0  0
  -22.0520   12.8590   27.4040 C   0  0  0  0  0  0  0  0  0  0  0  0
  -21.1550   12.3920   26.5090 C   0  0  0  0  0  0  0  0  0  0  0  0
  -19.7940   12.4240   26.5690 N   0  0  0  0  0  0  0  0  0  0  0  0
  -16.3770   11.3600   22.7670 C   0  0  0  0  0  0  0  0  0  0  0  0
  -17.5200   10.3660   22.9000 C   0  0  0  0  0  0  0  0  0  0  0  0
  -17.8150    9.9460   24.3050 C   0  0  0  0  0  0  0  0  0  0  0  0
  -17.9210   11.1330   25.3500 C   0  0  0  0  0  0  0  0  0  0  0  0
  -17.0180   12.2390   25.0090 C   0  0  0  0  0  0  0  0  0  0  0  0
  -15.8020   11.7280   24.1310 C   0  0  0  0  0  0  0  0  0  0  0  0
  -15.2910   10.9500   21.7110 C   0  0  0  0  0  0  0  0  0  0  0  0
  -13.2410   10.2680   22.9580 C   0  0  0  0  0  0  0  0  0  0  0  0
  -14.3930    9.8200   22.1390 C   0  0  0  0  0  0  0  0  0  0  0  0
  -24.4340   13.1940   27.9310 C   0  0  0  0  0  0  0  0  0  0  0  0
  -25.1820   13.6970   28.6650 N   0  0  0  0  0  0  0  0  0  0  0  0
  -18.9980   13.0580   27.6000 C   0  0  0  0  0  0  0  0  0  0  0  0
  -18.8660   14.5860   27.7030 C   0  0  0  0  0  0  0  0  0  0  0  0
  -18.2240   15.3720   26.4740 C   0  0  0  0  0  0  0  0  0  0  0  0
  -18.3780   15.0090   25.3070 O   0  0  0  0  0  0  0  0  0  0  0  0
  -17.2000   16.2600   26.7530 N   0  0  0  0  0  0  0  0  0  0  0  0
  -17.1790   17.1150   28.0190 C   0  0  0  0  0  0  0  0  0  0  0  0
  -15.7830   17.1190   28.7180 C   0  0  0  0  0  0  0  0  0  0  0  0
  -15.7120   17.8840   30.0640 C   0  0  0  0  0  0  0  0  0  0  0  0
  -15.9930   19.3770   29.8800 C   0  0  0  0  0  0  0  0  0  0  0  0
  -17.3170   19.5820   29.0490 C   0  0  0  0  0  0  0  0  0  0  0  0
  -17.4890   18.6580   27.8240 C   0  0  0  0  0  0  0  0  0  0  0  0
  -16.4110   16.8240   25.5840 C   0  0  0  0  0  0  0  0  0  0  0  0
  -15.3180   15.8760   25.0800 C   0  0  0  0  0  0  0  0  0  0  0  0
  2  1  2  0
  3  2  1  0
  4  3  2  0
  5  4  1  0
  6  5  2  0
  7  6  1  0
  8  7  2  0
  8  3  1  0
  9  8  1  0
  9  1  1  0
 11 10  1  0
 12 11  1  0
 13 12  1  0
 13  1  1  0
 14 13  1  0
 15 14  1  0
 15 10  1  0
 16 10  1  0
 18 17  1  0
 18 16  1  0
 19  6  1  0
 20 19  3  0
 21  9  1  0
 22 21  1  0
 23 22  1  0
 24 23  2  0
 25 23  1  0
 26 25  1  0
 27 26  1  0
 28 27  1  0
 29 28  1  0
 30 29  1  0
 31 30  1  0
 31 26  1  0
 32 25  1  0
 33 32  1  0
M  END
>  <original SMILES>  (7) 
CCC[C@H]1CC[C@H](c2nc3ccc(C#N)cc3n2CCC(=O)N(CC)C2CCCCC2)CC1

>  <ref_pdb>  (7) 
F217-Su-472_bound.pdb

>  <ref_mols>  (7) 
x20566_0A

>  <CNNaffinity>  (7) 
6.8651123047

>  <SuCos Score>  (7) 
0.5852229368708737

>  <Polar Hotspot>  (7) 
19.66

>  <Apolar Hotspot>  (7) 
300.43

>  <dH av>  (7) 
-49.7932521959056

>  <-TdS av>  (7) 
14.530518080339244

>  <dG av>  (7) 
-35.26273411556636

>  <Price>  (7) 
1500

>  <Lead time>  (7) 
8

$$$$
F709-Si-620
     RDKit          3D

 25 28  0  0  0  0  0  0  0  0999 V2000
  -17.4520   15.8140   24.6190 O   0  0  0  0  0  0  0  0  0  0  0  0
  -18.0310   15.5980   25.6950 C   0  0  0  0  0  0  0  0  0  0  0  0
  -18.5730   14.3380   26.0290 N   0  0  0  0  0  0  0  0  0  0  0  0
  -19.4190   14.0520   27.2850 C   0  0  0  0  0  0  0  0  0  0  0  0
  -19.7000   12.5610   27.4820 C   0  0  0  0  0  0  0  0  0  0  0  0
  -18.4250   11.7230   27.8460 C   0  0  0  0  0  0  0  0  0  0  0  0
  -18.0890   11.1290   26.4830 C   0  0  0  0  0  0  0  0  0  0  0  0
  -18.9540   11.8360   25.4490 C   0  0  0  0  0  0  0  0  0  0  0  0
  -18.3970   13.2090   24.9980 C   0  0  0  0  0  0  0  0  0  0  0  0
  -20.2660   12.0590   26.2110 N   0  0  0  0  0  0  0  0  0  0  0  0
  -21.5710   12.0300   25.7160 C   0  0  0  0  0  0  0  0  0  0  0  0
  -21.6900   11.6780   24.5840 O   0  0  0  0  0  0  0  0  0  0  0  0
  -22.7770   12.3080   26.6130 C   0  0  0  0  0  0  0  0  0  0  0  0
  -22.8010   13.1430   27.7420 C   0  0  0  0  0  0  0  0  0  0  0  0
  -24.2200   13.1880   28.0060 C   0  0  0  0  0  0  0  0  0  0  0  0
  -24.8140   12.3780   27.1170 C   0  0  0  0  0  0  0  0  0  0  0  0
  -23.9710   11.8560   26.1830 O   0  0  0  0  0  0  0  0  0  0  0  0
  -18.3530   16.6730   26.5790 C   0  0  0  0  0  0  0  0  0  0  0  0
  -17.8900   17.9780   26.5040 C   0  0  0  0  0  0  0  0  0  0  0  0
  -18.2710   19.1140   27.3880 C   0  0  0  0  0  0  0  0  0  0  0  0
  -19.6930   19.7720   27.1450 C   0  0  0  0  0  0  0  0  0  0  0  0
  -19.7870   20.6730   25.8710 C   0  0  0  0  0  0  0  0  0  0  0  0
  -18.7620   21.7950   26.0010 C   0  0  0  0  0  0  0  0  0  0  0  0
  -17.2690   21.1860   26.2570 C   0  0  0  0  0  0  0  0  0  0  0  0
  -17.2160   20.2550   27.5290 C   0  0  0  0  0  0  0  0  0  0  0  0
  2  1  2  0
  3  2  1  0
  4  3  1  0
  5  4  1  0
  6  5  1  0
  7  6  1  0
  8  7  1  0
  9  8  1  0
  9  3  1  0
 10  8  1  0
 10  5  1  0
 11 10  1  0
 12 11  2  0
 13 11  1  0
 14 13  2  0
 15 14  1  0
 16 15  2  0
 17 16  1  0
 17 13  1  0
 18  2  1  0
 19 18  2  3
 20 19  1  0
 21 20  1  0
 22 21  1  0
 23 22  1  0
 24 23  1  0
 25 24  1  0
 25 20  1  0
M  END
>  <original SMILES>  (8) 
O=C(/C=C/C1CCCCC1)N1CC2CCC(C1)N2C(=O)c1ccco1

>  <ref_pdb>  (8) 
F709-Si-620_bound.pdb

>  <ref_mols>  (8) 
x20706_0A

>  <CNNaffinity>  (8) 
5.9448618889

>  <SuCos Score>  (8) 
0.5540271697632796

>  <Polar Hotspot>  (8) 
37.38

>  <Apolar Hotspot>  (8) 
186.28

>  <dH av>  (8) 
-41.74476138047251

>  <-TdS av>  (8) 
7.307317059231433

>  <dG av>  (8) 
-34.437444321241074

>  <Price>  (8) 
680

>  <Lead time>  (8) 
6

$$$$
F421-Su-634
     RDKit          3D

 22 25  0  0  0  0  0  0  0  0999 V2000
  -20.4230   12.1560   25.0240 C   0  0  0  0  0  0  0  0  0  0  0  0
  -20.7280   12.0470   23.8560 O   0  0  0  0  0  0  0  0  0  0  0  0
  -19.0910   11.9900   25.6260 N   0  0  0  0  0  0  0  0  0  0  0  0
  -18.8470   10.5250   25.1590 C   0  0  0  0  0  0  0  0  0  0  0  0
  -18.0340   11.0080   23.8790 C   0  0  0  0  0  0  0  0  0  0  0  0
  -18.1370   12.3090   24.5790 C   0  0  0  0  0  0  0  0  0  0  0  0
  -18.1650   13.7120   23.8910 C   0  0  0  0  0  0  0  0  0  0  0  0
  -16.9150   14.0080   24.6920 N   0  0  0  0  0  0  0  0  0  0  0  0
  -15.9280   13.7350   23.7150 C   0  0  0  0  0  0  0  0  0  0  0  0
  -15.7960   12.9540   22.7960 O   0  0  0  0  0  0  0  0  0  0  0  0
  -16.8880   12.6650   25.4300 C   0  0  0  0  0  0  0  0  0  0  0  0
  -22.9590   12.8600   29.3160 C   0  0  0  0  0  0  0  0  0  0  0  0
  -22.4940   12.5720   27.9460 N   0  0  0  0  0  0  0  0  0  0  0  0
  -21.2190   12.6110   27.4170 C   0  0  0  0  0  0  0  0  0  0  0  0
  -21.4220   12.3900   26.0210 C   0  0  0  0  0  0  0  0  0  0  0  0
  -22.7740   12.1550   25.8180 C   0  0  0  0  0  0  0  0  0  0  0  0
  -23.4080   12.2780   26.9530 N   0  0  0  0  0  0  0  0  0  0  0  0
  -14.7560   14.7250   23.8750 C   0  0  0  0  0  0  0  0  0  0  0  0
  -13.5850   14.5570   22.8620 C   0  0  0  0  0  0  0  0  0  0  0  0
  -12.6740   13.5920   23.4820 C   0  0  0  0  0  0  0  0  0  0  0  0
  -13.0070   13.6360   24.8750 O   0  0  0  0  0  0  0  0  0  0  0  0
  -14.0120   14.5720   25.2430 C   0  0  0  0  0  0  0  0  0  0  0  0
  2  1  2  0
  3  1  1  0
  4  3  1  0
  5  4  1  0
  6  5  1  0
  6  3  1  0
  7  6  1  0
  8  7  1  0
  9  8  1  0
 10  9  2  0
 11  8  1  0
 11  6  1  0
 13 12  1  0
 14 13  1  0
 15  1  1  0
 15 14  2  0
 16 15  1  0
 17 16  2  0
 17 13  1  0
 18  9  1  0
 19 18  1  0
 20 19  1  0
 21 20  1  0
 22 21  1  0
 22 18  1  0
M  END
>  <original SMILES>  (9) 
Cn1cc(C(=O)N2CCC23CN(C(=O)C2CCOC2)C3)cn1

>  <ref_pdb>  (9) 
F421-Su-634_bound.pdb

>  <ref_mols>  (9) 
x20584_0A

>  <CNNaffinity>  (9) 
5.7458906174

>  <SuCos Score>  (9) 
0.563002468483305

>  <Polar Hotspot>  (9) 
54.98

>  <Apolar Hotspot>  (9) 
150.3

>  <dH av>  (9) 
-38.683020686614114

>  <-TdS av>  (9) 
6.1970653477798345

>  <dG av>  (9) 
-32.48595533883428

>  <Price>  (9) 
980

>  <Lead time>  (9) 
6

$$$$
F217-Su-463
     RDKit          3D

 32 35  0  0  0  0  0  0  0  0999 V2000
  -20.6390   12.5930   24.4020 C   0  0  0  0  0  0  0  0  0  0  0  0
  -21.8620   12.1550   24.0770 N   0  0  0  0  0  0  0  0  0  0  0  0
  -22.6470   12.6250   25.0630 C   0  0  0  0  0  0  0  0  0  0  0  0
  -23.9940   12.4100   25.2690 C   0  0  0  0  0  0  0  0  0  0  0  0
  -24.6090   12.9150   26.4170 C   0  0  0  0  0  0  0  0  0  0  0  0
  -23.8350   13.6850   27.3450 C   0  0  0  0  0  0  0  0  0  0  0  0
  -22.4260   13.8100   27.1100 C   0  0  0  0  0  0  0  0  0  0  0  0
  -21.9110   13.3260   25.9460 C   0  0  0  0  0  0  0  0  0  0  0  0
  -20.5910   13.3970   25.5340 N   0  0  0  0  0  0  0  0  0  0  0  0
  -16.3670   12.0420   22.9510 C   0  0  0  0  0  0  0  0  0  0  0  0
  -17.4220   13.0560   22.2820 C   0  0  0  0  0  0  0  0  0  0  0  0
  -18.5600   13.3800   23.1500 C   0  0  0  0  0  0  0  0  0  0  0  0
  -19.3860   12.1360   23.6080 C   0  0  0  0  0  0  0  0  0  0  0  0
  -18.3590   11.1290   24.3850 C   0  0  0  0  0  0  0  0  0  0  0  0
  -17.1510   10.8250   23.5230 C   0  0  0  0  0  0  0  0  0  0  0  0
  -14.4440   13.8320   23.2140 C   0  0  0  0  0  0  0  0  0  0  0  0
  -15.2870   12.7000   23.9350 C   0  0  0  0  0  0  0  0  0  0  0  0
  -25.9410   12.5980   26.7010 O   0  0  0  0  0  0  0  0  0  0  0  0
  -26.6010   12.8610   27.9090 C   0  0  0  0  0  0  0  0  0  0  0  0
  -19.4810   13.9790   26.3770 C   0  0  0  0  0  0  0  0  0  0  0  0
  -19.3850   15.5750   26.2130 C   0  0  0  0  0  0  0  0  0  0  0  0
  -18.2680   16.2260   27.0990 C   0  0  0  0  0  0  0  0  0  0  0  0
  -17.4880   15.5750   27.7010 O   0  0  0  0  0  0  0  0  0  0  0  0
  -18.1280   17.6190   27.0220 N   0  0  0  0  0  0  0  0  0  0  0  0
  -16.9400   18.3290   27.5940 C   0  0  0  0  0  0  0  0  0  0  0  0
  -15.6080   18.1910   26.8350 C   0  0  0  0  0  0  0  0  0  0  0  0
  -14.5190   19.1020   27.3960 C   0  0  0  0  0  0  0  0  0  0  0  0
  -14.3410   18.7930   28.9320 C   0  0  0  0  0  0  0  0  0  0  0  0
  -15.6740   19.0400   29.7250 C   0  0  0  0  0  0  0  0  0  0  0  0
  -16.8400   18.2010   29.1200 C   0  0  0  0  0  0  0  0  0  0  0  0
  -19.1190   18.6190   26.4470 C   0  0  0  0  0  0  0  0  0  0  0  0
  -20.2010   19.0710   27.3830 C   0  0  0  0  0  0  0  0  0  0  0  0
  2  1  2  0
  3  2  1  0
  4  3  2  0
  5  4  1  0
  6  5  2  0
  7  6  1  0
  8  7  2  0
  8  3  1  0
  9  8  1  0
  9  1  1  0
 11 10  1  0
 12 11  1  0
 13 12  1  0
 13  1  1  0
 14 13  1  0
 15 14  1  0
 15 10  1  0
 17 10  1  0
 17 16  1  0
 18  5  1  0
 19 18  1  0
 20  9  1  0
 21 20  1  0
 22 21  1  0
 23 22  2  0
 24 22  1  0
 25 24  1  0
 26 25  1  0
 27 26  1  0
 28 27  1  0
 29 28  1  0
 30 25  1  0
 30 29  1  0
 31 24  1  0
 32 31  1  0
M  END
>  <original SMILES>  (10) 
CCC1CCC(c2nc3cc(OC)ccc3n2CCC(=O)N(CC)C2CCCCC2)CC1

>  <ref_pdb>  (10) 
F217-Su-463_bound.pdb

>  <ref_mols>  (10) 
x20566_0A

>  <CNNaffinity>  (10) 
6.8581643105

>  <SuCos Score>  (10) 
0.6161608658339833

>  <Polar Hotspot>  (10) 
53.56

>  <Apolar Hotspot>  (10) 
291.22

>  <dH av>  (10) 
-46.10165153700783

>  <-TdS av>  (10) 
13.811868934100607

>  <dG av>  (10) 
-32.289782602907216

>  <Price>  (10) 
1450

>  <Lead time>  (10) 
8

$$$$
F389-Si-421
     RDKit          3D

 23 25  0  0  0  0  0  0  0  0999 V2000
  -15.1860   10.5180   24.8380 C   0  0  0  0  0  0  0  0  0  0  0  0
  -15.4660    9.5350   24.1520 O   0  0  0  0  0  0  0  0  0  0  0  0
  -15.9050   10.8040   25.9950 N   0  0  0  0  0  0  0  0  0  0  0  0
  -15.7390   11.9510   26.9250 C   0  0  0  0  0  0  0  0  0  0  0  0
  -17.1420   12.1960   27.4210 C   0  0  0  0  0  0  0  0  0  0  0  0
  -18.1320   12.9320   26.3830 C   0  0  0  0  0  0  0  0  0  0  0  0
  -18.9000   11.6130   26.1920 N   0  0  0  0  0  0  0  0  0  0  0  0
  -20.0160   11.9110   27.0070 C   0  0  0  0  0  0  0  0  0  0  0  0
  -20.1190   12.3950   28.1260 O   0  0  0  0  0  0  0  0  0  0  0  0
  -17.9870   10.9890   27.1910 C   0  0  0  0  0  0  0  0  0  0  0  0
  -17.1490    9.9890   26.4180 C   0  0  0  0  0  0  0  0  0  0  0  0
  -21.2690   11.5760   26.2130 C   0  0  0  0  0  0  0  0  0  0  0  0
  -22.6890   11.7920   26.5610 C   0  0  0  0  0  0  0  0  0  0  0  0
  -23.4500   11.5190   25.5100 N   0  0  0  0  0  0  0  0  0  0  0  0
  -22.6020   10.9230   24.6510 N   0  0  0  0  0  0  0  0  0  0  0  0
  -21.2490   11.0690   24.9720 C   0  0  0  0  0  0  0  0  0  0  0  0
  -13.1250   12.1140   25.1580 C   0  0  0  0  0  0  0  0  0  0  0  0
  -13.9980   11.3290   24.4520 C   0  0  0  0  0  0  0  0  0  0  0  0
  -11.9680   12.8340   24.7300 C   0  0  0  0  0  0  0  0  0  0  0  0
  -11.2670   13.5820   25.4560 O   0  0  0  0  0  0  0  0  0  0  0  0
  -11.6900   12.4970   23.4310 O   0  0  0  0  0  0  0  0  0  0  0  0
   -9.2950   12.5270   23.4790 C   0  0  0  0  0  0  0  0  0  0  0  0
  -10.5430   13.0840   22.8110 C   0  0  0  0  0  0  0  0  0  0  0  0
  2  1  2  0
  3  1  1  0
  4  3  1  0
  5  4  1  0
  6  5  1  0
  7  6  1  0
  8  7  1  0
  9  8  2  0
 10  7  1  0
 10  5  1  0
 11 10  1  0
 11  3  1  0
 12  8  1  0
 13 12  1  0
 14 13  2  0
 15 14  1  0
 16 15  1  0
 16 12  2  0
 18  1  1  0
 18 17  2  3
 19 17  1  0
 20 19  2  0
 21 19  1  0
 23 21  1  0
 23 22  1  0
M  END
>  <original SMILES>  (11) 
CCOC(=O)/C=C/C(=O)N1C[C@H]2CN(C(=O)c3cn[nH]c3)[C@H]2C1

>  <ref_pdb>  (11) 
F389-Si-421_bound.pdb

>  <ref_mols>  (11) 
x20671_0A

>  <CNNaffinity>  (11) 
5.6716980934

>  <SuCos Score>  (11) 
0.5715747984395207

>  <Polar Hotspot>  (11) 
50.17

>  <Apolar Hotspot>  (11) 
125.21

>  <dH av>  (11) 
-38.58718747496069

>  <-TdS av>  (11) 
6.330060604498657

>  <dG av>  (11) 
-32.25712687046204

>  <Price>  (11) 
0

>  <Lead time>  (11) 
0

$$$$
F710-Si-364
     RDKit          3D

 32 35  0  0  0  0  0  0  0  0999 V2000
  -15.4560   18.2940   27.4040 C   0  0  0  0  0  0  0  0  0  0  0  0
  -14.4700   19.7880   25.7600 O   0  0  0  0  0  0  0  0  0  0  0  0
  -15.4190   19.5760   26.5760 C   0  0  0  0  0  0  0  0  0  0  0  0
  -16.4810   20.4790   26.6400 N   0  0  0  0  0  0  0  0  0  0  0  0
  -16.5010   21.7520   25.8460 C   0  0  0  0  0  0  0  0  0  0  0  0
  -17.8990   22.1490   25.3680 C   0  0  0  0  0  0  0  0  0  0  0  0
  -19.0470   21.9390   26.3480 N   0  0  0  0  0  0  0  0  0  0  0  0
  -18.6680   21.5610   27.6840 C   0  0  0  0  0  0  0  0  0  0  0  0
  -17.5850   20.3470   27.6290 C   0  0  0  0  0  0  0  0  0  0  0  0
  -20.3420   21.7740   25.8570 C   0  0  0  0  0  0  0  0  0  0  0  0
  -20.7900   22.5680   24.7690 C   0  0  0  0  0  0  0  0  0  0  0  0
  -22.0640   22.4310   24.2860 C   0  0  0  0  0  0  0  0  0  0  0  0
  -22.9570   21.4550   24.8050 C   0  0  0  0  0  0  0  0  0  0  0  0
  -24.2450   21.4350   24.4870 F   0  0  0  0  0  0  0  0  0  0  0  0
  -22.5530   20.6230   25.8640 C   0  0  0  0  0  0  0  0  0  0  0  0
  -21.2160   20.8170   26.3640 C   0  0  0  0  0  0  0  0  0  0  0  0
  -16.3310   17.1580   26.7520 C   0  0  0  0  0  0  0  0  0  0  0  0
  -16.1990   15.7730   27.4640 C   0  0  0  0  0  0  0  0  0  0  0  0
  -15.3440   15.6520   28.3610 O   0  0  0  0  0  0  0  0  0  0  0  0
  -16.9170   14.7180   27.0050 N   0  0  0  0  0  0  0  0  0  0  0  0
  -17.4460   14.6230   25.5860 C   0  0  0  0  0  0  0  0  0  0  0  0
  -18.2200   13.2840   25.2830 C   0  0  0  0  0  0  0  0  0  0  0  0
  -19.0840   12.9020   26.3680 N   0  0  0  0  0  0  0  0  0  0  0  0
  -18.6080   13.0400   27.7410 C   0  0  0  0  0  0  0  0  0  0  0  0
  -17.1510   13.5210   27.8490 C   0  0  0  0  0  0  0  0  0  0  0  0
  -20.4180   12.5750   25.9640 C   0  0  0  0  0  0  0  0  0  0  0  0
  -21.5220   13.1320   26.6830 C   0  0  0  0  0  0  0  0  0  0  0  0
  -22.8600   12.8830   26.3320 C   0  0  0  0  0  0  0  0  0  0  0  0
  -23.1620   12.0840   25.1470 C   0  0  0  0  0  0  0  0  0  0  0  0
  -22.1100   11.5300   24.4020 C   0  0  0  0  0  0  0  0  0  0  0  0
  -20.7760   11.7160   24.8620 C   0  0  0  0  0  0  0  0  0  0  0  0
  -19.7380   11.0690   24.2350 F   0  0  0  0  0  0  0  0  0  0  0  0
  3  2  2  0
  3  1  1  0
  4  3  1  0
  5  4  1  0
  6  5  1  0
  7  6  1  0
  8  7  1  0
  9  4  1  0
  9  8  1  0
 10  7  1  0
 11 10  2  0
 12 11  1  0
 13 12  2  0
 14 13  1  0
 15 13  1  0
 16 15  2  0
 16 10  1  0
 17  1  1  0
 18 17  1  0
 19 18  2  0
 20 18  1  0
 21 20  1  0
 22 21  1  0
 23 22  1  0
 24 23  1  0
 25 20  1  0
 25 24  1  0
 26 23  1  0
 27 26  2  0
 28 27  1  0
 29 28  2  0
 30 29  1  0
 31 30  2  0
 31 26  1  0
 32 31  1  0
M  END
>  <original SMILES>  (12) 
O=C(CCC(=O)N1CCN(c2ccccc2F)CC1)N1CCN(c2ccc(F)cc2)CC1

>  <ref_pdb>  (12) 
F710-Si-364_bound.pdb

>  <ref_mols>  (12) 
x20552_0A

>  <CNNaffinity>  (12) 
6.5910253525

>  <SuCos Score>  (12) 
0.6262138510553152

>  <Polar Hotspot>  (12) 
12.5

>  <Apolar Hotspot>  (12) 
190.42

>  <dH av>  (12) 
-43.1304760812599

>  <-TdS av>  (12) 
10.913556070420134

>  <dG av>  (12) 
-32.216920010839765

>  <Price>  (12) 
480

>  <Lead time>  (12) 
6

$$$$
F741-Si-597
     RDKit          3D

 25 28  0  0  0  0  0  0  0  0999 V2000
  -17.1640   12.1350   23.1490 C   0  0  0  0  0  0  0  0  0  0  0  0
  -16.5250   13.4730   23.5790 C   0  0  0  0  0  0  0  0  0  0  0  0
  -16.8590   13.6110   24.9790 O   0  0  0  0  0  0  0  0  0  0  0  0
  -18.0870   12.9350   25.2960 C   0  0  0  0  0  0  0  0  0  0  0  0
  -17.8430   12.0310   26.5210 C   0  0  0  0  0  0  0  0  0  0  0  0
  -19.0450   11.7830   27.4550 C   0  0  0  0  0  0  0  0  0  0  0  0
  -19.9160   12.9860   27.5580 C   0  0  0  0  0  0  0  0  0  0  0  0
  -20.3630   13.5550   26.2300 N   0  0  0  0  0  0  0  0  0  0  0  0
  -21.4790   13.0590   25.4430 C   0  0  0  0  0  0  0  0  0  0  0  0
  -21.4180   12.7300   24.2940 O   0  0  0  0  0  0  0  0  0  0  0  0
  -19.1440   14.0600   25.5080 C   0  0  0  0  0  0  0  0  0  0  0  0
  -18.4040   12.1480   24.0340 C   0  0  0  0  0  0  0  0  0  0  0  0
  -22.6870   12.8250   26.1860 C   0  0  0  0  0  0  0  0  0  0  0  0
  -23.6470   11.8900   25.6470 C   0  0  0  0  0  0  0  0  0  0  0  0
  -24.6510   11.8010   26.5300 N   0  0  0  0  0  0  0  0  0  0  0  0
  -24.4030   12.7130   27.5360 N   0  0  0  0  0  0  0  0  0  0  0  0
  -25.1820   12.8740   28.6860 C   0  0  0  0  0  0  0  0  0  0  0  0
  -24.8090   13.9930   29.4480 C   0  0  0  0  0  0  0  0  0  0  0  0
  -23.6010   14.7240   29.2190 C   0  0  0  0  0  0  0  0  0  0  0  0
  -22.9210   14.4100   28.1620 N   0  0  0  0  0  0  0  0  0  0  0  0
  -23.2930   13.4570   27.2640 C   0  0  0  0  0  0  0  0  0  0  0  0
  -16.3320   10.8720   23.3060 C   0  0  0  0  0  0  0  0  0  0  0  0
  -15.1320   10.7770   22.2830 C   0  0  0  0  0  0  0  0  0  0  0  0
  -13.2240   10.4340   23.6440 C   0  0  0  0  0  0  0  0  0  0  0  0
  -14.2230    9.8090   22.7230 O   0  0  0  0  0  0  0  0  0  0  0  0
  2  1  1  0
  3  2  1  0
  4  3  1  0
  5  4  1  0
  6  5  1  0
  7  6  1  0
  8  7  1  0
  9  8  1  0
 10  9  2  0
 11  8  1  0
 11  4  1  0
 12  4  1  0
 12  1  1  0
 13  9  1  0
 14 13  1  0
 15 14  2  0
 16 15  1  0
 17 16  1  0
 18 17  2  0
 19 18  1  0
 20 19  2  0
 21 13  2  0
 21 20  1  0
 21 16  1  0
 22  1  1  0
 23 22  1  0
 25 24  1  0
 25 23  1  0
M  END
>  <original SMILES>  (13) 
COCCC1COC2(CCCN(C(=O)c3cnn4cccnc34)C2)C1

>  <ref_pdb>  (13) 
F741-Si-597_bound.pdb

>  <ref_mols>  (13) 
x20167_0A

>  <CNNaffinity>  (13) 
6.2958321571

>  <SuCos Score>  (13) 
0.6953911459882626

>  <Polar Hotspot>  (13) 
68.24

>  <Apolar Hotspot>  (13) 
202.62

>  <dH av>  (13) 
-43.6075909092913

>  <-TdS av>  (13) 
11.6104059545089

>  <dG av>  (13) 
-31.9971849547824

>  <Price>  (13) 
3350

>  <Lead time>  (13) 
11

$$$$
F179-Si-555
     RDKit          3D

 28 31  0  0  0  0  0  0  0  0999 V2000
  -18.1660   16.6010   27.9250 C   0  0  0  0  0  0  0  0  0  0  0  0
  -19.4190   16.3470   27.0660 C   0  0  0  0  0  0  0  0  0  0  0  0
  -20.4420   15.3200   27.6270 C   0  0  0  0  0  0  0  0  0  0  0  0
  -19.6780   14.0510   27.7700 N   0  0  0  0  0  0  0  0  0  0  0  0
  -19.9270   12.9800   26.8310 C   0  0  0  0  0  0  0  0  0  0  0  0
  -18.9900   12.2870   26.4900 O   0  0  0  0  0  0  0  0  0  0  0  0
  -18.4250   14.0360   28.5140 C   0  0  0  0  0  0  0  0  0  0  0  0
  -17.4970   15.1970   28.0210 C   0  0  0  0  0  0  0  0  0  0  0  0
  -21.3370   12.8610   26.2210 C   0  0  0  0  0  0  0  0  0  0  0  0
  -21.5160   12.2090   24.9640 C   0  0  0  0  0  0  0  0  0  0  0  0
  -23.1320   12.0810   24.3970 S   0  0  0  0  0  0  0  0  0  0  0  0
  -23.6430   12.8430   25.9370 C   0  0  0  0  0  0  0  0  0  0  0  0
  -22.5830   13.2170   26.7580 C   0  0  0  0  0  0  0  0  0  0  0  0
  -22.8280   13.6470   28.2210 C   0  0  0  0  0  0  0  0  0  0  0  0
  -24.1010   13.1730   28.7690 C   0  0  0  0  0  0  0  0  0  0  0  0
  -25.3630   13.4610   27.8180 C   0  0  0  0  0  0  0  0  0  0  0  0
  -25.0960   12.7380   26.4590 C   0  0  0  0  0  0  0  0  0  0  0  0
  -16.0430   18.7480   26.0540 C   0  0  0  0  0  0  0  0  0  0  0  0
  -16.4060   19.4970   27.1860 C   0  0  0  0  0  0  0  0  0  0  0  0
  -17.1290   18.8130   28.0690 N   0  0  0  0  0  0  0  0  0  0  0  0
  -17.2640   17.6030   27.4440 N   0  0  0  0  0  0  0  0  0  0  0  0
  -16.6100   17.5520   26.2160 C   0  0  0  0  0  0  0  0  0  0  0  0
  -14.6340   20.3330   24.6920 C   0  0  0  0  0  0  0  0  0  0  0  0
  -14.9170   21.3940   25.2190 O   0  0  0  0  0  0  0  0  0  0  0  0
  -15.2170   19.0770   25.0280 N   0  0  0  0  0  0  0  0  0  0  0  0
  -13.0570   21.5230   23.0440 C   0  0  0  0  0  0  0  0  0  0  0  0
  -13.6250   20.1940   23.5580 C   0  0  0  0  0  0  0  0  0  0  0  0
  -14.1270   19.4760   22.3910 O   0  0  0  0  0  0  0  0  0  0  0  0
  2  1  1  0
  3  2  1  0
  4  3  1  0
  5  4  1  0
  6  5  2  0
  7  4  1  0
  8  7  1  0
  8  1  1  0
  9  5  1  0
 10  9  2  0
 11 10  1  0
 12 11  1  0
 13 12  2  0
 13  9  1  0
 14 13  1  0
 15 14  1  0
 16 15  1  0
 17 12  1  0
 17 16  1  0
 19 18  1  0
 20 19  2  0
 21 20  1  0
 21  1  1  0
 22 21  1  0
 22 18  2  0
 24 23  2  0
 25 23  1  0
 25 18  1  0
 27 26  1  0
 27 23  1  0
 28 27  1  0
M  END
>  <original SMILES>  (14) 
CC(O)C(=O)Nc1cnn(C2CCN(C(=O)c3csc4c3CCCC4)CC2)c1

>  <ref_pdb>  (14) 
F179-Si-555_bound.pdb

>  <ref_mols>  (14) 
x20595_0A

>  <CNNaffinity>  (14) 
6.4678077698

>  <SuCos Score>  (14) 
0.553979767132599

>  <Polar Hotspot>  (14) 
50.9

>  <Apolar Hotspot>  (14) 
179.55

>  <dH av>  (14) 
-42.01525169669285

>  <-TdS av>  (14) 
10.047592867179535

>  <dG av>  (14) 
-31.967658829513315

>  <Price>  (14) 
950

>  <Lead time>  (14) 
6

$$$$
F309-Si-292
     RDKit          3D

 19 21  0  0  0  0  0  0  0  0999 V2000
  -20.3880   12.6940   24.6880 C   0  0  0  0  0  0  0  0  0  0  0  0
  -20.7890   12.4600   23.5810 O   0  0  0  0  0  0  0  0  0  0  0  0
  -19.0750   12.8950   24.9500 N   0  0  0  0  0  0  0  0  0  0  0  0
  -18.4660   12.1110   26.0580 C   0  0  0  0  0  0  0  0  0  0  0  0
  -18.2110   13.3800   23.8370 C   0  0  0  0  0  0  0  0  0  0  0  0
  -17.2530   14.4780   24.1430 C   0  0  0  0  0  0  0  0  0  0  0  0
  -16.2960   14.4560   22.9960 C   0  0  0  0  0  0  0  0  0  0  0  0
  -14.8470   14.9150   23.4170 C   0  0  0  0  0  0  0  0  0  0  0  0
  -13.9560   13.6430   23.6210 C   0  0  0  0  0  0  0  0  0  0  0  0
  -13.5590   13.4930   24.9910 O   0  0  0  0  0  0  0  0  0  0  0  0
  -14.9280   12.4960   23.2950 C   0  0  0  0  0  0  0  0  0  0  0  0
  -16.2100   13.0010   22.6140 C   0  0  0  0  0  0  0  0  0  0  0  0
  -17.3960   12.3070   23.1980 C   0  0  0  0  0  0  0  0  0  0  0  0
  -20.2030   14.4050   27.3740 C   0  0  0  0  0  0  0  0  0  0  0  0
  -21.1830   13.3190   27.0200 C   0  0  0  0  0  0  0  0  0  0  0  0
  -22.1960   12.8680   27.9200 C   0  0  0  0  0  0  0  0  0  0  0  0
  -23.0060   11.8690   27.6100 C   0  0  0  0  0  0  0  0  0  0  0  0
  -22.6920   11.5210   25.9060 S   0  0  0  0  0  0  0  0  0  0  0  0
  -21.3130   12.5940   25.8410 C   0  0  0  0  0  0  0  0  0  0  0  0
  2  1  2  0
  3  1  1  0
  4  3  1  0
  5  3  1  0
  6  5  1  0
  7  6  1  0
  8  7  1  0
  9  8  1  0
 10  9  1  0
 11  9  1  0
 12 11  1  0
 12  7  1  0
 13  5  1  0
 13 12  1  0
 15 14  1  0
 16 15  1  0
 17 16  2  0
 18 17  1  0
 19 18  1  0
 19 15  2  0
 19  1  1  0
M  END
>  <original SMILES>  (15) 
Cc1ccsc1C(=O)N(C)[C@H]1C[C@H]2C[C@@H](O)C[C@H]2C1

>  <ref_pdb>  (15) 
F309-Si-292_bound.pdb

>  <ref_mols>  (15) 
x20370_0A

>  <CNNaffinity>  (15) 
5.4408640862

>  <SuCos Score>  (15) 
0.6001759369045303

>  <Polar Hotspot>  (15) 
37.73

>  <Apolar Hotspot>  (15) 
198.94

>  <dH av>  (15) 
-40.36354856031492

>  <-TdS av>  (15) 
8.954605870247558

>  <dG av>  (15) 
-31.40894269006736

>  <Price>  (15) 
1840

>  <Lead time>  (15) 
9

$$$$
F710-Su-420
     RDKit          3D

 28 29  0  0  0  0  0  0  0  0999 V2000
  -16.1550   16.2740   26.3790 N   0  0  0  0  0  0  0  0  0  0  0  0
  -15.9850   15.1180   27.1510 C   0  0  0  0  0  0  0  0  0  0  0  0
  -15.4550   15.1330   28.2260 O   0  0  0  0  0  0  0  0  0  0  0  0
  -16.5920   13.9070   26.6650 N   0  0  0  0  0  0  0  0  0  0  0  0
  -17.2150   12.9490   27.5640 C   0  0  0  0  0  0  0  0  0  0  0  0
  -18.7150   13.2700   27.7290 C   0  0  0  0  0  0  0  0  0  0  0  0
  -19.5040   13.5260   26.5250 N   0  0  0  0  0  0  0  0  0  0  0  0
  -18.7690   14.3090   25.4660 C   0  0  0  0  0  0  0  0  0  0  0  0
  -17.3010   13.7500   25.3570 C   0  0  0  0  0  0  0  0  0  0  0  0
  -20.8350   13.1180   26.4420 C   0  0  0  0  0  0  0  0  0  0  0  0
  -21.2020   12.2390   25.3310 C   0  0  0  0  0  0  0  0  0  0  0  0
  -22.5540   11.9690   25.1350 C   0  0  0  0  0  0  0  0  0  0  0  0
  -23.5010   12.5250   25.9700 C   0  0  0  0  0  0  0  0  0  0  0  0
  -24.8010   12.2940   25.7910 F   0  0  0  0  0  0  0  0  0  0  0  0
  -23.1850   13.2460   27.1250 C   0  0  0  0  0  0  0  0  0  0  0  0
  -21.8110   13.5280   27.4010 C   0  0  0  0  0  0  0  0  0  0  0  0
  -15.8870   17.6100   26.8420 C   0  0  0  0  0  0  0  0  0  0  0  0
  -14.4370   18.0060   26.9020 C   0  0  0  0  0  0  0  0  0  0  0  0
  -14.2800   19.5210   27.2340 C   0  0  0  0  0  0  0  0  0  0  0  0
  -14.6530   19.8520   28.7280 C   0  0  0  0  0  0  0  0  0  0  0  0
  -15.7300   21.0530   28.7710 C   0  0  0  0  0  0  0  0  0  0  0  0
  -17.0920   20.8040   28.1650 C   0  0  0  0  0  0  0  0  0  0  0  0
  -19.1210   19.2600   28.1870 C   0  0  0  0  0  0  0  0  0  0  0  0
  -17.9460   19.8580   29.0210 C   0  0  0  0  0  0  0  0  0  0  0  0
  -16.4900   14.1650   24.0240 C   0  0  0  0  0  0  0  0  0  0  0  0
  -15.5440   13.0850   23.4910 C   0  0  0  0  0  0  0  0  0  0  0  0
  -14.5530   13.6330   22.4210 C   0  0  0  0  0  0  0  0  0  0  0  0
  -13.5290   14.6180   22.9900 C   0  0  0  0  0  0  0  0  0  0  0  0
  2  1  1  0
  3  2  2  0
  4  2  1  0
  5  4  1  0
  6  5  1  0
  7  6  1  0
  8  7  1  0
  9  8  1  0
  9  4  1  0
 10  7  1  0
 11 10  2  0
 12 11  1  0
 13 12  2  0
 14 13  1  0
 15 13  1  0
 16 15  2  0
 16 10  1  0
 17  1  1  0
 18 17  1  0
 19 18  1  0
 20 19  1  0
 21 20  1  0
 22 21  1  0
 24 23  1  0
 24 22  1  0
 25  9  1  0
 26 25  1  0
 27 26  1  0
 28 27  1  0
M  END
>  <original SMILES>  (16) 
CCCCCCCCNC(=O)N1CCN(c2ccc(F)cc2)CC1CCCC

>  <ref_pdb>  (16) 
F710-Su-420_bound.pdb

>  <ref_mols>  (16) 
x20552_0A

>  <CNNaffinity>  (16) 
6.2863340378

>  <SuCos Score>  (16) 
0.6543939647692629

>  <Polar Hotspot>  (16) 
34.59

>  <Apolar Hotspot>  (16) 
159.4

>  <dH av>  (16) 
-42.87473565480323

>  <-TdS av>  (16) 
11.47059504512025

>  <dG av>  (16) 
-31.404140609682983

>  <Price>  (16) 
2250

>  <Lead time>  (16) 
9

$$$$
F275-Si-565
     RDKit          3D

 32 35  0  0  0  0  0  0  0  0999 V2000
  -22.4020    8.7180   33.8630 C   0  0  0  0  0  0  0  0  0  0  0  0
  -21.2390    8.3540   34.1140 O   0  0  0  0  0  0  0  0  0  0  0  0
  -23.1500    9.9870   34.1100 N   0  0  0  0  0  0  0  0  0  0  0  0
  -22.2990   10.8370   35.0580 C   0  0  0  0  0  0  0  0  0  0  0  0
  -21.5480   11.3950   33.7980 C   0  0  0  0  0  0  0  0  0  0  0  0
  -22.7660   10.8640   32.9660 C   0  0  0  0  0  0  0  0  0  0  0  0
  -22.5250   10.1290   31.5610 C   0  0  0  0  0  0  0  0  0  0  0  0
  -22.2380   11.2370   30.4550 C   0  0  0  0  0  0  0  0  0  0  0  0
  -23.2850   12.2070   30.3080 N   0  0  0  0  0  0  0  0  0  0  0  0
  -23.8650   12.5430   29.0870 C   0  0  0  0  0  0  0  0  0  0  0  0
  -24.9840   13.0420   29.0090 O   0  0  0  0  0  0  0  0  0  0  0  0
  -23.8400   12.7580   31.5830 C   0  0  0  0  0  0  0  0  0  0  0  0
  -23.9940   11.7870   32.7810 C   0  0  0  0  0  0  0  0  0  0  0  0
  -23.1050    5.2850   30.2440 C   0  0  0  0  0  0  0  0  0  0  0  0
  -23.6490    6.0870   31.4550 C   0  0  0  0  0  0  0  0  0  0  0  0
  -24.9120    5.8120   31.9700 C   0  0  0  0  0  0  0  0  0  0  0  0
  -25.3990    6.6380   33.0110 C   0  0  0  0  0  0  0  0  0  0  0  0
  -26.6830    6.5250   33.4110 F   0  0  0  0  0  0  0  0  0  0  0  0
  -24.5340    7.5690   33.5510 C   0  0  0  0  0  0  0  0  0  0  0  0
  -23.2700    7.7610   33.1630 C   0  0  0  0  0  0  0  0  0  0  0  0
  -22.7630    6.9960   32.0940 C   0  0  0  0  0  0  0  0  0  0  0  0
  -23.0990   12.2010   27.8040 C   0  0  0  0  0  0  0  0  0  0  0  0
  -23.7930   11.8270   26.5860 C   0  0  0  0  0  0  0  0  0  0  0  0
  -22.9340   11.6410   25.4850 C   0  0  0  0  0  0  0  0  0  0  0  0
  -23.5860   11.4150   24.3100 F   0  0  0  0  0  0  0  0  0  0  0  0
  -21.5420   11.9220   25.4780 C   0  0  0  0  0  0  0  0  0  0  0  0
  -20.8690   12.3680   26.6280 C   0  0  0  0  0  0  0  0  0  0  0  0
  -21.6880   12.4740   27.7660 C   0  0  0  0  0  0  0  0  0  0  0  0
  -19.4170   12.6690   26.6510 C   0  0  0  0  0  0  0  0  0  0  0  0
  -19.3000   14.0300   26.6040 F   0  0  0  0  0  0  0  0  0  0  0  0
  -18.8290   12.1440   25.5560 F   0  0  0  0  0  0  0  0  0  0  0  0
  -18.7790   12.2050   27.7880 F   0  0  0  0  0  0  0  0  0  0  0  0
  2  1  2  0
  3  1  1  0
  4  3  1  0
  5  4  1  0
  6  3  1  0
  6  5  1  0
  7  6  1  0
  8  7  1  0
  9  8  1  0
 10  9  1  0
 11 10  2  0
 12  9  1  0
 13  6  1  0
 13 12  1  0
 15 14  1  0
 16 15  2  0
 17 16  1  0
 18 17  1  0
 19 17  2  0
 20 19  1  0
 20  1  1  0
 21 15  1  0
 21 20  2  0
 22 10  1  0
 23 22  2  0
 24 23  1  0
 25 24  1  0
 26 24  2  0
 27 26  1  0
 28 22  1  0
 28 27  2  0
 29 27  1  0
 30 29  1  0
 31 29  1  0
 32 29  1  0
M  END
>  <original SMILES>  (17) 
Cc1cc(F)cc(C(=O)N2CCC23CCN(C(=O)c2cc(F)cc(C(F)(F)F)c2)CC3)c1

>  <ref_pdb>  (17) 
F275-Si-565_bound.pdb

>  <ref_mols>  (17) 
x20971_0A

>  <CNNaffinity>  (17) 
5.8437285423

>  <SuCos Score>  (17) 
0.5958621732493293

>  <Polar Hotspot>  (17) 
0.0

>  <Apolar Hotspot>  (17) 
196.63

>  <dH av>  (17) 
-34.88799385196857

>  <-TdS av>  (17) 
3.6837205485778632

>  <dG av>  (17) 
-31.204273303390703

>  <Price>  (17) 
790

>  <Lead time>  (17) 
6

$$$$
F217-Su-482
     RDKit          3D

 34 37  0  0  0  0  0  0  0  0999 V2000
  -19.6810   11.5630   25.8130 C   0  0  0  0  0  0  0  0  0  0  0  0
  -20.3300   10.9180   24.7820 N   0  0  0  0  0  0  0  0  0  0  0  0
  -21.5690   11.3640   24.9630 C   0  0  0  0  0  0  0  0  0  0  0  0
  -22.6220   11.0230   24.2180 C   0  0  0  0  0  0  0  0  0  0  0  0
  -23.9260   11.4210   24.4760 C   0  0  0  0  0  0  0  0  0  0  0  0
  -24.1470   12.1200   25.6510 C   0  0  0  0  0  0  0  0  0  0  0  0
  -25.4760   12.4480   26.0080 F   0  0  0  0  0  0  0  0  0  0  0  0
  -23.1220   12.3920   26.5550 C   0  0  0  0  0  0  0  0  0  0  0  0
  -21.7660   12.0930   26.0780 C   0  0  0  0  0  0  0  0  0  0  0  0
  -20.5690   12.2430   26.7320 N   0  0  0  0  0  0  0  0  0  0  0  0
  -14.8360   12.4990   25.3430 C   0  0  0  0  0  0  0  0  0  0  0  0
  -13.6400   12.1840   25.4390 O   0  0  0  0  0  0  0  0  0  0  0  0
  -15.8600   12.2800   26.3310 N   0  0  0  0  0  0  0  0  0  0  0  0
  -15.5910   11.2670   27.4050 C   0  0  0  0  0  0  0  0  0  0  0  0
  -16.3410    9.9980   27.1040 C   0  0  0  0  0  0  0  0  0  0  0  0
  -17.8400   10.2940   27.0720 C   0  0  0  0  0  0  0  0  0  0  0  0
  -18.2000   11.3280   26.0140 C   0  0  0  0  0  0  0  0  0  0  0  0
  -17.3160   12.6660   26.2310 C   0  0  0  0  0  0  0  0  0  0  0  0
  -15.3760   13.1930   24.2670 O   0  0  0  0  0  0  0  0  0  0  0  0
  -13.9330   14.7510   23.4110 C   0  0  0  0  0  0  0  0  0  0  0  0
  -14.5930   13.4920   23.1150 C   0  0  0  0  0  0  0  0  0  0  0  0
  -20.3780   12.7820   28.0800 C   0  0  0  0  0  0  0  0  0  0  0  0
  -20.4240   14.3320   28.1060 C   0  0  0  0  0  0  0  0  0  0  0  0
  -20.1670   14.8220   29.5280 C   0  0  0  0  0  0  0  0  0  0  0  0
  -20.0400   14.0380   30.4720 O   0  0  0  0  0  0  0  0  0  0  0  0
  -20.2540   16.2140   29.7630 N   0  0  0  0  0  0  0  0  0  0  0  0
  -19.6910   17.2250   28.8540 C   0  0  0  0  0  0  0  0  0  0  0  0
  -18.2220   17.0160   28.5240 C   0  0  0  0  0  0  0  0  0  0  0  0
  -17.5930   18.2090   27.8770 C   0  0  0  0  0  0  0  0  0  0  0  0
  -18.6090   19.1580   27.1050 C   0  0  0  0  0  0  0  0  0  0  0  0
  -19.9290   18.4500   26.6290 C   0  0  0  0  0  0  0  0  0  0  0  0
  -20.6120   17.6310   27.7410 C   0  0  0  0  0  0  0  0  0  0  0  0
  -20.8430   16.6960   31.0700 C   0  0  0  0  0  0  0  0  0  0  0  0
  -22.3280   16.7420   31.1310 C   0  0  0  0  0  0  0  0  0  0  0  0
  2  1  2  0
  3  2  1  0
  4  3  2  0
  5  4  1  0
  6  5  2  0
  7  6  1  0
  8  6  1  0
  9  8  2  0
  9  3  1  0
 10  9  1  0
 10  1  1  0
 12 11  2  0
 13 11  1  0
 14 13  1  0
 15 14  1  0
 16 15  1  0
 17 16  1  0
 17  1  1  0
 18 17  1  0
 18 13  1  0
 19 11  1  0
 21 20  1  0
 21 19  1  0
 22 10  1  0
 23 22  1  0
 24 23  1  0
 25 24  2  0
 26 24  1  0
 27 26  1  0
 28 27  1  0
 29 28  1  0
 30 29  1  0
 31 30  1  0
 32 31  1  0
 32 27  1  0
 33 26  1  0
 34 33  1  0
M  END
>  <original SMILES>  (18) 
CCOC(=O)N1CCCC(c2nc3ccc(F)cc3n2CCC(=O)N(CC)C2CCCCC2)C1

>  <ref_pdb>  (18) 
F217-Su-482_bound.pdb

>  <ref_mols>  (18) 
x20566_0A

>  <CNNaffinity>  (18) 
6.8164319992

>  <SuCos Score>  (18) 
0.5511400978200208

>  <Polar Hotspot>  (18) 
49.83

>  <Apolar Hotspot>  (18) 
297.92

>  <dH av>  (18) 
-41.38655585984256

>  <-TdS av>  (18) 
10.489734683033385

>  <dG av>  (18) 
-30.896821176809176

>  <Price>  (18) 
1450

>  <Lead time>  (18) 
8

$$$$
F179-Si-413
     RDKit          3D

 25 28  0  0  0  0  0  0  0  0999 V2000
  -18.5800   13.9440   25.7740 C   0  0  0  0  0  0  0  0  0  0  0  0
  -17.9900   15.0250   26.5360 O   0  0  0  0  0  0  0  0  0  0  0  0
  -17.5100   14.4250   27.7300 C   0  0  0  0  0  0  0  0  0  0  0  0
  -18.4400   13.3310   28.1800 C   0  0  0  0  0  0  0  0  0  0  0  0
  -19.1320   12.8930   26.8760 C   0  0  0  0  0  0  0  0  0  0  0  0
  -15.7980   12.8400   23.7550 N   0  0  0  0  0  0  0  0  0  0  0  0
  -16.4450   13.8500   24.5080 C   0  0  0  0  0  0  0  0  0  0  0  0
  -17.5920   13.2510   24.9530 C   0  0  0  0  0  0  0  0  0  0  0  0
  -17.5250   11.9190   24.5580 C   0  0  0  0  0  0  0  0  0  0  0  0
  -16.4340   11.6450   23.7950 N   0  0  0  0  0  0  0  0  0  0  0  0
  -13.2880   13.0400   23.6530 C   0  0  0  0  0  0  0  0  0  0  0  0
  -14.6320   13.0820   22.9330 C   0  0  0  0  0  0  0  0  0  0  0  0
  -14.5080   12.1850   21.7160 C   0  0  0  0  0  0  0  0  0  0  0  0
  -20.5870   12.8700   26.9570 N   0  0  0  0  0  0  0  0  0  0  0  0
  -21.4260   12.3630   26.0450 C   0  0  0  0  0  0  0  0  0  0  0  0
  -21.0900   12.2330   24.8880 O   0  0  0  0  0  0  0  0  0  0  0  0
  -22.7250   12.0260   26.5430 C   0  0  0  0  0  0  0  0  0  0  0  0
  -23.7190   11.3760   25.6890 C   0  0  0  0  0  0  0  0  0  0  0  0
  -24.7940   11.2230   26.4860 N   0  0  0  0  0  0  0  0  0  0  0  0
  -24.3680   11.5270   27.7470 N   0  0  0  0  0  0  0  0  0  0  0  0
  -23.1220   11.9780   27.8500 C   0  0  0  0  0  0  0  0  0  0  0  0
  -25.3490   11.3330   28.8660 C   0  0  0  0  0  0  0  0  0  0  0  0
  -25.7580   12.5300   29.7260 C   0  0  0  0  0  0  0  0  0  0  0  0
  -26.1980   11.4260   30.6970 C   0  0  0  0  0  0  0  0  0  0  0  0
  -24.8370   10.7350   30.1970 C   0  0  0  0  0  0  0  0  0  0  0  0
  2  1  1  0
  3  2  1  0
  4  3  1  0
  5  1  1  0
  5  4  1  0
  7  6  1  0
  8  7  2  0
  8  1  1  0
  9  8  1  0
 10  9  2  0
 10  6  1  0
 12 11  1  0
 12  6  1  0
 13 12  1  0
 14  5  1  0
 15 14  1  0
 16 15  2  0
 17 15  1  0
 18 17  1  0
 19 18  2  0
 20 19  1  0
 21 17  2  0
 21 20  1  0
 22 20  1  0
 23 22  1  0
 24 23  1  0
 25 24  1  0
 25 22  1  0
M  END
>  <original SMILES>  (19) 
CC(C)n1cc([C@@H]2OCC[C@H]2NC(=O)c2cnn(C3CCC3)c2)cn1

>  <ref_pdb>  (19) 
F179-Si-413_bound.pdb

>  <ref_mols>  (19) 
x20595_0A

>  <CNNaffinity>  (19) 
6.3082418442

>  <SuCos Score>  (19) 
0.598898122298058

>  <Polar Hotspot>  (19) 
78.07

>  <Apolar Hotspot>  (19) 
139.55

>  <dH av>  (19) 
-42.79385175055118

>  <-TdS av>  (19) 
11.97760133777516

>  <dG av>  (19) 
-30.81625041277601

>  <Price>  (19) 
250

>  <Lead time>  (19) 
4

$$$$
F579-Si-487
     RDKit          3D

 38 42  0  0  0  0  0  0  0  0999 V2000
  -26.7180   14.8480   30.8540 C   0  0  0  0  0  0  0  0  0  0  0  0
  -26.0140   14.1940   29.5780 C   0  0  0  0  0  0  0  0  0  0  0  0
  -26.6550   14.0380   28.5570 O   0  0  0  0  0  0  0  0  0  0  0  0
  -24.6480   13.9170   29.6520 N   0  0  0  0  0  0  0  0  0  0  0  0
  -23.8440   13.4750   28.6230 C   0  0  0  0  0  0  0  0  0  0  0  0
  -24.3210   12.9710   27.5020 N   0  0  0  0  0  0  0  0  0  0  0  0
  -23.2240   12.5460   26.7590 C   0  0  0  0  0  0  0  0  0  0  0  0
  -23.3200   11.9280   25.5240 C   0  0  0  0  0  0  0  0  0  0  0  0
  -22.1720   11.5140   24.8210 C   0  0  0  0  0  0  0  0  0  0  0  0
  -20.8990   11.7670   25.3330 C   0  0  0  0  0  0  0  0  0  0  0  0
  -20.7660   12.4950   26.4970 C   0  0  0  0  0  0  0  0  0  0  0  0
  -21.9720   12.8390   27.2220 C   0  0  0  0  0  0  0  0  0  0  0  0
  -22.0440   13.6560   28.8690 S   0  0  0  0  0  0  0  0  0  0  0  0
  -19.8300   11.3120   24.6610 O   0  0  0  0  0  0  0  0  0  0  0  0
  -18.4960   11.4560   25.1330 C   0  0  0  0  0  0  0  0  0  0  0  0
  -26.1630   16.2400   31.4200 C   0  0  0  0  0  0  0  0  0  0  0  0
  -25.2400   17.8180   29.8400 N   0  0  0  0  0  0  0  0  0  0  0  0
  -24.9010   16.7880   30.7200 C   0  0  0  0  0  0  0  0  0  0  0  0
  -23.7340   16.5590   30.9860 O   0  0  0  0  0  0  0  0  0  0  0  0
  -21.6230   21.5230   26.5730 C   0  0  0  0  0  0  0  0  0  0  0  0
  -20.7300   20.7610   27.3550 C   0  0  0  0  0  0  0  0  0  0  0  0
  -21.1930   19.7070   28.1170 C   0  0  0  0  0  0  0  0  0  0  0  0
  -22.5780   19.4950   28.2460 C   0  0  0  0  0  0  0  0  0  0  0  0
  -23.0510   18.5410   29.1370 N   0  0  0  0  0  0  0  0  0  0  0  0
  -24.4140   18.5780   28.9850 C   0  0  0  0  0  0  0  0  0  0  0  0
  -25.1180   19.7610   27.8480 S   0  0  0  0  0  0  0  0  0  0  0  0
  -23.4720   20.3070   27.5040 C   0  0  0  0  0  0  0  0  0  0  0  0
  -23.0190   21.3300   26.7020 C   0  0  0  0  0  0  0  0  0  0  0  0
  -21.9340   23.0990   24.7290 C   0  0  0  0  0  0  0  0  0  0  0  0
  -21.1200   22.4470   25.6820 O   0  0  0  0  0  0  0  0  0  0  0  0
  -28.1920   14.9730   30.7430 C   0  0  0  0  0  0  0  0  0  0  0  0
  -28.8290   13.6130   30.7780 C   0  0  0  0  0  0  0  0  0  0  0  0
  -28.7620   12.8800   31.9610 C   0  0  0  0  0  0  0  0  0  0  0  0
  -29.5320   11.7270   31.9970 C   0  0  0  0  0  0  0  0  0  0  0  0
  -30.2480   11.2100   30.9090 C   0  0  0  0  0  0  0  0  0  0  0  0
  -31.1220    9.7060   31.0380 Cl  0  0  0  0  0  0  0  0  0  0  0  0
  -30.1660   11.8950   29.6640 C   0  0  0  0  0  0  0  0  0  0  0  0
  -29.3460   13.0580   29.5680 C   0  0  0  0  0  0  0  0  0  0  0  0
  2  1  1  0
  3  2  2  0
  4  2  1  0
  5  4  1  0
  6  5  2  0
  7  6  1  0
  8  7  2  0
  9  8  1  0
 10  9  2  0
 11 10  1  0
 12  7  1  0
 12 11  2  0
 13 12  1  0
 13  5  1  0
 14 10  1  0
 15 14  1  0
 16  1  1  0
 18 16  1  0
 18 17  1  0
 19 18  2  0
 21 20  2  0
 22 21  1  0
 23 22  2  0
 24 23  1  0
 25 24  2  0
 25 17  1  0
 26 25  1  0
 27 26  1  0
 27 23  1  0
 28 27  2  0
 28 20  1  0
 30 29  1  0
 30 20  1  0
 31  1  1  0
 32 31  1  0
 33 32  2  0
 34 33  1  0
 35 34  2  0
 36 35  1  0
 37 35  1  0
 38 37  2  0
 38 32  1  0
M  END
>  <original SMILES>  (20) 
COc1ccc2nc(NC(=O)CC(Cc3ccc(Cl)cc3)C(=O)Nc3nc4ccc(OC)cc4s3)sc2c1

>  <ref_pdb>  (20) 
F579-Si-487_bound.pdb

>  <ref_mols>  (20) 
x20916_0A

>  <CNNaffinity>  (20) 
6.4525690079

>  <SuCos Score>  (20) 
0.5804603325615012

>  <Polar Hotspot>  (20) 
38.09

>  <Apolar Hotspot>  (20) 
57.81

>  <dH av>  (20) 
-37.5280558431497

>  <-TdS av>  (20) 
7.020485392655083

>  <dG av>  (20) 
-30.50757045049462

>  <Price>  (20) 
790

>  <Lead time>  (20) 
6

$$$$
F421-Su-636
     RDKit          3D

 22 25  0  0  0  0  0  0  0  0999 V2000
  -21.3790   12.2750   25.9790 C   0  0  0  0  0  0  0  0  0  0  0  0
  -21.6830   11.8410   24.8730 O   0  0  0  0  0  0  0  0  0  0  0  0
  -20.0740   12.5900   26.3440 N   0  0  0  0  0  0  0  0  0  0  0  0
  -19.4820   13.1930   27.5650 C   0  0  0  0  0  0  0  0  0  0  0  0
  -17.9740   13.3960   27.2500 C   0  0  0  0  0  0  0  0  0  0  0  0
  -17.9430   13.4370   25.7520 C   0  0  0  0  0  0  0  0  0  0  0  0
  -18.9390   12.3460   25.4400 C   0  0  0  0  0  0  0  0  0  0  0  0
  -18.9840   12.1110   23.9480 C   0  0  0  0  0  0  0  0  0  0  0  0
  -17.4030   12.3570   23.7970 C   0  0  0  0  0  0  0  0  0  0  0  0
  -16.7730   13.1660   24.9570 N   0  0  0  0  0  0  0  0  0  0  0  0
  -24.3870   13.0100   29.9110 C   0  0  0  0  0  0  0  0  0  0  0  0
  -23.8000   12.6900   28.6540 N   0  0  0  0  0  0  0  0  0  0  0  0
  -22.5090   12.9100   28.2210 C   0  0  0  0  0  0  0  0  0  0  0  0
  -22.4540   12.4580   26.9330 C   0  0  0  0  0  0  0  0  0  0  0  0
  -23.8350   12.1790   26.6110 C   0  0  0  0  0  0  0  0  0  0  0  0
  -24.6170   12.2700   27.6800 N   0  0  0  0  0  0  0  0  0  0  0  0
  -15.9230   14.3880   24.4110 C   0  0  0  0  0  0  0  0  0  0  0  0
  -14.6550   14.0040   23.6740 C   0  0  0  0  0  0  0  0  0  0  0  0
  -14.0290   12.9090   23.9610 N   0  0  0  0  0  0  0  0  0  0  0  0
  -12.7320   12.9550   23.4650 C   0  0  0  0  0  0  0  0  0  0  0  0
  -12.4880   14.0740   22.7910 C   0  0  0  0  0  0  0  0  0  0  0  0
  -13.8360   15.1760   22.6610 S   0  0  0  0  0  0  0  0  0  0  0  0
  2  1  2  0
  3  1  1  0
  4  3  1  0
  5  4  1  0
  6  5  1  0
  7  6  1  0
  7  3  1  0
  8  7  1  0
  9  8  1  0
 10  9  1  0
 10  6  1  0
 12 11  1  0
 13 12  1  0
 14 13  2  0
 14  1  1  0
 15 14  1  0
 16 15  2  0
 16 12  1  0
 17 10  1  0
 18 17  1  0
 19 18  2  0
 20 19  1  0
 21 20  2  0
 22 21  1  0
 22 18  1  0
M  END
>  <original SMILES>  (21) 
Cn1cc(C(=O)N2CC[C@@H]3[C@@H]2CCN3Cc2nccs2)cn1

>  <ref_pdb>  (21) 
F421-Su-636_bound.pdb

>  <ref_mols>  (21) 
x20584_0A

>  <CNNaffinity>  (21) 
5.8569412231

>  <SuCos Score>  (21) 
0.5543618119480547

>  <Polar Hotspot>  (21) 
57.77

>  <Apolar Hotspot>  (21) 
97.24

>  <dH av>  (21) 
-44.29494772125995

>  <-TdS av>  (21) 
14.270246885912073

>  <dG av>  (21) 
-30.02470083534788

>  <Price>  (21) 
5900

>  <Lead time>  (21) 
14

$$$$
F369-Si-568
     RDKit          3D

 31 34  0  0  0  0  0  0  0  0999 V2000
  -21.9540   10.9040   27.8010 C   0  0  0  0  0  0  0  0  0  0  0  0
  -22.8390   10.2760   27.1810 O   0  0  0  0  0  0  0  0  0  0  0  0
  -20.5700   10.6460   27.6700 N   0  0  0  0  0  0  0  0  0  0  0  0
  -19.5190   11.1210   28.4830 C   0  0  0  0  0  0  0  0  0  0  0  0
  -18.7600   12.3690   27.9480 C   0  0  0  0  0  0  0  0  0  0  0  0
  -18.2480   12.1540   26.5600 C   0  0  0  0  0  0  0  0  0  0  0  0
  -19.2360   11.2460   25.6670 C   0  0  0  0  0  0  0  0  0  0  0  0
  -19.9600   10.1510   26.4540 C   0  0  0  0  0  0  0  0  0  0  0  0
  -17.9370   13.3920   25.7950 N   0  0  0  0  0  0  0  0  0  0  0  0
  -17.7800   14.6660   26.2870 C   0  0  0  0  0  0  0  0  0  0  0  0
  -17.4830   15.4400   25.2130 C   0  0  0  0  0  0  0  0  0  0  0  0
  -17.6120   14.6060   24.0700 C   0  0  0  0  0  0  0  0  0  0  0  0
  -17.9070   13.3240   24.4430 N   0  0  0  0  0  0  0  0  0  0  0  0
  -17.1100   16.7420   25.1290 N   0  0  0  0  0  0  0  0  0  0  0  0
  -16.9820   17.5970   26.1830 C   0  0  0  0  0  0  0  0  0  0  0  0
  -17.4220   17.2830   27.2590 O   0  0  0  0  0  0  0  0  0  0  0  0
  -16.2150   18.8600   25.9080 C   0  0  0  0  0  0  0  0  0  0  0  0
  -14.7650   18.4300   25.6220 C   0  0  0  0  0  0  0  0  0  0  0  0
  -13.8590   19.6890   25.6740 C   0  0  0  0  0  0  0  0  0  0  0  0
  -14.0130   20.5860   26.9660 C   0  0  0  0  0  0  0  0  0  0  0  0
  -15.4570   21.0700   27.0120 C   0  0  0  0  0  0  0  0  0  0  0  0
  -16.4070   19.8620   27.0630 C   0  0  0  0  0  0  0  0  0  0  0  0
  -22.2440   12.0460   28.7410 C   0  0  0  0  0  0  0  0  0  0  0  0
  -25.8160   12.3770   31.9410 C   0  0  0  0  0  0  0  0  0  0  0  0
  -26.2500   12.9890   30.5240 C   0  0  0  0  0  0  0  0  0  0  0  0
  -27.7090   13.6410   30.7540 C   0  0  0  0  0  0  0  0  0  0  0  0
  -26.2260   12.0160   29.3930 C   0  0  0  0  0  0  0  0  0  0  0  0
  -24.8070   11.4390   29.0160 C   0  0  0  0  0  0  0  0  0  0  0  0
  -23.7510   12.5160   28.6890 C   0  0  0  0  0  0  0  0  0  0  0  0
  -23.8730   13.7670   29.6770 C   0  0  0  0  0  0  0  0  0  0  0  0
  -25.3100   14.2040   30.0830 C   0  0  0  0  0  0  0  0  0  0  0  0
  2  1  2  0
  3  1  1  0
  4  3  1  0
  5  4  1  0
  6  5  1  0
  7  6  1  0
  8  3  1  0
  8  7  1  0
  9  6  1  0
 10  9  1  0
 11 10  2  0
 12 11  1  0
 13 12  2  0
 13  9  1  0
 14 11  1  0
 15 14  1  0
 16 15  2  0
 17 15  1  0
 18 17  1  0
 19 18  1  0
 20 19  1  0
 21 20  1  0
 22 21  1  0
 22 17  1  0
 23  1  1  0
 25 24  1  0
 26 25  1  0
 27 25  1  0
 28 27  1  0
 29 28  1  0
 29 23  1  0
 30 29  1  0
 31 30  1  0
 31 25  1  0
M  END
>  <original SMILES>  (22) 
CC1(C)CCC(CC(=O)N2CCC(n3cc(NC(=O)C4CCCCC4)cn3)CC2)CC1

>  <ref_pdb>  (22) 
F369-Si-568_bound.pdb

>  <ref_mols>  (22) 
x20710_0A

>  <CNNaffinity>  (22) 
6.136721611

>  <SuCos Score>  (22) 
0.7401885299799936

>  <Polar Hotspot>  (22) 
66.49

>  <Apolar Hotspot>  (22) 
143.62

>  <dH av>  (22) 
-39.30900902740171

>  <-TdS av>  (22) 
9.293375648732148

>  <dG av>  (22) 
-30.01563337866956

>  <Price>  (22) 
650

>  <Lead time>  (22) 
6

$$$$
F205-Su-289
     RDKit          3D

 19 20  0  0  0  0  0  0  0  0999 V2000
  -23.5070   11.8760   25.9240 N   0  0  0  0  0  0  0  0  0  0  0  0
  -25.6920   13.7120   30.9020 C   0  0  0  0  0  0  0  0  0  0  0  0
  -25.0230   13.3950   29.5900 C   0  0  0  0  0  0  0  0  0  0  0  0
  -23.7530   12.9710   29.5950 C   0  0  0  0  0  0  0  0  0  0  0  0
  -23.1880   12.5050   28.3300 C   0  0  0  0  0  0  0  0  0  0  0  0
  -23.9600   12.4810   27.1410 C   0  0  0  0  0  0  0  0  0  0  0  0
  -25.3540   13.0750   27.2140 C   0  0  0  0  0  0  0  0  0  0  0  0
  -25.9820   13.1330   26.1860 O   0  0  0  0  0  0  0  0  0  0  0  0
  -25.8120   13.5000   28.4360 N   0  0  0  0  0  0  0  0  0  0  0  0
  -27.1340   14.1720   28.5190 C   0  0  0  0  0  0  0  0  0  0  0  0
  -22.1960   11.3310   25.6150 C   0  0  0  0  0  0  0  0  0  0  0  0
  -21.0490   12.2690   25.7240 C   0  0  0  0  0  0  0  0  0  0  0  0
  -21.1100   13.5120   25.0330 C   0  0  0  0  0  0  0  0  0  0  0  0
  -20.0330   14.4500   25.2030 C   0  0  0  0  0  0  0  0  0  0  0  0
  -18.9940   14.1880   26.0380 C   0  0  0  0  0  0  0  0  0  0  0  0
  -17.5720   15.2860   26.2270 Cl  0  0  0  0  0  0  0  0  0  0  0  0
  -18.9720   12.9640   26.7600 C   0  0  0  0  0  0  0  0  0  0  0  0
  -19.9420   11.9660   26.5060 C   0  0  0  0  0  0  0  0  0  0  0  0
  -19.7810   10.7820   27.1370 F   0  0  0  0  0  0  0  0  0  0  0  0
  3  2  1  0
  4  3  2  0
  5  4  1  0
  6  1  1  0
  6  5  2  0
  7  6  1  0
  8  7  2  0
  9  7  1  0
  9  3  1  0
 10  9  1  0
 11  1  1  0
 12 11  1  0
 13 12  2  0
 14 13  1  0
 15 14  2  0
 16 15  1  0
 17 15  1  0
 18 17  2  0
 18 12  1  0
 19 18  1  0
M  END
>  <original SMILES>  (23) 
Cc1ccc(NCc2ccc(Cl)cc2F)c(=O)n1C

>  <ref_pdb>  (23) 
F205-Su-289_bound.pdb

>  <ref_mols>  (23) 
x20529_0A

>  <CNNaffinity>  (23) 
5.1521215439

>  <SuCos Score>  (23) 
0.608795244580599

>  <Polar Hotspot>  (23) 
31.27

>  <Apolar Hotspot>  (23) 
175.45

>  <dH av>  (23) 
-35.25244488850396

>  <-TdS av>  (23) 
5.4202200410875285

>  <dG av>  (23) 
-29.83222484741643

>  <Price>  (23) 
79

>  <Lead time>  (23) 
1

$$$$
F217-Su-483
     RDKit          3D

 34 37  0  0  0  0  0  0  0  0999 V2000
  -19.2550   12.3610   24.4850 C   0  0  0  0  0  0  0  0  0  0  0  0
  -20.3050   11.7130   24.0330 N   0  0  0  0  0  0  0  0  0  0  0  0
  -21.1770   11.9150   25.0400 C   0  0  0  0  0  0  0  0  0  0  0  0
  -22.5290   11.3780   25.1370 C   0  0  0  0  0  0  0  0  0  0  0  0
  -23.3710   11.7400   26.2140 C   0  0  0  0  0  0  0  0  0  0  0  0
  -22.8320   12.5890   27.2350 C   0  0  0  0  0  0  0  0  0  0  0  0
  -21.4810   13.0460   27.1890 C   0  0  0  0  0  0  0  0  0  0  0  0
  -20.7390   12.7150   26.0510 C   0  0  0  0  0  0  0  0  0  0  0  0
  -19.3970   13.0120   25.8050 N   0  0  0  0  0  0  0  0  0  0  0  0
  -14.4500   13.5510   23.4880 C   0  0  0  0  0  0  0  0  0  0  0  0
  -14.4490   14.5910   24.1080 O   0  0  0  0  0  0  0  0  0  0  0  0
  -15.6000   12.8430   23.1950 N   0  0  0  0  0  0  0  0  0  0  0  0
  -15.5010   11.5330   22.4460 C   0  0  0  0  0  0  0  0  0  0  0  0
  -16.7720   10.8650   22.1430 C   0  0  0  0  0  0  0  0  0  0  0  0
  -17.7150   10.8070   23.3100 C   0  0  0  0  0  0  0  0  0  0  0  0
  -18.0230   12.2780   23.6090 C   0  0  0  0  0  0  0  0  0  0  0  0
  -16.8230   13.0260   24.1320 C   0  0  0  0  0  0  0  0  0  0  0  0
  -13.3700   12.7980   23.1920 O   0  0  0  0  0  0  0  0  0  0  0  0
  -12.0510   13.2060   23.5950 C   0  0  0  0  0  0  0  0  0  0  0  0
   -9.9360   11.8520   24.4810 C   0  0  0  0  0  0  0  0  0  0  0  0
  -10.9920   12.0530   23.3580 C   0  0  0  0  0  0  0  0  0  0  0  0
  -18.5370   13.9300   26.5770 C   0  0  0  0  0  0  0  0  0  0  0  0
  -18.7030   15.4400   26.2060 C   0  0  0  0  0  0  0  0  0  0  0  0
  -18.8950   16.3310   27.4150 C   0  0  0  0  0  0  0  0  0  0  0  0
  -19.9760   16.3330   27.9520 O   0  0  0  0  0  0  0  0  0  0  0  0
  -17.8830   17.2990   27.6380 N   0  0  0  0  0  0  0  0  0  0  0  0
  -16.4140   16.9960   27.5220 C   0  0  0  0  0  0  0  0  0  0  0  0
  -15.6580   16.8050   28.9040 C   0  0  0  0  0  0  0  0  0  0  0  0
  -14.8560   18.0730   29.1660 C   0  0  0  0  0  0  0  0  0  0  0  0
  -13.7720   18.3610   28.0990 C   0  0  0  0  0  0  0  0  0  0  0  0
  -14.1690   17.9310   26.6180 C   0  0  0  0  0  0  0  0  0  0  0  0
  -15.6990   17.8440   26.4040 C   0  0  0  0  0  0  0  0  0  0  0  0
  -18.2920   18.6400   28.1360 C   0  0  0  0  0  0  0  0  0  0  0  0
  -19.0370   19.4310   27.0840 C   0  0  0  0  0  0  0  0  0  0  0  0
  2  1  2  0
  3  2  1  0
  4  3  2  0
  5  4  1  0
  6  5  2  0
  7  6  1  0
  8  7  2  0
  8  3  1  0
  9  8  1  0
  9  1  1  0
 11 10  2  0
 12 10  1  0
 13 12  1  0
 14 13  1  0
 15 14  1  0
 16 15  1  0
 16  1  1  0
 17 16  1  0
 17 12  1  0
 18 10  1  0
 19 18  1  0
 21 19  1  0
 21 20  1  0
 22  9  1  0
 23 22  1  0
 24 23  1  0
 25 24  2  0
 26 24  1  0
 27 26  1  0
 28 27  1  0
 29 28  1  0
 30 29  1  0
 31 30  1  0
 32 27  1  0
 32 31  1  0
 33 26  1  0
 34 33  1  0
M  END
>  <original SMILES>  (24) 
CCCOC(=O)N1CCCC(c2nc3ccccc3n2CCC(=O)N(CC)C2CCCCC2)C1

>  <ref_pdb>  (24) 
F217-Su-483_bound.pdb

>  <ref_mols>  (24) 
x20566_0A

>  <CNNaffinity>  (24) 
6.9316506386

>  <SuCos Score>  (24) 
0.616380160796907

>  <Polar Hotspot>  (24) 
18.66

>  <Apolar Hotspot>  (24) 
284.23

>  <dH av>  (24) 
-44.28019959527566

>  <-TdS av>  (24) 
14.606822361207229

>  <dG av>  (24) 
-29.673377234068436

>  <Price>  (24) 
950

>  <Lead time>  (24) 
7

$$$$
F618-Si-450
     RDKit          3D

 21 23  0  0  0  0  0  0  0  0999 V2000
  -17.0080   12.4910   24.4200 C   0  0  0  0  0  0  0  0  0  0  0  0
  -17.8790   11.3390   23.9150 C   0  0  0  0  0  0  0  0  0  0  0  0
  -19.0440   11.2690   24.8360 C   0  0  0  0  0  0  0  0  0  0  0  0
  -19.8900   12.4240   24.6960 N   0  0  0  0  0  0  0  0  0  0  0  0
  -19.1770   13.6790   25.0810 C   0  0  0  0  0  0  0  0  0  0  0  0
  -17.7670   13.8460   24.4460 C   0  0  0  0  0  0  0  0  0  0  0  0
  -21.2440   12.2490   24.8900 C   0  0  0  0  0  0  0  0  0  0  0  0
  -21.8900   11.6830   23.8840 N   0  0  0  0  0  0  0  0  0  0  0  0
  -23.2430   11.5670   24.0380 C   0  0  0  0  0  0  0  0  0  0  0  0
  -23.9630   11.9460   25.1280 C   0  0  0  0  0  0  0  0  0  0  0  0
  -23.3620   12.6630   26.1330 C   0  0  0  0  0  0  0  0  0  0  0  0
  -21.9290   12.7670   26.0090 C   0  0  0  0  0  0  0  0  0  0  0  0
  -21.2030   13.3600   26.9930 F   0  0  0  0  0  0  0  0  0  0  0  0
  -14.8650   13.7050   23.7130 C   0  0  0  0  0  0  0  0  0  0  0  0
  -15.7810   12.6390   23.4970 N   0  0  0  0  0  0  0  0  0  0  0  0
  -15.1900   11.4540   23.0800 C   0  0  0  0  0  0  0  0  0  0  0  0
  -15.2750   10.9960   21.8170 C   0  0  0  0  0  0  0  0  0  0  0  0
  -14.6250    9.8000   21.4700 C   0  0  0  0  0  0  0  0  0  0  0  0
  -14.0510    8.9970   22.4370 C   0  0  0  0  0  0  0  0  0  0  0  0
  -13.9750    9.4850   23.7390 N   0  0  0  0  0  0  0  0  0  0  0  0
  -14.4940   10.7460   24.0350 N   0  0  0  0  0  0  0  0  0  0  0  0
  2  1  1  0
  3  2  1  0
  4  3  1  0
  5  4  1  0
  6  5  1  0
  6  1  1  0
  7  4  1  0
  8  7  2  0
  9  8  1  0
 10  9  2  0
 11 10  1  0
 12 11  2  0
 12  7  1  0
 13 12  1  0
 15  1  1  0
 15 14  1  0
 16 15  1  0
 17 16  2  0
 18 17  1  0
 19 18  2  0
 20 19  1  0
 21 20  2  0
 21 16  1  0
M  END
>  <original SMILES>  (25) 
CN(c1cccnn1)C1CCN(c2ncccc2F)CC1

>  <ref_pdb>  (25) 
F618-Si-450_bound.pdb

>  <ref_mols>  (25) 
x20720_0A

>  <CNNaffinity>  (25) 
6.173635006

>  <SuCos Score>  (25) 
0.5659395048129698

>  <Polar Hotspot>  (25) 
46.01

>  <Apolar Hotspot>  (25) 
145.25

>  <dH av>  (25) 
-39.68115478141731

>  <-TdS av>  (25) 
10.16808012464336

>  <dG av>  (25) 
-29.513074656773952

>  <Price>  (25) 
63

>  <Lead time>  (25) 
1

$$$$
F362-Si-569
     RDKit          3D

 27 31  0  0  0  0  0  0  0  0999 V2000
  -19.2020   13.0290   26.7790 N   0  0  0  0  0  0  0  0  0  0  0  0
  -18.4840   11.7330   26.2310 C   0  0  0  0  0  0  0  0  0  0  0  0
  -17.9970   11.7300   24.7920 C   0  0  0  0  0  0  0  0  0  0  0  0
  -17.9330   10.6270   24.0080 C   0  0  0  0  0  0  0  0  0  0  0  0
  -17.4450   10.9870   22.7250 C   0  0  0  0  0  0  0  0  0  0  0  0
  -17.3110   12.3140   22.7090 N   0  0  0  0  0  0  0  0  0  0  0  0
  -17.6140   12.8200   24.0180 N   0  0  0  0  0  0  0  0  0  0  0  0
  -17.3760   14.2310   24.4350 C   0  0  0  0  0  0  0  0  0  0  0  0
  -18.4680   14.9410   25.2990 C   0  0  0  0  0  0  0  0  0  0  0  0
  -18.5180   14.3320   26.7540 C   0  0  0  0  0  0  0  0  0  0  0  0
  -22.8600   13.6870   30.0280 C   0  0  0  0  0  0  0  0  0  0  0  0
  -22.4350   13.2080   28.7290 C   0  0  0  0  0  0  0  0  0  0  0  0
  -21.0840   13.4280   28.3370 C   0  0  0  0  0  0  0  0  0  0  0  0
  -20.5730   12.9290   27.1420 C   0  0  0  0  0  0  0  0  0  0  0  0
  -21.5580   12.2720   26.3800 N   0  0  0  0  0  0  0  0  0  0  0  0
  -21.3740   11.6300   25.1510 N   0  0  0  0  0  0  0  0  0  0  0  0
  -22.6290   11.3670   24.8150 C   0  0  0  0  0  0  0  0  0  0  0  0
  -23.6370   11.7050   25.7270 N   0  0  0  0  0  0  0  0  0  0  0  0
  -22.8710   12.2000   26.6980 C   0  0  0  0  0  0  0  0  0  0  0  0
  -23.2760   12.5970   27.8760 N   0  0  0  0  0  0  0  0  0  0  0  0
  -18.0890   16.4420   25.2830 C   0  0  0  0  0  0  0  0  0  0  0  0
  -16.8890   16.9920   26.0000 N   0  0  0  0  0  0  0  0  0  0  0  0
  -16.8540   17.2400   27.3480 C   0  0  0  0  0  0  0  0  0  0  0  0
  -17.8580   17.2250   28.0240 O   0  0  0  0  0  0  0  0  0  0  0  0
  -15.5430   17.5450   27.8900 C   0  0  0  0  0  0  0  0  0  0  0  0
  -15.3250   17.7900   29.4050 C   0  0  0  0  0  0  0  0  0  0  0  0
  -15.2950   18.9570   28.4460 C   0  0  0  0  0  0  0  0  0  0  0  0
  2  1  1  0
  3  2  1  0
  4  3  2  0
  5  4  1  0
  6  5  2  0
  7  6  1  0
  7  3  1  0
  8  7  1  0
  9  8  1  0
 10  9  1  0
 10  1  1  0
 12 11  1  0
 13 12  1  0
 14  1  1  0
 14 13  2  0
 15 14  1  0
 16 15  1  0
 17 16  2  0
 18 17  1  0
 19 18  2  0
 19 15  1  0
 20 19  1  0
 20 12  2  0
 21  9  1  0
 22 21  1  0
 23 22  1  0
 24 23  2  0
 25 23  1  0
 26 25  1  0
 27 26  1  0
 27 25  1  0
M  END
>  <original SMILES>  (26) 
Cc1cc(N2Cc3ccnn3CC(CNC(=O)C3CC3)C2)n2ncnc2n1

>  <ref_pdb>  (26) 
F362-Si-569_bound.pdb

>  <ref_mols>  (26) 
x20548_0A

>  <CNNaffinity>  (26) 
7.1446480751

>  <SuCos Score>  (26) 
0.5878493076328999

>  <Polar Hotspot>  (26) 
103.85

>  <Apolar Hotspot>  (26) 
190.61

>  <dH av>  (26) 
-38.03845208220479

>  <-TdS av>  (26) 
8.748577506447772

>  <dG av>  (26) 
-29.28987457575702

>  <Price>  (26) 
2920

>  <Lead time>  (26) 
10

$$$$
F367-Su-404
     RDKit          3D

 33 36  0  0  0  0  0  0  0  0999 V2000
  -22.8900   12.0020   29.2680 N   0  0  0  0  0  0  0  0  0  0  0  0
  -23.4640   12.3080   28.0840 C   0  0  0  0  0  0  0  0  0  0  0  0
  -24.5910   12.7770   28.0560 O   0  0  0  0  0  0  0  0  0  0  0  0
  -22.6540   12.0410   26.8340 C   0  0  0  0  0  0  0  0  0  0  0  0
  -23.3240   11.5470   25.6870 C   0  0  0  0  0  0  0  0  0  0  0  0
  -22.6810   11.5120   24.4880 N   0  0  0  0  0  0  0  0  0  0  0  0
  -21.3400   11.8100   24.3970 C   0  0  0  0  0  0  0  0  0  0  0  0
  -20.6600   12.2040   25.5450 C   0  0  0  0  0  0  0  0  0  0  0  0
  -21.3120   12.4090   26.6920 C   0  0  0  0  0  0  0  0  0  0  0  0
  -20.4050   13.1280   27.5040 C   0  0  0  0  0  0  0  0  0  0  0  0
  -19.2220   13.3030   26.9060 N   0  0  0  0  0  0  0  0  0  0  0  0
  -19.3840   12.7150   25.6820 N   0  0  0  0  0  0  0  0  0  0  0  0
  -18.3180   12.4490   24.8090 C   0  0  0  0  0  0  0  0  0  0  0  0
  -17.5160   13.4680   24.3300 C   0  0  0  0  0  0  0  0  0  0  0  0
  -16.5630   13.2220   23.2980 C   0  0  0  0  0  0  0  0  0  0  0  0
  -16.4310   11.9170   22.7870 C   0  0  0  0  0  0  0  0  0  0  0  0
  -15.4360   11.5910   21.8850 F   0  0  0  0  0  0  0  0  0  0  0  0
  -17.1610   10.9170   23.3450 C   0  0  0  0  0  0  0  0  0  0  0  0
  -18.1260   11.1930   24.2970 C   0  0  0  0  0  0  0  0  0  0  0  0
  -23.4380   12.3880   30.5730 C   0  0  0  0  0  0  0  0  0  0  0  0
  -22.0210    9.7130   32.6650 N   0  0  0  0  0  0  0  0  0  0  0  0
  -22.6640   10.0790   31.5210 C   0  0  0  0  0  0  0  0  0  0  0  0
  -22.8810   11.4420   31.6330 C   0  0  0  0  0  0  0  0  0  0  0  0
  -22.3100   11.7970   32.9020 C   0  0  0  0  0  0  0  0  0  0  0  0
  -21.9700   10.7300   33.5460 N   0  0  0  0  0  0  0  0  0  0  0  0
  -21.6160    8.3230   33.1200 C   0  0  0  0  0  0  0  0  0  0  0  0
  -22.7820    7.3540   33.2640 C   0  0  0  0  0  0  0  0  0  0  0  0
  -23.4400    7.1970   34.2650 O   0  0  0  0  0  0  0  0  0  0  0  0
  -23.1140    6.6370   32.1450 O   0  0  0  0  0  0  0  0  0  0  0  0
  -22.9130    5.3890   30.1220 C   0  0  0  0  0  0  0  0  0  0  0  0
  -22.4020    6.5910   30.9050 C   0  0  0  0  0  0  0  0  0  0  0  0
  -23.0920   13.8670   30.8360 C   0  0  0  0  0  0  0  0  0  0  0  0
  -24.1550   14.5620   31.6660 C   0  0  0  0  0  0  0  0  0  0  0  0
  2  1  1  0
  3  2  2  0
  4  2  1  0
  5  4  2  0
  6  5  1  0
  7  6  2  0
  8  7  1  0
  9  4  1  0
  9  8  2  0
 10  9  1  0
 11 10  2  0
 12 11  1  0
 12  8  1  0
 13 12  1  0
 14 13  2  0
 15 14  1  0
 16 15  2  0
 17 16  1  0
 18 16  1  0
 19 18  2  0
 19 13  1  0
 20  1  1  0
 22 21  1  0
 23 22  2  0
 23 20  1  0
 24 23  1  0
 25 21  1  0
 25 24  2  0
 26 21  1  0
 27 26  1  0
 28 27  2  0
 29 27  1  0
 31 30  1  0
 31 29  1  0
 32 20  1  0
 33 32  1  0
M  END
>  <original SMILES>  (27) 
CCOC(=O)Cn1cc([C@@H](CC)NC(=O)c2cncc3c2cnn3-c2ccc(F)cc2)cn1

>  <ref_pdb>  (27) 
F367-Su-404_bound.pdb

>  <ref_mols>  (27) 
x20712_0A

>  <CNNaffinity>  (27) 
6.9805922508

>  <SuCos Score>  (27) 
0.5619029871169455

>  <Polar Hotspot>  (27) 
17.53

>  <Apolar Hotspot>  (27) 
183.73

>  <dH av>  (27) 
-40.70047229354322

>  <-TdS av>  (27) 
11.599745000289962

>  <dG av>  (27) 
-29.100727293253257

>  <Price>  (27) 
2890

>  <Lead time>  (27) 
11

$$$$
F179-Si-416
     RDKit          3D

 23 25  0  0  0  0  0  0  0  0999 V2000
  -23.5360   12.1110   27.3410 C   0  0  0  0  0  0  0  0  0  0  0  0
  -24.4380   11.9810   26.5640 O   0  0  0  0  0  0  0  0  0  0  0  0
  -23.7840   12.4800   28.6420 N   0  0  0  0  0  0  0  0  0  0  0  0
  -24.9280   13.4060   28.8590 C   0  0  0  0  0  0  0  0  0  0  0  0
  -24.5820   14.9350   28.6420 C   0  0  0  0  0  0  0  0  0  0  0  0
  -25.8770   15.7520   28.4870 C   0  0  0  0  0  0  0  0  0  0  0  0
  -26.7610   15.6000   29.7920 C   0  0  0  0  0  0  0  0  0  0  0  0
  -27.0940   14.0510   30.0890 C   0  0  0  0  0  0  0  0  0  0  0  0
  -25.7500   13.2620   30.1910 C   0  0  0  0  0  0  0  0  0  0  0  0
  -22.8630   12.0330   29.7630 C   0  0  0  0  0  0  0  0  0  0  0  0
  -22.2890   13.1730   30.5780 C   0  0  0  0  0  0  0  0  0  0  0  0
  -21.3850   12.7870   31.7290 C   0  0  0  0  0  0  0  0  0  0  0  0
  -22.0000   11.7530   32.7170 C   0  0  0  0  0  0  0  0  0  0  0  0
  -22.5940   10.5030   31.9640 C   0  0  0  0  0  0  0  0  0  0  0  0
  -23.4150   10.8760   30.6780 C   0  0  0  0  0  0  0  0  0  0  0  0
  -20.0800   11.9710   26.3870 N   0  0  0  0  0  0  0  0  0  0  0  0
  -20.9870   12.2860   27.3290 C   0  0  0  0  0  0  0  0  0  0  0  0
  -22.1750   11.9070   26.8070 C   0  0  0  0  0  0  0  0  0  0  0  0
  -21.9100   11.2680   25.6080 C   0  0  0  0  0  0  0  0  0  0  0  0
  -20.6280   11.3480   25.3660 N   0  0  0  0  0  0  0  0  0  0  0  0
  -17.9320   12.3790   27.7040 C   0  0  0  0  0  0  0  0  0  0  0  0
  -18.5630   12.2060   26.3230 C   0  0  0  0  0  0  0  0  0  0  0  0
  -18.2040   13.3580   25.3670 C   0  0  0  0  0  0  0  0  0  0  0  0
  2  1  2  0
  3  1  1  0
  4  3  1  0
  5  4  1  0
  6  5  1  0
  7  6  1  0
  8  7  1  0
  9  8  1  0
  9  4  1  0
 10  3  1  0
 11 10  1  0
 12 11  1  0
 13 12  1  0
 14 13  1  0
 15 14  1  0
 15 10  1  0
 17 16  1  0
 18  1  1  0
 18 17  2  0
 19 18  1  0
 20 19  2  0
 20 16  1  0
 22 16  1  0
 22 21  1  0
 23 22  1  0
M  END
>  <original SMILES>  (28) 
CC(C)n1cc(C(=O)N(C2CCCCC2)C2CCCCC2)cn1

>  <ref_pdb>  (28) 
F179-Si-416_bound.pdb

>  <ref_mols>  (28) 
x20595_0A

>  <CNNaffinity>  (28) 
5.7233304977

>  <SuCos Score>  (28) 
0.7185610808972056

>  <Polar Hotspot>  (28) 
41.62

>  <Apolar Hotspot>  (28) 
161.99

>  <dH av>  (28) 
-33.8478314576377

>  <-TdS av>  (28) 
4.867276070727762

>  <dG av>  (28) 
-28.98055538690994

>  <Price>  (28) 
148

>  <Lead time>  (28) 
6

$$$$
F309-Si-276
     RDKit          3D

 18 19  0  0  0  0  0  0  0  0999 V2000
  -20.1440   13.6070   25.5530 N   0  0  0  0  0  0  0  0  0  0  0  0
  -21.2420   12.9370   25.0980 C   0  0  0  0  0  0  0  0  0  0  0  0
  -21.2070   12.3400   24.0170 O   0  0  0  0  0  0  0  0  0  0  0  0
  -14.9310   13.6060   23.0050 C   0  0  0  0  0  0  0  0  0  0  0  0
  -16.3160   13.4960   23.5410 C   0  0  0  0  0  0  0  0  0  0  0  0
  -16.6530   14.5450   24.4040 C   0  0  0  0  0  0  0  0  0  0  0  0
  -17.9070   14.5450   25.1280 C   0  0  0  0  0  0  0  0  0  0  0  0
  -18.1830   15.6740   26.0700 C   0  0  0  0  0  0  0  0  0  0  0  0
  -18.8210   13.5360   24.8800 C   0  0  0  0  0  0  0  0  0  0  0  0
  -18.3770   12.3480   24.1790 C   0  0  0  0  0  0  0  0  0  0  0  0
  -17.1440   12.3180   23.4550 C   0  0  0  0  0  0  0  0  0  0  0  0
  -16.6910   11.0210   22.8160 C   0  0  0  0  0  0  0  0  0  0  0  0
  -22.4170   12.9200   26.0540 C   0  0  0  0  0  0  0  0  0  0  0  0
  -23.9480   12.0760   25.5500 S   0  0  0  0  0  0  0  0  0  0  0  0
  -24.5830   12.2510   27.1650 C   0  0  0  0  0  0  0  0  0  0  0  0
  -23.7240   12.9890   27.9470 C   0  0  0  0  0  0  0  0  0  0  0  0
  -22.5750   13.4220   27.3360 C   0  0  0  0  0  0  0  0  0  0  0  0
  -21.6330   14.3770   28.0150 C   0  0  0  0  0  0  0  0  0  0  0  0
  2  1  1  0
  3  2  2  0
  5  4  1  0
  6  5  2  0
  7  6  1  0
  8  7  1  0
  9  7  2  0
  9  1  1  0
 10  9  1  0
 11 10  2  0
 11  5  1  0
 12 11  1  0
 13  2  1  0
 14 13  1  0
 15 14  1  0
 16 15  2  0
 17 13  2  0
 17 16  1  0
 18 17  1  0
M  END
>  <original SMILES>  (29) 
Cc1cc(C)c(NC(=O)c2sccc2C)cc1C

>  <ref_pdb>  (29) 
F309-Si-276_bound.pdb

>  <ref_mols>  (29) 
x20370_0A

>  <CNNaffinity>  (29) 
5.0494933128

>  <SuCos Score>  (29) 
0.627732880866958

>  <Polar Hotspot>  (29) 
36.39

>  <Apolar Hotspot>  (29) 
192.46

>  <dH av>  (29) 
-36.49883080031496

>  <-TdS av>  (29) 
7.771359070070096

>  <dG av>  (29) 
-28.727471730244865

>  <Price>  (29) 
480

>  <Lead time>  (29) 
6

$$$$
F558-Su-130
     RDKit          3D

 27 29  0  0  0  0  0  0  0  0999 V2000
  -17.5160   15.7240   26.2840 C   0  0  0  0  0  0  0  0  0  0  0  0
  -18.1310   15.3770   27.5210 C   0  0  0  0  0  0  0  0  0  0  0  0
  -18.6220   14.0860   27.6860 C   0  0  0  0  0  0  0  0  0  0  0  0
  -18.7570   13.2060   26.6210 C   0  0  0  0  0  0  0  0  0  0  0  0
  -18.2720   13.5660   25.3830 C   0  0  0  0  0  0  0  0  0  0  0  0
  -18.6180   12.8390   24.2700 F   0  0  0  0  0  0  0  0  0  0  0  0
  -17.6130   14.8040   25.1870 C   0  0  0  0  0  0  0  0  0  0  0  0
  -16.3970   17.9640   26.8900 C   0  0  0  0  0  0  0  0  0  0  0  0
  -16.5080   17.8980   28.1110 O   0  0  0  0  0  0  0  0  0  0  0  0
  -16.7810   16.9000   26.0340 N   0  0  0  0  0  0  0  0  0  0  0  0
  -15.8890   18.9780   26.1350 O   0  0  0  0  0  0  0  0  0  0  0  0
  -17.1530   20.7490   27.2050 C   0  0  0  0  0  0  0  0  0  0  0  0
  -15.7680   20.2930   26.7360 C   0  0  0  0  0  0  0  0  0  0  0  0
  -14.7150   20.3090   27.9490 C   0  0  0  0  0  0  0  0  0  0  0  0
  -15.3160   21.2640   25.6040 C   0  0  0  0  0  0  0  0  0  0  0  0
  -19.4740   11.8900   26.8610 C   0  0  0  0  0  0  0  0  0  0  0  0
  -21.0570   11.8510   26.5660 C   0  0  0  0  0  0  0  0  0  0  0  0
  -21.4750   11.3050   25.3860 C   0  0  0  0  0  0  0  0  0  0  0  0
  -22.8770   11.2140   25.1290 C   0  0  0  0  0  0  0  0  0  0  0  0
  -23.8360   11.6980   25.9700 N   0  0  0  0  0  0  0  0  0  0  0  0
  -23.3490   12.2330   27.1350 C   0  0  0  0  0  0  0  0  0  0  0  0
  -24.2650   12.6460   28.0340 N   0  0  0  0  0  0  0  0  0  0  0  0
  -24.0330   13.1260   29.3070 C   0  0  0  0  0  0  0  0  0  0  0  0
  -24.8950   13.4880   30.1230 O   0  0  0  0  0  0  0  0  0  0  0  0
  -22.6160   13.0480   29.6850 C   0  0  0  0  0  0  0  0  0  0  0  0
  -21.5770   12.6030   28.8280 N   0  0  0  0  0  0  0  0  0  0  0  0
  -22.0280   12.2270   27.5590 C   0  0  0  0  0  0  0  0  0  0  0  0
  2  1  2  0
  3  2  1  0
  4  3  2  0
  5  4  1  0
  6  5  1  0
  7  5  2  0
  7  1  1  0
  9  8  2  0
 10  1  1  0
 10  8  1  0
 11  8  1  0
 13 12  1  0
 13 11  1  0
 14 13  1  0
 15 13  1  0
 16  4  1  0
 17 16  1  0
 18 17  2  0
 19 18  1  0
 20 19  2  0
 21 20  1  0
 22 21  1  0
 23 22  1  0
 24 23  2  0
 25 23  1  0
 26 25  2  0
 27 21  2  0
 27 17  1  0
 27 26  1  0
M  END
>  <original SMILES>  (30) 
CC(C)(C)OC(=O)Nc1ccc(Cc2ccnc3[nH]c(=O)cnc23)c(F)c1

>  <ref_pdb>  (30) 
F558-Su-130_bound.pdb

>  <ref_mols>  (30) 
x20337_0A

>  <CNNaffinity>  (30) 
6.8255968094

>  <SuCos Score>  (30) 
0.8062235236684965

>  <Polar Hotspot>  (30) 
64.59

>  <Apolar Hotspot>  (30) 
173.92

>  <dH av>  (30) 
-35.53872373007883

>  <-TdS av>  (30) 
6.822566167811375

>  <dG av>  (30) 
-28.71615756226745

>  <Price>  (30) 
4590

>  <Lead time>  (30) 
14

$$$$
F368-Si-292
     RDKit          3D

 22 24  0  0  0  0  0  0  0  0999 V2000
  -15.7470   13.0800   24.3370 N   0  0  0  0  0  0  0  0  0  0  0  0
  -15.5070   14.0690   25.2140 C   0  0  0  0  0  0  0  0  0  0  0  0
  -15.7830   15.1940   24.4500 C   0  0  0  0  0  0  0  0  0  0  0  0
  -16.2880   14.8870   23.2060 C   0  0  0  0  0  0  0  0  0  0  0  0
  -16.2410   13.5600   23.1040 N   0  0  0  0  0  0  0  0  0  0  0  0
  -15.7920   16.5030   24.9620 N   0  0  0  0  0  0  0  0  0  0  0  0
  -15.5770   17.0340   26.2210 C   0  0  0  0  0  0  0  0  0  0  0  0
  -15.5350   16.2590   27.2000 O   0  0  0  0  0  0  0  0  0  0  0  0
  -15.4590   18.6200   26.2760 C   0  0  0  0  0  0  0  0  0  0  0  0
  -14.8640   18.8720   27.7090 C   0  0  0  0  0  0  0  0  0  0  0  0
  -14.7510   20.3750   28.0110 C   0  0  0  0  0  0  0  0  0  0  0  0
  -16.1640   21.0770   27.9370 C   0  0  0  0  0  0  0  0  0  0  0  0
  -16.8970   20.7360   26.5590 C   0  0  0  0  0  0  0  0  0  0  0  0
  -16.8610   19.2350   26.1570 C   0  0  0  0  0  0  0  0  0  0  0  0
  -15.6540   11.6310   24.6410 C   0  0  0  0  0  0  0  0  0  0  0  0
  -17.5300   10.2850   22.5940 C   0  0  0  0  0  0  0  0  0  0  0  0
  -17.8070   10.3610   24.0920 C   0  0  0  0  0  0  0  0  0  0  0  0
  -18.8470    9.9090   24.7890 N   0  0  0  0  0  0  0  0  0  0  0  0
  -18.6100   10.1760   26.1430 O   0  0  0  0  0  0  0  0  0  0  0  0
  -17.5090   10.8950   26.1690 C   0  0  0  0  0  0  0  0  0  0  0  0
  -17.0880   11.5280   27.4390 C   0  0  0  0  0  0  0  0  0  0  0  0
  -16.9570   11.0830   24.9780 C   0  0  0  0  0  0  0  0  0  0  0  0
  2  1  1  0
  3  2  2  0
  4  3  1  0
  5  4  2  0
  5  1  1  0
  6  3  1  0
  7  6  1  0
  8  7  2  0
  9  7  1  0
 10  9  1  0
 11 10  1  0
 12 11  1  0
 13 12  1  0
 14 13  1  0
 14  9  1  0
 15  1  1  0
 17 16  1  0
 18 17  2  0
 19 18  1  0
 20 19  1  0
 21 20  1  0
 22 20  2  0
 22 17  1  0
 22 15  1  0
M  END
>  <original SMILES>  (31) 
Cc1noc(C)c1Cn1cc(NC(=O)C2CCCCC2)cn1

>  <ref_pdb>  (31) 
F368-Si-292_bound.pdb

>  <ref_mols>  (31) 
x20767_0A

>  <CNNaffinity>  (31) 
6.1466188431

>  <SuCos Score>  (31) 
0.7272134771487829

>  <Polar Hotspot>  (31) 
64.05

>  <Apolar Hotspot>  (31) 
97.2

>  <dH av>  (31) 
-35.172777682519886

>  <-TdS av>  (31) 
6.977493989365295

>  <dG av>  (31) 
-28.19528369315459

>  <Price>  (31) 
690

>  <Lead time>  (31) 
6

$$$$
