ver_1.2
     RDKit          2D

  1  0  0  0  0  0  0  0  0  0999 V2000
    0.0000    0.0000    0.0000 C   0  0  0  0  0  0  0  0  0  0  0  0
M  END
>  <submitter_name>  (1) 
Ruben Sanchez Garcia

>  <submitter_email>  (1) 
ruben.sanchez-garcia@stats.ox.ac.uk

>  <submitter_institution>  (1) 
University of Oxford

>  <method>  (1) 
FirstIter

>  <ref_url>  (1) 
https://github.com/matteoferla/Fragmenstein

>  <original SMILES>  (1) 
The SMILES of the compound

>  <ref_pdb>  (1) 
A pdb included in fragalysis or uploaded. E.g. x0830_0

>  <ref_mols>  (1) 
The inspirational fragments usded to propose the compound

>  <generation_date>  (1) 
2021-09-17

>  <atomic_mapping>  (1) 
NA

>  <fragmensteinOld_score>  (1) 
Score fragmensteinOld_score

>  <LE_score>  (1) 
Score LE_score

>  <comRMSD_score>  (1) 
Score comRMSD_score

>  <fragmensteinNew_score>  (1) 
Score fragmensteinNew_score

>  <meanSuCosW_score>  (1) 
Score meanSuCosW_score

>  <maxSuCosW_score>  (1) 
Score maxSuCosW_score

>  <minSuCosW_score>  (1) 
Score minSuCosW_score

>  <sumSuCosW_score>  (1) 
Score sumSuCosW_score

>  <SA_score>  (1) 
Score SA_score

>  <aLogP_score>  (1) 
Score aLogP_score

>  <hbondD_score>  (1) 
Score hbondD_score

>  <hbondA_score>  (1) 
Score hbondA_score

>  <polarSurfaceArea_score>  (1) 
Score polarSurfaceArea_score

>  <rotableBonds_score>  (1) 
Score rotableBonds_score

>  <SC_score>  (1) 
Score SC_score

>  <energyPoseVsEnsemble_score>  (1) 
Score energyPoseVsEnsemble_score

>  <xcos_score>  (1) 
Score xcos_score

>  <plipMedianPreser_score>  (1) 
Score plipMedianPreser_score

>  <plipGlobalPreser_score>  (1) 
Score plipGlobalPreser_score

>  <plipGlobalPreserOverMw_score>  (1) 
Score plipGlobalPreserOverMw_score

>  <plipTotalNumInteractions_score>  (1) 
Score plipTotalNumInteractions_score

>  <CID>  (1) 
Vendors compound id

$$$$
0_x0032_0A_-x0103_0A_0f8b01c1fc
     RDKit          3D

 55 58  0  0  0  0  0  0  0  0999 V2000
   10.4900   11.9260   -2.4400 O   0  0  0  0  0  0  0  0  0  0  0  0
   10.1440   13.1080   -2.4660 C   0  0  0  0  0  0  0  0  0  0  0  0
    8.8130   13.5340   -3.2430 C   0  0  0  0  0  0  0  0  0  0  0  0
   10.9380   14.0920   -1.7980 N   0  0  0  0  0  0  0  0  0  0  0  0
    9.1290   14.1000   -4.6320 C   0  0  0  0  0  0  0  0  0  0  0  0
   10.4770   15.4770   -1.7420 C   0  0  0  0  0  0  0  0  0  0  0  0
   12.4480   13.9160   -1.5360 C   0  0  1  0  0  0  0  0  0  0  0  0
   10.5800   14.3240   -4.9320 C   0  0  0  0  0  0  0  0  0  0  0  0
    8.3910   14.5020   -5.8060 C   0  0  0  0  0  0  0  0  0  0  0  0
   10.7120   16.0530   -0.4990 C   0  0  0  0  0  0  0  0  0  0  0  0
   12.9410   15.2350   -0.8800 C   0  0  0  0  0  0  0  0  0  0  0  0
   12.8060   12.7320   -0.8350 C   0  0  0  0  0  0  0  0  0  0  0  0
   10.6230   14.8190   -6.1990 N   0  0  0  0  0  0  0  0  0  0  0  0
    9.3520   14.9290   -6.7450 C   0  0  0  0  0  0  0  0  0  0  0  0
    7.0420   14.5550   -6.1970 C   0  0  0  0  0  0  0  0  0  0  0  0
   12.1100   15.8620    0.0630 C   0  0  0  0  0  0  0  0  0  0  0  0
   13.9610   12.9980   -0.0560 N   0  0  0  0  0  0  0  0  0  0  0  0
    9.0090   15.3920   -8.0190 C   0  0  0  0  0  0  0  0  0  0  0  0
    6.6930   15.0150   -7.4710 C   0  0  0  0  0  0  0  0  0  0  0  0
   15.2200   12.4460   -0.4060 C   0  0  0  0  0  0  0  0  0  0  0  0
    7.6620   15.4300   -8.3820 C   0  0  0  0  0  0  0  0  0  0  0  0
   15.3820   11.5540   -1.2500 O   0  0  0  0  0  0  0  0  0  0  0  0
   16.2240   13.0660    0.3650 N   0  0  0  0  0  0  0  0  0  0  0  0
   17.6530   12.9070    0.4050 C   0  0  0  0  0  0  0  0  0  0  0  0
   18.4870   12.7390   -0.7180 C   0  0  0  0  0  0  0  0  0  0  0  0
   18.2610   12.9360    1.6740 C   0  0  0  0  0  0  0  0  0  0  0  0
   19.8790   12.6040   -0.5770 C   0  0  0  0  0  0  0  0  0  0  0  0
   19.6500   12.8000    1.8270 C   0  0  0  0  0  0  0  0  0  0  0  0
   20.4440   12.6360    0.6850 C   0  0  0  0  0  0  0  0  0  0  0  0
    8.1900   12.6390   -3.3610 H   0  0  0  0  0  0  0  0  0  0  0  0
    8.2400   14.2690   -2.6560 H   0  0  0  0  0  0  0  0  0  0  0  0
   10.9820   16.0280   -2.5400 H   0  0  0  0  0  0  0  0  0  0  0  0
    9.4040   15.4920   -1.9490 H   0  0  0  0  0  0  0  0  0  0  0  0
   12.8910   13.8200   -2.5330 H   0  0  0  0  0  0  0  0  0  0  0  0
   11.4820   14.1700   -4.3560 H   0  0  0  0  0  0  0  0  0  0  0  0
   10.4990   17.1260   -0.5270 H   0  0  0  0  0  0  0  0  0  0  0  0
    9.9890   15.6130    0.1990 H   0  0  0  0  0  0  0  0  0  0  0  0
   13.0230   15.9880   -1.6700 H   0  0  0  0  0  0  0  0  0  0  0  0
   13.9710   15.0570   -0.5550 H   0  0  0  0  0  0  0  0  0  0  0  0
   12.7710   11.7360   -1.2330 H   0  0  0  0  0  0  0  0  0  0  0  0
   12.0440   12.6650   -0.0490 H   0  0  0  0  0  0  0  0  0  0  0  0
   11.4690   15.0700   -6.6930 H   0  0  0  0  0  0  0  0  0  0  0  0
    6.2610   14.2380   -5.5130 H   0  0  0  0  0  0  0  0  0  0  0  0
   12.0680   15.2610    0.9820 H   0  0  0  0  0  0  0  0  0  0  0  0
   12.5100   16.8430    0.3550 H   0  0  0  0  0  0  0  0  0  0  0  0
   13.8350   12.7900    0.9260 H   0  0  0  0  0  0  0  0  0  0  0  0
    9.7700   15.7140   -8.7230 H   0  0  0  0  0  0  0  0  0  0  0  0
    5.6430   15.0500   -7.7560 H   0  0  0  0  0  0  0  0  0  0  0  0
    7.3770   15.7800   -9.3680 H   0  0  0  0  0  0  0  0  0  0  0  0
   15.8870   13.8690    0.8710 H   0  0  0  0  0  0  0  0  0  0  0  0
   18.0460   12.7120   -1.7110 H   0  0  0  0  0  0  0  0  0  0  0  0
   17.6600   13.0640    2.5710 H   0  0  0  0  0  0  0  0  0  0  0  0
   20.4950   12.4760   -1.4640 H   0  0  0  0  0  0  0  0  0  0  0  0
   20.1000   12.8250    2.8140 H   0  0  0  0  0  0  0  0  0  0  0  0
   21.5150   12.5380    0.9050 H   0  0  0  0  0  0  0  0  0  0  0  0
  1  2  2  0
  2  3  1  0
  2  4  1  0
  3  5  1  0
  4  6  1  0
  4  7  1  0
  5  8  2  0
  5  9  1  0
  6 10  1  0
  7 11  1  0
  7 12  1  0
  8 13  1  0
  9 14  2  0
 13 14  1  0
  9 15  1  0
 10 16  1  0
 11 16  1  0
 12 17  1  0
 14 18  1  0
 15 19  2  0
 17 20  1  0
 18 21  2  0
 19 21  1  0
 20 22  2  0
 20 23  1  0
 23 24  1  0
 24 25  2  0
 24 26  1  0
 25 27  1  0
 26 28  2  0
 27 29  2  0
 28 29  1  0
  3 30  1  0
  3 31  1  0
  6 32  1  0
  6 33  1  0
  7 34  1  6
  8 35  1  0
 10 36  1  0
 10 37  1  0
 11 38  1  0
 11 39  1  0
 12 40  1  0
 12 41  1  0
 13 42  1  0
 15 43  1  0
 16 44  1  0
 16 45  1  0
 17 46  1  0
 18 47  1  0
 19 48  1  0
 21 49  1  0
 23 50  1  0
 25 51  1  0
 26 52  1  0
 27 53  1  0
 28 54  1  0
 29 55  1  0
M  END
>  <ref_pdb>  (2) 
0_x0032_0A_-x0103_0A_0f8b01c1fc.holo_minimised.pdb

>  <ref_mols>  (2) 
x0032_0A,x0103_0A

>  <fragmensteinOld_score>  (2) 
-1.9282844224055438

>  <LE_score>  (2) 
-0.19985811911000026

>  <comRMSD_score>  (2) 
0.89077916372045807

>  <fragmensteinNew_score>  (2) 
0.83247871463110656

>  <atomic_mapping>  (2) 
"{\"2\": [[\"x0032_0A\", 5]], \"3\": [[\"x0032_0A\", 6]], \"4\": [[\"x0032_0A\", 7]], \"5\": [[\"x0032_0A\", 8]], \"6\": [[\"x0032_0A\", 9]], \"7\": [[\"x0032_0A\", 10]], \"8\": [[\"x0032_0A\", 11]], \"9\": [[\"x0032_0A\", 12]], \"10\": [[\"x0032_0A\", 13]], \"11\": [[\"x0032_0A\", 14]], \"30\": [[\"x0032_0A\", 4]], \"38\": [[\"x0032_0A\", 15]], \"19\": [[\"x0103_0A\", 9]], \"20\": [[\"x0103_0A\", 1]], \"21\": [[\"x0103_0A\", 0]], \"22\": [[\"x0103_0A\", 2]], \"23\": [[\"x0103_0A\", 3]], \"24\": [[\"x0103_0A\", 8]], \"25\": [[\"x0103_0A\", 7]], \"26\": [[\"x0103_0A\", 6]], \"27\": [[\"x0103_0A\", 5]], \"28\": [[\"x0103_0A\", 4]], \"18\": [[\"x0103_0A\", 11]], \"46\": [[\"x0103_0A\", 10]], \"0\": [[\"x0103_0A\", 13]], \"1\": [[\"x0103_0A\", 12]], \"48\": [[\"x0103_0A\", 15]]}"

>  <meanSuCosW_score>  (2) 
0.61701802681045392

>  <maxSuCosW_score>  (2) 
0.63988660638049821

>  <minSuCosW_score>  (2) 
0.59414944724040963

>  <sumSuCosW_score>  (2) 
1.2340360536209078

>  <SA_score>  (2) 
7.9917384449545521

>  <aLogP_score>  (2) 
3.9132000000000025

>  <hbondD_score>  (2) 
3

>  <hbondA_score>  (2) 
2

>  <polarSurfaceArea_score>  (2) 
77.230000000000004

>  <rotableBonds_score>  (2) 
5

>  <SC_score>  (2) 
4.0860100956278345

>  <energyPoseVsEnsemble_score>  (2) 
0.64190831596253273

>  <xcos_score>  (2) 
16.562880782792657

>  <plipMedianPreser_score>  (2) 
0

>  <plipGlobalPreser_score>  (2) 
nan

>  <plipGlobalPreserOverMw_score>  (2) 
nan

>  <plipTotalNumInteractions_score>  (2) 
4

>  <original_name>  (2) 
x0032-0A-x0103-0A-0f8b01c1fc-O-C-CC1-CNC-2C-CC-CC12-N3CCCCC3CNC-O-NC-4C-CC-CC4

>  <original SMILES>  (2) 
[H]c1c([H])c([H])c(N([H])C(=O)N([H])C([H])([H])[C@@]2([H])N(C(=O)C([H])([H])c3c([H])n([H])c4c([H])c([H])c([H])c([H])c34)C([H])([H])C([H])([H])C([H])([H])C2([H])[H])c([H])c1[H]

>  <CID>  (2) 
Z1116408955

$$$$
1_x0032_0A_-x0103_0A_26bb5d2db5
     RDKit          3D

 51 54  0  0  0  0  0  0  0  0999 V2000
    9.3970   14.1870   -1.8690 O   0  0  0  0  0  0  0  0  0  0  0  0
    8.6760   13.3370   -2.3960 C   0  0  0  0  0  0  0  0  0  0  0  0
    7.7230   13.7200   -3.5310 C   0  0  0  0  0  0  0  0  0  0  0  0
    8.6650   11.9860   -2.0200 N   0  0  0  0  0  0  0  0  0  0  0  0
    8.4930   14.1730   -4.7580 C   0  0  0  0  0  0  0  0  0  0  0  0
    9.7180   11.0480   -2.4230 C   0  0  0  0  0  0  0  0  0  0  0  0
   10.0010   14.2350   -4.7360 C   0  0  0  0  0  0  0  0  0  0  0  0
    8.0720   14.5880   -6.0430 C   0  0  0  0  0  0  0  0  0  0  0  0
   10.9140   11.3310   -1.7920 C   0  0  0  0  0  0  0  0  0  0  0  0
   10.3570   14.6730   -5.9830 N   0  0  0  0  0  0  0  0  0  0  0  0
    9.2300   14.8860   -6.7750 C   0  0  0  0  0  0  0  0  0  0  0  0
    6.8280   14.7380   -6.6520 C   0  0  0  0  0  0  0  0  0  0  0  0
   11.0890   12.7110   -1.2230 C   0  0  0  0  0  0  0  0  0  0  0  0
   11.8640   10.3800   -1.7160 N   0  0  0  0  0  0  0  0  0  0  0  0
    9.1600   15.3250   -8.0990 C   0  0  0  0  0  0  0  0  0  0  0  0
    6.7500   15.1750   -7.9650 C   0  0  0  0  0  0  0  0  0  0  0  0
   12.4270   12.9780   -0.5530 C   0  0  0  0  0  0  0  0  0  0  0  0
   13.0260   10.7080   -1.0950 C   0  0  0  0  0  0  0  0  0  0  0  0
    7.9020   15.4670   -8.6920 C   0  0  0  0  0  0  0  0  0  0  0  0
   13.3500   11.9400   -0.5200 C   0  0  0  0  0  0  0  0  0  0  0  0
   14.6120   12.0950    0.0880 N   0  0  0  0  0  0  0  0  0  0  0  0
   15.8790   12.1150   -0.4650 C   0  0  0  0  0  0  0  0  0  0  0  0
   16.1970   11.4740   -1.4640 O   0  0  0  0  0  0  0  0  0  0  0  0
   16.6760   12.9420    0.2880 N   0  0  0  0  0  0  0  0  0  0  0  0
   18.0720   12.8990    0.4660 C   0  0  0  0  0  0  0  0  0  0  0  0
   18.8710   12.7510   -0.6760 C   0  0  0  0  0  0  0  0  0  0  0  0
   18.6580   13.0040    1.7280 C   0  0  0  0  0  0  0  0  0  0  0  0
   20.2600   12.7100   -0.5360 C   0  0  0  0  0  0  0  0  0  0  0  0
   20.0580   12.9610    1.8530 C   0  0  0  0  0  0  0  0  0  0  0  0
   20.8570   12.8130    0.7200 C   0  0  0  0  0  0  0  0  0  0  0  0
    7.0770   12.8680   -3.7750 H   0  0  0  0  0  0  0  0  0  0  0  0
    7.1090   14.5430   -3.1490 H   0  0  0  0  0  0  0  0  0  0  0  0
    8.1240   11.7620   -1.1960 H   0  0  0  0  0  0  0  0  0  0  0  0
    9.4060   10.0350   -2.1510 H   0  0  0  0  0  0  0  0  0  0  0  0
    9.8360   11.1050   -3.5080 H   0  0  0  0  0  0  0  0  0  0  0  0
   10.7410   14.0130   -3.9770 H   0  0  0  0  0  0  0  0  0  0  0  0
   11.3050   14.8240   -6.2980 H   0  0  0  0  0  0  0  0  0  0  0  0
    5.9160   14.5150   -6.1070 H   0  0  0  0  0  0  0  0  0  0  0  0
   10.3450   13.4950   -1.2660 H   0  0  0  0  0  0  0  0  0  0  0  0
   10.0600   15.5540   -8.6610 H   0  0  0  0  0  0  0  0  0  0  0  0
    5.7740   15.2900   -8.4340 H   0  0  0  0  0  0  0  0  0  0  0  0
   12.6100   13.9560   -0.1310 H   0  0  0  0  0  0  0  0  0  0  0  0
   13.7430    9.8930   -1.0700 H   0  0  0  0  0  0  0  0  0  0  0  0
    7.8320   15.8060   -9.7200 H   0  0  0  0  0  0  0  0  0  0  0  0
   14.5940   12.6090    0.9720 H   0  0  0  0  0  0  0  0  0  0  0  0
   16.1800   13.2700    1.1180 H   0  0  0  0  0  0  0  0  0  0  0  0
   18.4380   12.6670   -1.6690 H   0  0  0  0  0  0  0  0  0  0  0  0
   18.0640   13.1200    2.6300 H   0  0  0  0  0  0  0  0  0  0  0  0
   20.8860   12.5960   -1.4170 H   0  0  0  0  0  0  0  0  0  0  0  0
   20.5110   13.0440    2.8340 H   0  0  0  0  0  0  0  0  0  0  0  0
   21.9380   12.7800    0.8180 H   0  0  0  0  0  0  0  0  0  0  0  0
  1  2  2  0
  2  3  1  0
  2  4  1  0
  3  5  1  0
  4  6  1  0
  5  7  2  0
  5  8  1  0
  6  9  1  0
  7 10  1  0
  8 11  2  0
 10 11  1  0
  8 12  1  0
  9 13  2  0
  9 14  1  0
 11 15  1  0
 12 16  2  0
 13 17  1  0
 14 18  2  0
 15 19  2  0
 16 19  1  0
 17 20  2  0
 18 20  1  0
 20 21  1  0
 21 22  1  0
 22 23  2  0
 22 24  1  0
 24 25  1  0
 25 26  2  0
 25 27  1  0
 26 28  1  0
 27 29  2  0
 28 30  2  0
 29 30  1  0
  3 31  1  0
  3 32  1  0
  4 33  1  0
  6 34  1  0
  6 35  1  0
  7 36  1  0
 10 37  1  0
 12 38  1  0
 13 39  1  0
 15 40  1  0
 16 41  1  0
 17 42  1  0
 18 43  1  0
 19 44  1  0
 21 45  1  0
 24 46  1  0
 26 47  1  0
 27 48  1  0
 28 49  1  0
 29 50  1  0
 30 51  1  0
M  END
>  <ref_pdb>  (3) 
1_x0032_0A_-x0103_0A_26bb5d2db5.holo_minimised.pdb

>  <ref_mols>  (3) 
x0032_0A,x0103_0A

>  <fragmensteinOld_score>  (3) 
-3.0959547687359157

>  <LE_score>  (3) 
-0.22839720367844726

>  <comRMSD_score>  (3) 
0.37442845333476815

>  <fragmensteinNew_score>  (3) 
-0.76447607642300608

>  <atomic_mapping>  (3) 
"{\"2\": [[\"x0032_0A\", 5]], \"3\": [[\"x0032_0A\", 6]], \"4\": [[\"x0032_0A\", 7]], \"5\": [[\"x0032_0A\", 8]], \"6\": [[\"x0032_0A\", 9]], \"7\": [[\"x0032_0A\", 10]], \"8\": [[\"x0032_0A\", 11]], \"9\": [[\"x0032_0A\", 12]], \"10\": [[\"x0032_0A\", 13]], \"11\": [[\"x0032_0A\", 14]], \"0\": [[\"x0032_0A\", 15]], \"14\": [[\"x0103_0A\", 13]], \"15\": [[\"x0103_0A\", 12]], \"16\": [[\"x0103_0A\", 11]], \"17\": [[\"x0103_0A\", 10]], \"18\": [[\"x0103_0A\", 9]], \"19\": [[\"x0103_0A\", 1]], \"20\": [[\"x0103_0A\", 0]], \"21\": [[\"x0103_0A\", 2]], \"22\": [[\"x0103_0A\", 3]], \"23\": [[\"x0103_0A\", 8]], \"24\": [[\"x0103_0A\", 7]], \"25\": [[\"x0103_0A\", 6]], \"26\": [[\"x0103_0A\", 5]], \"27\": [[\"x0103_0A\", 4]], \"28\": [[\"x0103_0A\", 15]], \"29\": [[\"x0103_0A\", 14]]}"

>  <meanSuCosW_score>  (3) 
0.77604457688571649

>  <maxSuCosW_score>  (3) 
0.92254303249249148

>  <minSuCosW_score>  (3) 
0.6295461212789415

>  <sumSuCosW_score>  (3) 
1.552089153771433

>  <SA_score>  (3) 
5.8851953490354774

>  <aLogP_score>  (3) 
4.0658000000000021

>  <hbondD_score>  (3) 
4

>  <hbondA_score>  (3) 
3

>  <polarSurfaceArea_score>  (3) 
98.909999999999997

>  <rotableBonds_score>  (3) 
6

>  <SC_score>  (3) 
4.4004417576978092

>  <energyPoseVsEnsemble_score>  (3) 
15.61546636577696

>  <xcos_score>  (3) 
26.155412016117666

>  <plipMedianPreser_score>  (3) 
0

>  <plipGlobalPreser_score>  (3) 
nan

>  <plipGlobalPreserOverMw_score>  (3) 
nan

>  <plipTotalNumInteractions_score>  (3) 
5

>  <original_name>  (3) 
x0032-0A-x0103-0A-26bb5d2db5-O-C-CC1-CNC-2C-CC-CC12-NCC-3C-CC-NC-O-NC-4C-CC-CC4-CN3

>  <original SMILES>  (3) 
[H]c1nc(C([H])([H])N([H])C(=O)C([H])([H])c2c([H])n([H])c3c([H])c([H])c([H])c([H])c23)c([H])c([H])c1N([H])C(=O)N([H])c1c([H])c([H])c([H])c([H])c1[H]

>  <CID>  (3) 
Z5024348803

$$$$
2_x0032_0A_-x0103_0A_28063f177c
     RDKit          3D

 54 57  0  0  0  0  0  0  0  0999 V2000
   16.1940   11.3070   -1.4440 O   0  0  0  0  0  0  0  0  0  0  0  0
   15.9270   12.0720   -0.5200 C   0  0  0  0  0  0  0  0  0  0  0  0
   16.7320   13.0500    0.0280 N   0  0  0  0  0  0  0  0  0  0  0  0
   14.7360   12.0870    0.1590 N   0  0  0  0  0  0  0  0  0  0  0  0
   18.0910   12.9700    0.3590 C   0  0  0  0  0  0  0  0  0  0  0  0
   13.4710   11.8850   -0.3130 C   0  0  0  0  0  0  0  0  0  0  0  0
   19.0340   12.8020   -0.8200 C   0  0  0  0  0  0  0  0  0  0  0  0
   18.5410   13.0450    1.6640 C   0  0  0  0  0  0  0  0  0  0  0  0
   12.6470   12.9180    0.0420 C   0  0  0  0  0  0  0  0  0  0  0  0
   12.9310   10.8400   -1.0530 C   0  0  0  0  0  0  0  0  0  0  0  0
   20.5430   12.7140   -0.5810 C   0  0  0  0  0  0  0  0  0  0  0  0
   20.0090   12.9700    2.0260 C   0  0  0  0  0  0  0  0  0  0  0  0
   11.3410   12.8870   -0.3290 C   0  0  0  0  0  0  0  0  0  0  0  0
   11.6160   10.7960   -1.4380 N   0  0  0  0  0  0  0  0  0  0  0  0
   21.0210   12.8010    0.8810 C   0  0  0  0  0  0  0  0  0  0  0  0
   10.8050   11.8480   -1.0610 C   0  0  0  0  0  0  0  0  0  0  0  0
    9.3760   12.0170   -1.3400 C   0  0  0  0  0  0  0  0  0  0  0  0
    8.7140   12.6200   -0.5070 O   0  0  0  0  0  0  0  0  0  0  0  0
    8.8340   11.5650   -2.4610 N   0  0  0  0  0  0  0  0  0  0  0  0
    7.5490   12.1840   -2.5820 C   0  0  0  0  0  0  0  0  0  0  0  0
    7.3030   12.5970   -3.8350 C   0  0  0  0  0  0  0  0  0  0  0  0
    7.5410   13.9370   -3.9550 C   0  0  0  0  0  0  0  0  0  0  0  0
    8.4280   14.3160   -4.9340 C   0  0  0  0  0  0  0  0  0  0  0  0
    9.8180   14.4020   -4.8060 C   0  0  0  0  0  0  0  0  0  0  0  0
    8.0790   14.6760   -6.2410 C   0  0  0  0  0  0  0  0  0  0  0  0
   10.3000   14.8090   -6.0250 N   0  0  0  0  0  0  0  0  0  0  0  0
    9.2530   14.9790   -6.9120 C   0  0  0  0  0  0  0  0  0  0  0  0
    6.8460   14.7630   -6.9010 C   0  0  0  0  0  0  0  0  0  0  0  0
    9.2380   15.3720   -8.2470 C   0  0  0  0  0  0  0  0  0  0  0  0
    6.8200   15.1560   -8.2360 C   0  0  0  0  0  0  0  0  0  0  0  0
    8.0220   15.4600   -8.9050 C   0  0  0  0  0  0  0  0  0  0  0  0
   16.2460   13.8360    0.4320 H   0  0  0  0  0  0  0  0  0  0  0  0
   14.7580   12.6410    1.0030 H   0  0  0  0  0  0  0  0  0  0  0  0
   18.6630   12.7420   -1.8390 H   0  0  0  0  0  0  0  0  0  0  0  0
   17.8290   13.1650    2.4770 H   0  0  0  0  0  0  0  0  0  0  0  0
   13.0380   13.7490    0.6190 H   0  0  0  0  0  0  0  0  0  0  0  0
   13.5120    9.9830   -1.3750 H   0  0  0  0  0  0  0  0  0  0  0  0
   21.3200   12.5960   -1.3250 H   0  0  0  0  0  0  0  0  0  0  0  0
   20.3250   13.0360    3.0620 H   0  0  0  0  0  0  0  0  0  0  0  0
   10.6930   13.7100   -0.0370 H   0  0  0  0  0  0  0  0  0  0  0  0
   22.0830   12.7440    1.1070 H   0  0  0  0  0  0  0  0  0  0  0  0
    9.4480   11.5520   -3.2720 H   0  0  0  0  0  0  0  0  0  0  0  0
    6.7780   11.4690   -2.2740 H   0  0  0  0  0  0  0  0  0  0  0  0
    7.6020   12.9710   -1.8330 H   0  0  0  0  0  0  0  0  0  0  0  0
    7.9210   12.0440   -4.5520 H   0  0  0  0  0  0  0  0  0  0  0  0
    6.2550   12.3900   -4.0850 H   0  0  0  0  0  0  0  0  0  0  0  0
    7.8900   14.3290   -2.9940 H   0  0  0  0  0  0  0  0  0  0  0  0
    6.5900   14.4380   -4.1190 H   0  0  0  0  0  0  0  0  0  0  0  0
   10.4810   14.2120   -3.9730 H   0  0  0  0  0  0  0  0  0  0  0  0
   11.2730   14.9620   -6.2480 H   0  0  0  0  0  0  0  0  0  0  0  0
    5.9210   14.5290   -6.3840 H   0  0  0  0  0  0  0  0  0  0  0  0
   10.1610   15.6070   -8.7680 H   0  0  0  0  0  0  0  0  0  0  0  0
    5.8700   15.2270   -8.7580 H   0  0  0  0  0  0  0  0  0  0  0  0
    7.9980   15.7670   -9.9500 H   0  0  0  0  0  0  0  0  0  0  0  0
  1  2  2  0
  2  3  1  0
  2  4  1  0
  3  5  1  0
  4  6  1  0
  5  7  2  0
  5  8  1  0
  6  9  2  0
  6 10  1  0
  7 11  1  0
  8 12  2  0
  9 13  1  0
 10 14  2  0
 11 15  2  0
 12 15  1  0
 13 16  2  0
 14 16  1  0
 16 17  1  0
 17 18  2  0
 17 19  1  0
 19 20  1  0
 20 21  1  0
 21 22  1  0
 22 23  1  0
 23 24  2  0
 23 25  1  0
 24 26  1  0
 25 27  2  0
 26 27  1  0
 25 28  1  0
 27 29  1  0
 28 30  2  0
 29 31  2  0
 30 31  1  0
  3 32  1  0
  4 33  1  0
  7 34  1  0
  8 35  1  0
  9 36  1  0
 10 37  1  0
 11 38  1  0
 12 39  1  0
 13 40  1  0
 15 41  1  0
 19 42  1  0
 20 43  1  0
 20 44  1  0
 21 45  1  0
 21 46  1  0
 22 47  1  0
 22 48  1  0
 24 49  1  0
 26 50  1  0
 28 51  1  0
 29 52  1  0
 30 53  1  0
 31 54  1  0
M  END
>  <ref_pdb>  (4) 
2_x0032_0A_-x0103_0A_28063f177c.holo_minimised.pdb

>  <ref_mols>  (4) 
x0032_0A,x0103_0A

>  <fragmensteinOld_score>  (4) 
-2.4184450367109465

>  <LE_score>  (4) 
-0.1827949821667593

>  <comRMSD_score>  (4) 
0.72456084202301685

>  <fragmensteinNew_score>  (4) 
0.29619329230406644

>  <atomic_mapping>  (4) 
"{\"21\": [[\"x0032_0A\", 5]], \"22\": [[\"x0032_0A\", 6]], \"23\": [[\"x0032_0A\", 7]], \"24\": [[\"x0032_0A\", 8]], \"25\": [[\"x0032_0A\", 9]], \"26\": [[\"x0032_0A\", 10]], \"27\": [[\"x0032_0A\", 11]], \"28\": [[\"x0032_0A\", 12]], \"29\": [[\"x0032_0A\", 13]], \"30\": [[\"x0032_0A\", 14]], \"46\": [[\"x0032_0A\", 4]], \"43\": [[\"x0032_0A\", 15]], \"47\": [[\"x0032_0A\", 3]], \"0\": [[\"x0103_0A\", 0]], \"1\": [[\"x0103_0A\", 1]], \"2\": [[\"x0103_0A\", 2]], \"3\": [[\"x0103_0A\", 3]], \"4\": [[\"x0103_0A\", 8]], \"5\": [[\"x0103_0A\", 7]], \"6\": [[\"x0103_0A\", 6]], \"7\": [[\"x0103_0A\", 5]], \"8\": [[\"x0103_0A\", 4]], \"9\": [[\"x0103_0A\", 9]], \"10\": [[\"x0103_0A\", 10]], \"11\": [[\"x0103_0A\", 11]], \"12\": [[\"x0103_0A\", 12]], \"13\": [[\"x0103_0A\", 13]], \"14\": [[\"x0103_0A\", 14]], \"15\": [[\"x0103_0A\", 15]]}"

>  <meanSuCosW_score>  (4) 
0.7268924025877046

>  <maxSuCosW_score>  (4) 
0.88506772104457765

>  <minSuCosW_score>  (4) 
0.56871708413083144

>  <sumSuCosW_score>  (4) 
1.4537848051754092

>  <SA_score>  (4) 
6.639798212224143

>  <aLogP_score>  (4) 
4.5695000000000023

>  <hbondD_score>  (4) 
4

>  <hbondA_score>  (4) 
3

>  <polarSurfaceArea_score>  (4) 
98.909999999999997

>  <rotableBonds_score>  (4) 
7

>  <SC_score>  (4) 
4.4986141998688147

>  <energyPoseVsEnsemble_score>  (4) 
1.647102915719024

>  <xcos_score>  (4) 
22.33450357684319

>  <plipMedianPreser_score>  (4) 
0

>  <plipGlobalPreser_score>  (4) 
nan

>  <plipGlobalPreserOverMw_score>  (4) 
nan

>  <plipTotalNumInteractions_score>  (4) 
3

>  <original_name>  (4) 
x0032-0A-x0103-0A-28063f177c-O-C-NC-1C-CC-CC1-NC-2C-CC-NC2-C-O-NCCCC3-CNC-4C-CC-CC34

>  <original SMILES>  (4) 
[H]c1nc(C(=O)N([H])C([H])([H])C([H])([H])C([H])([H])c2c([H])n([H])c3c([H])c([H])c([H])c([H])c23)c([H])c([H])c1N([H])C(=O)N([H])c1c([H])c([H])c([H])c([H])c1[H]

>  <CID>  (4) 
Z5024348796

$$$$
3_x0032_0A_-x0103_0A_63cca9faa4
     RDKit          3D

 51 54  0  0  0  0  0  0  0  0999 V2000
    8.7470   12.9210   -1.1150 O   0  0  0  0  0  0  0  0  0  0  0  0
    8.7340   12.1740   -2.0910 C   0  0  0  0  0  0  0  0  0  0  0  0
    7.7600   12.4130   -3.2410 C   0  0  0  0  0  0  0  0  0  0  0  0
    9.6240   11.1120   -2.2010 N   0  0  0  0  0  0  0  0  0  0  0  0
    7.7160   13.9070   -3.5070 C   0  0  0  0  0  0  0  0  0  0  0  0
   10.9330   11.3280   -1.6240 C   0  0  0  0  0  0  0  0  0  0  0  0
    8.4730   14.2610   -4.7740 C   0  0  0  0  0  0  0  0  0  0  0  0
   11.1290   12.7470   -1.1730 C   0  0  0  0  0  0  0  0  0  0  0  0
   11.8340   10.3410   -1.5250 N   0  0  0  0  0  0  0  0  0  0  0  0
    9.9850   14.3150   -4.7490 C   0  0  0  0  0  0  0  0  0  0  0  0
    8.0530   14.5810   -6.0780 C   0  0  0  0  0  0  0  0  0  0  0  0
   12.4910   13.0190   -0.5580 C   0  0  0  0  0  0  0  0  0  0  0  0
   13.0230   10.6890   -0.9560 C   0  0  0  0  0  0  0  0  0  0  0  0
   10.3410   14.6620   -6.0250 N   0  0  0  0  0  0  0  0  0  0  0  0
    9.2160   14.8270   -6.8290 C   0  0  0  0  0  0  0  0  0  0  0  0
    6.7900   14.6890   -6.6930 C   0  0  0  0  0  0  0  0  0  0  0  0
   13.3830   11.9540   -0.4760 C   0  0  0  0  0  0  0  0  0  0  0  0
    9.1470   15.1800   -8.1810 C   0  0  0  0  0  0  0  0  0  0  0  0
    6.7200   15.0420   -8.0410 C   0  0  0  0  0  0  0  0  0  0  0  0
   14.6530   12.1240    0.0960 N   0  0  0  0  0  0  0  0  0  0  0  0
    7.8830   15.2830   -8.7680 C   0  0  0  0  0  0  0  0  0  0  0  0
   15.9140   12.1420   -0.4680 C   0  0  0  0  0  0  0  0  0  0  0  0
   16.2230   11.4840   -1.4570 O   0  0  0  0  0  0  0  0  0  0  0  0
   16.7090   12.9840    0.2690 N   0  0  0  0  0  0  0  0  0  0  0  0
   18.0990   12.9240    0.4610 C   0  0  0  0  0  0  0  0  0  0  0  0
   18.9020   12.7690   -0.6770 C   0  0  0  0  0  0  0  0  0  0  0  0
   18.6810   13.0200    1.7260 C   0  0  0  0  0  0  0  0  0  0  0  0
   20.2880   12.7110   -0.5290 C   0  0  0  0  0  0  0  0  0  0  0  0
   20.0770   12.9600    1.8590 C   0  0  0  0  0  0  0  0  0  0  0  0
   20.8790   12.8050    0.7290 C   0  0  0  0  0  0  0  0  0  0  0  0
    6.7670   12.0300   -2.9770 H   0  0  0  0  0  0  0  0  0  0  0  0
    8.1520   11.8740   -4.1130 H   0  0  0  0  0  0  0  0  0  0  0  0
    9.6730   10.6000   -3.0700 H   0  0  0  0  0  0  0  0  0  0  0  0
    6.6860   14.2550   -3.6020 H   0  0  0  0  0  0  0  0  0  0  0  0
    8.1630   14.4620   -2.6750 H   0  0  0  0  0  0  0  0  0  0  0  0
   10.3960   13.5370   -1.2570 H   0  0  0  0  0  0  0  0  0  0  0  0
   10.7130   14.1420   -3.9700 H   0  0  0  0  0  0  0  0  0  0  0  0
   12.7150   14.0190   -0.2050 H   0  0  0  0  0  0  0  0  0  0  0  0
   13.7240    9.8650   -0.8920 H   0  0  0  0  0  0  0  0  0  0  0  0
   11.2890   14.7830   -6.3470 H   0  0  0  0  0  0  0  0  0  0  0  0
    5.8790   14.5020   -6.1290 H   0  0  0  0  0  0  0  0  0  0  0  0
   10.0410   15.3700   -8.7620 H   0  0  0  0  0  0  0  0  0  0  0  0
    5.7500   15.1300   -8.5260 H   0  0  0  0  0  0  0  0  0  0  0  0
   14.6430   12.6300    0.9830 H   0  0  0  0  0  0  0  0  0  0  0  0
    7.8100   15.5570   -9.8190 H   0  0  0  0  0  0  0  0  0  0  0  0
   16.2130   13.3180    1.0990 H   0  0  0  0  0  0  0  0  0  0  0  0
   18.4720   12.6930   -1.6720 H   0  0  0  0  0  0  0  0  0  0  0  0
   18.0820   13.1420    2.6260 H   0  0  0  0  0  0  0  0  0  0  0  0
   20.9180   12.5900   -1.4090 H   0  0  0  0  0  0  0  0  0  0  0  0
   20.5260   13.0370    2.8440 H   0  0  0  0  0  0  0  0  0  0  0  0
   21.9600   12.7580    0.8330 H   0  0  0  0  0  0  0  0  0  0  0  0
  1  2  2  0
  2  3  1  0
  2  4  1  0
  3  5  1  0
  4  6  1  0
  5  7  1  0
  6  8  2  0
  6  9  1  0
  7 10  2  0
  7 11  1  0
  8 12  1  0
  9 13  2  0
 10 14  1  0
 11 15  2  0
 14 15  1  0
 11 16  1  0
 12 17  2  0
 13 17  1  0
 15 18  1  0
 16 19  2  0
 17 20  1  0
 18 21  2  0
 19 21  1  0
 20 22  1  0
 22 23  2  0
 22 24  1  0
 24 25  1  0
 25 26  2  0
 25 27  1  0
 26 28  1  0
 27 29  2  0
 28 30  2  0
 29 30  1  0
  3 31  1  0
  3 32  1  0
  4 33  1  0
  5 34  1  0
  5 35  1  0
  8 36  1  0
 10 37  1  0
 12 38  1  0
 13 39  1  0
 14 40  1  0
 16 41  1  0
 18 42  1  0
 19 43  1  0
 20 44  1  0
 21 45  1  0
 24 46  1  0
 26 47  1  0
 27 48  1  0
 28 49  1  0
 29 50  1  0
 30 51  1  0
M  END
>  <ref_pdb>  (5) 
3_x0032_0A_-x0103_0A_63cca9faa4.holo_minimised.pdb

>  <ref_mols>  (5) 
x0032_0A,x0103_0A

>  <fragmensteinOld_score>  (5) 
-3.2692874733090722

>  <LE_score>  (5) 
-0.2458028736245817

>  <comRMSD_score>  (5) 
0.60385091788825052

>  <fragmensteinNew_score>  (5) 
-0.34156778075662186

>  <atomic_mapping>  (5) 
"{\"3\": [[\"x0032_0A\", 5]], \"4\": [[\"x0032_0A\", 6]], \"5\": [[\"x0032_0A\", 7]], \"6\": [[\"x0032_0A\", 8]], \"7\": [[\"x0032_0A\", 9]], \"8\": [[\"x0032_0A\", 10]], \"9\": [[\"x0032_0A\", 11]], \"10\": [[\"x0032_0A\", 12]], \"11\": [[\"x0032_0A\", 13]], \"12\": [[\"x0032_0A\", 14]], \"33\": [[\"x0032_0A\", 4]], \"32\": [[\"x0032_0A\", 3]], \"0\": [[\"x0032_0A\", 15]], \"14\": [[\"x0103_0A\", 13]], \"15\": [[\"x0103_0A\", 12]], \"16\": [[\"x0103_0A\", 11]], \"17\": [[\"x0103_0A\", 10]], \"18\": [[\"x0103_0A\", 9]], \"19\": [[\"x0103_0A\", 1]], \"20\": [[\"x0103_0A\", 0]], \"21\": [[\"x0103_0A\", 2]], \"22\": [[\"x0103_0A\", 3]], \"23\": [[\"x0103_0A\", 8]], \"24\": [[\"x0103_0A\", 7]], \"25\": [[\"x0103_0A\", 6]], \"26\": [[\"x0103_0A\", 5]], \"27\": [[\"x0103_0A\", 4]], \"28\": [[\"x0103_0A\", 15]], \"29\": [[\"x0103_0A\", 14]]}"

>  <meanSuCosW_score>  (5) 
0.77434400505862877

>  <maxSuCosW_score>  (5) 
0.93339070642863198

>  <minSuCosW_score>  (5) 
0.61529730368862556

>  <sumSuCosW_score>  (5) 
1.5486880101172575

>  <SA_score>  (5) 
5.7351103424261014

>  <aLogP_score>  (5) 
4.7782000000000027

>  <hbondD_score>  (5) 
4

>  <hbondA_score>  (5) 
3

>  <polarSurfaceArea_score>  (5) 
98.909999999999997

>  <rotableBonds_score>  (5) 
6

>  <SC_score>  (5) 
4.4591803548041078

>  <energyPoseVsEnsemble_score>  (5) 
0.99511830338840845

>  <xcos_score>  (5) 
26.1155239852982

>  <plipMedianPreser_score>  (5) 
0

>  <plipGlobalPreser_score>  (5) 
nan

>  <plipGlobalPreserOverMw_score>  (5) 
nan

>  <plipTotalNumInteractions_score>  (5) 
7

>  <original_name>  (5) 
x0032-0A-x0103-0A-63cca9faa4-O-C-CCC1-CNC-2C-CC-CC12-NC-3C-CC-NC-O-NC-4C-CC-CC4-CN3

>  <original SMILES>  (5) 
[H]c1nc(N([H])C(=O)C([H])([H])C([H])([H])c2c([H])n([H])c3c([H])c([H])c([H])c([H])c23)c([H])c([H])c1N([H])C(=O)N([H])c1c([H])c([H])c([H])c([H])c1[H]

>  <CID>  (5) 
Z5024348801

$$$$
4_x0032_0A_-x0103_0A_92f48fdb0a
     RDKit          3D

 54 56  0  0  0  0  0  0  0  0999 V2000
    7.0720   18.7720   -0.8650 C   0  0  0  0  0  0  0  0  0  0  0  0
    7.0460   17.2290   -0.8710 C   0  0  1  0  0  0  0  0  0  0  0  0
    6.0080   16.6530   -1.8330 C   0  0  0  0  0  0  0  0  0  0  0  0
    8.4210   16.6600   -1.1910 C   0  0  0  0  0  0  0  0  0  0  0  0
    6.6240   15.7290   -2.8890 C   0  0  0  0  0  0  0  0  0  0  0  0
    8.3520   15.2590   -1.3250 C   0  0  0  0  0  0  0  0  0  0  0  0
    7.4050   14.7480   -2.3400 N   0  0  0  0  0  0  0  0  0  0  0  0
    8.0680   14.0450   -3.3260 C   0  0  0  0  0  0  0  0  0  0  0  0
    9.2610   14.4180   -3.9670 C   0  0  0  0  0  0  0  0  0  0  0  0
   10.4440   13.9820   -3.2310 N   0  0  0  0  0  0  0  0  0  0  0  0
   11.6980   14.4860   -3.5400 C   0  0  0  0  0  0  0  0  0  0  0  0
   11.8950   15.3790   -4.3580 O   0  0  0  0  0  0  0  0  0  0  0  0
   12.7770   13.9230   -2.8510 C   0  0  0  0  0  0  0  0  0  0  0  0
   14.0360   14.5580   -2.8320 C   0  0  0  0  0  0  0  0  0  0  0  0
   12.6210   12.7150   -2.1660 C   0  0  0  0  0  0  0  0  0  0  0  0
   15.1040   13.9880   -2.1340 C   0  0  0  0  0  0  0  0  0  0  0  0
   13.6830   12.1490   -1.4770 C   0  0  0  0  0  0  0  0  0  0  0  0
   14.9230   12.7810   -1.4540 C   0  0  0  0  0  0  0  0  0  0  0  0
   16.0000   12.1040   -0.6960 C   0  0  0  0  0  0  0  0  0  0  0  0
   16.2110   10.9330   -0.9740 O   0  0  0  0  0  0  0  0  0  0  0  0
   16.7040   12.9090    0.2890 N   0  0  0  0  0  0  0  0  0  0  0  0
   18.0950   12.8800    0.4620 C   0  0  0  0  0  0  0  0  0  0  0  0
   18.9850   12.7490   -0.5800 C   0  0  0  0  0  0  0  0  0  0  0  0
   18.6160   12.9860    1.7550 C   0  0  0  0  0  0  0  0  0  0  0  0
   20.3600   12.7160   -0.3980 C   0  0  0  0  0  0  0  0  0  0  0  0
   19.9890   12.9570    1.9660 C   0  0  0  0  0  0  0  0  0  0  0  0
   20.8790   12.8200    0.8970 C   0  0  0  0  0  0  0  0  0  0  0  0
    7.8830   19.1480   -0.2330 H   0  0  0  0  0  0  0  0  0  0  0  0
    7.2100   19.1780   -1.8670 H   0  0  0  0  0  0  0  0  0  0  0  0
    6.1380   19.1690   -0.4720 H   0  0  0  0  0  0  0  0  0  0  0  0
    6.7760   16.9080    0.1440 H   0  0  0  0  0  0  0  0  0  0  0  0
    5.4810   17.4830   -2.3220 H   0  0  0  0  0  0  0  0  0  0  0  0
    5.2400   16.0920   -1.2910 H   0  0  0  0  0  0  0  0  0  0  0  0
    9.1360   16.9140   -0.3980 H   0  0  0  0  0  0  0  0  0  0  0  0
    8.8050   17.1090   -2.1170 H   0  0  0  0  0  0  0  0  0  0  0  0
    7.2620   16.3210   -3.5430 H   0  0  0  0  0  0  0  0  0  0  0  0
    5.8460   15.3320   -3.5510 H   0  0  0  0  0  0  0  0  0  0  0  0
    9.3650   14.8780   -1.4950 H   0  0  0  0  0  0  0  0  0  0  0  0
    8.0500   14.8440   -0.3550 H   0  0  0  0  0  0  0  0  0  0  0  0
    7.3480   13.8150   -4.1220 H   0  0  0  0  0  0  0  0  0  0  0  0
    8.3030   13.0710   -2.8790 H   0  0  0  0  0  0  0  0  0  0  0  0
    9.2820   13.9890   -4.9750 H   0  0  0  0  0  0  0  0  0  0  0  0
    9.3310   15.5040   -4.0750 H   0  0  0  0  0  0  0  0  0  0  0  0
   10.2680   13.7550   -2.2530 H   0  0  0  0  0  0  0  0  0  0  0  0
   14.1770   15.4980   -3.3620 H   0  0  0  0  0  0  0  0  0  0  0  0
   11.6680   12.2020   -2.1620 H   0  0  0  0  0  0  0  0  0  0  0  0
   16.0650   14.4970   -2.1330 H   0  0  0  0  0  0  0  0  0  0  0  0
   13.5500   11.2070   -0.9510 H   0  0  0  0  0  0  0  0  0  0  0  0
   16.1580   13.2120    1.1060 H   0  0  0  0  0  0  0  0  0  0  0  0
   18.5150   12.6700   -1.5650 H   0  0  0  0  0  0  0  0  0  0  0  0
   17.9570   13.0920    2.6140 H   0  0  0  0  0  0  0  0  0  0  0  0
   21.0240   12.6100   -1.2540 H   0  0  0  0  0  0  0  0  0  0  0  0
   20.3750   13.0420    2.9780 H   0  0  0  0  0  0  0  0  0  0  0  0
   21.9500   12.7960    1.0660 H   0  0  0  0  0  0  0  0  0  0  0  0
  1  2  1  0
  2  3  1  0
  2  4  1  0
  3  5  1  0
  4  6  1  0
  5  7  1  0
  6  7  1  0
  7  8  1  0
  8  9  1  0
  9 10  1  0
 10 11  1  0
 11 12  2  0
 11 13  1  0
 13 14  2  0
 13 15  1  0
 14 16  1  0
 15 17  2  0
 16 18  2  0
 17 18  1  0
 18 19  1  0
 19 20  2  0
 19 21  1  0
 21 22  1  0
 22 23  2  0
 22 24  1  0
 23 25  1  0
 24 26  2  0
 25 27  2  0
 26 27  1  0
  1 28  1  0
  1 29  1  0
  1 30  1  0
  2 31  1  1
  3 32  1  0
  3 33  1  0
  4 34  1  0
  4 35  1  0
  5 36  1  0
  5 37  1  0
  6 38  1  0
  6 39  1  0
  8 40  1  0
  8 41  1  0
  9 42  1  0
  9 43  1  0
 10 44  1  0
 14 45  1  0
 15 46  1  0
 16 47  1  0
 17 48  1  0
 21 49  1  0
 23 50  1  0
 24 51  1  0
 25 52  1  0
 26 53  1  0
 27 54  1  0
M  END
>  <ref_pdb>  (6) 
4_x0032_0A_-x0103_0A_92f48fdb0a.holo_minimised.pdb

>  <ref_mols>  (6) 
x0032_0A,x0103_0A

>  <fragmensteinOld_score>  (6) 
-1.4482533761138947

>  <LE_score>  (6) 
-0.22318463995364898

>  <comRMSD_score>  (6) 
0.79085446360799905

>  <fragmensteinNew_score>  (6) 
1.0257127243825384

>  <atomic_mapping>  (6) 
"{\"0\": [[\"x0032_0A\", 0]], \"1\": [[\"x0032_0A\", 1]], \"2\": [[\"x0032_0A\", 2]], \"3\": [[\"x0032_0A\", 3]], \"4\": [[\"x0032_0A\", 4]], \"5\": [[\"x0032_0A\", 5]], \"25\": [[\"x0032_0A\", 15]], \"26\": [[\"x0032_0A\", 16]], \"16\": [[\"x0103_0A\", 1]], \"17\": [[\"x0103_0A\", 0]], \"18\": [[\"x0103_0A\", 2]], \"19\": [[\"x0103_0A\", 3]], \"20\": [[\"x0103_0A\", 8]], \"21\": [[\"x0103_0A\", 7]], \"22\": [[\"x0103_0A\", 6]], \"23\": [[\"x0103_0A\", 5]], \"24\": [[\"x0103_0A\", 4]], \"42\": [[\"x0103_0A\", 15]], \"13\": [[\"x0103_0A\", 9]], \"14\": [[\"x0103_0A\", 10]], \"15\": [[\"x0103_0A\", 11]], \"39\": [[\"x0103_0A\", 12]], \"43\": [[\"x0103_0A\", 13]]}"

>  <meanSuCosW_score>  (6) 
0.50331811507415669

>  <maxSuCosW_score>  (6) 
0.59148569768936854

>  <minSuCosW_score>  (6) 
0.41515053245894479

>  <sumSuCosW_score>  (6) 
1.0066362301483134

>  <SA_score>  (6) 
7.2366588558330758

>  <aLogP_score>  (6) 
3.4006000000000016

>  <hbondD_score>  (6) 
2

>  <hbondA_score>  (6) 
3

>  <polarSurfaceArea_score>  (6) 
61.440000000000005

>  <rotableBonds_score>  (6) 
6

>  <SC_score>  (6) 
3.8574660308947206

>  <energyPoseVsEnsemble_score>  (6) 
1.1307376103469946

>  <xcos_score>  (6) 
17.872571006780749

>  <plipMedianPreser_score>  (6) 
0

>  <plipGlobalPreser_score>  (6) 
nan

>  <plipGlobalPreserOverMw_score>  (6) 
nan

>  <plipTotalNumInteractions_score>  (6) 
4

>  <original_name>  (6) 
x0032-0A-x0103-0A-92f48fdb0a-CC1CCN-CCNC-O-C-2C-CC-CC2-C-O-NC-3C-CC-CC3-CC1

>  <original SMILES>  (6) 
[H]c1c([H])c([H])c(N([H])C(=O)c2c([H])c([H])c(C(=O)N([H])C([H])([H])C([H])([H])N3C([H])([H])C([H])([H])C([H])(C([H])([H])[H])C([H])([H])C3([H])[H])c([H])c2[H])c([H])c1[H]

>  <CID>  (6) 
Z1527304359

$$$$
5_x0032_0A_-x0103_0A_b799fa919f
     RDKit          3D

 52 55  0  0  0  0  0  0  0  0999 V2000
    9.6320   14.7320   -1.2830 O   0  0  0  0  0  0  0  0  0  0  0  0
    9.5810   14.0140   -2.2790 C   0  0  0  0  0  0  0  0  0  0  0  0
    8.3710   14.0480   -3.2480 C   0  0  0  0  0  0  0  0  0  0  0  0
   10.6180   13.1250   -2.6070 N   0  0  0  0  0  0  0  0  0  0  0  0
    8.8370   14.3360   -4.6740 C   0  0  0  0  0  0  0  0  0  0  0  0
   12.0360   13.4630   -2.4040 C   0  0  1  0  0  0  0  0  0  0  0  0
   10.3180   14.4070   -4.9160 C   0  0  0  0  0  0  0  0  0  0  0  0
    8.1950   14.5840   -5.9260 C   0  0  0  0  0  0  0  0  0  0  0  0
   12.3470   13.4860   -1.0550 C   0  0  0  0  0  0  0  0  0  0  0  0
   12.9580   12.5430   -3.2350 C   0  0  0  0  0  0  0  0  0  0  0  0
   10.4580   14.6840   -6.2420 N   0  0  0  0  0  0  0  0  0  0  0  0
    9.2260   14.7980   -6.8660 C   0  0  0  0  0  0  0  0  0  0  0  0
    6.8690   14.6590   -6.3760 C   0  0  0  0  0  0  0  0  0  0  0  0
   13.7950   13.3640   -0.5910 C   0  0  0  0  0  0  0  0  0  0  0  0
   13.9620   11.7390   -2.3670 C   0  0  0  0  0  0  0  0  0  0  0  0
    8.9660   15.0820   -8.2080 C   0  0  0  0  0  0  0  0  0  0  0  0
    6.6030   14.9420   -7.7160 C   0  0  0  0  0  0  0  0  0  0  0  0
   14.6860   12.5900   -1.4210 N   0  0  0  0  0  0  0  0  0  0  0  0
    7.6340   15.1550   -8.6320 C   0  0  0  0  0  0  0  0  0  0  0  0
   15.8770   12.0600   -0.8740 C   0  0  0  0  0  0  0  0  0  0  0  0
   16.2930   10.9750   -1.2580 O   0  0  0  0  0  0  0  0  0  0  0  0
   16.5170   12.8330    0.0960 N   0  0  0  0  0  0  0  0  0  0  0  0
   17.9080   12.8360    0.3900 C   0  0  0  0  0  0  0  0  0  0  0  0
   18.7790   12.7290   -0.7080 C   0  0  0  0  0  0  0  0  0  0  0  0
   18.4280   12.9360    1.6900 C   0  0  0  0  0  0  0  0  0  0  0  0
   20.1580   12.7230   -0.4850 C   0  0  0  0  0  0  0  0  0  0  0  0
   19.8250   12.9280    1.8910 C   0  0  0  0  0  0  0  0  0  0  0  0
   20.6860   12.8200    0.7990 C   0  0  0  0  0  0  0  0  0  0  0  0
    7.8410   13.1090   -3.1780 H   0  0  0  0  0  0  0  0  0  0  0  0
    7.7080   14.8520   -2.9010 H   0  0  0  0  0  0  0  0  0  0  0  0
   10.3840   12.3530   -3.2200 H   0  0  0  0  0  0  0  0  0  0  0  0
   12.1570   14.4890   -2.7740 H   0  0  0  0  0  0  0  0  0  0  0  0
   11.1790   14.2890   -4.2730 H   0  0  0  0  0  0  0  0  0  0  0  0
   11.7840   12.7060   -0.5410 H   0  0  0  0  0  0  0  0  0  0  0  0
   11.9540   14.4350   -0.6710 H   0  0  0  0  0  0  0  0  0  0  0  0
   12.3360   11.8760   -3.8400 H   0  0  0  0  0  0  0  0  0  0  0  0
   13.5320   13.1470   -3.9520 H   0  0  0  0  0  0  0  0  0  0  0  0
   11.3420   14.7950   -6.7190 H   0  0  0  0  0  0  0  0  0  0  0  0
    6.0450   14.5010   -5.6850 H   0  0  0  0  0  0  0  0  0  0  0  0
   13.8100   12.8230    0.3560 H   0  0  0  0  0  0  0  0  0  0  0  0
   14.2110   14.3610   -0.3950 H   0  0  0  0  0  0  0  0  0  0  0  0
   14.6960   11.2350   -3.0030 H   0  0  0  0  0  0  0  0  0  0  0  0
   13.4180   10.9670   -1.8140 H   0  0  0  0  0  0  0  0  0  0  0  0
    9.7740   15.2470   -8.9130 H   0  0  0  0  0  0  0  0  0  0  0  0
    5.5700   15.0000   -8.0520 H   0  0  0  0  0  0  0  0  0  0  0  0
    7.4070   15.3760   -9.6710 H   0  0  0  0  0  0  0  0  0  0  0  0
   15.9270   13.1180    0.8820 H   0  0  0  0  0  0  0  0  0  0  0  0
   18.3910   12.6520   -1.7180 H   0  0  0  0  0  0  0  0  0  0  0  0
   17.7670   13.0210    2.5520 H   0  0  0  0  0  0  0  0  0  0  0  0
   20.8330   12.6400   -1.3350 H   0  0  0  0  0  0  0  0  0  0  0  0
   20.2330   13.0060    2.8940 H   0  0  0  0  0  0  0  0  0  0  0  0
   21.7600   12.8140    0.9560 H   0  0  0  0  0  0  0  0  0  0  0  0
  1  2  2  0
  2  3  1  0
  2  4  1  0
  3  5  1  0
  4  6  1  0
  5  7  2  0
  5  8  1  0
  6  9  1  0
  6 10  1  0
  7 11  1  0
  8 12  2  0
 11 12  1  0
  8 13  1  0
  9 14  1  0
 10 15  1  0
 12 16  1  0
 13 17  2  0
 14 18  1  0
 15 18  1  0
 16 19  2  0
 17 19  1  0
 18 20  1  0
 20 21  2  0
 20 22  1  0
 22 23  1  0
 23 24  2  0
 23 25  1  0
 24 26  1  0
 25 27  2  0
 26 28  2  0
 27 28  1  0
  3 29  1  0
  3 30  1  0
  4 31  1  0
  6 32  1  6
  7 33  1  0
  9 34  1  0
  9 35  1  0
 10 36  1  0
 10 37  1  0
 11 38  1  0
 13 39  1  0
 14 40  1  0
 14 41  1  0
 15 42  1  0
 15 43  1  0
 16 44  1  0
 17 45  1  0
 19 46  1  0
 22 47  1  0
 24 48  1  0
 25 49  1  0
 26 50  1  0
 27 51  1  0
 28 52  1  0
M  END
>  <ref_pdb>  (7) 
5_x0032_0A_-x0103_0A_b799fa919f.holo_minimised.pdb

>  <ref_mols>  (7) 
x0032_0A,x0103_0A

>  <fragmensteinOld_score>  (7) 
-1.691958716557838

>  <LE_score>  (7) 
-0.17064299869369859

>  <comRMSD_score>  (7) 
0.80015647508183319

>  <fragmensteinNew_score>  (7) 
0.72598832926042922

>  <atomic_mapping>  (7) 
"{\"2\": [[\"x0032_0A\", 5]], \"3\": [[\"x0032_0A\", 6]], \"4\": [[\"x0032_0A\", 7]], \"5\": [[\"x0032_0A\", 8]], \"6\": [[\"x0032_0A\", 9]], \"7\": [[\"x0032_0A\", 10]], \"8\": [[\"x0032_0A\", 11]], \"9\": [[\"x0032_0A\", 12]], \"10\": [[\"x0032_0A\", 13]], \"11\": [[\"x0032_0A\", 14]], \"29\": [[\"x0032_0A\", 4]], \"28\": [[\"x0032_0A\", 15]], \"19\": [[\"x0103_0A\", 1]], \"20\": [[\"x0103_0A\", 0]], \"21\": [[\"x0103_0A\", 2]], \"22\": [[\"x0103_0A\", 3]], \"23\": [[\"x0103_0A\", 8]], \"24\": [[\"x0103_0A\", 7]], \"25\": [[\"x0103_0A\", 6]], \"26\": [[\"x0103_0A\", 5]], \"27\": [[\"x0103_0A\", 4]], \"38\": [[\"x0103_0A\", 11]], \"43\": [[\"x0103_0A\", 15]], \"16\": [[\"x0103_0A\", 9]], \"15\": [[\"x0103_0A\", 10]], \"14\": [[\"x0103_0A\", 12]]}"

>  <meanSuCosW_score>  (7) 
0.62880545947965016

>  <maxSuCosW_score>  (7) 
0.63414149302592282

>  <minSuCosW_score>  (7) 
0.62346942593337751

>  <sumSuCosW_score>  (7) 
1.2576109189593003

>  <SA_score>  (7) 
7.075863452399747

>  <aLogP_score>  (7) 
3.5231000000000021

>  <hbondD_score>  (7) 
3

>  <hbondA_score>  (7) 
2

>  <polarSurfaceArea_score>  (7) 
77.230000000000004

>  <rotableBonds_score>  (7) 
4

>  <SC_score>  (7) 
3.6523182988209064

>  <energyPoseVsEnsemble_score>  (7) 
0.58170871428324733

>  <xcos_score>  (7) 
21.011412192071262

>  <plipMedianPreser_score>  (7) 
0

>  <plipGlobalPreser_score>  (7) 
nan

>  <plipGlobalPreserOverMw_score>  (7) 
nan

>  <plipTotalNumInteractions_score>  (7) 
6

>  <original_name>  (7) 
x0032-0A-x0103-0A-b799fa919f-O-C-CC1-CNC-2C-CC-CC12-NC3CCN-CC3-C-O-NC-4C-CC-CC4

>  <original SMILES>  (7) 
[H]c1c([H])c([H])c(N([H])C(=O)N2C([H])([H])C([H])([H])C([H])(N([H])C(=O)C([H])([H])c3c([H])n([H])c4c([H])c([H])c([H])c([H])c34)C([H])([H])C2([H])[H])c([H])c1[H]

>  <CID>  (7) 
Z230481404

$$$$
6_x0032_0A_-x0103_0A_bdbdcae2c8
     RDKit          3D

 51 54  0  0  0  0  0  0  0  0999 V2000
    8.7500   12.8590   -1.0970 O   0  0  0  0  0  0  0  0  0  0  0  0
    8.7580   12.1990   -2.1340 C   0  0  0  0  0  0  0  0  0  0  0  0
    9.7210   11.0650   -2.3800 C   0  0  0  0  0  0  0  0  0  0  0  0
    7.9100   12.4780   -3.1640 N   0  0  0  0  0  0  0  0  0  0  0  0
   11.0150   11.3610   -1.7050 C   0  0  0  0  0  0  0  0  0  0  0  0
    7.7420   13.8630   -3.4850 C   0  0  0  0  0  0  0  0  0  0  0  0
   11.2040   12.6170   -1.1450 C   0  0  0  0  0  0  0  0  0  0  0  0
   11.9600   10.3910   -1.6710 N   0  0  0  0  0  0  0  0  0  0  0  0
    8.5650   14.2430   -4.6680 C   0  0  0  0  0  0  0  0  0  0  0  0
   12.4080   12.9040   -0.5290 C   0  0  0  0  0  0  0  0  0  0  0  0
   13.1290   10.7080   -1.0590 C   0  0  0  0  0  0  0  0  0  0  0  0
    9.9550   14.2860   -4.7090 C   0  0  0  0  0  0  0  0  0  0  0  0
    8.1120   14.6350   -5.9690 C   0  0  0  0  0  0  0  0  0  0  0  0
   13.4010   11.9410   -0.4790 C   0  0  0  0  0  0  0  0  0  0  0  0
   10.3460   14.6780   -5.9580 N   0  0  0  0  0  0  0  0  0  0  0  0
    9.2420   14.8970   -6.7460 C   0  0  0  0  0  0  0  0  0  0  0  0
    6.8380   14.7940   -6.5640 C   0  0  0  0  0  0  0  0  0  0  0  0
   14.6490   12.1430    0.1190 N   0  0  0  0  0  0  0  0  0  0  0  0
    9.1640   15.3050   -8.0800 C   0  0  0  0  0  0  0  0  0  0  0  0
    6.7450   15.2020   -7.8980 C   0  0  0  0  0  0  0  0  0  0  0  0
   15.9150   12.1620   -0.3670 C   0  0  0  0  0  0  0  0  0  0  0  0
    7.8970   15.4510   -8.6400 C   0  0  0  0  0  0  0  0  0  0  0  0
   16.2090   11.4730   -1.3390 O   0  0  0  0  0  0  0  0  0  0  0  0
   16.7170   12.9880    0.3500 N   0  0  0  0  0  0  0  0  0  0  0  0
   18.1040   12.9230    0.5020 C   0  0  0  0  0  0  0  0  0  0  0  0
   18.7150   13.0070    1.7480 C   0  0  0  0  0  0  0  0  0  0  0  0
   18.8920   12.7710   -0.6450 C   0  0  0  0  0  0  0  0  0  0  0  0
   20.1020   12.9440    1.8570 C   0  0  0  0  0  0  0  0  0  0  0  0
   20.2820   12.7080   -0.5350 C   0  0  0  0  0  0  0  0  0  0  0  0
   20.8880   12.7940    0.7160 C   0  0  0  0  0  0  0  0  0  0  0  0
    9.3050   10.1170   -2.0320 H   0  0  0  0  0  0  0  0  0  0  0  0
    9.8780   10.9560   -3.4570 H   0  0  0  0  0  0  0  0  0  0  0  0
    7.8070   11.8050   -3.9150 H   0  0  0  0  0  0  0  0  0  0  0  0
    6.6830   14.0960   -3.6590 H   0  0  0  0  0  0  0  0  0  0  0  0
    8.0800   14.4150   -2.5990 H   0  0  0  0  0  0  0  0  0  0  0  0
   10.4300   13.3770   -1.1840 H   0  0  0  0  0  0  0  0  0  0  0  0
   12.5330   13.8930   -0.1000 H   0  0  0  0  0  0  0  0  0  0  0  0
   13.8630    9.9060   -1.0540 H   0  0  0  0  0  0  0  0  0  0  0  0
   10.6950   14.0680   -3.9480 H   0  0  0  0  0  0  0  0  0  0  0  0
   11.3030   14.7940   -6.2700 H   0  0  0  0  0  0  0  0  0  0  0  0
    5.9270   14.6040   -6.0000 H   0  0  0  0  0  0  0  0  0  0  0  0
   14.6540   12.6630    1.0080 H   0  0  0  0  0  0  0  0  0  0  0  0
   10.0570   15.5030   -8.6650 H   0  0  0  0  0  0  0  0  0  0  0  0
    5.7650   15.3240   -8.3560 H   0  0  0  0  0  0  0  0  0  0  0  0
    7.8130   15.7660   -9.6760 H   0  0  0  0  0  0  0  0  0  0  0  0
   16.2260   13.3000    1.1950 H   0  0  0  0  0  0  0  0  0  0  0  0
   18.1270   13.1260    2.6580 H   0  0  0  0  0  0  0  0  0  0  0  0
   18.4400   12.7020   -1.6310 H   0  0  0  0  0  0  0  0  0  0  0  0
   20.5660   13.0140    2.8350 H   0  0  0  0  0  0  0  0  0  0  0  0
   20.8900   12.5910   -1.4290 H   0  0  0  0  0  0  0  0  0  0  0  0
   21.9700   12.7450    0.8060 H   0  0  0  0  0  0  0  0  0  0  0  0
  1  2  2  0
  2  3  1  0
  2  4  1  0
  3  5  1  0
  4  6  1  0
  5  7  2  0
  5  8  1  0
  6  9  1  0
  7 10  1  0
  8 11  2  0
  9 12  2  0
  9 13  1  0
 10 14  2  0
 11 14  1  0
 12 15  1  0
 13 16  2  0
 15 16  1  0
 13 17  1  0
 14 18  1  0
 16 19  1  0
 17 20  2  0
 18 21  1  0
 19 22  2  0
 20 22  1  0
 21 23  2  0
 21 24  1  0
 24 25  1  0
 25 26  2  0
 25 27  1  0
 26 28  1  0
 27 29  2  0
 28 30  2  0
 29 30  1  0
  3 31  1  0
  3 32  1  0
  4 33  1  0
  6 34  1  0
  6 35  1  0
  7 36  1  0
 10 37  1  0
 11 38  1  0
 12 39  1  0
 15 40  1  0
 17 41  1  0
 18 42  1  0
 19 43  1  0
 20 44  1  0
 22 45  1  0
 24 46  1  0
 26 47  1  0
 27 48  1  0
 28 49  1  0
 29 50  1  0
 30 51  1  0
M  END
>  <ref_pdb>  (8) 
6_x0032_0A_-x0103_0A_bdbdcae2c8.holo_minimised.pdb

>  <ref_mols>  (8) 
x0032_0A,x0103_0A

>  <fragmensteinOld_score>  (8) 
-3.1514128883439652

>  <LE_score>  (8) 
-0.24054901311297724

>  <comRMSD_score>  (8) 
0.53999099295649367

>  <fragmensteinNew_score>  (8) 
-0.4644186418022731

>  <atomic_mapping>  (8) 
"{\"20\": [[\"x0032_0A\", 5]], \"21\": [[\"x0032_0A\", 6]], \"22\": [[\"x0032_0A\", 7]], \"23\": [[\"x0032_0A\", 8]], \"24\": [[\"x0032_0A\", 9]], \"25\": [[\"x0032_0A\", 10]], \"26\": [[\"x0032_0A\", 11]], \"27\": [[\"x0032_0A\", 12]], \"28\": [[\"x0032_0A\", 13]], \"29\": [[\"x0032_0A\", 14]], \"44\": [[\"x0032_0A\", 4]], \"0\": [[\"x0032_0A\", 15]], \"3\": [[\"x0103_0A\", 13]], \"4\": [[\"x0103_0A\", 12]], \"5\": [[\"x0103_0A\", 11]], \"6\": [[\"x0103_0A\", 10]], \"7\": [[\"x0103_0A\", 9]], \"8\": [[\"x0103_0A\", 1]], \"9\": [[\"x0103_0A\", 0]], \"10\": [[\"x0103_0A\", 2]], \"11\": [[\"x0103_0A\", 3]], \"12\": [[\"x0103_0A\", 4]], \"13\": [[\"x0103_0A\", 5]], \"14\": [[\"x0103_0A\", 6]], \"15\": [[\"x0103_0A\", 7]], \"16\": [[\"x0103_0A\", 8]], \"17\": [[\"x0103_0A\", 15]], \"18\": [[\"x0103_0A\", 14]]}"

>  <meanSuCosW_score>  (8) 
0.77050842934532382

>  <maxSuCosW_score>  (8) 
0.92959283702052797

>  <minSuCosW_score>  (8) 
0.61142402167011967

>  <sumSuCosW_score>  (8) 
1.5410168586906476

>  <SA_score>  (8) 
5.8851953490354774

>  <aLogP_score>  (8) 
4.0658000000000021

>  <hbondD_score>  (8) 
4

>  <hbondA_score>  (8) 
3

>  <polarSurfaceArea_score>  (8) 
98.909999999999997

>  <rotableBonds_score>  (8) 
6

>  <SC_score>  (8) 
4.4373663599043098

>  <energyPoseVsEnsemble_score>  (8) 
0.89410814777560954

>  <xcos_score>  (8) 
26.502285226909859

>  <plipMedianPreser_score>  (8) 
0

>  <plipGlobalPreser_score>  (8) 
nan

>  <plipGlobalPreserOverMw_score>  (8) 
nan

>  <plipTotalNumInteractions_score>  (8) 
6

>  <original_name>  (8) 
x0032-0A-x0103-0A-bdbdcae2c8-O-C-CC-1C-CC-NC-O-NC-2C-CC-CC2-CN1-NCC3-CNC-4C-CC-CC34

>  <original SMILES>  (8) 
[H]c1nc(C([H])([H])C(=O)N([H])C([H])([H])c2c([H])n([H])c3c([H])c([H])c([H])c([H])c23)c([H])c([H])c1N([H])C(=O)N([H])c1c([H])c([H])c([H])c([H])c1[H]

>  <CID>  (8) 
Z5024348798

$$$$
7_x0032_0A_-x0103_0A_c029f83d5c
     RDKit          3D

 55 58  0  0  0  0  0  0  0  0999 V2000
    9.4810   14.2780   -1.3760 O   0  0  0  0  0  0  0  0  0  0  0  0
    9.5200   13.0810   -1.6700 C   0  0  0  0  0  0  0  0  0  0  0  0
    8.6090   12.5000   -2.7620 C   0  0  0  0  0  0  0  0  0  0  0  0
   10.3860   12.2020   -1.0350 N   0  0  0  0  0  0  0  0  0  0  0  0
    7.8620   13.6370   -3.4390 C   0  0  0  0  0  0  0  0  0  0  0  0
   11.1740   11.2060   -1.7520 C   0  0  0  0  0  0  0  0  0  0  0  0
   11.0260   12.7070    0.1520 C   0  0  0  0  0  0  0  0  0  0  0  0
    8.5610   14.1270   -4.7090 C   0  0  0  0  0  0  0  0  0  0  0  0
   12.5900   11.0160   -1.1900 C   0  0  0  0  0  0  0  0  0  0  0  0
   12.3040   13.3750   -0.3210 C   0  0  0  0  0  0  0  0  0  0  0  0
   10.0750   14.1930   -4.7280 C   0  0  0  0  0  0  0  0  0  0  0  0
    8.1000   14.5710   -5.9730 C   0  0  0  0  0  0  0  0  0  0  0  0
   13.3020   12.3600   -0.8920 C   0  0  1  0  0  0  0  0  0  0  0  0
   10.3900   14.6570   -5.9760 N   0  0  0  0  0  0  0  0  0  0  0  0
    9.2420   14.8880   -6.7330 C   0  0  0  0  0  0  0  0  0  0  0  0
    6.8250   14.7350   -6.5530 C   0  0  0  0  0  0  0  0  0  0  0  0
   14.4280   12.2260    0.0320 N   0  0  0  0  0  0  0  0  0  0  0  0
    9.1430   15.3570   -8.0420 C   0  0  0  0  0  0  0  0  0  0  0  0
    6.7250   15.2050   -7.8620 C   0  0  0  0  0  0  0  0  0  0  0  0
   15.7360   12.0680   -0.3720 C   0  0  0  0  0  0  0  0  0  0  0  0
    7.8730   15.5090   -8.5900 C   0  0  0  0  0  0  0  0  0  0  0  0
   16.0670   11.2580   -1.2420 O   0  0  0  0  0  0  0  0  0  0  0  0
   16.5680   12.9160    0.3360 N   0  0  0  0  0  0  0  0  0  0  0  0
   17.9750   12.8660    0.4470 C   0  0  0  0  0  0  0  0  0  0  0  0
   18.8360   12.7300   -0.6530 C   0  0  0  0  0  0  0  0  0  0  0  0
   18.5260   12.9580    1.7300 C   0  0  0  0  0  0  0  0  0  0  0  0
   20.2230   12.6900   -0.4780 C   0  0  0  0  0  0  0  0  0  0  0  0
   19.9110   12.9190    1.9160 C   0  0  0  0  0  0  0  0  0  0  0  0
   20.7460   12.7830    0.7970 C   0  0  0  0  0  0  0  0  0  0  0  0
    9.2070   11.9370   -3.4900 H   0  0  0  0  0  0  0  0  0  0  0  0
    7.9040   11.8260   -2.2600 H   0  0  0  0  0  0  0  0  0  0  0  0
    7.7990   14.4760   -2.7400 H   0  0  0  0  0  0  0  0  0  0  0  0
    6.8380   13.3320   -3.6960 H   0  0  0  0  0  0  0  0  0  0  0  0
   10.6410   10.2570   -1.7200 H   0  0  0  0  0  0  0  0  0  0  0  0
   11.2240   11.5210   -2.8000 H   0  0  0  0  0  0  0  0  0  0  0  0
   10.9300   11.9130    0.8760 H   0  0  0  0  0  0  0  0  0  0  0  0
   10.4060   13.5050    0.5710 H   0  0  0  0  0  0  0  0  0  0  0  0
   12.5540   10.4080   -0.2760 H   0  0  0  0  0  0  0  0  0  0  0  0
   13.1480   10.4370   -1.9270 H   0  0  0  0  0  0  0  0  0  0  0  0
   12.0440   14.0970   -1.1040 H   0  0  0  0  0  0  0  0  0  0  0  0
   12.7290   13.9460    0.5120 H   0  0  0  0  0  0  0  0  0  0  0  0
   10.8320   13.9520   -3.9920 H   0  0  0  0  0  0  0  0  0  0  0  0
   13.6960   12.7090   -1.8520 H   0  0  0  0  0  0  0  0  0  0  0  0
   11.3290   14.8150   -6.3130 H   0  0  0  0  0  0  0  0  0  0  0  0
    5.9280   14.4980   -5.9880 H   0  0  0  0  0  0  0  0  0  0  0  0
   14.2660   11.6540    0.8560 H   0  0  0  0  0  0  0  0  0  0  0  0
   10.0240   15.6010   -8.6260 H   0  0  0  0  0  0  0  0  0  0  0  0
    5.7470   15.3360   -8.3160 H   0  0  0  0  0  0  0  0  0  0  0  0
    7.7840   15.8720   -9.6080 H   0  0  0  0  0  0  0  0  0  0  0  0
   16.1110   13.7060    0.7640 H   0  0  0  0  0  0  0  0  0  0  0  0
   18.4210   12.6570   -1.6530 H   0  0  0  0  0  0  0  0  0  0  0  0
   17.8900   13.0630    2.6050 H   0  0  0  0  0  0  0  0  0  0  0  0
   20.8710   12.5870   -1.3430 H   0  0  0  0  0  0  0  0  0  0  0  0
   20.3330   12.9940    2.9160 H   0  0  0  0  0  0  0  0  0  0  0  0
   21.8150   12.7590    1.0500 H   0  0  0  0  0  0  0  0  0  0  0  0
  1  2  2  0
  2  3  1  0
  2  4  1  0
  3  5  1  0
  4  6  1  0
  4  7  1  0
  5  8  1  0
  6  9  1  0
  7 10  1  0
  8 11  2  0
  8 12  1  0
  9 13  1  0
 10 13  1  0
 11 14  1  0
 12 15  2  0
 14 15  1  0
 12 16  1  0
 13 17  1  0
 15 18  1  0
 16 19  2  0
 17 20  1  0
 18 21  2  0
 19 21  1  0
 20 22  2  0
 20 23  1  0
 23 24  1  0
 24 25  2  0
 24 26  1  0
 25 27  1  0
 26 28  2  0
 27 29  2  0
 28 29  1  0
  3 30  1  0
  3 31  1  0
  5 32  1  0
  5 33  1  0
  6 34  1  0
  6 35  1  0
  7 36  1  0
  7 37  1  0
  9 38  1  0
  9 39  1  0
 10 40  1  0
 10 41  1  0
 11 42  1  0
 13 43  1  6
 14 44  1  0
 16 45  1  0
 17 46  1  0
 18 47  1  0
 19 48  1  0
 21 49  1  0
 23 50  1  0
 25 51  1  0
 26 52  1  0
 27 53  1  0
 28 54  1  0
 29 55  1  0
M  END
>  <ref_pdb>  (9) 
7_x0032_0A_-x0103_0A_c029f83d5c.holo_minimised.pdb

>  <ref_mols>  (9) 
x0032_0A,x0103_0A

>  <fragmensteinOld_score>  (9) 
-2.8968496392414256

>  <LE_score>  (9) 
-0.22258152353676383

>  <comRMSD_score>  (9) 
0.52767211139386261

>  <fragmensteinNew_score>  (9) 
-0.29867512224787351

>  <atomic_mapping>  (9) 
"{\"3\": [[\"x0032_0A\", 5]], \"4\": [[\"x0032_0A\", 6]], \"5\": [[\"x0032_0A\", 7]], \"6\": [[\"x0032_0A\", 8]], \"7\": [[\"x0032_0A\", 9]], \"8\": [[\"x0032_0A\", 10]], \"9\": [[\"x0032_0A\", 11]], \"10\": [[\"x0032_0A\", 12]], \"11\": [[\"x0032_0A\", 13]], \"12\": [[\"x0032_0A\", 14]], \"31\": [[\"x0032_0A\", 4]], \"0\": [[\"x0032_0A\", 15]], \"15\": [[\"x0103_0A\", 15]], \"16\": [[\"x0103_0A\", 10]], \"17\": [[\"x0103_0A\", 11]], \"18\": [[\"x0103_0A\", 12]], \"19\": [[\"x0103_0A\", 9]], \"20\": [[\"x0103_0A\", 1]], \"21\": [[\"x0103_0A\", 0]], \"22\": [[\"x0103_0A\", 2]], \"23\": [[\"x0103_0A\", 3]], \"24\": [[\"x0103_0A\", 8]], \"25\": [[\"x0103_0A\", 7]], \"26\": [[\"x0103_0A\", 6]], \"27\": [[\"x0103_0A\", 5]], \"28\": [[\"x0103_0A\", 4]], \"39\": [[\"x0103_0A\", 13]], \"42\": [[\"x0103_0A\", 14]]}"

>  <meanSuCosW_score>  (9) 
0.71447725696789943

>  <maxSuCosW_score>  (9) 
0.79278157726339116

>  <minSuCosW_score>  (9) 
0.63617293667240782

>  <sumSuCosW_score>  (9) 
1.4289545139357989

>  <SA_score>  (9) 
7.3991242277166345

>  <aLogP_score>  (9) 
3.9132000000000025

>  <hbondD_score>  (9) 
3

>  <hbondA_score>  (9) 
2

>  <polarSurfaceArea_score>  (9) 
77.230000000000004

>  <rotableBonds_score>  (9) 
5

>  <SC_score>  (9) 
3.9080946354204662

>  <energyPoseVsEnsemble_score>  (9) 
0.36281475508300676

>  <xcos_score>  (9) 
29.732428938442492

>  <plipMedianPreser_score>  (9) 
0

>  <plipGlobalPreser_score>  (9) 
nan

>  <plipGlobalPreserOverMw_score>  (9) 
nan

>  <plipTotalNumInteractions_score>  (9) 
3

>  <original_name>  (9) 
x0032-0A-x0103-0A-c029f83d5c-O-C-CCC1-CNC-2C-CC-CC12-N3CCC-CC3-NC-O-NC-4C-CC-CC4

>  <original SMILES>  (9) 
[H]c1c([H])c([H])c(N([H])C(=O)N([H])C2([H])C([H])([H])C([H])([H])N(C(=O)C([H])([H])C([H])([H])c3c([H])n([H])c4c([H])c([H])c([H])c([H])c34)C([H])([H])C2([H])[H])c([H])c1[H]

>  <CID>  (9) 
Z809246528

$$$$
8_x0032_0A_-x0103_0A_cc25dc938f
     RDKit          3D

 51 54  0  0  0  0  0  0  0  0999 V2000
   16.1100   11.4030   -1.4030 O   0  0  0  0  0  0  0  0  0  0  0  0
   15.7900   12.0750   -0.4230 C   0  0  0  0  0  0  0  0  0  0  0  0
   16.5920   12.8960    0.3480 N   0  0  0  0  0  0  0  0  0  0  0  0
   14.5190   12.1350    0.1180 N   0  0  0  0  0  0  0  0  0  0  0  0
   17.9870   12.8610    0.5020 C   0  0  0  0  0  0  0  0  0  0  0  0
   13.2930   11.8380   -0.4510 C   0  0  0  0  0  0  0  0  0  0  0  0
   18.8070   12.7060   -0.7700 C   0  0  0  0  0  0  0  0  0  0  0  0
   18.5710   12.9660    1.7500 C   0  0  0  0  0  0  0  0  0  0  0  0
   12.3200   12.8180   -0.3070 C   0  0  0  0  0  0  0  0  0  0  0  0
   12.9290   10.6950   -1.1340 C   0  0  0  0  0  0  0  0  0  0  0  0
   20.3350   12.6650   -0.6860 C   0  0  0  0  0  0  0  0  0  0  0  0
   20.0670   12.9380    1.9600 C   0  0  0  0  0  0  0  0  0  0  0  0
   11.0540   12.6200   -0.8380 C   0  0  0  0  0  0  0  0  0  0  0  0
   11.6880   10.4870   -1.6640 N   0  0  0  0  0  0  0  0  0  0  0  0
   20.9630   12.7830    0.7190 C   0  0  0  0  0  0  0  0  0  0  0  0
   10.7140   11.4540   -1.5290 C   0  0  0  0  0  0  0  0  0  0  0  0
    9.3410   11.2840   -2.0960 C   0  0  0  0  0  0  0  0  0  0  0  0
    9.0210   10.2900   -2.7410 O   0  0  0  0  0  0  0  0  0  0  0  0
    8.5100   12.3260   -1.8100 N   0  0  0  0  0  0  0  0  0  0  0  0
    8.7130   13.5870   -2.4970 C   0  0  0  0  0  0  0  0  0  0  0  0
    7.9980   13.5960   -3.6770 C   0  0  0  0  0  0  0  0  0  0  0  0
    8.6760   14.0880   -4.7730 C   0  0  0  0  0  0  0  0  0  0  0  0
   10.0660   14.2110   -4.8060 C   0  0  0  0  0  0  0  0  0  0  0  0
    8.1670   14.5440   -6.0210 C   0  0  0  0  0  0  0  0  0  0  0  0
   10.4040   14.7180   -6.0270 N   0  0  0  0  0  0  0  0  0  0  0  0
    9.2710   14.9280   -6.7810 C   0  0  0  0  0  0  0  0  0  0  0  0
    6.8830   14.6640   -6.5660 C   0  0  0  0  0  0  0  0  0  0  0  0
    9.1290   15.4210   -8.0700 C   0  0  0  0  0  0  0  0  0  0  0  0
    6.7270   15.1670   -7.8770 C   0  0  0  0  0  0  0  0  0  0  0  0
    7.8560   15.5410   -8.6180 C   0  0  0  0  0  0  0  0  0  0  0  0
   16.1070   13.2090    1.1940 H   0  0  0  0  0  0  0  0  0  0  0  0
   14.4910   12.6090    1.0230 H   0  0  0  0  0  0  0  0  0  0  0  0
   18.3330   12.6240   -1.7440 H   0  0  0  0  0  0  0  0  0  0  0  0
   17.9390   13.0750    2.6310 H   0  0  0  0  0  0  0  0  0  0  0  0
   12.5540   13.7340    0.2210 H   0  0  0  0  0  0  0  0  0  0  0  0
   13.6150    9.8700   -1.2990 H   0  0  0  0  0  0  0  0  0  0  0  0
   21.0350   12.5590   -1.5050 H   0  0  0  0  0  0  0  0  0  0  0  0
   20.4870   13.0260    2.9560 H   0  0  0  0  0  0  0  0  0  0  0  0
   10.3050   13.3960   -0.7170 H   0  0  0  0  0  0  0  0  0  0  0  0
   22.0420   12.7580    0.8340 H   0  0  0  0  0  0  0  0  0  0  0  0
    8.1440   12.3420   -0.8570 H   0  0  0  0  0  0  0  0  0  0  0  0
    8.3190   14.4010   -1.8770 H   0  0  0  0  0  0  0  0  0  0  0  0
    9.7890   13.7230   -2.5160 H   0  0  0  0  0  0  0  0  0  0  0  0
    7.6740   12.5730   -3.9040 H   0  0  0  0  0  0  0  0  0  0  0  0
    7.0730   14.1710   -3.5370 H   0  0  0  0  0  0  0  0  0  0  0  0
   10.8250   13.9780   -4.0700 H   0  0  0  0  0  0  0  0  0  0  0  0
   11.3440   14.9150   -6.3420 H   0  0  0  0  0  0  0  0  0  0  0  0
    6.0090   14.3720   -5.9890 H   0  0  0  0  0  0  0  0  0  0  0  0
    9.9980   15.7150   -8.6520 H   0  0  0  0  0  0  0  0  0  0  0  0
    5.7340   15.2640   -8.3080 H   0  0  0  0  0  0  0  0  0  0  0  0
    7.7460   15.9250   -9.6270 H   0  0  0  0  0  0  0  0  0  0  0  0
  1  2  2  0
  2  3  1  0
  2  4  1  0
  3  5  1  0
  4  6  1  0
  5  7  2  0
  5  8  1  0
  6  9  2  0
  6 10  1  0
  7 11  1  0
  8 12  2  0
  9 13  1  0
 10 14  2  0
 11 15  2  0
 12 15  1  0
 13 16  2  0
 14 16  1  0
 16 17  1  0
 17 18  2  0
 17 19  1  0
 19 20  1  0
 20 21  1  0
 21 22  1  0
 22 23  2  0
 22 24  1  0
 23 25  1  0
 24 26  2  0
 25 26  1  0
 24 27  1  0
 26 28  1  0
 27 29  2  0
 28 30  2  0
 29 30  1  0
  3 31  1  0
  4 32  1  0
  7 33  1  0
  8 34  1  0
  9 35  1  0
 10 36  1  0
 11 37  1  0
 12 38  1  0
 13 39  1  0
 15 40  1  0
 19 41  1  0
 20 42  1  0
 20 43  1  0
 21 44  1  0
 21 45  1  0
 23 46  1  0
 25 47  1  0
 27 48  1  0
 28 49  1  0
 29 50  1  0
 30 51  1  0
M  END
>  <ref_pdb>  (10) 
8_x0032_0A_-x0103_0A_cc25dc938f.holo_minimised.pdb

>  <ref_mols>  (10) 
x0032_0A,x0103_0A

>  <fragmensteinOld_score>  (10) 
-3.2525031055929432

>  <LE_score>  (10) 
-0.25464416131747719

>  <comRMSD_score>  (10) 
0.37721952683891041

>  <fragmensteinNew_score>  (10) 
-0.63164292913849118

>  <atomic_mapping>  (10) 
"{\"20\": [[\"x0032_0A\", 5]], \"21\": [[\"x0032_0A\", 6]], \"22\": [[\"x0032_0A\", 7]], \"23\": [[\"x0032_0A\", 8]], \"24\": [[\"x0032_0A\", 9]], \"25\": [[\"x0032_0A\", 10]], \"26\": [[\"x0032_0A\", 11]], \"27\": [[\"x0032_0A\", 12]], \"28\": [[\"x0032_0A\", 13]], \"29\": [[\"x0032_0A\", 14]], \"41\": [[\"x0032_0A\", 15]], \"44\": [[\"x0032_0A\", 4]], \"0\": [[\"x0103_0A\", 0]], \"1\": [[\"x0103_0A\", 1]], \"2\": [[\"x0103_0A\", 2]], \"3\": [[\"x0103_0A\", 3]], \"4\": [[\"x0103_0A\", 8]], \"5\": [[\"x0103_0A\", 7]], \"6\": [[\"x0103_0A\", 6]], \"7\": [[\"x0103_0A\", 5]], \"8\": [[\"x0103_0A\", 4]], \"9\": [[\"x0103_0A\", 9]], \"10\": [[\"x0103_0A\", 10]], \"11\": [[\"x0103_0A\", 11]], \"12\": [[\"x0103_0A\", 12]], \"13\": [[\"x0103_0A\", 13]], \"14\": [[\"x0103_0A\", 14]], \"15\": [[\"x0103_0A\", 15]]}"

>  <meanSuCosW_score>  (10) 
0.78210472738377623

>  <maxSuCosW_score>  (10) 
0.93504437574390109

>  <minSuCosW_score>  (10) 
0.62916507902365137

>  <sumSuCosW_score>  (10) 
1.5642094547675525

>  <SA_score>  (10) 
5.6371452201922603

>  <aLogP_score>  (10) 
4.179400000000002

>  <hbondD_score>  (10) 
4

>  <hbondA_score>  (10) 
3

>  <polarSurfaceArea_score>  (10) 
98.909999999999997

>  <rotableBonds_score>  (10) 
6

>  <SC_score>  (10) 
4.0345286447197282

>  <energyPoseVsEnsemble_score>  (10) 
0.97497698446779768

>  <xcos_score>  (10) 
26.584061888703964

>  <plipMedianPreser_score>  (10) 
0

>  <plipGlobalPreser_score>  (10) 
nan

>  <plipGlobalPreserOverMw_score>  (10) 
nan

>  <plipTotalNumInteractions_score>  (10) 
6

>  <original_name>  (10) 
x0032-0A-x0103-0A-cc25dc938f-O-C-NC-1C-CC-CC1-NC-2C-CC-NC2-C-O-NCCC3-CNC-4C-CC-CC34

>  <original SMILES>  (10) 
[H]c1nc(C(=O)N([H])C([H])([H])C([H])([H])c2c([H])n([H])c3c([H])c([H])c([H])c([H])c23)c([H])c([H])c1N([H])C(=O)N([H])c1c([H])c([H])c([H])c([H])c1[H]

>  <CID>  (10) 
Z5024348793

$$$$
9_x0032_0A_-x0103_0A_cf3c66ddac
     RDKit          3D

 53 56  0  0  0  0  0  0  0  0999 V2000
    9.7330   11.8100   -1.9000 O   0  0  0  0  0  0  0  0  0  0  0  0
   10.2090   12.9140   -1.6690 C   0  0  0  0  0  0  0  0  0  0  0  0
    9.4720   14.2120   -2.0870 C   0  0  0  0  0  0  0  0  0  0  0  0
   11.4350   13.0460   -1.0120 N   0  0  0  0  0  0  0  0  0  0  0  0
    8.3780   13.9680   -3.1440 C   0  0  0  0  0  0  0  0  0  0  0  0
   12.6320   13.6110   -1.6400 C   0  0  0  0  0  0  0  0  0  0  0  0
   11.6150   12.2770    0.2240 C   0  0  0  0  0  0  0  0  0  0  0  0
    8.8620   14.3320   -4.5520 C   0  0  0  0  0  0  0  0  0  0  0  0
   13.6570   14.0720   -0.6190 C   0  0  0  0  0  0  0  0  0  0  0  0
   13.0610   11.7860    0.3510 C   0  0  0  0  0  0  0  0  0  0  0  0
   10.3560   14.3680   -4.7610 C   0  0  0  0  0  0  0  0  0  0  0  0
    8.2490   14.6710   -5.8030 C   0  0  0  0  0  0  0  0  0  0  0  0
   14.1120   12.9140    0.2890 C   0  0  1  0  0  0  0  0  0  0  0  0
   10.5280   14.7150   -6.0710 N   0  0  0  0  0  0  0  0  0  0  0  0
    9.3060   14.9000   -6.7090 C   0  0  0  0  0  0  0  0  0  0  0  0
    6.9230   14.8110   -6.2710 C   0  0  0  0  0  0  0  0  0  0  0  0
   15.5190   12.4480   -0.1020 C   0  0  0  0  0  0  0  0  0  0  0  0
    9.0810   15.2600   -8.0430 C   0  0  0  0  0  0  0  0  0  0  0  0
    6.6960   15.1720   -7.6090 C   0  0  0  0  0  0  0  0  0  0  0  0
   15.7350   11.4370   -0.7860 O   0  0  0  0  0  0  0  0  0  0  0  0
   16.6010   13.1690    0.3000 N   0  0  0  0  0  0  0  0  0  0  0  0
    7.7640   15.3900   -8.4730 C   0  0  0  0  0  0  0  0  0  0  0  0
   17.9790   13.0050    0.5230 C   0  0  0  0  0  0  0  0  0  0  0  0
   18.7700   12.8000   -0.6110 C   0  0  0  0  0  0  0  0  0  0  0  0
   18.6000   13.0450    1.7670 C   0  0  0  0  0  0  0  0  0  0  0  0
   20.1540   12.6380   -0.5050 C   0  0  0  0  0  0  0  0  0  0  0  0
   19.9800   12.8870    1.8820 C   0  0  0  0  0  0  0  0  0  0  0  0
   20.7690   12.6800    0.7350 C   0  0  0  0  0  0  0  0  0  0  0  0
    9.0310   14.6750   -1.1940 H   0  0  0  0  0  0  0  0  0  0  0  0
   10.2390   14.8840   -2.4910 H   0  0  0  0  0  0  0  0  0  0  0  0
    7.5030   14.5770   -2.9080 H   0  0  0  0  0  0  0  0  0  0  0  0
    8.0650   12.9150   -3.1410 H   0  0  0  0  0  0  0  0  0  0  0  0
   12.3420   14.4560   -2.2760 H   0  0  0  0  0  0  0  0  0  0  0  0
   13.0620   12.8350   -2.2870 H   0  0  0  0  0  0  0  0  0  0  0  0
   11.0520   12.8440    0.9550 H   0  0  0  0  0  0  0  0  0  0  0  0
   11.0250   11.3660    0.1140 H   0  0  0  0  0  0  0  0  0  0  0  0
   14.5280   14.5060   -1.1290 H   0  0  0  0  0  0  0  0  0  0  0  0
   13.2170   14.8840   -0.0220 H   0  0  0  0  0  0  0  0  0  0  0  0
   13.2560   11.0680   -0.4500 H   0  0  0  0  0  0  0  0  0  0  0  0
   13.1350   11.2260    1.2880 H   0  0  0  0  0  0  0  0  0  0  0  0
   11.1930   14.1830   -4.1030 H   0  0  0  0  0  0  0  0  0  0  0  0
   14.2050   13.3630    1.2780 H   0  0  0  0  0  0  0  0  0  0  0  0
   11.4230   14.8250   -6.5240 H   0  0  0  0  0  0  0  0  0  0  0  0
    6.0820   14.6430   -5.6040 H   0  0  0  0  0  0  0  0  0  0  0  0
    9.9050   15.4340   -8.7250 H   0  0  0  0  0  0  0  0  0  0  0  0
    5.6770   15.2800   -7.9700 H   0  0  0  0  0  0  0  0  0  0  0  0
   16.2570   14.0790    0.5850 H   0  0  0  0  0  0  0  0  0  0  0  0
    7.5730   15.6670   -9.5070 H   0  0  0  0  0  0  0  0  0  0  0  0
   18.3010   12.7670   -1.5900 H   0  0  0  0  0  0  0  0  0  0  0  0
   18.0630   13.2000    2.6900 H   0  0  0  0  0  0  0  0  0  0  0  0
   20.7550   12.4790   -1.3980 H   0  0  0  0  0  0  0  0  0  0  0  0
   20.4420   12.9260    2.8620 H   0  0  0  0  0  0  0  0  0  0  0  0
   21.8460   12.5550    0.8200 H   0  0  0  0  0  0  0  0  0  0  0  0
  1  2  2  0
  2  3  1  0
  2  4  1  0
  3  5  1  0
  4  6  1  0
  4  7  1  0
  5  8  1  0
  6  9  1  0
  7 10  1  0
  8 11  2  0
  8 12  1  0
  9 13  1  0
 10 13  1  0
 11 14  1  0
 12 15  2  0
 14 15  1  0
 12 16  1  0
 13 17  1  0
 15 18  1  0
 16 19  2  0
 17 20  2  0
 17 21  1  0
 18 22  2  0
 19 22  1  0
 21 23  1  0
 23 24  2  0
 23 25  1  0
 24 26  1  0
 25 27  2  0
 26 28  2  0
 27 28  1  0
  3 29  1  0
  3 30  1  0
  5 31  1  0
  5 32  1  0
  6 33  1  0
  6 34  1  0
  7 35  1  0
  7 36  1  0
  9 37  1  0
  9 38  1  0
 10 39  1  0
 10 40  1  0
 11 41  1  0
 13 42  1  1
 14 43  1  0
 16 44  1  0
 18 45  1  0
 19 46  1  0
 21 47  1  0
 22 48  1  0
 24 49  1  0
 25 50  1  0
 26 51  1  0
 27 52  1  0
 28 53  1  0
M  END
>  <ref_pdb>  (11) 
9_x0032_0A_-x0103_0A_cf3c66ddac.holo_minimised.pdb

>  <ref_mols>  (11) 
x0032_0A,x0103_0A

>  <fragmensteinOld_score>  (11) 
-2.6471917893633714

>  <LE_score>  (11) 
-0.2303147447159932

>  <comRMSD_score>  (11) 
0.53469667893258754

>  <fragmensteinNew_score>  (11) 
-0.23497337943072716

>  <atomic_mapping>  (11) 
"{\"3\": [[\"x0032_0A\", 5]], \"4\": [[\"x0032_0A\", 6]], \"5\": [[\"x0032_0A\", 7]], \"6\": [[\"x0032_0A\", 8]], \"7\": [[\"x0032_0A\", 9]], \"8\": [[\"x0032_0A\", 10]], \"9\": [[\"x0032_0A\", 11]], \"10\": [[\"x0032_0A\", 12]], \"11\": [[\"x0032_0A\", 13]], \"12\": [[\"x0032_0A\", 14]], \"30\": [[\"x0032_0A\", 4]], \"19\": [[\"x0103_0A\", 1]], \"20\": [[\"x0103_0A\", 0]], \"21\": [[\"x0103_0A\", 2]], \"22\": [[\"x0103_0A\", 3]], \"23\": [[\"x0103_0A\", 8]], \"24\": [[\"x0103_0A\", 7]], \"25\": [[\"x0103_0A\", 6]], \"26\": [[\"x0103_0A\", 5]], \"27\": [[\"x0103_0A\", 4]], \"13\": [[\"x0103_0A\", 11]], \"16\": [[\"x0103_0A\", 9]], \"1\": [[\"x0103_0A\", 12]], \"43\": [[\"x0103_0A\", 15]], \"17\": [[\"x0103_0A\", 10]], \"0\": [[\"x0103_0A\", 13]]}"

>  <meanSuCosW_score>  (11) 
0.64219483932482158

>  <maxSuCosW_score>  (11) 
0.67540697434569452

>  <minSuCosW_score>  (11) 
0.60898270430394852

>  <sumSuCosW_score>  (11) 
1.2843896786496432

>  <SA_score>  (11) 
7.1999793900343176

>  <aLogP_score>  (11) 
3.9778000000000029

>  <hbondD_score>  (11) 
2

>  <hbondA_score>  (11) 
2

>  <polarSurfaceArea_score>  (11) 
65.200000000000003

>  <rotableBonds_score>  (11) 
5

>  <SC_score>  (11) 
3.6095894053644164

>  <energyPoseVsEnsemble_score>  (11) 
0.46876695872553087

>  <xcos_score>  (11) 
21.131919016599703

>  <plipMedianPreser_score>  (11) 
0

>  <plipGlobalPreser_score>  (11) 
nan

>  <plipGlobalPreserOverMw_score>  (11) 
nan

>  <plipTotalNumInteractions_score>  (11) 
2

>  <original_name>  (11) 
x0032-0A-x0103-0A-cf3c66ddac-O-C-CCC1-CNC-2C-CC-CC12-N3CCC-CC3-C-O-NC-4C-CC-CC4

>  <original SMILES>  (11) 
[H]c1c([H])c([H])c(N([H])C(=O)C2([H])C([H])([H])C([H])([H])N(C(=O)C([H])([H])C([H])([H])c3c([H])n([H])c4c([H])c([H])c([H])c([H])c34)C([H])([H])C2([H])[H])c([H])c1[H]

>  <CID>  (11) 
Z96029162

$$$$
10_x0032_0A_-x0103_0A_edf9d51546
     RDKit          3D

 54 57  0  0  0  0  0  0  0  0999 V2000
   15.8680   11.0160   -0.8410 O   0  0  0  0  0  0  0  0  0  0  0  0
   15.9100   12.2370   -0.7160 C   0  0  0  0  0  0  0  0  0  0  0  0
   15.1450   13.1690   -1.6880 C   0  0  0  0  0  0  0  0  0  0  0  0
   16.6310   12.9210    0.2440 N   0  0  0  0  0  0  0  0  0  0  0  0
   14.3970   14.3030   -1.0860 N   0  0  0  0  0  0  0  0  0  0  0  0
   18.0230   12.8870    0.4250 C   0  0  0  0  0  0  0  0  0  0  0  0
   13.3740   13.8610   -0.1190 C   0  0  0  0  0  0  0  0  0  0  0  0
   13.8480   15.1840   -2.1280 C   0  0  0  0  0  0  0  0  0  0  0  0
   18.9160   12.7640   -0.6550 C   0  0  0  0  0  0  0  0  0  0  0  0
   18.5060   12.9820    1.7340 C   0  0  0  0  0  0  0  0  0  0  0  0
   12.1230   13.2770   -0.7830 C   0  0  0  0  0  0  0  0  0  0  0  0
   12.6380   14.5830   -2.8440 C   0  0  0  0  0  0  0  0  0  0  0  0
   20.2950   12.7360   -0.4200 C   0  0  0  0  0  0  0  0  0  0  0  0
   19.8970   12.9500    1.9320 C   0  0  0  0  0  0  0  0  0  0  0  0
   11.5450   14.2230   -1.8270 C   0  0  1  0  0  0  0  0  0  0  0  0
   20.7940   12.8280    0.8780 C   0  0  0  0  0  0  0  0  0  0  0  0
   10.3750   13.6170   -2.4580 N   0  0  0  0  0  0  0  0  0  0  0  0
    9.1150   14.1800   -2.3590 C   0  0  0  0  0  0  0  0  0  0  0  0
    8.7760   14.8750   -1.4160 O   0  0  0  0  0  0  0  0  0  0  0  0
    8.2680   13.8900   -3.4400 C   0  0  0  0  0  0  0  0  0  0  0  0
    8.8240   14.2450   -4.6690 C   0  0  0  0  0  0  0  0  0  0  0  0
   10.2020   14.3220   -4.8710 C   0  0  0  0  0  0  0  0  0  0  0  0
    8.1970   14.5890   -5.9060 C   0  0  0  0  0  0  0  0  0  0  0  0
   10.4170   14.6940   -6.1660 N   0  0  0  0  0  0  0  0  0  0  0  0
    9.2200   14.8630   -6.8130 C   0  0  0  0  0  0  0  0  0  0  0  0
    6.7600   14.7090   -6.3940 C   0  0  0  0  0  0  0  0  0  0  0  0
    8.9410   15.2690   -8.2440 C   0  0  0  0  0  0  0  0  0  0  0  0
    6.6360   15.1280   -7.8710 C   0  0  0  0  0  0  0  0  0  0  0  0
    7.6750   15.3780   -8.6970 N   0  0  0  0  0  0  0  0  0  0  0  0
   15.8550   13.5530   -2.4290 H   0  0  0  0  0  0  0  0  0  0  0  0
   14.4260   12.5210   -2.2030 H   0  0  0  0  0  0  0  0  0  0  0  0
   16.1080   13.6730    0.6890 H   0  0  0  0  0  0  0  0  0  0  0  0
   13.0650   14.7120    0.5010 H   0  0  0  0  0  0  0  0  0  0  0  0
   13.7770   13.1030    0.5620 H   0  0  0  0  0  0  0  0  0  0  0  0
   14.6380   15.3850   -2.8640 H   0  0  0  0  0  0  0  0  0  0  0  0
   13.5840   16.1680   -1.7180 H   0  0  0  0  0  0  0  0  0  0  0  0
   18.5350   12.6920   -1.6700 H   0  0  0  0  0  0  0  0  0  0  0  0
   17.8310   13.0780    2.5800 H   0  0  0  0  0  0  0  0  0  0  0  0
   12.3680   12.3230   -1.2660 H   0  0  0  0  0  0  0  0  0  0  0  0
   11.3780   13.0510   -0.0140 H   0  0  0  0  0  0  0  0  0  0  0  0
   12.2430   15.3000   -3.5710 H   0  0  0  0  0  0  0  0  0  0  0  0
   12.9640   13.7100   -3.4200 H   0  0  0  0  0  0  0  0  0  0  0  0
   20.9830   12.6410   -1.2560 H   0  0  0  0  0  0  0  0  0  0  0  0
   20.1800   13.0320    2.9880 H   0  0  0  0  0  0  0  0  0  0  0  0
   11.2230   15.1440   -1.3200 H   0  0  0  0  0  0  0  0  0  0  0  0
   21.8660   12.8030    1.0470 H   0  0  0  0  0  0  0  0  0  0  0  0
   10.5250   12.9700   -3.2220 H   0  0  0  0  0  0  0  0  0  0  0  0
    7.3890   14.5340   -3.3260 H   0  0  0  0  0  0  0  0  0  0  0  0
    7.8270   12.8950   -3.4160 H   0  0  0  0  0  0  0  0  0  0  0  0
   11.0350   14.1420   -4.2080 H   0  0  0  0  0  0  0  0  0  0  0  0
   11.3260   14.8270   -6.5900 H   0  0  0  0  0  0  0  0  0  0  0  0
    5.8970   14.5220   -5.7720 H   0  0  0  0  0  0  0  0  0  0  0  0
    9.7600   15.4770   -8.9270 H   0  0  0  0  0  0  0  0  0  0  0  0
    5.6570   15.2460   -8.3270 H   0  0  0  0  0  0  0  0  0  0  0  0
  1  2  2  0
  2  3  1  0
  2  4  1  0
  3  5  1  0
  4  6  1  0
  5  7  1  0
  5  8  1  0
  6  9  2  0
  6 10  1  0
  7 11  1  0
  8 12  1  0
  9 13  1  0
 10 14  2  0
 11 15  1  0
 12 15  1  0
 13 16  2  0
 14 16  1  0
 15 17  1  0
 17 18  1  0
 18 19  2  0
 18 20  1  0
 20 21  1  0
 21 22  2  0
 21 23  1  0
 22 24  1  0
 23 25  2  0
 24 25  1  0
 23 26  1  0
 25 27  1  0
 26 28  2  0
 27 29  2  0
 28 29  1  0
  3 30  1  0
  3 31  1  0
  4 32  1  0
  7 33  1  0
  7 34  1  0
  8 35  1  0
  8 36  1  0
  9 37  1  0
 10 38  1  0
 11 39  1  0
 11 40  1  0
 12 41  1  0
 12 42  1  0
 13 43  1  0
 14 44  1  0
 15 45  1  1
 16 46  1  0
 17 47  1  0
 20 48  1  0
 20 49  1  0
 22 50  1  0
 24 51  1  0
 26 52  1  0
 27 53  1  0
 28 54  1  0
M  END
>  <ref_pdb>  (12) 
10_x0032_0A_-x0103_0A_edf9d51546.holo_minimised.pdb

>  <ref_mols>  (12) 
x0032_0A,x0103_0A

>  <fragmensteinOld_score>  (12) 
-1.3292423243729954

>  <LE_score>  (12) 
-0.15633226161394706

>  <comRMSD_score>  (12) 
0.47128414995626577

>  <fragmensteinNew_score>  (12) 
0.58625411663281324

>  <atomic_mapping>  (12) 
"{\"12\": [[\"x0032_0A\", 5]], \"13\": [[\"x0032_0A\", 6]], \"14\": [[\"x0032_0A\", 7]], \"15\": [[\"x0032_0A\", 8]], \"16\": [[\"x0032_0A\", 9]], \"17\": [[\"x0032_0A\", 10]], \"19\": [[\"x0032_0A\", 12]], \"20\": [[\"x0032_0A\", 13]], \"21\": [[\"x0032_0A\", 14]], \"18\": [[\"x0032_0A\", 11]], \"11\": [[\"x0032_0A\", 15]], \"0\": [[\"x0103_0A\", 0]], \"1\": [[\"x0103_0A\", 1]], \"22\": [[\"x0103_0A\", 2]], \"23\": [[\"x0103_0A\", 3]], \"24\": [[\"x0103_0A\", 8]], \"25\": [[\"x0103_0A\", 7]], \"26\": [[\"x0103_0A\", 6]], \"27\": [[\"x0103_0A\", 5]], \"28\": [[\"x0103_0A\", 4]], \"5\": [[\"x0103_0A\", 11]], \"34\": [[\"x0103_0A\", 12]], \"32\": [[\"x0103_0A\", 9]], \"33\": [[\"x0103_0A\", 10]]}"

>  <meanSuCosW_score>  (12) 
0.60404022765037779

>  <maxSuCosW_score>  (12) 
0.62029735032841982

>  <minSuCosW_score>  (12) 
0.58778310497233588

>  <sumSuCosW_score>  (12) 
1.2080804553007556

>  <SA_score>  (12) 
7.2825398891548598

>  <aLogP_score>  (12) 
2.3246999999999991

>  <hbondD_score>  (12) 
3

>  <hbondA_score>  (12) 
4

>  <polarSurfaceArea_score>  (12) 
90.120000000000005

>  <rotableBonds_score>  (12) 
6

>  <SC_score>  (12) 
4.8509487811768075

>  <energyPoseVsEnsemble_score>  (12) 
1.1736341773053574

>  <xcos_score>  (12) 
19.407550033886238

>  <plipMedianPreser_score>  (12) 
0

>  <plipGlobalPreser_score>  (12) 
nan

>  <plipGlobalPreserOverMw_score>  (12) 
nan

>  <plipTotalNumInteractions_score>  (12) 
4

>  <original_name>  (12) 
x0032-0A-x0103-0A-edf9d51546-O-C-CN1CCC-CC1-NC-O-CC2-CNC-3C-NC-CC23-NC-4C-CC-CC4

>  <original SMILES>  (12) 
[H]c1nc([H])c2c(c1[H])c(C([H])([H])C(=O)N([H])C1([H])C([H])([H])C([H])([H])N(C([H])([H])C(=O)N([H])c3c([H])c([H])c([H])c([H])c3[H])C([H])([H])C1([H])[H])c([H])n2[H]

>  <CID>  (12) 
Z2214127451

$$$$
11_x0032_0A_-x0103_0A_fdbf1190eb
     RDKit          3D

 50 53  0  0  0  0  0  0  0  0999 V2000
    7.7080   14.1870   -2.7640 O   0  0  0  0  0  0  0  0  0  0  0  0
    8.8040   13.7530   -3.1420 C   0  0  0  0  0  0  0  0  0  0  0  0
    9.6870   12.7920   -2.2220 C   0  0  0  0  0  0  0  0  0  0  0  0
    9.2750   14.1670   -4.4880 C   0  0  0  0  0  0  0  0  0  0  0  0
   11.2140   12.6890   -2.2900 N   0  0  0  0  0  0  0  0  0  0  0  0
   10.6020   14.2600   -4.8470 C   0  0  0  0  0  0  0  0  0  0  0  0
    8.5110   14.5600   -5.6790 C   0  0  0  0  0  0  0  0  0  0  0  0
   11.9310   13.8280   -1.6520 C   0  0  0  0  0  0  0  0  0  0  0  0
   11.6420   11.4100   -1.6550 C   0  0  0  0  0  0  0  0  0  0  0  0
   10.6830   14.6740   -6.1460 N   0  0  0  0  0  0  0  0  0  0  0  0
    9.4400   14.8650   -6.6790 C   0  0  0  0  0  0  0  0  0  0  0  0
    7.1370   14.6950   -6.0270 C   0  0  0  0  0  0  0  0  0  0  0  0
   13.4770   13.6720   -1.5480 C   0  0  0  0  0  0  0  0  0  0  0  0
   13.1610   11.1860   -1.4480 C   0  0  0  0  0  0  0  0  0  0  0  0
    9.0920   15.2860   -7.9680 C   0  0  0  0  0  0  0  0  0  0  0  0
    6.7700   15.1160   -7.3210 C   0  0  0  0  0  0  0  0  0  0  0  0
   13.9050   12.3820   -0.8020 C   0  0  1  0  0  0  0  0  0  0  0  0
    7.7390   15.4060   -8.2730 C   0  0  0  0  0  0  0  0  0  0  0  0
   15.4610   12.1000   -0.7500 C   0  0  0  0  0  0  0  0  0  0  0  0
   15.9520   11.2510   -1.4860 O   0  0  0  0  0  0  0  0  0  0  0  0
   16.2270   12.8510    0.1740 N   0  0  0  0  0  0  0  0  0  0  0  0
   17.6510   12.8100    0.3850 C   0  0  0  0  0  0  0  0  0  0  0  0
   18.2500   12.8790    1.6530 C   0  0  0  0  0  0  0  0  0  0  0  0
   18.5020   12.6970   -0.7300 C   0  0  0  0  0  0  0  0  0  0  0  0
   19.6420   12.8370    1.8050 C   0  0  0  0  0  0  0  0  0  0  0  0
   19.8970   12.6570   -0.5750 C   0  0  0  0  0  0  0  0  0  0  0  0
   20.4680   12.7260    0.6940 C   0  0  0  0  0  0  0  0  0  0  0  0
    9.4140   13.0130   -1.1820 H   0  0  0  0  0  0  0  0  0  0  0  0
    9.2970   11.7910   -2.4470 H   0  0  0  0  0  0  0  0  0  0  0  0
   11.5110   14.0680   -4.2920 H   0  0  0  0  0  0  0  0  0  0  0  0
   11.7240   14.7440   -2.2170 H   0  0  0  0  0  0  0  0  0  0  0  0
   11.5500   13.9900   -0.6350 H   0  0  0  0  0  0  0  0  0  0  0  0
   11.1580   11.3560   -0.6700 H   0  0  0  0  0  0  0  0  0  0  0  0
   11.2340   10.5500   -2.2020 H   0  0  0  0  0  0  0  0  0  0  0  0
   11.5410   14.8230   -6.6560 H   0  0  0  0  0  0  0  0  0  0  0  0
    6.3670   14.4720   -5.2940 H   0  0  0  0  0  0  0  0  0  0  0  0
   13.9130   13.6610   -2.5540 H   0  0  0  0  0  0  0  0  0  0  0  0
   13.8870   14.5640   -1.0560 H   0  0  0  0  0  0  0  0  0  0  0  0
   13.6200   10.9750   -2.4220 H   0  0  0  0  0  0  0  0  0  0  0  0
   13.2940   10.2730   -0.8550 H   0  0  0  0  0  0  0  0  0  0  0  0
    9.8510   15.5140   -8.7140 H   0  0  0  0  0  0  0  0  0  0  0  0
    5.7150   15.2160   -7.5720 H   0  0  0  0  0  0  0  0  0  0  0  0
   13.5660   12.4680    0.2420 H   0  0  0  0  0  0  0  0  0  0  0  0
    7.4410   15.7280   -9.2640 H   0  0  0  0  0  0  0  0  0  0  0  0
   15.7200   13.1410    1.0170 H   0  0  0  0  0  0  0  0  0  0  0  0
   17.6480   12.9670    2.5550 H   0  0  0  0  0  0  0  0  0  0  0  0
   18.0950   12.6390   -1.7360 H   0  0  0  0  0  0  0  0  0  0  0  0
   20.0740   12.8920    2.8010 H   0  0  0  0  0  0  0  0  0  0  0  0
   20.5380   12.5700   -1.4490 H   0  0  0  0  0  0  0  0  0  0  0  0
   21.5480   12.6930    0.8150 H   0  0  0  0  0  0  0  0  0  0  0  0
  1  2  2  0
  2  3  1  0
  2  4  1  0
  3  5  1  0
  4  6  2  0
  4  7  1  0
  5  8  1  0
  5  9  1  0
  6 10  1  0
  7 11  2  0
 10 11  1  0
  7 12  1  0
  8 13  1  0
  9 14  1  0
 11 15  1  0
 12 16  2  0
 13 17  1  0
 14 17  1  0
 15 18  2  0
 16 18  1  0
 17 19  1  0
 19 20  2  0
 19 21  1  0
 21 22  1  0
 22 23  2  0
 22 24  1  0
 23 25  1  0
 24 26  2  0
 25 27  2  0
 26 27  1  0
  3 28  1  0
  3 29  1  0
  6 30  1  0
  8 31  1  0
  8 32  1  0
  9 33  1  0
  9 34  1  0
 10 35  1  0
 12 36  1  0
 13 37  1  0
 13 38  1  0
 14 39  1  0
 14 40  1  0
 15 41  1  0
 16 42  1  0
 17 43  1  1
 18 44  1  0
 21 45  1  0
 23 46  1  0
 24 47  1  0
 25 48  1  0
 26 49  1  0
 27 50  1  0
M  END
>  <ref_pdb>  (13) 
11_x0032_0A_-x0103_0A_fdbf1190eb.holo_minimised.pdb

>  <ref_mols>  (13) 
x0032_0A,x0103_0A

>  <fragmensteinOld_score>  (13) 
-2.6005974101625422

>  <LE_score>  (13) 
-0.21955305713632259

>  <comRMSD_score>  (13) 
0.66063154408265812

>  <fragmensteinNew_score>  (13) 
-0.0046543198136729247

>  <atomic_mapping>  (13) 
"{\"1\": [[\"x0032_0A\", 5]], \"18\": [[\"x0032_0A\", 6]], \"19\": [[\"x0032_0A\", 7]], \"20\": [[\"x0032_0A\", 8]], \"21\": [[\"x0032_0A\", 9]], \"22\": [[\"x0032_0A\", 10]], \"23\": [[\"x0032_0A\", 11]], \"24\": [[\"x0032_0A\", 12]], \"25\": [[\"x0032_0A\", 13]], \"26\": [[\"x0032_0A\", 14]], \"0\": [[\"x0032_0A\", 4]], \"9\": [[\"x0103_0A\", 1]], \"10\": [[\"x0103_0A\", 0]], \"11\": [[\"x0103_0A\", 2]], \"12\": [[\"x0103_0A\", 3]], \"13\": [[\"x0103_0A\", 4]], \"14\": [[\"x0103_0A\", 5]], \"15\": [[\"x0103_0A\", 6]], \"16\": [[\"x0103_0A\", 7]], \"17\": [[\"x0103_0A\", 8]], \"7\": [[\"x0103_0A\", 15]], \"6\": [[\"x0103_0A\", 10]], \"36\": [[\"x0103_0A\", 13]], \"37\": [[\"x0103_0A\", 14]], \"33\": [[\"x0103_0A\", 9]], \"30\": [[\"x0103_0A\", 11]], \"3\": [[\"x0103_0A\", 12]]}"

>  <meanSuCosW_score>  (13) 
0.60863162311437424

>  <maxSuCosW_score>  (13) 
0.64247646734454422

>  <minSuCosW_score>  (13) 
0.57478677888420415

>  <sumSuCosW_score>  (13) 
1.2172632462287485

>  <SA_score>  (13) 
6.7844425303155376

>  <aLogP_score>  (13) 
3.7013000000000025

>  <hbondD_score>  (13) 
2

>  <hbondA_score>  (13) 
3

>  <polarSurfaceArea_score>  (13) 
65.200000000000003

>  <rotableBonds_score>  (13) 
5

>  <SC_score>  (13) 
3.541598536439468

>  <energyPoseVsEnsemble_score>  (13) 
0.11355711477425079

>  <xcos_score>  (13) 
18.310985071983417

>  <plipMedianPreser_score>  (13) 
0

>  <plipGlobalPreser_score>  (13) 
nan

>  <plipGlobalPreserOverMw_score>  (13) 
nan

>  <plipTotalNumInteractions_score>  (13) 
5

>  <original_name>  (13) 
x0032-0A-x0103-0A-fdbf1190eb-O-C-CN1CCC-CC1-C-O-NC-2C-CC-CC2-C3-CNC-4C-CC-CC34

>  <original SMILES>  (13) 
[H]c1c([H])c([H])c(N([H])C(=O)C2([H])C([H])([H])C([H])([H])N(C([H])([H])C(=O)c3c([H])n([H])c4c([H])c([H])c([H])c([H])c34)C([H])([H])C2([H])[H])c([H])c1[H]

>  <CID>  (13) 
Z126360810

$$$$
12_x0083_0A_-x0087_0A_08a2cfa5e8
     RDKit          3D

 38 39  0  0  0  0  0  0  0  0999 V2000
    2.2570   13.3400   16.9590 C   0  0  0  0  0  0  0  0  0  0  0  0
    3.0940   14.1860   15.9750 C   0  0  0  0  0  0  0  0  0  0  0  0
    3.3990   15.4730   16.4430 O   0  0  0  0  0  0  0  0  0  0  0  0
    3.6270   13.9280   14.6840 C   0  0  0  0  0  0  0  0  0  0  0  0
    4.1270   16.0590   15.4630 C   0  0  0  0  0  0  0  0  0  0  0  0
    4.2990   15.1120   14.3200 C   0  0  0  0  0  0  0  0  0  0  0  0
    3.5960   12.8080   13.8280 C   0  0  0  0  0  0  0  0  0  0  0  0
    3.4690   11.6960   14.3280 O   0  0  0  0  0  0  0  0  0  0  0  0
    3.6890   12.9650   12.4430 N   0  0  0  0  0  0  0  0  0  0  0  0
    3.4690   11.7140   11.6700 C   0  0  0  0  0  0  0  0  0  0  0  0
    4.0300   11.6410   10.3990 C   0  0  0  0  0  0  0  0  0  0  0  0
    5.3730   11.5400   10.6320 C   0  0  0  0  0  0  0  0  0  0  0  0
    6.1620   12.5690   10.2600 C   0  0  0  0  0  0  0  0  0  0  0  0
    5.9260   10.4120   11.2730 C   0  0  0  0  0  0  0  0  0  0  0  0
    5.5830   13.6420    9.5900 C   0  0  0  0  0  0  0  0  0  0  0  0
    7.5290   12.5580   10.5420 C   0  0  0  0  0  0  0  0  0  0  0  0
    7.3940   10.3570   11.5850 C   0  0  0  0  0  0  0  0  0  0  0  0
    5.2190    9.3480   11.6490 C   0  0  0  0  0  0  0  0  0  0  0  0
    8.2270   11.3940   11.2580 C   0  0  0  0  0  0  0  0  0  0  0  0
    1.6710   13.9840   17.6200 H   0  0  0  0  0  0  0  0  0  0  0  0
    1.5630   12.6810   16.4240 H   0  0  0  0  0  0  0  0  0  0  0  0
    2.9040   12.7150   17.5820 H   0  0  0  0  0  0  0  0  0  0  0  0
    4.5610   17.0670   15.4360 H   0  0  0  0  0  0  0  0  0  0  0  0
    4.8410   15.2960   13.3860 H   0  0  0  0  0  0  0  0  0  0  0  0
    3.5000   13.8340   11.9590 H   0  0  0  0  0  0  0  0  0  0  0  0
    2.4450   11.4200   11.8320 H   0  0  0  0  0  0  0  0  0  0  0  0
    4.0700   11.0190   12.2350 H   0  0  0  0  0  0  0  0  0  0  0  0
    3.6290   10.8080    9.7900 H   0  0  0  0  0  0  0  0  0  0  0  0
    3.7930   12.5400    9.8210 H   0  0  0  0  0  0  0  0  0  0  0  0
    5.0900   13.2890    8.6790 H   0  0  0  0  0  0  0  0  0  0  0  0
    4.8510   14.1480   10.2250 H   0  0  0  0  0  0  0  0  0  0  0  0
    6.3390   14.3700    9.2790 H   0  0  0  0  0  0  0  0  0  0  0  0
    8.1310   13.4020   10.2460 H   0  0  0  0  0  0  0  0  0  0  0  0
    7.7250    9.4400   12.0900 H   0  0  0  0  0  0  0  0  0  0  0  0
    4.8060    9.5600   12.6400 H   0  0  0  0  0  0  0  0  0  0  0  0
    5.5540    8.3230   11.6740 H   0  0  0  0  0  0  0  0  0  0  0  0
    4.3590    9.3420   10.9770 H   0  0  0  0  0  0  0  0  0  0  0  0
    9.2910   11.3900   11.4790 H   0  0  0  0  0  0  0  0  0  0  0  0
  1  2  1  0
  2  3  1  0
  2  4  2  0
  3  5  1  0
  4  6  1  0
  5  6  2  0
  4  7  1  0
  7  8  2  0
  7  9  1  0
  9 10  1  0
 10 11  1  0
 11 12  1  0
 12 13  2  0
 12 14  1  0
 13 15  1  0
 13 16  1  0
 14 17  2  0
 14 18  1  0
 16 19  2  0
 17 19  1  0
  1 20  1  0
  1 21  1  0
  1 22  1  0
  5 23  1  0
  6 24  1  0
  9 25  1  0
 10 26  1  0
 10 27  1  0
 11 28  1  0
 11 29  1  0
 15 30  1  0
 15 31  1  0
 15 32  1  0
 16 33  1  0
 17 34  1  0
 18 35  1  0
 18 36  1  0
 18 37  1  0
 19 38  1  0
M  END
>  <ref_pdb>  (14) 
12_x0083_0A_-x0087_0A_08a2cfa5e8.holo_minimised.pdb

>  <ref_mols>  (14) 
x0083_0A,x0087_0A

>  <fragmensteinOld_score>  (14) 
-2.0631462451496803

>  <LE_score>  (14) 
-0.27372136045640877

>  <comRMSD_score>  (14) 
1.0412277408585182

>  <fragmensteinNew_score>  (14) 
0.27673211876761394

>  <atomic_mapping>  (14) 
"{\"10\": [[\"x0083_0A\", 0], [\"x0087_0A\", 11]], \"11\": [[\"x0083_0A\", 1], [\"x0087_0A\", 10]], \"12\": [[\"x0083_0A\", 16]], \"13\": [[\"x0083_0A\", 17], [\"x0087_0A\", 13]], \"14\": [[\"x0083_0A\", 5]], \"15\": [[\"x0083_0A\", 4]], \"16\": [[\"x0083_0A\", 3]], \"17\": [[\"x0083_0A\", 2]], \"32\": [[\"x0083_0A\", 6]], \"0\": [[\"x0087_0A\", 0]], \"1\": [[\"x0087_0A\", 1]], \"2\": [[\"x0087_0A\", 2]], \"3\": [[\"x0087_0A\", 3]], \"4\": [[\"x0087_0A\", 4]], \"5\": [[\"x0087_0A\", 5]], \"6\": [[\"x0087_0A\", 6]], \"7\": [[\"x0087_0A\", 7]], \"8\": [[\"x0087_0A\", 8]], \"9\": [[\"x0087_0A\", 9]], \"26\": [[\"x0087_0A\", 14]], \"27\": [[\"x0087_0A\", 12]]}"

>  <meanSuCosW_score>  (14) 
0.48879875482848556

>  <maxSuCosW_score>  (14) 
0.63220109352064457

>  <minSuCosW_score>  (14) 
0.34539641613632649

>  <sumSuCosW_score>  (14) 
0.97759750965697112

>  <SA_score>  (14) 
7.9461333997579304

>  <aLogP_score>  (14) 
3.177360000000002

>  <hbondD_score>  (14) 
1

>  <hbondA_score>  (14) 
2

>  <polarSurfaceArea_score>  (14) 
42.240000000000002

>  <rotableBonds_score>  (14) 
4

>  <SC_score>  (14) 
3.0039357177672472

>  <energyPoseVsEnsemble_score>  (14) 
2.1074380307780509

>  <xcos_score>  (14) 
9.7325601163861197

>  <plipMedianPreser_score>  (14) 
0

>  <plipGlobalPreser_score>  (14) 
nan

>  <plipGlobalPreserOverMw_score>  (14) 
nan

>  <plipTotalNumInteractions_score>  (14) 
6

>  <original_name>  (14) 
x0083-0A-x0087-0A-08a2cfa5e8-CC-1OC-CC1C-O-NCCC-2C-C-CC-CC2C

>  <original SMILES>  (14) 
[H]c1oc(C([H])([H])[H])c(C(=O)N([H])C([H])([H])C([H])([H])c2c(C([H])([H])[H])c([H])c([H])c([H])c2C([H])([H])[H])c1[H]

>  <CID>  (14) 
Z1439966869

$$$$
