ver_1.2
     RDKit          2D

  1  0  0  0  0  0  0  0  0  0999 V2000
    0.0000    0.0000    0.0000 C   0  0  0  0  0  0  0  0  0  0  0  0
M  END
>  <submitter_name>  (1) 
Ruben Sanchez Garcia

>  <submitter_email>  (1) 
ruben.sanchez-garcia@stats.ox.ac.uk

>  <submitter_institution>  (1) 
University of Oxford

>  <method>  (1) 
DAREN_ANALOGUES2

>  <ref_url>  (1) 
https://github.com/matteoferla/Fragmenstein

>  <original SMILES>  (1) 
The SMILES of the compound

>  <ref_pdb>  (1) 
A pdb included in fragalysis or uploaded. E.g. x0830_0

>  <ref_mols>  (1) 
The inspirational fragments usded to propose the compound

>  <generation_date>  (1) 
2021-09-09

>  <atomic_mapping>  (1) 
NA

>  <fragmensteinOld_score>  (1) 
Score fragmensteinOld_score

>  <LE_score>  (1) 
Score LE_score

>  <comRMSD_score>  (1) 
Score comRMSD_score

>  <fragmensteinNew_score>  (1) 
Score fragmensteinNew_score

>  <meanSuCosW_score>  (1) 
Score meanSuCosW_score

>  <maxSuCosW_score>  (1) 
Score maxSuCosW_score

>  <minSuCosW_score>  (1) 
Score minSuCosW_score

>  <sumSuCosW_score>  (1) 
Score sumSuCosW_score

>  <SA_score>  (1) 
Score SA_score

>  <aLogP_score>  (1) 
Score aLogP_score

>  <hbondD_score>  (1) 
Score hbondD_score

>  <hbondA_score>  (1) 
Score hbondA_score

>  <polarSurfaceArea_score>  (1) 
Score polarSurfaceArea_score

>  <rotableBonds_score>  (1) 
Score rotableBonds_score

>  <SC_score>  (1) 
Score SC_score

>  <energyPoseVsEnsemble_score>  (1) 
Score energyPoseVsEnsemble_score

>  <xcos_score>  (1) 
Score xcos_score

>  <plipMedianPreser_score>  (1) 
Score plipMedianPreser_score

>  <plipGlobalPreser_score>  (1) 
Score plipGlobalPreser_score

>  <plipGlobalPreserOverMw_score>  (1) 
Score plipGlobalPreserOverMw_score

>  <plipTotalNumInteractions_score>  (1) 
Score plipTotalNumInteractions_score

$$$$
0_x1344_0B_1a93b4b15e
     RDKit          3D

 28 29  0  0  0  0  0  0  0  0999 V2000
    9.0950   38.2910   19.2820 C   0  0  0  0  0  0  0  0  0  0  0  0
    8.8490   39.7290   19.2560 N   0  0  0  0  0  0  0  0  0  0  0  0
    7.9720   40.3020   20.3190 C   0  0  0  0  0  0  0  0  0  0  0  0
   10.0000   40.5320   19.0790 C   0  0  0  0  0  0  0  0  0  0  0  0
    7.4460   39.3740   21.1980 C   0  0  2  0  0  0  0  0  0  0  0  0
   10.9880   40.5620   20.1850 C   0  0  0  0  0  0  0  0  0  0  0  0
   10.3000   41.2880   18.0000 C   0  0  0  0  0  0  0  0  0  0  0  0
    6.2660   38.6260   20.9990 C   0  0  0  0  0  0  0  0  0  0  0  0
    5.9820   39.6230   21.9650 C   0  0  0  0  0  0  0  0  0  0  0  0
   12.3170   41.3170   20.3430 C   0  0  0  0  0  0  0  0  0  0  0  0
   11.4290   42.0310   17.9750 C   0  0  0  0  0  0  0  0  0  0  0  0
    9.5070   41.3300   16.9200 F   0  0  0  0  0  0  0  0  0  0  0  0
   12.3360   42.0540   19.0140 C   0  0  0  0  0  0  0  0  0  0  0  0
   13.4800   42.9020   18.8160 C   0  0  0  0  0  0  0  0  0  0  0  0
   14.4010   43.5910   18.6580 N   0  0  0  0  0  0  0  0  0  0  0  0
    8.1710   37.7290   19.4480 H   0  0  0  0  0  0  0  0  0  0  0  0
    9.7970   38.0560   20.0850 H   0  0  0  0  0  0  0  0  0  0  0  0
    9.5410   37.9410   18.3500 H   0  0  0  0  0  0  0  0  0  0  0  0
    8.5610   41.0040   20.9140 H   0  0  0  0  0  0  0  0  0  0  0  0
    7.1480   40.8940   19.9050 H   0  0  0  0  0  0  0  0  0  0  0  0
    8.2010   38.8470   21.7770 H   0  0  0  0  0  0  0  0  0  0  0  0
   10.7200   39.9390   21.0380 H   0  0  0  0  0  0  0  0  0  0  0  0
    6.2460   37.5940   21.3260 H   0  0  0  0  0  0  0  0  0  0  0  0
    5.8530   38.7690   20.0100 H   0  0  0  0  0  0  0  0  0  0  0  0
    5.8910   39.3170   23.0040 H   0  0  0  0  0  0  0  0  0  0  0  0
    5.3870   40.4800   21.6970 H   0  0  0  0  0  0  0  0  0  0  0  0
   13.0160   41.3190   21.1670 H   0  0  0  0  0  0  0  0  0  0  0  0
   11.6140   42.6260   17.0860 H   0  0  0  0  0  0  0  0  0  0  0  0
  1  2  1  0
  2  3  1  0
  2  4  1  0
  3  5  1  0
  4  6  2  0
  4  7  1  0
  5  8  1  0
  5  9  1  0
  8  9  1  0
  6 10  1  0
  7 11  2  0
  7 12  1  0
 10 13  2  0
 11 13  1  0
 13 14  1  0
 14 15  3  0
  1 16  1  0
  1 17  1  0
  1 18  1  0
  3 19  1  0
  3 20  1  0
  5 21  1  1
  6 22  1  0
  8 23  1  0
  8 24  1  0
  9 25  1  0
  9 26  1  0
 10 27  1  0
 11 28  1  0
M  END
>  <ref_pdb>  (2) 
0_x1344_0B_1a93b4b15e.min.pdb

>  <ref_mols>  (2) 
x1344_0B

>  <fragmensteinOld_score>  (2) 
-0.53424668167864653

>  <LE_score>  (2) 
-0.35327404074853547

>  <comRMSD_score>  (2) 
1.12557544056696

>  <fragmensteinNew_score>  (2) 
2.55890517357264

>  <atomic_mapping>  (2) 
"{\"1\": [[\"x1344_0B\", 0]], \"2\": [[\"x1344_0B\", 8]], \"3\": [[\"x1344_0B\", 12]], \"4\": [[\"x1344_0B\", 11]], \"5\": [[\"x1344_0B\", 10]], \"6\": [[\"x1344_0B\", 7]], \"7\": [[\"x1344_0B\", 3]], \"8\": [[\"x1344_0B\", 4]], \"9\": [[\"x1344_0B\", 2]], \"10\": [[\"x1344_0B\", 5]], \"11\": [[\"x1344_0B\", 6]], \"13\": [[\"x1344_0B\", 1]], \"19\": [[\"x1344_0B\", 13]], \"21\": [[\"x1344_0B\", 16]], \"23\": [[\"x1344_0B\", 15]], \"24\": [[\"x1344_0B\", 14]], \"18\": [[\"x1344_0B\", 9]]}"

>  <meanSuCosW_score>  (2) 
0.51015916043497367

>  <maxSuCosW_score>  (2) 
0.51015916043497367

>  <minSuCosW_score>  (2) 
0.51015916043497367

>  <sumSuCosW_score>  (2) 
0.51015916043497367

>  <SA_score>  (2) 
7.3778813003187711

>  <aLogP_score>  (2) 
2.5435800000000004

>  <hbondD_score>  (2) 
0

>  <hbondA_score>  (2) 
2

>  <polarSurfaceArea_score>  (2) 
27.030000000000001

>  <rotableBonds_score>  (2) 
3

>  <SC_score>  (2) 
3.0137112907245407

>  <energyPoseVsEnsemble_score>  (2) 
0.30658754688761797

>  <xcos_score>  (2) 
4.4345238095238102

>  <plipMedianPreser_score>  (2) 
0

>  <plipGlobalPreser_score>  (2) 
0

>  <plipGlobalPreserOverMw_score>  (2) 
0

>  <plipTotalNumInteractions_score>  (2) 
2

>  <original_name>  (2) 
x1344-0B-1a93b4b15e-CN-CC1CC1-c2ccc-cc2F-C-N

>  <original SMILES>  (2) 
[H]c1c([H])c(N(C([H])([H])[H])C([H])([H])C2([H])C([H])([H])C2([H])[H])c(F)c([H])c1C#N

$$$$
1_x1344_0B_28551c9fce
     RDKit          3D

 30 31  0  0  0  0  0  0  0  0999 V2000
    9.1420   40.0690   17.4610 C   0  0  0  0  0  0  0  0  0  0  0  0
    8.3790   39.6820   18.6130 C   0  0  0  0  0  0  0  0  0  0  0  0
    9.2190   39.6450   19.8130 N   0  0  0  0  0  0  0  0  0  0  0  0
    8.4720   39.9360   21.0640 C   0  0  0  0  0  0  0  0  0  0  0  0
   10.3860   40.4150   19.5390 C   0  0  0  0  0  0  0  0  0  0  0  0
    6.9710   39.9140   20.8260 C   0  0  2  0  0  0  0  0  0  0  0  0
   11.2000   39.7850   18.3780 C   0  0  0  0  0  0  0  0  0  0  0  0
   10.6830   41.5830   20.2650 C   0  0  0  0  0  0  0  0  0  0  0  0
    6.0340   39.5750   21.9610 C   0  0  0  0  0  0  0  0  0  0  0  0
    6.1450   38.6430   20.7830 C   0  0  0  0  0  0  0  0  0  0  0  0
   12.3380   40.8100   18.2930 C   0  0  0  0  0  0  0  0  0  0  0  0
   11.7610   42.3560   20.0210 C   0  0  0  0  0  0  0  0  0  0  0  0
    9.8870   41.9760   21.2570 F   0  0  0  0  0  0  0  0  0  0  0  0
   12.5750   41.9580   19.0330 C   0  0  0  0  0  0  0  0  0  0  0  0
   13.6560   42.6960   18.7540 F   0  0  0  0  0  0  0  0  0  0  0  0
    8.5360   40.6430   16.7590 H   0  0  0  0  0  0  0  0  0  0  0  0
    9.5270   39.1920   16.9410 H   0  0  0  0  0  0  0  0  0  0  0  0
    9.9890   40.7000   17.7360 H   0  0  0  0  0  0  0  0  0  0  0  0
    7.6050   40.4320   18.7490 H   0  0  0  0  0  0  0  0  0  0  0  0
    7.8600   38.7350   18.4260 H   0  0  0  0  0  0  0  0  0  0  0  0
    8.7400   40.9230   21.4530 H   0  0  0  0  0  0  0  0  0  0  0  0
    8.7150   39.2080   21.8470 H   0  0  0  0  0  0  0  0  0  0  0  0
    6.6680   40.7310   20.1840 H   0  0  0  0  0  0  0  0  0  0  0  0
   11.0170   38.8870   17.7920 H   0  0  0  0  0  0  0  0  0  0  0  0
    5.1280   40.1640   22.0680 H   0  0  0  0  0  0  0  0  0  0  0  0
    6.4700   39.2650   22.9070 H   0  0  0  0  0  0  0  0  0  0  0  0
    6.6110   37.6880   20.9470 H   0  0  0  0  0  0  0  0  0  0  0  0
    5.3070   38.6040   20.0970 H   0  0  0  0  0  0  0  0  0  0  0  0
   13.0850   40.6110   17.5290 H   0  0  0  0  0  0  0  0  0  0  0  0
   11.9640   43.2470   20.5870 H   0  0  0  0  0  0  0  0  0  0  0  0
  1  2  1  0
  2  3  1  0
  3  4  1  0
  3  5  1  0
  4  6  1  0
  5  7  2  0
  5  8  1  0
  6  9  1  0
  6 10  1  0
  9 10  1  0
  7 11  1  0
  8 12  2  0
  8 13  1  0
 11 14  2  0
 12 14  1  0
 14 15  1  0
  1 16  1  0
  1 17  1  0
  1 18  1  0
  2 19  1  0
  2 20  1  0
  4 21  1  0
  4 22  1  0
  6 23  1  6
  7 24  1  0
  9 25  1  0
  9 26  1  0
 10 27  1  0
 10 28  1  0
 11 29  1  0
 12 30  1  0
M  END
>  <ref_pdb>  (3) 
1_x1344_0B_28551c9fce.min.pdb

>  <ref_mols>  (3) 
x1344_0B

>  <fragmensteinOld_score>  (3) 
-0.79399429956058853

>  <LE_score>  (3) 
-0.35551998071599855

>  <comRMSD_score>  (3) 
0.57256564258740716

>  <fragmensteinNew_score>  (3) 
2.1664911826656792

>  <atomic_mapping>  (3) 
"{\"2\": [[\"x1344_0B\", 0]], \"3\": [[\"x1344_0B\", 8]], \"4\": [[\"x1344_0B\", 12]], \"5\": [[\"x1344_0B\", 10]], \"6\": [[\"x1344_0B\", 11]], \"7\": [[\"x1344_0B\", 7]], \"8\": [[\"x1344_0B\", 3]], \"9\": [[\"x1344_0B\", 4]], \"10\": [[\"x1344_0B\", 2]], \"11\": [[\"x1344_0B\", 5]], \"12\": [[\"x1344_0B\", 6]], \"14\": [[\"x1344_0B\", 1]], \"21\": [[\"x1344_0B\", 13]], \"25\": [[\"x1344_0B\", 16]], \"24\": [[\"x1344_0B\", 15]], \"23\": [[\"x1344_0B\", 14]], \"20\": [[\"x1344_0B\", 9]]}"

>  <meanSuCosW_score>  (3) 
0.47211896905268902

>  <maxSuCosW_score>  (3) 
0.47211896905268902

>  <minSuCosW_score>  (3) 
0.47211896905268902

>  <sumSuCosW_score>  (3) 
0.47211896905268902

>  <SA_score>  (3) 
7.7275721096612671

>  <aLogP_score>  (3) 
3.2011000000000021

>  <hbondD_score>  (3) 
0

>  <hbondA_score>  (3) 
1

>  <polarSurfaceArea_score>  (3) 
3.2400000000000002

>  <rotableBonds_score>  (3) 
4

>  <SC_score>  (3) 
2.8752115297028755

>  <energyPoseVsEnsemble_score>  (3) 
2.424819139457481

>  <xcos_score>  (3) 
5.7851592637495868

>  <plipMedianPreser_score>  (3) 
0

>  <plipGlobalPreser_score>  (3) 
0

>  <plipGlobalPreserOverMw_score>  (3) 
0

>  <plipTotalNumInteractions_score>  (3) 
2

>  <original_name>  (3) 
x1344-0B-28551c9fce-CCN-CC1CC1-C2-CC-C-C-C2F-F

>  <original SMILES>  (3) 
[H]c1c([H])c(N(C([H])([H])C([H])([H])[H])C([H])([H])C2([H])C([H])([H])C2([H])[H])c(F)c([H])c1F

$$$$
2_x1344_0B_30322d8b10
     RDKit          3D

 44 45  0  0  0  0  0  0  0  0999 V2000
   13.2860   43.4120   19.8490 C   0  0  0  0  0  0  0  0  0  0  0  0
   12.0940   42.6870   19.9570 C   0  0  2  0  0  0  0  0  0  0  0  0
   11.7990   42.0990   21.1880 C   0  0  0  0  0  0  0  0  0  0  0  0
   12.0140   41.6090   18.8650 C   0  0  0  0  0  0  0  0  0  0  0  0
   10.5670   41.5060   21.3230 C   0  0  0  0  0  0  0  0  0  0  0  0
   11.0290   40.4760   19.2200 C   0  0  0  0  0  0  0  0  0  0  0  0
    9.9990   40.8870   20.0540 C   0  0  1  0  0  0  0  0  0  0  0  0
    8.8870   39.8390   20.2800 C   0  0  0  0  0  0  0  0  0  0  0  0
    8.5370   39.5820   21.6140 C   0  0  0  0  0  0  0  0  0  0  0  0
    9.3620   39.7290   22.5080 O   0  0  0  0  0  0  0  0  0  0  0  0
    7.2180   39.1630   21.8790 N   0  0  0  0  0  0  0  0  0  0  0  0
    6.3500   38.3510   21.1050 C   0  0  0  0  0  0  0  0  0  0  0  0
    6.5780   39.4910   23.0140 C   0  0  0  0  0  0  0  0  0  0  0  0
    6.4250   38.1070   19.7710 C   0  0  0  0  0  0  0  0  0  0  0  0
    5.3090   37.7470   21.8090 C   0  0  0  0  0  0  0  0  0  0  0  0
    6.9460   39.2540   24.1450 O   0  0  0  0  0  0  0  0  0  0  0  0
    5.3650   40.2340   22.6080 C   0  0  0  0  0  0  0  0  0  0  0  0
    5.4970   37.2720   19.1800 C   0  0  0  0  0  0  0  0  0  0  0  0
    4.4080   36.9060   21.2320 C   0  0  0  0  0  0  0  0  0  0  0  0
    7.3760   38.6470   18.9920 F   0  0  0  0  0  0  0  0  0  0  0  0
    5.9770   40.8840   21.4870 C   0  0  0  0  0  0  0  0  0  0  0  0
    4.5280   36.6700   19.9110 C   0  0  0  0  0  0  0  0  0  0  0  0
    6.4900   41.3070   20.5610 N   0  0  0  0  0  0  0  0  0  0  0  0
    3.6970   35.8420   19.3190 F   0  0  0  0  0  0  0  0  0  0  0  0
   13.4210   44.0700   18.9940 H   0  0  0  0  0  0  0  0  0  0  0  0
   14.1360   42.7230   19.8440 H   0  0  0  0  0  0  0  0  0  0  0  0
   13.4060   44.0440   20.7330 H   0  0  0  0  0  0  0  0  0  0  0  0
   11.2900   43.4050   19.7470 H   0  0  0  0  0  0  0  0  0  0  0  0
   12.5570   41.3360   21.3660 H   0  0  0  0  0  0  0  0  0  0  0  0
   11.9140   42.8060   22.0060 H   0  0  0  0  0  0  0  0  0  0  0  0
   11.7150   42.0530   17.9080 H   0  0  0  0  0  0  0  0  0  0  0  0
   13.0120   41.1760   18.7090 H   0  0  0  0  0  0  0  0  0  0  0  0
   10.6620   40.7460   22.0990 H   0  0  0  0  0  0  0  0  0  0  0  0
    9.8760   42.2420   21.7310 H   0  0  0  0  0  0  0  0  0  0  0  0
   11.5760   39.6700   19.7270 H   0  0  0  0  0  0  0  0  0  0  0  0
   10.6550   40.0370   18.2900 H   0  0  0  0  0  0  0  0  0  0  0  0
    9.5110   41.7050   19.5260 H   0  0  0  0  0  0  0  0  0  0  0  0
    9.1940   38.8990   19.8110 H   0  0  0  0  0  0  0  0  0  0  0  0
    7.9890   40.1960   19.7600 H   0  0  0  0  0  0  0  0  0  0  0  0
    5.1740   37.9150   22.8480 H   0  0  0  0  0  0  0  0  0  0  0  0
    4.9800   40.9370   23.3380 H   0  0  0  0  0  0  0  0  0  0  0  0
    4.5690   39.5510   22.2930 H   0  0  0  0  0  0  0  0  0  0  0  0
    5.5270   37.0790   18.1400 H   0  0  0  0  0  0  0  0  0  0  0  0
    3.6250   36.4390   21.8030 H   0  0  0  0  0  0  0  0  0  0  0  0
  1  2  1  0
  2  3  1  0
  2  4  1  0
  3  5  1  0
  4  6  1  0
  5  7  1  0
  6  7  1  0
  7  8  1  0
  8  9  1  0
  9 10  2  0
  9 11  1  0
 11 12  1  0
 11 13  1  0
 12 14  2  0
 12 15  1  0
 13 16  2  0
 13 17  1  0
 14 18  1  0
 15 19  2  0
 14 20  1  0
 17 21  1  0
 18 22  2  0
 19 22  1  0
 21 23  3  0
 22 24  1  0
  1 25  1  0
  1 26  1  0
  1 27  1  0
  2 28  1  6
  3 29  1  0
  3 30  1  0
  4 31  1  0
  4 32  1  0
  5 33  1  0
  5 34  1  0
  6 35  1  0
  6 36  1  0
  7 37  1  6
  8 38  1  0
  8 39  1  0
 15 40  1  0
 17 41  1  0
 17 42  1  0
 18 43  1  0
 19 44  1  0
M  END
>  <ref_pdb>  (4) 
2_x1344_0B_30322d8b10.min.pdb

>  <ref_mols>  (4) 
x1344_0B

>  <fragmensteinOld_score>  (4) 
0.89105764067907267

>  <LE_score>  (4) 
-0.058279592162541895

>  <comRMSD_score>  (4) 
1.4707996830592738

>  <fragmensteinNew_score>  (4) 
3.3616707582912007

>  <atomic_mapping>  (4) 
"{\"0\": [[\"x1344_0B\", 1]], \"1\": [[\"x1344_0B\", 2]], \"2\": [[\"x1344_0B\", 5]], \"3\": [[\"x1344_0B\", 6]], \"4\": [[\"x1344_0B\", 7]], \"5\": [[\"x1344_0B\", 3]], \"6\": [[\"x1344_0B\", 4]], \"7\": [[\"x1344_0B\", 0]], \"8\": [[\"x1344_0B\", 8]], \"9\": [[\"x1344_0B\", 13]], \"10\": [[\"x1344_0B\", 12]], \"11\": [[\"x1344_0B\", 11]], \"16\": [[\"x1344_0B\", 16]], \"19\": [[\"x1344_0B\", 10]], \"20\": [[\"x1344_0B\", 15]], \"21\": [[\"x1344_0B\", 14]], \"22\": [[\"x1344_0B\", 9]]}"

>  <meanSuCosW_score>  (4) 
0.41428113150186596

>  <maxSuCosW_score>  (4) 
0.41428113150186596

>  <minSuCosW_score>  (4) 
0.41428113150186596

>  <sumSuCosW_score>  (4) 
0.41428113150186596

>  <SA_score>  (4) 
7.821292685001545

>  <aLogP_score>  (4) 
3.9544800000000038

>  <hbondD_score>  (4) 
0

>  <hbondA_score>  (4) 
3

>  <polarSurfaceArea_score>  (4) 
61.170000000000002

>  <rotableBonds_score>  (4) 
4

>  <SC_score>  (4) 
3.3572193416596363

>  <energyPoseVsEnsemble_score>  (4) 
6.2651315687798101

>  <xcos_score>  (4) 
2.4034090909090913

>  <plipMedianPreser_score>  (4) 
0

>  <plipGlobalPreser_score>  (4) 
0

>  <plipGlobalPreserOverMw_score>  (4) 
0

>  <plipTotalNumInteractions_score>  (4) 
7

>  <original_name>  (4) 
x1344-0B-30322d8b10-CC1CCC-CC1-CC-O-N-C2-C-C-C-C-C2-F-F-C-O-CC-N

>  <original SMILES>  (4) 
[H]c1c([H])c(N(C(=O)C([H])([H])C#N)C(=O)C([H])([H])[C@]2([H])C([H])([H])C([H])([H])[C@]([H])(C([H])([H])[H])C([H])([H])C2([H])[H])c(F)c([H])c1F

$$$$
3_x1344_0B_502c6c7418
     RDKit          3D

 40 43  0  0  0  0  0  0  0  0999 V2000
    5.2170   37.1890   22.0760 C   0  0  0  0  0  0  0  0  0  0  0  0
    5.5420   38.3760   21.6540 N   0  0  0  0  0  0  0  0  0  0  0  0
    4.8970   39.3620   22.1550 C   0  0  0  0  0  0  0  0  0  0  0  0
    6.4920   38.7630   20.7140 C   0  0  0  0  0  0  0  0  0  0  0  0
    5.3060   40.3580   21.6650 N   0  0  0  0  0  0  0  0  0  0  0  0
    6.2640   40.0580   20.7900 C   0  0  0  0  0  0  0  0  0  0  0  0
    7.4870   38.2690   19.8210 C   0  0  0  0  0  0  0  0  0  0  0  0
    6.9430   40.9210   20.0430 C   0  0  0  0  0  0  0  0  0  0  0  0
    8.1780   39.2520   19.1040 C   0  0  0  0  0  0  0  0  0  0  0  0
    7.8960   40.5190   19.2250 N   0  0  0  0  0  0  0  0  0  0  0  0
    9.2460   39.0250   18.1820 N   0  0  0  0  0  0  0  0  0  0  0  0
   10.1840   38.0730   18.7930 C   0  0  0  0  0  0  0  0  0  0  0  0
    9.9520   40.2420   17.9100 C   0  0  0  0  0  0  0  0  0  0  0  0
   11.6150   38.5340   18.6320 C   0  0  1  0  0  0  0  0  0  0  0  0
   10.1770   40.9120   16.5850 C   0  0  0  0  0  0  0  0  0  0  0  0
   10.4930   40.8620   19.0150 C   0  0  0  0  0  0  0  0  0  0  0  0
   12.7380   37.8960   19.4040 C   0  0  0  0  0  0  0  0  0  0  0  0
   12.6220   37.6720   17.9220 C   0  0  0  0  0  0  0  0  0  0  0  0
   10.9320   42.2080   16.2190 C   0  0  0  0  0  0  0  0  0  0  0  0
   11.1960   42.0230   18.8710 C   0  0  0  0  0  0  0  0  0  0  0  0
    9.6570   40.3300   15.5020 F   0  0  0  0  0  0  0  0  0  0  0  0
   11.3960   42.6270   17.6290 C   0  0  0  0  0  0  0  0  0  0  0  0
   12.1570   43.8400   17.6810 C   0  0  0  0  0  0  0  0  0  0  0  0
   12.7810   44.8180   17.7260 N   0  0  0  0  0  0  0  0  0  0  0  0
    4.1720   37.1590   22.3700 H   0  0  0  0  0  0  0  0  0  0  0  0
    5.8920   36.8940   22.8730 H   0  0  0  0  0  0  0  0  0  0  0  0
    5.3760   36.7020   21.1520 H   0  0  0  0  0  0  0  0  0  0  0  0
    4.1390   39.3250   22.8690 H   0  0  0  0  0  0  0  0  0  0  0  0
    7.7190   37.2260   19.6970 H   0  0  0  0  0  0  0  0  0  0  0  0
    6.7020   41.9440   20.1070 H   0  0  0  0  0  0  0  0  0  0  0  0
   10.0660   37.0810   18.3670 H   0  0  0  0  0  0  0  0  0  0  0  0
    9.9930   38.0060   19.8720 H   0  0  0  0  0  0  0  0  0  0  0  0
   11.6800   39.5940   18.4320 H   0  0  0  0  0  0  0  0  0  0  0  0
   10.3690   40.4340   20.0090 H   0  0  0  0  0  0  0  0  0  0  0  0
   12.5000   37.0780   20.0700 H   0  0  0  0  0  0  0  0  0  0  0  0
   13.5350   38.5370   19.7580 H   0  0  0  0  0  0  0  0  0  0  0  0
   13.3390   38.1630   17.2740 H   0  0  0  0  0  0  0  0  0  0  0  0
   12.3140   36.6970   17.5720 H   0  0  0  0  0  0  0  0  0  0  0  0
   11.0940   42.6890   15.2600 H   0  0  0  0  0  0  0  0  0  0  0  0
   11.6100   42.4850   19.7660 H   0  0  0  0  0  0  0  0  0  0  0  0
  1  2  1  0
  2  3  1  0
  2  4  1  0
  3  5  2  0
  4  6  2  0
  5  6  1  0
  4  7  1  0
  6  8  1  0
  7  9  2  0
  8 10  2  0
  9 10  1  0
  9 11  1  0
 11 12  1  0
 11 13  1  0
 12 14  1  0
 13 15  2  0
 13 16  1  0
 14 17  1  0
 14 18  1  0
 17 18  1  0
 15 19  1  0
 16 20  2  0
 15 21  1  0
 19 22  2  0
 20 22  1  0
 22 23  1  0
 23 24  3  0
  1 25  1  0
  1 26  1  0
  1 27  1  0
  3 28  1  0
  7 29  1  0
  8 30  1  0
 12 31  1  0
 12 32  1  0
 14 33  1  6
 16 34  1  0
 17 35  1  0
 17 36  1  0
 18 37  1  0
 18 38  1  0
 19 39  1  0
 20 40  1  0
M  END
>  <ref_pdb>  (5) 
3_x1344_0B_502c6c7418.min.pdb

>  <ref_mols>  (5) 
x1344_0B

>  <fragmensteinOld_score>  (5) 
1.7043799334931882

>  <LE_score>  (5) 
0.0036674264817443004

>  <comRMSD_score>  (5) 
1.7860428010844667

>  <fragmensteinNew_score>  (5) 
4.3318817907636502

>  <atomic_mapping>  (5) 
"{\"1\": [[\"x1344_0B\", 15]], \"2\": [[\"x1344_0B\", 16]], \"4\": [[\"x1344_0B\", 14]], \"5\": [[\"x1344_0B\", 9]], \"6\": [[\"x1344_0B\", 13]], \"7\": [[\"x1344_0B\", 8]], \"8\": [[\"x1344_0B\", 12]], \"9\": [[\"x1344_0B\", 10]], \"10\": [[\"x1344_0B\", 0]], \"15\": [[\"x1344_0B\", 7]], \"16\": [[\"x1344_0B\", 3]], \"17\": [[\"x1344_0B\", 4]], \"18\": [[\"x1344_0B\", 2]], \"19\": [[\"x1344_0B\", 5]], \"20\": [[\"x1344_0B\", 6]], \"21\": [[\"x1344_0B\", 1]], \"29\": [[\"x1344_0B\", 11]]}"

>  <meanSuCosW_score>  (5) 
0.379005667507819

>  <maxSuCosW_score>  (5) 
0.379005667507819

>  <minSuCosW_score>  (5) 
0.379005667507819

>  <sumSuCosW_score>  (5) 
0.379005667507819

>  <SA_score>  (5) 
7.4360878064541804

>  <aLogP_score>  (5) 
3.5271800000000022

>  <hbondD_score>  (5) 
0

>  <hbondA_score>  (5) 
4

>  <polarSurfaceArea_score>  (5) 
57.740000000000002

>  <rotableBonds_score>  (5) 
4

>  <SC_score>  (5) 
4.1634320095244481

>  <energyPoseVsEnsemble_score>  (5) 
0.89593558071500823

>  <xcos_score>  (5) 
0

>  <plipMedianPreser_score>  (5) 
0

>  <plipGlobalPreser_score>  (5) 
0

>  <plipGlobalPreserOverMw_score>  (5) 
0

>  <plipTotalNumInteractions_score>  (5) 
3

>  <original_name>  (5) 
x1344-0B-502c6c7418-CN1C-NC2-CN-C-C-C21-N-CC3CC3-C4-C-C-C-C-C4-C-N-F

>  <original SMILES>  (5) 
[H]c1c([H])c(N(c2nc([H])c3nc([H])n(C([H])([H])[H])c3c2[H])C([H])([H])C2([H])C([H])([H])C2([H])[H])c(F)c([H])c1C#N

$$$$
4_x1344_0B_57a56d89de
     RDKit          3D

 22 23  0  0  0  0  0  0  0  0999 V2000
   11.7270   40.6490   18.3150 C   0  0  0  0  0  0  0  0  0  0  0  0
   10.4440   40.0700   18.8250 C   0  0  0  0  0  0  0  0  0  0  0  0
    9.9090   40.5850   20.0110 C   0  0  0  0  0  0  0  0  0  0  0  0
   12.3640   41.6690   19.0060 C   0  0  0  0  0  0  0  0  0  0  0  0
   11.8030   42.1540   20.1910 C   0  0  0  0  0  0  0  0  0  0  0  0
   13.5110   42.1960   18.5520 F   0  0  0  0  0  0  0  0  0  0  0  0
   10.6110   41.6110   20.6650 C   0  0  0  0  0  0  0  0  0  0  0  0
    8.6260   40.0970   20.5820 C   0  0  0  0  0  0  0  0  0  0  0  0
   10.1360   42.1140   21.8020 F   0  0  0  0  0  0  0  0  0  0  0  0
    8.4160   39.2660   21.6800 C   0  0  0  0  0  0  0  0  0  0  0  0
    7.4690   40.4860   20.0150 C   0  0  0  0  0  0  0  0  0  0  0  0
    6.9550   38.8490   22.1520 C   0  0  0  0  0  0  0  0  0  0  0  0
    6.2430   40.2070   20.3600 N   0  0  0  0  0  0  0  0  0  0  0  0
    5.9300   39.4530   21.3430 C   0  0  0  0  0  0  0  0  0  0  0  0
    6.4200   38.0490   23.1870 C   0  0  0  0  0  0  0  0  0  0  0  0
    5.9120   37.4330   24.0140 N   0  0  0  0  0  0  0  0  0  0  0  0
   12.1010   40.2120   17.3820 H   0  0  0  0  0  0  0  0  0  0  0  0
    9.9510   39.2740   18.2720 H   0  0  0  0  0  0  0  0  0  0  0  0
   12.2930   42.9470   20.7360 H   0  0  0  0  0  0  0  0  0  0  0  0
    9.2700   38.9240   22.1960 H   0  0  0  0  0  0  0  0  0  0  0  0
    7.4710   41.0940   19.1770 H   0  0  0  0  0  0  0  0  0  0  0  0
    4.8660   39.2940   21.5290 H   0  0  0  0  0  0  0  0  0  0  0  0
  1  2  2  0
  2  3  1  0
  1  4  1  0
  4  5  2  0
  4  6  1  0
  3  7  2  0
  5  7  1  0
  3  8  1  0
  7  9  1  0
  8 10  2  0
  8 11  1  0
 10 12  1  0
 11 13  2  0
 12 14  2  0
 13 14  1  0
 12 15  1  0
 15 16  3  0
  1 17  1  0
  2 18  1  0
  5 19  1  0
 10 20  1  0
 11 21  1  0
 14 22  1  0
M  END
>  <ref_pdb>  (6) 
4_x1344_0B_57a56d89de.min.pdb

>  <ref_mols>  (6) 
x1344_0B

>  <fragmensteinOld_score>  (6) 
0.0092451195405145459

>  <LE_score>  (6) 
-0.0027517217211408939

>  <comRMSD_score>  (6) 
1.5191513177366218

>  <fragmensteinNew_score>  (6) 
1.8472352314206308

>  <atomic_mapping>  (6) 
"{\"0\": [[\"x1344_0B\", 4]], \"1\": [[\"x1344_0B\", 3]], \"2\": [[\"x1344_0B\", 7]], \"3\": [[\"x1344_0B\", 6]], \"4\": [[\"x1344_0B\", 5]], \"5\": [[\"x1344_0B\", 2]], \"6\": [[\"x1344_0B\", 1]], \"8\": [[\"x1344_0B\", 0]], \"9\": [[\"x1344_0B\", 8]], \"10\": [[\"x1344_0B\", 12]], \"11\": [[\"x1344_0B\", 10]], \"12\": [[\"x1344_0B\", 14]], \"13\": [[\"x1344_0B\", 9]], \"14\": [[\"x1344_0B\", 11]], \"15\": [[\"x1344_0B\", 16]], \"19\": [[\"x1344_0B\", 13]], \"20\": [[\"x1344_0B\", 15]]}"

>  <meanSuCosW_score>  (6) 
0.39734861435132562

>  <maxSuCosW_score>  (6) 
0.39734861435132562

>  <minSuCosW_score>  (6) 
0.39734861435132562

>  <sumSuCosW_score>  (6) 
0.39734861435132562

>  <SA_score>  (6) 
6.00657113046611

>  <aLogP_score>  (6) 
2.8984800000000019

>  <hbondD_score>  (6) 
0

>  <hbondA_score>  (6) 
2

>  <polarSurfaceArea_score>  (6) 
36.68

>  <rotableBonds_score>  (6) 
1

>  <SC_score>  (6) 
3.14806812914181

>  <energyPoseVsEnsemble_score>  (6) 
1.576349077027617

>  <xcos_score>  (6) 
2.1408450704225355

>  <plipMedianPreser_score>  (6) 
0

>  <plipGlobalPreser_score>  (6) 
0

>  <plipGlobalPreserOverMw_score>  (6) 
0

>  <plipTotalNumInteractions_score>  (6) 
5

>  <original_name>  (6) 
x1344-0B-57a56d89de-c1cc-c-cc1F-F-c2cc-cnc2-C-N

>  <original SMILES>  (6) 
[H]c1nc([H])c(-c2c([H])c([H])c(F)c([H])c2F)c([H])c1C#N

$$$$
5_x1344_0B_63cd422bca
     RDKit          3D

 31 32  0  0  0  0  0  0  0  0999 V2000
    9.5620   39.5900   17.2480 C   0  0  0  0  0  0  0  0  0  0  0  0
    8.5980   39.5510   18.2620 C   0  0  0  0  0  0  0  0  0  0  0  0
    9.2100   39.5080   19.5840 N   0  0  0  0  0  0  0  0  0  0  0  0
    8.2190   39.7520   20.6510 C   0  0  0  0  0  0  0  0  0  0  0  0
   10.2830   40.3480   19.4630 C   0  0  0  0  0  0  0  0  0  0  0  0
    7.0530   38.9410   20.5350 C   0  0  1  0  0  0  0  0  0  0  0  0
   11.2040   40.1360   18.4940 C   0  0  0  0  0  0  0  0  0  0  0  0
   10.5850   41.4500   20.2240 C   0  0  0  0  0  0  0  0  0  0  0  0
    6.4550   38.3480   21.7870 C   0  0  0  0  0  0  0  0  0  0  0  0
    5.6910   39.3530   21.0460 C   0  0  0  0  0  0  0  0  0  0  0  0
   12.3680   41.0420   18.3210 C   0  0  0  0  0  0  0  0  0  0  0  0
   11.6870   42.2940   20.0420 C   0  0  0  0  0  0  0  0  0  0  0  0
    9.7990   41.7930   21.2430 F   0  0  0  0  0  0  0  0  0  0  0  0
   12.7690   42.2970   19.1060 C   0  0  0  0  0  0  0  0  0  0  0  0
   13.8760   43.1870   18.9550 C   0  0  0  0  0  0  0  0  0  0  0  0
   14.7680   43.9190   18.8360 N   0  0  0  0  0  0  0  0  0  0  0  0
    9.2370   39.4720   16.2200 H   0  0  0  0  0  0  0  0  0  0  0  0
   10.0730   40.5530   17.3130 H   0  0  0  0  0  0  0  0  0  0  0  0
   10.2930   38.7980   17.4390 H   0  0  0  0  0  0  0  0  0  0  0  0
    7.8480   40.2920   18.0490 H   0  0  0  0  0  0  0  0  0  0  0  0
    8.0860   38.5970   18.1400 H   0  0  0  0  0  0  0  0  0  0  0  0
    8.7140   39.7120   21.6170 H   0  0  0  0  0  0  0  0  0  0  0  0
    7.8830   40.7930   20.5750 H   0  0  0  0  0  0  0  0  0  0  0  0
    7.0390   38.3020   19.6580 H   0  0  0  0  0  0  0  0  0  0  0  0
   11.1140   39.2950   17.8120 H   0  0  0  0  0  0  0  0  0  0  0  0
    6.0650   37.3420   21.7630 H   0  0  0  0  0  0  0  0  0  0  0  0
    6.8880   38.6320   22.7340 H   0  0  0  0  0  0  0  0  0  0  0  0
    4.8170   38.9870   20.5160 H   0  0  0  0  0  0  0  0  0  0  0  0
    5.5560   40.3160   21.5030 H   0  0  0  0  0  0  0  0  0  0  0  0
   13.0340   40.7630   17.5050 H   0  0  0  0  0  0  0  0  0  0  0  0
   11.7090   43.0960   20.7610 H   0  0  0  0  0  0  0  0  0  0  0  0
  1  2  1  0
  2  3  1  0
  3  4  1  0
  3  5  1  0
  4  6  1  0
  5  7  2  0
  5  8  1  0
  6  9  1  0
  6 10  1  0
  9 10  1  0
  7 11  1  0
  8 12  2  0
  8 13  1  0
 11 14  2  0
 12 14  1  0
 14 15  1  0
 15 16  3  0
  1 17  1  0
  1 18  1  0
  1 19  1  0
  2 20  1  0
  2 21  1  0
  4 22  1  0
  4 23  1  0
  6 24  1  6
  7 25  1  0
  9 26  1  0
  9 27  1  0
 10 28  1  0
 10 29  1  0
 11 30  1  0
 12 31  1  0
M  END
>  <ref_pdb>  (7) 
5_x1344_0B_63cd422bca.min.pdb

>  <ref_mols>  (7) 
x1344_0B

>  <fragmensteinOld_score>  (7) 
-0.59795066498475002

>  <LE_score>  (7) 
-0.23340881608450204

>  <comRMSD_score>  (7) 
0.54895754648565642

>  <fragmensteinNew_score>  (7) 
1.9101499946894507

>  <atomic_mapping>  (7) 
"{\"2\": [[\"x1344_0B\", 0]], \"3\": [[\"x1344_0B\", 8]], \"4\": [[\"x1344_0B\", 12]], \"5\": [[\"x1344_0B\", 11]], \"6\": [[\"x1344_0B\", 10]], \"7\": [[\"x1344_0B\", 7]], \"8\": [[\"x1344_0B\", 3]], \"9\": [[\"x1344_0B\", 4]], \"10\": [[\"x1344_0B\", 2]], \"11\": [[\"x1344_0B\", 5]], \"12\": [[\"x1344_0B\", 6]], \"14\": [[\"x1344_0B\", 1]], \"22\": [[\"x1344_0B\", 13]], \"25\": [[\"x1344_0B\", 16]], \"27\": [[\"x1344_0B\", 15]], \"26\": [[\"x1344_0B\", 14]], \"21\": [[\"x1344_0B\", 9]]}"

>  <meanSuCosW_score>  (7) 
0.51702544836415221

>  <maxSuCosW_score>  (7) 
0.51702544836415221

>  <minSuCosW_score>  (7) 
0.51702544836415221

>  <sumSuCosW_score>  (7) 
0.51702544836415221

>  <SA_score>  (7) 
7.5969418574485523

>  <aLogP_score>  (7) 
2.9336800000000016

>  <hbondD_score>  (7) 
0

>  <hbondA_score>  (7) 
2

>  <polarSurfaceArea_score>  (7) 
27.030000000000001

>  <rotableBonds_score>  (7) 
4

>  <SC_score>  (7) 
3.1197831462015184

>  <energyPoseVsEnsemble_score>  (7) 
35.612054366300853

>  <xcos_score>  (7) 
3.1593625498007967

>  <plipMedianPreser_score>  (7) 
0

>  <plipGlobalPreser_score>  (7) 
0

>  <plipGlobalPreserOverMw_score>  (7) 
0

>  <plipTotalNumInteractions_score>  (7) 
2

>  <original_name>  (7) 
x1344-0B-63cd422bca-CCN-CC1CC1-c2ccc-cc2F-C-N

>  <original SMILES>  (7) 
[H]c1c([H])c(N(C([H])([H])C([H])([H])[H])C([H])([H])C2([H])C([H])([H])C2([H])[H])c(F)c([H])c1C#N

$$$$
6_x1344_0B_66f7571a37
     RDKit          3D

 34 36  0  0  0  0  0  0  0  0999 V2000
    4.4530   37.2110   22.1230 N   0  0  0  0  0  0  0  0  0  0  0  0
    5.1900   37.8490   21.5330 C   0  0  0  0  0  0  0  0  0  0  0  0
    6.1060   38.7060   20.9160 C   0  0  0  0  0  0  0  0  0  0  0  0
    5.8950   39.9880   21.1470 C   0  0  0  0  0  0  0  0  0  0  0  0
    7.1890   38.3470   20.1180 C   0  0  0  0  0  0  0  0  0  0  0  0
    6.6510   40.9670   20.6670 N   0  0  0  0  0  0  0  0  0  0  0  0
    8.0490   39.3430   19.6250 C   0  0  0  0  0  0  0  0  0  0  0  0
    7.6960   40.5900   19.9590 C   0  0  0  0  0  0  0  0  0  0  0  0
    9.2100   39.2090   18.8550 N   0  0  0  0  0  0  0  0  0  0  0  0
   10.0620   38.0240   19.0030 C   0  0  0  0  0  0  0  0  0  0  0  0
   10.1360   40.2970   18.8250 C   0  0  0  0  0  0  0  0  0  0  0  0
   11.4270   38.4210   18.4960 C   0  0  1  0  0  0  0  0  0  0  0  0
   10.4000   41.0620   19.9900 C   0  0  0  0  0  0  0  0  0  0  0  0
   10.8350   40.6510   17.6550 C   0  0  0  0  0  0  0  0  0  0  0  0
   12.6610   37.8520   19.1190 C   0  0  0  0  0  0  0  0  0  0  0  0
   12.3240   37.5050   17.7160 C   0  0  0  0  0  0  0  0  0  0  0  0
   11.3230   42.1180   19.9700 C   0  0  0  0  0  0  0  0  0  0  0  0
   11.7550   41.6970   17.6380 C   0  0  0  0  0  0  0  0  0  0  0  0
   10.6310   39.9720   16.5130 F   0  0  0  0  0  0  0  0  0  0  0  0
   11.9940   42.4220   18.7980 C   0  0  0  0  0  0  0  0  0  0  0  0
   12.8830   43.4240   18.7790 F   0  0  0  0  0  0  0  0  0  0  0  0
    5.0560   40.3050   21.7630 H   0  0  0  0  0  0  0  0  0  0  0  0
    7.3560   37.3050   19.9090 H   0  0  0  0  0  0  0  0  0  0  0  0
    8.3030   41.3900   19.6380 H   0  0  0  0  0  0  0  0  0  0  0  0
   10.1220   37.6840   20.0380 H   0  0  0  0  0  0  0  0  0  0  0  0
    9.6780   37.1650   18.4620 H   0  0  0  0  0  0  0  0  0  0  0  0
   11.4760   39.4730   18.2480 H   0  0  0  0  0  0  0  0  0  0  0  0
    9.8840   40.8310   20.9210 H   0  0  0  0  0  0  0  0  0  0  0  0
   13.5080   38.4990   19.2470 H   0  0  0  0  0  0  0  0  0  0  0  0
   12.5480   37.0940   19.8850 H   0  0  0  0  0  0  0  0  0  0  0  0
   11.9940   36.5000   17.4990 H   0  0  0  0  0  0  0  0  0  0  0  0
   12.9350   37.9410   16.9320 H   0  0  0  0  0  0  0  0  0  0  0  0
   11.5150   42.6970   20.8720 H   0  0  0  0  0  0  0  0  0  0  0  0
   12.2770   41.9430   16.7270 H   0  0  0  0  0  0  0  0  0  0  0  0
  1  2  3  0
  2  3  1  0
  3  4  2  0
  3  5  1  0
  4  6  1  0
  5  7  2  0
  6  8  2  0
  7  8  1  0
  7  9  1  0
  9 10  1  0
  9 11  1  0
 10 12  1  0
 11 13  2  0
 11 14  1  0
 12 15  1  0
 12 16  1  0
 15 16  1  0
 13 17  1  0
 14 18  2  0
 14 19  1  0
 17 20  2  0
 18 20  1  0
 20 21  1  0
  4 22  1  0
  5 23  1  0
  8 24  1  0
 10 25  1  0
 10 26  1  0
 12 27  1  6
 13 28  1  0
 15 29  1  0
 15 30  1  0
 16 31  1  0
 16 32  1  0
 17 33  1  0
 18 34  1  0
M  END
>  <ref_pdb>  (8) 
6_x1344_0B_66f7571a37.min.pdb

>  <ref_mols>  (8) 
x1344_0B

>  <fragmensteinOld_score>  (8) 
0.023623434112600705

>  <LE_score>  (8) 
-0.086007715168376617

>  <comRMSD_score>  (8) 
1.1020573808534577

>  <fragmensteinNew_score>  (8) 
2.0409024753181781

>  <atomic_mapping>  (8) 
"{\"0\": [[\"x1344_0B\", 16]], \"1\": [[\"x1344_0B\", 15]], \"2\": [[\"x1344_0B\", 10]], \"3\": [[\"x1344_0B\", 14]], \"4\": [[\"x1344_0B\", 9]], \"5\": [[\"x1344_0B\", 13]], \"6\": [[\"x1344_0B\", 8]], \"7\": [[\"x1344_0B\", 0]], \"12\": [[\"x1344_0B\", 7]], \"13\": [[\"x1344_0B\", 6]], \"14\": [[\"x1344_0B\", 5]], \"15\": [[\"x1344_0B\", 2]], \"16\": [[\"x1344_0B\", 1]], \"17\": [[\"x1344_0B\", 4]], \"18\": [[\"x1344_0B\", 3]], \"20\": [[\"x1344_0B\", 12]], \"33\": [[\"x1344_0B\", 11]]}"

>  <meanSuCosW_score>  (8) 
0.4700665577671902

>  <maxSuCosW_score>  (8) 
0.4700665577671902

>  <minSuCosW_score>  (8) 
0.4700665577671902

>  <sumSuCosW_score>  (8) 
0.4700665577671902

>  <SA_score>  (8) 
7.1376411829207544

>  <aLogP_score>  (8) 
3.7795800000000019

>  <hbondD_score>  (8) 
0

>  <hbondA_score>  (8) 
3

>  <polarSurfaceArea_score>  (8) 
39.920000000000002

>  <rotableBonds_score>  (8) 
4

>  <SC_score>  (8) 
3.5945270975959276

>  <energyPoseVsEnsemble_score>  (8) 
5.0651818961994577

>  <xcos_score>  (8) 
0

>  <plipMedianPreser_score>  (8) 
0.66666666666666663

>  <plipGlobalPreser_score>  (8) 
0.66666666666666663

>  <plipGlobalPreserOverMw_score>  (8) 
0.2338297214474849

>  <plipTotalNumInteractions_score>  (8) 
7

>  <original_name>  (8) 
x1344-0B-66f7571a37-N-Cc1cncc-N-CC2CC2-c2ccc-F-cc2F-c1

>  <original SMILES>  (8) 
[H]c1nc([H])c(N(c2c([H])c([H])c(F)c([H])c2F)C([H])([H])C2([H])C([H])([H])C2([H])[H])c([H])c1C#N

$$$$
7_x1344_0B_6dd7d0672c
     RDKit          3D

 29 30  0  0  0  0  0  0  0  0999 V2000
    9.7680   37.6870   19.0890 C   0  0  0  0  0  0  0  0  0  0  0  0
    8.7040   38.7010   19.2970 C   0  0  0  0  0  0  0  0  0  0  0  0
    7.5950   38.5260   18.8130 O   0  0  0  0  0  0  0  0  0  0  0  0
    9.0140   39.8080   20.0440 N   0  0  0  0  0  0  0  0  0  0  0  0
    7.9200   40.4180   20.7980 C   0  0  0  0  0  0  0  0  0  0  0  0
   10.1530   40.5890   19.6080 C   0  0  0  0  0  0  0  0  0  0  0  0
    7.2710   39.4570   21.5830 C   0  0  1  0  0  0  0  0  0  0  0  0
   10.6330   41.6800   20.3430 C   0  0  0  0  0  0  0  0  0  0  0  0
   10.8200   40.2600   18.4110 C   0  0  0  0  0  0  0  0  0  0  0  0
    6.0040   39.5960   21.9520 C   0  0  0  0  0  0  0  0  0  0  0  0
    6.0110   38.5310   21.0350 C   0  0  0  0  0  0  0  0  0  0  0  0
   11.8330   42.5220   19.8900 C   0  0  0  0  0  0  0  0  0  0  0  0
   11.9300   40.9720   17.9300 C   0  0  0  0  0  0  0  0  0  0  0  0
   10.0640   42.0470   21.4950 F   0  0  0  0  0  0  0  0  0  0  0  0
   12.4770   42.0740   18.5800 C   0  0  0  0  0  0  0  0  0  0  0  0
   13.5370   42.7220   18.0750 F   0  0  0  0  0  0  0  0  0  0  0  0
   10.2870   37.8320   18.1370 H   0  0  0  0  0  0  0  0  0  0  0  0
    9.3200   36.6910   19.0730 H   0  0  0  0  0  0  0  0  0  0  0  0
   10.4980   37.7370   19.9010 H   0  0  0  0  0  0  0  0  0  0  0  0
    7.3050   41.0050   20.1190 H   0  0  0  0  0  0  0  0  0  0  0  0
    8.3560   41.1600   21.4630 H   0  0  0  0  0  0  0  0  0  0  0  0
    7.9360   39.0140   22.3100 H   0  0  0  0  0  0  0  0  0  0  0  0
   10.4870   39.4220   17.8080 H   0  0  0  0  0  0  0  0  0  0  0  0
    5.7710   39.3370   22.9840 H   0  0  0  0  0  0  0  0  0  0  0  0
    5.5020   40.5040   21.6550 H   0  0  0  0  0  0  0  0  0  0  0  0
    5.6080   38.6900   20.0440 H   0  0  0  0  0  0  0  0  0  0  0  0
    5.9080   37.5210   21.4150 H   0  0  0  0  0  0  0  0  0  0  0  0
   12.1990   43.3640   20.4560 H   0  0  0  0  0  0  0  0  0  0  0  0
   12.3910   40.6530   16.9980 H   0  0  0  0  0  0  0  0  0  0  0  0
  1  2  1  0
  2  3  2  0
  2  4  1  0
  4  5  1  0
  4  6  1  0
  5  7  1  0
  6  8  2  0
  6  9  1  0
  7 10  1  0
  7 11  1  0
 10 11  1  0
  8 12  1  0
  9 13  2  0
  8 14  1  0
 12 15  2  0
 13 15  1  0
 15 16  1  0
  1 17  1  0
  1 18  1  0
  1 19  1  0
  5 20  1  0
  5 21  1  0
  7 22  1  1
  9 23  1  0
 10 24  1  0
 10 25  1  0
 11 26  1  0
 11 27  1  0
 12 28  1  0
 13 29  1  0
M  END
>  <ref_pdb>  (9) 
7_x1344_0B_6dd7d0672c.min.pdb

>  <ref_mols>  (9) 
x1344_0B

>  <fragmensteinOld_score>  (9) 
-0.90974619577322102

>  <LE_score>  (9) 
-0.43211235584926766

>  <comRMSD_score>  (9) 
0.57301334294443562

>  <fragmensteinNew_score>  (9) 
2.5074608749131335

>  <atomic_mapping>  (9) 
"{\"3\": [[\"x1344_0B\", 0]], \"4\": [[\"x1344_0B\", 8]], \"5\": [[\"x1344_0B\", 12]], \"6\": [[\"x1344_0B\", 10]], \"7\": [[\"x1344_0B\", 11]], \"8\": [[\"x1344_0B\", 7]], \"9\": [[\"x1344_0B\", 6]], \"10\": [[\"x1344_0B\", 5]], \"11\": [[\"x1344_0B\", 2]], \"12\": [[\"x1344_0B\", 4]], \"13\": [[\"x1344_0B\", 3]], \"14\": [[\"x1344_0B\", 1]], \"19\": [[\"x1344_0B\", 13]], \"25\": [[\"x1344_0B\", 16]], \"22\": [[\"x1344_0B\", 15]], \"23\": [[\"x1344_0B\", 14]], \"20\": [[\"x1344_0B\", 9]]}"

>  <meanSuCosW_score>  (9) 
0.4602604525698063

>  <maxSuCosW_score>  (9) 
0.4602604525698063

>  <minSuCosW_score>  (9) 
0.4602604525698063

>  <sumSuCosW_score>  (9) 
0.4602604525698063

>  <SA_score>  (9) 
7.2833163500926537

>  <aLogP_score>  (9) 
2.7277000000000013

>  <hbondD_score>  (9) 
0

>  <hbondA_score>  (9) 
1

>  <polarSurfaceArea_score>  (9) 
20.310000000000002

>  <rotableBonds_score>  (9) 
3

>  <SC_score>  (9) 
2.6454898324540479

>  <energyPoseVsEnsemble_score>  (9) 
0.39106462700765693

>  <xcos_score>  (9) 
5.1429009193054132

>  <plipMedianPreser_score>  (9) 
0

>  <plipGlobalPreser_score>  (9) 
0

>  <plipGlobalPreserOverMw_score>  (9) 
0

>  <plipTotalNumInteractions_score>  (9) 
4

>  <original_name>  (9) 
x1344-0B-6dd7d0672c-CC-O-N-CC1CC1-C2-C-C-C-C-C2-F-F

>  <original SMILES>  (9) 
[H]c1c([H])c(N(C(=O)C([H])([H])[H])C([H])([H])C2([H])C([H])([H])C2([H])[H])c(F)c([H])c1F

$$$$
8_x1344_0B_906a8b8bb7
     RDKit          3D

 35 37  0  0  0  0  0  0  0  0999 V2000
   10.0420   40.5150   19.0200 C   0  0  0  0  0  0  0  0  0  0  0  0
   10.3960   41.8290   19.3220 C   0  0  0  0  0  0  0  0  0  0  0  0
   11.6930   42.3180   19.0390 C   0  0  0  0  0  0  0  0  0  0  0  0
   10.9880   39.6860   18.4350 C   0  0  0  0  0  0  0  0  0  0  0  0
   12.2720   40.1450   18.1540 C   0  0  0  0  0  0  0  0  0  0  0  0
   10.6560   38.4240   18.1390 F   0  0  0  0  0  0  0  0  0  0  0  0
   12.6230   41.4620   18.4570 C   0  0  0  0  0  0  0  0  0  0  0  0
   12.0230   43.6310   19.3460 N   0  0  0  0  0  0  0  0  0  0  0  0
   13.9530   41.9200   18.1640 C   0  0  0  0  0  0  0  0  0  0  0  0
   12.5190   44.3840   18.1750 C   0  0  0  0  0  0  0  0  0  0  0  0
   12.9000   43.6240   20.5200 C   0  0  0  0  0  0  0  0  0  0  0  0
   15.0370   42.2740   17.9270 N   0  0  0  0  0  0  0  0  0  0  0  0
   11.3350   44.8980   17.3970 C   0  0  1  0  0  0  0  0  0  0  0  0
   12.0130   43.3800   21.6880 C   0  0  1  0  0  0  0  0  0  0  0  0
   11.3480   44.9350   15.8900 C   0  0  0  0  0  0  0  0  0  0  0  0
   10.4790   43.9370   16.6040 C   0  0  0  0  0  0  0  0  0  0  0  0
   10.5710   43.6000   21.3640 C   0  0  0  0  0  0  0  0  0  0  0  0
   11.0220   42.2490   21.8410 C   0  0  0  0  0  0  0  0  0  0  0  0
    9.0460   40.1420   19.2370 H   0  0  0  0  0  0  0  0  0  0  0  0
    9.6630   42.4760   19.7810 H   0  0  0  0  0  0  0  0  0  0  0  0
   12.9850   39.4610   17.6970 H   0  0  0  0  0  0  0  0  0  0  0  0
   13.1550   45.2260   18.4760 H   0  0  0  0  0  0  0  0  0  0  0  0
   13.1220   43.7490   17.5150 H   0  0  0  0  0  0  0  0  0  0  0  0
   13.6110   42.7930   20.4530 H   0  0  0  0  0  0  0  0  0  0  0  0
   13.4850   44.5410   20.6290 H   0  0  0  0  0  0  0  0  0  0  0  0
   10.8390   45.7180   17.8980 H   0  0  0  0  0  0  0  0  0  0  0  0
   12.4020   43.8250   22.5920 H   0  0  0  0  0  0  0  0  0  0  0  0
   10.8560   45.7550   15.3830 H   0  0  0  0  0  0  0  0  0  0  0  0
   12.2320   44.5670   15.3820 H   0  0  0  0  0  0  0  0  0  0  0  0
    9.4070   44.0950   16.5930 H   0  0  0  0  0  0  0  0  0  0  0  0
   10.7730   42.8970   16.5910 H   0  0  0  0  0  0  0  0  0  0  0  0
   10.0330   44.2580   22.0070 H   0  0  0  0  0  0  0  0  0  0  0  0
   10.3100   43.7170   20.3250 H   0  0  0  0  0  0  0  0  0  0  0  0
   11.0810   41.4340   21.1330 H   0  0  0  0  0  0  0  0  0  0  0  0
   10.7290   41.9430   22.8400 H   0  0  0  0  0  0  0  0  0  0  0  0
  1  2  2  0
  2  3  1  0
  1  4  1  0
  4  5  2  0
  4  6  1  0
  3  7  2  0
  5  7  1  0
  3  8  1  0
  7  9  1  0
  8 10  1  0
  8 11  1  0
  9 12  3  0
 10 13  1  0
 11 14  1  0
 13 15  1  0
 13 16  1  0
 15 16  1  0
 14 17  1  0
 14 18  1  0
 17 18  1  0
  1 19  1  0
  2 20  1  0
  5 21  1  0
 10 22  1  0
 10 23  1  0
 11 24  1  0
 11 25  1  0
 13 26  1  1
 14 27  1  1
 15 28  1  0
 15 29  1  0
 16 30  1  0
 16 31  1  0
 17 32  1  0
 17 33  1  0
 18 34  1  0
 18 35  1  0
M  END
>  <ref_pdb>  (10) 
8_x1344_0B_906a8b8bb7.min.pdb

>  <ref_mols>  (10) 
x1344_0B

>  <fragmensteinOld_score>  (10) 
1.5485632485060663

>  <LE_score>  (10) 
-0.17563772279119028

>  <comRMSD_score>  (10) 
0.68085905055435125

>  <fragmensteinNew_score>  (10) 
8.4231223927690237

>  <atomic_mapping>  (10) 
"{\"0\": [[\"x1344_0B\", 7]], \"1\": [[\"x1344_0B\", 6]], \"2\": [[\"x1344_0B\", 5]], \"3\": [[\"x1344_0B\", 2]], \"4\": [[\"x1344_0B\", 4]], \"5\": [[\"x1344_0B\", 3]], \"7\": [[\"x1344_0B\", 1]], \"18\": [[\"x1344_0B\", 0]]}"

>  <meanSuCosW_score>  (10) 
0.30053469515629172

>  <maxSuCosW_score>  (10) 
0.30053469515629172

>  <minSuCosW_score>  (10) 
0.30053469515629172

>  <sumSuCosW_score>  (10) 
0.30053469515629172

>  <SA_score>  (10) 
7.7561728374987258

>  <aLogP_score>  (10) 
3.323780000000002

>  <hbondD_score>  (10) 
0

>  <hbondA_score>  (10) 
2

>  <polarSurfaceArea_score>  (10) 
27.030000000000001

>  <rotableBonds_score>  (10) 
5

>  <SC_score>  (10) 
2.9869235979863449

>  <energyPoseVsEnsemble_score>  (10) 
0.43516393350067728

>  <xcos_score>  (10) 
2.5411522633744856

>  <plipMedianPreser_score>  (10) 
0

>  <plipGlobalPreser_score>  (10) 
0

>  <plipGlobalPreserOverMw_score>  (10) 
0

>  <plipTotalNumInteractions_score>  (10) 
6

>  <original_name>  (10) 
x1344-0B-906a8b8bb7-c1cc-c-cc1F-C-N-N-CC2CC2-CC3CC3

>  <original SMILES>  (10) 
[H]c1c([H])c(N(C([H])([H])C2([H])C([H])([H])C2([H])[H])C([H])([H])C2([H])C([H])([H])C2([H])[H])c(C#N)c([H])c1F

$$$$
9_x1344_0B_9ac813a8e8
     RDKit          3D

 28 29  0  0  0  0  0  0  0  0999 V2000
   13.4100   43.7960   20.0540 C   0  0  0  0  0  0  0  0  0  0  0  0
   12.2380   43.6940   19.2340 N   0  0  0  0  0  0  0  0  0  0  0  0
   12.2690   44.0870   17.9230 C   0  0  0  0  0  0  0  0  0  0  0  0
   11.8130   42.3620   19.2280 C   0  0  0  0  0  0  0  0  0  0  0  0
   11.7340   45.3620   17.7610 C   0  0  2  0  0  0  0  0  0  0  0  0
   10.6740   41.8480   19.8800 C   0  0  0  0  0  0  0  0  0  0  0  0
   12.6320   41.5110   18.4820 C   0  0  0  0  0  0  0  0  0  0  0  0
   11.5550   45.8040   16.5300 C   0  0  0  0  0  0  0  0  0  0  0  0
   12.5990   46.5820   17.0310 C   0  0  0  0  0  0  0  0  0  0  0  0
   10.3430   40.5010   19.7740 C   0  0  0  0  0  0  0  0  0  0  0  0
   12.3520   40.1510   18.3380 C   0  0  0  0  0  0  0  0  0  0  0  0
   13.7990   42.0440   17.8390 C   0  0  0  0  0  0  0  0  0  0  0  0
   11.2330   39.6180   18.9540 C   0  0  0  0  0  0  0  0  0  0  0  0
   14.7790   42.4200   17.3370 N   0  0  0  0  0  0  0  0  0  0  0  0
   10.9490   38.3150   18.8200 F   0  0  0  0  0  0  0  0  0  0  0  0
   13.7740   42.7940   20.2460 H   0  0  0  0  0  0  0  0  0  0  0  0
   14.1590   44.3690   19.5060 H   0  0  0  0  0  0  0  0  0  0  0  0
   13.1740   44.2990   20.9930 H   0  0  0  0  0  0  0  0  0  0  0  0
   13.1930   44.0300   17.3600 H   0  0  0  0  0  0  0  0  0  0  0  0
   11.5850   43.4230   17.3800 H   0  0  0  0  0  0  0  0  0  0  0  0
   10.9540   45.5920   18.4720 H   0  0  0  0  0  0  0  0  0  0  0  0
   10.0460   42.4840   20.4640 H   0  0  0  0  0  0  0  0  0  0  0  0
   11.8010   45.1330   15.7180 H   0  0  0  0  0  0  0  0  0  0  0  0
   10.6130   46.3120   16.3580 H   0  0  0  0  0  0  0  0  0  0  0  0
   13.6100   46.3710   16.7090 H   0  0  0  0  0  0  0  0  0  0  0  0
   12.4040   47.6130   17.2990 H   0  0  0  0  0  0  0  0  0  0  0  0
    9.4680   40.0930   20.2650 H   0  0  0  0  0  0  0  0  0  0  0  0
   12.9950   39.5020   17.7500 H   0  0  0  0  0  0  0  0  0  0  0  0
  1  2  1  0
  2  3  1  0
  2  4  1  0
  3  5  1  0
  4  6  2  0
  4  7  1  0
  5  8  1  0
  5  9  1  0
  8  9  1  0
  6 10  1  0
  7 11  2  0
  7 12  1  0
 10 13  2  0
 11 13  1  0
 12 14  3  0
 13 15  1  0
  1 16  1  0
  1 17  1  0
  1 18  1  0
  3 19  1  0
  3 20  1  0
  5 21  1  1
  6 22  1  0
  8 23  1  0
  8 24  1  0
  9 25  1  0
  9 26  1  0
 10 27  1  0
 11 28  1  0
M  END
>  <ref_pdb>  (11) 
9_x1344_0B_9ac813a8e8.min.pdb

>  <ref_mols>  (11) 
x1344_0B

>  <fragmensteinOld_score>  (11) 
0.67708880877065969

>  <LE_score>  (11) 
-0.30986940240626981

>  <comRMSD_score>  (11) 
0.70669701598946899

>  <fragmensteinNew_score>  (11) 
6.4655666440241788

>  <atomic_mapping>  (11) 
"{\"6\": [[\"x1344_0B\", 5]], \"7\": [[\"x1344_0B\", 6]], \"8\": [[\"x1344_0B\", 7]], \"9\": [[\"x1344_0B\", 3]], \"10\": [[\"x1344_0B\", 4]], \"11\": [[\"x1344_0B\", 2]], \"12\": [[\"x1344_0B\", 1]], \"26\": [[\"x1344_0B\", 0]]}"

>  <meanSuCosW_score>  (11) 
0.31570501401181006

>  <maxSuCosW_score>  (11) 
0.31570501401181006

>  <minSuCosW_score>  (11) 
0.31570501401181006

>  <sumSuCosW_score>  (11) 
0.31570501401181006

>  <SA_score>  (11) 
7.3778813003187711

>  <aLogP_score>  (11) 
2.5435800000000004

>  <hbondD_score>  (11) 
0

>  <hbondA_score>  (11) 
2

>  <polarSurfaceArea_score>  (11) 
27.030000000000001

>  <rotableBonds_score>  (11) 
3

>  <SC_score>  (11) 
3.0177702441205851

>  <energyPoseVsEnsemble_score>  (11) 
0.4097828561198878

>  <xcos_score>  (11) 
2.5338983050847457

>  <plipMedianPreser_score>  (11) 
0

>  <plipGlobalPreser_score>  (11) 
0

>  <plipGlobalPreserOverMw_score>  (11) 
0

>  <plipTotalNumInteractions_score>  (11) 
4

>  <original_name>  (11) 
x1344-0B-9ac813a8e8-CN-CC1CC1-c2ccc-cc2C-N-F

>  <original SMILES>  (11) 
[H]c1c([H])c(N(C([H])([H])[H])C([H])([H])C2([H])C([H])([H])C2([H])[H])c(C#N)c([H])c1F

$$$$
10_x1344_0B_aac9e31543
     RDKit          3D

 28 29  0  0  0  0  0  0  0  0999 V2000
   11.6530   42.4010   19.7360 C   0  0  0  0  0  0  0  0  0  0  0  0
   10.4970   41.6330   19.8210 C   0  0  0  0  0  0  0  0  0  0  0  0
   10.3390   40.5170   18.9880 C   0  0  0  0  0  0  0  0  0  0  0  0
   12.6350   42.0420   18.8280 C   0  0  0  0  0  0  0  0  0  0  0  0
   12.4850   40.9300   18.0020 C   0  0  0  0  0  0  0  0  0  0  0  0
   13.7480   42.7830   18.7480 F   0  0  0  0  0  0  0  0  0  0  0  0
   11.3250   40.1690   18.0890 C   0  0  0  0  0  0  0  0  0  0  0  0
    8.8650   39.5620   19.1020 S   0  0  1  0  0  0  0  0  0  0  0  0
   11.1840   39.1030   17.2910 F   0  0  0  0  0  0  0  0  0  0  0  0
    7.9410   40.2140   18.2300 O   0  0  0  0  0  0  0  0  0  0  0  0
    9.2430   38.1690   18.9240 O   0  0  0  0  0  0  0  0  0  0  0  0
    8.5170   39.9240   20.7960 C   0  0  0  0  0  0  0  0  0  0  0  0
    7.1370   39.7900   21.3140 C   0  0  0  0  0  0  0  0  0  0  0  0
    6.4660   38.6690   21.5620 C   0  0  0  0  0  0  0  0  0  0  0  0
    6.4640   40.9110   21.6090 C   0  0  0  0  0  0  0  0  0  0  0  0
    5.2460   38.7960   22.0990 C   0  0  0  0  0  0  0  0  0  0  0  0
    5.2850   41.0980   22.1130 N   0  0  0  0  0  0  0  0  0  0  0  0
    4.6850   39.9990   22.3690 C   0  0  0  0  0  0  0  0  0  0  0  0
    4.6060   37.6670   22.3670 C   0  0  0  0  0  0  0  0  0  0  0  0
    4.1380   36.7490   22.6710 N   0  0  0  0  0  0  0  0  0  0  0  0
   11.7930   43.2680   20.3670 H   0  0  0  0  0  0  0  0  0  0  0  0
    9.7310   41.9100   20.5330 H   0  0  0  0  0  0  0  0  0  0  0  0
   13.2660   40.6640   17.2980 H   0  0  0  0  0  0  0  0  0  0  0  0
    8.7750   40.9750   20.9240 H   0  0  0  0  0  0  0  0  0  0  0  0
    9.1840   39.3290   21.4230 H   0  0  0  0  0  0  0  0  0  0  0  0
    6.8340   37.7060   21.3730 H   0  0  0  0  0  0  0  0  0  0  0  0
    6.8850   41.7910   21.4510 H   0  0  0  0  0  0  0  0  0  0  0  0
    3.7030   40.1040   22.8090 H   0  0  0  0  0  0  0  0  0  0  0  0
  1  2  2  0
  2  3  1  0
  1  4  1  0
  4  5  2  0
  4  6  1  0
  3  7  2  0
  5  7  1  0
  3  8  1  0
  7  9  1  0
  8 10  2  0
  8 11  2  0
  8 12  1  1
 12 13  1  0
 13 14  2  0
 13 15  1  0
 14 16  1  0
 15 17  2  0
 16 18  2  0
 17 18  1  0
 16 19  1  0
 19 20  3  0
  1 21  1  0
  2 22  1  0
  5 23  1  0
 12 24  1  0
 12 25  1  0
 14 26  1  0
 15 27  1  0
 18 28  1  0
M  END
>  <ref_pdb>  (12) 
10_x1344_0B_aac9e31543.min.pdb

>  <ref_mols>  (12) 
x1344_0B

>  <fragmensteinOld_score>  (12) 
0.18238465297942241

>  <LE_score>  (12) 
-0.10048970040524367

>  <comRMSD_score>  (12) 
1.3245393347624945

>  <fragmensteinNew_score>  (12) 
2.4713843978993846

>  <atomic_mapping>  (12) 
"{\"0\": [[\"x1344_0B\", 5]], \"1\": [[\"x1344_0B\", 6]], \"2\": [[\"x1344_0B\", 7]], \"3\": [[\"x1344_0B\", 3]], \"4\": [[\"x1344_0B\", 4]], \"5\": [[\"x1344_0B\", 2]], \"6\": [[\"x1344_0B\", 1]], \"8\": [[\"x1344_0B\", 0]], \"11\": [[\"x1344_0B\", 8]], \"12\": [[\"x1344_0B\", 12]], \"13\": [[\"x1344_0B\", 11]], \"14\": [[\"x1344_0B\", 16]], \"15\": [[\"x1344_0B\", 9]], \"16\": [[\"x1344_0B\", 14]], \"17\": [[\"x1344_0B\", 10]], \"23\": [[\"x1344_0B\", 13]], \"27\": [[\"x1344_0B\", 15]]}"

>  <meanSuCosW_score>  (12) 
0.57436237429344361

>  <maxSuCosW_score>  (12) 
0.57436237429344361

>  <minSuCosW_score>  (12) 
0.57436237429344361

>  <sumSuCosW_score>  (12) 
0.57436237429344361

>  <SA_score>  (12) 
6.2006359303614715

>  <aLogP_score>  (12) 
2.2053800000000008

>  <hbondD_score>  (12) 
0

>  <hbondA_score>  (12) 
4

>  <polarSurfaceArea_score>  (12) 
70.819999999999993

>  <rotableBonds_score>  (12) 
3

>  <SC_score>  (12) 
3.258753029692528

>  <energyPoseVsEnsemble_score>  (12) 
8.0351723335813414

>  <xcos_score>  (12) 
5.9772068511198944

>  <plipMedianPreser_score>  (12) 
0

>  <plipGlobalPreser_score>  (12) 
0.5

>  <plipGlobalPreserOverMw_score>  (12) 
0.17005214703804886

>  <plipTotalNumInteractions_score>  (12) 
5

>  <original_name>  (12) 
x1344-0B-aac9e31543-c1cc-c-cc1F-F-S-O-O-Cc2cc-cnc2-C-N

>  <original SMILES>  (12) 
[H]c1nc([H])c(C([H])([H])S(=O)(=O)c2c([H])c([H])c(F)c([H])c2F)c([H])c1C#N

$$$$
11_x1344_0B_b258cc6750
     RDKit          3D

 38 39  0  0  0  0  0  0  0  0999 V2000
   14.2660   45.0470   19.0090 C   0  0  0  0  0  0  0  0  0  0  0  0
   14.1210   43.6110   18.7710 N   0  0  0  0  0  0  0  0  0  0  0  0
   12.8290   43.1830   18.2180 C   0  0  0  0  0  0  0  0  0  0  0  0
   14.8660   42.7210   19.5280 C   0  0  0  0  0  0  0  0  0  0  0  0
   12.3590   41.9660   18.7550 C   0  0  2  0  0  0  0  0  0  0  0  0
   14.2740   42.1930   20.8300 C   0  0  0  0  0  0  0  0  0  0  0  0
   16.2700   42.2260   19.1220 C   0  0  0  0  0  0  0  0  0  0  0  0
   11.7160   41.0670   17.8900 C   0  0  0  0  0  0  0  0  0  0  0  0
   11.4560   42.3150   19.9540 C   0  0  0  0  0  0  0  0  0  0  0  0
   15.0500   41.2030   21.6840 C   0  0  0  0  0  0  0  0  0  0  0  0
   17.0480   41.2300   19.9870 C   0  0  0  0  0  0  0  0  0  0  0  0
   16.8730   42.6420   17.9930 F   0  0  0  0  0  0  0  0  0  0  0  0
   10.9390   39.9900   18.3630 C   0  0  0  0  0  0  0  0  0  0  0  0
   10.2270   41.4150   20.1510 C   0  0  0  0  0  0  0  0  0  0  0  0
   16.4180   40.7220   21.2680 C   0  0  0  0  0  0  0  0  0  0  0  0
   10.3760   40.0860   19.7550 C   0  0  1  0  0  0  0  0  0  0  0  0
   17.0410   39.8560   22.0440 F   0  0  0  0  0  0  0  0  0  0  0  0
    9.0900   39.3750   19.8270 N   0  0  0  0  0  0  0  0  0  0  0  0
   15.2530   45.3940   18.6860 H   0  0  0  0  0  0  0  0  0  0  0  0
   13.5240   45.6150   18.4320 H   0  0  0  0  0  0  0  0  0  0  0  0
   14.1390   45.2830   20.0700 H   0  0  0  0  0  0  0  0  0  0  0  0
   12.0730   43.9630   18.3920 H   0  0  0  0  0  0  0  0  0  0  0  0
   12.8900   43.1160   17.1260 H   0  0  0  0  0  0  0  0  0  0  0  0
   13.2160   41.4160   19.1610 H   0  0  0  0  0  0  0  0  0  0  0  0
   13.2970   42.4990   21.1840 H   0  0  0  0  0  0  0  0  0  0  0  0
   11.0580   41.6500   17.2290 H   0  0  0  0  0  0  0  0  0  0  0  0
   12.4790   40.6380   17.2280 H   0  0  0  0  0  0  0  0  0  0  0  0
   11.1100   43.3520   19.8450 H   0  0  0  0  0  0  0  0  0  0  0  0
   12.0450   42.2910   20.8770 H   0  0  0  0  0  0  0  0  0  0  0  0
   14.6180   40.8310   22.6050 H   0  0  0  0  0  0  0  0  0  0  0  0
   18.0320   40.8930   19.6850 H   0  0  0  0  0  0  0  0  0  0  0  0
   10.1040   39.8550   17.6580 H   0  0  0  0  0  0  0  0  0  0  0  0
   11.5430   39.0740   18.2820 H   0  0  0  0  0  0  0  0  0  0  0  0
    9.4050   41.8380   19.6000 H   0  0  0  0  0  0  0  0  0  0  0  0
    9.9360   41.4520   21.2120 H   0  0  0  0  0  0  0  0  0  0  0  0
   11.0540   39.5890   20.4460 H   0  0  0  0  0  0  0  0  0  0  0  0
    9.1250   38.5440   20.4480 H   0  0  0  0  0  0  0  0  0  0  0  0
    8.3770   39.9890   20.2130 H   0  0  0  0  0  0  0  0  0  0  0  0
  1  2  1  0
  2  3  1  0
  2  4  1  0
  3  5  1  0
  4  6  2  0
  4  7  1  0
  5  8  1  0
  5  9  1  0
  6 10  1  0
  7 11  2  0
  7 12  1  0
  8 13  1  0
  9 14  1  0
 10 15  2  0
 11 15  1  0
 13 16  1  0
 14 16  1  0
 15 17  1  0
 16 18  1  0
  1 19  1  0
  1 20  1  0
  1 21  1  0
  3 22  1  0
  3 23  1  0
  5 24  1  1
  6 25  1  0
  8 26  1  0
  8 27  1  0
  9 28  1  0
  9 29  1  0
 10 30  1  0
 11 31  1  0
 13 32  1  0
 13 33  1  0
 14 34  1  0
 14 35  1  0
 16 36  1  1
 18 37  1  0
 18 38  1  0
M  END
>  <ref_pdb>  (13) 
11_x1344_0B_b258cc6750.min.pdb

>  <ref_mols>  (13) 
x1344_0B

>  <fragmensteinOld_score>  (13) 
0.73143283368628942

>  <LE_score>  (13) 
-0.30822824672653598

>  <comRMSD_score>  (13) 
0.641054521901819

>  <fragmensteinNew_score>  (13) 
6.7470853895409331

>  <atomic_mapping>  (13) 
"{\"2\": [[\"x1344_0B\", 1]], \"3\": [[\"x1344_0B\", 2]], \"4\": [[\"x1344_0B\", 4]], \"5\": [[\"x1344_0B\", 3]], \"6\": [[\"x1344_0B\", 7]], \"7\": [[\"x1344_0B\", 6]], \"8\": [[\"x1344_0B\", 5]], \"9\": [[\"x1344_0B\", 0]], \"34\": [[\"x1344_0B\", 8]]}"

>  <meanSuCosW_score>  (13) 
0.30862184872409959

>  <maxSuCosW_score>  (13) 
0.30862184872409959

>  <minSuCosW_score>  (13) 
0.30862184872409959

>  <sumSuCosW_score>  (13) 
0.30862184872409959

>  <SA_score>  (13) 
6.1434037500767653

>  <aLogP_score>  (13) 
2.9185000000000008

>  <hbondD_score>  (13) 
1

>  <hbondA_score>  (13) 
2

>  <polarSurfaceArea_score>  (13) 
29.259999999999998

>  <rotableBonds_score>  (13) 
3

>  <SC_score>  (13) 
3.5273149658920846

>  <energyPoseVsEnsemble_score>  (13) 
14.17863756497588

>  <xcos_score>  (13) 
7.7422038034437088

>  <plipMedianPreser_score>  (13) 
0

>  <plipGlobalPreser_score>  (13) 
0

>  <plipGlobalPreserOverMw_score>  (13) 
0

>  <plipTotalNumInteractions_score>  (13) 
4

>  <original_name>  (13) 
x1344-0B-b258cc6750-CN-CC1CCC-CC1-N-c2ccc-cc2F-F

>  <original SMILES>  (13) 
[H]c1c([H])c(N(C([H])([H])[H])C([H])([H])[C@]2([H])C([H])([H])C([H])([H])[C@]([H])(N([H])[H])C([H])([H])C2([H])[H])c(F)c([H])c1F

$$$$
12_x1344_0B_b76ff7a705
     RDKit          3D

 40 41  0  0  0  0  0  0  0  0999 V2000
    4.1340   38.0720   21.5530 C   0  0  0  0  0  0  0  0  0  0  0  0
    5.4100   37.6890   21.4170 C   0  0  1  0  0  0  0  0  0  0  0  0
    5.8510   37.4760   20.0840 C   0  0  0  0  0  0  0  0  0  0  0  0
    6.1250   38.7930   22.0510 C   0  0  0  0  0  0  0  0  0  0  0  0
    6.9300   38.1840   19.5730 C   0  0  0  0  0  0  0  0  0  0  0  0
    6.1940   39.7660   20.9300 C   0  0  0  0  0  0  0  0  0  0  0  0
    7.2340   39.5450   20.1260 C   0  0  1  0  0  0  0  0  0  0  0  0
    8.6370   39.7360   20.6580 C   0  0  0  0  0  0  0  0  0  0  0  0
    9.5850   39.4280   19.5750 N   0  0  0  0  0  0  0  0  0  0  0  0
    9.8550   38.0100   19.2760 C   0  0  0  0  0  0  0  0  0  0  0  0
   10.5920   40.4120   19.3520 C   0  0  0  0  0  0  0  0  0  0  0  0
   11.4680   40.2450   18.3000 C   0  0  0  0  0  0  0  0  0  0  0  0
   10.7480   41.5540   20.1590 C   0  0  0  0  0  0  0  0  0  0  0  0
   12.4760   41.1610   18.0310 C   0  0  0  0  0  0  0  0  0  0  0  0
   11.7510   42.4810   19.8950 C   0  0  0  0  0  0  0  0  0  0  0  0
    9.9480   41.7850   21.2070 F   0  0  0  0  0  0  0  0  0  0  0  0
   12.6080   42.2770   18.8350 C   0  0  0  0  0  0  0  0  0  0  0  0
   13.6420   43.2340   18.5780 C   0  0  0  0  0  0  0  0  0  0  0  0
   14.4790   44.0140   18.3720 N   0  0  0  0  0  0  0  0  0  0  0  0
    3.9280   39.0030   22.0660 H   0  0  0  0  0  0  0  0  0  0  0  0
    3.7240   38.1630   20.5550 H   0  0  0  0  0  0  0  0  0  0  0  0
    3.5890   37.2880   22.0800 H   0  0  0  0  0  0  0  0  0  0  0  0
    5.5170   36.8300   22.0530 H   0  0  0  0  0  0  0  0  0  0  0  0
    4.9910   37.7060   19.4420 H   0  0  0  0  0  0  0  0  0  0  0  0
    6.0460   36.4240   19.8830 H   0  0  0  0  0  0  0  0  0  0  0  0
    5.4990   39.1500   22.8650 H   0  0  0  0  0  0  0  0  0  0  0  0
    7.1120   38.5100   22.4320 H   0  0  0  0  0  0  0  0  0  0  0  0
    7.8120   37.5480   19.6270 H   0  0  0  0  0  0  0  0  0  0  0  0
    6.7400   38.3100   18.5130 H   0  0  0  0  0  0  0  0  0  0  0  0
    6.0780   40.8150   21.1830 H   0  0  0  0  0  0  0  0  0  0  0  0
    5.3200   39.4870   20.3680 H   0  0  0  0  0  0  0  0  0  0  0  0
    7.1580   40.2650   19.3010 H   0  0  0  0  0  0  0  0  0  0  0  0
    8.7450   40.7660   20.9890 H   0  0  0  0  0  0  0  0  0  0  0  0
    8.7860   39.0800   21.5240 H   0  0  0  0  0  0  0  0  0  0  0  0
   10.3270   37.9030   18.2940 H   0  0  0  0  0  0  0  0  0  0  0  0
    8.9500   37.3970   19.2940 H   0  0  0  0  0  0  0  0  0  0  0  0
   10.5550   37.5920   20.0000 H   0  0  0  0  0  0  0  0  0  0  0  0
   11.3670   39.3680   17.6630 H   0  0  0  0  0  0  0  0  0  0  0  0
   13.1470   40.9920   17.1940 H   0  0  0  0  0  0  0  0  0  0  0  0
   11.8500   43.3460   20.5270 H   0  0  0  0  0  0  0  0  0  0  0  0
  1  2  1  0
  2  3  1  0
  2  4  1  0
  3  5  1  0
  4  6  1  0
  5  7  1  0
  6  7  1  0
  7  8  1  0
  8  9  1  0
  9 10  1  0
  9 11  1  0
 11 12  2  0
 11 13  1  0
 12 14  1  0
 13 15  2  0
 13 16  1  0
 14 17  2  0
 15 17  1  0
 17 18  1  0
 18 19  3  0
  1 20  1  0
  1 21  1  0
  1 22  1  0
  2 23  1  1
  3 24  1  0
  3 25  1  0
  4 26  1  0
  4 27  1  0
  5 28  1  0
  5 29  1  0
  6 30  1  0
  6 31  1  0
  7 32  1  6
  8 33  1  0
  8 34  1  0
 10 35  1  0
 10 36  1  0
 10 37  1  0
 12 38  1  0
 14 39  1  0
 15 40  1  0
M  END
>  <ref_pdb>  (14) 
12_x1344_0B_b76ff7a705.min.pdb

>  <ref_mols>  (14) 
x1344_0B

>  <fragmensteinOld_score>  (14) 
0.075447103938963478

>  <LE_score>  (14) 
-0.23400422439405758

>  <comRMSD_score>  (14) 
0.7646631566363824

>  <fragmensteinNew_score>  (14) 
3.494811960527501

>  <atomic_mapping>  (14) 
"{\"3\": [[\"x1344_0B\", 11]], \"4\": [[\"x1344_0B\", 12]], \"5\": [[\"x1344_0B\", 10]], \"7\": [[\"x1344_0B\", 8]], \"8\": [[\"x1344_0B\", 0]], \"10\": [[\"x1344_0B\", 7]], \"11\": [[\"x1344_0B\", 3]], \"12\": [[\"x1344_0B\", 4]], \"13\": [[\"x1344_0B\", 2]], \"14\": [[\"x1344_0B\", 5]], \"15\": [[\"x1344_0B\", 6]], \"17\": [[\"x1344_0B\", 1]], \"28\": [[\"x1344_0B\", 14]], \"25\": [[\"x1344_0B\", 16]], \"6\": [[\"x1344_0B\", 15]], \"32\": [[\"x1344_0B\", 13]], \"33\": [[\"x1344_0B\", 9]]}"

>  <meanSuCosW_score>  (14) 
0.5366368160272238

>  <maxSuCosW_score>  (14) 
0.5366368160272238

>  <minSuCosW_score>  (14) 
0.5366368160272238

>  <sumSuCosW_score>  (14) 
0.5366368160272238

>  <SA_score>  (14) 
6.0911662732030063

>  <aLogP_score>  (14) 
3.9598800000000036

>  <hbondD_score>  (14) 
0

>  <hbondA_score>  (14) 
2

>  <polarSurfaceArea_score>  (14) 
27.030000000000001

>  <rotableBonds_score>  (14) 
3

>  <SC_score>  (14) 
3.7296563856641689

>  <energyPoseVsEnsemble_score>  (14) 
40.680117943499937

>  <xcos_score>  (14) 
5.6846046511627906

>  <plipMedianPreser_score>  (14) 
0

>  <plipGlobalPreser_score>  (14) 
0

>  <plipGlobalPreserOverMw_score>  (14) 
0

>  <plipTotalNumInteractions_score>  (14) 
4

>  <original_name>  (14) 
x1344-0B-b76ff7a705-CC1CCC-CC1-CN-C-c2ccc-cc2F-C-N

>  <original SMILES>  (14) 
[H]c1c([H])c(N(C([H])([H])[H])C([H])([H])[C@]2([H])C([H])([H])C([H])([H])[C@@]([H])(C([H])([H])[H])C([H])([H])C2([H])[H])c(F)c([H])c1C#N

$$$$
13_x1344_0B_bfa46d01b1
     RDKit          3D

 46 48  0  0  0  0  0  0  0  0999 V2000
   14.0610   43.2980   19.9900 C   0  0  0  0  0  0  0  0  0  0  0  0
   13.0220   42.2260   19.9410 C   0  0  0  0  0  0  0  0  0  0  0  0
   13.0980   41.2060   18.9950 C   0  0  0  0  0  0  0  0  0  0  0  0
   11.9580   42.2280   20.8470 C   0  0  0  0  0  0  0  0  0  0  0  0
   12.1170   40.2180   18.9560 C   0  0  0  0  0  0  0  0  0  0  0  0
   10.9780   41.2490   20.8060 C   0  0  0  0  0  0  0  0  0  0  0  0
   11.0470   40.2340   19.8540 C   0  0  0  0  0  0  0  0  0  0  0  0
   10.0530   39.2540   19.7730 N   0  0  0  0  0  0  0  0  0  0  0  0
    9.9530   39.0290   18.3020 C   0  0  0  0  0  0  0  0  0  0  0  0
    8.8420   39.6220   20.3830 C   0  0  0  0  0  0  0  0  0  0  0  0
   10.0830   40.3510   17.4460 C   0  0  1  0  0  0  0  0  0  0  0  0
    8.5130   39.3380   21.6910 C   0  0  0  0  0  0  0  0  0  0  0  0
    7.9150   40.2970   19.7140 C   0  0  0  0  0  0  0  0  0  0  0  0
   10.7640   41.5020   18.1960 C   0  0  0  0  0  0  0  0  0  0  0  0
   10.8360   40.1600   16.1240 C   0  0  0  0  0  0  0  0  0  0  0  0
    7.3080   39.7040   22.2790 C   0  0  0  0  0  0  0  0  0  0  0  0
    6.7370   40.7300   20.2790 C   0  0  0  0  0  0  0  0  0  0  0  0
    8.1860   40.5360   18.4490 F   0  0  0  0  0  0  0  0  0  0  0  0
   11.3160   42.5530   17.2230 C   0  0  0  0  0  0  0  0  0  0  0  0
   12.3190   40.5860   16.1130 C   0  0  0  0  0  0  0  0  0  0  0  0
    6.4270   40.4200   21.5650 C   0  0  0  0  0  0  0  0  0  0  0  0
   12.5050   42.0560   16.4250 C   0  0  0  0  0  0  0  0  0  0  0  0
    5.2790   40.8070   22.1250 F   0  0  0  0  0  0  0  0  0  0  0  0
   13.7960   44.0680   20.7230 H   0  0  0  0  0  0  0  0  0  0  0  0
   14.1570   43.7990   19.0190 H   0  0  0  0  0  0  0  0  0  0  0  0
   15.0310   42.8680   20.2640 H   0  0  0  0  0  0  0  0  0  0  0  0
   13.9170   41.1720   18.2830 H   0  0  0  0  0  0  0  0  0  0  0  0
   11.8820   42.9910   21.5920 H   0  0  0  0  0  0  0  0  0  0  0  0
   12.1920   39.4340   18.2080 H   0  0  0  0  0  0  0  0  0  0  0  0
   10.1620   41.2920   21.5230 H   0  0  0  0  0  0  0  0  0  0  0  0
    9.0120   38.5130   18.0860 H   0  0  0  0  0  0  0  0  0  0  0  0
   10.7260   38.3280   17.9490 H   0  0  0  0  0  0  0  0  0  0  0  0
    9.0800   40.7030   17.1810 H   0  0  0  0  0  0  0  0  0  0  0  0
    9.2150   38.8100   22.2750 H   0  0  0  0  0  0  0  0  0  0  0  0
   11.5920   41.1250   18.7920 H   0  0  0  0  0  0  0  0  0  0  0  0
   10.0620   41.9650   18.8970 H   0  0  0  0  0  0  0  0  0  0  0  0
   10.7760   39.1120   15.8860 H   0  0  0  0  0  0  0  0  0  0  0  0
   10.3290   40.6860   15.3070 H   0  0  0  0  0  0  0  0  0  0  0  0
    7.0770   39.4340   23.2940 H   0  0  0  0  0  0  0  0  0  0  0  0
    6.0740   41.3000   19.6970 H   0  0  0  0  0  0  0  0  0  0  0  0
   11.6000   43.4630   17.7670 H   0  0  0  0  0  0  0  0  0  0  0  0
   10.5230   42.8380   16.5240 H   0  0  0  0  0  0  0  0  0  0  0  0
   12.8920   39.9670   16.8120 H   0  0  0  0  0  0  0  0  0  0  0  0
   12.7430   40.4000   15.1240 H   0  0  0  0  0  0  0  0  0  0  0  0
   12.6040   42.6380   15.5020 H   0  0  0  0  0  0  0  0  0  0  0  0
   13.4320   42.2040   16.9920 H   0  0  0  0  0  0  0  0  0  0  0  0
  1  2  1  0
  2  3  2  0
  2  4  1  0
  3  5  1  0
  4  6  2  0
  5  7  2  0
  6  7  1  0
  7  8  1  0
  8  9  1  0
  8 10  1  0
  9 11  1  0
 10 12  2  0
 10 13  1  0
 11 14  1  0
 11 15  1  0
 12 16  1  0
 13 17  2  0
 13 18  1  0
 14 19  1  0
 15 20  1  0
 16 21  2  0
 17 21  1  0
 19 22  1  0
 20 22  1  0
 21 23  1  0
  1 24  1  0
  1 25  1  0
  1 26  1  0
  3 27  1  0
  4 28  1  0
  5 29  1  0
  6 30  1  0
  9 31  1  0
  9 32  1  0
 11 33  1  6
 12 34  1  0
 14 35  1  0
 14 36  1  0
 15 37  1  0
 15 38  1  0
 16 39  1  0
 17 40  1  0
 19 41  1  0
 19 42  1  0
 20 43  1  0
 20 44  1  0
 22 45  1  0
 22 46  1  0
M  END
>  <ref_pdb>  (15) 
13_x1344_0B_bfa46d01b1.min.pdb

>  <ref_mols>  (15) 
x1344_0B

>  <fragmensteinOld_score>  (15) 
1.3127550047507741

>  <LE_score>  (15) 
-0.092548375808854763

>  <comRMSD_score>  (15) 
1.3384775334715058

>  <fragmensteinNew_score>  (15) 
4.6614476019550972

>  <atomic_mapping>  (15) 
"{\"0\": [[\"x1344_0B\", 1]], \"1\": [[\"x1344_0B\", 2]], \"2\": [[\"x1344_0B\", 4]], \"3\": [[\"x1344_0B\", 3]], \"4\": [[\"x1344_0B\", 7]], \"5\": [[\"x1344_0B\", 6]], \"6\": [[\"x1344_0B\", 5]], \"7\": [[\"x1344_0B\", 0]], \"15\": [[\"x1344_0B\", 8]], \"16\": [[\"x1344_0B\", 12]], \"17\": [[\"x1344_0B\", 10]], \"18\": [[\"x1344_0B\", 14]], \"19\": [[\"x1344_0B\", 9]], \"20\": [[\"x1344_0B\", 13]], \"44\": [[\"x1344_0B\", 15]], \"43\": [[\"x1344_0B\", 11]]}"

>  <meanSuCosW_score>  (15) 
0.42218361612389244

>  <maxSuCosW_score>  (15) 
0.42218361612389244

>  <minSuCosW_score>  (15) 
0.42218361612389244

>  <sumSuCosW_score>  (15) 
0.42218361612389244

>  <SA_score>  (15) 
6.123586925038607

>  <aLogP_score>  (15) 
5.9916200000000037

>  <hbondD_score>  (15) 
0

>  <hbondA_score>  (15) 
1

>  <polarSurfaceArea_score>  (15) 
3.2400000000000002

>  <rotableBonds_score>  (15) 
4

>  <SC_score>  (15) 
3.2830326878660685

>  <energyPoseVsEnsemble_score>  (15) 
1010.756705863892

>  <xcos_score>  (15) 
0

>  <plipMedianPreser_score>  (15) 
0

>  <plipGlobalPreser_score>  (15) 
0

>  <plipGlobalPreserOverMw_score>  (15) 
0

>  <plipTotalNumInteractions_score>  (15) 
11

>  <original_name>  (15) 
x1344-0B-bfa46d01b1-Cc1ccc-cc1-N-CC2CCCCC2-c3ccc-cc3F-F

>  <original SMILES>  (15) 
[H]c1c([H])c(N(c2c([H])c([H])c(C([H])([H])[H])c([H])c2[H])C([H])([H])C2([H])C([H])([H])C([H])([H])C([H])([H])C([H])([H])C2([H])[H])c(F)c([H])c1F

$$$$
14_x1344_0B_cb014a6c3d
     RDKit          3D

 35 36  0  0  0  0  0  0  0  0999 V2000
    9.6600   38.0600   19.2840 C   0  0  0  0  0  0  0  0  0  0  0  0
    9.1460   39.4140   19.5350 N   0  0  0  0  0  0  0  0  0  0  0  0
    8.2350   39.6290   20.6950 C   0  0  0  0  0  0  0  0  0  0  0  0
   10.1980   40.3670   19.3830 C   0  0  0  0  0  0  0  0  0  0  0  0
    6.9380   39.1640   20.4520 C   0  0  1  0  0  0  0  0  0  0  0  0
   11.1010   40.1710   18.2030 C   0  0  0  0  0  0  0  0  0  0  0  0
   10.4820   41.4710   20.2210 C   0  0  0  0  0  0  0  0  0  0  0  0
    6.7000   37.7850   19.9620 C   0  0  0  0  0  0  0  0  0  0  0  0
    5.9760   39.1890   21.6240 C   0  0  0  0  0  0  0  0  0  0  0  0
   12.1460   41.0550   17.9830 C   0  0  0  0  0  0  0  0  0  0  0  0
   11.5390   42.3430   19.9630 C   0  0  0  0  0  0  0  0  0  0  0  0
    9.7370   41.7060   21.3000 F   0  0  0  0  0  0  0  0  0  0  0  0
    5.4770   37.5580   19.1570 C   0  0  0  0  0  0  0  0  0  0  0  0
    4.7920   38.2680   21.3580 C   0  0  0  0  0  0  0  0  0  0  0  0
   12.3580   42.1340   18.8590 C   0  0  0  0  0  0  0  0  0  0  0  0
    4.4320   38.1570   19.9430 N   0  0  0  0  0  0  0  0  0  0  0  0
   13.3710   42.9800   18.6260 F   0  0  0  0  0  0  0  0  0  0  0  0
   10.1650   37.9980   18.3150 H   0  0  0  0  0  0  0  0  0  0  0  0
   10.3870   37.7870   20.0510 H   0  0  0  0  0  0  0  0  0  0  0  0
    8.8700   37.3080   19.2870 H   0  0  0  0  0  0  0  0  0  0  0  0
    8.6380   39.1850   21.6130 H   0  0  0  0  0  0  0  0  0  0  0  0
    8.1600   40.6970   20.8760 H   0  0  0  0  0  0  0  0  0  0  0  0
    6.4980   39.8580   19.7910 H   0  0  0  0  0  0  0  0  0  0  0  0
   10.9380   39.3370   17.5190 H   0  0  0  0  0  0  0  0  0  0  0  0
    6.5820   37.1600   20.8110 H   0  0  0  0  0  0  0  0  0  0  0  0
    7.5960   37.4980   19.4430 H   0  0  0  0  0  0  0  0  0  0  0  0
    6.4730   38.8700   22.5450 H   0  0  0  0  0  0  0  0  0  0  0  0
    5.5770   40.1940   21.7480 H   0  0  0  0  0  0  0  0  0  0  0  0
   12.8050   40.9210   17.1340 H   0  0  0  0  0  0  0  0  0  0  0  0
   11.7250   43.1780   20.6220 H   0  0  0  0  0  0  0  0  0  0  0  0
    5.2220   36.5110   19.0560 H   0  0  0  0  0  0  0  0  0  0  0  0
    5.4760   38.0110   18.1860 H   0  0  0  0  0  0  0  0  0  0  0  0
    5.0090   37.2750   21.7350 H   0  0  0  0  0  0  0  0  0  0  0  0
    3.9350   38.6360   21.9250 H   0  0  0  0  0  0  0  0  0  0  0  0
    3.5950   37.5930   19.8560 H   0  0  0  0  0  0  0  0  0  0  0  0
  1  2  1  0
  2  3  1  0
  2  4  1  0
  3  5  1  0
  4  6  2  0
  4  7  1  0
  5  8  1  0
  5  9  1  0
  6 10  1  0
  7 11  2  0
  7 12  1  0
  8 13  1  0
  9 14  1  0
 10 15  2  0
 11 15  1  0
 13 16  1  0
 14 16  1  0
 15 17  1  0
  1 18  1  0
  1 19  1  0
  1 20  1  0
  3 21  1  0
  3 22  1  0
  5 23  1  6
  6 24  1  0
  8 25  1  0
  8 26  1  0
  9 27  1  0
  9 28  1  0
 10 29  1  0
 11 30  1  0
 13 31  1  0
 13 32  1  0
 14 33  1  0
 14 34  1  0
 16 35  1  0
M  END
>  <ref_pdb>  (16) 
14_x1344_0B_cb014a6c3d.min.pdb

>  <ref_mols>  (16) 
x1344_0B

>  <fragmensteinOld_score>  (16) 
0.1464818267234631

>  <LE_score>  (16) 
-0.1508215670429176

>  <comRMSD_score>  (16) 
0.55927515466938316

>  <fragmensteinNew_score>  (16) 
3.1779419538360454

>  <atomic_mapping>  (16) 
"{\"1\": [[\"x1344_0B\", 0]], \"2\": [[\"x1344_0B\", 8]], \"3\": [[\"x1344_0B\", 12]], \"4\": [[\"x1344_0B\", 11]], \"8\": [[\"x1344_0B\", 10]], \"9\": [[\"x1344_0B\", 7]], \"10\": [[\"x1344_0B\", 3]], \"11\": [[\"x1344_0B\", 4]], \"12\": [[\"x1344_0B\", 2]], \"13\": [[\"x1344_0B\", 5]], \"14\": [[\"x1344_0B\", 6]], \"16\": [[\"x1344_0B\", 1]], \"30\": [[\"x1344_0B\", 15]], \"21\": [[\"x1344_0B\", 13]], \"5\": [[\"x1344_0B\", 16]], \"31\": [[\"x1344_0B\", 14]]}"

>  <meanSuCosW_score>  (16) 
0.48487138645954719

>  <maxSuCosW_score>  (16) 
0.48487138645954719

>  <minSuCosW_score>  (16) 
0.48487138645954719

>  <sumSuCosW_score>  (16) 
0.48487138645954719

>  <SA_score>  (16) 
4.7233186380317003

>  <aLogP_score>  (16) 
2.4005999999999998

>  <hbondD_score>  (16) 
1

>  <hbondA_score>  (16) 
2

>  <polarSurfaceArea_score>  (16) 
15.27

>  <rotableBonds_score>  (16) 
3

>  <SC_score>  (16) 
3.4066109763246692

>  <energyPoseVsEnsemble_score>  (16) 
15.267925056577829

>  <xcos_score>  (16) 
5.4395348837209312

>  <plipMedianPreser_score>  (16) 
0

>  <plipGlobalPreser_score>  (16) 
0

>  <plipGlobalPreserOverMw_score>  (16) 
0

>  <plipTotalNumInteractions_score>  (16) 
4

>  <original_name>  (16) 
x1344-0B-cb014a6c3d-CN-CC1CCNCC1-c2ccc-cc2F-F

>  <original SMILES>  (16) 
[H]c1c([H])c(N(C([H])([H])[H])C([H])([H])C2([H])C([H])([H])C([H])([H])N([H])C([H])([H])C2([H])[H])c(F)c([H])c1F

$$$$
15_x1344_0B_cbc50bc312
     RDKit          3D

 35 37  0  0  0  0  0  0  0  0999 V2000
   11.9180   41.4680   17.9690 C   0  0  0  0  0  0  0  0  0  0  0  0
   10.7630   40.7000   18.1280 C   0  0  0  0  0  0  0  0  0  0  0  0
   10.0280   40.7620   19.3300 C   0  0  0  0  0  0  0  0  0  0  0  0
   12.3420   42.3020   18.9930 C   0  0  0  0  0  0  0  0  0  0  0  0
   11.6260   42.3720   20.1730 C   0  0  0  0  0  0  0  0  0  0  0  0
   13.5260   43.0930   18.8340 C   0  0  0  0  0  0  0  0  0  0  0  0
   10.4820   41.6050   20.3390 C   0  0  0  0  0  0  0  0  0  0  0  0
   14.4810   43.7390   18.7110 N   0  0  0  0  0  0  0  0  0  0  0  0
    8.8940   39.9320   19.3790 N   0  0  0  0  0  0  0  0  0  0  0  0
    9.8540   41.7190   21.5160 F   0  0  0  0  0  0  0  0  0  0  0  0
    7.9400   39.9350   20.5020 C   0  0  0  0  0  0  0  0  0  0  0  0
    9.3210   38.6220   18.9410 C   0  0  0  0  0  0  0  0  0  0  0  0
    6.8990   38.9880   20.3720 C   0  0  1  0  0  0  0  0  0  0  0  0
   10.6930   38.7330   18.8390 C   0  0  1  0  0  0  0  0  0  0  0  0
    6.4370   38.4020   21.4500 C   0  0  0  0  0  0  0  0  0  0  0  0
    5.4770   39.1980   21.1880 C   0  0  0  0  0  0  0  0  0  0  0  0
   11.5930   37.7860   19.5550 C   0  0  0  0  0  0  0  0  0  0  0  0
   11.5430   37.7780   18.0610 C   0  0  0  0  0  0  0  0  0  0  0  0
   12.4900   41.4220   17.0460 H   0  0  0  0  0  0  0  0  0  0  0  0
   10.4440   40.0540   17.3120 H   0  0  0  0  0  0  0  0  0  0  0  0
   11.9630   43.0210   20.9640 H   0  0  0  0  0  0  0  0  0  0  0  0
    8.4610   39.8080   21.4580 H   0  0  0  0  0  0  0  0  0  0  0  0
    7.4720   40.9190   20.5450 H   0  0  0  0  0  0  0  0  0  0  0  0
    9.0650   37.8140   19.6320 H   0  0  0  0  0  0  0  0  0  0  0  0
    8.8600   38.3770   17.9880 H   0  0  0  0  0  0  0  0  0  0  0  0
    6.8350   38.4390   19.4330 H   0  0  0  0  0  0  0  0  0  0  0  0
   11.0040   39.7650   18.8660 H   0  0  0  0  0  0  0  0  0  0  0  0
    6.1700   37.3590   21.3740 H   0  0  0  0  0  0  0  0  0  0  0  0
    6.9760   38.6080   22.3690 H   0  0  0  0  0  0  0  0  0  0  0  0
    4.5660   38.7800   20.7720 H   0  0  0  0  0  0  0  0  0  0  0  0
    5.3420   40.0780   21.7900 H   0  0  0  0  0  0  0  0  0  0  0  0
   11.1460   36.9740   20.1040 H   0  0  0  0  0  0  0  0  0  0  0  0
   12.4630   38.1980   20.0110 H   0  0  0  0  0  0  0  0  0  0  0  0
   12.3910   38.1790   17.5150 H   0  0  0  0  0  0  0  0  0  0  0  0
   11.0740   36.9380   17.5860 H   0  0  0  0  0  0  0  0  0  0  0  0
  1  2  2  0
  2  3  1  0
  1  4  1  0
  4  5  2  0
  4  6  1  0
  3  7  2  0
  5  7  1  0
  6  8  3  0
  3  9  1  0
  7 10  1  0
  9 11  1  0
  9 12  1  0
 11 13  1  0
 12 14  1  0
 13 15  1  0
 13 16  1  0
 15 16  1  0
 14 17  1  0
 14 18  1  0
 17 18  1  0
  1 19  1  0
  2 20  1  0
  5 21  1  0
 11 22  1  0
 11 23  1  0
 12 24  1  0
 12 25  1  0
 13 26  1  6
 14 27  1  6
 15 28  1  0
 15 29  1  0
 16 30  1  0
 16 31  1  0
 17 32  1  0
 17 33  1  0
 18 34  1  0
 18 35  1  0
M  END
>  <ref_pdb>  (17) 
15_x1344_0B_cbc50bc312.min.pdb

>  <ref_mols>  (17) 
x1344_0B

>  <fragmensteinOld_score>  (17) 
-0.10149869350335794

>  <LE_score>  (17) 
-0.20687387499734505

>  <comRMSD_score>  (17) 
0.64324725648708425

>  <fragmensteinNew_score>  (17) 
2.8944951250102324

>  <atomic_mapping>  (17) 
"{\"0\": [[\"x1344_0B\", 4]], \"1\": [[\"x1344_0B\", 3]], \"2\": [[\"x1344_0B\", 7]], \"3\": [[\"x1344_0B\", 6]], \"4\": [[\"x1344_0B\", 5]], \"5\": [[\"x1344_0B\", 2]], \"6\": [[\"x1344_0B\", 1]], \"9\": [[\"x1344_0B\", 0]], \"10\": [[\"x1344_0B\", 8]], \"11\": [[\"x1344_0B\", 12]], \"12\": [[\"x1344_0B\", 11]], \"13\": [[\"x1344_0B\", 10]], \"22\": [[\"x1344_0B\", 13]], \"25\": [[\"x1344_0B\", 16]], \"27\": [[\"x1344_0B\", 15]], \"26\": [[\"x1344_0B\", 14]], \"21\": [[\"x1344_0B\", 9]]}"

>  <meanSuCosW_score>  (17) 
0.50020962501547683

>  <maxSuCosW_score>  (17) 
0.50020962501547683

>  <minSuCosW_score>  (17) 
0.50020962501547683

>  <sumSuCosW_score>  (17) 
0.50020962501547683

>  <SA_score>  (17) 
7.7561728374987258

>  <aLogP_score>  (17) 
3.323780000000002

>  <hbondD_score>  (17) 
0

>  <hbondA_score>  (17) 
2

>  <polarSurfaceArea_score>  (17) 
27.030000000000001

>  <rotableBonds_score>  (17) 
5

>  <SC_score>  (17) 
3.1036811263777309

>  <energyPoseVsEnsemble_score>  (17) 
23.637872081201298

>  <xcos_score>  (17) 
4.7912135711178774

>  <plipMedianPreser_score>  (17) 
0

>  <plipGlobalPreser_score>  (17) 
0

>  <plipGlobalPreserOverMw_score>  (17) 
0

>  <plipTotalNumInteractions_score>  (17) 
6

>  <original_name>  (17) 
x1344-0B-cbc50bc312-c1cc-c-cc1C-N-F-N-CC2CC2-CC3CC3

>  <original SMILES>  (17) 
[H]c1c([H])c(N(C([H])([H])C2([H])C([H])([H])C2([H])[H])C([H])([H])C2([H])C([H])([H])C2([H])[H])c(F)c([H])c1C#N

$$$$
16_x1344_0B_ee32b0ceba
     RDKit          3D

 34 36  0  0  0  0  0  0  0  0999 V2000
   11.9940   41.5590   17.7470 C   0  0  0  0  0  0  0  0  0  0  0  0
   10.8270   40.6670   17.9570 C   0  0  0  0  0  0  0  0  0  0  0  0
   10.1520   40.7230   19.1680 C   0  0  0  0  0  0  0  0  0  0  0  0
   12.3950   42.4330   18.7400 C   0  0  0  0  0  0  0  0  0  0  0  0
   11.6950   42.4710   19.9500 C   0  0  0  0  0  0  0  0  0  0  0  0
   13.4470   43.2390   18.5420 F   0  0  0  0  0  0  0  0  0  0  0  0
   10.5980   41.6290   20.1570 C   0  0  0  0  0  0  0  0  0  0  0  0
    9.0570   39.8350   19.2940 N   0  0  0  0  0  0  0  0  0  0  0  0
    9.9870   41.7170   21.3480 F   0  0  0  0  0  0  0  0  0  0  0  0
    8.0140   40.1640   20.2380 C   0  0  0  0  0  0  0  0  0  0  0  0
    9.6170   38.4680   19.3740 C   0  0  0  0  0  0  0  0  0  0  0  0
    7.4170   39.1540   21.0200 C   0  0  2  0  0  0  0  0  0  0  0  0
   10.9130   38.4420   18.5420 C   0  0  2  0  0  0  0  0  0  0  0  0
    6.3100   38.3190   20.5320 C   0  0  0  0  0  0  0  0  0  0  0  0
    5.8710   39.1930   21.5980 C   0  0  0  0  0  0  0  0  0  0  0  0
   12.0610   37.7270   19.2100 C   0  0  0  0  0  0  0  0  0  0  0  0
   12.1350   39.2020   19.0240 C   0  0  0  0  0  0  0  0  0  0  0  0
   12.4870   41.4690   16.7760 H   0  0  0  0  0  0  0  0  0  0  0  0
   10.5230   39.9860   17.1610 H   0  0  0  0  0  0  0  0  0  0  0  0
   12.0070   43.1510   20.7280 H   0  0  0  0  0  0  0  0  0  0  0  0
    7.1970   40.6690   19.7240 H   0  0  0  0  0  0  0  0  0  0  0  0
    8.4390   40.9120   20.8960 H   0  0  0  0  0  0  0  0  0  0  0  0
    9.9110   38.2990   20.4090 H   0  0  0  0  0  0  0  0  0  0  0  0
    8.8490   37.7230   19.1860 H   0  0  0  0  0  0  0  0  0  0  0  0
    8.1270   38.7940   21.7440 H   0  0  0  0  0  0  0  0  0  0  0  0
   10.8060   38.2960   17.4760 H   0  0  0  0  0  0  0  0  0  0  0  0
    6.3160   37.2650   20.7510 H   0  0  0  0  0  0  0  0  0  0  0  0
    5.9410   38.5210   19.5370 H   0  0  0  0  0  0  0  0  0  0  0  0
    5.6730   38.7420   22.5640 H   0  0  0  0  0  0  0  0  0  0  0  0
    5.2760   40.0520   21.3910 H   0  0  0  0  0  0  0  0  0  0  0  0
   11.9380   37.3490   20.2160 H   0  0  0  0  0  0  0  0  0  0  0  0
   12.7070   37.1230   18.5890 H   0  0  0  0  0  0  0  0  0  0  0  0
   12.8230   39.5820   18.2800 H   0  0  0  0  0  0  0  0  0  0  0  0
   12.0390   39.8290   19.9040 H   0  0  0  0  0  0  0  0  0  0  0  0
  1  2  2  0
  2  3  1  0
  1  4  1  0
  4  5  2  0
  4  6  1  0
  3  7  2  0
  5  7  1  0
  3  8  1  0
  7  9  1  0
  8 10  1  0
  8 11  1  0
 10 12  1  0
 11 13  1  0
 12 14  1  0
 12 15  1  0
 14 15  1  0
 13 16  1  0
 13 17  1  0
 16 17  1  0
  1 18  1  0
  2 19  1  0
  5 20  1  0
 10 21  1  0
 10 22  1  0
 11 23  1  0
 11 24  1  0
 12 25  1  1
 13 26  1  6
 14 27  1  0
 14 28  1  0
 15 29  1  0
 15 30  1  0
 16 31  1  0
 16 32  1  0
 17 33  1  0
 17 34  1  0
M  END
>  <ref_pdb>  (18) 
16_x1344_0B_ee32b0ceba.min.pdb

>  <ref_mols>  (18) 
x1344_0B

>  <fragmensteinOld_score>  (18) 
0.011768561379040587

>  <LE_score>  (18) 
-0.2155940961947258

>  <comRMSD_score>  (18) 
0.64478848844110848

>  <fragmensteinNew_score>  (18) 
3.2841960922276878

>  <atomic_mapping>  (18) 
"{\"0\": [[\"x1344_0B\", 4]], \"1\": [[\"x1344_0B\", 3]], \"2\": [[\"x1344_0B\", 7]], \"3\": [[\"x1344_0B\", 6]], \"4\": [[\"x1344_0B\", 5]], \"5\": [[\"x1344_0B\", 2]], \"8\": [[\"x1344_0B\", 0]], \"9\": [[\"x1344_0B\", 8]], \"10\": [[\"x1344_0B\", 12]], \"11\": [[\"x1344_0B\", 11]], \"12\": [[\"x1344_0B\", 10]], \"6\": [[\"x1344_0B\", 1]], \"20\": [[\"x1344_0B\", 13]], \"23\": [[\"x1344_0B\", 16]], \"25\": [[\"x1344_0B\", 15]], \"26\": [[\"x1344_0B\", 14]]}"

>  <meanSuCosW_score>  (18) 
0.47049131579853859

>  <maxSuCosW_score>  (18) 
0.47049131579853859

>  <minSuCosW_score>  (18) 
0.47049131579853859

>  <sumSuCosW_score>  (18) 
0.47049131579853859

>  <SA_score>  (18) 
7.7518698415891834

>  <aLogP_score>  (18) 
3.5912000000000024

>  <hbondD_score>  (18) 
0

>  <hbondA_score>  (18) 
1

>  <polarSurfaceArea_score>  (18) 
3.2400000000000002

>  <rotableBonds_score>  (18) 
5

>  <SC_score>  (18) 
2.8048575510191731

>  <energyPoseVsEnsemble_score>  (18) 
0.48139107894900462

>  <xcos_score>  (18) 
4.6363920099875156

>  <plipMedianPreser_score>  (18) 
0

>  <plipGlobalPreser_score>  (18) 
0

>  <plipGlobalPreserOverMw_score>  (18) 
0

>  <plipTotalNumInteractions_score>  (18) 
3

>  <original_name>  (18) 
x1344-0B-ee32b0ceba-c1cc-c-cc1F-F-N-CC2CC2-CC3CC3

>  <original SMILES>  (18) 
[H]c1c([H])c(N(C([H])([H])C2([H])C([H])([H])C2([H])[H])C([H])([H])C2([H])C([H])([H])C2([H])[H])c(F)c([H])c1F

$$$$
17_x1344_0B_f0a6859949
     RDKit          3D

 32 34  0  0  0  0  0  0  0  0999 V2000
   11.6880   42.4530   20.0690 C   0  0  0  0  0  0  0  0  0  0  0  0
   10.5280   41.6940   20.1770 C   0  0  0  0  0  0  0  0  0  0  0  0
   10.2330   40.7730   19.1740 C   0  0  0  0  0  0  0  0  0  0  0  0
   12.5400   42.2990   18.9860 C   0  0  0  0  0  0  0  0  0  0  0  0
   12.2490   41.3860   17.9900 C   0  0  0  0  0  0  0  0  0  0  0  0
   13.7290   43.0940   18.9070 C   0  0  0  0  0  0  0  0  0  0  0  0
   11.0950   40.6330   18.0940 C   0  0  0  0  0  0  0  0  0  0  0  0
   14.6890   43.7430   18.8470 N   0  0  0  0  0  0  0  0  0  0  0  0
    9.0880   39.9990   19.2700 N   0  0  0  0  0  0  0  0  0  0  0  0
   10.8480   39.7600   17.0990 F   0  0  0  0  0  0  0  0  0  0  0  0
    9.3160   38.6660   18.8380 C   0  0  0  0  0  0  0  0  0  0  0  0
    8.4460   39.9660   20.5690 C   0  0  1  0  0  0  0  0  0  0  0  0
   10.5240   38.3770   19.4350 C   0  0  1  0  0  0  0  0  0  0  0  0
    7.2190   40.1490   20.2680 C   0  0  0  0  0  0  0  0  0  0  0  0
    7.1640   38.9550   20.9540 C   0  0  0  0  0  0  0  0  0  0  0  0
   11.0580   37.2570   19.1490 C   0  0  0  0  0  0  0  0  0  0  0  0
   11.8600   38.0620   18.5360 C   0  0  0  0  0  0  0  0  0  0  0  0
   11.9430   43.1710   20.8300 H   0  0  0  0  0  0  0  0  0  0  0  0
    9.8770   41.8280   21.0370 H   0  0  0  0  0  0  0  0  0  0  0  0
   12.9140   41.2650   17.1440 H   0  0  0  0  0  0  0  0  0  0  0  0
    8.5180   37.9660   19.1130 H   0  0  0  0  0  0  0  0  0  0  0  0
    9.4130   38.6300   17.7530 H   0  0  0  0  0  0  0  0  0  0  0  0
    8.7860   40.7320   21.2590 H   0  0  0  0  0  0  0  0  0  0  0  0
   10.7140   38.8060   20.4160 H   0  0  0  0  0  0  0  0  0  0  0  0
    7.0980   40.1310   19.2210 H   0  0  0  0  0  0  0  0  0  0  0  0
    6.7830   41.0190   20.7330 H   0  0  0  0  0  0  0  0  0  0  0  0
    7.0410   38.0400   20.3950 H   0  0  0  0  0  0  0  0  0  0  0  0
    6.7800   38.9420   21.9690 H   0  0  0  0  0  0  0  0  0  0  0  0
   11.4740   36.7090   19.9870 H   0  0  0  0  0  0  0  0  0  0  0  0
   10.4730   36.6240   18.4970 H   0  0  0  0  0  0  0  0  0  0  0  0
   12.8360   38.2550   18.9610 H   0  0  0  0  0  0  0  0  0  0  0  0
   11.7990   38.1250   17.4610 H   0  0  0  0  0  0  0  0  0  0  0  0
  1  2  2  0
  2  3  1  0
  1  4  1  0
  4  5  2  0
  4  6  1  0
  3  7  2  0
  5  7  1  0
  6  8  3  0
  3  9  1  0
  7 10  1  0
  9 11  1  0
  9 12  1  0
 11 13  1  0
 12 14  1  0
 12 15  1  0
 14 15  1  0
 13 16  1  0
 13 17  1  0
 16 17  1  0
  1 18  1  0
  2 19  1  0
  5 20  1  0
 11 21  1  0
 11 22  1  0
 12 23  1  1
 13 24  1  1
 14 25  1  0
 14 26  1  0
 15 27  1  0
 15 28  1  0
 16 29  1  0
 16 30  1  0
 17 31  1  0
 17 32  1  0
M  END
>  <ref_pdb>  (19) 
17_x1344_0B_f0a6859949.min.pdb

>  <ref_mols>  (19) 
x1344_0B

>  <fragmensteinOld_score>  (19) 
0.13931079251087608

>  <LE_score>  (19) 
-0.20967621798358371

>  <comRMSD_score>  (19) 
0.75220993365506095

>  <fragmensteinNew_score>  (19) 
3.5049568608667352

>  <atomic_mapping>  (19) 
"{\"0\": [[\"x1344_0B\", 5]], \"1\": [[\"x1344_0B\", 6]], \"2\": [[\"x1344_0B\", 7]], \"3\": [[\"x1344_0B\", 3]], \"4\": [[\"x1344_0B\", 4]], \"5\": [[\"x1344_0B\", 2]], \"6\": [[\"x1344_0B\", 1]], \"9\": [[\"x1344_0B\", 0]], \"14\": [[\"x1344_0B\", 8]], \"15\": [[\"x1344_0B\", 12]], \"16\": [[\"x1344_0B\", 11]], \"29\": [[\"x1344_0B\", 10]], \"28\": [[\"x1344_0B\", 14]]}"

>  <meanSuCosW_score>  (19) 
0.46978765646130627

>  <maxSuCosW_score>  (19) 
0.46978765646130627

>  <minSuCosW_score>  (19) 
0.46978765646130627

>  <sumSuCosW_score>  (19) 
0.46978765646130627

>  <SA_score>  (19) 
7.6264360680702623

>  <aLogP_score>  (19) 
3.0761800000000017

>  <hbondD_score>  (19) 
0

>  <hbondA_score>  (19) 
2

>  <polarSurfaceArea_score>  (19) 
27.030000000000001

>  <rotableBonds_score>  (19) 
4

>  <SC_score>  (19) 
3.0899451497120567

>  <energyPoseVsEnsemble_score>  (19) 
0.5074695518472121

>  <xcos_score>  (19) 
5.2383748573602134

>  <plipMedianPreser_score>  (19) 
0

>  <plipGlobalPreser_score>  (19) 
0

>  <plipGlobalPreserOverMw_score>  (19) 
0

>  <plipTotalNumInteractions_score>  (19) 
5

>  <original_name>  (19) 
x1344-0B-f0a6859949-c1cc-c-cc1C-N-F-N-CC2CC2-C3CC3

>  <original SMILES>  (19) 
[H]c1c([H])c(N(C([H])([H])C2([H])C([H])([H])C2([H])[H])C2([H])C([H])([H])C2([H])[H])c(F)c([H])c1C#N

$$$$
18_x1344_0B_ff356bdda5
     RDKit          3D

 32 33  0  0  0  0  0  0  0  0999 V2000
    4.9360   38.9970   22.0900 C   0  0  0  0  0  0  0  0  0  0  0  0
    5.6910   39.9410   22.6140 C   0  0  0  0  0  0  0  0  0  0  0  0
    6.1660   39.8760   21.4460 C   0  0  1  0  0  0  0  0  0  0  0  0
    7.3990   39.1760   21.0670 C   0  0  0  0  0  0  0  0  0  0  0  0
    8.1620   40.0670   20.1630 C   0  0  0  0  0  0  0  0  0  0  0  0
    7.5930   41.0820   19.8820 O   0  0  0  0  0  0  0  0  0  0  0  0
    9.4210   39.7130   19.6860 N   0  0  0  0  0  0  0  0  0  0  0  0
   10.4770   40.5930   19.4100 C   0  0  0  0  0  0  0  0  0  0  0  0
    9.5340   38.7580   18.7070 C   0  0  0  0  0  0  0  0  0  0  0  0
   10.8480   41.7380   20.3040 C   0  0  0  0  0  0  0  0  0  0  0  0
   11.2220   40.4020   18.2770 C   0  0  0  0  0  0  0  0  0  0  0  0
    9.0000   38.8350   17.6070 O   0  0  0  0  0  0  0  0  0  0  0  0
   10.3520   37.7090   18.9720 C   0  0  0  0  0  0  0  0  0  0  0  0
   11.9750   42.7780   20.1510 C   0  0  0  0  0  0  0  0  0  0  0  0
   12.2430   41.2280   18.0120 C   0  0  0  0  0  0  0  0  0  0  0  0
   10.1140   41.9010   21.4110 F   0  0  0  0  0  0  0  0  0  0  0  0
   11.7430   37.7780   18.5230 C   0  0  0  0  0  0  0  0  0  0  0  0
   12.5780   42.2830   18.8440 C   0  0  0  0  0  0  0  0  0  0  0  0
   12.8350   37.8840   18.1540 N   0  0  0  0  0  0  0  0  0  0  0  0
   13.6270   43.0050   18.4300 F   0  0  0  0  0  0  0  0  0  0  0  0
    5.1220   37.9780   22.4510 H   0  0  0  0  0  0  0  0  0  0  0  0
    3.8980   39.2900   22.1060 H   0  0  0  0  0  0  0  0  0  0  0  0
    5.2390   40.8840   22.8800 H   0  0  0  0  0  0  0  0  0  0  0  0
    6.3680   39.4960   23.3480 H   0  0  0  0  0  0  0  0  0  0  0  0
    5.9750   40.7200   20.8100 H   0  0  0  0  0  0  0  0  0  0  0  0
    7.9780   39.0360   21.9860 H   0  0  0  0  0  0  0  0  0  0  0  0
    7.1920   38.1860   20.6780 H   0  0  0  0  0  0  0  0  0  0  0  0
   11.0040   39.5910   17.5880 H   0  0  0  0  0  0  0  0  0  0  0  0
   10.3070   37.4310   20.0220 H   0  0  0  0  0  0  0  0  0  0  0  0
    9.8580   36.8900   18.4610 H   0  0  0  0  0  0  0  0  0  0  0  0
   12.2720   43.6040   20.7660 H   0  0  0  0  0  0  0  0  0  0  0  0
   12.8360   41.0730   17.1130 H   0  0  0  0  0  0  0  0  0  0  0  0
  1  2  1  0
  1  3  1  0
  2  3  1  0
  3  4  1  0
  4  5  1  0
  5  6  2  0
  5  7  1  0
  7  8  1  0
  7  9  1  0
  8 10  2  0
  8 11  1  0
  9 12  2  0
  9 13  1  0
 10 14  1  0
 11 15  2  0
 10 16  1  0
 13 17  1  0
 14 18  2  0
 15 18  1  0
 17 19  3  0
 18 20  1  0
  1 21  1  0
  1 22  1  0
  2 23  1  0
  2 24  1  0
  3 25  1  6
  4 26  1  0
  4 27  1  0
 11 28  1  0
 13 29  1  0
 13 30  1  0
 14 31  1  0
 15 32  1  0
M  END
>  <ref_pdb>  (20) 
18_x1344_0B_ff356bdda5.min.pdb

>  <ref_mols>  (20) 
x1344_0B

>  <fragmensteinOld_score>  (20) 
-0.76556680888955653

>  <LE_score>  (20) 
-0.24070787322634909

>  <comRMSD_score>  (20) 
0.84168940795164937

>  <fragmensteinNew_score>  (20) 
1.6432441492343668

>  <atomic_mapping>  (20) 
"{\"0\": [[\"x1344_0B\", 15]], \"1\": [[\"x1344_0B\", 14]], \"2\": [[\"x1344_0B\", 10]], \"3\": [[\"x1344_0B\", 12]], \"4\": [[\"x1344_0B\", 8]], \"5\": [[\"x1344_0B\", 13]], \"6\": [[\"x1344_0B\", 0]], \"7\": [[\"x1344_0B\", 7]], \"8\": [[\"x1344_0B\", 6]], \"9\": [[\"x1344_0B\", 5]], \"10\": [[\"x1344_0B\", 2]], \"11\": [[\"x1344_0B\", 4]], \"12\": [[\"x1344_0B\", 3]], \"13\": [[\"x1344_0B\", 1]], \"20\": [[\"x1344_0B\", 16]], \"22\": [[\"x1344_0B\", 9]], \"26\": [[\"x1344_0B\", 11]]}"

>  <meanSuCosW_score>  (20) 
0.50361509059884568

>  <maxSuCosW_score>  (20) 
0.50361509059884568

>  <minSuCosW_score>  (20) 
0.50361509059884568

>  <sumSuCosW_score>  (20) 
0.50361509059884568

>  <SA_score>  (20) 
6.8982475412125046

>  <aLogP_score>  (20) 
2.5381800000000005

>  <hbondD_score>  (20) 
0

>  <hbondA_score>  (20) 
3

>  <polarSurfaceArea_score>  (20) 
61.170000000000002

>  <rotableBonds_score>  (20) 
4

>  <SC_score>  (20) 
2.6638218873520509

>  <energyPoseVsEnsemble_score>  (20) 
0.76056830518014162

>  <xcos_score>  (20) 
7.9436438233745772

>  <plipMedianPreser_score>  (20) 
0

>  <plipGlobalPreser_score>  (20) 
0

>  <plipGlobalPreserOverMw_score>  (20) 
0

>  <plipTotalNumInteractions_score>  (20) 
7

>  <original_name>  (20) 
x1344-0B-ff356bdda5-C1CC1CC-O-N-C2-C-C-C-C-C2-F-F-C-O-CC-N

>  <original SMILES>  (20) 
[H]c1c([H])c(N(C(=O)C([H])([H])C#N)C(=O)C([H])([H])C2([H])C([H])([H])C2([H])[H])c(F)c([H])c1F

$$$$
