ver_1.2
     RDKit          3D

 14 15  0  0  0  0  0  0  0  0999 V2000
    2.8030   -1.8338    0.0619 C   0  0  0  0  0  0  0  0  0  0  0  0
    2.1685   -0.5240    0.0312 N   0  0  0  0  0  0  0  0  0  0  0  0
    2.7194    0.6922    0.0138 C   0  0  0  0  0  0  0  0  0  0  0  0
    1.7357    1.6088   -0.0130 N   0  0  0  0  0  0  0  0  0  0  0  0
    0.5283    1.0034   -0.0136 C   0  0  0  0  0  0  0  0  0  0  0  0
    0.8308   -0.3585    0.0149 C   0  0  0  0  0  0  0  0  0  0  0  0
   -0.2516   -1.2323    0.0206 C   0  0  0  0  0  0  0  0  0  0  0  0
    0.0283   -2.4728    0.0466 O   0  0  0  0  0  0  0  0  0  0  0  0
   -1.5244   -0.8038    0.0000 N   0  0  0  0  0  0  0  0  0  0  0  0
   -1.7469    0.5236   -0.0270 C   0  0  0  0  0  0  0  0  0  0  0  0
   -2.9476    0.8965   -0.0458 O   0  0  0  0  0  0  0  0  0  0  0  0
   -0.7486    1.4257   -0.0341 N   0  0  0  0  0  0  0  0  0  0  0  0
   -0.9964    2.8543   -0.0632 C   0  0  0  0  0  0  0  0  0  0  0  0
   -2.5985   -1.7796    0.0077 C   0  0  0  0  0  0  0  0  0  0  0  0
  1  2  1  0
  2  3  1  0
  3  4  2  0
  4  5  1  0
  5  6  2  0
  6  7  1  0
  7  8  2  0
  7  9  1  0
  9 10  1  0
 10 11  2  0
 10 12  1  0
 12 13  1  0
  9 14  1  0
  6  2  1  0
 12  5  1  0
M  END
>  <ref_url>  (1) 
https://github.com/matteoferla/EV-D68-3C-protease

>  <submitter_name>  (1) 
Matteo Ferla

>  <submitter_email>  (1) 
matteo.ferla@stats.ox.ac.uk

>  <submitter_institution>  (1) 
University of Oxford

>  <generation_date>  (1) 
2023-01-01

>  <method>  (1) 
ROCS & PyRosetta-filtering

$$$$
EN300-6764836
     RDKit          3D

 12 13  0  0  1  0  0  0  0  0999 V2000
   -5.4927   -6.9473   -0.2519 C   0  0  0  0  0  0  0  0  0  0  0  0
   -3.2429   -7.9662    0.0883 C   0  0  0  0  0  0  0  0  0  0  0  0
   -4.7131   -7.9679    0.5195 C   0  0  1  0  0  0  0  0  0  0  0  0
   -2.5295   -7.6385    1.4001 C   0  0  2  0  0  0  0  0  0  0  0  0
   -4.6163   -7.5680    1.9972 C   0  0  1  0  0  0  0  0  0  0  0  0
   -2.6311   -8.8169    2.3765 C   0  0  2  0  0  0  0  0  0  0  0  0
   -4.0783   -8.7049    2.8694 C   0  0  2  0  0  0  0  0  0  0  0  0
   -5.0421   -6.2514   -1.1497 O   0  0  0  0  0  0  0  0  0  0  0  0
   -3.4600   -6.6937    1.9868 O   0  0  0  0  0  0  0  0  0  0  0  0
   -6.7753   -6.8952    0.1835 O   0  0  0  0  0  0  0  0  0  0  0  0
   -1.7349   -8.5944    3.4584 O   0  0  0  0  0  0  0  0  0  0  0  0
   -4.8041   -9.9023    2.6827 O   0  0  0  0  0  0  0  0  0  0  0  0
  3  1  1  6
  1  8  2  0
  1 10  1  0
  2  3  1  0
  4  2  1  6
  3  5  1  0
  4  6  1  0
  4  9  1  0
  5  7  1  0
  5  9  1  6
  6  7  1  0
  6 11  1  1
  7 12  1  6
M  END
>  <ref_pdb>  (1) 
x0102_0B

>  <ref_mols>  (1) 
x1083_0A,x1247_0A,x1052_0A,x1020_0A,x1140_0A,x1305_0B

>  <original SMILES>  (1) 
OC1C(O)C2OC1CC2C(=O)O

>  <Score>  (1) 
-0.65045990679004717

$$$$
EN300-718776
     RDKit          3D

 12 14  0  0  1  0  0  0  0  0999 V2000
   -5.2973   -7.3943   -0.4832 C   0  0  0  0  0  0  0  0  0  0  0  0
   -2.9076   -6.9350    0.1228 C   0  0  0  0  0  0  0  0  0  0  0  0
   -4.0475   -7.9790    0.0977 C   0  0  1  0  0  0  0  0  0  0  0  0
   -2.5926   -6.8553    1.6232 C   0  0  2  0  0  0  0  0  0  0  0  0
   -4.2273   -8.2871    1.5937 C   0  0  1  0  0  0  0  0  0  0  0  0
   -1.9367   -8.1389    2.0673 C   0  0  2  0  0  0  0  0  0  0  0  0
   -3.0555   -9.1167    2.0566 C   0  0  1  0  0  0  0  0  0  0  0  0
   -7.5620   -7.8838   -0.9473 C   0  0  0  0  0  0  0  0  0  0  0  0
   -5.3771   -6.2603   -0.9361 O   0  0  0  0  0  0  0  0  0  0  0  0
   -3.9348   -6.9782    2.1583 O   0  0  0  0  0  0  0  0  0  0  0  0
   -2.4198   -8.7285    3.2782 O   0  0  0  0  0  0  0  0  0  0  0  0
   -6.3019   -8.3141   -0.4227 O   0  0  0  0  0  0  0  0  0  0  0  0
  3  1  1  1
  1  9  2  0
  1 12  1  0
  2  3  1  0
  4  2  1  6
  3  5  1  0
  4  6  1  0
  4 10  1  0
  5  7  1  0
  5 10  1  1
  6  7  1  0
  6 11  1  1
  7 11  1  1
  8 12  1  0
M  END
>  <ref_pdb>  (2) 
x0102_0B

>  <ref_mols>  (2) 
x1083_0A,x1247_0A,x1052_0A,x1020_0A,x1140_0A,x1305_0B

>  <original SMILES>  (2) 
COC(=O)C1CC2OC1C3OC32

>  <Score>  (2) 
-0.024798642818723238

$$$$
EN300-8214141
     RDKit          3D

 13 16  0  0  1  0  0  0  0  0999 V2000
   -4.0897   -9.0196    1.8444 C   0  0  0  0  0  0  0  0  0  0  0  0
   -4.7350   -8.1241   -1.0745 C   0  0  0  0  0  0  0  0  0  0  0  0
   -5.9923   -6.9046    0.5616 C   0  0  0  0  0  0  0  0  0  0  0  0
   -3.0066   -8.6974    0.7933 C   0  0  1  0  0  0  0  0  0  0  0  0
   -4.1835   -7.5560    2.3246 C   0  0  2  0  0  0  0  0  0  0  0  0
   -3.7124   -7.6114   -0.0599 C   0  0  2  0  0  0  0  0  0  0  0  0
   -4.5323   -6.8162    1.0069 C   0  0  1  0  0  0  0  0  0  0  0  0
   -5.9029   -7.1460   -0.9453 C   0  0  2  0  0  0  0  0  0  0  0  0
   -1.9456   -7.9755    1.6176 C   0  0  1  0  0  0  0  0  0  0  0  0
   -2.7306   -7.2141    2.6393 C   0  0  2  0  0  0  0  0  0  0  0  0
   -7.1945   -7.6809   -1.5397 C   0  0  0  0  0  0  0  0  0  0  0  0
   -1.8529   -8.2805    3.0121 O   0  0  0  0  0  0  0  0  0  0  0  0
   -7.6697   -9.1874   -0.7301 Cl  0  0  0  0  0  0  0  0  0  0  0  0
  4  1  1  1
  5  1  1  6
  6  2  1  6
  2  8  1  0
  7  3  1  6
  3  8  1  0
  4  6  1  0
  4  9  1  0
  5  7  1  0
  5 10  1  0
  6  7  1  0
  8 11  1  1
  9 10  1  0
  9 12  1  1
 10 12  1  1
 11 13  1  0
M  END
>  <ref_pdb>  (3) 
x0102_0B

>  <ref_mols>  (3) 
x1083_0A,x1247_0A,x1052_0A,x1020_0A,x1140_0A,x1305_0B

>  <original SMILES>  (3) 
ClCC1CC2C3CC(C4OC43)C2C1

>  <Score>  (3) 
-0.75713347987516499

$$$$
EN300-28274149
     RDKit          3D

 15 16  0  0  0  0  0  0  0  0999 V2000
   -2.9744   -8.7820    3.7351 C   0  0  0  0  0  0  0  0  0  0  0  0
   -5.3590   -7.1703   -0.3586 C   0  0  0  0  0  0  0  0  0  0  0  0
   -2.6284   -6.7456    2.0252 C   0  0  0  0  0  0  0  0  0  0  0  0
   -2.3575   -8.6127    1.1310 C   0  0  0  0  0  0  0  0  0  0  0  0
   -4.6805   -8.1339    1.8656 C   0  0  0  0  0  0  0  0  0  0  0  0
   -2.9460   -7.2658    0.5777 C   0  0  1  0  0  0  0  0  0  0  0  0
   -3.2236   -8.1634    2.3681 C   0  0  1  0  0  0  0  0  0  0  0  0
   -6.5490   -8.0916   -0.3910 C   0  0  0  0  0  0  0  0  0  0  0  0
   -4.4077   -7.4815    0.5851 N   0  0  0  0  0  0  0  0  0  0  0  0
   -3.8454   -9.0945    4.5332 O   0  0  0  0  0  0  0  0  0  0  0  0
   -5.2754   -6.2173   -1.1334 O   0  0  0  0  0  0  0  0  0  0  0  0
   -1.6461   -8.9399    3.9541 O   0  0  0  0  0  0  0  0  0  0  0  0
   -6.4279   -9.0562    0.5395 F   0  0  0  0  0  0  0  0  0  0  0  0
   -7.6844   -7.4118   -0.1458 F   0  0  0  0  0  0  0  0  0  0  0  0
   -6.6651   -8.6817   -1.5950 F   0  0  0  0  0  0  0  0  0  0  0  0
  7  1  1  1
  1 10  2  0
  1 12  1  0
  2  8  1  0
  2  9  1  0
  2 11  2  0
  6  3  1  1
  3  7  1  0
  4  6  1  0
  4  7  1  0
  5  7  1  0
  5  9  1  0
  6  9  1  0
  8 13  1  0
  8 14  1  0
  8 15  1  0
M  END
>  <ref_pdb>  (4) 
x0102_0B

>  <ref_mols>  (4) 
x1083_0A,x1247_0A,x1052_0A,x1020_0A,x1140_0A,x1305_0B

>  <original SMILES>  (4) 
OC(=O)C1(CC2C1)CN2C(=O)C(F)(F)F

>  <Score>  (4) 
-0.66167648614100472

$$$$
EN300-39689768
     RDKit          3D

 13 14  0  0  1  0  0  0  0  0999 V2000
   -3.0104   -8.7660    3.7848 C   0  0  0  0  0  0  0  0  0  0  0  0
   -5.7422   -7.3424   -0.1378 C   0  0  0  0  0  0  0  0  0  0  0  0
   -2.8443   -8.9522    1.2474 C   0  0  0  0  0  0  0  0  0  0  0  0
   -4.7779   -7.8953    2.1613 C   0  0  0  0  0  0  0  0  0  0  0  0
   -2.5431   -6.6793    0.8601 C   0  0  0  0  0  0  0  0  0  0  0  0
   -3.3194   -7.8695    0.2941 C   0  0  2  0  0  0  0  0  0  0  0  0
   -3.2957   -8.1478    2.4599 C   0  0  1  0  0  0  0  0  0  0  0  0
   -5.3580   -7.2136   -1.5895 C   0  0  0  0  0  0  0  0  0  0  0  0
   -4.7158   -7.6939    0.7117 N   0  0  0  0  0  0  0  0  0  0  0  0
   -3.8547   -9.0645    4.6163 O   0  0  0  0  0  0  0  0  0  0  0  0
   -6.9019   -7.1412    0.2243 O   0  0  0  0  0  0  0  0  0  0  0  0
   -2.5991   -6.8964    2.2987 O   0  0  0  0  0  0  0  0  0  0  0  0
   -1.6780   -8.9532    3.9489 O   0  0  0  0  0  0  0  0  0  0  0  0
  7  1  1  1
  1 10  2  0
  1 13  1  0
  2  8  1  0
  2  9  1  0
  2 11  2  0
  3  6  1  0
  3  7  1  0
  4  7  1  0
  4  9  1  0
  6  5  1  1
  5 12  1  0
  6  9  1  0
  7 12  1  0
M  END
>  <ref_pdb>  (5) 
x0102_0B

>  <ref_mols>  (5) 
x1083_0A,x1247_0A,x1052_0A,x1020_0A,x1140_0A,x1305_0B

>  <original SMILES>  (5) 
CC(=O)N1CC2(CC1CO2)C(=O)O

>  <Score>  (5) 
-0.45654615593821291

$$$$
EN300-39918118
     RDKit          3D

 13 14  0  0  1  0  0  0  0  0999 V2000
   -3.0108   -8.7648    3.7851 C   0  0  0  0  0  0  0  0  0  0  0  0
   -5.7430   -7.3446   -0.1384 C   0  0  0  0  0  0  0  0  0  0  0  0
   -2.8446   -8.9523    1.2479 C   0  0  0  0  0  0  0  0  0  0  0  0
   -4.7785   -7.8955    2.1611 C   0  0  0  0  0  0  0  0  0  0  0  0
   -2.5441   -6.6794    0.8594 C   0  0  0  0  0  0  0  0  0  0  0  0
   -3.3200   -7.8702    0.2939 C   0  0  2  0  0  0  0  0  0  0  0  0
   -3.2963   -8.1472    2.4600 C   0  0  1  0  0  0  0  0  0  0  0  0
   -5.3587   -7.2164   -1.5901 C   0  0  0  0  0  0  0  0  0  0  0  0
   -4.7165   -7.6949    0.7113 N   0  0  0  0  0  0  0  0  0  0  0  0
   -3.8549   -9.0632    4.6168 O   0  0  0  0  0  0  0  0  0  0  0  0
   -6.9029   -7.1441    0.2232 O   0  0  0  0  0  0  0  0  0  0  0  0
   -2.6003   -6.8957    2.2980 O   0  0  0  0  0  0  0  0  0  0  0  0
   -1.6783   -8.9513    3.9493 O   0  0  0  0  0  0  0  0  0  0  0  0
  7  1  1  1
  1 10  2  0
  1 13  1  0
  2  8  1  0
  2  9  1  0
  2 11  2  0
  3  6  1  0
  3  7  1  0
  4  7  1  0
  4  9  1  0
  6  5  1  1
  5 12  1  0
  6  9  1  0
  7 12  1  0
M  END
>  <ref_pdb>  (6) 
x0102_0B

>  <ref_mols>  (6) 
x1083_0A,x1247_0A,x1052_0A,x1020_0A,x1140_0A,x1305_0B

>  <original SMILES>  (6) 
CC(=O)N1C[C@]2(C[C@@H]1CO2)C(=O)O

>  <Score>  (6) 
-0.45226456584964581

$$$$
EN300-44825926
     RDKit          3D

 11 13  0  0  1  0  0  0  0  0999 V2000
   -2.2307   -7.6546    0.5181 C   0  0  0  0  0  0  0  0  0  0  0  0
   -2.5747   -6.7724    1.6996 C   0  0  1  0  0  0  0  0  0  0  0  0
   -3.2193   -8.8057    0.8955 C   0  0  2  0  0  0  0  0  0  0  0  0
   -4.0048   -7.0101    2.0666 C   0  0  2  0  0  0  0  0  0  0  0  0
   -2.9106   -7.6628    2.8484 C   0  0  1  0  0  0  0  0  0  0  0  0
   -4.5810   -8.0561    1.1270 C   0  0  1  0  0  0  0  0  0  0  0  0
   -2.7906   -9.0788    2.3666 C   0  0  0  0  0  0  0  0  0  0  0  0
   -5.2304   -7.4694   -0.1122 C   0  0  0  0  0  0  0  0  0  0  0  0
   -5.0874   -8.3660   -1.2140 N   0  0  0  0  0  0  0  0  0  0  0  0
   -3.6274   -9.9152    3.0080 F   0  0  0  0  0  0  0  0  0  0  0  0
   -1.5343   -9.5519    2.4641 F   0  0  0  0  0  0  0  0  0  0  0  0
  2  1  1  6
  3  1  1  1
  2  4  1  0
  2  5  1  0
  3  6  1  0
  3  7  1  0
  4  5  1  0
  4  6  1  6
  5  7  1  6
  6  8  1  6
  7 10  1  0
  7 11  1  0
  8  9  1  0
M  END
>  <ref_pdb>  (7) 
x0102_0B

>  <ref_mols>  (7) 
x1083_0A,x1247_0A,x1052_0A,x1020_0A,x1140_0A,x1305_0B

>  <original SMILES>  (7) 
NC[C@@H]1C2C3C[C@H]1C(F)(F)C32 |&1:2,6,r|

>  <Score>  (7) 
-0.69439902652663932

$$$$
EN300-764787
     RDKit          3D

 11 13  0  0  1  0  0  0  0  0999 V2000
   -6.0475   -7.4053   -0.3653 C   0  0  0  0  0  0  0  0  0  0  0  0
   -2.0912   -9.1694    2.0847 C   0  0  0  0  0  0  0  0  0  0  0  0
   -2.7803   -8.4158    3.2505 C   0  0  0  0  0  0  0  0  0  0  0  0
   -2.2142   -6.8673    1.5541 C   0  0  0  0  0  0  0  0  0  0  0  0
   -4.7363   -7.1567    0.2498 C   0  0  2  0  0  0  0  0  0  0  0  0
   -2.3531   -8.2396    0.8764 C   0  0  2  0  0  0  0  0  0  0  0  0
   -3.3449   -7.1552    2.5540 C   0  0  1  0  0  0  0  0  0  0  0  0
   -3.8404   -8.3390    0.5478 C   0  0  1  0  0  0  0  0  0  0  0  0
   -4.5067   -7.6106    1.6747 C   0  0  2  0  0  0  0  0  0  0  0  0
   -5.9841   -8.1270   -1.5336 N   0  0  0  0  0  0  0  0  0  0  0  0
   -7.0931   -7.0099    0.1444 O   0  0  0  0  0  0  0  0  0  0  0  0
  5  1  1  6
  1 10  1  0
  1 11  2  0
  2  3  1  0
  6  2  1  1
  7  3  1  1
  4  6  1  0
  4  7  1  0
  5  8  1  0
  5  9  1  0
  8  6  1  1
  9  7  1  1
  8  9  1  0
M  END
>  <ref_pdb>  (8) 
x0102_0B

>  <ref_mols>  (8) 
x1083_0A,x1247_0A,x1052_0A,x1020_0A,x1140_0A,x1305_0B

>  <original SMILES>  (8) 
NC(=O)[C@H]1[C@H]2[C@@H]1[C@@H]3CC[C@H]2C3

>  <Score>  (8) 
-3.6381750038005976

$$$$
EN300-7354076
     RDKit          3D

 16 17  0  0  0  0  0  0  0  0999 V2000
   -2.7486   -8.6675    3.7341 C   0  0  0  0  0  0  0  0  0  0  0  0
   -5.6247   -7.0520   -0.0326 C   0  0  0  0  0  0  0  0  0  0  0  0
   -2.6410   -8.8355    1.0591 C   0  0  0  0  0  0  0  0  0  0  0  0
   -2.4567   -6.8772    1.7591 C   0  0  0  0  0  0  0  0  0  0  0  0
   -4.6805   -7.9179    2.1423 C   0  0  0  0  0  0  0  0  0  0  0  0
   -3.1269   -7.4649    0.4661 C   0  0  2  0  0  0  0  0  0  0  0  0
   -3.1718   -8.1417    2.3711 C   0  0  2  0  0  0  0  0  0  0  0  0
   -6.6403   -8.4859   -1.8460 C   0  0  0  0  0  0  0  0  0  0  0  0
   -6.4854   -6.4211   -3.2680 C   0  0  0  0  0  0  0  0  0  0  0  0
   -4.5381   -8.0024   -3.1428 C   0  0  0  0  0  0  0  0  0  0  0  0
   -5.7136   -7.3942   -2.3794 C   0  0  0  0  0  0  0  0  0  0  0  0
   -4.5726   -7.4363    0.7665 N   0  0  0  0  0  0  0  0  0  0  0  0
   -1.5959   -8.7306    4.1350 O   0  0  0  0  0  0  0  0  0  0  0  0
   -6.8012   -7.0680    0.3210 O   0  0  0  0  0  0  0  0  0  0  0  0
   -3.8287   -9.0629    4.4512 O   0  0  0  0  0  0  0  0  0  0  0  0
   -5.2000   -6.6499   -1.2691 O   0  0  0  0  0  0  0  0  0  0  0  0
  7  1  1  1
  1 13  2  0
  1 15  1  0
  2 12  1  0
  2 14  2  0
  2 16  1  0
  6  3  1  1
  3  7  1  0
  4  6  1  0
  4  7  1  0
  5  7  1  0
  5 12  1  0
  6 12  1  0
  8 11  1  0
  9 11  1  0
 10 11  1  0
 11 16  1  0
M  END
>  <ref_pdb>  (9) 
x0102_0B

>  <ref_mols>  (9) 
x1083_0A,x1247_0A,x1052_0A,x1020_0A,x1140_0A,x1305_0B

>  <original SMILES>  (9) 
CC(C)(C)OC(=O)N1CC2(CC1C2)C(=O)O

>  <Score>  (9) 
-2.2934919134200982

$$$$
EN300-28309295
     RDKit          3D

 16 17  0  0  0  0  0  0  0  0999 V2000
   -2.7484   -8.6674    3.7341 C   0  0  0  0  0  0  0  0  0  0  0  0
   -5.6248   -7.0525   -0.0327 C   0  0  0  0  0  0  0  0  0  0  0  0
   -2.6408   -8.8355    1.0595 C   0  0  0  0  0  0  0  0  0  0  0  0
   -2.4571   -6.8768    1.7588 C   0  0  0  0  0  0  0  0  0  0  0  0
   -4.6804   -7.9181    2.1424 C   0  0  0  0  0  0  0  0  0  0  0  0
   -3.1271   -7.4651    0.4660 C   0  0  2  0  0  0  0  0  0  0  0  0
   -3.1717   -8.1412    2.3713 C   0  0  2  0  0  0  0  0  0  0  0  0
   -6.6406   -8.4860   -1.8466 C   0  0  0  0  0  0  0  0  0  0  0  0
   -6.4847   -6.4213   -3.2684 C   0  0  0  0  0  0  0  0  0  0  0  0
   -4.5379   -8.0032   -3.1429 C   0  0  0  0  0  0  0  0  0  0  0  0
   -5.7135   -7.3947   -2.3796 C   0  0  0  0  0  0  0  0  0  0  0  0
   -4.5728   -7.4368    0.7664 N   0  0  0  0  0  0  0  0  0  0  0  0
   -1.5957   -8.7309    4.1349 O   0  0  0  0  0  0  0  0  0  0  0  0
   -6.8011   -7.0681    0.3208 O   0  0  0  0  0  0  0  0  0  0  0  0
   -3.8285   -9.0629    4.4512 O   0  0  0  0  0  0  0  0  0  0  0  0
   -5.1999   -6.6507   -1.2692 O   0  0  0  0  0  0  0  0  0  0  0  0
  7  1  1  1
  1 13  2  0
  1 15  1  0
  2 12  1  0
  2 14  2  0
  2 16  1  0
  6  3  1  1
  3  7  1  0
  4  6  1  0
  4  7  1  0
  5  7  1  0
  5 12  1  0
  6 12  1  0
  8 11  1  0
  9 11  1  0
 10 11  1  0
 11 16  1  0
M  END
>  <ref_pdb>  (10) 
x0102_0B

>  <ref_mols>  (10) 
x1083_0A,x1247_0A,x1052_0A,x1020_0A,x1140_0A,x1305_0B

>  <original SMILES>  (10) 
CC(C)(C)OC(=O)N1C[C@]2(C[C@@H]1C2)C(=O)O

>  <Score>  (10) 
-2.2925783499504178

$$$$
EN300-7354809
     RDKit          3D

 14 16  0  0  1  0  0  0  0  0999 V2000
   -5.7147   -6.8804   -1.2072 C   0  0  0  0  0  0  0  0  0  0  0  0
   -6.5911   -7.2179   -0.1563 C   0  0  0  0  0  0  0  0  0  0  0  0
   -4.3334   -7.0392   -1.0722 C   0  0  0  0  0  0  0  0  0  0  0  0
   -6.1063   -7.7218    1.0542 C   0  0  0  0  0  0  0  0  0  0  0  0
   -3.8687   -7.5451    0.1224 C   0  0  0  0  0  0  0  0  0  0  0  0
   -4.7424   -7.8835    1.1748 C   0  0  0  0  0  0  0  0  0  0  0  0
   -4.5134   -9.2280    3.3273 C   0  0  0  0  0  0  0  0  0  0  0  0
   -2.1352   -6.7699    1.6974 C   0  0  0  0  0  0  0  0  0  0  0  0
   -3.0993   -7.1377    2.8617 C   0  0  0  0  0  0  0  0  0  0  0  0
   -2.7644   -9.0495    1.4839 C   0  0  0  0  0  0  0  0  0  0  0  0
   -2.4651   -7.8161    0.6120 C   0  0  1  0  0  0  0  0  0  0  0  0
   -3.8670   -8.3587    2.3122 C   0  0  2  0  0  0  0  0  0  0  0  0
   -5.4415   -9.9922    3.1084 O   0  0  0  0  0  0  0  0  0  0  0  0
   -3.9343   -9.0587    4.5412 O   0  0  0  0  0  0  0  0  0  0  0  0
  1  2  2  0
  1  3  1  0
  2  4  1  0
  3  5  2  0
  4  6  2  0
  5  6  1  0
  5 11  1  0
  6 12  1  0
 12  7  1  1
  7 13  2  0
  7 14  1  0
  8  9  1  0
 11  8  1  1
  9 12  1  0
 10 11  1  0
 10 12  1  0
M  END
>  <ref_pdb>  (11) 
x0102_0B

>  <ref_mols>  (11) 
x1083_0A,x1247_0A,x1052_0A,x1020_0A,x1140_0A,x1305_0B

>  <original SMILES>  (11) 
OC(=O)C1(CCC2C1)C=3C=CC=CC23

>  <Score>  (11) 
-1.1279876405460527

$$$$
EN300-245165
     RDKit          3D

 11 12  0  0  1  0  0  0  0  0999 V2000
   -2.2874   -7.9804    2.8730 C   0  0  0  0  0  0  0  0  0  0  0  0
   -2.0874   -6.7724    1.9556 C   0  0  0  0  0  0  0  0  0  0  0  0
   -4.6594   -8.2239    2.0664 C   0  0  0  0  0  0  0  0  0  0  0  0
   -3.2591   -8.8387    2.0645 C   0  0  1  0  0  0  0  0  0  0  0  0
   -2.9918   -7.1169    0.7732 C   0  0  2  0  0  0  0  0  0  0  0  0
   -4.4626   -6.9934    1.1771 C   0  0  1  0  0  0  0  0  0  0  0  0
   -4.9812   -8.4765   -0.9636 N   0  0  0  0  0  0  0  0  0  0  0  0
   -6.8842   -7.2145    0.2209 O   0  0  0  0  0  0  0  0  0  0  0  0
   -5.1642   -5.9141   -1.0968 O   0  0  0  0  0  0  0  0  0  0  0  0
   -2.8282   -8.5553    0.7144 O   0  0  0  0  0  0  0  0  0  0  0  0
   -5.5198   -7.0305   -0.2398 S   0  0  0  0  0  0  0  0  0  0  0  0
  1  2  1  0
  4  1  1  1
  5  2  1  1
  3  4  1  0
  3  6  1  0
  4 10  1  0
  5  6  1  0
  5 10  1  0
  6 11  1  6
  7 11  1  0
  8 11  2  0
  9 11  2  0
M  END
>  <ref_pdb>  (12) 
x0102_0B

>  <ref_mols>  (12) 
x1083_0A,x1247_0A,x1052_0A,x1020_0A,x1140_0A,x1305_0B

>  <original SMILES>  (12) 
NS(=O)(=O)C1CC2CCC1O2

>  <Score>  (12) 
-1.4317071420889533

$$$$
EN300-1823247
     RDKit          3D

 13 15  0  0  1  0  0  0  0  0999 V2000
   -4.1348   -7.4482    2.7628 C   0  0  0  0  0  0  0  0  0  0  0  0
   -4.6381   -8.2662    1.8268 C   0  0  0  0  0  0  0  0  0  0  0  0
   -6.1001   -7.2070   -0.2620 C   0  0  0  0  0  0  0  0  0  0  0  0
   -2.4177   -8.8415    2.0932 C   0  0  0  0  0  0  0  0  0  0  0  0
   -2.3732   -6.6114    1.2505 C   0  0  0  0  0  0  0  0  0  0  0  0
   -4.5084   -7.9107   -1.7853 C   0  0  0  0  0  0  0  0  0  0  0  0
   -2.6399   -7.3975    2.5542 C   0  0  1  0  0  0  0  0  0  0  0  0
   -3.4789   -8.7537    0.9887 C   0  0  2  0  0  0  0  0  0  0  0  0
   -2.9058   -7.5808    0.1496 C   0  0  1  0  0  0  0  0  0  0  0  0
   -3.8917   -6.9301   -0.8085 C   0  0  2  0  0  0  0  0  0  0  0  0
   -5.8099   -8.1247   -1.2446 N   0  0  0  0  0  0  0  0  0  0  0  0
   -7.1586   -7.0846    0.3379 O   0  0  0  0  0  0  0  0  0  0  0  0
   -5.0034   -6.4121   -0.0486 O   0  0  0  0  0  0  0  0  0  0  0  0
  1  2  2  0
  1  7  1  0
  8  2  1  1
  3 11  1  0
  3 12  2  0
  3 13  1  0
  4  7  1  0
  4  8  1  0
  7  5  1  6
  9  5  1  1
 10  6  1  6
  6 11  1  0
  8  9  1  0
  9 10  1  0
 10 13  1  0
M  END
>  <ref_pdb>  (13) 
x0102_0B

>  <ref_mols>  (13) 
x1083_0A,x1247_0A,x1052_0A,x1020_0A,x1140_0A,x1305_0B

>  <original SMILES>  (13) 
O=C1NCC(O1)C2CC3CC2C=C3

>  <Score>  (13) 
-0.933962676644569

$$$$
EN300-218912
     RDKit          3D

 17 18  0  0  1  0  0  0  0  0999 V2000
   -1.6185   -9.3803    2.9889 C   0  0  0  0  0  0  0  0  0  0  0  0
   -5.6935   -7.4088   -0.0933 C   0  0  0  0  0  0  0  0  0  0  0  0
   -3.9889   -8.5961    2.5952 C   0  0  0  0  0  0  0  0  0  0  0  0
   -2.7640   -6.6888    1.8892 C   0  0  0  0  0  0  0  0  0  0  0  0
   -3.1886   -7.8292   -0.1403 C   0  0  0  0  0  0  0  0  0  0  0  0
   -2.6664   -9.0827    1.9609 C   0  0  1  0  0  0  0  0  0  0  0  0
   -2.2444   -7.8848    1.0748 C   0  0  2  0  0  0  0  0  0  0  0  0
   -4.1937   -7.2237    1.9264 C   0  0  1  0  0  0  0  0  0  0  0  0
   -5.7847   -5.3613   -1.7236 C   0  0  0  0  0  0  0  0  0  0  0  0
   -5.2791   -6.9148   -3.6315 C   0  0  0  0  0  0  0  0  0  0  0  0
   -7.5652   -6.9142   -2.5913 C   0  0  0  0  0  0  0  0  0  0  0  0
   -6.0695   -6.7311   -2.3379 C   0  0  0  0  0  0  0  0  0  0  0  0
   -4.4514   -7.4663    0.5028 N   0  0  0  0  0  0  0  0  0  0  0  0
   -0.7044  -10.1791    2.8484 O   0  0  0  0  0  0  0  0  0  0  0  0
   -6.7279   -7.0973    0.4918 O   0  0  0  0  0  0  0  0  0  0  0  0
   -1.8214   -8.6415    4.1070 O   0  0  0  0  0  0  0  0  0  0  0  0
   -5.6358   -7.7409   -1.4202 O   0  0  0  0  0  0  0  0  0  0  0  0
  6  1  1  1
  1 14  2  0
  1 16  1  0
  2 13  1  0
  2 15  2  0
  2 17  1  0
  3  6  1  0
  8  3  1  1
  4  7  1  0
  4  8  1  0
  7  5  1  6
  5 13  1  0
  6  7  1  0
  8 13  1  0
  9 12  1  0
 10 12  1  0
 11 12  1  0
 12 17  1  0
M  END
>  <ref_pdb>  (14) 
x0102_0B

>  <ref_mols>  (14) 
x1083_0A,x1247_0A,x1052_0A,x1020_0A,x1140_0A,x1305_0B

>  <original SMILES>  (14) 
CC(C)(C)OC(=O)N1CC2CC1CC2C(=O)O

>  <Score>  (14) 
-0.99303923116440274

$$$$
EN300-1746838
     RDKit          3D

 15 17  0  0  1  0  0  0  0  0999 V2000
   -4.3926   -7.9312    2.2161 C   0  0  0  0  0  0  0  0  0  0  0  0
   -3.7763   -7.7413    0.9719 C   0  0  0  0  0  0  0  0  0  0  0  0
   -3.3969   -8.4169    3.0326 C   0  0  0  0  0  0  0  0  0  0  0  0
   -0.9748   -9.3298    4.0585 C   0  0  0  0  0  0  0  0  0  0  0  0
   -1.0450   -8.9524    2.7780 C   0  0  0  0  0  0  0  0  0  0  0  0
   -2.2509   -9.2107    4.8082 C   0  0  0  0  0  0  0  0  0  0  0  0
   -6.1430   -8.8717   -0.7820 C   0  0  0  0  0  0  0  0  0  0  0  0
   -7.1935   -7.7777   -0.6664 C   0  0  0  0  0  0  0  0  0  0  0  0
   -5.5430   -6.1822   -0.1304 C   0  0  0  0  0  0  0  0  0  0  0  0
   -4.4160   -7.2169   -0.3092 C   0  0  2  0  0  0  0  0  0  0  0  0
   -2.4862   -8.0750    0.9752 N   0  0  0  0  0  0  0  0  0  0  0  0
   -3.3879   -8.7873    4.3452 N   0  0  0  0  0  0  0  0  0  0  0  0
   -2.2466   -8.4930    2.2456 N   0  0  0  0  0  0  0  0  0  0  0  0
   -4.8672   -8.2980   -1.2011 N   0  0  0  0  0  0  0  0  0  0  0  0
   -6.7734   -6.7885    0.2709 O   0  0  0  0  0  0  0  0  0  0  0  0
  1  2  1  0
  1  3  2  0
 10  2  1  1
  2 11  2  0
  3 12  1  0
  3 13  1  0
  4  5  2  0
  4  6  1  0
  5 13  1  0
  6 12  2  0
  7  8  1  0
  7 14  1  0
  8 15  1  0
  9 10  1  0
  9 15  1  0
 10 14  1  0
 11 13  1  0
M  END
>  <ref_pdb>  (15) 
x0102_0B

>  <ref_mols>  (15) 
x1083_0A,x1247_0A,x1052_0A,x1020_0A,x1140_0A,x1305_0B

>  <original SMILES>  (15) 
C1COCC(N1)C=2C=C3N=CC=CN3N2

>  <Score>  (15) 
-0.79591481862917135

$$$$
EN300-28263340
     RDKit          3D

 17 18  0  0  1  0  0  0  0  0999 V2000
   -5.9879   -7.4902   -0.1365 C   0  0  0  0  0  0  0  0  0  0  0  0
   -2.1923   -9.2055    1.7868 C   0  0  0  0  0  0  0  0  0  0  0  0
   -2.7407   -8.6322    3.0843 C   0  0  0  0  0  0  0  0  0  0  0  0
   -3.6364   -8.1824   -0.0273 C   0  0  0  0  0  0  0  0  0  0  0  0
   -2.3422   -8.0656    0.7809 C   0  0  1  0  0  0  0  0  0  0  0  0
   -3.3464   -7.2905    2.6772 C   0  0  2  0  0  0  0  0  0  0  0  0
   -4.7850   -7.3427    2.0962 C   0  0  2  0  0  0  0  0  0  0  0  0
   -5.6674   -5.4280   -1.7271 C   0  0  0  0  0  0  0  0  0  0  0  0
   -5.0724   -7.0118   -3.5836 C   0  0  0  0  0  0  0  0  0  0  0  0
   -7.4631   -6.7907   -2.8464 C   0  0  0  0  0  0  0  0  0  0  0  0
   -5.7108   -8.2355    2.9312 C   0  0  0  0  0  0  0  0  0  0  0  0
   -6.0024   -6.7588   -2.3990 C   0  0  0  0  0  0  0  0  0  0  0  0
   -2.4056   -6.8692    1.6299 N   0  0  0  0  0  0  0  0  0  0  0  0
   -4.8417   -7.6924    0.6529 N   0  0  0  0  0  0  0  0  0  0  0  0
   -7.0626   -7.0840    0.3034 O   0  0  0  0  0  0  0  0  0  0  0  0
   -5.4711   -9.5792    2.5677 O   0  0  0  0  0  0  0  0  0  0  0  0
   -5.7923   -7.8129   -1.4526 O   0  0  0  0  0  0  0  0  0  0  0  0
  1 14  1  0
  1 15  2  0
  1 17  1  0
  2  3  1  0
  5  2  1  1
  6  3  1  6
  4  5  1  0
  4 14  1  0
  5 13  1  0
  6  7  1  0
  6 13  1  0
  7 11  1  1
  7 14  1  0
  8 12  1  0
  9 12  1  0
 10 12  1  0
 11 16  1  0
 12 17  1  0
M  END
>  <ref_pdb>  (16) 
x0102_0B

>  <ref_mols>  (16) 
x1083_0A,x1247_0A,x1052_0A,x1020_0A,x1140_0A,x1305_0B

>  <original SMILES>  (16) 
CC(C)(C)OC(=O)N1C[C@@H]2CC[C@@H](N2)[C@@H]1CO |&1:9,12,14,r|

>  <Score>  (16) 
-0.53244373597158301

$$$$
EN300-7428889
     RDKit          3D

 23 25  0  0  1  0  0  0  0  0999 V2000
   -3.5518  -12.7312    2.2785 C   0  0  0  0  0  0  0  0  0  0  0  0
   -3.6774  -11.3464    2.2850 C   0  0  0  0  0  0  0  0  0  0  0  0
   -2.2926  -13.2692    2.4901 C   0  0  0  0  0  0  0  0  0  0  0  0
   -2.5557  -10.5533    2.4998 C   0  0  0  0  0  0  0  0  0  0  0  0
   -1.3412  -11.1887    2.7017 C   0  0  0  0  0  0  0  0  0  0  0  0
   -5.6903   -7.4640   -0.3048 C   0  0  0  0  0  0  0  0  0  0  0  0
   -4.4895   -7.1327    2.7409 C   0  0  0  0  0  0  0  0  0  0  0  0
   -4.1344   -8.6102    3.0006 C   0  0  0  0  0  0  0  0  0  0  0  0
   -2.4956   -6.7910    1.2963 C   0  0  0  0  0  0  0  0  0  0  0  0
   -3.4413   -8.5727    0.0600 C   0  0  0  0  0  0  0  0  0  0  0  0
   -2.3787   -8.3183    1.1481 C   0  0  2  0  0  0  0  0  0  0  0  0
   -4.0100   -6.6418    1.3687 C   0  0  1  0  0  0  0  0  0  0  0  0
   -2.7149   -9.0280    2.5036 C   0  0  2  0  0  0  0  0  0  0  0  0
   -5.5919   -5.6132   -2.1556 C   0  0  0  0  0  0  0  0  0  0  0  0
   -5.2040   -7.4096   -3.8679 C   0  0  0  0  0  0  0  0  0  0  0  0
   -7.4908   -7.0994   -2.8767 C   0  0  0  0  0  0  0  0  0  0  0  0
   -5.9873   -7.0150   -2.6177 C   0  0  0  0  0  0  0  0  0  0  0  0
   -1.1801  -12.5311    2.7023 N   0  0  0  0  0  0  0  0  0  0  0  0
   -4.4605   -7.5566    0.3205 N   0  0  0  0  0  0  0  0  0  0  0  0
   -6.7004   -7.0029    0.2214 O   0  0  0  0  0  0  0  0  0  0  0  0
   -1.7420   -8.5844    3.4666 O   0  0  0  0  0  0  0  0  0  0  0  0
   -5.6495   -7.9473   -1.5849 O   0  0  0  0  0  0  0  0  0  0  0  0
    0.2382  -10.1648    3.0025 Br  0  0  0  0  0  0  0  0  0  0  0  0
  1  2  2  0
  1  3  1  0
  2  4  1  0
  3 18  2  0
  4  5  2  0
  4 13  1  0
  5 18  1  0
  5 23  1  0
  6 19  1  0
  6 20  2  0
  6 22  1  0
  7  8  1  0
 12  7  1  1
  8 13  1  0
  9 11  1  0
  9 12  1  0
 11 10  1  6
 10 19  1  0
 11 13  1  0
 12 19  1  0
 13 21  1  1
 14 17  1  0
 15 17  1  0
 16 17  1  0
 17 22  1  0
M  END
>  <ref_pdb>  (17) 
x0102_0B

>  <ref_mols>  (17) 
x1083_0A,x1247_0A,x1052_0A,x1020_0A,x1140_0A,x1305_0B

>  <original SMILES>  (17) 
CC(C)(C)OC(=O)N1CC2CC1CCC2(O)C=3C=CC=NC3Br

>  <Score>  (17) 
-0.34717095265784792

$$$$
EN300-6764836
     RDKit          3D

 12 13  0  0  1  0  0  0  0  0999 V2000
   -5.4927   -6.9473   -0.2519 C   0  0  0  0  0  0  0  0  0  0  0  0
   -3.2429   -7.9662    0.0883 C   0  0  0  0  0  0  0  0  0  0  0  0
   -4.7131   -7.9679    0.5195 C   0  0  1  0  0  0  0  0  0  0  0  0
   -2.5295   -7.6385    1.4001 C   0  0  2  0  0  0  0  0  0  0  0  0
   -4.6163   -7.5680    1.9972 C   0  0  1  0  0  0  0  0  0  0  0  0
   -2.6311   -8.8169    2.3765 C   0  0  2  0  0  0  0  0  0  0  0  0
   -4.0783   -8.7049    2.8694 C   0  0  2  0  0  0  0  0  0  0  0  0
   -5.0421   -6.2514   -1.1497 O   0  0  0  0  0  0  0  0  0  0  0  0
   -3.4600   -6.6937    1.9868 O   0  0  0  0  0  0  0  0  0  0  0  0
   -6.7753   -6.8952    0.1835 O   0  0  0  0  0  0  0  0  0  0  0  0
   -1.7349   -8.5944    3.4584 O   0  0  0  0  0  0  0  0  0  0  0  0
   -4.8041   -9.9023    2.6827 O   0  0  0  0  0  0  0  0  0  0  0  0
  3  1  1  6
  1  8  2  0
  1 10  1  0
  2  3  1  0
  4  2  1  6
  3  5  1  0
  4  6  1  0
  4  9  1  0
  5  7  1  0
  5  9  1  6
  6  7  1  0
  6 11  1  1
  7 12  1  6
M  END
>  <ref_pdb>  (18) 
x0102_0B

>  <ref_mols>  (18) 
x1083_0A,x1247_0A,x1052_0A,x1020_0A,x1140_0A,x1305_0B

>  <original SMILES>  (18) 
OC1C(O)C2OC1CC2C(=O)O

>  <Score>  (18) 
-0.65045990679004717

$$$$
EN300-37409318
     RDKit          3D

 13 15  0  0  1  0  0  0  0  0999 V2000
   -1.8047   -7.2614    2.1632 C   0  0  0  0  0  0  0  0  0  0  0  0
   -3.8563   -8.4146    3.0047 C   0  0  0  0  0  0  0  0  0  0  0  0
   -2.6570   -6.4666    1.1624 C   0  0  0  0  0  0  0  0  0  0  0  0
   -4.7153   -7.6238    2.0063 C   0  0  0  0  0  0  0  0  0  0  0  0
   -3.0202   -8.7972    0.8066 C   0  0  0  0  0  0  0  0  0  0  0  0
   -6.0767   -8.9807   -0.5499 C   0  0  0  0  0  0  0  0  0  0  0  0
   -7.2074   -7.9835   -0.3324 C   0  0  0  0  0  0  0  0  0  0  0  0
   -5.6889   -6.1907   -0.2841 C   0  0  0  0  0  0  0  0  0  0  0  0
   -2.5344   -8.6123    2.2445 C   0  0  1  0  0  0  0  0  0  0  0  0
   -4.4998   -7.1288   -0.5144 C   0  0  1  0  0  0  0  0  0  0  0  0
   -3.7755   -7.4644    0.7919 C   0  0  2  0  0  0  0  0  0  0  0  0
   -4.9327   -8.3488   -1.2150 N   0  0  0  0  0  0  0  0  0  0  0  0
   -6.7403   -6.8597    0.4146 O   0  0  0  0  0  0  0  0  0  0  0  0
  1  3  1  0
  9  1  1  6
  2  4  1  0
  2  9  1  0
 11  3  1  1
  4 11  1  0
  5  9  1  0
  5 11  1  0
  6  7  1  0
  6 12  1  0
  7 13  1  0
 10  8  1  1
  8 13  1  0
 10 11  1  0
 10 12  1  0
M  END
>  <ref_pdb>  (19) 
x0102_0B

>  <ref_mols>  (19) 
x1083_0A,x1247_0A,x1052_0A,x1020_0A,x1140_0A,x1305_0B

>  <original SMILES>  (19) 
Cl.C1CC2(CCC1C2)C3COCCN3

>  <Score>  (19) 
-0.40119885288709156

$$$$
EN300-37409319
     RDKit          3D

 13 15  0  0  1  0  0  0  0  0999 V2000
   -1.8047   -7.2614    2.1632 C   0  0  0  0  0  0  0  0  0  0  0  0
   -3.8563   -8.4146    3.0047 C   0  0  0  0  0  0  0  0  0  0  0  0
   -2.6570   -6.4666    1.1624 C   0  0  0  0  0  0  0  0  0  0  0  0
   -4.7153   -7.6238    2.0063 C   0  0  0  0  0  0  0  0  0  0  0  0
   -3.0202   -8.7972    0.8066 C   0  0  0  0  0  0  0  0  0  0  0  0
   -6.0767   -8.9807   -0.5499 C   0  0  0  0  0  0  0  0  0  0  0  0
   -7.2074   -7.9835   -0.3324 C   0  0  0  0  0  0  0  0  0  0  0  0
   -5.6889   -6.1907   -0.2841 C   0  0  0  0  0  0  0  0  0  0  0  0
   -2.5344   -8.6123    2.2445 C   0  0  1  0  0  0  0  0  0  0  0  0
   -4.4998   -7.1288   -0.5144 C   0  0  1  0  0  0  0  0  0  0  0  0
   -3.7755   -7.4644    0.7919 C   0  0  2  0  0  0  0  0  0  0  0  0
   -4.9327   -8.3488   -1.2150 N   0  0  0  0  0  0  0  0  0  0  0  0
   -6.7403   -6.8597    0.4146 O   0  0  0  0  0  0  0  0  0  0  0  0
  1  3  1  0
  9  1  1  6
  2  4  1  0
  2  9  1  0
 11  3  1  1
  4 11  1  0
  5  9  1  0
  5 11  1  0
  6  7  1  0
  6 12  1  0
  7 13  1  0
 10  8  1  1
  8 13  1  0
 10 11  1  0
 10 12  1  0
M  END
>  <ref_pdb>  (20) 
x0102_0B

>  <ref_mols>  (20) 
x1083_0A,x1247_0A,x1052_0A,x1020_0A,x1140_0A,x1305_0B

>  <original SMILES>  (20) 
C1CC2(CCC1C2)C3COCCN3

>  <Score>  (20) 
-0.40119885288709156

$$$$
EN300-718776
     RDKit          3D

 12 14  0  0  1  0  0  0  0  0999 V2000
   -5.2973   -7.3943   -0.4832 C   0  0  0  0  0  0  0  0  0  0  0  0
   -2.9076   -6.9350    0.1228 C   0  0  0  0  0  0  0  0  0  0  0  0
   -4.0475   -7.9790    0.0977 C   0  0  1  0  0  0  0  0  0  0  0  0
   -2.5926   -6.8553    1.6232 C   0  0  2  0  0  0  0  0  0  0  0  0
   -4.2273   -8.2871    1.5937 C   0  0  1  0  0  0  0  0  0  0  0  0
   -1.9367   -8.1389    2.0673 C   0  0  2  0  0  0  0  0  0  0  0  0
   -3.0555   -9.1167    2.0566 C   0  0  1  0  0  0  0  0  0  0  0  0
   -7.5620   -7.8838   -0.9473 C   0  0  0  0  0  0  0  0  0  0  0  0
   -5.3771   -6.2603   -0.9361 O   0  0  0  0  0  0  0  0  0  0  0  0
   -3.9348   -6.9782    2.1583 O   0  0  0  0  0  0  0  0  0  0  0  0
   -2.4198   -8.7285    3.2782 O   0  0  0  0  0  0  0  0  0  0  0  0
   -6.3019   -8.3141   -0.4227 O   0  0  0  0  0  0  0  0  0  0  0  0
  3  1  1  1
  1  9  2  0
  1 12  1  0
  2  3  1  0
  4  2  1  6
  3  5  1  0
  4  6  1  0
  4 10  1  0
  5  7  1  0
  5 10  1  1
  6  7  1  0
  6 11  1  1
  7 11  1  1
  8 12  1  0
M  END
>  <ref_pdb>  (21) 
x0102_0B

>  <ref_mols>  (21) 
x1083_0A,x1247_0A,x1052_0A,x1020_0A,x1140_0A,x1305_0B

>  <original SMILES>  (21) 
COC(=O)C1CC2OC1C3OC32

>  <Score>  (21) 
-0.024798642818723238

$$$$
EN300-679912
     RDKit          3D

 12 13  0  0  1  0  0  0  0  0999 V2000
   -1.9730   -8.1124    2.6548 C   0  0  0  0  0  0  0  0  0  0  0  0
   -2.0170   -6.7741    1.9275 C   0  0  0  0  0  0  0  0  0  0  0  0
   -4.3488   -8.9883    2.3043 C   0  0  0  0  0  0  0  0  0  0  0  0
   -4.9185   -7.5648    2.3377 C   0  0  0  0  0  0  0  0  0  0  0  0
   -2.8899   -9.0126    1.8346 C   0  0  1  0  0  0  0  0  0  0  0  0
   -2.9825   -7.0091    0.7703 C   0  0  2  0  0  0  0  0  0  0  0  0
   -4.4431   -6.7148    1.1514 C   0  0  1  0  0  0  0  0  0  0  0  0
   -4.8644   -8.4369   -0.8255 N   0  0  0  0  0  0  0  0  0  0  0  0
   -6.8455   -7.1891    0.2399 O   0  0  0  0  0  0  0  0  0  0  0  0
   -5.2157   -5.9186   -1.2144 O   0  0  0  0  0  0  0  0  0  0  0  0
   -2.8562   -8.4218    0.5253 O   0  0  0  0  0  0  0  0  0  0  0  0
   -5.5031   -6.9652   -0.2555 S   0  0  0  0  0  0  0  0  0  0  0  0
  1  2  1  0
  5  1  1  1
  6  2  1  1
  3  4  1  0
  3  5  1  0
  4  7  1  0
  5 11  1  0
  6  7  1  0
  6 11  1  0
  7 12  1  6
  8 12  1  0
  9 12  2  0
 10 12  2  0
M  END
>  <ref_pdb>  (22) 
x0102_0B

>  <ref_mols>  (22) 
x1083_0A,x1247_0A,x1052_0A,x1020_0A,x1140_0A,x1305_0B

>  <original SMILES>  (22) 
NS(=O)(=O)C1CCC2CCC1O2

>  <Score>  (22) 
-1.2807824651990813

$$$$
EN300-245165
     RDKit          3D

 11 12  0  0  1  0  0  0  0  0999 V2000
   -2.2874   -7.9804    2.8730 C   0  0  0  0  0  0  0  0  0  0  0  0
   -2.0874   -6.7724    1.9556 C   0  0  0  0  0  0  0  0  0  0  0  0
   -4.6594   -8.2239    2.0664 C   0  0  0  0  0  0  0  0  0  0  0  0
   -3.2591   -8.8387    2.0645 C   0  0  1  0  0  0  0  0  0  0  0  0
   -2.9918   -7.1169    0.7732 C   0  0  2  0  0  0  0  0  0  0  0  0
   -4.4626   -6.9934    1.1771 C   0  0  1  0  0  0  0  0  0  0  0  0
   -4.9812   -8.4765   -0.9636 N   0  0  0  0  0  0  0  0  0  0  0  0
   -6.8842   -7.2145    0.2209 O   0  0  0  0  0  0  0  0  0  0  0  0
   -5.1642   -5.9141   -1.0968 O   0  0  0  0  0  0  0  0  0  0  0  0
   -2.8282   -8.5553    0.7144 O   0  0  0  0  0  0  0  0  0  0  0  0
   -5.5198   -7.0305   -0.2398 S   0  0  0  0  0  0  0  0  0  0  0  0
  1  2  1  0
  4  1  1  1
  5  2  1  1
  3  4  1  0
  3  6  1  0
  4 10  1  0
  5  6  1  0
  5 10  1  0
  6 11  1  6
  7 11  1  0
  8 11  2  0
  9 11  2  0
M  END
>  <ref_pdb>  (23) 
x0102_0B

>  <ref_mols>  (23) 
x1083_0A,x1247_0A,x1052_0A,x1020_0A,x1140_0A,x1305_0B

>  <original SMILES>  (23) 
NS(=O)(=O)C1CC2CCC1O2

>  <Score>  (23) 
-1.4317071420889533

$$$$
EN300-8214141
     RDKit          3D

 13 16  0  0  1  0  0  0  0  0999 V2000
   -4.0897   -9.0196    1.8444 C   0  0  0  0  0  0  0  0  0  0  0  0
   -4.7350   -8.1241   -1.0745 C   0  0  0  0  0  0  0  0  0  0  0  0
   -5.9923   -6.9046    0.5616 C   0  0  0  0  0  0  0  0  0  0  0  0
   -3.0066   -8.6974    0.7933 C   0  0  1  0  0  0  0  0  0  0  0  0
   -4.1835   -7.5560    2.3246 C   0  0  2  0  0  0  0  0  0  0  0  0
   -3.7124   -7.6114   -0.0599 C   0  0  2  0  0  0  0  0  0  0  0  0
   -4.5323   -6.8162    1.0069 C   0  0  1  0  0  0  0  0  0  0  0  0
   -5.9029   -7.1460   -0.9453 C   0  0  2  0  0  0  0  0  0  0  0  0
   -1.9456   -7.9755    1.6176 C   0  0  1  0  0  0  0  0  0  0  0  0
   -2.7306   -7.2141    2.6393 C   0  0  2  0  0  0  0  0  0  0  0  0
   -7.1945   -7.6809   -1.5397 C   0  0  0  0  0  0  0  0  0  0  0  0
   -1.8529   -8.2805    3.0121 O   0  0  0  0  0  0  0  0  0  0  0  0
   -7.6697   -9.1874   -0.7301 Cl  0  0  0  0  0  0  0  0  0  0  0  0
  4  1  1  1
  5  1  1  6
  6  2  1  6
  2  8  1  0
  7  3  1  6
  3  8  1  0
  4  6  1  0
  4  9  1  0
  5  7  1  0
  5 10  1  0
  6  7  1  0
  8 11  1  1
  9 10  1  0
  9 12  1  1
 10 12  1  1
 11 13  1  0
M  END
>  <ref_pdb>  (24) 
x0102_0B

>  <ref_mols>  (24) 
x1083_0A,x1247_0A,x1052_0A,x1020_0A,x1140_0A,x1305_0B

>  <original SMILES>  (24) 
ClCC1CC2C3CC(C4OC43)C2C1

>  <Score>  (24) 
-0.75713347987516499

$$$$
EN300-28274149
     RDKit          3D

 15 16  0  0  0  0  0  0  0  0999 V2000
   -2.9744   -8.7820    3.7351 C   0  0  0  0  0  0  0  0  0  0  0  0
   -5.3590   -7.1703   -0.3586 C   0  0  0  0  0  0  0  0  0  0  0  0
   -2.6284   -6.7456    2.0252 C   0  0  0  0  0  0  0  0  0  0  0  0
   -2.3575   -8.6127    1.1310 C   0  0  0  0  0  0  0  0  0  0  0  0
   -4.6805   -8.1339    1.8656 C   0  0  0  0  0  0  0  0  0  0  0  0
   -2.9460   -7.2658    0.5777 C   0  0  1  0  0  0  0  0  0  0  0  0
   -3.2236   -8.1634    2.3681 C   0  0  1  0  0  0  0  0  0  0  0  0
   -6.5490   -8.0916   -0.3910 C   0  0  0  0  0  0  0  0  0  0  0  0
   -4.4077   -7.4815    0.5851 N   0  0  0  0  0  0  0  0  0  0  0  0
   -3.8454   -9.0945    4.5332 O   0  0  0  0  0  0  0  0  0  0  0  0
   -5.2754   -6.2173   -1.1334 O   0  0  0  0  0  0  0  0  0  0  0  0
   -1.6461   -8.9399    3.9541 O   0  0  0  0  0  0  0  0  0  0  0  0
   -6.4279   -9.0562    0.5395 F   0  0  0  0  0  0  0  0  0  0  0  0
   -7.6844   -7.4118   -0.1458 F   0  0  0  0  0  0  0  0  0  0  0  0
   -6.6651   -8.6817   -1.5950 F   0  0  0  0  0  0  0  0  0  0  0  0
  7  1  1  1
  1 10  2  0
  1 12  1  0
  2  8  1  0
  2  9  1  0
  2 11  2  0
  6  3  1  1
  3  7  1  0
  4  6  1  0
  4  7  1  0
  5  7  1  0
  5  9  1  0
  6  9  1  0
  8 13  1  0
  8 14  1  0
  8 15  1  0
M  END
>  <ref_pdb>  (25) 
x0102_0B

>  <ref_mols>  (25) 
x1083_0A,x1247_0A,x1052_0A,x1020_0A,x1140_0A,x1305_0B

>  <original SMILES>  (25) 
OC(=O)C1(CC2C1)CN2C(=O)C(F)(F)F

>  <Score>  (25) 
-0.66167648614100472

$$$$
EN300-1819712
     RDKit          3D

 11 13  0  0  1  0  0  0  0  0999 V2000
   -2.1364   -8.4406    0.7701 C   0  0  0  0  0  0  0  0  0  0  0  0
   -2.6712   -7.2709    0.3903 C   0  0  0  0  0  0  0  0  0  0  0  0
   -5.8848   -6.4668   -0.3401 C   0  0  0  0  0  0  0  0  0  0  0  0
   -2.6850   -7.2939    2.6993 C   0  0  0  0  0  0  0  0  0  0  0  0
   -4.1419   -9.0708    2.0628 C   0  0  0  0  0  0  0  0  0  0  0  0
   -5.6331   -7.3121   -1.5998 C   0  0  0  0  0  0  0  0  0  0  0  0
   -2.6380   -8.7289    2.1650 C   0  0  1  0  0  0  0  0  0  0  0  0
   -3.5367   -6.7840    1.5295 C   0  0  2  0  0  0  0  0  0  0  0  0
   -4.7803   -7.7007    1.6750 C   0  0  1  0  0  0  0  0  0  0  0  0
   -5.6260   -7.7854    0.4220 C   0  0  2  0  0  0  0  0  0  0  0  0
   -4.8431   -8.2377   -0.7567 N   0  0  0  0  0  0  0  0  0  0  0  0
  1  2  2  0
  1  7  1  0
  8  2  1  6
  3  6  1  0
 10  3  1  6
  4  7  1  0
  4  8  1  0
  7  5  1  6
  9  5  1  6
  6 11  1  0
  8  9  1  0
  9 10  1  0
 10 11  1  0
M  END
>  <ref_pdb>  (26) 
x0102_0B

>  <ref_mols>  (26) 
x1083_0A,x1247_0A,x1052_0A,x1020_0A,x1140_0A,x1305_0B

>  <original SMILES>  (26) 
C1CC(N1)C2CC3CC2C=C3

>  <Score>  (26) 
-0.083619278679179843

$$$$
EN300-37274754
     RDKit          3D

 10 12  0  0  0  0  0  0  0  0999 V2000
   -4.1622   -7.9365    2.4829 C   0  0  0  0  0  0  0  0  0  0  0  0
   -2.6009   -6.8636    1.5090 C   0  0  0  0  0  0  0  0  0  0  0  0
   -2.8968   -8.9316    1.0878 C   0  0  0  0  0  0  0  0  0  0  0  0
   -5.7761   -6.1573    0.1041 C   0  0  0  0  0  0  0  0  0  0  0  0
   -6.0634   -8.1572   -0.3043 C   0  0  0  0  0  0  0  0  0  0  0  0
   -4.7969   -7.3044   -0.1693 C   0  0  0  0  0  0  0  0  0  0  0  0
   -3.8478   -7.6698    0.9518 C   0  0  1  0  0  0  0  0  0  0  0  0
   -2.6300   -8.1368    2.3891 C   0  0  2  0  0  0  0  0  0  0  0  0
   -6.9051   -6.9790   -0.2799 O   0  0  0  0  0  0  0  0  0  0  0  0
   -1.7524   -8.4750    3.4331 O   0  0  0  0  0  0  0  0  0  0  0  0
  1  7  1  0
  1  8  1  0
  2  7  1  0
  2  8  1  0
  3  7  1  0
  3  8  1  0
  4  6  1  0
  4  9  1  0
  5  6  1  0
  5  9  1  0
  7  6  1  6
  8 10  1  1
M  END
>  <ref_pdb>  (27) 
x0102_0B

>  <ref_mols>  (27) 
x1083_0A,x1247_0A,x1052_0A,x1020_0A,x1140_0A,x1305_0B

>  <original SMILES>  (27) 
O[C@]1(C[C@]2(C1)C3COC3)C2

>  <Score>  (27) 
-0.56435044881538943

$$$$
EN300-37153681
     RDKit          3D

 10 12  0  0  0  0  0  0  0  0999 V2000
   -2.9038   -8.9379    1.0958 C   0  0  0  0  0  0  0  0  0  0  0  0
   -2.5961   -6.8695    1.5021 C   0  0  0  0  0  0  0  0  0  0  0  0
   -4.1630   -7.9274    2.4854 C   0  0  0  0  0  0  0  0  0  0  0  0
   -5.7701   -6.1575    0.0939 C   0  0  0  0  0  0  0  0  0  0  0  0
   -6.0653   -8.1587   -0.3020 C   0  0  0  0  0  0  0  0  0  0  0  0
   -4.7954   -7.3103   -0.1718 C   0  0  0  0  0  0  0  0  0  0  0  0
   -3.8482   -7.6723    0.9522 C   0  0  2  0  0  0  0  0  0  0  0  0
   -2.6319   -8.1361    2.3918 C   0  0  1  0  0  0  0  0  0  0  0  0
   -6.9022   -6.9770   -0.2855 O   0  0  0  0  0  0  0  0  0  0  0  0
   -1.7500   -8.4762    3.4314 O   0  0  0  0  0  0  0  0  0  0  0  0
  1  7  1  0
  1  8  1  0
  2  7  1  0
  2  8  1  0
  3  7  1  0
  3  8  1  0
  4  6  1  0
  4  9  1  0
  5  6  1  0
  5  9  1  0
  7  6  1  6
  8 10  1  1
M  END
>  <ref_pdb>  (28) 
x0102_0B

>  <ref_mols>  (28) 
x1083_0A,x1247_0A,x1052_0A,x1020_0A,x1140_0A,x1305_0B

>  <original SMILES>  (28) 
OC1(CC2(C1)C3COC3)C2

>  <Score>  (28) 
-0.72804351949639567

$$$$
EN300-243974
     RDKit          3D

 11 12  0  0  1  0  0  0  0  0999 V2000
   -2.3050   -7.8185    2.7357 C   0  0  0  0  0  0  0  0  0  0  0  0
   -1.9890   -7.0953    1.6507 C   0  0  0  0  0  0  0  0  0  0  0  0
   -3.1426   -8.9503    0.9052 C   0  0  0  0  0  0  0  0  0  0  0  0
   -4.7260   -7.7594    2.2145 C   0  0  0  0  0  0  0  0  0  0  0  0
   -3.4926   -8.6783    2.3698 C   0  0  2  0  0  0  0  0  0  0  0  0
   -2.9764   -7.4636    0.5661 C   0  0  1  0  0  0  0  0  0  0  0  0
   -4.3440   -6.8826    0.9892 C   0  0  1  0  0  0  0  0  0  0  0  0
   -5.0839   -8.4537   -1.0196 N   0  0  0  0  0  0  0  0  0  0  0  0
   -6.8521   -7.1318    0.3006 O   0  0  0  0  0  0  0  0  0  0  0  0
   -5.2778   -5.8984   -1.2440 O   0  0  0  0  0  0  0  0  0  0  0  0
   -5.5407   -6.9749   -0.3044 S   0  0  0  0  0  0  0  0  0  0  0  0
  1  2  2  0
  1  5  1  0
  6  2  1  1
  3  5  1  0
  3  6  1  0
  5  4  1  6
  4  7  1  0
  6  7  1  0
  7 11  1  6
  8 11  1  0
  9 11  2  0
 10 11  2  0
M  END
>  <ref_pdb>  (29) 
x0102_0B

>  <ref_mols>  (29) 
x1083_0A,x1247_0A,x1052_0A,x1020_0A,x1140_0A,x1305_0B

>  <original SMILES>  (29) 
NS(=O)(=O)C1C[C@H]2C[C@@H]1C=C2

>  <Score>  (29) 
-2.1179699149796534

$$$$
EN300-39689768
     RDKit          3D

 13 14  0  0  1  0  0  0  0  0999 V2000
   -3.0104   -8.7660    3.7848 C   0  0  0  0  0  0  0  0  0  0  0  0
   -5.7422   -7.3424   -0.1378 C   0  0  0  0  0  0  0  0  0  0  0  0
   -2.8443   -8.9522    1.2474 C   0  0  0  0  0  0  0  0  0  0  0  0
   -4.7779   -7.8953    2.1613 C   0  0  0  0  0  0  0  0  0  0  0  0
   -2.5431   -6.6793    0.8601 C   0  0  0  0  0  0  0  0  0  0  0  0
   -3.3194   -7.8695    0.2941 C   0  0  2  0  0  0  0  0  0  0  0  0
   -3.2957   -8.1478    2.4599 C   0  0  1  0  0  0  0  0  0  0  0  0
   -5.3580   -7.2136   -1.5895 C   0  0  0  0  0  0  0  0  0  0  0  0
   -4.7158   -7.6939    0.7117 N   0  0  0  0  0  0  0  0  0  0  0  0
   -3.8547   -9.0645    4.6163 O   0  0  0  0  0  0  0  0  0  0  0  0
   -6.9019   -7.1412    0.2243 O   0  0  0  0  0  0  0  0  0  0  0  0
   -2.5991   -6.8964    2.2987 O   0  0  0  0  0  0  0  0  0  0  0  0
   -1.6780   -8.9532    3.9489 O   0  0  0  0  0  0  0  0  0  0  0  0
  7  1  1  1
  1 10  2  0
  1 13  1  0
  2  8  1  0
  2  9  1  0
  2 11  2  0
  3  6  1  0
  3  7  1  0
  4  7  1  0
  4  9  1  0
  6  5  1  1
  5 12  1  0
  6  9  1  0
  7 12  1  0
M  END
>  <ref_pdb>  (30) 
x0102_0B

>  <ref_mols>  (30) 
x1083_0A,x1247_0A,x1052_0A,x1020_0A,x1140_0A,x1305_0B

>  <original SMILES>  (30) 
CC(=O)N1CC2(CC1CO2)C(=O)O

>  <Score>  (30) 
-0.45654615593821291

$$$$
EN300-39918118
     RDKit          3D

 13 14  0  0  1  0  0  0  0  0999 V2000
   -3.0108   -8.7648    3.7851 C   0  0  0  0  0  0  0  0  0  0  0  0
   -5.7430   -7.3446   -0.1384 C   0  0  0  0  0  0  0  0  0  0  0  0
   -2.8446   -8.9523    1.2479 C   0  0  0  0  0  0  0  0  0  0  0  0
   -4.7785   -7.8955    2.1611 C   0  0  0  0  0  0  0  0  0  0  0  0
   -2.5441   -6.6794    0.8594 C   0  0  0  0  0  0  0  0  0  0  0  0
   -3.3200   -7.8702    0.2939 C   0  0  2  0  0  0  0  0  0  0  0  0
   -3.2963   -8.1472    2.4600 C   0  0  1  0  0  0  0  0  0  0  0  0
   -5.3587   -7.2164   -1.5901 C   0  0  0  0  0  0  0  0  0  0  0  0
   -4.7165   -7.6949    0.7113 N   0  0  0  0  0  0  0  0  0  0  0  0
   -3.8549   -9.0632    4.6168 O   0  0  0  0  0  0  0  0  0  0  0  0
   -6.9029   -7.1441    0.2232 O   0  0  0  0  0  0  0  0  0  0  0  0
   -2.6003   -6.8957    2.2980 O   0  0  0  0  0  0  0  0  0  0  0  0
   -1.6783   -8.9513    3.9493 O   0  0  0  0  0  0  0  0  0  0  0  0
  7  1  1  1
  1 10  2  0
  1 13  1  0
  2  8  1  0
  2  9  1  0
  2 11  2  0
  3  6  1  0
  3  7  1  0
  4  7  1  0
  4  9  1  0
  6  5  1  1
  5 12  1  0
  6  9  1  0
  7 12  1  0
M  END
>  <ref_pdb>  (31) 
x0102_0B

>  <ref_mols>  (31) 
x1083_0A,x1247_0A,x1052_0A,x1020_0A,x1140_0A,x1305_0B

>  <original SMILES>  (31) 
CC(=O)N1C[C@]2(C[C@@H]1CO2)C(=O)O

>  <Score>  (31) 
-0.45226456584964581

$$$$
EN300-8631625
     RDKit          3D

 14 15  0  0  1  0  0  0  0  0999 V2000
   -3.3270   -7.9429    3.0965 C   0  0  0  0  0  0  0  0  0  0  0  0
   -2.4092   -8.6453    2.4132 C   0  0  0  0  0  0  0  0  0  0  0  0
   -5.6803   -7.1467    0.2189 C   0  0  0  0  0  0  0  0  0  0  0  0
   -2.7665   -6.6805    1.2482 C   0  0  0  0  0  0  0  0  0  0  0  0
   -3.9917   -7.0181    2.0987 C   0  0  1  0  0  0  0  0  0  0  0  0
   -2.4521   -8.1484    0.9851 C   0  0  2  0  0  0  0  0  0  0  0  0
   -4.7876   -7.9189    1.1360 C   0  0  2  0  0  0  0  0  0  0  0  0
   -6.8255   -5.5639   -1.8499 C   0  0  0  0  0  0  0  0  0  0  0  0
   -4.7413   -6.0872   -3.1505 C   0  0  0  0  0  0  0  0  0  0  0  0
   -6.2793   -7.9459   -2.4521 C   0  0  0  0  0  0  0  0  0  0  0  0
   -5.7068   -6.5803   -2.0751 C   0  0  0  0  0  0  0  0  0  0  0  0
   -3.7176   -8.5721    0.3293 N   0  0  0  0  0  0  0  0  0  0  0  0
   -6.8690   -6.9460    0.4282 O   0  0  0  0  0  0  0  0  0  0  0  0
   -4.9646   -6.7173   -0.8592 O   0  0  0  0  0  0  0  0  0  0  0  0
  1  2  2  0
  5  1  1  1
  2  6  1  0
  7  3  1  6
  3 13  2  0
  3 14  1  0
  4  5  1  0
  4  6  1  0
  5  7  1  0
  6 12  1  6
  7 12  1  0
  8 11  1  0
  9 11  1  0
 10 11  1  0
 11 14  1  0
M  END
>  <ref_pdb>  (32) 
x0102_0B

>  <ref_mols>  (32) 
x1083_0A,x1247_0A,x1052_0A,x1020_0A,x1140_0A,x1305_0B

>  <original SMILES>  (32) 
CC(C)(C)OC(=O)C1NC2CC1C=C2

>  <Score>  (32) 
-0.91335920322057973

$$$$
EN300-6861790
     RDKit          3D

 11 12  0  0  1  0  0  0  0  0999 V2000
   -2.3077   -7.8458    2.8388 C   0  0  0  0  0  0  0  0  0  0  0  0
   -1.9327   -7.0294    1.5918 C   0  0  0  0  0  0  0  0  0  0  0  0
   -3.1317   -8.9582    0.9042 C   0  0  0  0  0  0  0  0  0  0  0  0
   -4.7319   -7.7621    2.1975 C   0  0  0  0  0  0  0  0  0  0  0  0
   -3.5070   -8.6822    2.3583 C   0  0  2  0  0  0  0  0  0  0  0  0
   -2.9866   -7.4733    0.5613 C   0  0  1  0  0  0  0  0  0  0  0  0
   -4.3486   -6.8929    0.9890 C   0  0  1  0  0  0  0  0  0  0  0  0
   -5.0934   -8.4559   -1.0243 N   0  0  0  0  0  0  0  0  0  0  0  0
   -6.8573   -7.1305    0.2981 O   0  0  0  0  0  0  0  0  0  0  0  0
   -5.2772   -5.8994   -1.2423 O   0  0  0  0  0  0  0  0  0  0  0  0
   -5.5455   -6.9772   -0.3063 S   0  0  0  0  0  0  0  0  0  0  0  0
  1  2  1  0
  5  1  1  1
  6  2  1  1
  3  5  1  0
  3  6  1  0
  4  5  1  0
  4  7  1  0
  6  7  1  0
  7 11  1  6
  8 11  1  0
  9 11  2  0
 10 11  2  0
M  END
>  <ref_pdb>  (33) 
x0102_0B

>  <ref_mols>  (33) 
x1083_0A,x1247_0A,x1052_0A,x1020_0A,x1140_0A,x1305_0B

>  <original SMILES>  (33) 
NS(=O)(=O)C1C[C@@H]2CC[C@H]1C2 |&1:6,9,r|

>  <Score>  (33) 
-0.75673767650062018

$$$$
EN300-244104
     RDKit          3D

 11 12  0  0  1  0  0  0  0  0999 V2000
   -2.3077   -7.8458    2.8388 C   0  0  0  0  0  0  0  0  0  0  0  0
   -1.9327   -7.0294    1.5918 C   0  0  0  0  0  0  0  0  0  0  0  0
   -3.1317   -8.9582    0.9042 C   0  0  0  0  0  0  0  0  0  0  0  0
   -4.7319   -7.7621    2.1975 C   0  0  0  0  0  0  0  0  0  0  0  0
   -3.5070   -8.6822    2.3583 C   0  0  2  0  0  0  0  0  0  0  0  0
   -2.9866   -7.4733    0.5613 C   0  0  1  0  0  0  0  0  0  0  0  0
   -4.3486   -6.8929    0.9890 C   0  0  1  0  0  0  0  0  0  0  0  0
   -5.0934   -8.4559   -1.0243 N   0  0  0  0  0  0  0  0  0  0  0  0
   -6.8573   -7.1305    0.2981 O   0  0  0  0  0  0  0  0  0  0  0  0
   -5.2772   -5.8994   -1.2423 O   0  0  0  0  0  0  0  0  0  0  0  0
   -5.5455   -6.9772   -0.3063 S   0  0  0  0  0  0  0  0  0  0  0  0
  1  2  1  0
  5  1  1  1
  6  2  1  1
  3  5  1  0
  3  6  1  0
  4  5  1  0
  4  7  1  0
  6  7  1  0
  7 11  1  6
  8 11  1  0
  9 11  2  0
 10 11  2  0
M  END
>  <ref_pdb>  (34) 
x0102_0B

>  <ref_mols>  (34) 
x1083_0A,x1247_0A,x1052_0A,x1020_0A,x1140_0A,x1305_0B

>  <original SMILES>  (34) 
NS(=O)(=O)C1C[C@@H]2CC[C@H]1C2

>  <Score>  (34) 
-0.75673767650062018

$$$$
EN300-1823236
     RDKit          3D

 12 14  0  0  1  0  0  0  0  0999 V2000
   -2.2683   -8.8755    1.0384 C   0  0  0  0  0  0  0  0  0  0  0  0
   -2.3817   -7.7020    0.3992 C   0  0  0  0  0  0  0  0  0  0  0  0
   -6.9397   -6.5346   -1.1535 C   0  0  0  0  0  0  0  0  0  0  0  0
   -5.5243   -6.0542   -0.7685 C   0  0  0  0  0  0  0  0  0  0  0  0
   -6.8776   -7.5276    0.0264 C   0  0  0  0  0  0  0  0  0  0  0  0
   -2.6448   -7.2646    2.6512 C   0  0  0  0  0  0  0  0  0  0  0  0
   -4.4949   -8.6560    2.0798 C   0  0  0  0  0  0  0  0  0  0  0  0
   -2.9775   -8.7320    2.3640 C   0  0  1  0  0  0  0  0  0  0  0  0
   -3.1746   -6.7792    1.2956 C   0  0  2  0  0  0  0  0  0  0  0  0
   -4.6451   -7.2668    1.3848 C   0  0  1  0  0  0  0  0  0  0  0  0
   -5.3382   -7.3583    0.0460 C   0  0  0  0  0  0  0  0  0  0  0  0
   -4.7364   -8.3763   -0.8253 N   0  0  0  0  0  0  0  0  0  0  0  0
  1  2  2  0
  1  8  1  0
  9  2  1  6
  3  4  1  0
  3  5  1  0
  4 11  1  0
  5 11  1  0
  6  8  1  0
  6  9  1  0
  8  7  1  6
  7 10  1  0
  9 10  1  0
 10 11  1  6
 11 12  1  0
M  END
>  <ref_pdb>  (35) 
x0102_0B

>  <ref_mols>  (35) 
x1083_0A,x1247_0A,x1052_0A,x1020_0A,x1140_0A,x1305_0B

>  <original SMILES>  (35) 
NC1(CCC1)C2CC3CC2C=C3

>  <Score>  (35) 
-0.29055024334093105

$$$$
EN300-1823247
     RDKit          3D

 13 15  0  0  1  0  0  0  0  0999 V2000
   -4.1348   -7.4482    2.7628 C   0  0  0  0  0  0  0  0  0  0  0  0
   -4.6381   -8.2662    1.8268 C   0  0  0  0  0  0  0  0  0  0  0  0
   -6.1001   -7.2070   -0.2620 C   0  0  0  0  0  0  0  0  0  0  0  0
   -2.4177   -8.8415    2.0932 C   0  0  0  0  0  0  0  0  0  0  0  0
   -2.3732   -6.6114    1.2505 C   0  0  0  0  0  0  0  0  0  0  0  0
   -4.5084   -7.9107   -1.7853 C   0  0  0  0  0  0  0  0  0  0  0  0
   -2.6399   -7.3975    2.5542 C   0  0  1  0  0  0  0  0  0  0  0  0
   -3.4789   -8.7537    0.9887 C   0  0  2  0  0  0  0  0  0  0  0  0
   -2.9058   -7.5808    0.1496 C   0  0  1  0  0  0  0  0  0  0  0  0
   -3.8917   -6.9301   -0.8085 C   0  0  2  0  0  0  0  0  0  0  0  0
   -5.8099   -8.1247   -1.2446 N   0  0  0  0  0  0  0  0  0  0  0  0
   -7.1586   -7.0846    0.3379 O   0  0  0  0  0  0  0  0  0  0  0  0
   -5.0034   -6.4121   -0.0486 O   0  0  0  0  0  0  0  0  0  0  0  0
  1  2  2  0
  1  7  1  0
  8  2  1  1
  3 11  1  0
  3 12  2  0
  3 13  1  0
  4  7  1  0
  4  8  1  0
  7  5  1  6
  9  5  1  1
 10  6  1  6
  6 11  1  0
  8  9  1  0
  9 10  1  0
 10 13  1  0
M  END
>  <ref_pdb>  (36) 
x0102_0B

>  <ref_mols>  (36) 
x1083_0A,x1247_0A,x1052_0A,x1020_0A,x1140_0A,x1305_0B

>  <original SMILES>  (36) 
O=C1NCC(O1)C2CC3CC2C=C3

>  <Score>  (36) 
-0.933962676644569

$$$$
EN300-7354076
     RDKit          3D

 16 17  0  0  0  0  0  0  0  0999 V2000
   -2.9513   -8.7034    3.7625 C   0  0  0  0  0  0  0  0  0  0  0  0
   -5.4240   -6.9810   -0.2363 C   0  0  0  0  0  0  0  0  0  0  0  0
   -2.5929   -8.8397    1.1077 C   0  0  0  0  0  0  0  0  0  0  0  0
   -2.4382   -6.8946    1.8505 C   0  0  0  0  0  0  0  0  0  0  0  0
   -4.7081   -7.8939    2.0056 C   0  0  0  0  0  0  0  0  0  0  0  0
   -2.9934   -7.4519    0.4912 C   0  0  2  0  0  0  0  0  0  0  0  0
   -3.2326   -8.1517    2.3734 C   0  0  2  0  0  0  0  0  0  0  0  0
   -5.8856   -8.8834   -1.9744 C   0  0  0  0  0  0  0  0  0  0  0  0
   -7.8766   -9.5826   -0.6120 C   0  0  0  0  0  0  0  0  0  0  0  0
   -7.9868   -7.4986   -2.0095 C   0  0  0  0  0  0  0  0  0  0  0  0
   -7.0865   -8.3980   -1.1638 C   0  0  0  0  0  0  0  0  0  0  0  0
   -4.4604   -7.3971    0.6534 N   0  0  0  0  0  0  0  0  0  0  0  0
   -3.7996   -9.1206    4.5370 O   0  0  0  0  0  0  0  0  0  0  0  0
   -5.2442   -6.1215   -1.0954 O   0  0  0  0  0  0  0  0  0  0  0  0
   -1.6233   -8.6687    4.0316 O   0  0  0  0  0  0  0  0  0  0  0  0
   -6.6065   -7.6416   -0.0467 O   0  0  0  0  0  0  0  0  0  0  0  0
  7  1  1  1
  1 13  2  0
  1 15  1  0
  2 12  1  0
  2 14  2  0
  2 16  1  0
  6  3  1  1
  3  7  1  0
  4  6  1  0
  4  7  1  0
  5  7  1  0
  5 12  1  0
  6 12  1  0
  8 11  1  0
  9 11  1  0
 10 11  1  0
 11 16  1  0
M  END
>  <ref_pdb>  (37) 
x0102_0B

>  <ref_mols>  (37) 
x1083_0A,x1247_0A,x1052_0A,x1020_0A,x1140_0A,x1305_0B

>  <original SMILES>  (37) 
CC(C)(C)OC(=O)N1CC2(CC1C2)C(=O)O

>  <Score>  (37) 
-1.4555626504518386

$$$$
EN300-28309295
     RDKit          3D

 16 17  0  0  0  0  0  0  0  0999 V2000
   -2.9512   -8.7035    3.7625 C   0  0  0  0  0  0  0  0  0  0  0  0
   -5.4240   -6.9809   -0.2362 C   0  0  0  0  0  0  0  0  0  0  0  0
   -2.5929   -8.8395    1.1079 C   0  0  0  0  0  0  0  0  0  0  0  0
   -2.4384   -6.8941    1.8503 C   0  0  0  0  0  0  0  0  0  0  0  0
   -4.7081   -7.8938    2.0058 C   0  0  0  0  0  0  0  0  0  0  0  0
   -2.9936   -7.4519    0.4912 C   0  0  2  0  0  0  0  0  0  0  0  0
   -3.2326   -8.1512    2.3735 C   0  0  2  0  0  0  0  0  0  0  0  0
   -5.8866   -8.8840   -1.9738 C   0  0  0  0  0  0  0  0  0  0  0  0
   -7.8775   -9.5821   -0.6106 C   0  0  0  0  0  0  0  0  0  0  0  0
   -7.9875   -7.4986   -2.0088 C   0  0  0  0  0  0  0  0  0  0  0  0
   -7.0871   -8.3979   -1.1631 C   0  0  0  0  0  0  0  0  0  0  0  0
   -4.4605   -7.3974    0.6534 N   0  0  0  0  0  0  0  0  0  0  0  0
   -3.7995   -9.1206    4.5370 O   0  0  0  0  0  0  0  0  0  0  0  0
   -5.2442   -6.1217   -1.0955 O   0  0  0  0  0  0  0  0  0  0  0  0
   -1.6232   -8.6691    4.0314 O   0  0  0  0  0  0  0  0  0  0  0  0
   -6.6066   -7.6413   -0.0464 O   0  0  0  0  0  0  0  0  0  0  0  0
  7  1  1  1
  1 13  2  0
  1 15  1  0
  2 12  1  0
  2 14  2  0
  2 16  1  0
  6  3  1  1
  3  7  1  0
  4  6  1  0
  4  7  1  0
  5  7  1  0
  5 12  1  0
  6 12  1  0
  8 11  1  0
  9 11  1  0
 10 11  1  0
 11 16  1  0
M  END
>  <ref_pdb>  (38) 
x0102_0B

>  <ref_mols>  (38) 
x1083_0A,x1247_0A,x1052_0A,x1020_0A,x1140_0A,x1305_0B

>  <original SMILES>  (38) 
CC(C)(C)OC(=O)N1C[C@]2(C[C@@H]1C2)C(=O)O

>  <Score>  (38) 
-1.457278432440944

$$$$
EN300-1885773
     RDKit          3D

 20 22  0  0  1  0  0  0  0  0999 V2000
   -4.3608   -9.4637    3.3154 C   0  0  0  0  0  0  0  0  0  0  0  0
   -2.0316   -7.0545    1.9343 C   0  0  0  0  0  0  0  0  0  0  0  0
   -6.1541   -7.8616    1.1083 C   0  0  0  0  0  0  0  0  0  0  0  0
   -6.0311   -6.3227   -0.3944 C   0  0  0  0  0  0  0  0  0  0  0  0
   -2.9167   -9.2360    1.2224 C   0  0  0  0  0  0  0  0  0  0  0  0
   -2.5255   -7.8586    0.6650 C   0  0  1  0  0  0  0  0  0  0  0  0
   -3.7509   -6.8702    0.7827 C   0  0  2  0  0  0  0  0  0  0  0  0
   -3.5567   -7.2616    2.2943 C   0  0  1  0  0  0  0  0  0  0  0  0
   -5.0361   -7.3657    0.1634 C   0  0  0  0  0  0  0  0  0  0  0  0
   -7.1946   -7.1415    0.2160 C   0  0  0  0  0  0  0  0  0  0  0  0
   -5.9071  -11.3160    4.8442 C   0  0  0  0  0  0  0  0  0  0  0  0
   -5.5006  -12.9268    2.9601 C   0  0  0  0  0  0  0  0  0  0  0  0
   -3.5613  -12.0359    4.2843 C   0  0  0  0  0  0  0  0  0  0  0  0
   -4.9496  -11.7261    3.7262 C   0  0  0  0  0  0  0  0  0  0  0  0
   -3.6784   -8.7352    2.3694 N   0  0  0  0  0  0  0  0  0  0  0  0
   -4.8032   -8.3909   -0.8623 N   0  0  0  0  0  0  0  0  0  0  0  0
   -4.5237   -9.1033    4.4783 O   0  0  0  0  0  0  0  0  0  0  0  0
   -4.8369  -10.6389    2.8011 O   0  0  0  0  0  0  0  0  0  0  0  0
   -7.8580   -7.9380   -0.6538 F   0  0  0  0  0  0  0  0  0  0  0  0
   -8.1296   -6.4224    0.8758 F   0  0  0  0  0  0  0  0  0  0  0  0
  1 15  1  0
  1 17  2  0
  1 18  1  0
  6  2  1  1
  8  2  1  6
  3  9  1  0
  3 10  1  0
  4  9  1  0
  4 10  1  0
  5  6  1  0
  5 15  1  0
  6  7  1  0
  7  8  1  0
  7  9  1  6
  8 15  1  0
  9 16  1  0
 10 19  1  0
 10 20  1  0
 11 14  1  0
 12 14  1  0
 13 14  1  0
 14 18  1  0
M  END
>  <ref_pdb>  (39) 
x0102_0B

>  <ref_mols>  (39) 
x1083_0A,x1247_0A,x1052_0A,x1020_0A,x1140_0A,x1305_0B

>  <original SMILES>  (39) 
CC(C)(C)OC(=O)N1C[C@@H]2C[C@H]1C2C3(N)CC(F)(F)C3

>  <Score>  (39) 
-1.2207011233041385

$$$$
EN300-764787
     RDKit          3D

 11 13  0  0  1  0  0  0  0  0999 V2000
   -6.0475   -7.4053   -0.3653 C   0  0  0  0  0  0  0  0  0  0  0  0
   -2.0912   -9.1694    2.0847 C   0  0  0  0  0  0  0  0  0  0  0  0
   -2.7803   -8.4158    3.2505 C   0  0  0  0  0  0  0  0  0  0  0  0
   -2.2142   -6.8673    1.5541 C   0  0  0  0  0  0  0  0  0  0  0  0
   -4.7363   -7.1567    0.2498 C   0  0  2  0  0  0  0  0  0  0  0  0
   -2.3531   -8.2396    0.8764 C   0  0  2  0  0  0  0  0  0  0  0  0
   -3.3449   -7.1552    2.5540 C   0  0  1  0  0  0  0  0  0  0  0  0
   -3.8404   -8.3390    0.5478 C   0  0  1  0  0  0  0  0  0  0  0  0
   -4.5067   -7.6106    1.6747 C   0  0  2  0  0  0  0  0  0  0  0  0
   -5.9841   -8.1270   -1.5336 N   0  0  0  0  0  0  0  0  0  0  0  0
   -7.0931   -7.0099    0.1444 O   0  0  0  0  0  0  0  0  0  0  0  0
  5  1  1  6
  1 10  1  0
  1 11  2  0
  2  3  1  0
  6  2  1  1
  7  3  1  1
  4  6  1  0
  4  7  1  0
  5  8  1  0
  5  9  1  0
  8  6  1  1
  9  7  1  1
  8  9  1  0
M  END
>  <ref_pdb>  (40) 
x0102_0B

>  <ref_mols>  (40) 
x1083_0A,x1247_0A,x1052_0A,x1020_0A,x1140_0A,x1305_0B

>  <original SMILES>  (40) 
NC(=O)[C@H]1[C@H]2[C@@H]1[C@@H]3CC[C@H]2C3

>  <Score>  (40) 
-3.6381750038005976

$$$$
EN300-27100534
     RDKit          3D

 13 14  0  0  1  0  0  0  0  0999 V2000
   -4.6469   -7.0716    1.8026 C   0  0  0  0  0  0  0  0  0  0  0  0
   -4.8038   -7.4958    0.5380 C   0  0  0  0  0  0  0  0  0  0  0  0
   -6.1407   -7.4571   -0.0529 C   0  0  0  0  0  0  0  0  0  0  0  0
   -3.6525   -8.0200   -0.2803 C   0  0  0  0  0  0  0  0  0  0  0  0
   -2.1996   -6.8415    1.3877 C   0  0  0  0  0  0  0  0  0  0  0  0
   -2.3720   -9.2197    1.5933 C   0  0  0  0  0  0  0  0  0  0  0  0
   -3.2785   -7.1160    2.4475 C   0  0  2  0  0  0  0  0  0  0  0  0
   -2.3335   -8.1012    0.5285 C   0  0  1  0  0  0  0  0  0  0  0  0
   -2.9708   -8.5674    2.8556 C   0  0  2  0  0  0  0  0  0  0  0  0
   -7.3090   -7.9502   -2.0422 C   0  0  0  0  0  0  0  0  0  0  0  0
   -7.1333   -7.0586    0.5392 O   0  0  0  0  0  0  0  0  0  0  0  0
   -1.9960   -8.5820    3.8936 O   0  0  0  0  0  0  0  0  0  0  0  0
   -6.0702   -7.9262   -1.3255 O   0  0  0  0  0  0  0  0  0  0  0  0
  1  2  2  0
  7  1  1  6
  2  3  1  0
  2  4  1  0
  3 11  2  0
  3 13  1  0
  8  4  1  1
  5  7  1  0
  5  8  1  0
  6  8  1  0
  6  9  1  0
  7  9  1  0
  9 12  1  1
 10 13  1  0
M  END
>  <ref_pdb>  (41) 
x0102_0B

>  <ref_mols>  (41) 
x1083_0A,x1247_0A,x1052_0A,x1020_0A,x1140_0A,x1305_0B

>  <original SMILES>  (41) 
COC(=O)C1=C[C@@H]2C[C@@H](C[C@H]2O)C1 |&1:6,8,10,r|

>  <Score>  (41) 
-0.41580056151838107

$$$$
EN300-1746838
     RDKit          3D

 15 17  0  0  1  0  0  0  0  0999 V2000
   -4.3926   -7.9312    2.2161 C   0  0  0  0  0  0  0  0  0  0  0  0
   -3.7763   -7.7413    0.9719 C   0  0  0  0  0  0  0  0  0  0  0  0
   -3.3969   -8.4169    3.0326 C   0  0  0  0  0  0  0  0  0  0  0  0
   -0.9748   -9.3298    4.0585 C   0  0  0  0  0  0  0  0  0  0  0  0
   -1.0450   -8.9524    2.7780 C   0  0  0  0  0  0  0  0  0  0  0  0
   -2.2509   -9.2107    4.8082 C   0  0  0  0  0  0  0  0  0  0  0  0
   -6.1430   -8.8717   -0.7820 C   0  0  0  0  0  0  0  0  0  0  0  0
   -7.1935   -7.7777   -0.6664 C   0  0  0  0  0  0  0  0  0  0  0  0
   -5.5430   -6.1822   -0.1304 C   0  0  0  0  0  0  0  0  0  0  0  0
   -4.4160   -7.2169   -0.3092 C   0  0  2  0  0  0  0  0  0  0  0  0
   -2.4862   -8.0750    0.9752 N   0  0  0  0  0  0  0  0  0  0  0  0
   -3.3879   -8.7873    4.3452 N   0  0  0  0  0  0  0  0  0  0  0  0
   -2.2466   -8.4930    2.2456 N   0  0  0  0  0  0  0  0  0  0  0  0
   -4.8672   -8.2980   -1.2011 N   0  0  0  0  0  0  0  0  0  0  0  0
   -6.7734   -6.7885    0.2709 O   0  0  0  0  0  0  0  0  0  0  0  0
  1  2  1  0
  1  3  2  0
 10  2  1  1
  2 11  2  0
  3 12  1  0
  3 13  1  0
  4  5  2  0
  4  6  1  0
  5 13  1  0
  6 12  2  0
  7  8  1  0
  7 14  1  0
  8 15  1  0
  9 10  1  0
  9 15  1  0
 10 14  1  0
 11 13  1  0
M  END
>  <ref_pdb>  (42) 
x0102_0B

>  <ref_mols>  (42) 
x1083_0A,x1247_0A,x1052_0A,x1020_0A,x1140_0A,x1305_0B

>  <original SMILES>  (42) 
C1COCC(N1)C=2C=C3N=CC=CN3N2

>  <Score>  (42) 
-0.79591481862917135

$$$$
EN300-7456668
     RDKit          3D

 15 16  0  0  0  0  0  0  0  0999 V2000
   -5.6672   -7.0418   -0.0694 C   0  0  0  0  0  0  0  0  0  0  0  0
   -2.5468   -6.9040    1.8114 C   0  0  0  0  0  0  0  0  0  0  0  0
   -2.7354   -8.8642    1.1009 C   0  0  0  0  0  0  0  0  0  0  0  0
   -4.7953   -7.9208    2.1303 C   0  0  0  0  0  0  0  0  0  0  0  0
   -3.1892   -7.4842    0.4985 C   0  0  1  0  0  0  0  0  0  0  0  0
   -3.2957   -8.1628    2.3992 C   0  0  2  0  0  0  0  0  0  0  0  0
   -6.6456   -8.4623   -1.9140 C   0  0  0  0  0  0  0  0  0  0  0  0
   -6.4264   -6.3975   -3.3275 C   0  0  0  0  0  0  0  0  0  0  0  0
   -4.5013   -8.0005   -3.1483 C   0  0  0  0  0  0  0  0  0  0  0  0
   -2.9415   -8.6901    3.7594 C   0  0  0  0  0  0  0  0  0  0  0  0
   -5.6918   -7.3802   -2.4183 C   0  0  0  0  0  0  0  0  0  0  0  0
   -4.6427   -7.4388    0.7590 N   0  0  0  0  0  0  0  0  0  0  0  0
   -6.8533   -7.0451    0.2502 O   0  0  0  0  0  0  0  0  0  0  0  0
   -1.5290   -8.6460    3.9330 O   0  0  0  0  0  0  0  0  0  0  0  0
   -5.2026   -6.6433   -1.2925 O   0  0  0  0  0  0  0  0  0  0  0  0
  1 12  1  0
  1 13  2  0
  1 15  1  0
  5  2  1  1
  2  6  1  0
  3  5  1  0
  3  6  1  0
  4  6  1  0
  4 12  1  0
  5 12  1  0
  6 10  1  1
  7 11  1  0
  8 11  1  0
  9 11  1  0
 10 14  1  0
 11 15  1  0
M  END
>  <ref_pdb>  (43) 
x0102_0B

>  <ref_mols>  (43) 
x1083_0A,x1247_0A,x1052_0A,x1020_0A,x1140_0A,x1305_0B

>  <original SMILES>  (43) 
CC(C)(C)OC(=O)N1CC2(CO)CC1C2

>  <Score>  (43) 
-3.1401611771600528

$$$$
EN300-27734302
     RDKit          3D

 11 12  0  0  1  0  0  0  0  0999 V2000
   -2.9720   -9.3405    1.3741 C   0  0  0  0  0  0  0  0  0  0  0  0
   -4.3730   -9.0161    1.8931 C   0  0  0  0  0  0  0  0  0  0  0  0
   -2.7683   -7.0504    0.3611 C   0  0  0  0  0  0  0  0  0  0  0  0
   -2.2766   -7.9839    1.4686 C   0  0  1  0  0  0  0  0  0  0  0  0
   -4.2844   -7.5101    2.1405 C   0  0  2  0  0  0  0  0  0  0  0  0
   -4.1654   -6.6807    0.8619 C   0  0  2  0  0  0  0  0  0  0  0  0
   -4.9205   -8.4156   -1.0012 N   0  0  0  0  0  0  0  0  0  0  0  0
   -6.6885   -7.1694    0.3908 O   0  0  0  0  0  0  0  0  0  0  0  0
   -5.3469   -5.9008   -1.3343 O   0  0  0  0  0  0  0  0  0  0  0  0
   -2.9220   -7.4139    2.6326 O   0  0  0  0  0  0  0  0  0  0  0  0
   -5.4359   -6.9391   -0.3165 S   0  0  0  0  0  0  0  0  0  0  0  0
  1  2  1  0
  4  1  1  6
  5  2  1  6
  3  4  1  0
  3  6  1  0
  4 10  1  0
  5  6  1  0
  5 10  1  0
  6 11  1  6
  7 11  1  0
  8 11  2  0
  9 11  2  0
M  END
>  <ref_pdb>  (44) 
x0102_0B

>  <ref_mols>  (44) 
x1083_0A,x1247_0A,x1052_0A,x1020_0A,x1140_0A,x1305_0B

>  <original SMILES>  (44) 
NS(=O)(=O)[C@@H]1C[C@@H]2CC[C@H]1O2 |&1:4,6,9,r|

>  <Score>  (44) 
-0.26134218174888701

$$$$
EN300-37419434
     RDKit          3D

 13 15  0  0  1  0  0  0  0  0999 V2000
   -6.4496   -6.7825    0.0502 C   0  0  0  0  0  0  0  0  0  0  0  0
   -1.6007   -7.8000    2.4637 C   0  0  0  0  0  0  0  0  0  0  0  0
   -2.8345   -7.9629    3.3646 C   0  0  0  0  0  0  0  0  0  0  0  0
   -3.6246   -7.4480   -0.8981 C   0  0  0  0  0  0  0  0  0  0  0  0
   -5.4888   -7.8595    0.4464 C   0  0  2  0  0  0  0  0  0  0  0  0
   -2.4208   -8.2756    1.2599 C   0  0  1  0  0  0  0  0  0  0  0  0
   -3.6347   -8.4839    2.1644 C   0  0  2  0  0  0  0  0  0  0  0  0
   -3.1623   -7.1445    0.5200 C   0  0  2  0  0  0  0  0  0  0  0  0
   -4.3997   -7.3827    1.4013 C   0  0  1  0  0  0  0  0  0  0  0  0
   -6.5642   -4.6255   -0.9082 C   0  0  0  0  0  0  0  0  0  0  0  0
   -4.8202   -8.2958   -0.7880 N   0  0  0  0  0  0  0  0  0  0  0  0
   -7.6622   -6.8590    0.1943 O   0  0  0  0  0  0  0  0  0  0  0  0
   -5.7627   -5.7326   -0.4835 O   0  0  0  0  0  0  0  0  0  0  0  0
  5  1  1  6
  1 12  2  0
  1 13  1  0
  2  3  1  0
  6  2  1  1
  7  3  1  1
  8  4  1  6
  4 11  1  0
  9  5  1  6
  5 11  1  0
  6  7  1  0
  6  8  1  0
  7  9  1  0
  8  9  1  0
 10 13  1  0
M  END
>  <ref_pdb>  (45) 
x0102_0B

>  <ref_mols>  (45) 
x1083_0A,x1247_0A,x1052_0A,x1020_0A,x1140_0A,x1305_0B

>  <original SMILES>  (45) 
COC(=O)C1NCC2C3CCC3C21

>  <Score>  (45) 
-1.8213060490703583

$$$$
EN300-7354809
     RDKit          3D

 14 16  0  0  1  0  0  0  0  0999 V2000
   -5.7147   -6.8804   -1.2072 C   0  0  0  0  0  0  0  0  0  0  0  0
   -6.5911   -7.2179   -0.1563 C   0  0  0  0  0  0  0  0  0  0  0  0
   -4.3334   -7.0392   -1.0722 C   0  0  0  0  0  0  0  0  0  0  0  0
   -6.1063   -7.7218    1.0542 C   0  0  0  0  0  0  0  0  0  0  0  0
   -3.8687   -7.5451    0.1224 C   0  0  0  0  0  0  0  0  0  0  0  0
   -4.7424   -7.8835    1.1748 C   0  0  0  0  0  0  0  0  0  0  0  0
   -4.5134   -9.2280    3.3273 C   0  0  0  0  0  0  0  0  0  0  0  0
   -2.1352   -6.7699    1.6974 C   0  0  0  0  0  0  0  0  0  0  0  0
   -3.0993   -7.1377    2.8617 C   0  0  0  0  0  0  0  0  0  0  0  0
   -2.7644   -9.0495    1.4839 C   0  0  0  0  0  0  0  0  0  0  0  0
   -2.4651   -7.8161    0.6120 C   0  0  1  0  0  0  0  0  0  0  0  0
   -3.8670   -8.3587    2.3122 C   0  0  2  0  0  0  0  0  0  0  0  0
   -5.4415   -9.9922    3.1084 O   0  0  0  0  0  0  0  0  0  0  0  0
   -3.9343   -9.0587    4.5412 O   0  0  0  0  0  0  0  0  0  0  0  0
  1  2  2  0
  1  3  1  0
  2  4  1  0
  3  5  2  0
  4  6  2  0
  5  6  1  0
  5 11  1  0
  6 12  1  0
 12  7  1  1
  7 13  2  0
  7 14  1  0
  8  9  1  0
 11  8  1  1
  9 12  1  0
 10 11  1  0
 10 12  1  0
M  END
>  <ref_pdb>  (46) 
x0102_0B

>  <ref_mols>  (46) 
x1083_0A,x1247_0A,x1052_0A,x1020_0A,x1140_0A,x1305_0B

>  <original SMILES>  (46) 
OC(=O)C1(CCC2C1)C=3C=CC=CC23

>  <Score>  (46) 
-1.1279876405460527

$$$$
EN300-19736
     RDKit          3D

 10 12  0  0  1  0  0  0  0  0999 V2000
   -5.5280   -6.7643   -0.6550 C   0  0  0  0  0  0  0  0  0  0  0  0
   -5.6560   -6.5933    0.6634 C   0  0  0  0  0  0  0  0  0  0  0  0
   -3.0086   -8.1790    2.9486 C   0  0  0  0  0  0  0  0  0  0  0  0
   -2.4019   -8.9196    2.0078 C   0  0  0  0  0  0  0  0  0  0  0  0
   -4.6144   -7.8908   -1.0085 C   0  0  0  0  0  0  0  0  0  0  0  0
   -2.6168   -6.7932    1.1494 C   0  0  0  0  0  0  0  0  0  0  0  0
   -3.6707   -7.0156    2.2434 C   0  0  1  0  0  0  0  0  0  0  0  0
   -2.6595   -8.2503    0.6747 C   0  0  2  0  0  0  0  0  0  0  0  0
   -4.8690   -7.5915    1.4473 C   0  0  2  0  0  0  0  0  0  0  0  0
   -4.1635   -8.4570    0.3452 C   0  0  1  0  0  0  0  0  0  0  0  0
  1  2  2  0
  1  5  1  0
  9  2  1  6
  3  4  2  0
  7  3  1  1
  8  4  1  1
 10  5  1  6
  6  7  1  0
  6  8  1  0
  7  9  1  0
  8 10  1  0
  9 10  1  0
M  END
>  <ref_pdb>  (47) 
x0102_0B

>  <ref_mols>  (47) 
x1083_0A,x1247_0A,x1052_0A,x1020_0A,x1140_0A,x1305_0B

>  <original SMILES>  (47) 
C1C=CC2C3CC(C=C3)C12

>  <Score>  (47) 
-0.85684983350074617

$$$$
EN300-650580
     RDKit          3D

 12 14  0  0  0  0  0  0  0  0999 V2000
   -6.6317   -7.2040   -0.5750 C   0  0  0  0  0  0  0  0  0  0  0  0
   -5.6109   -7.1146   -1.5238 C   0  0  0  0  0  0  0  0  0  0  0  0
   -6.3291   -7.4710    0.7578 C   0  0  0  0  0  0  0  0  0  0  0  0
   -4.2763   -7.2919   -1.1470 C   0  0  0  0  0  0  0  0  0  0  0  0
   -4.9951   -7.6457    1.1207 C   0  0  0  0  0  0  0  0  0  0  0  0
   -3.9362   -7.5617    0.1839 C   0  0  0  0  0  0  0  0  0  0  0  0
   -4.5800   -7.9352    2.5274 C   0  0  0  0  0  0  0  0  0  0  0  0
   -2.1550   -6.9721    2.0389 C   0  0  0  0  0  0  0  0  0  0  0  0
   -2.3232   -9.0344    1.6640 C   0  0  0  0  0  0  0  0  0  0  0  0
   -2.4509   -7.7808    0.7233 C   0  0  1  0  0  0  0  0  0  0  0  0
   -3.0098   -8.0984    2.7208 C   0  0  2  0  0  0  0  0  0  0  0  0
   -5.4313   -8.0258    3.4078 O   0  0  0  0  0  0  0  0  0  0  0  0
  1  2  2  0
  1  3  1  0
  2  4  1  0
  3  5  2  0
  4  6  2  0
  5  6  1  0
  5  7  1  0
  6 10  1  0
  7 11  1  0
  7 12  2  0
 10  8  1  1
 11  8  1  6
  9 10  1  0
  9 11  1  0
M  END
>  <ref_pdb>  (48) 
x0102_0B

>  <ref_mols>  (48) 
x1083_0A,x1247_0A,x1052_0A,x1020_0A,x1140_0A,x1305_0B

>  <original SMILES>  (48) 
O=C1C2CC(C2)C=3C=CC=CC13

>  <Score>  (48) 
-4.3904457344922321

$$$$
EN300-37375128
     RDKit          3D

 12 14  0  0  0  0  0  0  0  0999 V2000
   -6.6341   -7.2018   -0.5737 C   0  0  0  0  0  0  0  0  0  0  0  0
   -5.6150   -7.1284   -1.5257 C   0  0  0  0  0  0  0  0  0  0  0  0
   -6.3301   -7.4580    0.7609 C   0  0  0  0  0  0  0  0  0  0  0  0
   -4.2806   -7.3111   -1.1504 C   0  0  0  0  0  0  0  0  0  0  0  0
   -4.9964   -7.6382    1.1223 C   0  0  0  0  0  0  0  0  0  0  0  0
   -3.9393   -7.5703    0.1822 C   0  0  0  0  0  0  0  0  0  0  0  0
   -4.5799   -7.9172    2.5308 C   0  0  0  0  0  0  0  0  0  0  0  0
   -2.3326   -9.0396    1.6727 C   0  0  0  0  0  0  0  0  0  0  0  0
   -2.1497   -6.9750    2.0274 C   0  0  0  0  0  0  0  0  0  0  0  0
   -2.4542   -7.7944    0.7204 C   0  0  2  0  0  0  0  0  0  0  0  0
   -3.0104   -8.0889    2.7221 C   0  0  1  0  0  0  0  0  0  0  0  0
   -5.4296   -7.9937    3.4140 O   0  0  0  0  0  0  0  0  0  0  0  0
  1  2  2  0
  1  3  1  0
  2  4  1  0
  3  5  2  0
  4  6  2  0
  5  6  1  0
  5  7  1  0
  6 10  1  0
  7 11  1  0
  7 12  2  0
 10  8  1  1
 11  8  1  6
  9 10  1  0
  9 11  1  0
M  END
>  <ref_pdb>  (49) 
x0102_0B

>  <ref_mols>  (49) 
x1083_0A,x1247_0A,x1052_0A,x1020_0A,x1140_0A,x1305_0B

>  <original SMILES>  (49) 
O=C1[C@H]2C[C@H](C2)C=3C=CC=CC13

>  <Score>  (49) 
-4.4431177894819029

$$$$
EN300-6497331
     RDKit          3D

 11 13  0  0  1  0  0  0  0  0999 V2000
   -5.9300   -7.3180   -0.9175 C   0  0  0  0  0  0  0  0  0  0  0  0
   -5.0589   -6.2956   -0.1617 C   0  0  0  0  0  0  0  0  0  0  0  0
   -5.6197   -8.4124    0.1217 C   0  0  0  0  0  0  0  0  0  0  0  0
   -2.5256   -9.1054    2.1618 C   0  0  0  0  0  0  0  0  0  0  0  0
   -3.9020   -8.7019    2.7126 C   0  0  0  0  0  0  0  0  0  0  0  0
   -2.7287   -6.7353    2.0568 C   0  0  0  0  0  0  0  0  0  0  0  0
   -3.0182   -7.9241    0.0021 C   0  0  0  0  0  0  0  0  0  0  0  0
   -2.1417   -7.9100    1.2743 C   0  0  2  0  0  0  0  0  0  0  0  0
   -4.1429   -7.3247    2.0701 C   0  0  1  0  0  0  0  0  0  0  0  0
   -4.4049   -7.5258    0.5638 C   0  0  0  0  0  0  0  0  0  0  0  0
   -6.5873   -7.2802   -1.9347 O   0  0  0  0  0  0  0  0  0  0  0  0
  1  2  1  0
  1  3  1  0
  1 11  2  0
  2 10  1  0
  3 10  1  0
  4  5  1  0
  8  4  1  1
  9  5  1  1
  6  8  1  0
  6  9  1  0
  7  8  1  0
  7 10  1  0
  9 10  1  0
M  END
>  <ref_pdb>  (50) 
x0102_0B

>  <ref_mols>  (50) 
x1083_0A,x1247_0A,x1052_0A,x1020_0A,x1140_0A,x1305_0B

>  <original SMILES>  (50) 
O=C1CC2(C1)CC3CCC2C3

>  <Score>  (50) 
-1.1619825621513655

$$$$
EN300-7541081
     RDKit          3D

 10 12  0  0  1  0  0  0  0  0999 V2000
   -5.8932   -7.9397   -0.1252 C   0  0  0  0  0  0  0  0  0  0  0  0
   -4.7199   -8.3398   -0.6262 C   0  0  0  0  0  0  0  0  0  0  0  0
   -3.3249   -9.3065    1.8313 C   0  0  0  0  0  0  0  0  0  0  0  0
   -3.9102   -8.4995    2.7280 C   0  0  0  0  0  0  0  0  0  0  0  0
   -5.7567   -6.8795    0.9216 C   0  0  0  0  0  0  0  0  0  0  0  0
   -2.1238   -7.3407    1.8460 C   0  0  0  0  0  0  0  0  0  0  0  0
   -2.5755   -8.4263    0.8566 C   0  0  2  0  0  0  0  0  0  0  0  0
   -3.5496   -7.0793    2.3587 C   0  0  1  0  0  0  0  0  0  0  0  0
   -3.5711   -7.6130   -0.0124 C   0  0  2  0  0  0  0  0  0  0  0  0
   -4.2443   -6.6623    1.0337 C   0  0  1  0  0  0  0  0  0  0  0  0
  1  2  2  0
  1  5  1  0
  9  2  1  1
  3  4  2  0
  7  3  1  1
  8  4  1  6
 10  5  1  1
  6  7  1  0
  6  8  1  0
  7  9  1  0
  8 10  1  0
  9 10  1  0
M  END
>  <ref_pdb>  (51) 
x0102_0B

>  <ref_mols>  (51) 
x1083_0A,x1247_0A,x1052_0A,x1020_0A,x1140_0A,x1305_0B

>  <original SMILES>  (51) 
C1C=C[C@@H]2[C@H]3C[C@H](C=C3)[C@H]12 |&1:3,4,6,9,r|

>  <Score>  (51) 
-0.32034207112178592

$$$$
EN300-7682466
     RDKit          3D

 10 12  0  0  1  0  0  0  0  0999 V2000
   -5.0279   -7.5449   -0.8278 C   0  0  0  0  0  0  0  0  0  0  0  0
   -5.0696   -8.9751   -0.3694 C   0  0  0  0  0  0  0  0  0  0  0  0
   -2.5555   -6.7369    1.4347 C   0  0  0  0  0  0  0  0  0  0  0  0
   -2.3493   -9.1087    1.4072 C   0  0  0  0  0  0  0  0  0  0  0  0
   -4.8063   -7.4668    1.7836 C   0  0  0  0  0  0  0  0  0  0  0  0
   -2.7956   -7.9383    0.5087 C   0  0  1  0  0  0  0  0  0  0  0  0
   -3.4678   -7.2849    2.5433 C   0  0  1  0  0  0  0  0  0  0  0  0
   -2.8429   -8.6720    2.8024 C   0  0  2  0  0  0  0  0  0  0  0  0
   -4.3123   -7.9509    0.4360 C   0  0  0  0  0  0  0  0  0  0  0  0
   -1.7361   -8.5624    3.6863 O   0  0  0  0  0  0  0  0  0  0  0  0
  1  2  1  0
  1  9  1  0
  2  9  1  0
  3  6  1  0
  3  7  1  0
  6  4  1  1
  4  8  1  0
  7  5  1  6
  5  9  1  0
  6  9  1  0
  7  8  1  0
  8 10  1  1
M  END
>  <ref_pdb>  (52) 
x0102_0B

>  <ref_mols>  (52) 
x1083_0A,x1247_0A,x1052_0A,x1020_0A,x1140_0A,x1305_0B

>  <original SMILES>  (52) 
OC1CC2CC1CC32CC3

>  <Score>  (52) 
-2.2023373633542178

$$$$
EN300-1825497
     RDKit          3D

  9 10  0  0  1  0  0  0  0  0999 V2000
   -0.2504  -10.0696    2.6224 C   0  0  0  0  0  0  0  0  0  0  0  0
   -1.3447   -9.6879    2.3095 C   0  0  0  0  0  0  0  0  0  0  0  0
   -4.6454   -7.2612    1.2375 C   0  0  0  0  0  0  0  0  0  0  0  0
   -4.0588   -7.9994    0.2834 C   0  0  0  0  0  0  0  0  0  0  0  0
   -3.3324   -8.3372    3.0393 C   0  0  0  0  0  0  0  0  0  0  0  0
   -2.3701   -6.8983    1.4120 C   0  0  0  0  0  0  0  0  0  0  0  0
   -2.6849   -9.2206    1.9269 C   0  0  1  0  0  0  0  0  0  0  0  0
   -3.6079   -7.0045    2.3053 C   0  0  1  0  0  0  0  0  0  0  0  0
   -2.6320   -8.2448    0.7225 C   0  0  1  0  0  0  0  0  0  0  0  0
  1  2  3  0
  7  2  1  1
  3  4  2  0
  3  8  1  0
  9  4  1  1
  5  7  1  0
  8  5  1  1
  6  8  1  0
  6  9  1  0
  7  9  1  0
M  END
>  <ref_pdb>  (53) 
x0102_0B

>  <ref_mols>  (53) 
x1083_0A,x1247_0A,x1052_0A,x1020_0A,x1140_0A,x1305_0B

>  <original SMILES>  (53) 
C#CC1CC2CC1C=C2

>  <Score>  (53) 
-3.9878795297918259

$$$$
EN300-1723889
     RDKit          3D

 10 11  0  0  1  0  0  0  0  0999 V2000
   -2.6695   -6.6724    1.5109 C   0  0  0  0  0  0  0  0  0  0  0  0
   -2.2620   -9.0199    1.3632 C   0  0  0  0  0  0  0  0  0  0  0  0
   -4.8361   -7.6559    1.7562 C   0  0  0  0  0  0  0  0  0  0  0  0
   -2.7720   -7.8360    0.5224 C   0  0  1  0  0  0  0  0  0  0  0  0
   -3.5470   -7.3709    2.5580 C   0  0  1  0  0  0  0  0  0  0  0  0
   -2.8043   -8.7101    2.7755 C   0  0  2  0  0  0  0  0  0  0  0  0
   -4.2904   -7.9380    0.3580 C   0  0  0  0  0  0  0  0  0  0  0  0
   -1.7074   -8.5644    3.7274 N   0  0  0  0  0  0  0  0  0  0  0  0
   -4.7312   -6.9979   -0.5100 F   0  0  0  0  0  0  0  0  0  0  0  0
   -4.6761   -9.1379   -0.1115 F   0  0  0  0  0  0  0  0  0  0  0  0
  1  4  1  0
  1  5  1  0
  4  2  1  1
  2  6  1  0
  5  3  1  6
  3  7  1  0
  4  7  1  0
  5  6  1  0
  6  8  1  1
  7  9  1  0
  7 10  1  0
M  END
>  <ref_pdb>  (54) 
x0102_0B

>  <ref_mols>  (54) 
x1083_0A,x1247_0A,x1052_0A,x1020_0A,x1140_0A,x1305_0B

>  <original SMILES>  (54) 
Cl.NC1CC2CC1CC2(F)F

>  <Score>  (54) 
-0.80984551897108759

$$$$
EN300-1723890
     RDKit          3D

 10 11  0  0  1  0  0  0  0  0999 V2000
   -2.6695   -6.6724    1.5109 C   0  0  0  0  0  0  0  0  0  0  0  0
   -2.2620   -9.0199    1.3632 C   0  0  0  0  0  0  0  0  0  0  0  0
   -4.8361   -7.6559    1.7562 C   0  0  0  0  0  0  0  0  0  0  0  0
   -2.7720   -7.8360    0.5224 C   0  0  1  0  0  0  0  0  0  0  0  0
   -3.5470   -7.3709    2.5580 C   0  0  1  0  0  0  0  0  0  0  0  0
   -2.8043   -8.7101    2.7755 C   0  0  2  0  0  0  0  0  0  0  0  0
   -4.2904   -7.9380    0.3580 C   0  0  0  0  0  0  0  0  0  0  0  0
   -1.7074   -8.5644    3.7274 N   0  0  0  0  0  0  0  0  0  0  0  0
   -4.7312   -6.9979   -0.5100 F   0  0  0  0  0  0  0  0  0  0  0  0
   -4.6761   -9.1379   -0.1115 F   0  0  0  0  0  0  0  0  0  0  0  0
  1  4  1  0
  1  5  1  0
  4  2  1  1
  2  6  1  0
  5  3  1  6
  3  7  1  0
  4  7  1  0
  5  6  1  0
  6  8  1  1
  7  9  1  0
  7 10  1  0
M  END
>  <ref_pdb>  (55) 
x0102_0B

>  <ref_mols>  (55) 
x1083_0A,x1247_0A,x1052_0A,x1020_0A,x1140_0A,x1305_0B

>  <original SMILES>  (55) 
NC1CC2CC1CC2(F)F

>  <Score>  (55) 
-0.80984551897108759

$$$$
EN300-37153678
     RDKit          3D

 10 12  0  0  1  0  0  0  0  0999 V2000
   -5.3201   -7.3186   -0.5552 C   0  0  0  0  0  0  0  0  0  0  0  0
   -5.8149   -8.4061    0.3559 C   0  0  0  0  0  0  0  0  0  0  0  0
   -2.5623   -6.7094    1.4219 C   0  0  0  0  0  0  0  0  0  0  0  0
   -3.9428   -7.8996    2.9598 C   0  0  0  0  0  0  0  0  0  0  0  0
   -3.1915   -8.6573    0.1849 C   0  0  0  0  0  0  0  0  0  0  0  0
   -4.0440   -6.9875    1.7208 C   0  0  2  0  0  0  0  0  0  0  0  0
   -2.2093   -8.1991    1.2975 C   0  0  2  0  0  0  0  0  0  0  0  0
   -2.6930   -8.7635    2.6567 C   0  0  1  0  0  0  0  0  0  0  0  0
   -4.4248   -7.8525    0.5341 C   0  0  0  0  0  0  0  0  0  0  0  0
   -1.6936   -8.6233    3.7118 N   0  0  0  0  0  0  0  0  0  0  0  0
  1  2  1  0
  1  9  1  0
  2  9  1  0
  3  6  1  0
  3  7  1  0
  6  4  1  1
  4  8  1  0
  7  5  1  6
  5  9  1  0
  6  9  1  0
  7  8  1  0
  8 10  1  1
M  END
>  <ref_pdb>  (56) 
x0102_0B

>  <ref_mols>  (56) 
x1083_0A,x1247_0A,x1052_0A,x1020_0A,x1140_0A,x1305_0B

>  <original SMILES>  (56) 
Cl.NC1CC2CC1CC32CC3

>  <Score>  (56) 
-2.9760911922030573

$$$$
EN300-22878943
     RDKit          3D

 10 12  0  0  1  0  0  0  0  0999 V2000
   -5.3201   -7.3186   -0.5552 C   0  0  0  0  0  0  0  0  0  0  0  0
   -5.8149   -8.4061    0.3559 C   0  0  0  0  0  0  0  0  0  0  0  0
   -2.5623   -6.7094    1.4219 C   0  0  0  0  0  0  0  0  0  0  0  0
   -3.9428   -7.8996    2.9598 C   0  0  0  0  0  0  0  0  0  0  0  0
   -3.1915   -8.6573    0.1849 C   0  0  0  0  0  0  0  0  0  0  0  0
   -4.0440   -6.9875    1.7208 C   0  0  2  0  0  0  0  0  0  0  0  0
   -2.2093   -8.1991    1.2975 C   0  0  2  0  0  0  0  0  0  0  0  0
   -2.6930   -8.7635    2.6567 C   0  0  1  0  0  0  0  0  0  0  0  0
   -4.4248   -7.8525    0.5341 C   0  0  0  0  0  0  0  0  0  0  0  0
   -1.6936   -8.6233    3.7118 N   0  0  0  0  0  0  0  0  0  0  0  0
  1  2  1  0
  1  9  1  0
  2  9  1  0
  3  6  1  0
  3  7  1  0
  6  4  1  1
  4  8  1  0
  7  5  1  6
  5  9  1  0
  6  9  1  0
  7  8  1  0
  8 10  1  1
M  END
>  <ref_pdb>  (57) 
x0102_0B

>  <ref_mols>  (57) 
x1083_0A,x1247_0A,x1052_0A,x1020_0A,x1140_0A,x1305_0B

>  <original SMILES>  (57) 
NC1CC2CC1CC32CC3

>  <Score>  (57) 
-2.9760911922030573

$$$$
EN300-744258
     RDKit          3D

 13 15  0  0  1  0  0  0  0  0999 V2000
   -6.7852   -8.2100    1.3037 C   0  0  0  0  0  0  0  0  0  0  0  0
   -2.4771   -9.0951    2.2055 C   0  0  0  0  0  0  0  0  0  0  0  0
   -3.7798   -8.6066    2.8545 C   0  0  0  0  0  0  0  0  0  0  0  0
   -6.0511   -7.9936   -1.0286 C   0  0  0  0  0  0  0  0  0  0  0  0
   -2.6301   -6.7352    1.9583 C   0  0  0  0  0  0  0  0  0  0  0  0
   -3.1374   -8.0489    0.0285 C   0  0  0  0  0  0  0  0  0  0  0  0
   -5.7657   -6.5036   -1.0025 C   0  0  0  0  0  0  0  0  0  0  0  0
   -5.6662   -8.4400    0.3699 C   0  0  1  0  0  0  0  0  0  0  0  0
   -2.1465   -7.9726    1.2076 C   0  0  2  0  0  0  0  0  0  0  0  0
   -4.0546   -7.2808    2.1240 C   0  0  1  0  0  0  0  0  0  0  0  0
   -4.4651   -7.5337    0.6530 C   0  0  1  0  0  0  0  0  0  0  0  0
   -7.6652   -8.0294    2.0380 N   0  0  0  0  0  0  0  0  0  0  0  0
   -4.7839   -6.2746    0.0184 O   0  0  0  0  0  0  0  0  0  0  0  0
  8  1  1  1
  1 12  3  0
  2  3  1  0
  9  2  1  1
 10  3  1  1
  4  7  1  0
  4  8  1  0
  5  9  1  0
  5 10  1  0
  6  9  1  0
 11  6  1  6
  7 13  1  0
  8 11  1  0
 10 11  1  0
 11 13  1  0
M  END
>  <ref_pdb>  (58) 
x0102_0B

>  <ref_mols>  (58) 
x1083_0A,x1247_0A,x1052_0A,x1020_0A,x1140_0A,x1305_0B

>  <original SMILES>  (58) 
N#CC1CCOC21CC3CCC2C3

>  <Score>  (58) 
-1.8870342119255383

$$$$
EN300-6764026
     RDKit          3D

 10 11  0  0  1  0  0  0  0  0999 V2000
   -2.4346   -6.8202    1.3520 C   0  0  0  0  0  0  0  0  0  0  0  0
   -3.8889   -7.7578    2.9910 C   0  0  0  0  0  0  0  0  0  0  0  0
   -3.3402   -8.7541    0.2731 C   0  0  0  0  0  0  0  0  0  0  0  0
   -3.9185   -6.9024    1.7119 C   0  0  2  0  0  0  0  0  0  0  0  0
   -2.2700   -8.3453    1.3042 C   0  0  2  0  0  0  0  0  0  0  0  0
   -2.7592   -8.7612    2.7055 C   0  0  1  0  0  0  0  0  0  0  0  0
   -4.4482   -7.7362    0.5409 C   0  0  0  0  0  0  0  0  0  0  0  0
   -1.7225   -8.5998    3.6635 O   0  0  0  0  0  0  0  0  0  0  0  0
   -5.6266   -8.3216    0.8198 F   0  0  0  0  0  0  0  0  0  0  0  0
   -4.6291   -6.9516   -0.5472 F   0  0  0  0  0  0  0  0  0  0  0  0
  1  4  1  0
  1  5  1  0
  4  2  1  1
  2  6  1  0
  5  3  1  6
  3  7  1  0
  4  7  1  0
  5  6  1  0
  6  8  1  1
  7  9  1  0
  7 10  1  0
M  END
>  <ref_pdb>  (59) 
x0102_0B

>  <ref_mols>  (59) 
x1083_0A,x1247_0A,x1052_0A,x1020_0A,x1140_0A,x1305_0B

>  <original SMILES>  (59) 
OC1CC2CC1CC2(F)F

>  <Score>  (59) 
-0.29409879406796335

$$$$
EN300-6880612
     RDKit          3D

 11 13  0  0  1  0  0  0  0  0999 V2000
   -6.1682   -8.0211   -0.9376 C   0  0  0  0  0  0  0  0  0  0  0  0
   -2.5064   -9.1323    2.1726 C   0  0  0  0  0  0  0  0  0  0  0  0
   -3.7926   -8.6277    2.8410 C   0  0  0  0  0  0  0  0  0  0  0  0
   -5.6521   -8.4105    0.4397 C   0  0  0  0  0  0  0  0  0  0  0  0
   -2.6053   -6.7593    1.9983 C   0  0  0  0  0  0  0  0  0  0  0  0
   -3.1326   -8.0060    0.0260 C   0  0  0  0  0  0  0  0  0  0  0  0
   -5.6232   -6.6228   -1.1858 C   0  0  0  0  0  0  0  0  0  0  0  0
   -2.1461   -7.9869    1.2118 C   0  0  2  0  0  0  0  0  0  0  0  0
   -4.0413   -7.2779    2.1406 C   0  0  1  0  0  0  0  0  0  0  0  0
   -4.4548   -7.4963    0.6635 C   0  0  2  0  0  0  0  0  0  0  0  0
   -4.9181   -6.2480    0.0390 N   0  0  0  0  0  0  0  0  0  0  0  0
  1  4  1  0
  1  7  1  0
  2  3  1  0
  8  2  1  1
  9  3  1  1
 10  4  1  1
  5  8  1  0
  5  9  1  0
  6  8  1  0
  6 10  1  0
  7 11  1  0
  9 10  1  0
 10 11  1  0
M  END
>  <ref_pdb>  (60) 
x0102_0B

>  <ref_mols>  (60) 
x1083_0A,x1247_0A,x1052_0A,x1020_0A,x1140_0A,x1305_0B

>  <original SMILES>  (60) 
C1CNC2(C1)CC3CCC2C3

>  <Score>  (60) 
-0.29877403559328286

$$$$
EN300-27150167
     RDKit          3D

 11 13  0  0  1  0  0  0  0  0999 V2000
   -6.1682   -8.0211   -0.9376 C   0  0  0  0  0  0  0  0  0  0  0  0
   -2.5064   -9.1323    2.1726 C   0  0  0  0  0  0  0  0  0  0  0  0
   -3.7926   -8.6277    2.8410 C   0  0  0  0  0  0  0  0  0  0  0  0
   -5.6521   -8.4105    0.4397 C   0  0  0  0  0  0  0  0  0  0  0  0
   -2.6053   -6.7593    1.9983 C   0  0  0  0  0  0  0  0  0  0  0  0
   -3.1326   -8.0060    0.0260 C   0  0  0  0  0  0  0  0  0  0  0  0
   -5.6232   -6.6228   -1.1858 C   0  0  0  0  0  0  0  0  0  0  0  0
   -2.1461   -7.9869    1.2118 C   0  0  2  0  0  0  0  0  0  0  0  0
   -4.0413   -7.2779    2.1406 C   0  0  1  0  0  0  0  0  0  0  0  0
   -4.4548   -7.4963    0.6635 C   0  0  2  0  0  0  0  0  0  0  0  0
   -4.9181   -6.2480    0.0390 N   0  0  0  0  0  0  0  0  0  0  0  0
  1  4  1  0
  1  7  1  0
  2  3  1  0
  8  2  1  1
  9  3  1  1
 10  4  1  1
  5  8  1  0
  5  9  1  0
  6  8  1  0
  6 10  1  0
  7 11  1  0
  9 10  1  0
 10 11  1  0
M  END
>  <ref_pdb>  (61) 
x0102_0B

>  <ref_mols>  (61) 
x1083_0A,x1247_0A,x1052_0A,x1020_0A,x1140_0A,x1305_0B

>  <original SMILES>  (61) 
Cl.C1CNC2(C1)CC3CCC2C3

>  <Score>  (61) 
-0.29877403559328286

$$$$
EN300-1899746
     RDKit          3D

  8  9  0  0  1  0  0  0  0  0999 V2000
   -4.5627   -7.4161    1.3008 C   0  0  0  0  0  0  0  0  0  0  0  0
   -3.9307   -8.1089    0.3412 C   0  0  0  0  0  0  0  0  0  0  0  0
   -2.3169   -6.9080    1.4727 C   0  0  0  0  0  0  0  0  0  0  0  0
   -3.1766   -8.4154    3.0968 C   0  0  0  0  0  0  0  0  0  0  0  0
   -3.5421   -7.0993    2.3697 C   0  0  2  0  0  0  0  0  0  0  0  0
   -2.4906   -8.2663    0.7782 C   0  0  1  0  0  0  0  0  0  0  0  0
   -2.4990   -9.2424    1.9723 C   0  0  1  0  0  0  0  0  0  0  0  0
   -0.6880   -9.7546    2.4617 Br  0  0  0  0  0  0  0  0  0  0  0  0
  1  2  2  0
  1  5  1  0
  6  2  1  1
  3  5  1  0
  3  6  1  0
  5  4  1  1
  4  7  1  0
  6  7  1  0
  7  8  1  1
M  END
>  <ref_pdb>  (62) 
x0102_0B

>  <ref_mols>  (62) 
x1083_0A,x1247_0A,x1052_0A,x1020_0A,x1140_0A,x1305_0B

>  <original SMILES>  (62) 
BrC1CC2CC1C=C2

>  <Score>  (62) 
-2.3615145943574589

$$$$
EN300-7427797
     RDKit          3D

 12 14  0  0  1  0  0  0  0  0999 V2000
   -5.6381   -7.2354   -1.5345 C   0  0  0  0  0  0  0  0  0  0  0  0
   -6.6203   -7.1331   -0.5500 C   0  0  0  0  0  0  0  0  0  0  0  0
   -4.3119   -7.4904   -1.1812 C   0  0  0  0  0  0  0  0  0  0  0  0
   -6.2840   -7.2899    0.7932 C   0  0  0  0  0  0  0  0  0  0  0  0
   -3.9474   -7.6517    0.1612 C   0  0  0  0  0  0  0  0  0  0  0  0
   -4.9582   -7.5573    1.1520 C   0  0  0  0  0  0  0  0  0  0  0  0
   -2.1090   -7.0094    1.9088 C   0  0  0  0  0  0  0  0  0  0  0  0
   -2.4292   -9.0843    1.7452 C   0  0  0  0  0  0  0  0  0  0  0  0
   -2.4810   -7.9252    0.6880 C   0  0  1  0  0  0  0  0  0  0  0  0
   -4.5341   -7.7285    2.6124 C   0  0  2  0  0  0  0  0  0  0  0  0
   -3.0062   -8.0023    2.7238 C   0  0  2  0  0  0  0  0  0  0  0  0
   -5.2519   -8.8304    3.2601 N   0  0  0  0  0  0  0  0  0  0  0  0
  1  2  2  0
  1  3  1  0
  2  4  1  0
  3  5  2  0
  4  6  2  0
  5  6  1  0
  5  9  1  0
  6 10  1  0
  9  7  1  1
 11  7  1  6
  8  9  1  0
  8 11  1  0
 10 11  1  0
 10 12  1  6
M  END
>  <ref_pdb>  (63) 
x0102_0B

>  <ref_mols>  (63) 
x1083_0A,x1247_0A,x1052_0A,x1020_0A,x1140_0A,x1305_0B

>  <original SMILES>  (63) 
NC1C2CC(C2)C=3C=CC=CC13

>  <Score>  (63) 
-5.3786923934492279

$$$$
EN300-200689
     RDKit          3D

  8  9  0  0  1  0  0  0  0  0999 V2000
   -4.6500   -7.3816    1.3740 C   0  0  0  0  0  0  0  0  0  0  0  0
   -3.9377   -8.1698    0.2629 C   0  0  0  0  0  0  0  0  0  0  0  0
   -2.3209   -6.9040    1.4512 C   0  0  0  0  0  0  0  0  0  0  0  0
   -3.1468   -8.4073    3.1036 C   0  0  0  0  0  0  0  0  0  0  0  0
   -3.5186   -7.0982    2.3785 C   0  0  2  0  0  0  0  0  0  0  0  0
   -2.4933   -8.2740    0.7872 C   0  0  1  0  0  0  0  0  0  0  0  0
   -2.4971   -9.2361    1.9875 C   0  0  1  0  0  0  0  0  0  0  0  0
   -0.6826   -9.7583    2.4596 Br  0  0  0  0  0  0  0  0  0  0  0  0
  1  2  1  0
  5  1  1  6
  6  2  1  1
  3  5  1  0
  3  6  1  0
  4  5  1  0
  4  7  1  0
  6  7  1  0
  7  8  1  1
M  END
>  <ref_pdb>  (64) 
x0102_0B

>  <ref_mols>  (64) 
x1083_0A,x1247_0A,x1052_0A,x1020_0A,x1140_0A,x1305_0B

>  <original SMILES>  (64) 
BrC1CC2CCC1C2

>  <Score>  (64) 
-2.3160959266399459

$$$$
EN300-787599
     RDKit          3D

  9 10  0  0  1  0  0  0  0  0999 V2000
   -0.2444  -10.0747    2.6130 C   0  0  0  0  0  0  0  0  0  0  0  0
   -0.9669   -9.3040    2.0431 C   0  0  0  0  0  0  0  0  0  0  0  0
   -4.2549   -6.7300    0.9653 C   0  0  0  0  0  0  0  0  0  0  0  0
   -4.0512   -8.0422    0.1927 C   0  0  0  0  0  0  0  0  0  0  0  0
   -2.0785   -7.0715    2.1637 C   0  0  0  0  0  0  0  0  0  0  0  0
   -3.9458   -8.5050    2.5195 C   0  0  0  0  0  0  0  0  0  0  0  0
   -1.8517   -8.3594    1.3450 C   0  0  2  0  0  0  0  0  0  0  0  0
   -3.6098   -7.0279    2.3298 C   0  0  2  0  0  0  0  0  0  0  0  0
   -3.2862   -8.9200    1.2005 C   0  0  2  0  0  0  0  0  0  0  0  0
  1  2  3  0
  7  2  1  1
  3  4  1  0
  8  3  1  6
  9  4  1  6
  5  7  1  0
  5  8  1  0
  6  8  1  0
  6  9  1  0
  7  9  1  0
M  END
>  <ref_pdb>  (65) 
x0102_0B

>  <ref_mols>  (65) 
x1083_0A,x1247_0A,x1052_0A,x1020_0A,x1140_0A,x1305_0B

>  <original SMILES>  (65) 
C#CC1CC2CCC1C2

>  <Score>  (65) 
-0.25161084461353767

$$$$
EN300-37351327
     RDKit          3D

 11 13  0  0  0  0  0  0  0  0999 V2000
   -5.8308   -7.8644    0.6384 C   0  0  0  0  0  0  0  0  0  0  0  0
   -2.7338   -6.6581    1.7471 C   0  0  0  0  0  0  0  0  0  0  0  0
   -2.3940   -8.5289    0.8428 C   0  0  0  0  0  0  0  0  0  0  0  0
   -4.2093   -8.5118    2.5768 C   0  0  0  0  0  0  0  0  0  0  0  0
   -4.1179   -6.9365   -0.6474 C   0  0  0  0  0  0  0  0  0  0  0  0
   -2.7204   -8.1308    2.3479 C   0  0  2  0  0  0  0  0  0  0  0  0
   -3.5061   -7.4378    0.6187 C   0  0  2  0  0  0  0  0  0  0  0  0
   -1.7693   -8.4916    3.4520 C   0  0  0  0  0  0  0  0  0  0  0  0
   -4.6649   -7.9811    1.3080 N   0  0  0  0  0  0  0  0  0  0  0  0
   -6.9460   -8.2272    0.9776 O   0  0  0  0  0  0  0  0  0  0  0  0
   -5.5456   -7.2348   -0.5548 O   0  0  0  0  0  0  0  0  0  0  0  0
  1  9  1  0
  1 10  2  0
  1 11  1  0
  2  6  1  0
  2  7  1  0
  3  6  1  0
  3  7  1  0
  4  6  1  0
  4  9  1  0
  7  5  1  6
  5 11  1  0
  6  8  1  1
  7  9  1  0
M  END
>  <ref_pdb>  (66) 
x0102_0B

>  <ref_mols>  (66) 
x1083_0A,x1247_0A,x1052_0A,x1020_0A,x1140_0A,x1305_0B

>  <original SMILES>  (66) 
CC1(CC23C1)CN3C(=O)OC2

>  <Score>  (66) 
-0.20641585444013799

$$$$
EN300-23613550
     RDKit          3D

 12 15  0  0  1  0  0  0  0  0999 V2000
   -3.1836   -8.2413    2.9136 C   0  0  0  0  0  0  0  0  0  0  0  0
   -2.2988   -8.9606    1.9180 C   0  0  0  0  0  0  0  0  0  0  0  0
   -2.7221   -6.7060    1.2529 C   0  0  0  0  0  0  0  0  0  0  0  0
   -4.4639   -7.7658   -1.1367 C   0  0  0  0  0  0  0  0  0  0  0  0
   -3.8479   -7.0643    2.2271 C   0  0  1  0  0  0  0  0  0  0  0  0
   -2.6241   -8.1162    0.6631 C   0  0  2  0  0  0  0  0  0  0  0  0
   -4.0851   -8.3987    0.2200 C   0  0  1  0  0  0  0  0  0  0  0  0
   -4.9303   -7.6789    1.3267 C   0  0  2  0  0  0  0  0  0  0  0  0
   -5.4794   -6.7121   -0.8412 C   0  0  2  0  0  0  0  0  0  0  0  0
   -5.7557   -6.6584    0.6138 C   0  0  1  0  0  0  0  0  0  0  0  0
   -3.3611   -8.5781    4.0735 O   0  0  0  0  0  0  0  0  0  0  0  0
   -6.7183   -7.1909   -0.3050 O   0  0  0  0  0  0  0  0  0  0  0  0
  1  2  1  0
  5  1  1  1
  1 11  2  0
  6  2  1  1
  3  5  1  0
  3  6  1  0
  7  4  1  6
  9  4  1  1
  8  5  1  1
  6  7  1  0
  7  8  1  0
  8 10  1  0
  9 10  1  0
  9 12  1  0
 10 12  1  6
M  END
>  <ref_pdb>  (67) 
x0102_0B

>  <ref_mols>  (67) 
x1083_0A,x1247_0A,x1052_0A,x1020_0A,x1140_0A,x1305_0B

>  <original SMILES>  (67) 
O=C1CC2CC1C3C4OC4CC23

>  <Score>  (67) 
-1.3662609316390899

$$$$
EN300-39870082
     RDKit          3D

 12 14  0  0  1  0  0  0  0  0999 V2000
   -5.6298   -7.0821   -1.5086 C   0  0  0  0  0  0  0  0  0  0  0  0
   -6.6387   -7.2388   -0.5582 C   0  0  0  0  0  0  0  0  0  0  0  0
   -4.2901   -7.2288   -1.1442 C   0  0  0  0  0  0  0  0  0  0  0  0
   -6.3149   -7.5415    0.7628 C   0  0  0  0  0  0  0  0  0  0  0  0
   -3.9385   -7.5329    0.1762 C   0  0  0  0  0  0  0  0  0  0  0  0
   -4.9742   -7.6842    1.1323 C   0  0  0  0  0  0  0  0  0  0  0  0
   -2.3293   -9.0095    1.6211 C   0  0  0  0  0  0  0  0  0  0  0  0
   -2.2124   -6.9526    2.0592 C   0  0  0  0  0  0  0  0  0  0  0  0
   -2.4646   -7.7305    0.7176 C   0  0  2  0  0  0  0  0  0  0  0  0
   -4.5673   -8.0208    2.5610 C   0  0  1  0  0  0  0  0  0  0  0  0
   -3.0286   -8.1231    2.7062 C   0  0  1  0  0  0  0  0  0  0  0  0
   -5.0366   -6.9962    3.4311 O   0  0  0  0  0  0  0  0  0  0  0  0
  1  2  2  0
  1  3  1  0
  2  4  1  0
  3  5  2  0
  4  6  2  0
  5  6  1  0
  5  9  1  0
  6 10  1  0
  9  7  1  1
 11  7  1  6
  8  9  1  0
  8 11  1  0
 10 11  1  0
 10 12  1  1
M  END
>  <ref_pdb>  (68) 
x0102_0B

>  <ref_mols>  (68) 
x1083_0A,x1247_0A,x1052_0A,x1020_0A,x1140_0A,x1305_0B

>  <original SMILES>  (68) 
OC1[C@H]2C[C@H](C2)C=3C=CC=CC13

>  <Score>  (68) 
-4.7459579894051558

$$$$
EN300-7426764
     RDKit          3D

 12 14  0  0  1  0  0  0  0  0999 V2000
   -5.6296   -7.0826   -1.5090 C   0  0  0  0  0  0  0  0  0  0  0  0
   -6.6385   -7.2378   -0.5584 C   0  0  0  0  0  0  0  0  0  0  0  0
   -4.2899   -7.2304   -1.1447 C   0  0  0  0  0  0  0  0  0  0  0  0
   -6.3149   -7.5396    0.7629 C   0  0  0  0  0  0  0  0  0  0  0  0
   -3.9385   -7.5339    0.1758 C   0  0  0  0  0  0  0  0  0  0  0  0
   -4.9743   -7.6833    1.1323 C   0  0  0  0  0  0  0  0  0  0  0  0
   -2.3304   -9.0104    1.6222 C   0  0  0  0  0  0  0  0  0  0  0  0
   -2.2116   -6.9530    2.0580 C   0  0  0  0  0  0  0  0  0  0  0  0
   -2.4648   -7.7323    0.7173 C   0  0  2  0  0  0  0  0  0  0  0  0
   -4.5674   -8.0189    2.5612 C   0  0  1  0  0  0  0  0  0  0  0  0
   -3.0288   -8.1223    2.7064 C   0  0  1  0  0  0  0  0  0  0  0  0
   -5.0360   -6.9934    3.4304 O   0  0  0  0  0  0  0  0  0  0  0  0
  1  2  2  0
  1  3  1  0
  2  4  1  0
  3  5  2  0
  4  6  2  0
  5  6  1  0
  5  9  1  0
  6 10  1  0
  9  7  1  1
 11  7  1  6
  8  9  1  0
  8 11  1  0
 10 11  1  0
 10 12  1  1
M  END
>  <ref_pdb>  (69) 
x0102_0B

>  <ref_mols>  (69) 
x1083_0A,x1247_0A,x1052_0A,x1020_0A,x1140_0A,x1305_0B

>  <original SMILES>  (69) 
OC1C2CC(C2)C=3C=CC=CC13

>  <Score>  (69) 
-4.7536872314776701

$$$$
EN300-39870068
     RDKit          3D

 12 14  0  0  1  0  0  0  0  0999 V2000
   -5.6275   -7.0841   -1.5122 C   0  0  0  0  0  0  0  0  0  0  0  0
   -6.6386   -7.2433   -0.5653 C   0  0  0  0  0  0  0  0  0  0  0  0
   -4.2891   -7.2290   -1.1431 C   0  0  0  0  0  0  0  0  0  0  0  0
   -6.3180   -7.5433    0.7574 C   0  0  0  0  0  0  0  0  0  0  0  0
   -3.9400   -7.5308    0.1789 C   0  0  0  0  0  0  0  0  0  0  0  0
   -4.9773   -7.6779    1.1351 C   0  0  0  0  0  0  0  0  0  0  0  0
   -2.3377   -9.0145    1.6198 C   0  0  0  0  0  0  0  0  0  0  0  0
   -2.1983   -6.9583    2.0512 C   0  0  0  0  0  0  0  0  0  0  0  0
   -2.4660   -7.7370    0.7149 C   0  0  2  0  0  0  0  0  0  0  0  0
   -4.5716   -8.0160    2.5713 C   0  0  1  0  0  0  0  0  0  0  0  0
   -3.0247   -8.1193    2.7068 C   0  0  1  0  0  0  0  0  0  0  0  0
   -5.0828   -7.0281    3.5243 N   0  0  0  0  0  0  0  0  0  0  0  0
  1  2  2  0
  1  3  1  0
  2  4  1  0
  3  5  2  0
  4  6  2  0
  5  6  1  0
  5  9  1  0
  6 10  1  0
  9  7  1  1
 11  7  1  6
  8  9  1  0
  8 11  1  0
 10 11  1  0
 10 12  1  1
M  END
>  <ref_pdb>  (70) 
x0102_0B

>  <ref_mols>  (70) 
x1083_0A,x1247_0A,x1052_0A,x1020_0A,x1140_0A,x1305_0B

>  <original SMILES>  (70) 
NC1[C@H]2C[C@H](C2)C=3C=CC=CC13

>  <Score>  (70) 
-5.7183979571241252

$$$$
EN300-6734323
     RDKit          3D

 13 15  0  0  0  0  0  0  0  0999 V2000
   -4.2905   -7.3441   -1.1498 C   0  0  0  0  0  0  0  0  0  0  0  0
   -5.6257   -7.1572   -1.5199 C   0  0  0  0  0  0  0  0  0  0  0  0
   -6.3293   -7.4495    0.7754 C   0  0  0  0  0  0  0  0  0  0  0  0
   -4.9948   -7.6342    1.1314 C   0  0  0  0  0  0  0  0  0  0  0  0
   -3.9429   -7.5870    0.1843 C   0  0  0  0  0  0  0  0  0  0  0  0
   -6.6396   -7.2099   -0.5609 C   0  0  0  0  0  0  0  0  0  0  0  0
   -4.5719   -7.8962    2.5412 C   0  0  0  0  0  0  0  0  0  0  0  0
   -2.1380   -6.9788    2.0103 C   0  0  0  0  0  0  0  0  0  0  0  0
   -2.3378   -9.0467    1.6858 C   0  0  0  0  0  0  0  0  0  0  0  0
   -2.4562   -7.8141    0.7166 C   0  0  1  0  0  0  0  0  0  0  0  0
   -3.0025   -8.0767    2.7256 C   0  0  2  0  0  0  0  0  0  0  0  0
   -5.4167   -7.9541    3.4304 O   0  0  0  0  0  0  0  0  0  0  0  0
   -8.4397   -6.9551   -1.0806 Br  0  0  0  0  0  0  0  0  0  0  0  0
  1  2  1  0
  1  5  2  0
  2  6  2  0
  3  4  2  0
  3  6  1  0
  4  5  1  0
  4  7  1  0
  5 10  1  0
  6 13  1  0
  7 11  1  0
  7 12  2  0
 10  8  1  1
 11  8  1  6
  9 10  1  0
  9 11  1  0
M  END
>  <ref_pdb>  (71) 
x0102_0B

>  <ref_mols>  (71) 
x1083_0A,x1247_0A,x1052_0A,x1020_0A,x1140_0A,x1305_0B

>  <original SMILES>  (71) 
BrC=1C=CC=2C3CC(C3)C(=O)C2C1

>  <Score>  (71) 
-4.6163084928045919

$$$$
EN300-37375145
     RDKit          3D

 13 15  0  0  0  0  0  0  0  0999 V2000
   -4.2886   -7.3003   -1.1466 C   0  0  0  0  0  0  0  0  0  0  0  0
   -5.6234   -7.1139   -1.5184 C   0  0  0  0  0  0  0  0  0  0  0  0
   -6.3343   -7.4530    0.7681 C   0  0  0  0  0  0  0  0  0  0  0  0
   -5.0002   -7.6367    1.1260 C   0  0  0  0  0  0  0  0  0  0  0  0
   -3.9448   -7.5661    0.1842 C   0  0  0  0  0  0  0  0  0  0  0  0
   -6.6407   -7.1901   -0.5647 C   0  0  0  0  0  0  0  0  0  0  0  0
   -4.5813   -7.9228    2.5323 C   0  0  0  0  0  0  0  0  0  0  0  0
   -2.1508   -6.9819    2.0285 C   0  0  0  0  0  0  0  0  0  0  0  0
   -2.3373   -9.0446    1.6645 C   0  0  0  0  0  0  0  0  0  0  0  0
   -2.4590   -7.7948    0.7182 C   0  0  1  0  0  0  0  0  0  0  0  0
   -3.0117   -8.0978    2.7197 C   0  0  2  0  0  0  0  0  0  0  0  0
   -5.4293   -8.0022    3.4168 O   0  0  0  0  0  0  0  0  0  0  0  0
   -8.4403   -6.9349   -1.0867 Br  0  0  0  0  0  0  0  0  0  0  0  0
  1  2  1  0
  1  5  2  0
  2  6  2  0
  3  4  2  0
  3  6  1  0
  4  5  1  0
  4  7  1  0
  5 10  1  0
  6 13  1  0
  7 11  1  0
  7 12  2  0
 10  8  1  1
 11  8  1  6
  9 10  1  0
  9 11  1  0
M  END
>  <ref_pdb>  (72) 
x0102_0B

>  <ref_mols>  (72) 
x1083_0A,x1247_0A,x1052_0A,x1020_0A,x1140_0A,x1305_0B

>  <original SMILES>  (72) 
BrC=1C=CC=2[C@H]3C[C@H](C3)C(=O)C2C1

>  <Score>  (72) 
-4.5752046793452337

$$$$
EN300-26975684
     RDKit          3D

 11 13  0  0  1  0  0  0  0  0999 V2000
   -3.1341   -9.3053    1.8039 C   0  0  0  0  0  0  0  0  0  0  0  0
   -3.7723   -8.5869    2.7375 C   0  0  0  0  0  0  0  0  0  0  0  0
   -4.7527   -8.4846   -0.6280 C   0  0  0  0  0  0  0  0  0  0  0  0
   -5.9836   -7.5856   -0.5412 C   0  0  0  0  0  0  0  0  0  0  0  0
   -2.1895   -7.2146    1.8183 C   0  0  0  0  0  0  0  0  0  0  0  0
   -2.5417   -8.3314    0.8185 C   0  0  2  0  0  0  0  0  0  0  0  0
   -3.6255   -7.1265    2.3791 C   0  0  1  0  0  0  0  0  0  0  0  0
   -3.6573   -7.6354    0.0052 C   0  0  2  0  0  0  0  0  0  0  0  0
   -4.3761   -6.7471    1.0748 C   0  0  1  0  0  0  0  0  0  0  0  0
   -5.8760   -6.9001    0.8225 C   0  0  2  0  0  0  0  0  0  0  0  0
   -6.8825   -7.8785    2.1560 Br  0  0  0  0  0  0  0  0  0  0  0  0
  1  2  2  0
  6  1  1  1
  7  2  1  6
  3  4  1  0
  8  3  1  1
  4 10  1  0
  5  6  1  0
  5  7  1  0
  6  8  1  0
  7  9  1  0
  8  9  1  0
  9 10  1  1
 10 11  1  1
M  END
>  <ref_pdb>  (73) 
x0102_0B

>  <ref_mols>  (73) 
x1083_0A,x1247_0A,x1052_0A,x1020_0A,x1140_0A,x1305_0B

>  <original SMILES>  (73) 
Br[C@@H]1CC[C@@H]2[C@H]3C[C@H](C=C3)[C@H]12 |&1:1,4,5,7,10,r|

>  <Score>  (73) 
-1.7481878552536045

$$$$
EN300-1700454
     RDKit          3D

 11 13  0  0  1  0  0  0  0  0999 V2000
   -3.3372   -9.3055    1.8238 C   0  0  0  0  0  0  0  0  0  0  0  0
   -3.9114   -8.4983    2.7274 C   0  0  0  0  0  0  0  0  0  0  0  0
   -2.1074   -7.3504    1.8535 C   0  0  0  0  0  0  0  0  0  0  0  0
   -2.5735   -8.4264    0.8599 C   0  0  2  0  0  0  0  0  0  0  0  0
   -3.5309   -7.0805    2.3659 C   0  0  1  0  0  0  0  0  0  0  0  0
   -3.5683   -7.6002    0.0078 C   0  0  2  0  0  0  0  0  0  0  0  0
   -4.2264   -6.6751    1.0430 C   0  0  1  0  0  0  0  0  0  0  0  0
   -6.6976   -7.1640   -1.2306 O   0  0  0  0  0  0  0  0  0  0  0  0
   -4.5750   -8.3682   -0.6191 O   0  0  0  0  0  0  0  0  0  0  0  0
   -5.6216   -6.8968    1.0276 O   0  0  0  0  0  0  0  0  0  0  0  0
   -6.0527   -7.9442   -0.1237 S   0  0  0  0  0  0  0  0  0  0  0  0
  1  2  2  0
  4  1  1  1
  5  2  1  6
  3  4  1  0
  3  5  1  0
  4  6  1  0
  5  7  1  0
  6  7  1  0
  6  9  1  1
  7 10  1  1
  8 11  2  0
 11  9  1  6
 10 11  1  0
M  END
>  <ref_pdb>  (74) 
x0102_0B

>  <ref_mols>  (74) 
x1083_0A,x1247_0A,x1052_0A,x1020_0A,x1140_0A,x1305_0B

>  <original SMILES>  (74) 
O=S1O[C@H]2[C@@H]3C[C@@H](C=C3)[C@H]2O1

>  <Score>  (74) 
-0.7859687561398232

$$$$
EN300-6499589
     RDKit          3D

  8  9  0  0  0  0  0  0  0  0999 V2000
   -0.4395   -9.9471    2.5624 C   0  0  0  0  0  0  0  0  0  0  0  0
   -1.3874   -9.2800    2.2501 C   0  0  0  0  0  0  0  0  0  0  0  0
   -4.7481   -7.8796    1.6200 C   0  0  0  0  0  0  0  0  0  0  0  0
   -3.9108   -9.0382    2.1772 C   0  0  0  0  0  0  0  0  0  0  0  0
   -2.5722   -6.9872    2.3048 C   0  0  0  0  0  0  0  0  0  0  0  0
   -2.6068   -7.9128    0.4315 C   0  0  0  0  0  0  0  0  0  0  0  0
   -3.6206   -6.9629    1.1465 C   0  0  1  0  0  0  0  0  0  0  0  0
   -2.5173   -8.4854    1.8783 C   0  0  1  0  0  0  0  0  0  0  0  0
  1  2  3  0
  8  2  1  6
  3  4  1  0
  7  3  1  1
  4  8  1  0
  5  7  1  0
  5  8  1  0
  6  7  1  0
  6  8  1  0
M  END
>  <ref_pdb>  (75) 
x0102_0B

>  <ref_mols>  (75) 
x1083_0A,x1247_0A,x1052_0A,x1020_0A,x1140_0A,x1305_0B

>  <original SMILES>  (75) 
C#CC1(CC2C1)CC2

>  <Score>  (75) 
-2.9389530675231299

$$$$
EN300-6778802
     RDKit          3D

 11 13  0  0  1  0  0  0  0  0999 V2000
   -6.0480   -7.3248   -0.8682 C   0  0  0  0  0  0  0  0  0  0  0  0
   -4.0327   -7.4670   -0.0496 C   0  0  0  0  0  0  0  0  0  0  0  0
   -4.7507   -7.4725    1.1296 C   0  0  0  0  0  0  0  0  0  0  0  0
   -2.5395   -7.5236   -0.0249 C   0  0  0  0  0  0  0  0  0  0  0  0
   -3.6566   -9.0192    2.7452 C   0  0  0  0  0  0  0  0  0  0  0  0
   -2.3629   -9.1792    1.9463 C   0  0  0  0  0  0  0  0  0  0  0  0
   -4.0891   -7.5870    2.4646 C   0  0  1  0  0  0  0  0  0  0  0  0
   -2.0466   -7.7723    1.4299 C   0  0  2  0  0  0  0  0  0  0  0  0
   -4.7740   -7.3790   -1.2034 N   0  0  0  0  0  0  0  0  0  0  0  0
   -2.8132   -6.9099    2.3124 O   0  0  0  0  0  0  0  0  0  0  0  0
   -6.4109   -7.3725    0.8183 S   0  0  0  0  0  0  0  0  0  0  0  0
  1  9  2  0
  1 11  1  0
  2  3  2  0
  2  4  1  0
  2  9  1  0
  3  7  1  0
  3 11  1  0
  8  4  1  6
  5  6  1  0
  7  5  1  6
  6  8  1  0
  7 10  1  0
  8 10  1  0
M  END
>  <ref_pdb>  (76) 
x0102_0B

>  <ref_mols>  (76) 
x1083_0A,x1247_0A,x1052_0A,x1020_0A,x1140_0A,x1305_0B

>  <original SMILES>  (76) 
C1CC2OC1CC=3N=CSC23

>  <Score>  (76) 
-0.78720380857339478

$$$$
EN300-1241513
     RDKit          3D

 10 12  0  0  1  0  0  0  0  0999 V2000
   -2.5221   -9.0956    2.1481 C   0  0  0  0  0  0  0  0  0  0  0  0
   -3.8971   -8.7015    2.7130 C   0  0  0  0  0  0  0  0  0  0  0  0
   -5.6583   -8.3628    0.1126 C   0  0  0  0  0  0  0  0  0  0  0  0
   -2.7423   -6.7274    2.0509 C   0  0  0  0  0  0  0  0  0  0  0  0
   -3.0327   -7.9094   -0.0101 C   0  0  0  0  0  0  0  0  0  0  0  0
   -5.8141   -7.2705   -0.9552 C   0  0  0  0  0  0  0  0  0  0  0  0
   -2.1499   -7.8950    1.2604 C   0  0  2  0  0  0  0  0  0  0  0  0
   -4.1540   -7.3270    2.0696 C   0  0  1  0  0  0  0  0  0  0  0  0
   -4.4171   -7.5545    0.5716 C   0  0  2  0  0  0  0  0  0  0  0  0
   -5.0397   -6.3669   -0.0795 N   0  0  0  0  0  0  0  0  0  0  0  0
  1  2  1  0
  7  1  1  1
  8  2  1  1
  3  6  1  0
  9  3  1  1
  4  7  1  0
  4  8  1  0
  5  7  1  0
  5  9  1  0
  6 10  1  0
  8  9  1  0
  9 10  1  0
M  END
>  <ref_pdb>  (77) 
x0102_0B

>  <ref_mols>  (77) 
x1083_0A,x1247_0A,x1052_0A,x1020_0A,x1140_0A,x1305_0B

>  <original SMILES>  (77) 
C1CC2(CC3CCC2C3)N1

>  <Score>  (77) 
-0.30732781685833288

$$$$
EN300-37466802
     RDKit          3D

  9 10  0  0  0  0  0  0  0  0999 V2000
   -2.7450   -8.8266    0.9901 C   0  0  0  0  0  0  0  0  0  0  0  0
   -2.6410   -6.7776    1.5846 C   0  0  0  0  0  0  0  0  0  0  0  0
   -3.7740   -7.6132    0.8253 C   0  0  2  0  0  0  0  0  0  0  0  0
   -2.7089   -8.1042    2.3312 C   0  0  1  0  0  0  0  0  0  0  0  0
   -4.2280   -8.0201    2.3068 C   0  0  0  0  0  0  0  0  0  0  0  0
   -4.6017   -7.2339   -0.3382 C   0  0  0  0  0  0  0  0  0  0  0  0
   -1.9197   -8.4656    3.4380 N   0  0  0  0  0  0  0  0  0  0  0  0
   -4.8352   -7.0671    3.0458 F   0  0  0  0  0  0  0  0  0  0  0  0
   -4.9412   -9.1588    2.4390 F   0  0  0  0  0  0  0  0  0  0  0  0
  1  3  1  0
  1  4  1  0
  2  3  1  0
  2  4  1  0
  3  5  1  0
  3  6  1  6
  4  5  1  0
  4  7  1  1
  5  8  1  0
  5  9  1  0
M  END
>  <ref_pdb>  (78) 
x0102_0B

>  <ref_mols>  (78) 
x1083_0A,x1247_0A,x1052_0A,x1020_0A,x1140_0A,x1305_0B

>  <original SMILES>  (78) 
C[C@]1(C[C@@]2(N)C1)C2(F)F

>  <Score>  (78) 
-1.7595518552452631

$$$$
EN300-37466869
     RDKit          3D

  9 10  0  0  0  0  0  0  0  0999 V2000
   -2.7450   -8.8266    0.9901 C   0  0  0  0  0  0  0  0  0  0  0  0
   -2.6410   -6.7776    1.5846 C   0  0  0  0  0  0  0  0  0  0  0  0
   -3.7740   -7.6132    0.8253 C   0  0  2  0  0  0  0  0  0  0  0  0
   -2.7089   -8.1042    2.3312 C   0  0  1  0  0  0  0  0  0  0  0  0
   -4.2280   -8.0201    2.3068 C   0  0  0  0  0  0  0  0  0  0  0  0
   -4.6017   -7.2339   -0.3382 C   0  0  0  0  0  0  0  0  0  0  0  0
   -1.9197   -8.4656    3.4380 N   0  0  0  0  0  0  0  0  0  0  0  0
   -4.8352   -7.0671    3.0458 F   0  0  0  0  0  0  0  0  0  0  0  0
   -4.9412   -9.1588    2.4390 F   0  0  0  0  0  0  0  0  0  0  0  0
  1  3  1  0
  1  4  1  0
  2  3  1  0
  2  4  1  0
  3  5  1  0
  3  6  1  6
  4  5  1  0
  4  7  1  1
  5  8  1  0
  5  9  1  0
M  END
>  <ref_pdb>  (79) 
x0102_0B

>  <ref_mols>  (79) 
x1083_0A,x1247_0A,x1052_0A,x1020_0A,x1140_0A,x1305_0B

>  <original SMILES>  (79) 
Cl.C[C@]1(C[C@@]2(N)C1)C2(F)F

>  <Score>  (79) 
-1.7595518552452631

$$$$
EN300-7542601
     RDKit          3D

  9 10  0  0  0  0  0  0  0  0999 V2000
   -2.6449   -6.7750    1.5885 C   0  0  0  0  0  0  0  0  0  0  0  0
   -2.7402   -8.8228    0.9883 C   0  0  0  0  0  0  0  0  0  0  0  0
   -3.7737   -7.6128    0.8253 C   0  0  1  0  0  0  0  0  0  0  0  0
   -2.7089   -8.1039    2.3314 C   0  0  2  0  0  0  0  0  0  0  0  0
   -4.2283   -8.0254    2.3048 C   0  0  0  0  0  0  0  0  0  0  0  0
   -4.6012   -7.2333   -0.3383 C   0  0  0  0  0  0  0  0  0  0  0  0
   -1.9203   -8.4653    3.4386 N   0  0  0  0  0  0  0  0  0  0  0  0
   -4.8402   -7.0767    3.0455 F   0  0  0  0  0  0  0  0  0  0  0  0
   -4.9375   -9.1671    2.4328 F   0  0  0  0  0  0  0  0  0  0  0  0
  1  3  1  0
  1  4  1  0
  2  3  1  0
  2  4  1  0
  3  5  1  0
  3  6  1  6
  4  5  1  0
  4  7  1  1
  5  8  1  0
  5  9  1  0
M  END
>  <ref_pdb>  (80) 
x0102_0B

>  <ref_mols>  (80) 
x1083_0A,x1247_0A,x1052_0A,x1020_0A,x1140_0A,x1305_0B

>  <original SMILES>  (80) 
CC1(CC2(N)C1)C2(F)F

>  <Score>  (80) 
-1.7535347564485164

$$$$
EN300-37380597
     RDKit          3D

  9 10  0  0  0  0  0  0  0  0999 V2000
   -2.6449   -6.7750    1.5885 C   0  0  0  0  0  0  0  0  0  0  0  0
   -2.7402   -8.8228    0.9883 C   0  0  0  0  0  0  0  0  0  0  0  0
   -3.7737   -7.6128    0.8253 C   0  0  1  0  0  0  0  0  0  0  0  0
   -2.7089   -8.1039    2.3314 C   0  0  2  0  0  0  0  0  0  0  0  0
   -4.2283   -8.0254    2.3048 C   0  0  0  0  0  0  0  0  0  0  0  0
   -4.6012   -7.2333   -0.3383 C   0  0  0  0  0  0  0  0  0  0  0  0
   -1.9203   -8.4653    3.4386 N   0  0  0  0  0  0  0  0  0  0  0  0
   -4.8402   -7.0767    3.0455 F   0  0  0  0  0  0  0  0  0  0  0  0
   -4.9375   -9.1671    2.4328 F   0  0  0  0  0  0  0  0  0  0  0  0
  1  3  1  0
  1  4  1  0
  2  3  1  0
  2  4  1  0
  3  5  1  0
  3  6  1  6
  4  5  1  0
  4  7  1  1
  5  8  1  0
  5  9  1  0
M  END
>  <ref_pdb>  (81) 
x0102_0B

>  <ref_mols>  (81) 
x1083_0A,x1247_0A,x1052_0A,x1020_0A,x1140_0A,x1305_0B

>  <original SMILES>  (81) 
Cl.CC1(CC2(N)C1)C2(F)F

>  <Score>  (81) 
-1.7535347564485164

$$$$
EN300-39870066
     RDKit          3D

 12 14  0  0  0  0  0  0  0  0999 V2000
   -6.7358   -7.3410   -0.6930 C   0  0  0  0  0  0  0  0  0  0  0  0
   -5.7180   -7.1521   -1.6175 C   0  0  0  0  0  0  0  0  0  0  0  0
   -6.4199   -7.5638    0.6445 C   0  0  0  0  0  0  0  0  0  0  0  0
   -4.3869   -7.1821   -1.2004 C   0  0  0  0  0  0  0  0  0  0  0  0
   -5.0802   -7.6111    1.0709 C   0  0  0  0  0  0  0  0  0  0  0  0
   -4.0286   -7.4036    0.1456 C   0  0  0  0  0  0  0  0  0  0  0  0
   -4.7918   -7.8113    2.5461 C   0  0  0  0  0  0  0  0  0  0  0  0
   -1.9833   -8.8061    1.1312 C   0  0  0  0  0  0  0  0  0  0  0  0
   -2.1634   -6.8700    1.9986 C   0  0  0  0  0  0  0  0  0  0  0  0
   -2.5057   -7.4400    0.5915 C   0  0  2  0  0  0  0  0  0  0  0  0
   -2.3235   -8.2999    2.5555 C   0  0  1  0  0  0  0  0  0  0  0  0
   -3.6970   -8.7320    2.8665 N   0  0  0  0  0  0  0  0  0  0  0  0
  1  2  2  0
  1  3  1  0
  2  4  1  0
  3  5  2  0
  4  6  2  0
  5  6  1  0
  5  7  1  0
  6 10  1  0
  7 12  1  0
 10  8  1  1
 11  8  1  6
  9 10  1  0
  9 11  1  0
 11 12  1  0
M  END
>  <ref_pdb>  (82) 
x0102_0B

>  <ref_mols>  (82) 
x1083_0A,x1247_0A,x1052_0A,x1020_0A,x1140_0A,x1305_0B

>  <original SMILES>  (82) 
C1[C@H]2C[C@@H]1C=3C=CC=CC3CN2

>  <Score>  (82) 
-2.6022040853558792

$$$$
EN300-37468183
     RDKit          3D

 12 14  0  0  0  0  0  0  0  0999 V2000
   -6.7358   -7.3410   -0.6930 C   0  0  0  0  0  0  0  0  0  0  0  0
   -5.7180   -7.1521   -1.6175 C   0  0  0  0  0  0  0  0  0  0  0  0
   -6.4199   -7.5638    0.6445 C   0  0  0  0  0  0  0  0  0  0  0  0
   -4.3869   -7.1821   -1.2004 C   0  0  0  0  0  0  0  0  0  0  0  0
   -5.0802   -7.6111    1.0709 C   0  0  0  0  0  0  0  0  0  0  0  0
   -4.0286   -7.4036    0.1456 C   0  0  0  0  0  0  0  0  0  0  0  0
   -4.7918   -7.8113    2.5461 C   0  0  0  0  0  0  0  0  0  0  0  0
   -1.9833   -8.8061    1.1312 C   0  0  0  0  0  0  0  0  0  0  0  0
   -2.1634   -6.8700    1.9986 C   0  0  0  0  0  0  0  0  0  0  0  0
   -2.5057   -7.4400    0.5915 C   0  0  2  0  0  0  0  0  0  0  0  0
   -2.3235   -8.2999    2.5555 C   0  0  1  0  0  0  0  0  0  0  0  0
   -3.6970   -8.7320    2.8665 N   0  0  0  0  0  0  0  0  0  0  0  0
  1  2  2  0
  1  3  1  0
  2  4  1  0
  3  5  2  0
  4  6  2  0
  5  6  1  0
  5  7  1  0
  6 10  1  0
  7 12  1  0
 10  8  1  1
 11  8  1  6
  9 10  1  0
  9 11  1  0
 11 12  1  0
M  END
>  <ref_pdb>  (83) 
x0102_0B

>  <ref_mols>  (83) 
x1083_0A,x1247_0A,x1052_0A,x1020_0A,x1140_0A,x1305_0B

>  <original SMILES>  (83) 
Cl.C1[C@H]2C[C@@H]1C=3C=CC=CC3CN2

>  <Score>  (83) 
-2.6022040853558792

$$$$
EN300-6745485
     RDKit          3D

 12 14  0  0  0  0  0  0  0  0999 V2000
   -6.7313   -7.3351   -0.6995 C   0  0  0  0  0  0  0  0  0  0  0  0
   -5.7112   -7.1537   -1.6234 C   0  0  0  0  0  0  0  0  0  0  0  0
   -6.4190   -7.5539    0.6393 C   0  0  0  0  0  0  0  0  0  0  0  0
   -4.3804   -7.1871   -1.2042 C   0  0  0  0  0  0  0  0  0  0  0  0
   -5.0801   -7.6029    1.0672 C   0  0  0  0  0  0  0  0  0  0  0  0
   -4.0249   -7.4029    0.1434 C   0  0  0  0  0  0  0  0  0  0  0  0
   -4.7919   -7.7935    2.5426 C   0  0  0  0  0  0  0  0  0  0  0  0
   -2.1495   -6.8832    2.0010 C   0  0  0  0  0  0  0  0  0  0  0  0
   -1.9855   -8.8168    1.1253 C   0  0  0  0  0  0  0  0  0  0  0  0
   -2.5004   -7.4454    0.5913 C   0  0  1  0  0  0  0  0  0  0  0  0
   -2.3262   -8.3146    2.5520 C   0  0  2  0  0  0  0  0  0  0  0  0
   -3.7058   -8.7153    2.8696 N   0  0  0  0  0  0  0  0  0  0  0  0
  1  2  2  0
  1  3  1  0
  2  4  1  0
  3  5  2  0
  4  6  2  0
  5  6  1  0
  5  7  1  0
  6 10  1  0
  7 12  1  0
 10  8  1  1
 11  8  1  6
  9 10  1  0
  9 11  1  0
 11 12  1  0
M  END
>  <ref_pdb>  (84) 
x0102_0B

>  <ref_mols>  (84) 
x1083_0A,x1247_0A,x1052_0A,x1020_0A,x1140_0A,x1305_0B

>  <original SMILES>  (84) 
Cl.C1C2CC1C=3C=CC=CC3CN2

>  <Score>  (84) 
-2.4936674134561372

$$$$
EN300-6745486
     RDKit          3D

 12 14  0  0  0  0  0  0  0  0999 V2000
   -6.7313   -7.3351   -0.6995 C   0  0  0  0  0  0  0  0  0  0  0  0
   -5.7112   -7.1537   -1.6234 C   0  0  0  0  0  0  0  0  0  0  0  0
   -6.4190   -7.5539    0.6393 C   0  0  0  0  0  0  0  0  0  0  0  0
   -4.3804   -7.1871   -1.2042 C   0  0  0  0  0  0  0  0  0  0  0  0
   -5.0801   -7.6029    1.0672 C   0  0  0  0  0  0  0  0  0  0  0  0
   -4.0249   -7.4029    0.1434 C   0  0  0  0  0  0  0  0  0  0  0  0
   -4.7919   -7.7935    2.5426 C   0  0  0  0  0  0  0  0  0  0  0  0
   -2.1495   -6.8832    2.0010 C   0  0  0  0  0  0  0  0  0  0  0  0
   -1.9855   -8.8168    1.1253 C   0  0  0  0  0  0  0  0  0  0  0  0
   -2.5004   -7.4454    0.5913 C   0  0  1  0  0  0  0  0  0  0  0  0
   -2.3262   -8.3146    2.5520 C   0  0  2  0  0  0  0  0  0  0  0  0
   -3.7058   -8.7153    2.8696 N   0  0  0  0  0  0  0  0  0  0  0  0
  1  2  2  0
  1  3  1  0
  2  4  1  0
  3  5  2  0
  4  6  2  0
  5  6  1  0
  5  7  1  0
  6 10  1  0
  7 12  1  0
 10  8  1  1
 11  8  1  6
  9 10  1  0
  9 11  1  0
 11 12  1  0
M  END
>  <ref_pdb>  (85) 
x0102_0B

>  <ref_mols>  (85) 
x1083_0A,x1247_0A,x1052_0A,x1020_0A,x1140_0A,x1305_0B

>  <original SMILES>  (85) 
C1C2CC1C=3C=CC=CC3CN2

>  <Score>  (85) 
-2.4936674134561372

$$$$
EN300-1819711
     RDKit          3D

  9 10  0  0  1  0  0  0  0  0999 V2000
   -6.1066   -7.2955   -0.9513 C   0  0  0  0  0  0  0  0  0  0  0  0
   -2.2726   -8.3711    2.5985 C   0  0  0  0  0  0  0  0  0  0  0  0
   -1.9827   -8.5999    1.3088 C   0  0  0  0  0  0  0  0  0  0  0  0
   -3.0892   -6.5720    1.3990 C   0  0  0  0  0  0  0  0  0  0  0  0
   -4.6926   -8.1635    2.1344 C   0  0  0  0  0  0  0  0  0  0  0  0
   -3.4384   -7.4098    2.6313 C   0  0  1  0  0  0  0  0  0  0  0  0
   -2.9599   -7.7962    0.4830 C   0  0  2  0  0  0  0  0  0  0  0  0
   -4.3500   -8.4514    0.6449 C   0  0  2  0  0  0  0  0  0  0  0  0
   -5.3007   -7.8258   -0.2190 N   0  0  0  0  0  0  0  0  0  0  0  0
  1  9  3  0
  2  3  2  0
  2  6  1  0
  7  3  1  1
  4  6  1  0
  4  7  1  0
  6  5  1  6
  5  8  1  0
  7  8  1  0
  8  9  1  6
M  CHG  2   1  -1   9   1
M  END
>  <ref_pdb>  (86) 
x0102_0B

>  <ref_mols>  (86) 
x1083_0A,x1247_0A,x1052_0A,x1020_0A,x1140_0A,x1305_0B

>  <original SMILES>  (86) 
[C-]#[N+]C1CC2CC1C=C2

>  <Score>  (86) 
-0.15937267282424727

$$$$
EN300-132943
     RDKit          3D

 11 13  0  0  1  0  0  0  0  0999 V2000
   -5.7070   -7.3089   -1.3762 C   0  0  0  0  0  0  0  0  0  0  0  0
   -6.5700   -7.3474   -0.2843 C   0  0  0  0  0  0  0  0  0  0  0  0
   -4.3295   -7.3746   -1.1775 C   0  0  0  0  0  0  0  0  0  0  0  0
   -6.0570   -7.4463    1.0100 C   0  0  0  0  0  0  0  0  0  0  0  0
   -3.8090   -7.4896    0.1182 C   0  0  0  0  0  0  0  0  0  0  0  0
   -4.6739   -7.5121    1.2372 C   0  0  0  0  0  0  0  0  0  0  0  0
   -2.3114   -7.5353    0.3374 C   0  0  0  0  0  0  0  0  0  0  0  0
   -1.9227   -8.4292    1.5213 C   0  0  0  0  0  0  0  0  0  0  0  0
   -4.1087   -7.6053    2.6291 C   0  0  2  0  0  0  0  0  0  0  0  0
   -2.6645   -8.0353    2.7618 C   0  0  1  0  0  0  0  0  0  0  0  0
   -3.7444   -8.9064    3.1153 O   0  0  0  0  0  0  0  0  0  0  0  0
  1  2  2  0
  1  3  1  0
  2  4  1  0
  3  5  2  0
  4  6  2  0
  5  6  1  0
  5  7  1  0
  6  9  1  0
  7  8  1  0
 10  8  1  6
  9 10  1  0
  9 11  1  1
 10 11  1  0
M  END
>  <ref_pdb>  (87) 
x0102_0B

>  <ref_mols>  (87) 
x1083_0A,x1247_0A,x1052_0A,x1020_0A,x1140_0A,x1305_0B

>  <original SMILES>  (87) 
C1CC=2C=CC=CC2C3OC13

>  <Score>  (87) 
-3.6758032197186594

$$$$
EN300-218927
     RDKit          3D

 11 13  0  0  1  0  0  0  0  0999 V2000
   -5.7070   -7.3088   -1.3761 C   0  0  0  0  0  0  0  0  0  0  0  0
   -6.5700   -7.3477   -0.2843 C   0  0  0  0  0  0  0  0  0  0  0  0
   -4.3294   -7.3746   -1.1774 C   0  0  0  0  0  0  0  0  0  0  0  0
   -6.0569   -7.4464    1.0100 C   0  0  0  0  0  0  0  0  0  0  0  0
   -3.8089   -7.4896    0.1182 C   0  0  0  0  0  0  0  0  0  0  0  0
   -4.6739   -7.5120    1.2371 C   0  0  0  0  0  0  0  0  0  0  0  0
   -2.3114   -7.5353    0.3373 C   0  0  0  0  0  0  0  0  0  0  0  0
   -1.9229   -8.4296    1.5213 C   0  0  0  0  0  0  0  0  0  0  0  0
   -4.1086   -7.6050    2.6291 C   0  0  2  0  0  0  0  0  0  0  0  0
   -2.6645   -8.0352    2.7618 C   0  0  1  0  0  0  0  0  0  0  0  0
   -3.7444   -8.9061    3.1156 O   0  0  0  0  0  0  0  0  0  0  0  0
  1  2  2  0
  1  3  1  0
  2  4  1  0
  3  5  2  0
  4  6  2  0
  5  6  1  0
  5  7  1  0
  6  9  1  0
  7  8  1  0
 10  8  1  6
  9 10  1  0
  9 11  1  1
 10 11  1  0
M  END
>  <ref_pdb>  (88) 
x0102_0B

>  <ref_mols>  (88) 
x1083_0A,x1247_0A,x1052_0A,x1020_0A,x1140_0A,x1305_0B

>  <original SMILES>  (88) 
C1CC=2C=CC=CC2[C@H]3O[C@@H]13

>  <Score>  (88) 
-3.6770796178200271

$$$$
EN300-27779012
     RDKit          3D

 11 13  0  0  1  0  0  0  0  0999 V2000
   -5.6720   -7.0154   -1.3742 C   0  0  0  0  0  0  0  0  0  0  0  0
   -6.5826   -7.1716   -0.3301 C   0  0  0  0  0  0  0  0  0  0  0  0
   -4.3135   -7.2464   -1.1584 C   0  0  0  0  0  0  0  0  0  0  0  0
   -6.1385   -7.5599    0.9339 C   0  0  0  0  0  0  0  0  0  0  0  0
   -3.8582   -7.6209    0.1102 C   0  0  0  0  0  0  0  0  0  0  0  0
   -4.7756   -7.7787    1.1623 C   0  0  0  0  0  0  0  0  0  0  0  0
   -2.4049   -7.9188    0.3613 C   0  0  0  0  0  0  0  0  0  0  0  0
   -4.2699   -8.2449    2.5048 C   0  0  0  0  0  0  0  0  0  0  0  0
   -1.8672   -8.6059    2.8232 C   0  0  0  0  0  0  0  0  0  0  0  0
   -2.0212   -7.5502    1.7636 C   0  0  2  0  0  0  0  0  0  0  0  0
   -2.9762   -7.6550    2.8781 N   0  0  0  0  0  0  0  0  0  0  0  0
  1  2  2  0
  1  3  1  0
  2  4  1  0
  3  5  2  0
  4  6  2  0
  5  6  1  0
  5  7  1  0
  6  8  1  0
 10  7  1  6
  8 11  1  0
  9 10  1  0
  9 11  1  0
 10 11  1  0
M  END
>  <ref_pdb>  (89) 
x0102_0B

>  <ref_mols>  (89) 
x1083_0A,x1247_0A,x1052_0A,x1020_0A,x1140_0A,x1305_0B

>  <original SMILES>  (89) 
C1[C@H]2CC=3C=CC=CC3CN12

>  <Score>  (89) 
-2.8211472227674221

$$$$
EN300-27779011
     RDKit          3D

 11 13  0  0  1  0  0  0  0  0999 V2000
   -6.5754   -7.1592   -0.3612 C   0  0  0  0  0  0  0  0  0  0  0  0
   -5.6408   -7.0152   -1.3858 C   0  0  0  0  0  0  0  0  0  0  0  0
   -6.1621   -7.5457    0.9137 C   0  0  0  0  0  0  0  0  0  0  0  0
   -4.2894   -7.2573   -1.1397 C   0  0  0  0  0  0  0  0  0  0  0  0
   -4.8068   -7.7754    1.1724 C   0  0  0  0  0  0  0  0  0  0  0  0
   -3.8650   -7.6302    0.1402 C   0  0  0  0  0  0  0  0  0  0  0  0
   -4.3378   -8.2354    2.5262 C   0  0  0  0  0  0  0  0  0  0  0  0
   -2.4176   -7.9445    0.4265 C   0  0  0  0  0  0  0  0  0  0  0  0
   -1.7560   -8.5921    2.6952 C   0  0  0  0  0  0  0  0  0  0  0  0
   -2.9652   -7.7072    2.8209 C   0  0  1  0  0  0  0  0  0  0  0  0
   -1.9742   -7.4950    1.7541 N   0  0  0  0  0  0  0  0  0  0  0  0
  1  2  2  0
  1  3  1  0
  2  4  1  0
  3  5  2  0
  4  6  2  0
  5  6  1  0
  5  7  1  0
  6  8  1  0
 10  7  1  6
  8 11  1  0
  9 10  1  0
  9 11  1  0
 10 11  1  0
M  END
>  <ref_pdb>  (90) 
x0102_0B

>  <ref_mols>  (90) 
x1083_0A,x1247_0A,x1052_0A,x1020_0A,x1140_0A,x1305_0B

>  <original SMILES>  (90) 
C1[C@@H]2CC=3C=CC=CC3CN12

>  <Score>  (90) 
-2.9389193822578363

$$$$
EN300-1241638
     RDKit          3D

  9 10  0  0  1  0  0  0  0  0999 V2000
   -4.3154   -7.8463    0.3903 C   0  0  0  0  0  0  0  0  0  0  0  0
   -4.7021   -7.2006    1.7290 C   0  0  0  0  0  0  0  0  0  0  0  0
   -2.3844   -6.8708    1.3831 C   0  0  0  0  0  0  0  0  0  0  0  0
   -2.5651   -9.2505    1.5111 C   0  0  0  0  0  0  0  0  0  0  0  0
   -2.8001   -8.0745    0.5396 C   0  0  1  0  0  0  0  0  0  0  0  0
   -3.3762   -7.2037    2.5069 C   0  0  2  0  0  0  0  0  0  0  0  0
   -2.9380   -8.6428    2.8812 C   0  0  1  0  0  0  0  0  0  0  0  0
   -3.9609   -9.4710    3.6473 C   0  0  0  0  0  0  0  0  0  0  0  0
   -1.7548   -8.5693    3.6823 O   0  0  0  0  0  0  0  0  0  0  0  0
  1  2  1  0
  5  1  1  1
  6  2  1  6
  3  5  1  0
  3  6  1  0
  4  5  1  0
  4  7  1  0
  6  7  1  0
  7  8  1  1
  7  9  1  0
M  END
>  <ref_pdb>  (91) 
x0102_0B

>  <ref_mols>  (91) 
x1083_0A,x1247_0A,x1052_0A,x1020_0A,x1140_0A,x1305_0B

>  <original SMILES>  (91) 
CC1(O)CC2CCC1C2

>  <Score>  (91) 
-1.0184723933086843

$$$$
EN300-37375326
     RDKit          3D

 14 15  0  0  0  0  0  0  0  0999 V2000
   -5.7976   -7.6957    0.5725 C   0  0  0  0  0  0  0  0  0  0  0  0
   -2.5021   -6.7493    1.8236 C   0  0  0  0  0  0  0  0  0  0  0  0
   -2.3126   -8.6777    1.0409 C   0  0  0  0  0  0  0  0  0  0  0  0
   -4.2917   -8.3468    2.5365 C   0  0  0  0  0  0  0  0  0  0  0  0
   -3.2454   -7.4687    0.6263 C   0  0  1  0  0  0  0  0  0  0  0  0
   -2.7908   -8.1562    2.4299 C   0  0  2  0  0  0  0  0  0  0  0  0
   -7.3063   -8.8524   -1.2276 C   0  0  0  0  0  0  0  0  0  0  0  0
   -6.6436   -7.0669   -2.8652 C   0  0  0  0  0  0  0  0  0  0  0  0
   -5.0074   -8.8711   -2.2519 C   0  0  0  0  0  0  0  0  0  0  0  0
   -6.1565   -7.9952   -1.7547 C   0  0  0  0  0  0  0  0  0  0  0  0
   -4.5756   -7.8277    1.1893 N   0  0  0  0  0  0  0  0  0  0  0  0
   -1.9071   -8.5071    3.5088 N   0  0  0  0  0  0  0  0  0  0  0  0
   -6.8679   -8.0083    1.0877 O   0  0  0  0  0  0  0  0  0  0  0  0
   -5.6740   -7.1733   -0.6861 O   0  0  0  0  0  0  0  0  0  0  0  0
  1 11  1  0
  1 13  2  0
  1 14  1  0
  5  2  1  1
  2  6  1  0
  3  5  1  0
  3  6  1  0
  4  6  1  0
  4 11  1  0
  5 11  1  0
  6 12  1  1
  7 10  1  0
  8 10  1  0
  9 10  1  0
 10 14  1  0
M  END
>  <ref_pdb>  (92) 
x0102_0B

>  <ref_mols>  (92) 
x1083_0A,x1247_0A,x1052_0A,x1020_0A,x1140_0A,x1305_0B

>  <original SMILES>  (92) 
CC(C)(C)OC(=O)N1C[C@]2(N)C[C@H]1C2

>  <Score>  (92) 
-3.4237130973556305

$$$$
EN300-7434257
     RDKit          3D

 14 15  0  0  0  0  0  0  0  0999 V2000
   -5.7973   -7.6964    0.5717 C   0  0  0  0  0  0  0  0  0  0  0  0
   -2.5028   -6.7490    1.8246 C   0  0  0  0  0  0  0  0  0  0  0  0
   -2.3120   -8.6767    1.0406 C   0  0  0  0  0  0  0  0  0  0  0  0
   -4.2918   -8.3481    2.5356 C   0  0  0  0  0  0  0  0  0  0  0  0
   -3.2453   -7.4680    0.6266 C   0  0  1  0  0  0  0  0  0  0  0  0
   -2.7909   -8.1564    2.4298 C   0  0  2  0  0  0  0  0  0  0  0  0
   -7.3046   -8.8527   -1.2298 C   0  0  0  0  0  0  0  0  0  0  0  0
   -6.6424   -7.0655   -2.8658 C   0  0  0  0  0  0  0  0  0  0  0  0
   -5.0053   -8.8690   -2.2533 C   0  0  0  0  0  0  0  0  0  0  0  0
   -6.1551   -7.9943   -1.7559 C   0  0  0  0  0  0  0  0  0  0  0  0
   -4.5755   -7.8281    1.1888 N   0  0  0  0  0  0  0  0  0  0  0  0
   -1.9074   -8.5076    3.5087 N   0  0  0  0  0  0  0  0  0  0  0  0
   -6.8676   -8.0100    1.0863 O   0  0  0  0  0  0  0  0  0  0  0  0
   -5.6735   -7.1729   -0.6864 O   0  0  0  0  0  0  0  0  0  0  0  0
  1 11  1  0
  1 13  2  0
  1 14  1  0
  5  2  1  1
  2  6  1  0
  3  5  1  0
  3  6  1  0
  4  6  1  0
  4 11  1  0
  5 11  1  0
  6 12  1  1
  7 10  1  0
  8 10  1  0
  9 10  1  0
 10 14  1  0
M  END
>  <ref_pdb>  (93) 
x0102_0B

>  <ref_mols>  (93) 
x1083_0A,x1247_0A,x1052_0A,x1020_0A,x1140_0A,x1305_0B

>  <original SMILES>  (93) 
CC(C)(C)OC(=O)N1CC2(N)CC1C2

>  <Score>  (93) 
-3.4221669003534316

$$$$
EN300-2008081
     RDKit          3D

 13 15  0  0  1  0  0  0  0  0999 V2000
   -4.2051   -7.6653   -1.0750 C   0  0  0  0  0  0  0  0  0  0  0  0
   -5.5632   -7.4022   -1.2561 C   0  0  0  0  0  0  0  0  0  0  0  0
   -5.8970   -7.2420    1.1494 C   0  0  0  0  0  0  0  0  0  0  0  0
   -3.7127   -7.7118    0.2198 C   0  0  0  0  0  0  0  0  0  0  0  0
   -4.5464   -7.5023    1.3369 C   0  0  0  0  0  0  0  0  0  0  0  0
   -6.4031   -7.1923   -0.1525 C   0  0  0  0  0  0  0  0  0  0  0  0
   -2.2880   -7.9882    0.6402 C   0  0  0  0  0  0  0  0  0  0  0  0
   -3.7699   -7.6063    2.6108 C   0  0  2  0  0  0  0  0  0  0  0  0
   -2.3331   -7.8900    2.1566 C   0  0  1  0  0  0  0  0  0  0  0  0
   -3.0803   -8.8701    2.9910 C   0  0  0  0  0  0  0  0  0  0  0  0
   -3.4804  -10.0822    2.4740 F   0  0  0  0  0  0  0  0  0  0  0  0
   -2.7104   -9.0897    4.2995 F   0  0  0  0  0  0  0  0  0  0  0  0
   -8.2405   -6.8379   -0.4297 Br  0  0  0  0  0  0  0  0  0  0  0  0
  1  2  2  0
  1  4  1  0
  2  6  1  0
  3  5  1  0
  3  6  2  0
  4  5  2  0
  4  7  1  0
  5  8  1  0
  6 13  1  0
  9  7  1  6
  8  9  1  0
  8 10  1  1
  9 10  1  0
 10 11  1  0
 10 12  1  0
M  END
>  <ref_pdb>  (94) 
x0102_0B

>  <ref_mols>  (94) 
x1083_0A,x1247_0A,x1052_0A,x1020_0A,x1140_0A,x1305_0B

>  <original SMILES>  (94) 
FC1(F)C2CC=3C=CC(Br)=CC3C21

>  <Score>  (94) 
-4.1100043833666859

$$$$
EN300-296284
     RDKit          3D

 15 16  0  0  1  0  0  0  0  0999 V2000
   -5.4866   -8.1085   -0.1591 C   0  0  0  0  0  0  0  0  0  0  0  0
   -2.7613   -6.6063    1.6713 C   0  0  0  0  0  0  0  0  0  0  0  0
   -3.9873   -8.2368    2.8870 C   0  0  0  0  0  0  0  0  0  0  0  0
   -2.9780   -8.3871    0.1234 C   0  0  0  0  0  0  0  0  0  0  0  0
   -2.1395   -7.9733    1.3440 C   0  0  2  0  0  0  0  0  0  0  0  0
   -4.1735   -7.1791    1.7833 C   0  0  2  0  0  0  0  0  0  0  0  0
   -2.5907   -8.8119    2.5624 C   0  0  1  0  0  0  0  0  0  0  0  0
   -6.0920   -5.9766   -1.5548 C   0  0  0  0  0  0  0  0  0  0  0  0
   -5.1035   -7.0789   -3.5837 C   0  0  0  0  0  0  0  0  0  0  0  0
   -7.3328   -7.8370   -2.7098 C   0  0  0  0  0  0  0  0  0  0  0  0
   -5.9587   -7.2835   -2.3352 C   0  0  0  0  0  0  0  0  0  0  0  0
   -4.3000   -7.8973    0.5109 N   0  0  0  0  0  0  0  0  0  0  0  0
   -6.5868   -8.1692    0.3840 O   0  0  0  0  0  0  0  0  0  0  0  0
   -1.7189   -8.6026    3.6638 O   0  0  0  0  0  0  0  0  0  0  0  0
   -5.2913   -8.2424   -1.5075 O   0  0  0  0  0  0  0  0  0  0  0  0
  1 12  1  0
  1 13  2  0
  1 15  1  0
  2  5  1  0
  2  6  1  0
  6  3  1  1
  3  7  1  0
  5  4  1  6
  4 12  1  0
  5  7  1  0
  6 12  1  0
  7 14  1  1
  8 11  1  0
  9 11  1  0
 10 11  1  0
 11 15  1  0
M  END
>  <ref_pdb>  (95) 
x0102_0B

>  <ref_mols>  (95) 
x1083_0A,x1247_0A,x1052_0A,x1020_0A,x1140_0A,x1305_0B

>  <original SMILES>  (95) 
CC(C)(C)OC(=O)N1CC2CC1CC2O

>  <Score>  (95) 
-0.96460170178602311

$$$$
EN300-159836
     RDKit          3D

 15 16  0  0  1  0  0  0  0  0999 V2000
   -5.4735   -8.1034   -0.1763 C   0  0  0  0  0  0  0  0  0  0  0  0
   -2.7558   -6.6099    1.6721 C   0  0  0  0  0  0  0  0  0  0  0  0
   -3.9999   -8.2302    2.8825 C   0  0  0  0  0  0  0  0  0  0  0  0
   -2.9687   -8.3938    0.1275 C   0  0  0  0  0  0  0  0  0  0  0  0
   -2.1382   -7.9813    1.3542 C   0  0  2  0  0  0  0  0  0  0  0  0
   -4.1717   -7.1751    1.7740 C   0  0  2  0  0  0  0  0  0  0  0  0
   -2.6033   -8.8140    2.5705 C   0  0  1  0  0  0  0  0  0  0  0  0
   -6.0573   -5.9721   -1.5824 C   0  0  0  0  0  0  0  0  0  0  0  0
   -5.0580   -7.0849   -3.6005 C   0  0  0  0  0  0  0  0  0  0  0  0
   -7.2980   -7.8295   -2.7425 C   0  0  0  0  0  0  0  0  0  0  0  0
   -5.9243   -7.2818   -2.3583 C   0  0  0  0  0  0  0  0  0  0  0  0
   -4.2914   -7.8965    0.5028 N   0  0  0  0  0  0  0  0  0  0  0  0
   -6.5784   -8.1572    0.3583 O   0  0  0  0  0  0  0  0  0  0  0  0
   -1.7197   -8.6037    3.6621 O   0  0  0  0  0  0  0  0  0  0  0  0
   -5.2681   -8.2418   -1.5226 O   0  0  0  0  0  0  0  0  0  0  0  0
  1 12  1  0
  1 13  2  0
  1 15  1  0
  2  5  1  0
  2  6  1  0
  6  3  1  1
  3  7  1  0
  5  4  1  6
  4 12  1  0
  5  7  1  0
  6 12  1  0
  7 14  1  1
  8 11  1  0
  9 11  1  0
 10 11  1  0
 11 15  1  0
M  END
>  <ref_pdb>  (96) 
x0102_0B

>  <ref_mols>  (96) 
x1083_0A,x1247_0A,x1052_0A,x1020_0A,x1140_0A,x1305_0B

>  <original SMILES>  (96) 
CC(C)(C)OC(=O)N1C[C@H]2C[C@@H]1CC2O

>  <Score>  (96) 
-0.74307277071238786

$$$$
EN300-1703754
     RDKit          3D

 11 13  0  0  1  0  0  0  0  0999 V2000
   -5.6698   -7.0504   -1.3581 C   0  0  0  0  0  0  0  0  0  0  0  0
   -6.5636   -7.4226   -0.3586 C   0  0  0  0  0  0  0  0  0  0  0  0
   -4.3024   -7.0274   -1.0941 C   0  0  0  0  0  0  0  0  0  0  0  0
   -6.0915   -7.7701    0.9084 C   0  0  0  0  0  0  0  0  0  0  0  0
   -3.8211   -7.3896    0.1716 C   0  0  0  0  0  0  0  0  0  0  0  0
   -4.7186   -7.7578    1.2015 C   0  0  0  0  0  0  0  0  0  0  0  0
   -2.3393   -7.3116    0.4689 C   0  0  0  0  0  0  0  0  0  0  0  0
   -1.8724   -8.3690    1.4771 C   0  0  0  0  0  0  0  0  0  0  0  0
   -4.2030   -8.1335    2.5676 C   0  0  1  0  0  0  0  0  0  0  0  0
   -2.7370   -8.4604    2.6955 C   0  0  2  0  0  0  0  0  0  0  0  0
   -3.2667   -7.2315    3.1955 O   0  0  0  0  0  0  0  0  0  0  0  0
  1  2  2  0
  1  3  1  0
  2  4  1  0
  3  5  2  0
  4  6  2  0
  5  6  1  0
  5  7  1  0
  6  9  1  0
  7  8  1  0
 10  8  1  6
  9 10  1  0
  9 11  1  1
 10 11  1  0
M  END
>  <ref_pdb>  (97) 
x0102_0B

>  <ref_mols>  (97) 
x1083_0A,x1247_0A,x1052_0A,x1020_0A,x1140_0A,x1305_0B

>  <original SMILES>  (97) 
C1CC=2C=CC=CC2[C@@H]3O[C@H]13 |&1:8,10,r|

>  <Score>  (97) 
-2.009330952066307

$$$$
EN300-299511
     RDKit          3D

 12 14  0  0  1  0  0  0  0  0999 V2000
   -5.8879   -7.3982    1.5091 C   0  0  0  0  0  0  0  0  0  0  0  0
   -6.6420   -7.4676    0.3344 C   0  0  0  0  0  0  0  0  0  0  0  0
   -4.6319   -7.7916   -0.9925 C   0  0  0  0  0  0  0  0  0  0  0  0
   -4.5079   -7.5247    1.4306 C   0  0  0  0  0  0  0  0  0  0  0  0
   -3.8931   -7.7208    0.1778 C   0  0  0  0  0  0  0  0  0  0  0  0
   -6.0184   -7.6625   -0.9068 C   0  0  0  0  0  0  0  0  0  0  0  0
   -2.3939   -7.8432    0.3166 C   0  0  0  0  0  0  0  0  0  0  0  0
   -3.4870   -7.4867    2.5244 C   0  0  2  0  0  0  0  0  0  0  0  0
   -2.1549   -7.6688    1.8091 C   0  0  1  0  0  0  0  0  0  0  0  0
   -2.6232   -8.6915    2.8149 C   0  0  1  0  0  0  0  0  0  0  0  0
   -1.9465   -8.8124    4.1113 N   0  0  0  0  0  0  0  0  0  0  0  0
   -6.7620   -7.7273   -2.0194 F   0  0  0  0  0  0  0  0  0  0  0  0
  1  2  2  0
  1  4  1  0
  2  6  1  0
  3  5  1  0
  3  6  2  0
  4  5  2  0
  8  4  1  6
  5  7  1  0
  6 12  1  0
  9  7  1  6
  8  9  1  0
  8 10  1  0
  9 10  1  0
 10 11  1  1
M  END
>  <ref_pdb>  (98) 
x0102_0B

>  <ref_mols>  (98) 
x1083_0A,x1247_0A,x1052_0A,x1020_0A,x1140_0A,x1305_0B

>  <original SMILES>  (98) 
NC1C2CC=3C=C(F)C=CC3C12

>  <Score>  (98) 
-4.2670010721845983

$$$$
EN300-306579
     RDKit          3D

 12 14  0  0  1  0  0  0  0  0999 V2000
   -5.8879   -7.3982    1.5091 C   0  0  0  0  0  0  0  0  0  0  0  0
   -6.6420   -7.4676    0.3344 C   0  0  0  0  0  0  0  0  0  0  0  0
   -4.6319   -7.7916   -0.9925 C   0  0  0  0  0  0  0  0  0  0  0  0
   -4.5079   -7.5247    1.4306 C   0  0  0  0  0  0  0  0  0  0  0  0
   -3.8931   -7.7208    0.1778 C   0  0  0  0  0  0  0  0  0  0  0  0
   -6.0184   -7.6625   -0.9068 C   0  0  0  0  0  0  0  0  0  0  0  0
   -2.3939   -7.8432    0.3166 C   0  0  0  0  0  0  0  0  0  0  0  0
   -3.4870   -7.4867    2.5244 C   0  0  2  0  0  0  0  0  0  0  0  0
   -2.1549   -7.6688    1.8091 C   0  0  1  0  0  0  0  0  0  0  0  0
   -2.6232   -8.6915    2.8149 C   0  0  1  0  0  0  0  0  0  0  0  0
   -1.9465   -8.8124    4.1113 N   0  0  0  0  0  0  0  0  0  0  0  0
   -6.7620   -7.7273   -2.0194 F   0  0  0  0  0  0  0  0  0  0  0  0
  1  2  2  0
  1  4  1  0
  2  6  1  0
  3  5  1  0
  3  6  2  0
  4  5  2  0
  8  4  1  6
  5  7  1  0
  6 12  1  0
  9  7  1  6
  8  9  1  0
  8 10  1  0
  9 10  1  0
 10 11  1  1
M  END
>  <ref_pdb>  (99) 
x0102_0B

>  <ref_mols>  (99) 
x1083_0A,x1247_0A,x1052_0A,x1020_0A,x1140_0A,x1305_0B

>  <original SMILES>  (99) 
Cl.NC1C2CC=3C=C(F)C=CC3C12

>  <Score>  (99) 
-4.2670010721845983

$$$$
EN300-1717549
     RDKit          3D

 10 12  0  0  1  0  0  0  0  0999 V2000
   -2.4908   -6.6857    1.4278 C   0  0  0  0  0  0  0  0  0  0  0  0
   -1.7727   -8.8919    1.7432 C   0  0  0  0  0  0  0  0  0  0  0  0
   -2.4955   -8.0275    0.6913 C   0  0  1  0  0  0  0  0  0  0  0  0
   -3.9576   -8.4645    0.6997 C   0  0  1  0  0  0  0  0  0  0  0  0
   -4.4462   -7.9700    2.0396 C   0  0  1  0  0  0  0  0  0  0  0  0
   -3.2304   -7.2659    2.6329 C   0  0  1  0  0  0  0  0  0  0  0  0
   -5.1405   -7.5606    0.7868 C   0  0  0  0  0  0  0  0  0  0  0  0
   -2.2671   -8.3270    3.0290 N   0  0  0  0  0  0  0  0  0  0  0  0
   -5.1125   -6.2683    0.3204 F   0  0  0  0  0  0  0  0  0  0  0  0
   -6.3974   -8.0543    0.5101 F   0  0  0  0  0  0  0  0  0  0  0  0
  1  3  1  0
  1  6  1  0
  3  2  1  1
  2  8  1  0
  3  4  1  0
  4  5  1  0
  4  7  1  6
  5  6  1  0
  5  7  1  6
  6  8  1  6
  7  9  1  0
  7 10  1  0
M  END
>  <ref_pdb>  (100) 
x0102_0B

>  <ref_mols>  (100) 
x1083_0A,x1247_0A,x1052_0A,x1020_0A,x1140_0A,x1305_0B

>  <original SMILES>  (100) 
FC1(F)[C@@H]2[C@H]1[C@@H]3C[C@H]2CN3 |&1:3,4,5,7,r|

>  <Score>  (100) 
-0.065623361317989293

$$$$
EN300-1717548
     RDKit          3D

 10 12  0  0  1  0  0  0  0  0999 V2000
   -2.4908   -6.6857    1.4278 C   0  0  0  0  0  0  0  0  0  0  0  0
   -1.7727   -8.8919    1.7432 C   0  0  0  0  0  0  0  0  0  0  0  0
   -2.4955   -8.0275    0.6913 C   0  0  1  0  0  0  0  0  0  0  0  0
   -3.9576   -8.4645    0.6997 C   0  0  1  0  0  0  0  0  0  0  0  0
   -4.4462   -7.9700    2.0396 C   0  0  1  0  0  0  0  0  0  0  0  0
   -3.2304   -7.2659    2.6329 C   0  0  1  0  0  0  0  0  0  0  0  0
   -5.1405   -7.5606    0.7868 C   0  0  0  0  0  0  0  0  0  0  0  0
   -2.2671   -8.3270    3.0290 N   0  0  0  0  0  0  0  0  0  0  0  0
   -5.1125   -6.2683    0.3204 F   0  0  0  0  0  0  0  0  0  0  0  0
   -6.3974   -8.0543    0.5101 F   0  0  0  0  0  0  0  0  0  0  0  0
  1  3  1  0
  1  6  1  0
  3  2  1  1
  2  8  1  0
  3  4  1  0
  4  5  1  0
  4  7  1  6
  5  6  1  0
  5  7  1  6
  6  8  1  6
  7  9  1  0
  7 10  1  0
M  END
>  <ref_pdb>  (101) 
x0102_0B

>  <ref_mols>  (101) 
x1083_0A,x1247_0A,x1052_0A,x1020_0A,x1140_0A,x1305_0B

>  <original SMILES>  (101) 
Cl.FC1(F)[C@@H]2[C@H]1[C@@H]3C[C@H]2CN3 |&1:4,5,6,8,r|

>  <Score>  (101) 
-0.065623361317989293

$$$$
EN300-27794
     RDKit          3D

 15 16  0  0  1  0  0  0  0  0999 V2000
   -5.5424   -8.0715   -0.1045 C   0  0  0  0  0  0  0  0  0  0  0  0
   -2.7004   -6.6230    1.5884 C   0  0  0  0  0  0  0  0  0  0  0  0
   -3.9830   -8.1284    2.9097 C   0  0  0  0  0  0  0  0  0  0  0  0
   -3.0467   -8.4680    0.1431 C   0  0  0  0  0  0  0  0  0  0  0  0
   -2.1573   -8.0359    1.3248 C   0  0  2  0  0  0  0  0  0  0  0  0
   -4.1378   -7.1166    1.7591 C   0  0  2  0  0  0  0  0  0  0  0  0
   -2.6193   -8.7986    2.5945 C   0  0  1  0  0  0  0  0  0  0  0  0
   -6.0666   -5.9836   -1.5962 C   0  0  0  0  0  0  0  0  0  0  0  0
   -5.1838   -7.2386   -3.5848 C   0  0  0  0  0  0  0  0  0  0  0  0
   -7.4294   -7.8307   -2.6283 C   0  0  0  0  0  0  0  0  0  0  0  0
   -6.0200   -7.3335   -2.3105 C   0  0  0  0  0  0  0  0  0  0  0  0
   -4.3316   -7.8900    0.5297 N   0  0  0  0  0  0  0  0  0  0  0  0
   -1.6874   -8.6125    3.7014 N   0  0  0  0  0  0  0  0  0  0  0  0
   -6.6318   -8.0455    0.4631 O   0  0  0  0  0  0  0  0  0  0  0  0
   -5.3851   -8.2838   -1.4477 O   0  0  0  0  0  0  0  0  0  0  0  0
  1 12  1  0
  1 14  2  0
  1 15  1  0
  2  5  1  0
  2  6  1  0
  6  3  1  1
  3  7  1  0
  5  4  1  6
  4 12  1  0
  5  7  1  0
  6 12  1  0
  7 13  1  1
  8 11  1  0
  9 11  1  0
 10 11  1  0
 11 15  1  0
M  END
>  <ref_pdb>  (102) 
x0102_0B

>  <ref_mols>  (102) 
x1083_0A,x1247_0A,x1052_0A,x1020_0A,x1140_0A,x1305_0B

>  <original SMILES>  (102) 
CC(C)(C)OC(=O)N1CC2CC1CC2N

>  <Score>  (102) 
-3.093282392746687

$$$$
EN300-37375530
     RDKit          3D

 12 14  0  0  0  0  0  0  0  0999 V2000
   -6.6467   -7.4840   -0.3498 C   0  0  0  0  0  0  0  0  0  0  0  0
   -5.8155   -6.9141   -1.3188 C   0  0  0  0  0  0  0  0  0  0  0  0
   -6.1157   -7.9582    0.8548 C   0  0  0  0  0  0  0  0  0  0  0  0
   -4.4455   -6.8121   -1.0947 C   0  0  0  0  0  0  0  0  0  0  0  0
   -4.7444   -7.8698    1.1088 C   0  0  0  0  0  0  0  0  0  0  0  0
   -3.9322   -7.2872    0.1058 C   0  0  0  0  0  0  0  0  0  0  0  0
   -2.9423   -7.2531    2.8953 C   0  0  0  0  0  0  0  0  0  0  0  0
   -2.6591   -9.1474    2.0243 C   0  0  0  0  0  0  0  0  0  0  0  0
   -2.1099   -7.7219    1.6438 C   0  0  1  0  0  0  0  0  0  0  0  0
   -3.9460   -8.3288    2.3669 C   0  0  2  0  0  0  0  0  0  0  0  0
   -4.6784   -8.9412    3.4585 N   0  0  0  0  0  0  0  0  0  0  0  0
   -2.5621   -7.1934    0.3473 O   0  0  0  0  0  0  0  0  0  0  0  0
  1  2  2  0
  1  3  1  0
  2  4  1  0
  3  5  2  0
  4  6  2  0
  5  6  1  0
  5 10  1  0
  6 12  1  0
  9  7  1  1
  7 10  1  0
  8  9  1  0
  8 10  1  0
  9 12  1  0
 10 11  1  1
M  END
>  <ref_pdb>  (103) 
x0102_0B

>  <ref_mols>  (103) 
x1083_0A,x1247_0A,x1052_0A,x1020_0A,x1140_0A,x1305_0B

>  <original SMILES>  (103) 
Cl.N[C@]1(C[C@H]2C1)C=3C=CC=CC3O2

>  <Score>  (103) 
-0.45736583609277659

$$$$
EN300-311704
     RDKit          3D

 12 14  0  0  1  0  0  0  0  0999 V2000
   -5.8887   -7.4000    1.5054 C   0  0  0  0  0  0  0  0  0  0  0  0
   -6.6410   -7.4678    0.3294 C   0  0  0  0  0  0  0  0  0  0  0  0
   -4.6285   -7.7875   -0.9951 C   0  0  0  0  0  0  0  0  0  0  0  0
   -4.5085   -7.5251    1.4287 C   0  0  0  0  0  0  0  0  0  0  0  0
   -3.8916   -7.7183    0.1765 C   0  0  0  0  0  0  0  0  0  0  0  0
   -6.0152   -7.6598   -0.9113 C   0  0  0  0  0  0  0  0  0  0  0  0
   -2.3925   -7.8396    0.3175 C   0  0  0  0  0  0  0  0  0  0  0  0
   -3.4895   -7.4883    2.5244 C   0  0  2  0  0  0  0  0  0  0  0  0
   -2.1559   -7.6678    1.8107 C   0  0  1  0  0  0  0  0  0  0  0  0
   -2.6250   -8.6928    2.8138 C   0  0  1  0  0  0  0  0  0  0  0  0
   -1.9477   -8.8149    4.1100 N   0  0  0  0  0  0  0  0  0  0  0  0
   -6.9678   -7.7408   -2.3438 Cl  0  0  0  0  0  0  0  0  0  0  0  0
  1  2  2  0
  1  4  1  0
  2  6  1  0
  3  5  1  0
  3  6  2  0
  4  5  2  0
  8  4  1  6
  5  7  1  0
  6 12  1  0
  9  7  1  6
  8  9  1  0
  8 10  1  0
  9 10  1  0
 10 11  1  1
M  END
>  <ref_pdb>  (104) 
x0102_0B

>  <ref_mols>  (104) 
x1083_0A,x1247_0A,x1052_0A,x1020_0A,x1140_0A,x1305_0B

>  <original SMILES>  (104) 
NC1C2CC=3C=C(Cl)C=CC3C12

>  <Score>  (104) 
-4.4004931222825689

$$$$
EN300-315320
     RDKit          3D

 12 14  0  0  1  0  0  0  0  0999 V2000
   -5.8887   -7.4000    1.5054 C   0  0  0  0  0  0  0  0  0  0  0  0
   -6.6410   -7.4678    0.3294 C   0  0  0  0  0  0  0  0  0  0  0  0
   -4.6285   -7.7875   -0.9951 C   0  0  0  0  0  0  0  0  0  0  0  0
   -4.5085   -7.5251    1.4287 C   0  0  0  0  0  0  0  0  0  0  0  0
   -3.8916   -7.7183    0.1765 C   0  0  0  0  0  0  0  0  0  0  0  0
   -6.0152   -7.6598   -0.9113 C   0  0  0  0  0  0  0  0  0  0  0  0
   -2.3925   -7.8396    0.3175 C   0  0  0  0  0  0  0  0  0  0  0  0
   -3.4895   -7.4883    2.5244 C   0  0  2  0  0  0  0  0  0  0  0  0
   -2.1559   -7.6678    1.8107 C   0  0  1  0  0  0  0  0  0  0  0  0
   -2.6250   -8.6928    2.8138 C   0  0  1  0  0  0  0  0  0  0  0  0
   -1.9477   -8.8149    4.1100 N   0  0  0  0  0  0  0  0  0  0  0  0
   -6.9678   -7.7408   -2.3438 Cl  0  0  0  0  0  0  0  0  0  0  0  0
  1  2  2  0
  1  4  1  0
  2  6  1  0
  3  5  1  0
  3  6  2  0
  4  5  2  0
  8  4  1  6
  5  7  1  0
  6 12  1  0
  9  7  1  6
  8  9  1  0
  8 10  1  0
  9 10  1  0
 10 11  1  1
M  END
>  <ref_pdb>  (105) 
x0102_0B

>  <ref_mols>  (105) 
x1083_0A,x1247_0A,x1052_0A,x1020_0A,x1140_0A,x1305_0B

>  <original SMILES>  (105) 
Cl.NC1C2CC=3C=C(Cl)C=CC3C12

>  <Score>  (105) 
-4.4004931222825689

$$$$
EN300-37375337
     RDKit          3D

 14 15  0  0  0  0  0  0  0  0999 V2000
   -5.8734   -7.8552    0.7488 C   0  0  0  0  0  0  0  0  0  0  0  0
   -2.5687   -6.7071    1.7905 C   0  0  0  0  0  0  0  0  0  0  0  0
   -2.3105   -8.6124    0.9718 C   0  0  0  0  0  0  0  0  0  0  0  0
   -4.2103   -8.4138    2.5675 C   0  0  0  0  0  0  0  0  0  0  0  0
   -3.3230   -7.4564    0.6288 C   0  0  1  0  0  0  0  0  0  0  0  0
   -2.7106   -8.1391    2.4112 C   0  0  2  0  0  0  0  0  0  0  0  0
   -7.8578   -8.5427   -1.1872 C   0  0  0  0  0  0  0  0  0  0  0  0
   -6.3754   -7.3792   -2.8481 C   0  0  0  0  0  0  0  0  0  0  0  0
   -5.5371   -9.4101   -1.6310 C   0  0  0  0  0  0  0  0  0  0  0  0
   -6.4196   -8.1660   -1.5399 C   0  0  0  0  0  0  0  0  0  0  0  0
   -4.5934   -7.8978    1.2517 N   0  0  0  0  0  0  0  0  0  0  0  0
   -6.8657   -8.2521    1.3542 O   0  0  0  0  0  0  0  0  0  0  0  0
   -1.9018   -8.5140    3.5233 O   0  0  0  0  0  0  0  0  0  0  0  0
   -5.9050   -7.3167   -0.5081 O   0  0  0  0  0  0  0  0  0  0  0  0
  1 11  1  0
  1 12  2  0
  1 14  1  0
  5  2  1  1
  2  6  1  0
  3  5  1  0
  3  6  1  0
  4  6  1  0
  4 11  1  0
  5 11  1  0
  6 13  1  1
  7 10  1  0
  8 10  1  0
  9 10  1  0
 10 14  1  0
M  END
>  <ref_pdb>  (106) 
x0102_0B

>  <ref_mols>  (106) 
x1083_0A,x1247_0A,x1052_0A,x1020_0A,x1140_0A,x1305_0B

>  <original SMILES>  (106) 
CC(C)(C)OC(=O)N1C[C@]2(O)C[C@H]1C2

>  <Score>  (106) 
-2.2814310576650314

$$$$
EN300-7455739
     RDKit          3D

 14 15  0  0  0  0  0  0  0  0999 V2000
   -5.8736   -7.8569    0.7481 C   0  0  0  0  0  0  0  0  0  0  0  0
   -2.3100   -8.6105    0.9710 C   0  0  0  0  0  0  0  0  0  0  0  0
   -2.5703   -6.7065    1.7919 C   0  0  0  0  0  0  0  0  0  0  0  0
   -4.2103   -8.4155    2.5669 C   0  0  0  0  0  0  0  0  0  0  0  0
   -3.3237   -7.4552    0.6293 C   0  0  2  0  0  0  0  0  0  0  0  0
   -2.7108   -8.1393    2.4110 C   0  0  1  0  0  0  0  0  0  0  0  0
   -7.8564   -8.5444   -1.1898 C   0  0  0  0  0  0  0  0  0  0  0  0
   -6.3741   -7.3777   -2.8484 C   0  0  0  0  0  0  0  0  0  0  0  0
   -5.5347   -9.4091   -1.6332 C   0  0  0  0  0  0  0  0  0  0  0  0
   -6.4183   -8.1659   -1.5411 C   0  0  0  0  0  0  0  0  0  0  0  0
   -4.5938   -7.8986    1.2515 N   0  0  0  0  0  0  0  0  0  0  0  0
   -6.8659   -8.2554    1.3527 O   0  0  0  0  0  0  0  0  0  0  0  0
   -1.9017   -8.5146    3.5224 O   0  0  0  0  0  0  0  0  0  0  0  0
   -5.9051   -7.3173   -0.5081 O   0  0  0  0  0  0  0  0  0  0  0  0
  1 11  1  0
  1 12  2  0
  1 14  1  0
  5  2  1  1
  2  6  1  0
  3  5  1  0
  3  6  1  0
  4  6  1  0
  4 11  1  0
  5 11  1  0
  6 13  1  1
  7 10  1  0
  8 10  1  0
  9 10  1  0
 10 14  1  0
M  END
>  <ref_pdb>  (107) 
x0102_0B

>  <ref_mols>  (107) 
x1083_0A,x1247_0A,x1052_0A,x1020_0A,x1140_0A,x1305_0B

>  <original SMILES>  (107) 
CC(C)(C)OC(=O)N1CC2(O)CC1C2

>  <Score>  (107) 
-2.2748953666568923

$$$$
EN300-315884
     RDKit          3D

 15 16  0  0  1  0  0  0  0  0999 V2000
   -5.0486   -8.3862   -0.5618 C   0  0  0  0  0  0  0  0  0  0  0  0
   -2.4975   -6.7684    1.4147 C   0  0  0  0  0  0  0  0  0  0  0  0
   -2.3946   -9.1407    1.4223 C   0  0  0  0  0  0  0  0  0  0  0  0
   -4.7525   -7.4063    1.7626 C   0  0  0  0  0  0  0  0  0  0  0  0
   -3.4311   -7.2557    2.5345 C   0  0  1  0  0  0  0  0  0  0  0  0
   -2.8082   -7.9654    0.5173 C   0  0  1  0  0  0  0  0  0  0  0  0
   -2.8587   -8.6635    2.8171 C   0  0  2  0  0  0  0  0  0  0  0  0
   -6.2088   -6.8853   -2.2296 C   0  0  0  0  0  0  0  0  0  0  0  0
   -8.2174   -8.3355   -1.8151 C   0  0  0  0  0  0  0  0  0  0  0  0
   -7.7928   -6.3391   -0.3515 C   0  0  0  0  0  0  0  0  0  0  0  0
   -7.1479   -7.4577   -1.1688 C   0  0  0  0  0  0  0  0  0  0  0  0
   -4.2741   -7.9357    0.4864 N   0  0  0  0  0  0  0  0  0  0  0  0
   -4.5974   -8.8234   -1.6176 O   0  0  0  0  0  0  0  0  0  0  0  0
   -1.7534   -8.5632    3.7030 O   0  0  0  0  0  0  0  0  0  0  0  0
   -6.3855   -8.2868   -0.2847 O   0  0  0  0  0  0  0  0  0  0  0  0
  1 12  1  0
  1 13  2  0
  1 15  1  0
  2  5  1  0
  2  6  1  0
  6  3  1  1
  3  7  1  0
  5  4  1  6
  4 12  1  0
  5  7  1  0
  6 12  1  0
  7 14  1  1
  8 11  1  0
  9 11  1  0
 10 11  1  0
 11 15  1  0
M  END
>  <ref_pdb>  (108) 
x0102_0B

>  <ref_mols>  (108) 
x1083_0A,x1247_0A,x1052_0A,x1020_0A,x1140_0A,x1305_0B

>  <original SMILES>  (108) 
CC(C)(C)OC(=O)N1C[C@@H]2C[C@H]1C[C@H]2O |&1:9,11,13,r|

>  <Score>  (108) 
-1.6561591934701028

$$$$
EN300-148685
     RDKit          3D

 11 13  0  0  1  0  0  0  0  0999 V2000
   -6.0212   -7.6547   -0.9082 C   0  0  0  0  0  0  0  0  0  0  0  0
   -6.6431   -7.4525    0.3328 C   0  0  0  0  0  0  0  0  0  0  0  0
   -4.6353   -7.7909   -0.9943 C   0  0  0  0  0  0  0  0  0  0  0  0
   -5.8880   -7.3829    1.5068 C   0  0  0  0  0  0  0  0  0  0  0  0
   -3.8955   -7.7197    0.1754 C   0  0  0  0  0  0  0  0  0  0  0  0
   -4.5086   -7.5164    1.4279 C   0  0  0  0  0  0  0  0  0  0  0  0
   -2.3968   -7.8491    0.3138 C   0  0  0  0  0  0  0  0  0  0  0  0
   -3.4870   -7.4797    2.5211 C   0  0  2  0  0  0  0  0  0  0  0  0
   -2.1561   -7.6709    1.8056 C   0  0  1  0  0  0  0  0  0  0  0  0
   -2.6289   -8.6878    2.8151 C   0  0  1  0  0  0  0  0  0  0  0  0
   -1.9519   -8.8073    4.1117 N   0  0  0  0  0  0  0  0  0  0  0  0
  1  2  2  0
  1  3  1  0
  2  4  1  0
  3  5  2  0
  4  6  2  0
  5  6  1  0
  5  7  1  0
  8  6  1  6
  9  7  1  6
  8  9  1  0
  8 10  1  0
  9 10  1  0
 10 11  1  1
M  END
>  <ref_pdb>  (109) 
x0102_0B

>  <ref_mols>  (109) 
x1083_0A,x1247_0A,x1052_0A,x1020_0A,x1140_0A,x1305_0B

>  <original SMILES>  (109) 
NC1C2CC=3C=CC=CC3C12

>  <Score>  (109) 
-4.2605531232168232

$$$$
EN300-109722
     RDKit          3D

 11 13  0  0  1  0  0  0  0  0999 V2000
   -6.0212   -7.6547   -0.9082 C   0  0  0  0  0  0  0  0  0  0  0  0
   -6.6431   -7.4525    0.3328 C   0  0  0  0  0  0  0  0  0  0  0  0
   -4.6353   -7.7909   -0.9943 C   0  0  0  0  0  0  0  0  0  0  0  0
   -5.8880   -7.3829    1.5068 C   0  0  0  0  0  0  0  0  0  0  0  0
   -3.8955   -7.7197    0.1754 C   0  0  0  0  0  0  0  0  0  0  0  0
   -4.5086   -7.5164    1.4279 C   0  0  0  0  0  0  0  0  0  0  0  0
   -2.3968   -7.8491    0.3138 C   0  0  0  0  0  0  0  0  0  0  0  0
   -3.4870   -7.4797    2.5211 C   0  0  2  0  0  0  0  0  0  0  0  0
   -2.1561   -7.6709    1.8056 C   0  0  1  0  0  0  0  0  0  0  0  0
   -2.6289   -8.6878    2.8151 C   0  0  1  0  0  0  0  0  0  0  0  0
   -1.9519   -8.8073    4.1117 N   0  0  0  0  0  0  0  0  0  0  0  0
  1  2  2  0
  1  3  1  0
  2  4  1  0
  3  5  2  0
  4  6  2  0
  5  6  1  0
  5  7  1  0
  8  6  1  6
  9  7  1  6
  8  9  1  0
  8 10  1  0
  9 10  1  0
 10 11  1  1
M  END
>  <ref_pdb>  (110) 
x0102_0B

>  <ref_mols>  (110) 
x1083_0A,x1247_0A,x1052_0A,x1020_0A,x1140_0A,x1305_0B

>  <original SMILES>  (110) 
Cl.NC1C2CC=3C=CC=CC3C12

>  <Score>  (110) 
-4.2605531232168232

$$$$
EN300-657405
     RDKit          3D

 11 13  0  0  1  0  0  0  0  0999 V2000
   -6.0211   -7.6548   -0.9084 C   0  0  0  0  0  0  0  0  0  0  0  0
   -6.6430   -7.4519    0.3324 C   0  0  0  0  0  0  0  0  0  0  0  0
   -4.6353   -7.7913   -0.9944 C   0  0  0  0  0  0  0  0  0  0  0  0
   -5.8880   -7.3823    1.5065 C   0  0  0  0  0  0  0  0  0  0  0  0
   -3.8956   -7.7198    0.1753 C   0  0  0  0  0  0  0  0  0  0  0  0
   -4.5087   -7.5162    1.4278 C   0  0  0  0  0  0  0  0  0  0  0  0
   -2.3969   -7.8492    0.3138 C   0  0  0  0  0  0  0  0  0  0  0  0
   -3.4873   -7.4796    2.5213 C   0  0  2  0  0  0  0  0  0  0  0  0
   -2.1560   -7.6708    1.8055 C   0  0  1  0  0  0  0  0  0  0  0  0
   -2.6290   -8.6881    2.8154 C   0  0  1  0  0  0  0  0  0  0  0  0
   -1.9518   -8.8073    4.1119 N   0  0  0  0  0  0  0  0  0  0  0  0
  1  2  2  0
  1  3  1  0
  2  4  1  0
  3  5  2  0
  4  6  2  0
  5  6  1  0
  5  7  1  0
  8  6  1  6
  9  7  1  6
  8  9  1  0
  8 10  1  0
  9 10  1  0
 10 11  1  1
M  END
>  <ref_pdb>  (111) 
x0102_0B

>  <ref_mols>  (111) 
x1083_0A,x1247_0A,x1052_0A,x1020_0A,x1140_0A,x1305_0B

>  <original SMILES>  (111) 
Cl.N[C@@H]1[C@H]2CC=3C=CC=CC3[C@@H]12 |&1:2,3,11,r|

>  <Score>  (111) 
-4.2569433553892395

$$$$
EN300-657406
     RDKit          3D

 11 13  0  0  1  0  0  0  0  0999 V2000
   -6.0211   -7.6548   -0.9084 C   0  0  0  0  0  0  0  0  0  0  0  0
   -6.6430   -7.4519    0.3324 C   0  0  0  0  0  0  0  0  0  0  0  0
   -4.6353   -7.7913   -0.9944 C   0  0  0  0  0  0  0  0  0  0  0  0
   -5.8880   -7.3823    1.5065 C   0  0  0  0  0  0  0  0  0  0  0  0
   -3.8956   -7.7198    0.1753 C   0  0  0  0  0  0  0  0  0  0  0  0
   -4.5087   -7.5162    1.4278 C   0  0  0  0  0  0  0  0  0  0  0  0
   -2.3969   -7.8492    0.3138 C   0  0  0  0  0  0  0  0  0  0  0  0
   -3.4873   -7.4796    2.5213 C   0  0  2  0  0  0  0  0  0  0  0  0
   -2.1560   -7.6708    1.8055 C   0  0  1  0  0  0  0  0  0  0  0  0
   -2.6290   -8.6881    2.8154 C   0  0  1  0  0  0  0  0  0  0  0  0
   -1.9518   -8.8073    4.1119 N   0  0  0  0  0  0  0  0  0  0  0  0
  1  2  2  0
  1  3  1  0
  2  4  1  0
  3  5  2  0
  4  6  2  0
  5  6  1  0
  5  7  1  0
  8  6  1  6
  9  7  1  6
  8  9  1  0
  8 10  1  0
  9 10  1  0
 10 11  1  1
M  END
>  <ref_pdb>  (112) 
x0102_0B

>  <ref_mols>  (112) 
x1083_0A,x1247_0A,x1052_0A,x1020_0A,x1140_0A,x1305_0B

>  <original SMILES>  (112) 
N[C@@H]1[C@H]2CC=3C=CC=CC3[C@@H]12 |&1:1,2,10,r|

>  <Score>  (112) 
-4.2569433553892395

$$$$
EN300-9500459
     RDKit          3D

 15 16  0  0  1  0  0  0  0  0999 V2000
   -6.0285   -7.8945    1.0729 C   0  0  0  0  0  0  0  0  0  0  0  0
   -2.9016   -6.6901    0.5632 C   0  0  0  0  0  0  0  0  0  0  0  0
   -2.2635   -6.7008    1.9692 C   0  0  0  0  0  0  0  0  0  0  0  0
   -2.5738   -8.9477    1.2381 C   0  0  0  0  0  0  0  0  0  0  0  0
   -4.1720   -8.1211    2.7911 C   0  0  0  0  0  0  0  0  0  0  0  0
   -3.5806   -8.0681    0.4916 C   0  0  1  0  0  0  0  0  0  0  0  0
   -2.6532   -8.0964    2.5145 C   0  0  2  0  0  0  0  0  0  0  0  0
   -6.2140   -6.2080   -0.9223 C   0  0  0  0  0  0  0  0  0  0  0  0
   -6.3109   -8.1578   -2.5028 C   0  0  0  0  0  0  0  0  0  0  0  0
   -8.3103   -7.5905   -1.0926 C   0  0  0  0  0  0  0  0  0  0  0  0
   -6.7839   -7.6057   -1.1598 C   0  0  0  0  0  0  0  0  0  0  0  0
   -4.7047   -8.0363    1.4324 N   0  0  0  0  0  0  0  0  0  0  0  0
   -1.8444   -8.5365    3.6247 N   0  0  0  0  0  0  0  0  0  0  0  0
   -6.8720   -7.3147    1.7525 O   0  0  0  0  0  0  0  0  0  0  0  0
   -6.2912   -8.4784   -0.1370 O   0  0  0  0  0  0  0  0  0  0  0  0
  1 12  1  0
  1 14  2  0
  1 15  1  0
  2  3  1  0
  6  2  1  1
  3  7  1  0
  4  6  1  0
  4  7  1  0
  5  7  1  0
  5 12  1  0
  6 12  1  0
  7 13  1  1
  8 11  1  0
  9 11  1  0
 10 11  1  0
 11 15  1  0
M  END
>  <ref_pdb>  (113) 
x0102_0B

>  <ref_mols>  (113) 
x1083_0A,x1247_0A,x1052_0A,x1020_0A,x1140_0A,x1305_0B

>  <original SMILES>  (113) 
CC(C)(C)OC(=O)N1CC2(N)CCC1C2

>  <Score>  (113) 
-0.72460333991011794

$$$$
EN300-27755210
     RDKit          3D

 15 16  0  0  1  0  0  0  0  0999 V2000
   -6.0285   -7.8945    1.0729 C   0  0  0  0  0  0  0  0  0  0  0  0
   -2.9016   -6.6901    0.5632 C   0  0  0  0  0  0  0  0  0  0  0  0
   -2.2635   -6.7008    1.9692 C   0  0  0  0  0  0  0  0  0  0  0  0
   -2.5738   -8.9477    1.2381 C   0  0  0  0  0  0  0  0  0  0  0  0
   -4.1720   -8.1211    2.7911 C   0  0  0  0  0  0  0  0  0  0  0  0
   -3.5806   -8.0681    0.4916 C   0  0  1  0  0  0  0  0  0  0  0  0
   -2.6532   -8.0964    2.5145 C   0  0  2  0  0  0  0  0  0  0  0  0
   -6.2140   -6.2080   -0.9223 C   0  0  0  0  0  0  0  0  0  0  0  0
   -6.3109   -8.1578   -2.5028 C   0  0  0  0  0  0  0  0  0  0  0  0
   -8.3103   -7.5905   -1.0926 C   0  0  0  0  0  0  0  0  0  0  0  0
   -6.7839   -7.6057   -1.1598 C   0  0  0  0  0  0  0  0  0  0  0  0
   -4.7047   -8.0363    1.4324 N   0  0  0  0  0  0  0  0  0  0  0  0
   -1.8444   -8.5365    3.6247 N   0  0  0  0  0  0  0  0  0  0  0  0
   -6.8720   -7.3147    1.7525 O   0  0  0  0  0  0  0  0  0  0  0  0
   -6.2912   -8.4784   -0.1370 O   0  0  0  0  0  0  0  0  0  0  0  0
  1 12  1  0
  1 14  2  0
  1 15  1  0
  2  3  1  0
  6  2  1  1
  3  7  1  0
  4  6  1  0
  4  7  1  0
  5  7  1  0
  5 12  1  0
  6 12  1  0
  7 13  1  1
  8 11  1  0
  9 11  1  0
 10 11  1  0
 11 15  1  0
M  END
>  <ref_pdb>  (114) 
x0102_0B

>  <ref_mols>  (114) 
x1083_0A,x1247_0A,x1052_0A,x1020_0A,x1140_0A,x1305_0B

>  <original SMILES>  (114) 
Cl.CC(C)(C)OC(=O)N1CC2(N)CCC1C2

>  <Score>  (114) 
-0.72460333991011794

$$$$
EN300-372409
     RDKit          3D

 12 14  0  0  1  0  0  0  0  0999 V2000
   -4.6232   -7.7840   -0.9982 C   0  0  0  0  0  0  0  0  0  0  0  0
   -6.0100   -7.6549   -0.9170 C   0  0  0  0  0  0  0  0  0  0  0  0
   -5.8878   -7.3961    1.5000 C   0  0  0  0  0  0  0  0  0  0  0  0
   -3.8885   -7.7160    0.1748 C   0  0  0  0  0  0  0  0  0  0  0  0
   -4.5075   -7.5226    1.4259 C   0  0  0  0  0  0  0  0  0  0  0  0
   -6.6378   -7.4627    0.3226 C   0  0  0  0  0  0  0  0  0  0  0  0
   -2.3898   -7.8391    0.3186 C   0  0  0  0  0  0  0  0  0  0  0  0
   -3.4905   -7.4874    2.5235 C   0  0  2  0  0  0  0  0  0  0  0  0
   -2.1559   -7.6681    1.8122 C   0  0  1  0  0  0  0  0  0  0  0  0
   -2.6279   -8.6930    2.8141 C   0  0  1  0  0  0  0  0  0  0  0  0
   -8.1233   -7.3286    0.3837 C   0  0  0  0  0  0  0  0  0  0  0  0
   -1.9554   -8.8164    4.1125 N   0  0  0  0  0  0  0  0  0  0  0  0
  1  2  2  0
  1  4  1  0
  2  6  1  0
  3  5  1  0
  3  6  2  0
  4  5  2  0
  4  7  1  0
  8  5  1  6
  6 11  1  0
  9  7  1  6
  8  9  1  0
  8 10  1  0
  9 10  1  0
 10 12  1  1
M  END
>  <ref_pdb>  (115) 
x0102_0B

>  <ref_mols>  (115) 
x1083_0A,x1247_0A,x1052_0A,x1020_0A,x1140_0A,x1305_0B

>  <original SMILES>  (115) 
CC=1C=CC=2CC3C(N)C3C2C1

>  <Score>  (115) 
-4.5621444169785264

$$$$
EN300-7546564
     RDKit          3D

 12 14  0  0  1  0  0  0  0  0999 V2000
   -4.6302   -7.7899   -0.9965 C   0  0  0  0  0  0  0  0  0  0  0  0
   -6.0163   -7.6558   -0.9130 C   0  0  0  0  0  0  0  0  0  0  0  0
   -5.8882   -7.3877    1.5027 C   0  0  0  0  0  0  0  0  0  0  0  0
   -3.8927   -7.7196    0.1747 C   0  0  0  0  0  0  0  0  0  0  0  0
   -4.5085   -7.5191    1.4263 C   0  0  0  0  0  0  0  0  0  0  0  0
   -6.6410   -7.4565    0.3271 C   0  0  0  0  0  0  0  0  0  0  0  0
   -2.3941   -7.8470    0.3159 C   0  0  0  0  0  0  0  0  0  0  0  0
   -3.4892   -7.4827    2.5216 C   0  0  2  0  0  0  0  0  0  0  0  0
   -2.1565   -7.6708    1.8083 C   0  0  1  0  0  0  0  0  0  0  0  0
   -2.6299   -8.6900    2.8153 C   0  0  1  0  0  0  0  0  0  0  0  0
   -1.9557   -8.8106    4.1127 N   0  0  0  0  0  0  0  0  0  0  0  0
   -8.3545   -7.2955    0.4021 Cl  0  0  0  0  0  0  0  0  0  0  0  0
  1  2  2  0
  1  4  1  0
  2  6  1  0
  3  5  1  0
  3  6  2  0
  4  5  2  0
  4  7  1  0
  8  5  1  6
  6 12  1  0
  9  7  1  6
  8  9  1  0
  8 10  1  0
  9 10  1  0
 10 11  1  1
M  END
>  <ref_pdb>  (116) 
x0102_0B

>  <ref_mols>  (116) 
x1083_0A,x1247_0A,x1052_0A,x1020_0A,x1140_0A,x1305_0B

>  <original SMILES>  (116) 
Cl.NC1C2CC=3C=CC(Cl)=CC3C12

>  <Score>  (116) 
-4.4879357572880281

$$$$
EN300-7546565
     RDKit          3D

 12 14  0  0  1  0  0  0  0  0999 V2000
   -4.6302   -7.7899   -0.9965 C   0  0  0  0  0  0  0  0  0  0  0  0
   -6.0163   -7.6558   -0.9130 C   0  0  0  0  0  0  0  0  0  0  0  0
   -5.8882   -7.3877    1.5027 C   0  0  0  0  0  0  0  0  0  0  0  0
   -3.8927   -7.7196    0.1747 C   0  0  0  0  0  0  0  0  0  0  0  0
   -4.5085   -7.5191    1.4263 C   0  0  0  0  0  0  0  0  0  0  0  0
   -6.6410   -7.4565    0.3271 C   0  0  0  0  0  0  0  0  0  0  0  0
   -2.3941   -7.8470    0.3159 C   0  0  0  0  0  0  0  0  0  0  0  0
   -3.4892   -7.4827    2.5216 C   0  0  2  0  0  0  0  0  0  0  0  0
   -2.1565   -7.6708    1.8083 C   0  0  1  0  0  0  0  0  0  0  0  0
   -2.6299   -8.6900    2.8153 C   0  0  1  0  0  0  0  0  0  0  0  0
   -1.9557   -8.8106    4.1127 N   0  0  0  0  0  0  0  0  0  0  0  0
   -8.3545   -7.2955    0.4021 Cl  0  0  0  0  0  0  0  0  0  0  0  0
  1  2  2  0
  1  4  1  0
  2  6  1  0
  3  5  1  0
  3  6  2  0
  4  5  2  0
  4  7  1  0
  8  5  1  6
  6 12  1  0
  9  7  1  6
  8  9  1  0
  8 10  1  0
  9 10  1  0
 10 11  1  1
M  END
>  <ref_pdb>  (117) 
x0102_0B

>  <ref_mols>  (117) 
x1083_0A,x1247_0A,x1052_0A,x1020_0A,x1140_0A,x1305_0B

>  <original SMILES>  (117) 
NC1C2CC=3C=CC(Cl)=CC3C12

>  <Score>  (117) 
-4.4879357572880281

$$$$
EN300-7680732
     RDKit          3D

 10 12  0  0  0  0  0  0  0  0999 V2000
   -5.8259   -7.8791    0.6482 C   0  0  0  0  0  0  0  0  0  0  0  0
   -2.7212   -6.6565    1.7250 C   0  0  0  0  0  0  0  0  0  0  0  0
   -2.3896   -8.5402    0.8571 C   0  0  0  0  0  0  0  0  0  0  0  0
   -4.1957   -8.4870    2.5933 C   0  0  0  0  0  0  0  0  0  0  0  0
   -4.1170   -6.9744   -0.6598 C   0  0  0  0  0  0  0  0  0  0  0  0
   -2.7147   -8.1142    2.3496 C   0  0  2  0  0  0  0  0  0  0  0  0
   -3.5013   -7.4526    0.6133 C   0  0  2  0  0  0  0  0  0  0  0  0
   -4.6583   -7.9808    1.3173 N   0  0  0  0  0  0  0  0  0  0  0  0
   -6.9397   -8.2369    0.9970 O   0  0  0  0  0  0  0  0  0  0  0  0
   -5.5442   -7.2735   -0.5582 O   0  0  0  0  0  0  0  0  0  0  0  0
  1  8  1  0
  1  9  2  0
  1 10  1  0
  6  2  1  6
  2  7  1  0
  3  6  1  0
  3  7  1  0
  4  6  1  0
  4  8  1  0
  7  5  1  6
  5 10  1  0
  7  8  1  0
M  END
>  <ref_pdb>  (118) 
x0102_0B

>  <ref_mols>  (118) 
x1083_0A,x1247_0A,x1052_0A,x1020_0A,x1140_0A,x1305_0B

>  <original SMILES>  (118) 
O=C1OCC2(CC3C2)N1C3

>  <Score>  (118) 
-0.69943409276675084

$$$$
EN300-22980934
     RDKit          3D

 12 14  0  0  1  0  0  0  0  0999 V2000
   -5.5933   -7.0563   -1.3560 C   0  0  0  0  0  0  0  0  0  0  0  0
   -6.5409   -7.4427   -0.4091 C   0  0  0  0  0  0  0  0  0  0  0  0
   -4.2345   -7.0375   -1.0255 C   0  0  0  0  0  0  0  0  0  0  0  0
   -6.1328   -7.8132    0.8684 C   0  0  0  0  0  0  0  0  0  0  0  0
   -3.7957   -7.4028    0.2546 C   0  0  0  0  0  0  0  0  0  0  0  0
   -4.7726   -7.7884    1.1801 C   0  0  0  0  0  0  0  0  0  0  0  0
   -3.0984   -8.2462    2.9702 C   0  0  0  0  0  0  0  0  0  0  0  0
   -2.3569   -7.3823    0.6443 C   0  0  1  0  0  0  0  0  0  0  0  0
   -2.0447   -7.7408    2.0696 C   0  0  2  0  0  0  0  0  0  0  0  0
   -2.8242   -8.6742    4.0843 O   0  0  0  0  0  0  0  0  0  0  0  0
   -4.4159   -8.1972    2.4918 O   0  0  0  0  0  0  0  0  0  0  0  0
   -1.7371   -8.6324    0.9897 O   0  0  0  0  0  0  0  0  0  0  0  0
  1  2  2  0
  1  3  1  0
  2  4  1  0
  3  5  2  0
  4  6  2  0
  5  6  1  0
  5  8  1  0
  6 11  1  0
  7  9  1  0
  7 10  2  0
  7 11  1  0
  8  9  1  0
  8 12  1  6
  9 12  1  6
M  END
>  <ref_pdb>  (119) 
x0102_0B

>  <ref_mols>  (119) 
x1083_0A,x1247_0A,x1052_0A,x1020_0A,x1140_0A,x1305_0B

>  <original SMILES>  (119) 
O=C1OC=2C=CC=CC2C3OC31

>  <Score>  (119) 
-0.21859443272057888

$$$$
EN300-24492403
     RDKit          3D

  7  8  0  0  0  0  0  0  0  0999 V2000
   -0.4967   -9.9047    2.5392 C   0  0  0  0  0  0  0  0  0  0  0  0
   -1.4246   -9.2143    2.2174 C   0  0  0  0  0  0  0  0  0  0  0  0
   -2.7550   -6.9152    2.1953 C   0  0  0  0  0  0  0  0  0  0  0  0
   -4.0142   -8.6252    2.1586 C   0  0  0  0  0  0  0  0  0  0  0  0
   -2.9697   -8.0375    0.4051 C   0  0  0  0  0  0  0  0  0  0  0  0
   -4.0077   -7.2930    1.3227 C   0  0  0  0  0  0  0  0  0  0  0  0
   -2.5114   -8.4060    1.8410 C   0  0  0  0  0  0  0  0  0  0  0  0
  1  2  3  0
  2  7  1  0
  3  6  1  0
  3  7  1  0
  4  6  1  0
  4  7  1  0
  5  6  1  0
  5  7  1  0
M  END
>  <ref_pdb>  (120) 
x0102_0B

>  <ref_mols>  (120) 
x1083_0A,x1247_0A,x1052_0A,x1020_0A,x1140_0A,x1305_0B

>  <original SMILES>  (120) 
C#CC1(CC2C1)C2

>  <Score>  (120) 
-3.1474031949828714

$$$$
EN300-36600496
     RDKit          3D

  7  8  0  0  0  0  0  0  0  0999 V2000
   -0.4967   -9.9047    2.5392 C   0  0  0  0  0  0  0  0  0  0  0  0
   -1.4246   -9.2143    2.2174 C   0  0  0  0  0  0  0  0  0  0  0  0
   -2.7550   -6.9152    2.1953 C   0  0  0  0  0  0  0  0  0  0  0  0
   -4.0142   -8.6252    2.1586 C   0  0  0  0  0  0  0  0  0  0  0  0
   -2.9697   -8.0375    0.4051 C   0  0  0  0  0  0  0  0  0  0  0  0
   -4.0077   -7.2930    1.3227 C   0  0  0  0  0  0  0  0  0  0  0  0
   -2.5114   -8.4060    1.8410 C   0  0  0  0  0  0  0  0  0  0  0  0
  1  2  3  0
  2  7  1  0
  3  6  1  0
  3  7  1  0
  4  6  1  0
  4  7  1  0
  5  6  1  0
  5  7  1  0
M  END
>  <ref_pdb>  (121) 
x0102_0B

>  <ref_mols>  (121) 
x1083_0A,x1247_0A,x1052_0A,x1020_0A,x1140_0A,x1305_0B

>  <original SMILES>  (121) 
C#C[C@]1(C[C@H]2C1)C2

>  <Score>  (121) 
-3.1474031949828714

$$$$
