ver_1.2
     RDKit          3D

 14 15  0  0  0  0  0  0  0  0999 V2000
    3.0286    1.5015   -0.1127 C   0  0  0  0  0  0  0  0  0  0  0  0
    2.2018    0.3256   -0.0699 N   0  0  0  0  0  0  0  0  0  0  0  0
    2.6332   -0.9379   -0.0628 C   0  0  0  0  0  0  0  0  0  0  0  0
    1.5895   -1.7853   -0.0188 N   0  0  0  0  0  0  0  0  0  0  0  0
    0.4586   -1.0283    0.0026 C   0  0  0  0  0  0  0  0  0  0  0  0
    0.8619    0.3129   -0.0303 C   0  0  0  0  0  0  0  0  0  0  0  0
   -0.1366    1.2477   -0.0155 C   0  0  0  0  0  0  0  0  0  0  0  0
    0.2041    2.4631   -0.0446 O   0  0  0  0  0  0  0  0  0  0  0  0
   -1.4590    0.9489    0.0281 N   0  0  0  0  0  0  0  0  0  0  0  0
   -1.8029   -0.3496    0.0585 C   0  0  0  0  0  0  0  0  0  0  0  0
   -3.0094   -0.6985    0.0995 O   0  0  0  0  0  0  0  0  0  0  0  0
   -0.8645   -1.3053    0.0459 N   0  0  0  0  0  0  0  0  0  0  0  0
   -1.2562   -2.7029    0.0793 C   0  0  0  0  0  0  0  0  0  0  0  0
   -2.4490    2.0080    0.0406 C   0  0  0  0  0  0  0  0  0  0  0  0
  1  2  1  0
  2  3  1  0
  3  4  2  0
  4  5  1  0
  5  6  2  0
  6  7  1  0
  7  8  2  0
  7  9  1  0
  9 10  1  0
 10 11  2  0
 10 12  1  0
 12 13  1  0
  9 14  1  0
  6  2  1  0
 12  5  1  0
M  END
>  <ref_url>  (1) 
https://github.com/matteoferla/Fragment-hit-follow-up-chemistry

>  <submitter_name>  (1) 
Matteo Ferla

>  <submitter_email>  (1) 
matteo.ferla@stats.ox.ac.uk

>  <submitter_institution>  (1) 
Oxford

>  <generation_date>  (1) 
2023-08-23

>  <method>  (1) 
S2-ROCS

>  <Score>  (1) 
Gibbs Free energy

$$$$
EN300-7438774
     RDKit          3D

 24 27  0  0  0  0  0  0  0  0999 V2000
   -7.8476    4.6915  -18.4643 C   0  0  0  0  0  0  0  0  0  0  0  0
   -9.2503    4.7147  -18.5158 C   0  0  0  0  0  0  0  0  0  0  0  0
   -7.1753    4.9273  -17.2631 C   0  0  0  0  0  0  0  0  0  0  0  0
  -10.0007    4.9741  -17.3670 C   0  0  0  0  0  0  0  0  0  0  0  0
   -8.8417    6.1489  -10.4305 C   0  0  0  0  0  0  0  0  0  0  0  0
   -8.8507    4.7811  -10.6609 C   0  0  0  0  0  0  0  0  0  0  0  0
   -7.9271    5.1956  -16.1316 C   0  0  0  0  0  0  0  0  0  0  0  0
   -9.3255    5.2187  -16.1830 C   0  0  0  0  0  0  0  0  0  0  0  0
   -8.8904    6.6752   -9.1561 C   0  0  0  0  0  0  0  0  0  0  0  0
   -8.9084    3.8673   -9.6287 C   0  0  0  0  0  0  0  0  0  0  0  0
   -8.9499    5.7680   -8.0943 C   0  0  0  0  0  0  0  0  0  0  0  0
   -8.9586    4.3777   -8.3283 C   0  0  0  0  0  0  0  0  0  0  0  0
   -8.7738    6.8259  -11.7249 C   0  0  0  0  0  0  0  0  0  0  0  0
   -8.7887    4.5639  -12.1061 C   0  0  0  0  0  0  0  0  0  0  0  0
   -7.4375    5.4421  -14.7395 C   0  0  0  0  0  0  0  0  0  0  0  0
   -9.9076    5.4832  -14.8303 C   0  0  0  0  0  0  0  0  0  0  0  0
   -8.6888    6.0595  -14.0858 C   0  0  0  0  0  0  0  0  0  0  0  0
   -8.7491    5.8216  -12.6707 N   0  0  0  0  0  0  0  0  0  0  0  0
   -8.7474    8.0346  -11.8651 O   0  0  0  0  0  0  0  0  0  0  0  0
   -8.7776    3.4657  -12.6305 O   0  0  0  0  0  0  0  0  0  0  0  0
   -8.8800    7.9942   -8.9358 F   0  0  0  0  0  0  0  0  0  0  0  0
   -8.9168    2.5488   -9.8523 F   0  0  0  0  0  0  0  0  0  0  0  0
   -9.0002    6.2245   -6.8354 F   0  0  0  0  0  0  0  0  0  0  0  0
   -9.0148    3.5350   -7.2879 F   0  0  0  0  0  0  0  0  0  0  0  0
  1  2  2  0
  1  3  1  0
  2  4  1  0
  3  7  2  0
  4  8  2  0
  5  6  1  0
  5  9  2  0
  5 13  1  0
  6 10  2  0
  6 14  1  0
  7  8  1  0
  7 15  1  0
  8 16  1  0
  9 11  1  0
  9 21  1  0
 10 12  1  0
 10 22  1  0
 11 12  2  0
 11 23  1  0
 12 24  1  0
 13 18  1  0
 13 19  2  0
 14 18  1  0
 14 20  2  0
 15 17  1  0
 16 17  1  0
 17 18  1  0
M  END
>  <id>  (2) 
EN300-7438774

>  <smiles>  (2) 
FC=1C=2C(=O)N(C3CC=4C=CC=CC4C3)C(=O)C2C(F)=C(F)C1F

>  <MDLNUMBER>  (2) 
MFCD32198306

>  <IUPAC Name>  (2) 
2-(2,3-dihydro-1H-inden-2-yl)-4,5,6,7-tetrafluoro-2,3-dihydro-1H-isoindole-1,3-dione

>  <CAS>  (2) 
194225-50-8

>  <Purity>  (2) 
95

>  <URL>  (2) 
https://www.enaminestore.com/catalog/EN300-7438774

>  <ROCS_ShapeQuery>  (2) 
_x0404_0B

>  <ROCS_TanimotoCombo>  (2) 
0.443 

>  <ROCS_ShapeTanimoto>  (2) 
0.388 

>  <ROCS_ColorTanimoto>  (2) 
0.055 

>  <ROCS_RefTversky>  (2) 
0.340 

>  <ROCS_RefColorTversky>  (2) 
0.059 

>  <ROCS_RefTverskyCombo>  (2) 
0.399 

>  <ROCS_FitTversky>  (2) 
1.580 

>  <ROCS_FitColorTversky>  (2) 
0.446 

>  <ROCS_FitTverskyCombo>  (2) 
2.026 

>  <ROCS_ColorScore>  (2) 
-4.245

>  <ROCS_Overlap>  (2) 
2270.703

>  <ROCS_Rank>  (2) 
168                 

>  <Score>  (2) 
-6.9559117437661371

>  <ref_mols>  (2) 
x0846_0B

>  <ref_pdb>  (2) 
x0846_0B

>  <original SMILES>  (2) 
O=C1c2c(F)c(F)c(F)c(F)c2C(=O)N1C1Cc2ccccc2C1

$$$$
EN300-27192715
     RDKit          3D

 21 24  0  0  0  0  0  0  0  0999 V2000
   -9.8166    4.7174  -18.3447 C   0  0  0  0  0  0  0  0  0  0  0  0
   -9.7889    4.8676  -16.9582 C   0  0  0  0  0  0  0  0  0  0  0  0
   -8.6476    4.8819  -19.0876 C   0  0  0  0  0  0  0  0  0  0  0  0
   -8.3359    6.8284  -11.7148 C   0  0  0  0  0  0  0  0  0  0  0  0
   -9.2220    4.1270  -11.5461 C   0  0  0  0  0  0  0  0  0  0  0  0
   -8.5920    5.1823  -16.3147 C   0  0  0  0  0  0  0  0  0  0  0  0
   -7.4508    5.1967  -18.4440 C   0  0  0  0  0  0  0  0  0  0  0  0
   -8.5123    6.0618  -12.8794 C   0  0  0  0  0  0  0  0  0  0  0  0
   -8.9501    4.7454  -12.7673 C   0  0  0  0  0  0  0  0  0  0  0  0
   -8.6144    6.2337  -10.4768 C   0  0  0  0  0  0  0  0  0  0  0  0
   -9.0283    4.8992  -10.3948 C   0  0  0  0  0  0  0  0  0  0  0  0
   -7.4229    5.3469  -17.0576 C   0  0  0  0  0  0  0  0  0  0  0  0
   -8.6329    5.3233  -14.8793 C   0  0  0  0  0  0  0  0  0  0  0  0
   -9.0741    6.4696   -8.2110 C   0  0  0  0  0  0  0  0  0  0  0  0
   -8.7323    4.9984   -8.0910 C   0  0  0  0  0  0  0  0  0  0  0  0
   -6.2366    5.3587  -19.3025 C   0  0  0  0  0  0  0  0  0  0  0  0
   -8.3204    6.4031  -14.1986 N   0  0  0  0  0  0  0  0  0  0  0  0
   -9.0189    4.2979  -14.0619 N   0  0  0  0  0  0  0  0  0  0  0  0
   -8.4484    7.0274   -9.3689 O   0  0  0  0  0  0  0  0  0  0  0  0
   -9.2770    4.2747   -9.1970 O   0  0  0  0  0  0  0  0  0  0  0  0
   -5.5898    5.8257  -16.1035 I   0  0  0  0  0  0  0  0  0  0  0  0
  1  2  2  0
  1  3  1  0
  2  6  1  0
  3  7  2  0
  4  8  2  0
  4 10  1  0
  5  9  2  0
  5 11  1  0
  6 12  2  0
  6 13  1  0
  7 12  1  0
  7 16  1  0
  8  9  1  0
  8 17  1  0
  9 18  1  0
 10 11  2  0
 10 19  1  0
 11 20  1  0
 12 21  1  0
 13 17  2  0
 13 18  1  0
 14 15  1  0
 14 19  1  0
 15 20  1  0
M  END
>  <id>  (3) 
EN300-27192715

>  <smiles>  (3) 
CC=1C=CC=C(C2=NC=3C=C4OCCOC4=CC3N2)C1I

>  <IUPAC Name>  (3) 
5-(2-iodo-3-methylphenyl)-10,13-dioxa-4,6-diazatricyclo[7.4.0.0,3,7]trideca-1,3(7),4,8-tetraene

>  <CAS>  (3) 
1942680-22-9

>  <Purity>  (3) 
95

>  <URL>  (3) 
https://www.enaminestore.com/catalog/EN300-27192715

>  <ROCS_ShapeQuery>  (3) 
_x0404_0B

>  <ROCS_TanimotoCombo>  (3) 
0.438 

>  <ROCS_ShapeTanimoto>  (3) 
0.363 

>  <ROCS_ColorTanimoto>  (3) 
0.075 

>  <ROCS_RefTversky>  (3) 
0.317 

>  <ROCS_RefColorTversky>  (3) 
0.083 

>  <ROCS_RefTverskyCombo>  (3) 
0.400 

>  <ROCS_FitTversky>  (3) 
1.657 

>  <ROCS_FitColorTversky>  (3) 
0.448 

>  <ROCS_FitTverskyCombo>  (3) 
2.105 

>  <ROCS_ColorScore>  (3) 
-5.968

>  <ROCS_Overlap>  (3) 
2118.236

>  <ROCS_Rank>  (3) 
250                 

>  <Score>  (3) 
-6.4618895283285838

>  <ref_mols>  (3) 
x0846_0B

>  <ref_pdb>  (3) 
x0846_0B

>  <original SMILES>  (3) 
Cc1cccc(-c2nc3cc4c(cc3[nH]2)OCCO4)c1I

$$$$
EN300-37099358
     RDKit          3D

 22 25  0  0  0  0  0  0  0  0999 V2000
   -8.5434    6.2913  -11.9088 C   0  0  0  0  0  0  0  0  0  0  0  0
   -8.7258    6.2450  -10.5246 C   0  0  0  0  0  0  0  0  0  0  0  0
   -8.7241    3.8806  -12.0337 C   0  0  0  0  0  0  0  0  0  0  0  0
   -9.7498    4.4465  -17.2669 C   0  0  0  0  0  0  0  0  0  0  0  0
   -8.5426    5.1130  -12.6607 C   0  0  0  0  0  0  0  0  0  0  0  0
   -8.9074    5.0114   -9.8982 C   0  0  0  0  0  0  0  0  0  0  0  0
   -8.9051    3.8466  -10.6533 C   0  0  0  0  0  0  0  0  0  0  0  0
   -9.0481    4.7799  -18.3995 C   0  0  0  0  0  0  0  0  0  0  0  0
   -7.8130    5.3968  -16.7647 C   0  0  0  0  0  0  0  0  0  0  0  0
   -9.0990    2.5829   -9.9533 C   0  0  0  0  0  0  0  0  0  0  0  0
   -7.0592    5.7798  -14.5511 C   0  0  0  0  0  0  0  0  0  0  0  0
   -8.3523    5.1734  -14.1013 C   0  0  0  0  0  0  0  0  0  0  0  0
   -9.1043    4.9020   -8.4435 C   0  0  0  0  0  0  0  0  0  0  0  0
   -6.8138    5.8824  -15.8708 C   0  0  0  0  0  0  0  0  0  0  0  0
   -9.4359    4.5786  -19.8037 C   0  0  0  0  0  0  0  0  0  0  0  0
   -5.5201    6.4933  -16.3425 C   0  0  0  0  0  0  0  0  0  0  0  0
   -7.8511    5.3670  -18.0830 N   0  0  0  0  0  0  0  0  0  0  0  0
   -9.2730    2.4799   -8.6745 N   0  0  0  0  0  0  0  0  0  0  0  0
   -9.2639    4.7108  -14.9074 N   0  0  0  0  0  0  0  0  0  0  0  0
   -8.9571    4.8436  -16.2223 N   0  0  0  0  0  0  0  0  0  0  0  0
   -9.2738    3.6246   -7.9435 N   0  0  0  0  0  0  0  0  0  0  0  0
   -9.1121    5.9087   -7.7414 O   0  0  0  0  0  0  0  0  0  0  0  0
  1  2  2  0
  1  5  1  0
  2  6  1  0
  3  5  2  0
  3  7  1  0
  4  8  2  0
  4 20  1  0
  5 12  1  0
  6  7  2  0
  6 13  1  0
  7 10  1  0
  8 15  1  0
  8 17  1  0
  9 14  1  0
  9 17  2  0
  9 20  1  0
 10 18  2  0
 11 12  1  0
 11 14  2  0
 12 19  2  0
 13 21  1  0
 13 22  2  0
 14 16  1  0
 18 21  1  0
 19 20  1  0
M  END
>  <id>  (4) 
EN300-37099358

>  <smiles>  (4) 
CC1=CN2N=C(C=C(C)C2=N1)C=3C=CC=4C(=O)NN=CC4C3

>  <MDLNUMBER>  (4) 
MFCD34600318

>  <IUPAC Name>  (4) 
6-{2,8-dimethylimidazo[1,2-b]pyridazin-6-yl}-1,2-dihydrophthalazin-1-one

>  <CAS>  (4) 
2724264-56-4

>  <URL>  (4) 
https://www.enaminestore.com/catalog/EN300-37099358

>  <ROCS_ShapeQuery>  (4) 
_x0404_0B

>  <ROCS_TanimotoCombo>  (4) 
0.448 

>  <ROCS_ShapeTanimoto>  (4) 
0.381 

>  <ROCS_ColorTanimoto>  (4) 
0.067 

>  <ROCS_RefTversky>  (4) 
0.331 

>  <ROCS_RefColorTversky>  (4) 
0.075 

>  <ROCS_RefTverskyCombo>  (4) 
0.406 

>  <ROCS_FitTversky>  (4) 
1.645 

>  <ROCS_FitColorTversky>  (4) 
0.406 

>  <ROCS_FitTverskyCombo>  (4) 
2.051 

>  <ROCS_ColorScore>  (4) 
-5.402

>  <ROCS_Overlap>  (4) 
2213.070

>  <ROCS_Rank>  (4) 
110                 

>  <Score>  (4) 
-6.2587445336985184

>  <ref_mols>  (4) 
x0846_0B

>  <ref_pdb>  (4) 
x0846_0B

>  <original SMILES>  (4) 
Cc1cn2nc(-c3ccc4c(=O)[nH]ncc4c3)cc(C)c2n1

$$$$
EN300-1086561
     RDKit          3D

 19 21  0  0  0  0  0  0  0  0999 V2000
   -8.7611    4.5834  -12.9204 C   0  0  0  0  0  0  0  0  0  0  0  0
   -8.6449    4.9364  -14.0626 C   0  0  0  0  0  0  0  0  0  0  0  0
   -9.0858    4.5074   -7.9849 C   0  0  0  0  0  0  0  0  0  0  0  0
   -8.7820    6.6819   -8.7634 C   0  0  0  0  0  0  0  0  0  0  0  0
   -9.0740    2.8485  -11.1921 C   0  0  0  0  0  0  0  0  0  0  0  0
   -8.8970    4.1628  -11.5599 C   0  0  0  0  0  0  0  0  0  0  0  0
   -8.8817    4.9464  -10.3724 C   0  0  0  0  0  0  0  0  0  0  0  0
   -9.0529    4.0673   -9.3016 C   0  0  0  0  0  0  0  0  0  0  0  0
   -8.7394    6.3147  -10.1019 C   0  0  0  0  0  0  0  0  0  0  0  0
   -8.0657    4.6761  -18.3208 C   0  0  0  0  0  0  0  0  0  0  0  0
   -6.9507    5.2936  -17.4831 C   0  0  0  0  0  0  0  0  0  0  0  0
   -9.4441    5.0857  -17.8120 C   0  0  0  0  0  0  0  0  0  0  0  0
   -7.1166    4.9705  -15.9968 C   0  0  0  0  0  0  0  0  0  0  0  0
   -9.6163    4.7583  -16.3278 C   0  0  0  0  0  0  0  0  0  0  0  0
   -8.5014    5.3694  -15.4635 C   0  0  0  0  0  0  0  0  0  0  0  0
   -8.9481    5.8287   -7.7268 N   0  0  0  0  0  0  0  0  0  0  0  0
   -9.1671    2.8014   -9.8267 N   0  0  0  0  0  0  0  0  0  0  0  0
   -8.5978    6.7947  -15.5150 O   0  0  0  0  0  0  0  0  0  0  0  0
   -8.4983    7.6368  -11.4232 Br  0  0  0  0  0  0  0  0  0  0  0  0
  1  2  3  0
  1  6  1  0
  2 15  1  0
  3  8  2  0
  3 16  1  0
  4  9  1  0
  4 16  2  0
  5  6  2  0
  5 17  1  0
  6  7  1  0
  7  8  1  0
  7  9  2  0
  8 17  1  0
  9 19  1  0
 10 11  1  0
 10 12  1  0
 11 13  1  0
 12 14  1  0
 13 15  1  0
 14 15  1  0
 15 18  1  0
M  END
>  <id>  (5) 
EN300-1086561

>  <smiles>  (5) 
OC1(CCCCC1)C#CC2=CNC=3C=NC=C(Br)C23

>  <MDLNUMBER>  (5) 
MFCD31587005

>  <IUPAC Name>  (5) 
1-(2-{4-bromo-1H-pyrrolo[2,3-c]pyridin-3-yl}ethynyl)cyclohexan-1-ol

>  <CAS>  (5) 
2138351-47-8

>  <URL>  (5) 
https://www.enaminestore.com/catalog/EN300-1086561

>  <ROCS_ShapeQuery>  (5) 
_x0404_0B

>  <ROCS_TanimotoCombo>  (5) 
0.375 

>  <ROCS_ShapeTanimoto>  (5) 
0.318 

>  <ROCS_ColorTanimoto>  (5) 
0.057 

>  <ROCS_RefTversky>  (5) 
0.283 

>  <ROCS_RefColorTversky>  (5) 
0.063 

>  <ROCS_RefTverskyCombo>  (5) 
0.346 

>  <ROCS_FitTversky>  (5) 
1.639 

>  <ROCS_FitColorTversky>  (5) 
0.396 

>  <ROCS_FitTverskyCombo>  (5) 
2.035 

>  <ROCS_ColorScore>  (5) 
-4.516

>  <ROCS_Overlap>  (5) 
1887.401

>  <ROCS_Rank>  (5) 
323                 

>  <Score>  (5) 
-6.1336917309247383

>  <ref_mols>  (5) 
x0846_0B

>  <ref_pdb>  (5) 
x0846_0B

>  <original SMILES>  (5) 
OC1(C#Cc2c[nH]c3cncc(Br)c23)CCCCC1

$$$$
EN300-303115
     RDKit          3D

 19 21  0  0  0  0  0  0  0  0999 V2000
   -8.5865    5.5347   -8.7118 C   0  0  0  0  0  0  0  0  0  0  0  0
   -8.8026    4.2983   -8.1030 C   0  0  0  0  0  0  0  0  0  0  0  0
   -9.2107    3.3092  -10.2651 C   0  0  0  0  0  0  0  0  0  0  0  0
   -8.6872    5.6706  -10.1034 C   0  0  0  0  0  0  0  0  0  0  0  0
   -8.9835    4.5448  -10.8781 C   0  0  0  0  0  0  0  0  0  0  0  0
   -9.1182    3.1864   -8.8796 C   0  0  0  0  0  0  0  0  0  0  0  0
   -6.7113    5.5278  -16.8998 C   0  0  0  0  0  0  0  0  0  0  0  0
   -8.4510    7.0076  -10.7379 C   0  0  0  0  0  0  0  0  0  0  0  0
   -8.9595    7.0174  -12.1732 C   0  0  0  0  0  0  0  0  0  0  0  0
   -7.0673    5.5365  -13.1351 C   0  0  0  0  0  0  0  0  0  0  0  0
   -9.3238    5.7545  -14.3001 C   0  0  0  0  0  0  0  0  0  0  0  0
   -6.5601    6.1232  -14.4479 C   0  0  0  0  0  0  0  0  0  0  0  0
   -8.5740    4.9751  -15.3757 C   0  0  0  0  0  0  0  0  0  0  0  0
   -8.5913    5.7284  -12.9339 C   0  0  0  0  0  0  0  0  0  0  0  0
   -5.3443    6.1454  -17.0647 C   0  0  0  0  0  0  0  0  0  0  0  0
   -7.2455    5.5451  -15.6102 N   0  0  0  0  0  0  0  0  0  0  0  0
   -7.2829    5.0434  -17.8795 O   0  0  0  0  0  0  0  0  0  0  0  0
   -9.0975    4.5643  -12.2421 O   0  0  0  0  0  0  0  0  0  0  0  0
   -9.3387    1.9815   -8.2867 O   0  0  0  0  0  0  0  0  0  0  0  0
  1  2  2  0
  1  4  1  0
  2  6  1  0
  3  5  1  0
  3  6  2  0
  4  5  2  0
  4  8  1  0
  5 18  1  0
  6 19  1  0
  7 15  1  0
  7 16  1  0
  7 17  2  0
  8  9  1  0
  9 14  1  0
 10 12  1  0
 10 14  1  0
 11 13  1  0
 11 14  1  0
 12 16  1  0
 13 16  1  0
 14 18  1  0
M  END
>  <id>  (6) 
EN300-303115

>  <smiles>  (6) 
CC(=O)N1CCC2(CC1)CCC=3C=CC(O)=CC3O2

>  <MDLNUMBER>  (6) 
MFCD08741819

>  <IUPAC Name>  (6) 
1-{7-hydroxy-3,4-dihydrospiro[1-benzopyran-2,4'-piperidine]-1'-yl}ethan-1-one

>  <CAS>  (6) 
924769-64-2

>  <Purity>  (6) 
95

>  <URL>  (6) 
https://www.enaminestore.com/catalog/EN300-303115

>  <ROCS_ShapeQuery>  (6) 
_x0404_0B

>  <ROCS_TanimotoCombo>  (6) 
0.377 

>  <ROCS_ShapeTanimoto>  (6) 
0.313 

>  <ROCS_ColorTanimoto>  (6) 
0.064 

>  <ROCS_RefTversky>  (6) 
0.280 

>  <ROCS_RefColorTversky>  (6) 
0.069 

>  <ROCS_RefTverskyCombo>  (6) 
0.349 

>  <ROCS_FitTversky>  (6) 
1.606 

>  <ROCS_FitColorTversky>  (6) 
0.475 

>  <ROCS_FitTverskyCombo>  (6) 
2.080 

>  <ROCS_ColorScore>  (6) 
-4.955

>  <ROCS_Overlap>  (6) 
1867.548

>  <ROCS_Rank>  (6) 
307                 

>  <Score>  (6) 
-5.5068640328443053

>  <ref_mols>  (6) 
x0846_0B

>  <ref_pdb>  (6) 
x0846_0B

>  <original SMILES>  (6) 
CC(=O)N1CCC2(CCc3ccc(O)cc3O2)CC1

$$$$
EN300-211860
     RDKit          3D

 20 23  0  0  0  0  0  0  0  0999 V2000
   -8.7038    6.8053  -12.1715 C   0  0  0  0  0  0  0  0  0  0  0  0
   -8.7529    6.9736  -10.7876 C   0  0  0  0  0  0  0  0  0  0  0  0
   -8.9050    4.4118  -11.8948 C   0  0  0  0  0  0  0  0  0  0  0  0
   -7.6477    5.7442  -14.9346 C   0  0  0  0  0  0  0  0  0  0  0  0
   -8.7741    5.5260  -12.7240 C   0  0  0  0  0  0  0  0  0  0  0  0
   -8.8691    5.8588   -9.9569 C   0  0  0  0  0  0  0  0  0  0  0  0
   -8.9675    4.5802  -10.5114 C   0  0  0  0  0  0  0  0  0  0  0  0
   -8.7068    5.3553  -14.1485 C   0  0  0  0  0  0  0  0  0  0  0  0
   -9.2592    4.8097  -16.1396 C   0  0  0  0  0  0  0  0  0  0  0  0
   -9.8363    4.3623  -17.3625 C   0  0  0  0  0  0  0  0  0  0  0  0
   -9.1606    4.5185  -18.5172 C   0  0  0  0  0  0  0  0  0  0  0  0
   -7.2930    5.5613  -17.4016 C   0  0  0  0  0  0  0  0  0  0  0  0
   -7.8377    5.1395  -18.5587 C   0  0  0  0  0  0  0  0  0  0  0  0
   -8.6623    4.8870   -7.8597 C   0  0  0  0  0  0  0  0  0  0  0  0
   -9.5105    3.7572   -8.4103 C   0  0  0  0  0  0  0  0  0  0  0  0
   -7.1665    5.2687  -19.8878 C   0  0  0  0  0  0  0  0  0  0  0  0
   -9.6999    4.7782  -14.8986 N   0  0  0  0  0  0  0  0  0  0  0  0
   -7.9994    5.3955  -16.2135 N   0  0  0  0  0  0  0  0  0  0  0  0
   -8.8901    6.0859   -8.6056 O   0  0  0  0  0  0  0  0  0  0  0  0
   -9.1168    3.4502   -9.7507 O   0  0  0  0  0  0  0  0  0  0  0  0
  1  2  2  0
  1  5  1  0
  2  6  1  0
  3  5  2  0
  3  7  1  0
  4  8  2  0
  4 18  1  0
  5  8  1  0
  6  7  2  0
  6 19  1  0
  7 20  1  0
  8 17  1  0
  9 10  1  0
  9 17  2  0
  9 18  1  0
 10 11  2  0
 11 13  1  0
 12 13  2  0
 12 18  1  0
 13 16  1  0
 14 15  1  0
 14 19  1  0
 15 20  1  0
M  END
>  <id>  (7) 
EN300-211860

>  <smiles>  (7) 
CC=1C=CC2=NC(=CN2C1)C=3C=CC=4OCCOC4C3

>  <MDLNUMBER>  (7) 
MFCD02681178

>  <IUPAC Name>  (7) 
2-(2,3-dihydro-1,4-benzodioxin-6-yl)-6-methylimidazo[1,2-a]pyridine

>  <CAS>  (7) 
702636-92-8

>  <URL>  (7) 
https://www.enaminestore.com/catalog/EN300-211860

>  <ROCS_ShapeQuery>  (7) 
_x0404_0B

>  <ROCS_TanimotoCombo>  (7) 
0.428 

>  <ROCS_ShapeTanimoto>  (7) 
0.366 

>  <ROCS_ColorTanimoto>  (7) 
0.062 

>  <ROCS_RefTversky>  (7) 
0.318 

>  <ROCS_RefColorTversky>  (7) 
0.068 

>  <ROCS_RefTverskyCombo>  (7) 
0.386 

>  <ROCS_FitTversky>  (7) 
1.695 

>  <ROCS_FitColorTversky>  (7) 
0.427 

>  <ROCS_FitTverskyCombo>  (7) 
2.122 

>  <ROCS_ColorScore>  (7) 
-4.877

>  <ROCS_Overlap>  (7) 
2122.318

>  <ROCS_Rank>  (7) 
494                 

>  <Score>  (7) 
-5.1096108799324611

>  <ref_mols>  (7) 
x0846_0B

>  <ref_pdb>  (7) 
x0846_0B

>  <original SMILES>  (7) 
Cc1ccc2nc(-c3ccc4c(c3)OCCO4)cn2c1

$$$$
EN300-253417
     RDKit          3D

 20 23  0  0  0  0  0  0  0  0999 V2000
   -8.7038    6.8053  -12.1715 C   0  0  0  0  0  0  0  0  0  0  0  0
   -8.7529    6.9736  -10.7876 C   0  0  0  0  0  0  0  0  0  0  0  0
   -8.9050    4.4118  -11.8948 C   0  0  0  0  0  0  0  0  0  0  0  0
   -7.6477    5.7442  -14.9346 C   0  0  0  0  0  0  0  0  0  0  0  0
   -8.7741    5.5260  -12.7240 C   0  0  0  0  0  0  0  0  0  0  0  0
   -8.8691    5.8588   -9.9569 C   0  0  0  0  0  0  0  0  0  0  0  0
   -8.9675    4.5802  -10.5114 C   0  0  0  0  0  0  0  0  0  0  0  0
   -8.7068    5.3553  -14.1485 C   0  0  0  0  0  0  0  0  0  0  0  0
   -9.2592    4.8097  -16.1396 C   0  0  0  0  0  0  0  0  0  0  0  0
   -9.8363    4.3623  -17.3625 C   0  0  0  0  0  0  0  0  0  0  0  0
   -9.1606    4.5185  -18.5172 C   0  0  0  0  0  0  0  0  0  0  0  0
   -7.2930    5.5613  -17.4016 C   0  0  0  0  0  0  0  0  0  0  0  0
   -7.8377    5.1395  -18.5587 C   0  0  0  0  0  0  0  0  0  0  0  0
   -8.6623    4.8870   -7.8597 C   0  0  0  0  0  0  0  0  0  0  0  0
   -9.5105    3.7572   -8.4103 C   0  0  0  0  0  0  0  0  0  0  0  0
   -7.1665    5.2687  -19.8878 C   0  0  0  0  0  0  0  0  0  0  0  0
   -9.6999    4.7782  -14.8986 N   0  0  0  0  0  0  0  0  0  0  0  0
   -7.9994    5.3955  -16.2135 N   0  0  0  0  0  0  0  0  0  0  0  0
   -8.8901    6.0859   -8.6056 O   0  0  0  0  0  0  0  0  0  0  0  0
   -9.1168    3.4502   -9.7507 O   0  0  0  0  0  0  0  0  0  0  0  0
  1  2  2  0
  1  5  1  0
  2  6  1  0
  3  5  2  0
  3  7  1  0
  4  8  2  0
  4 18  1  0
  5  8  1  0
  6  7  2  0
  6 19  1  0
  7 20  1  0
  8 17  1  0
  9 10  1  0
  9 17  2  0
  9 18  1  0
 10 11  2  0
 11 13  1  0
 12 13  2  0
 12 18  1  0
 13 16  1  0
 14 15  1  0
 14 19  1  0
 15 20  1  0
M  END
>  <id>  (8) 
EN300-253417

>  <smiles>  (8) 
Br.CC=1C=CC2=NC(=CN2C1)C=3C=CC=4OCCOC4C3

>  <MDLNUMBER>  (8) 
MFCD29055170

>  <IUPAC Name>  (8) 
2-(2,3-dihydro-1,4-benzodioxin-6-yl)-6-methylimidazo[1,2-a]pyridine hydrobromide

>  <CAS>  (8) 
1955554-15-0

>  <URL>  (8) 
https://www.enaminestore.com/catalog/EN300-253417

>  <Saltdate>  (8) 
Br

>  <ROCS_ShapeQuery>  (8) 
_x0404_0B

>  <ROCS_TanimotoCombo>  (8) 
0.428 

>  <ROCS_ShapeTanimoto>  (8) 
0.366 

>  <ROCS_ColorTanimoto>  (8) 
0.062 

>  <ROCS_RefTversky>  (8) 
0.318 

>  <ROCS_RefColorTversky>  (8) 
0.068 

>  <ROCS_RefTverskyCombo>  (8) 
0.386 

>  <ROCS_FitTversky>  (8) 
1.695 

>  <ROCS_FitColorTversky>  (8) 
0.427 

>  <ROCS_FitTverskyCombo>  (8) 
2.122 

>  <ROCS_ColorScore>  (8) 
-4.877

>  <ROCS_Overlap>  (8) 
2122.318

>  <ROCS_Rank>  (8) 
495                 

>  <Score>  (8) 
-5.1096108799324611

>  <ref_mols>  (8) 
x0846_0B

>  <ref_pdb>  (8) 
x0846_0B

>  <original SMILES>  (8) 
Cc1ccc2nc(-c3ccc4c(c3)OCCO4)cn2c1

$$$$
EN300-6498629
     RDKit          3D

 21 23  0  0  1  0  0  0  0  0999 V2000
   -7.3771    5.8375  -14.9720 C   0  0  0  0  0  0  0  0  0  0  0  0
   -7.0022    5.6612  -16.3039 C   0  0  0  0  0  0  0  0  0  0  0  0
   -9.6030    5.0573  -15.4953 C   0  0  0  0  0  0  0  0  0  0  0  0
   -9.0885    3.2443  -10.4618 C   0  0  0  0  0  0  0  0  0  0  0  0
   -9.1014    4.3355   -8.3097 C   0  0  0  0  0  0  0  0  0  0  0  0
   -8.6775    5.5355  -14.5677 C   0  0  0  0  0  0  0  0  0  0  0  0
   -8.8886    5.6579  -10.3347 C   0  0  0  0  0  0  0  0  0  0  0  0
   -8.9683    4.4851  -11.0934 C   0  0  0  0  0  0  0  0  0  0  0  0
   -7.9277    5.1830  -17.2315 C   0  0  0  0  0  0  0  0  0  0  0  0
   -9.2281    4.8810  -16.8272 C   0  0  0  0  0  0  0  0  0  0  0  0
   -9.1572    3.1707   -9.0714 C   0  0  0  0  0  0  0  0  0  0  0  0
   -8.9693    5.5741   -8.9382 C   0  0  0  0  0  0  0  0  0  0  0  0
   -8.7493    6.9958  -10.9950 C   0  0  0  0  0  0  0  0  0  0  0  0
   -9.0848    5.7248  -13.1181 C   0  0  2  0  0  0  0  0  0  0  0  0
   -8.2878    6.8493  -12.4425 C   0  0  1  0  0  0  0  0  0  0  0  0
   -8.9016    4.4605  -12.4608 O   0  0  0  0  0  0  0  0  0  0  0  0
   -7.5489    5.0153  -18.5294 O   0  0  0  0  0  0  0  0  0  0  0  0
  -10.1409    4.4141  -17.7242 O   0  0  0  0  0  0  0  0  0  0  0  0
   -9.2811    1.9616   -8.4589 O   0  0  0  0  0  0  0  0  0  0  0  0
   -8.9213    6.6969   -8.1649 O   0  0  0  0  0  0  0  0  0  0  0  0
   -8.5152    8.0800  -13.1216 O   0  0  0  0  0  0  0  0  0  0  0  0
  1  2  2  0
  1  6  1  0
  2  9  1  0
  3  6  2  0
  3 10  1  0
  4  8  2  0
  4 11  1  0
  5 11  2  0
  5 12  1  0
 14  6  1  6
  7  8  1  0
  7 12  2  0
  7 13  1  0
  8 16  1  0
  9 10  2  0
  9 17  1  0
 10 18  1  0
 11 19  1  0
 12 20  1  0
 13 15  1  0
 14 15  1  0
 14 16  1  0
 15 21  1  6
M  END
>  <id>  (9) 
EN300-6498629

>  <smiles>  (9) 
O[C@H]1CC=2C(O)=CC(O)=CC2O[C@@H]1C=3C=CC(O)=C(O)C3

>  <MDLNUMBER>  (9) 
MFCD00135995

>  <IUPAC Name>  (9) 
(2R,3S)-2-(3,4-dihydroxyphenyl)-3,4-dihydro-2H-1-benzopyran-3,5,7-triol

>  <CAS>  (9) 
154-23-4

>  <URL>  (9) 
https://www.enaminestore.com/catalog/EN300-6498629

>  <ROCS_ShapeQuery>  (9) 
_x0404_0B

>  <ROCS_TanimotoCombo>  (9) 
0.443 

>  <ROCS_ShapeTanimoto>  (9) 
0.369 

>  <ROCS_ColorTanimoto>  (9) 
0.074 

>  <ROCS_RefTversky>  (9) 
0.321 

>  <ROCS_RefColorTversky>  (9) 
0.085 

>  <ROCS_RefTverskyCombo>  (9) 
0.406 

>  <ROCS_FitTversky>  (9) 
1.694 

>  <ROCS_FitColorTversky>  (9) 
0.362 

>  <ROCS_FitTverskyCombo>  (9) 
2.056 

>  <ROCS_ColorScore>  (9) 
-6.188

>  <ROCS_Overlap>  (9) 
2140.232

>  <ROCS_Rank>  (9) 
162                 

>  <Score>  (9) 
-4.5848439362578119

>  <ref_mols>  (9) 
x0846_0B

>  <ref_pdb>  (9) 
x0846_0B

>  <original SMILES>  (9) 
Oc1cc(O)c2c(c1)O[C@H](c1ccc(O)c(O)c1)[C@@H](O)C2

$$$$
EN300-36440
     RDKit          3D

 21 24  0  0  0  0  0  0  0  0999 V2000
   -9.0216    5.7054   -8.8970 C   0  0  0  0  0  0  0  0  0  0  0  0
   -7.1134    6.4190  -15.6783 C   0  0  0  0  0  0  0  0  0  0  0  0
   -6.9863    5.8263  -16.9368 C   0  0  0  0  0  0  0  0  0  0  0  0
   -9.1687    4.4471   -8.3082 C   0  0  0  0  0  0  0  0  0  0  0  0
   -9.3619    5.5177  -15.4333 C   0  0  0  0  0  0  0  0  0  0  0  0
   -8.9919    3.3365  -10.4790 C   0  0  0  0  0  0  0  0  0  0  0  0
   -8.8631    5.7386  -10.2660 C   0  0  0  0  0  0  0  0  0  0  0  0
   -8.2943    6.2656  -14.9308 C   0  0  0  0  0  0  0  0  0  0  0  0
   -8.0550    5.0930  -17.4100 C   0  0  0  0  0  0  0  0  0  0  0  0
   -9.2109    4.9427  -16.6784 C   0  0  0  0  0  0  0  0  0  0  0  0
   -8.8476    4.5842  -11.0466 C   0  0  0  0  0  0  0  0  0  0  0  0
   -9.1539    3.2745   -9.0910 C   0  0  0  0  0  0  0  0  0  0  0  0
   -8.6872    6.8719  -11.1652 C   0  0  0  0  0  0  0  0  0  0  0  0
   -8.5761    6.2249  -12.4948 C   0  0  0  0  0  0  0  0  0  0  0  0
   -8.4027    6.8844  -13.6409 C   0  0  0  0  0  0  0  0  0  0  0  0
   -9.4350    3.8738  -18.5463 C   0  0  0  0  0  0  0  0  0  0  0  0
   -8.6444    8.0470  -10.8809 O   0  0  0  0  0  0  0  0  0  0  0  0
   -8.6774    4.8429  -12.3872 O   0  0  0  0  0  0  0  0  0  0  0  0
   -8.1128    4.4469  -18.6063 O   0  0  0  0  0  0  0  0  0  0  0  0
  -10.1372    4.1840  -17.3252 O   0  0  0  0  0  0  0  0  0  0  0  0
   -9.2997    2.0629   -8.4831 O   0  0  0  0  0  0  0  0  0  0  0  0
  1  4  2  0
  1  7  1  0
  2  3  2  0
  2  8  1  0
  3  9  1  0
  4 12  1  0
  5  8  2  0
  5 10  1  0
  6 11  1  0
  6 12  2  0
  7 11  2  0
  7 13  1  0
  8 15  1  0
  9 10  2  0
  9 19  1  0
 10 20  1  0
 11 18  1  0
 12 21  1  0
 13 14  1  0
 13 17  2  0
 14 15  2  3
 14 18  1  0
 16 19  1  0
 16 20  1  0
M  END
>  <id>  (10) 
EN300-36440

>  <smiles>  (10) 
OC=1C=CC=2C(=O)C(=CC=3C=CC=4OCOC4C3)OC2C1

>  <IUPAC Name>  (10) 
2-[(1,3-dioxaindan-5-yl)methylidene]-6-hydroxy-2,3-dihydro-1-benzofuran-3-one

>  <CAS>  (10) 
32396-84-2

>  <URL>  (10) 
https://www.enaminestore.com/catalog/EN300-36440

>  <ROCS_ShapeQuery>  (10) 
_x0404_0B

>  <ROCS_TanimotoCombo>  (10) 
0.465 

>  <ROCS_ShapeTanimoto>  (10) 
0.379 

>  <ROCS_ColorTanimoto>  (10) 
0.085 

>  <ROCS_RefTversky>  (10) 
0.329 

>  <ROCS_RefColorTversky>  (10) 
0.093 

>  <ROCS_RefTverskyCombo>  (10) 
0.422 

>  <ROCS_FitTversky>  (10) 
1.687 

>  <ROCS_FitColorTversky>  (10) 
0.504 

>  <ROCS_FitTverskyCombo>  (10) 
2.191 

>  <ROCS_ColorScore>  (10) 
-6.716

>  <ROCS_Overlap>  (10) 
2193.964

>  <ROCS_Rank>  (10) 
38                  

>  <Score>  (10) 
-4.4459892818208573

>  <ref_mols>  (10) 
x0846_0B

>  <ref_pdb>  (10) 
x0846_0B

>  <original SMILES>  (10) 
O=C1C(=Cc2ccc3c(c2)OCO3)Oc2cc(O)ccc21

$$$$
EN300-36365
     RDKit          3D

 22 25  0  0  0  0  0  0  0  0999 V2000
   -9.0236    5.7003   -8.9005 C   0  0  0  0  0  0  0  0  0  0  0  0
   -7.1115    6.4186  -15.6801 C   0  0  0  0  0  0  0  0  0  0  0  0
   -6.9838    5.8272  -16.9391 C   0  0  0  0  0  0  0  0  0  0  0  0
   -9.1707    4.4417   -8.3123 C   0  0  0  0  0  0  0  0  0  0  0  0
   -9.3605    5.5178  -15.4378 C   0  0  0  0  0  0  0  0  0  0  0  0
   -8.8645    5.7341  -10.2695 C   0  0  0  0  0  0  0  0  0  0  0  0
   -8.2930    6.2647  -14.9336 C   0  0  0  0  0  0  0  0  0  0  0  0
   -8.9929    3.3320  -10.4835 C   0  0  0  0  0  0  0  0  0  0  0  0
   -8.0523    5.0948  -17.4140 C   0  0  0  0  0  0  0  0  0  0  0  0
   -9.2088    4.9442  -16.6834 C   0  0  0  0  0  0  0  0  0  0  0  0
   -8.8485    4.5800  -11.0505 C   0  0  0  0  0  0  0  0  0  0  0  0
   -9.1554    3.2695   -9.0956 C   0  0  0  0  0  0  0  0  0  0  0  0
   -8.6885    6.8678  -11.1681 C   0  0  0  0  0  0  0  0  0  0  0  0
   -8.5767    6.2214  -12.4979 C   0  0  0  0  0  0  0  0  0  0  0  0
   -8.4022    6.8822  -13.6432 C   0  0  0  0  0  0  0  0  0  0  0  0
   -9.4319    3.8774  -18.5526 C   0  0  0  0  0  0  0  0  0  0  0  0
   -8.9752    2.1008  -11.3206 C   0  0  0  0  0  0  0  0  0  0  0  0
   -8.6460    8.0428  -10.8828 O   0  0  0  0  0  0  0  0  0  0  0  0
   -8.6778    4.8393  -12.3910 O   0  0  0  0  0  0  0  0  0  0  0  0
   -8.1095    4.4501  -18.6111 O   0  0  0  0  0  0  0  0  0  0  0  0
  -10.1349    4.1865  -17.3317 O   0  0  0  0  0  0  0  0  0  0  0  0
   -9.3031    2.0639   -8.4730 O   0  0  0  0  0  0  0  0  0  0  0  0
  1  4  2  0
  1  6  1  0
  2  3  2  0
  2  7  1  0
  3  9  1  0
  4 12  1  0
  5  7  2  0
  5 10  1  0
  6 11  2  0
  6 13  1  0
  7 15  1  0
  8 11  1  0
  8 12  2  0
  8 17  1  0
  9 10  2  0
  9 20  1  0
 10 21  1  0
 11 19  1  0
 12 22  1  0
 13 14  1  0
 13 18  2  0
 14 15  2  3
 14 19  1  0
 16 20  1  0
 16 21  1  0
M  END
>  <id>  (11) 
EN300-36365

>  <smiles>  (11) 
CC=1C=2OC(=CC=3C=CC=4OCOC4C3)C(=O)C2C=CC1O

>  <IUPAC Name>  (11) 
2-[(1,3-dioxaindan-5-yl)methylidene]-6-hydroxy-7-methyl-2,3-dihydro-1-benzofuran-3-one

>  <CAS>  (11) 
859131-56-9

>  <URL>  (11) 
https://www.enaminestore.com/catalog/EN300-36365

>  <ROCS_ShapeQuery>  (11) 
_x0404_0B

>  <ROCS_TanimotoCombo>  (11) 
0.468 

>  <ROCS_ShapeTanimoto>  (11) 
0.383 

>  <ROCS_ColorTanimoto>  (11) 
0.085 

>  <ROCS_RefTversky>  (11) 
0.332 

>  <ROCS_RefColorTversky>  (11) 
0.093 

>  <ROCS_RefTverskyCombo>  (11) 
0.425 

>  <ROCS_FitTversky>  (11) 
1.653 

>  <ROCS_FitColorTversky>  (11) 
0.504 

>  <ROCS_FitTverskyCombo>  (11) 
2.157 

>  <ROCS_ColorScore>  (11) 
-6.717

>  <ROCS_Overlap>  (11) 
2220.012

>  <ROCS_Rank>  (11) 
31                  

>  <Score>  (11) 
-4.0982121377978729

>  <ref_mols>  (11) 
x0846_0B

>  <ref_pdb>  (11) 
x0846_0B

>  <original SMILES>  (11) 
Cc1c(O)ccc2c1OC(=Cc1ccc3c(c1)OCO3)C2=O

$$$$
EN300-205764
     RDKit          3D

 21 23  0  0  0  0  0  0  0  0999 V2000
   -7.3788    5.9792  -15.2364 C   0  0  0  0  0  0  0  0  0  0  0  0
   -9.5354    4.8919  -15.2993 C   0  0  0  0  0  0  0  0  0  0  0  0
   -7.2675    5.8386  -16.6196 C   0  0  0  0  0  0  0  0  0  0  0  0
   -9.4242    4.7514  -16.6826 C   0  0  0  0  0  0  0  0  0  0  0  0
   -9.0290    3.2124  -10.4597 C   0  0  0  0  0  0  0  0  0  0  0  0
   -9.1480    4.3277   -8.3177 C   0  0  0  0  0  0  0  0  0  0  0  0
   -8.5127    5.5058  -14.5762 C   0  0  0  0  0  0  0  0  0  0  0  0
   -8.8883    5.6200  -10.3387 C   0  0  0  0  0  0  0  0  0  0  0  0
   -8.8950    4.4486  -11.0925 C   0  0  0  0  0  0  0  0  0  0  0  0
   -8.2902    5.2247  -17.3428 C   0  0  0  0  0  0  0  0  0  0  0  0
   -9.1553    3.1535   -9.0716 C   0  0  0  0  0  0  0  0  0  0  0  0
   -9.0147    5.5653   -8.9484 C   0  0  0  0  0  0  0  0  0  0  0  0
   -8.6302    5.6543  -13.1147 C   0  0  0  0  0  0  0  0  0  0  0  0
   -8.7480    6.9104  -11.0309 C   0  0  0  0  0  0  0  0  0  0  0  0
   -8.6173    6.8546  -12.5069 C   0  0  0  0  0  0  0  0  0  0  0  0
   -8.7411    7.9723  -10.4228 O   0  0  0  0  0  0  0  0  0  0  0  0
   -8.7751    4.4424  -12.4581 O   0  0  0  0  0  0  0  0  0  0  0  0
   -8.1817    5.0876  -18.6926 O   0  0  0  0  0  0  0  0  0  0  0  0
   -9.2860    1.9485   -8.4517 O   0  0  0  0  0  0  0  0  0  0  0  0
   -9.0139    6.6805   -8.1663 O   0  0  0  0  0  0  0  0  0  0  0  0
   -8.5043    8.0444  -13.1931 O   0  0  0  0  0  0  0  0  0  0  0  0
  1  3  2  0
  1  7  1  0
  2  4  1  0
  2  7  2  0
  3 10  1  0
  4 10  2  0
  5  9  2  0
  5 11  1  0
  6 11  2  0
  6 12  1  0
  7 13  1  0
  8  9  1  0
  8 12  2  0
  8 14  1  0
  9 17  1  0
 10 18  1  0
 11 19  1  0
 12 20  1  0
 13 15  2  0
 13 17  1  0
 14 15  1  0
 14 16  2  0
 15 21  1  0
M  END
>  <id>  (12) 
EN300-205764

>  <smiles>  (12) 
OC=1C=CC(=CC1)C=2OC=3C=C(O)C=C(O)C3C(=O)C2O

>  <MDLNUMBER>  (12) 
MFCD00016938

>  <IUPAC Name>  (12) 
3,5,7-trihydroxy-2-(4-hydroxyphenyl)-4H-chromen-4-one

>  <CAS>  (12) 
520-18-3

>  <Purity>  (12) 
95

>  <URL>  (12) 
https://www.enaminestore.com/catalog/EN300-205764

>  <MP>  (12) 
276-280

>  <ROCS_ShapeQuery>  (12) 
_x0404_0B

>  <ROCS_TanimotoCombo>  (12) 
0.434 

>  <ROCS_ShapeTanimoto>  (12) 
0.358 

>  <ROCS_ColorTanimoto>  (12) 
0.076 

>  <ROCS_RefTversky>  (12) 
0.314 

>  <ROCS_RefColorTversky>  (12) 
0.087 

>  <ROCS_RefTverskyCombo>  (12) 
0.401 

>  <ROCS_FitTversky>  (12) 
1.636 

>  <ROCS_FitColorTversky>  (12) 
0.390 

>  <ROCS_FitTverskyCombo>  (12) 
2.026 

>  <ROCS_ColorScore>  (12) 
-6.287

>  <ROCS_Overlap>  (12) 
2095.194

>  <ROCS_Rank>  (12) 
340                 

>  <Score>  (12) 
-3.7707302269309366

>  <ref_mols>  (12) 
x0846_0B

>  <ref_pdb>  (12) 
x0846_0B

>  <original SMILES>  (12) 
O=c1c(O)c(-c2ccc(O)cc2)oc2cc(O)cc(O)c12

$$$$
EN300-206857
     RDKit          3D

 21 23  0  0  0  0  0  0  0  0999 V2000
   -7.3788    5.9792  -15.2364 C   0  0  0  0  0  0  0  0  0  0  0  0
   -9.5354    4.8919  -15.2993 C   0  0  0  0  0  0  0  0  0  0  0  0
   -7.2675    5.8386  -16.6196 C   0  0  0  0  0  0  0  0  0  0  0  0
   -9.4242    4.7514  -16.6826 C   0  0  0  0  0  0  0  0  0  0  0  0
   -9.0290    3.2124  -10.4597 C   0  0  0  0  0  0  0  0  0  0  0  0
   -9.1480    4.3277   -8.3177 C   0  0  0  0  0  0  0  0  0  0  0  0
   -8.5127    5.5058  -14.5762 C   0  0  0  0  0  0  0  0  0  0  0  0
   -8.8883    5.6200  -10.3387 C   0  0  0  0  0  0  0  0  0  0  0  0
   -8.8950    4.4486  -11.0925 C   0  0  0  0  0  0  0  0  0  0  0  0
   -8.2902    5.2247  -17.3428 C   0  0  0  0  0  0  0  0  0  0  0  0
   -9.1553    3.1535   -9.0716 C   0  0  0  0  0  0  0  0  0  0  0  0
   -9.0147    5.5653   -8.9484 C   0  0  0  0  0  0  0  0  0  0  0  0
   -8.6302    5.6543  -13.1147 C   0  0  0  0  0  0  0  0  0  0  0  0
   -8.7480    6.9104  -11.0309 C   0  0  0  0  0  0  0  0  0  0  0  0
   -8.6173    6.8546  -12.5069 C   0  0  0  0  0  0  0  0  0  0  0  0
   -8.7411    7.9723  -10.4228 O   0  0  0  0  0  0  0  0  0  0  0  0
   -8.7751    4.4424  -12.4581 O   0  0  0  0  0  0  0  0  0  0  0  0
   -8.1817    5.0876  -18.6926 O   0  0  0  0  0  0  0  0  0  0  0  0
   -9.2860    1.9485   -8.4517 O   0  0  0  0  0  0  0  0  0  0  0  0
   -9.0139    6.6805   -8.1663 O   0  0  0  0  0  0  0  0  0  0  0  0
   -8.5043    8.0444  -13.1931 O   0  0  0  0  0  0  0  0  0  0  0  0
  1  3  2  0
  1  7  1  0
  2  4  1  0
  2  7  2  0
  3 10  1  0
  4 10  2  0
  5  9  2  0
  5 11  1  0
  6 11  2  0
  6 12  1  0
  7 13  1  0
  8  9  1  0
  8 12  2  0
  8 14  1  0
  9 17  1  0
 10 18  1  0
 11 19  1  0
 12 20  1  0
 13 15  2  0
 13 17  1  0
 14 15  1  0
 14 16  2  0
 15 21  1  0
M  END
>  <id>  (13) 
EN300-206857

>  <smiles>  (13) 
O.OC=1C=CC(=CC1)C=2OC=3C=C(O)C=C(O)C3C(=O)C2O

>  <MDLNUMBER>  (13) 
MFCD18207731

>  <IUPAC Name>  (13) 
3,5,7-trihydroxy-2-(4-hydroxyphenyl)-4H-chromen-4-one hydrate

>  <CAS>  (13) 
1897498-12-2

>  <URL>  (13) 
https://www.enaminestore.com/catalog/EN300-206857

>  <Saltdate>  (13) 
O

>  <ROCS_ShapeQuery>  (13) 
_x0404_0B

>  <ROCS_TanimotoCombo>  (13) 
0.434 

>  <ROCS_ShapeTanimoto>  (13) 
0.358 

>  <ROCS_ColorTanimoto>  (13) 
0.076 

>  <ROCS_RefTversky>  (13) 
0.314 

>  <ROCS_RefColorTversky>  (13) 
0.087 

>  <ROCS_RefTverskyCombo>  (13) 
0.401 

>  <ROCS_FitTversky>  (13) 
1.636 

>  <ROCS_FitColorTversky>  (13) 
0.390 

>  <ROCS_FitTverskyCombo>  (13) 
2.026 

>  <ROCS_ColorScore>  (13) 
-6.287

>  <ROCS_Overlap>  (13) 
2095.194

>  <ROCS_Rank>  (13) 
341                 

>  <Score>  (13) 
-3.7707302269309366

>  <ref_mols>  (13) 
x0846_0B

>  <ref_pdb>  (13) 
x0846_0B

>  <original SMILES>  (13) 
O=c1c(O)c(-c2ccc(O)cc2)oc2cc(O)cc(O)c12

$$$$
EN300-199773
     RDKit          3D

 22 24  0  0  0  0  0  0  0  0999 V2000
   -9.5439    4.8854  -15.2971 C   0  0  0  0  0  0  0  0  0  0  0  0
   -9.4367    4.7455  -16.6808 C   0  0  0  0  0  0  0  0  0  0  0  0
   -7.3866    5.9714  -15.2396 C   0  0  0  0  0  0  0  0  0  0  0  0
   -9.0320    3.2098  -10.4570 C   0  0  0  0  0  0  0  0  0  0  0  0
   -9.1457    4.3273   -8.3159 C   0  0  0  0  0  0  0  0  0  0  0  0
   -8.5189    5.4984  -14.5765 C   0  0  0  0  0  0  0  0  0  0  0  0
   -8.8872    5.6173  -10.3385 C   0  0  0  0  0  0  0  0  0  0  0  0
   -8.8971    4.4452  -11.0912 C   0  0  0  0  0  0  0  0  0  0  0  0
   -8.3044    5.2186  -17.3439 C   0  0  0  0  0  0  0  0  0  0  0  0
   -7.2793    5.8315  -16.6233 C   0  0  0  0  0  0  0  0  0  0  0  0
   -9.1561    3.1524   -9.0687 C   0  0  0  0  0  0  0  0  0  0  0  0
   -9.0114    5.5641   -8.9480 C   0  0  0  0  0  0  0  0  0  0  0  0
   -8.6337    5.6484  -13.1150 C   0  0  0  0  0  0  0  0  0  0  0  0
   -8.7461    6.9068  -11.0322 C   0  0  0  0  0  0  0  0  0  0  0  0
   -8.6179    6.8493  -12.5083 C   0  0  0  0  0  0  0  0  0  0  0  0
   -8.7364    7.9693  -10.4251 O   0  0  0  0  0  0  0  0  0  0  0  0
   -8.7794    4.4374  -12.4570 O   0  0  0  0  0  0  0  0  0  0  0  0
   -8.2120    5.0757  -18.6954 O   0  0  0  0  0  0  0  0  0  0  0  0
   -6.1685    6.2964  -17.2605 O   0  0  0  0  0  0  0  0  0  0  0  0
   -9.2877    1.9482   -8.4473 O   0  0  0  0  0  0  0  0  0  0  0  0
   -9.0075    6.6801   -8.1669 O   0  0  0  0  0  0  0  0  0  0  0  0
   -8.5041    8.0383  -13.1959 O   0  0  0  0  0  0  0  0  0  0  0  0
  1  2  2  0
  1  6  1  0
  2  9  1  0
  3  6  2  0
  3 10  1  0
  4  8  2  0
  4 11  1  0
  5 11  2  0
  5 12  1  0
  6 13  1  0
  7  8  1  0
  7 12  2  0
  7 14  1  0
  8 17  1  0
  9 10  2  0
  9 18  1  0
 10 19  1  0
 11 20  1  0
 12 21  1  0
 13 15  2  0
 13 17  1  0
 14 15  1  0
 14 16  2  0
 15 22  1  0
M  END
>  <id>  (14) 
EN300-199773

>  <smiles>  (14) 
OC=1C=C(O)C=2C(=O)C(O)=C(OC2C1)C=3C=CC(O)=C(O)C3

>  <MDLNUMBER>  (14) 
MFCD00006828

>  <IUPAC Name>  (14) 
2-(3,4-dihydroxyphenyl)-3,5,7-trihydroxy-4H-chromen-4-one

>  <CAS>  (14) 
117-39-5

>  <Purity>  (14) 
95

>  <URL>  (14) 
https://www.enaminestore.com/catalog/EN300-199773

>  <MP>  (14) 
315-316

>  <ROCS_ShapeQuery>  (14) 
_x0404_0B

>  <ROCS_TanimotoCombo>  (14) 
0.450 

>  <ROCS_ShapeTanimoto>  (14) 
0.375 

>  <ROCS_ColorTanimoto>  (14) 
0.075 

>  <ROCS_RefTversky>  (14) 
0.327 

>  <ROCS_RefColorTversky>  (14) 
0.087 

>  <ROCS_RefTverskyCombo>  (14) 
0.414 

>  <ROCS_FitTversky>  (14) 
1.646 

>  <ROCS_FitColorTversky>  (14) 
0.349 

>  <ROCS_FitTverskyCombo>  (14) 
1.995 

>  <ROCS_ColorScore>  (14) 
-6.290

>  <ROCS_Overlap>  (14) 
2183.372

>  <ROCS_Rank>  (14) 
95                  

>  <Score>  (14) 
-3.7071224116377834

>  <ref_mols>  (14) 
x0846_0B

>  <ref_pdb>  (14) 
x0846_0B

>  <original SMILES>  (14) 
O=c1c(O)c(-c2ccc(O)c(O)c2)oc2cc(O)cc(O)c12

$$$$
EN300-48610
     RDKit          3D

 18 20  0  0  0  0  0  0  0  0999 V2000
   -8.5969    4.9843  -13.8333 C   0  0  0  0  0  0  0  0  0  0  0  0
   -8.6973    4.8487  -12.6443 C   0  0  0  0  0  0  0  0  0  0  0  0
   -7.2154    5.2432  -15.8364 C   0  0  0  0  0  0  0  0  0  0  0  0
   -9.6223    5.2119  -16.0435 C   0  0  0  0  0  0  0  0  0  0  0  0
   -7.0986    5.4016  -17.2172 C   0  0  0  0  0  0  0  0  0  0  0  0
   -9.5055    5.3704  -17.4244 C   0  0  0  0  0  0  0  0  0  0  0  0
   -9.1666    4.1593   -7.1619 C   0  0  0  0  0  0  0  0  0  0  0  0
   -9.2953    2.7663   -7.2444 C   0  0  0  0  0  0  0  0  0  0  0  0
   -8.4772    5.1483  -15.2495 C   0  0  0  0  0  0  0  0  0  0  0  0
   -8.2436    5.4652  -18.0113 C   0  0  0  0  0  0  0  0  0  0  0  0
   -9.0316    4.5789   -8.4657 C   0  0  0  0  0  0  0  0  0  0  0  0
   -8.9749    3.5063  -10.6420 C   0  0  0  0  0  0  0  0  0  0  0  0
   -8.7719    5.8534  -10.3115 C   0  0  0  0  0  0  0  0  0  0  0  0
   -8.8156    4.6919  -11.2429 C   0  0  0  0  0  0  0  0  0  0  0  0
   -9.2488    2.3143   -8.4970 N   0  0  0  0  0  0  0  0  0  0  0  0
   -8.8717    5.8154   -9.0169 N   0  0  0  0  0  0  0  0  0  0  0  0
   -9.0846    3.4298   -9.2553 N   0  0  0  0  0  0  0  0  0  0  0  0
   -8.1318    5.6173  -19.3375 F   0  0  0  0  0  0  0  0  0  0  0  0
  1  2  3  0
  1  9  1  0
  2 14  1  0
  3  5  2  0
  3  9  1  0
  4  6  1  0
  4  9  2  0
  5 10  1  0
  6 10  2  0
  7  8  1  0
  7 11  2  0
  8 15  2  0
 10 18  1  0
 11 16  1  0
 11 17  1  0
 12 14  2  0
 12 17  1  0
 13 14  1  0
 13 16  2  0
 15 17  1  0
M  END
>  <id>  (15) 
EN300-48610

>  <smiles>  (15) 
FC=1C=CC(C#CC=2C=NC3=CC=NN3C2)=CC1

>  <MDLNUMBER>  (15) 
MFCD32198575

>  <IUPAC Name>  (15) 
6-[2-(4-fluorophenyl)ethynyl]pyrazolo[1,5-a]pyrimidine

>  <CAS>  (15) 
1264192-08-6

>  <Purity>  (15) 
95

>  <URL>  (15) 
https://www.enaminestore.com/catalog/EN300-48610

>  <ROCS_ShapeQuery>  (15) 
_x0404_0B

>  <ROCS_TanimotoCombo>  (15) 
0.394 

>  <ROCS_ShapeTanimoto>  (15) 
0.333 

>  <ROCS_ColorTanimoto>  (15) 
0.061 

>  <ROCS_RefTversky>  (15) 
0.293 

>  <ROCS_RefColorTversky>  (15) 
0.064 

>  <ROCS_RefTverskyCombo>  (15) 
0.357 

>  <ROCS_FitTversky>  (15) 
1.705 

>  <ROCS_FitColorTversky>  (15) 
0.543 

>  <ROCS_FitTverskyCombo>  (15) 
2.248 

>  <ROCS_ColorScore>  (15) 
-4.644

>  <ROCS_Overlap>  (15) 
1951.601

>  <ROCS_Rank>  (15) 
158                 

>  <Score>  (15) 
-3.6928173213948412

>  <ref_mols>  (15) 
x0846_0B

>  <ref_pdb>  (15) 
x0846_0B

>  <original SMILES>  (15) 
Fc1ccc(C#Cc2cnc3ccnn3c2)cc1

$$$$
EN300-718546
     RDKit          3D

 19 22  0  0  1  0  0  0  0  0999 V2000
   -9.0057    4.0126  -12.1049 C   0  0  0  0  0  0  0  0  0  0  0  0
   -9.0703    3.7647  -10.7397 C   0  0  0  0  0  0  0  0  0  0  0  0
   -8.9389    4.8490   -9.8767 C   0  0  0  0  0  0  0  0  0  0  0  0
   -8.7928    5.3109  -12.5213 C   0  0  0  0  0  0  0  0  0  0  0  0
   -9.3448    2.3811  -10.2139 C   0  0  0  0  0  0  0  0  0  0  0  0
   -8.9696    4.6405   -8.3875 C   0  0  0  0  0  0  0  0  0  0  0  0
   -9.6009    3.3010   -8.0027 C   0  0  0  0  0  0  0  0  0  0  0  0
   -7.5419    6.1195  -14.5270 C   0  0  0  0  0  0  0  0  0  0  0  0
   -9.8874    5.5450  -14.7547 C   0  0  0  0  0  0  0  0  0  0  0  0
   -7.1410    5.0823  -16.8427 C   0  0  0  0  0  0  0  0  0  0  0  0
   -9.3884    4.5877  -17.0863 C   0  0  0  0  0  0  0  0  0  0  0  0
   -7.8660    6.1446  -16.0169 C   0  0  1  0  0  0  0  0  0  0  0  0
   -9.3511    5.8042  -16.1598 C   0  0  2  0  0  0  0  0  0  0  0  0
   -8.1913    5.4968  -18.9942 C   0  0  0  0  0  0  0  0  0  0  0  0
   -8.7237    6.1071  -10.3252 N   0  0  0  0  0  0  0  0  0  0  0  0
   -8.6523    6.3419  -11.6641 N   0  0  0  0  0  0  0  0  0  0  0  0
   -9.0224    2.2091   -8.7905 N   0  0  0  0  0  0  0  0  0  0  0  0
   -8.7189    5.5501  -13.8827 N   0  0  0  0  0  0  0  0  0  0  0  0
   -8.1213    4.6112  -17.8322 N   0  0  0  0  0  0  0  0  0  0  0  0
  1  2  2  0
  1  4  1  0
  2  3  1  0
  2  5  1  0
  3  6  1  0
  3 15  2  0
  4 16  2  0
  4 18  1  0
  5 17  1  0
  6  7  1  0
  7 17  1  0
 12  8  1  1
  8 18  1  0
 13  9  1  1
  9 18  1  0
 10 12  1  0
 10 19  1  0
 11 13  1  0
 11 19  1  0
 12 13  1  0
 14 19  1  0
 15 16  1  0
M  END
>  <id>  (16) 
EN300-718546

>  <smiles>  (16) 
CN1CC2CN(CC2C1)C=3C=C4CNCCC4=NN3

>  <MDLNUMBER>  (16) 
MFCD31440175

>  <IUPAC Name>  (16) 
2-methyl-5-{5H,6H,7H,8H-pyrido[4,3-c]pyridazin-3-yl}-octahydropyrrolo[3,4-c]pyrrole

>  <CAS>  (16) 
2138210-22-5

>  <URL>  (16) 
https://www.enaminestore.com/catalog/EN300-718546

>  <ROCS_ShapeQuery>  (16) 
_x0404_0B

>  <ROCS_TanimotoCombo>  (16) 
0.433 

>  <ROCS_ShapeTanimoto>  (16) 
0.341 

>  <ROCS_ColorTanimoto>  (16) 
0.093 

>  <ROCS_RefTversky>  (16) 
0.299 

>  <ROCS_RefColorTversky>  (16) 
0.100 

>  <ROCS_RefTverskyCombo>  (16) 
0.399 

>  <ROCS_FitTversky>  (16) 
1.693 

>  <ROCS_FitColorTversky>  (16) 
0.568 

>  <ROCS_FitTverskyCombo>  (16) 
2.260 

>  <ROCS_ColorScore>  (16) 
-7.213

>  <ROCS_Overlap>  (16) 
1993.739

>  <ROCS_Rank>  (16) 
358                 

>  <Score>  (16) 
-3.5723003688258359

>  <ref_mols>  (16) 
x0846_0B

>  <ref_pdb>  (16) 
x0846_0B

>  <original SMILES>  (16) 
CN1C[C@@H]2CN(c3cc4c(nn3)CCNC4)C[C@@H]2C1

$$$$
EN300-1655807
     RDKit          3D

 21 23  0  0  0  0  0  0  0  0999 V2000
   -9.5298    4.8237  -15.2704 C   0  0  0  0  0  0  0  0  0  0  0  0
   -9.4231    4.7004  -16.6557 C   0  0  0  0  0  0  0  0  0  0  0  0
   -7.3575    5.8786  -15.1969 C   0  0  0  0  0  0  0  0  0  0  0  0
   -9.0459    3.1270  -10.4032 C   0  0  0  0  0  0  0  0  0  0  0  0
   -9.1462    4.2592   -8.2685 C   0  0  0  0  0  0  0  0  0  0  0  0
   -8.4970    5.4129  -14.5410 C   0  0  0  0  0  0  0  0  0  0  0  0
   -8.8671    5.5332  -10.2976 C   0  0  0  0  0  0  0  0  0  0  0  0
   -8.8928    4.3566  -11.0443 C   0  0  0  0  0  0  0  0  0  0  0  0
   -8.2835    5.1661  -17.3116 C   0  0  0  0  0  0  0  0  0  0  0  0
   -7.2507    5.7552  -16.5822 C   0  0  0  0  0  0  0  0  0  0  0  0
   -9.1723    3.0800   -9.0146 C   0  0  0  0  0  0  0  0  0  0  0  0
   -8.9936    5.4904   -8.9072 C   0  0  0  0  0  0  0  0  0  0  0  0
   -8.5778    6.7434  -12.4689 C   0  0  0  0  0  0  0  0  0  0  0  0
   -8.6115    5.5459  -13.0748 C   0  0  0  0  0  0  0  0  0  0  0  0
   -8.7058    6.8156  -10.9995 C   0  0  0  0  0  0  0  0  0  0  0  0
   -8.6786    7.8861  -10.4082 O   0  0  0  0  0  0  0  0  0  0  0  0
   -8.7734    4.3395  -12.4109 O   0  0  0  0  0  0  0  0  0  0  0  0
   -8.1917    5.0395  -18.6648 O   0  0  0  0  0  0  0  0  0  0  0  0
   -6.1329    6.2127  -17.2124 O   0  0  0  0  0  0  0  0  0  0  0  0
   -9.3217    1.8818   -8.3859 O   0  0  0  0  0  0  0  0  0  0  0  0
   -8.9742    6.6114   -8.1338 O   0  0  0  0  0  0  0  0  0  0  0  0
  1  2  2  0
  1  6  1  0
  2  9  1  0
  3  6  2  0
  3 10  1  0
  4  8  2  0
  4 11  1  0
  5 11  2  0
  5 12  1  0
  6 14  1  0
  7  8  1  0
  7 12  2  0
  7 15  1  0
  8 17  1  0
  9 10  2  0
  9 18  1  0
 10 19  1  0
 11 20  1  0
 12 21  1  0
 13 14  2  0
 13 15  1  0
 14 17  1  0
 15 16  2  0
M  END
>  <id>  (17) 
EN300-1655807

>  <smiles>  (17) 
O.OC=1C=C(O)C=2C(=O)C=C(OC2C1)C=3C=CC(O)=C(O)C3

>  <MDLNUMBER>  (17) 
MFCD10566022

>  <IUPAC Name>  (17) 
2-(3,4-dihydroxyphenyl)-5,7-dihydroxy-4H-chromen-4-one hydrate

>  <CAS>  (17) 
6113-16-2

>  <URL>  (17) 
https://www.enaminestore.com/catalog/EN300-1655807

>  <Saltdate>  (17) 
O

>  <ROCS_ShapeQuery>  (17) 
_x0404_0B

>  <ROCS_TanimotoCombo>  (17) 
0.441 

>  <ROCS_ShapeTanimoto>  (17) 
0.369 

>  <ROCS_ColorTanimoto>  (17) 
0.072 

>  <ROCS_RefTversky>  (17) 
0.321 

>  <ROCS_RefColorTversky>  (17) 
0.083 

>  <ROCS_RefTverskyCombo>  (17) 
0.403 

>  <ROCS_FitTversky>  (17) 
1.674 

>  <ROCS_FitColorTversky>  (17) 
0.371 

>  <ROCS_FitTverskyCombo>  (17) 
2.045 

>  <ROCS_ColorScore>  (17) 
-5.979

>  <ROCS_Overlap>  (17) 
2141.860

>  <ROCS_Rank>  (17) 
204                 

>  <Score>  (17) 
-3.1600864062359051

>  <ref_mols>  (17) 
x0846_0B

>  <ref_pdb>  (17) 
x0846_0B

>  <original SMILES>  (17) 
O=c1cc(-c2ccc(O)c(O)c2)oc2cc(O)cc(O)c12

$$$$
EN300-1659559
     RDKit          3D

 21 23  0  0  0  0  0  0  0  0999 V2000
   -9.5298    4.8237  -15.2704 C   0  0  0  0  0  0  0  0  0  0  0  0
   -9.4231    4.7004  -16.6557 C   0  0  0  0  0  0  0  0  0  0  0  0
   -7.3575    5.8786  -15.1969 C   0  0  0  0  0  0  0  0  0  0  0  0
   -9.0459    3.1270  -10.4032 C   0  0  0  0  0  0  0  0  0  0  0  0
   -9.1462    4.2592   -8.2685 C   0  0  0  0  0  0  0  0  0  0  0  0
   -8.4970    5.4129  -14.5410 C   0  0  0  0  0  0  0  0  0  0  0  0
   -8.8671    5.5332  -10.2976 C   0  0  0  0  0  0  0  0  0  0  0  0
   -8.8928    4.3566  -11.0443 C   0  0  0  0  0  0  0  0  0  0  0  0
   -8.2835    5.1661  -17.3116 C   0  0  0  0  0  0  0  0  0  0  0  0
   -7.2507    5.7552  -16.5822 C   0  0  0  0  0  0  0  0  0  0  0  0
   -9.1723    3.0800   -9.0146 C   0  0  0  0  0  0  0  0  0  0  0  0
   -8.9936    5.4904   -8.9072 C   0  0  0  0  0  0  0  0  0  0  0  0
   -8.5778    6.7434  -12.4689 C   0  0  0  0  0  0  0  0  0  0  0  0
   -8.6115    5.5459  -13.0748 C   0  0  0  0  0  0  0  0  0  0  0  0
   -8.7058    6.8156  -10.9995 C   0  0  0  0  0  0  0  0  0  0  0  0
   -8.6786    7.8861  -10.4082 O   0  0  0  0  0  0  0  0  0  0  0  0
   -8.7734    4.3395  -12.4109 O   0  0  0  0  0  0  0  0  0  0  0  0
   -8.1917    5.0395  -18.6648 O   0  0  0  0  0  0  0  0  0  0  0  0
   -6.1329    6.2127  -17.2124 O   0  0  0  0  0  0  0  0  0  0  0  0
   -9.3217    1.8818   -8.3859 O   0  0  0  0  0  0  0  0  0  0  0  0
   -8.9742    6.6114   -8.1338 O   0  0  0  0  0  0  0  0  0  0  0  0
  1  2  2  0
  1  6  1  0
  2  9  1  0
  3  6  2  0
  3 10  1  0
  4  8  2  0
  4 11  1  0
  5 11  2  0
  5 12  1  0
  6 14  1  0
  7  8  1  0
  7 12  2  0
  7 15  1  0
  8 17  1  0
  9 10  2  0
  9 18  1  0
 10 19  1  0
 11 20  1  0
 12 21  1  0
 13 14  2  0
 13 15  1  0
 14 17  1  0
 15 16  2  0
M  END
>  <id>  (18) 
EN300-1659559

>  <smiles>  (18) 
OC=1C=C(O)C=2C(=O)C=C(OC2C1)C=3C=CC(O)=C(O)C3

>  <MDLNUMBER>  (18) 
MFCD00017309

>  <IUPAC Name>  (18) 
2-(3,4-dihydroxyphenyl)-5,7-dihydroxy-4H-chromen-4-one

>  <CAS>  (18) 
491-70-3

>  <Purity>  (18) 
95

>  <URL>  (18) 
https://www.enaminestore.com/catalog/EN300-1659559

>  <ROCS_ShapeQuery>  (18) 
_x0404_0B

>  <ROCS_TanimotoCombo>  (18) 
0.441 

>  <ROCS_ShapeTanimoto>  (18) 
0.369 

>  <ROCS_ColorTanimoto>  (18) 
0.072 

>  <ROCS_RefTversky>  (18) 
0.321 

>  <ROCS_RefColorTversky>  (18) 
0.083 

>  <ROCS_RefTverskyCombo>  (18) 
0.403 

>  <ROCS_FitTversky>  (18) 
1.674 

>  <ROCS_FitColorTversky>  (18) 
0.371 

>  <ROCS_FitTverskyCombo>  (18) 
2.045 

>  <ROCS_ColorScore>  (18) 
-5.979

>  <ROCS_Overlap>  (18) 
2141.860

>  <ROCS_Rank>  (18) 
205                 

>  <Score>  (18) 
-3.1600864062359051

>  <ref_mols>  (18) 
x0846_0B

>  <ref_pdb>  (18) 
x0846_0B

>  <original SMILES>  (18) 
O=c1cc(-c2ccc(O)c(O)c2)oc2cc(O)cc(O)c12

$$$$
EN300-333415
     RDKit          3D

 19 22  0  0  1  0  0  0  0  0999 V2000
   -9.0650    4.0010  -12.0989 C   0  0  0  0  0  0  0  0  0  0  0  0
   -9.0973    3.7598  -10.7313 C   0  0  0  0  0  0  0  0  0  0  0  0
   -8.9235    4.8451   -9.8771 C   0  0  0  0  0  0  0  0  0  0  0  0
   -8.8404    5.2935  -12.5267 C   0  0  0  0  0  0  0  0  0  0  0  0
   -9.3820    2.3834  -10.1921 C   0  0  0  0  0  0  0  0  0  0  0  0
   -8.9178    4.6432   -8.3867 C   0  0  0  0  0  0  0  0  0  0  0  0
   -9.5621    3.3167   -7.9790 C   0  0  0  0  0  0  0  0  0  0  0  0
   -9.9217    5.2466  -14.7784 C   0  0  0  0  0  0  0  0  0  0  0  0
   -7.7679    6.3341  -14.5289 C   0  0  0  0  0  0  0  0  0  0  0  0
   -9.2275    4.4267  -17.1129 C   0  0  0  0  0  0  0  0  0  0  0  0
   -7.1208    5.3352  -16.8049 C   0  0  0  0  0  0  0  0  0  0  0  0
   -9.4421    5.6201  -16.1794 C   0  0  2  0  0  0  0  0  0  0  0  0
   -8.0581    6.2537  -16.0230 C   0  0  1  0  0  0  0  0  0  0  0  0
   -8.1616    5.5358  -18.9919 C   0  0  0  0  0  0  0  0  0  0  0  0
   -8.6982    6.0973  -10.3369 N   0  0  0  0  0  0  0  0  0  0  0  0
   -8.6587    6.3253  -11.6783 N   0  0  0  0  0  0  0  0  0  0  0  0
   -9.0245    2.2115   -8.7772 N   0  0  0  0  0  0  0  0  0  0  0  0
   -8.7990    5.5259  -13.8907 N   0  0  0  0  0  0  0  0  0  0  0  0
   -7.9634    4.6848  -17.8190 N   0  0  0  0  0  0  0  0  0  0  0  0
  1  2  2  0
  1  4  1  0
  2  3  1  0
  2  5  1  0
  3  6  1  0
  3 15  2  0
  4 16  2  0
  4 18  1  0
  5 17  1  0
  6  7  1  0
  7 17  1  0
 12  8  1  1
  8 18  1  0
 13  9  1  1
  9 18  1  0
 10 12  1  0
 10 19  1  0
 11 13  1  0
 11 19  1  0
 12 13  1  0
 14 19  1  0
 15 16  1  0
M  END
>  <id>  (19) 
EN300-333415

>  <smiles>  (19) 
CN1C[C@H]2CN(C[C@H]2C1)C=3C=C4CNCCC4=NN3

>  <MDLNUMBER>  (19) 
MFCD30535680

>  <IUPAC Name>  (19) 
(3aR,6aS)-2-methyl-5-{5H,6H,7H,8H-pyrido[4,3-c]pyridazin-3-yl}-octahydropyrrolo[3,4-c]pyrrole

>  <CAS>  (19) 
2059908-10-8

>  <Purity>  (19) 
95

>  <URL>  (19) 
https://www.enaminestore.com/catalog/EN300-333415

>  <ROCS_ShapeQuery>  (19) 
_x0404_0B

>  <ROCS_TanimotoCombo>  (19) 
0.434 

>  <ROCS_ShapeTanimoto>  (19) 
0.342 

>  <ROCS_ColorTanimoto>  (19) 
0.093 

>  <ROCS_RefTversky>  (19) 
0.300 

>  <ROCS_RefColorTversky>  (19) 
0.100 

>  <ROCS_RefTverskyCombo>  (19) 
0.399 

>  <ROCS_FitTversky>  (19) 
1.696 

>  <ROCS_FitColorTversky>  (19) 
0.567 

>  <ROCS_FitTverskyCombo>  (19) 
2.263 

>  <ROCS_ColorScore>  (19) 
-7.201

>  <ROCS_Overlap>  (19) 
1998.398

>  <ROCS_Rank>  (19) 
331                 

>  <Score>  (19) 
-3.1173719353037086

>  <ref_mols>  (19) 
x0846_0B

>  <ref_pdb>  (19) 
x0846_0B

>  <original SMILES>  (19) 
CN1C[C@@H]2CN(c3cc4c(nn3)CCNC4)C[C@@H]2C1

$$$$
EN300-18546823
     RDKit          3D

 21 23  0  0  1  0  0  0  0  0999 V2000
   -9.7084    4.8465  -15.3639 C   0  0  0  0  0  0  0  0  0  0  0  0
   -9.4537    4.7269  -16.7301 C   0  0  0  0  0  0  0  0  0  0  0  0
   -7.5385    5.8611  -15.0483 C   0  0  0  0  0  0  0  0  0  0  0  0
   -8.9721    3.1270  -10.3933 C   0  0  0  0  0  0  0  0  0  0  0  0
   -9.1956    4.2643   -8.2708 C   0  0  0  0  0  0  0  0  0  0  0  0
   -8.8300    5.5371  -10.2881 C   0  0  0  0  0  0  0  0  0  0  0  0
   -8.7508    5.4136  -14.5230 C   0  0  0  0  0  0  0  0  0  0  0  0
   -8.8204    4.3562  -11.0360 C   0  0  0  0  0  0  0  0  0  0  0  0
   -8.2415    5.1744  -17.2554 C   0  0  0  0  0  0  0  0  0  0  0  0
   -7.2839    5.7415  -16.4145 C   0  0  0  0  0  0  0  0  0  0  0  0
   -9.1646    3.0826   -9.0121 C   0  0  0  0  0  0  0  0  0  0  0  0
   -9.0244    5.4952   -8.9051 C   0  0  0  0  0  0  0  0  0  0  0  0
   -8.5865    6.8238  -10.9719 C   0  0  0  0  0  0  0  0  0  0  0  0
   -8.2846    6.7403  -12.4457 C   0  0  0  0  0  0  0  0  0  0  0  0
   -9.0281    5.5459  -13.0403 C   0  0  2  0  0  0  0  0  0  0  0  0
   -8.5739    7.8830  -10.3563 O   0  0  0  0  0  0  0  0  0  0  0  0
   -8.6393    4.3235  -12.3946 O   0  0  0  0  0  0  0  0  0  0  0  0
   -8.0050    5.0517  -18.5915 O   0  0  0  0  0  0  0  0  0  0  0  0
   -6.0960    6.1813  -16.9158 O   0  0  0  0  0  0  0  0  0  0  0  0
   -9.3233    1.8840   -8.3864 O   0  0  0  0  0  0  0  0  0  0  0  0
   -9.0492    6.6161   -8.1314 O   0  0  0  0  0  0  0  0  0  0  0  0
  1  2  2  0
  1  7  1  0
  2  9  1  0
  3  7  2  0
  3 10  1  0
  4  8  2  0
  4 11  1  0
  5 11  2  0
  5 12  1  0
  6  8  1  0
  6 12  2  0
  6 13  1  0
 15  7  1  6
  8 17  1  0
  9 10  2  0
  9 18  1  0
 10 19  1  0
 11 20  1  0
 12 21  1  0
 13 14  1  0
 13 16  2  0
 14 15  1  0
 15 17  1  0
M  END
>  <id>  (20) 
EN300-18546823

>  <smiles>  (20) 
OC=1C=C(O)C=2C(=O)C[C@H](OC2C1)C=3C=CC(O)=C(O)C3

>  <MDLNUMBER>  (20) 
MFCD00135890

>  <IUPAC Name>  (20) 
(2S)-2-(3,4-dihydroxyphenyl)-5,7-dihydroxy-3,4-dihydro-2H-1-benzopyran-4-one

>  <CAS>  (20) 
552-58-9

>  <URL>  (20) 
https://www.enaminestore.com/catalog/EN300-18546823

>  <ROCS_ShapeQuery>  (20) 
_x0404_0B

>  <ROCS_TanimotoCombo>  (20) 
0.437 

>  <ROCS_ShapeTanimoto>  (20) 
0.365 

>  <ROCS_ColorTanimoto>  (20) 
0.072 

>  <ROCS_RefTversky>  (20) 
0.318 

>  <ROCS_RefColorTversky>  (20) 
0.082 

>  <ROCS_RefTverskyCombo>  (20) 
0.400 

>  <ROCS_FitTversky>  (20) 
1.670 

>  <ROCS_FitColorTversky>  (20) 
0.368 

>  <ROCS_FitTverskyCombo>  (20) 
2.038 

>  <ROCS_ColorScore>  (20) 
-5.944

>  <ROCS_Overlap>  (20) 
2124.729

>  <ROCS_Rank>  (20) 
282                 

>  <Score>  (20) 
-2.7596708790615594

>  <ref_mols>  (20) 
x0846_0B

>  <ref_pdb>  (20) 
x0846_0B

>  <original SMILES>  (20) 
O=C1C[C@@H](c2ccc(O)c(O)c2)Oc2cc(O)cc(O)c21

$$$$
EN300-23012033
     RDKit          3D

 21 23  0  0  0  0  0  0  0  0999 V2000
   -7.3593    5.8970  -15.1776 C   0  0  0  0  0  0  0  0  0  0  0  0
   -9.5337    4.8470  -15.2576 C   0  0  0  0  0  0  0  0  0  0  0  0
   -7.2540    5.7846  -16.5639 C   0  0  0  0  0  0  0  0  0  0  0  0
   -9.4284    4.7346  -16.6440 C   0  0  0  0  0  0  0  0  0  0  0  0
   -9.0419    3.1031  -10.4076 C   0  0  0  0  0  0  0  0  0  0  0  0
   -8.4992    5.4281  -14.5244 C   0  0  0  0  0  0  0  0  0  0  0  0
   -8.8607    5.5079  -10.2793 C   0  0  0  0  0  0  0  0  0  0  0  0
   -8.8889    4.3385  -11.0373 C   0  0  0  0  0  0  0  0  0  0  0  0
   -8.2885    5.2034  -17.2971 C   0  0  0  0  0  0  0  0  0  0  0  0
   -9.1656    3.0428   -9.0193 C   0  0  0  0  0  0  0  0  0  0  0  0
   -8.9846    5.4519   -8.8891 C   0  0  0  0  0  0  0  0  0  0  0  0
   -9.1369    4.2148   -8.2620 C   0  0  0  0  0  0  0  0  0  0  0  0
   -8.5747    6.7387  -12.4395 C   0  0  0  0  0  0  0  0  0  0  0  0
   -8.6106    5.5471  -13.0568 C   0  0  0  0  0  0  0  0  0  0  0  0
   -8.6997    6.7969  -10.9691 C   0  0  0  0  0  0  0  0  0  0  0  0
   -8.6704    7.8617  -10.3677 O   0  0  0  0  0  0  0  0  0  0  0  0
   -8.7723    4.3345  -12.4041 O   0  0  0  0  0  0  0  0  0  0  0  0
   -8.1858    5.0937  -18.6499 O   0  0  0  0  0  0  0  0  0  0  0  0
   -9.3145    1.8311   -8.4143 O   0  0  0  0  0  0  0  0  0  0  0  0
   -8.9615    6.5743   -8.1158 O   0  0  0  0  0  0  0  0  0  0  0  0
   -9.2588    4.1464   -6.9049 O   0  0  0  0  0  0  0  0  0  0  0  0
  1  3  2  0
  1  6  1  0
  2  4  1  0
  2  6  2  0
  3  9  1  0
  4  9  2  0
  5  8  2  0
  5 10  1  0
  6 14  1  0
  7  8  1  0
  7 11  2  0
  7 15  1  0
  8 17  1  0
  9 18  1  0
 10 12  2  0
 10 19  1  0
 11 12  1  0
 11 20  1  0
 12 21  1  0
 13 14  2  0
 13 15  1  0
 14 17  1  0
 15 16  2  0
M  END
>  <id>  (21) 
EN300-23012033

>  <smiles>  (21) 
OC=1C=CC(=CC1)C2=CC(=O)C=3C(O)=C(O)C(O)=CC3O2

>  <MDLNUMBER>  (21) 
MFCD00017692

>  <IUPAC Name>  (21) 
5,6,7-trihydroxy-2-(4-hydroxyphenyl)-4H-chromen-4-one

>  <CAS>  (21) 
529-53-3

>  <URL>  (21) 
https://www.enaminestore.com/catalog/EN300-23012033

>  <ROCS_ShapeQuery>  (21) 
_x0404_0B

>  <ROCS_TanimotoCombo>  (21) 
0.437 

>  <ROCS_ShapeTanimoto>  (21) 
0.364 

>  <ROCS_ColorTanimoto>  (21) 
0.073 

>  <ROCS_RefTversky>  (21) 
0.318 

>  <ROCS_RefColorTversky>  (21) 
0.083 

>  <ROCS_RefTverskyCombo>  (21) 
0.402 

>  <ROCS_FitTversky>  (21) 
1.657 

>  <ROCS_FitColorTversky>  (21) 
0.374 

>  <ROCS_FitTverskyCombo>  (21) 
2.032 

>  <ROCS_ColorScore>  (21) 
-6.042

>  <ROCS_Overlap>  (21) 
2123.531

>  <ROCS_Rank>  (21) 
270                 

>  <Score>  (21) 
-2.7030210541659017

>  <ref_mols>  (21) 
x0846_0B

>  <ref_pdb>  (21) 
x0846_0B

>  <original SMILES>  (21) 
O=c1cc(-c2ccc(O)cc2)oc2cc(O)c(O)c(O)c12

$$$$
EN300-119692
     RDKit          3D

 21 24  0  0  1  0  0  0  0  0999 V2000
   -8.2368    4.8168  -18.8184 C   0  0  0  0  0  0  0  0  0  0  0  0
   -9.5555    4.5143  -18.4891 C   0  0  0  0  0  0  0  0  0  0  0  0
   -8.8130    6.2019  -10.2501 C   0  0  0  0  0  0  0  0  0  0  0  0
   -7.3750    5.3262  -17.8478 C   0  0  0  0  0  0  0  0  0  0  0  0
  -10.0127    4.7143  -17.1867 C   0  0  0  0  0  0  0  0  0  0  0  0
   -8.9180    2.5342  -10.4491 C   0  0  0  0  0  0  0  0  0  0  0  0
   -8.9982    2.1769   -9.1008 C   0  0  0  0  0  0  0  0  0  0  0  0
   -8.7342    6.5239  -11.5974 C   0  0  0  0  0  0  0  0  0  0  0  0
   -8.9563    4.5017   -8.4922 C   0  0  0  0  0  0  0  0  0  0  0  0
   -8.8757    4.8608   -9.8484 C   0  0  0  0  0  0  0  0  0  0  0  0
   -7.8287    5.5443  -16.5398 C   0  0  0  0  0  0  0  0  0  0  0  0
   -9.1546    5.2200  -16.1989 C   0  0  0  0  0  0  0  0  0  0  0  0
   -8.8559    3.8663  -10.8487 C   0  0  0  0  0  0  0  0  0  0  0  0
   -9.0174    3.1616   -8.1209 C   0  0  0  0  0  0  0  0  0  0  0  0
   -8.7207    5.4823  -12.5027 C   0  0  0  0  0  0  0  0  0  0  0  0
   -6.8813    6.0767  -15.4964 C   0  0  0  0  0  0  0  0  0  0  0  0
   -9.6882    5.4198  -14.7955 C   0  0  0  0  0  0  0  0  0  0  0  0
   -7.6411    6.7446  -14.3549 C   0  0  0  0  0  0  0  0  0  0  0  0
   -8.7794    4.1758  -12.1569 N   0  0  0  0  0  0  0  0  0  0  0  0
   -8.6423    5.8081  -13.8391 N   0  0  0  0  0  0  0  0  0  0  0  0
   -9.0982    2.8061   -6.7597 N   0  0  0  0  0  0  0  0  0  0  0  0
  1  2  2  0
  1  4  1  0
  2  5  1  0
  3  8  2  0
  3 10  1  0
  4 11  2  0
  5 12  2  0
  6  7  1  0
  6 13  2  0
  7 14  2  0
  8 15  1  0
  9 10  2  0
  9 14  1  0
 10 13  1  0
 11 12  1  0
 11 16  1  0
 12 17  1  0
 13 19  1  0
 14 21  1  0
 15 19  2  0
 15 20  1  0
 16 18  1  0
 17 20  1  0
 18 20  1  0
M  END
>  <id>  (22) 
EN300-119692

>  <smiles>  (22) 
NC=1C=CC=2N=C(C=CC2C1)N3CCC=4C=CC=CC4C3

>  <MDLNUMBER>  (22) 
MFCD13698780

>  <IUPAC Name>  (22) 
2-(1,2,3,4-tetrahydroisoquinolin-2-yl)quinolin-6-amine

>  <CAS>  (22) 
1154583-56-8

>  <Purity>  (22) 
95

>  <URL>  (22) 
https://www.enaminestore.com/catalog/EN300-119692

>  <ROCS_ShapeQuery>  (22) 
_x0404_0B

>  <ROCS_TanimotoCombo>  (22) 
0.438 

>  <ROCS_ShapeTanimoto>  (22) 
0.380 

>  <ROCS_ColorTanimoto>  (22) 
0.058 

>  <ROCS_RefTversky>  (22) 
0.328 

>  <ROCS_RefColorTversky>  (22) 
0.063 

>  <ROCS_RefTverskyCombo>  (22) 
0.391 

>  <ROCS_FitTversky>  (22) 
1.711 

>  <ROCS_FitColorTversky>  (22) 
0.435 

>  <ROCS_FitTverskyCombo>  (22) 
2.146 

>  <ROCS_ColorScore>  (22) 
-4.540

>  <ROCS_Overlap>  (22) 
2187.891

>  <ROCS_Rank>  (22) 
262                 

>  <Score>  (22) 
-2.6799960528339852

>  <ref_mols>  (22) 
x0846_0B

>  <ref_pdb>  (22) 
x0846_0B

>  <original SMILES>  (22) 
Nc1ccc2nc(N3CCc4ccccc4C3)ccc2c1

$$$$
EN300-6498668
     RDKit          3D

 22 25  0  0  0  0  0  0  0  0999 V2000
   -7.3256    5.9459  -15.2705 C   0  0  0  0  0  0  0  0  0  0  0  0
   -7.2136    5.8618  -16.6583 C   0  0  0  0  0  0  0  0  0  0  0  0
   -8.8670    5.6082   -9.0689 C   0  0  0  0  0  0  0  0  0  0  0  0
   -8.4942    6.8103  -12.5586 C   0  0  0  0  0  0  0  0  0  0  0  0
   -9.0149    3.2130  -10.5364 C   0  0  0  0  0  0  0  0  0  0  0  0
   -9.4171    4.8781  -16.7765 C   0  0  0  0  0  0  0  0  0  0  0  0
   -8.7666    5.6212  -10.4720 C   0  0  0  0  0  0  0  0  0  0  0  0
   -8.4833    5.4961  -14.6357 C   0  0  0  0  0  0  0  0  0  0  0  0
   -8.5910    6.8199  -11.1744 C   0  0  0  0  0  0  0  0  0  0  0  0
   -8.8405    4.4146  -11.2202 C   0  0  0  0  0  0  0  0  0  0  0  0
   -9.0386    4.3942   -8.4428 C   0  0  0  0  0  0  0  0  0  0  0  0
   -9.1105    3.2273   -9.1584 C   0  0  0  0  0  0  0  0  0  0  0  0
   -8.2594    5.3279  -17.4113 C   0  0  0  0  0  0  0  0  0  0  0  0
   -9.5291    4.9622  -15.3887 C   0  0  0  0  0  0  0  0  0  0  0  0
   -8.5773    5.5895  -13.1980 C   0  0  0  0  0  0  0  0  0  0  0  0
   -9.3078    2.7576   -7.0563 C   0  0  0  0  0  0  0  0  0  0  0  0
   -8.5034    8.1447  -10.4835 C   0  0  0  0  0  0  0  0  0  0  0  0
   -8.7465    4.4075  -12.5621 N   0  0  0  0  0  0  0  0  0  0  0  0
   -9.1543    4.1909   -7.1031 O   0  0  0  0  0  0  0  0  0  0  0  0
   -9.2810    2.1391   -8.3589 O   0  0  0  0  0  0  0  0  0  0  0  0
   -8.1505    5.2463  -18.7656 O   0  0  0  0  0  0  0  0  0  0  0  0
  -10.6715    4.5145  -14.7934 O   0  0  0  0  0  0  0  0  0  0  0  0
  1  2  2  0
  1  8  1  0
  2 13  1  0
  3  7  2  0
  3 11  1  0
  4  9  2  0
  4 15  1  0
  5 10  2  0
  5 12  1  0
  6 13  2  0
  6 14  1  0
  7  9  1  0
  7 10  1  0
  8 14  2  0
  8 15  1  0
  9 17  1  0
 10 18  1  0
 11 12  2  0
 11 19  1  0
 12 20  1  0
 13 21  1  0
 14 22  1  0
 15 18  2  0
 16 19  1  0
 16 20  1  0
M  END
>  <id>  (23) 
EN300-6498668

>  <smiles>  (23) 
Cl.CC=1C=C(N=C2C=C3OCOC3=CC12)C=4C=CC(O)=CC4O

>  <MDLNUMBER>  (23) 
MFCD31794796

>  <IUPAC Name>  (23) 
4-{8-methyl-2H-[1,3]dioxolo[4,5-g]quinolin-6-yl}benzene-1,3-diol hydrochloride

>  <CAS>  (23) 
1797668-19-9

>  <Purity>  (23) 
95

>  <URL>  (23) 
https://www.enaminestore.com/catalog/EN300-6498668

>  <Saltdate>  (23) 
Cl

>  <ROCS_ShapeQuery>  (23) 
_x0404_0B

>  <ROCS_TanimotoCombo>  (23) 
0.435 

>  <ROCS_ShapeTanimoto>  (23) 
0.374 

>  <ROCS_ColorTanimoto>  (23) 
0.062 

>  <ROCS_RefTversky>  (23) 
0.327 

>  <ROCS_RefColorTversky>  (23) 
0.070 

>  <ROCS_RefTverskyCombo>  (23) 
0.396 

>  <ROCS_FitTversky>  (23) 
1.622 

>  <ROCS_FitColorTversky>  (23) 
0.354 

>  <ROCS_FitTverskyCombo>  (23) 
1.976 

>  <ROCS_ColorScore>  (23) 
-5.043

>  <ROCS_Overlap>  (23) 
2182.195

>  <ROCS_Rank>  (23) 
308                 

>  <Score>  (23) 
-1.5293711362071463

>  <ref_mols>  (23) 
x0846_0B

>  <ref_pdb>  (23) 
x0846_0B

>  <original SMILES>  (23) 
Cc1cc(-c2ccc(O)cc2O)nc2cc3c(cc12)OCO3

$$$$
EN300-26614623
     RDKit          3D

 23 26  0  0  1  0  0  0  0  0999 V2000
   -9.2684    2.4887   -7.4250 C   0  0  0  0  0  0  0  0  0  0  0  0
   -9.5068    3.6344   -6.6688 C   0  0  0  0  0  0  0  0  0  0  0  0
   -8.9391    2.5814   -8.7820 C   0  0  0  0  0  0  0  0  0  0  0  0
   -9.4247    4.9065   -7.2421 C   0  0  0  0  0  0  0  0  0  0  0  0
   -9.5925    5.4043  -16.2565 C   0  0  0  0  0  0  0  0  0  0  0  0
   -7.2895    6.0880  -16.1428 C   0  0  0  0  0  0  0  0  0  0  0  0
   -9.3072    4.8371  -17.4880 C   0  0  0  0  0  0  0  0  0  0  0  0
   -8.8487    3.8526   -9.3831 C   0  0  0  0  0  0  0  0  0  0  0  0
   -8.5589    6.0398  -15.5775 C   0  0  0  0  0  0  0  0  0  0  0  0
   -8.5501    4.3181  -10.6895 C   0  0  0  0  0  0  0  0  0  0  0  0
   -9.0945    4.9868   -8.5997 C   0  0  0  0  0  0  0  0  0  0  0  0
   -8.6133    5.6909  -10.6739 C   0  0  0  0  0  0  0  0  0  0  0  0
   -7.1072    5.4900  -17.3793 C   0  0  0  0  0  0  0  0  0  0  0  0
   -8.8069    6.6572  -14.2680 C   0  0  0  0  0  0  0  0  0  0  0  0
   -8.2237    3.6194  -11.9513 C   0  0  0  0  0  0  0  0  0  0  0  0
   -8.8450    4.3913  -13.1259 C   0  0  0  0  0  0  0  0  0  0  0  0
   -8.3483    6.5855  -11.8341 C   0  0  1  0  0  0  0  0  0  0  0  0
   -6.8946    7.0705  -11.7999 C   0  0  0  0  0  0  0  0  0  0  0  0
   -8.0868    4.8636  -18.0690 N   0  0  0  0  0  0  0  0  0  0  0  0
   -8.9473    6.0923   -9.4125 N   0  0  0  0  0  0  0  0  0  0  0  0
   -8.6291    5.8680  -13.1156 N   0  0  0  0  0  0  0  0  0  0  0  0
   -9.1611    7.8353  -14.2824 O   0  0  0  0  0  0  0  0  0  0  0  0
   -5.8872    5.5282  -17.9366 F   0  0  0  0  0  0  0  0  0  0  0  0
  1  2  2  0
  1  3  1  0
  2  4  1  0
  3  8  2  0
  4 11  2  0
  5  7  2  0
  5  9  1  0
  6  9  2  0
  6 13  1  0
  7 19  1  0
  8 10  1  0
  8 11  1  0
  9 14  1  0
 10 12  2  0
 10 15  1  0
 11 20  1  0
 12 17  1  0
 12 20  1  0
 13 19  2  0
 13 23  1  0
 14 21  1  0
 14 22  2  0
 15 16  1  0
 16 21  1  0
 17 18  1  6
 17 21  1  0
M  END
>  <id>  (24) 
EN300-26614623

>  <smiles>  (24) 
CC1N(CCC2=C1NC=3C=CC=CC23)C(=O)C=4C=CN=C(F)C4

>  <IUPAC Name>  (24) 
2-fluoro-4-{1-methyl-1H,2H,3H,4H,9H-pyrido[3,4-b]indole-2-carbonyl}pyridine

>  <CAS>  (24) 
1280977-50-5

>  <URL>  (24) 
https://www.enaminestore.com/catalog/EN300-26614623

>  <ROCS_ShapeQuery>  (24) 
_x0404_0B

>  <ROCS_TanimotoCombo>  (24) 
0.461 

>  <ROCS_ShapeTanimoto>  (24) 
0.399 

>  <ROCS_ColorTanimoto>  (24) 
0.063 

>  <ROCS_RefTversky>  (24) 
0.343 

>  <ROCS_RefColorTversky>  (24) 
0.067 

>  <ROCS_RefTverskyCombo>  (24) 
0.411 

>  <ROCS_FitTversky>  (24) 
1.675 

>  <ROCS_FitColorTversky>  (24) 
0.465 

>  <ROCS_FitTverskyCombo>  (24) 
2.140 

>  <ROCS_ColorScore>  (24) 
-4.866

>  <ROCS_Overlap>  (24) 
2293.827

>  <ROCS_Rank>  (24) 
47                  

>  <Score>  (24) 
-0.88562421066444585

>  <ref_mols>  (24) 
x0846_0B

>  <ref_pdb>  (24) 
x0846_0B

>  <original SMILES>  (24) 
C[C@@H]1c2[nH]c3ccccc3c2CCN1C(=O)c1ccnc(F)c1

$$$$
