ver_1.2
     RDKit          3D

 14 15  0  0  0  0  0  0  0  0999 V2000
    3.0740   -1.3190    0.0550 C   0  0  0  0  0  0  0  0  0  0  0  0
    2.2376   -0.1375    0.0524 N   0  0  0  0  0  0  0  0  0  0  0  0
    2.5521    1.1523    0.0795 C   0  0  0  0  0  0  0  0  0  0  0  0
    1.4197    1.8886    0.0630 N   0  0  0  0  0  0  0  0  0  0  0  0
    0.3605    1.0602    0.0247 C   0  0  0  0  0  0  0  0  0  0  0  0
    0.8814   -0.2170    0.0182 C   0  0  0  0  0  0  0  0  0  0  0  0
   -0.0180   -1.2717   -0.0196 C   0  0  0  0  0  0  0  0  0  0  0  0
    0.4436   -2.4553   -0.0262 O   0  0  0  0  0  0  0  0  0  0  0  0
   -1.3622   -1.0526   -0.0490 N   0  0  0  0  0  0  0  0  0  0  0  0
   -1.8115    0.2139   -0.0409 C   0  0  0  0  0  0  0  0  0  0  0  0
   -3.0501    0.4186   -0.0680 O   0  0  0  0  0  0  0  0  0  0  0  0
   -0.9813    1.2698   -0.0048 N   0  0  0  0  0  0  0  0  0  0  0  0
   -1.4764    2.6322    0.0037 C   0  0  0  0  0  0  0  0  0  0  0  0
   -2.2695   -2.1826   -0.0882 C   0  0  0  0  0  0  0  0  0  0  0  0
  1  2  1  0
  2  3  1  0
  3  4  2  0
  4  5  1  0
  5  6  2  0
  6  7  1  0
  7  8  2  0
  7  9  1  0
  9 10  1  0
 10 11  2  0
 10 12  1  0
 12 13  1  0
  9 14  1  0
  6  2  1  0
 12  5  1  0
M  END
>  <ref_url>  (1) 
https://arxiv.org/abs/2304.10905

>  <submitter_name>  (1) 
Janke Scheen

>  <submitter_email>  (1) 
jenke.scheen@choderalab.org

>  <submitter_institution>  (1) 
Nowehere

>  <generation_date>  (1) 
2023-09-07

>  <method>  (1) 
Silvr-catalog

>  <index>  (1) 
index

>  <∆∆G>  (1) 
∆∆G

>  <comRMSD>  (1) 
comRMSD

>  <N_constrained_atoms>  (1) 
N_constrained_atoms

>  <N_unconstrained_atoms>  (1) 
N_unconstrained_atoms

>  <LE>  (1) 
LE

>  <percent_hybrid>  (1) 
percent_hybrid

>  <max_hit_Tanimoto>  (1) 
max_hit_Tanimoto

>  <largest_ring>  (1) 
largest_ring

>  <N_interactions_kept>  (1) 
N_interactions_kept

>  <N_interactions_lost>  (1) 
N_interactions_lost

>  <interaction_uniqueness_metric>  (1) 
interaction_uniqueness_metric

>  <N_HA>  (1) 
N_HA

>  <N_rotatable_bonds>  (1) 
N_rotatable_bonds

>  <N_interactions>  (1) 
N_interactions

>  <N_PAINS>  (1) 
N_PAINS

>  <UFF_Gibbs>  (1) 
UFF_Gibbs

>  <strain_per_HA>  (1) 
strain_per_HA

>  <ad_hoc_penalty>  (1) 
ad_hoc_penalty

>  <cluster>  (1) 
cluster

>  <merger_rank>  (1) 
merger_rank

>  <pication:ARG:29>  (1) 
pication:ARG:29

>  <hbond:HIS:51>  (1) 
hbond:HIS:51

>  <pistack:HIS:51>  (1) 
pistack:HIS:51

>  <hydroph_interaction:TYR:161>  (1) 
hydroph_interaction:TYR:161

>  <pication:HIS:51>  (1) 
pication:HIS:51

>  <hydroph_interaction:ALA:132>  (1) 
hydroph_interaction:ALA:132

>  <hydroph_interaction:TYR:150>  (1) 
hydroph_interaction:TYR:150

>  <hydroph_interaction:LYS:54>  (1) 
hydroph_interaction:LYS:54

>  <hbond:SER:135>  (1) 
hbond:SER:135

>  <hydroph_interaction:HIS:51>  (1) 
hydroph_interaction:HIS:51

>  <hbond:ASP:83>  (1) 
hbond:ASP:83

>  <hbond:ALA:132>  (1) 
hbond:ALA:132

>  <halogenbond:SER:81>  (1) 
halogenbond:SER:81

>  <hbond:GLY:82>  (1) 
hbond:GLY:82

>  <saltbridge:HIS:51>  (1) 
saltbridge:HIS:51

>  <pistack:TYR:161>  (1) 
pistack:TYR:161

>  <hbond:SER:81>  (1) 
hbond:SER:81

>  <hbond:ASN:152>  (1) 
hbond:ASN:152

>  <hbond:GLY:151>  (1) 
hbond:GLY:151

>  <hydroph_interaction:ASN:152>  (1) 
hydroph_interaction:ASN:152

>  <hbond:TYR:161>  (1) 
hbond:TYR:161

>  <halogenbond:TYR:150>  (1) 
halogenbond:TYR:150

>  <hbond:ASP:75>  (1) 
hbond:ASP:75

>  <hbond:GLY:153>  (1) 
hbond:GLY:153

>  <hbond:VAL:36>  (1) 
hbond:VAL:36

>  <hbond:PRO:131>  (1) 
hbond:PRO:131

>  <hbond:VAL:52>  (1) 
hbond:VAL:52

>  <hydroph_interaction:ASP:83>  (1) 
hydroph_interaction:ASP:83

>  <hydroph_interaction:MET:49>  (1) 
hydroph_interaction:MET:49

>  <hydroph_interaction:VAL:52>  (1) 
hydroph_interaction:VAL:52

>  <saltbridge:ASP:83>  (1) 
saltbridge:ASP:83

>  <saltbridge:ASP:75>  (1) 
saltbridge:ASP:75

>  <hydroph_interaction:TRP:50>  (1) 
hydroph_interaction:TRP:50

>  <hydroph_interaction:VAL:72>  (1) 
hydroph_interaction:VAL:72

>  <hydroph_interaction:ASP:75>  (1) 
hydroph_interaction:ASP:75

>  <halogenbond:ASN:152>  (1) 
halogenbond:ASN:152

>  <halogenbond:GLY:153>  (1) 
halogenbond:GLY:153

>  <halogenbond:TYR:130>  (1) 
halogenbond:TYR:130

>  <hbond:TYR:130>  (1) 
hbond:TYR:130

>  <halogenbond:ASP:75>  (1) 
halogenbond:ASP:75

>  <halogenbond:GLY:151>  (1) 
halogenbond:GLY:151

>  <hbond:TYR:150>  (1) 
hbond:TYR:150

>  <halogenbond:TYR:161>  (1) 
halogenbond:TYR:161

>  <hydroph_interaction:ASP:129>  (1) 
hydroph_interaction:ASP:129

>  <hbond:ASP:129>  (1) 
hbond:ASP:129

>  <halogenbond:ALA:132>  (1) 
halogenbond:ALA:132

$$$$
PV-002106159378
     RDKit          3D

 26 27  0  0  0  0  0  0  0  0999 V2000
   -8.3980    4.3790  -19.5540 C   0  0  0  0  0  0  0  0  0  0  0  0
   -8.0440    4.9560  -18.1950 C   0  0  0  0  0  0  0  0  0  0  0  0
   -6.7790    5.6370  -18.0140 C   0  0  0  0  0  0  0  0  0  0  0  0
   -6.5060    6.2370  -16.4490 S   0  0  0  0  0  0  0  0  0  0  0  0
   -8.0750    5.6000  -15.9750 C   0  0  0  0  0  0  0  0  0  0  0  0
   -8.5260    5.7970  -14.5750 C   0  0  0  0  0  0  0  0  0  0  0  0
   -9.2570    6.7430  -14.2660 O   0  0  0  0  0  0  0  0  0  0  0  0
   -8.0200    4.7900  -13.6570 N   0  0  0  0  0  0  0  0  0  0  0  0
   -8.4000    4.7020  -12.3650 C   0  0  0  0  0  0  0  0  0  0  0  0
   -8.7780    3.5590  -11.5430 C   0  0  0  0  0  0  0  0  0  0  0  0
   -9.0670    3.9930  -10.3110 N   0  0  0  0  0  0  0  0  0  0  0  0
   -9.4510    3.1530   -9.3050 C   0  0  0  0  0  0  0  0  0  0  0  0
   -8.8770    5.3620  -10.3770 C   0  0  0  0  0  0  0  0  0  0  0  0
   -8.4680    5.8440  -11.6240 N   0  0  0  0  0  0  0  0  0  0  0  0
   -8.7540    4.9480  -17.0290 C   0  0  0  0  0  0  0  0  0  0  0  0
   -9.3010    4.8580  -19.9670 H   0  0  0  0  0  0  0  0  0  0  0  0
   -8.5940    3.3040  -19.4700 H   0  0  0  0  0  0  0  0  0  0  0  0
   -7.5870    4.5230  -20.2810 H   0  0  0  0  0  0  0  0  0  0  0  0
   -6.1100    5.7110  -18.8800 H   0  0  0  0  0  0  0  0  0  0  0  0
   -7.8390    3.8540  -14.0950 H   0  0  0  0  0  0  0  0  0  0  0  0
   -8.8330    2.5110  -11.8230 H   0  0  0  0  0  0  0  0  0  0  0  0
  -10.3780    2.6510   -9.5270 H   0  0  0  0  0  0  0  0  0  0  0  0
   -8.7130    2.3590   -9.3010 H   0  0  0  0  0  0  0  0  0  0  0  0
   -9.5350    3.5200   -8.2830 H   0  0  0  0  0  0  0  0  0  0  0  0
   -9.0150    6.0750   -9.5620 H   0  0  0  0  0  0  0  0  0  0  0  0
   -9.7320    4.4910  -16.9310 H   0  0  0  0  0  0  0  0  0  0  0  0
  1  2  1  0
  2  3  2  0
  3  4  1  0
  4  5  1  0
  5  6  1  0
  6  7  2  0
  6  8  1  0
  8  9  1  0
  9 10  2  0
 10 11  1  0
 11 12  1  0
 11 13  1  0
 13 14  2  0
  5 15  2  0
 15  2  1  0
 14  9  1  0
  1 16  1  0
  1 17  1  0
  1 18  1  0
  3 19  1  0
  8 20  1  0
 10 21  1  0
 12 22  1  0
 12 23  1  0
 12 24  1  0
 13 25  1  0
 15 26  1  0
A    1
 C1 
A    2
 C2 
A    3
 C3 
A    4
 S1 
A    5
 C4 
A    6
 C5 
A    7
 O1 
A    8
 N1 
A    9
 C6 
A   10
 C7 
A   11
 N2 
A   12
 C8 
A   13
 C9 
A   14
 N3 
A   15
 C10
A   16
 H1 
A   17
 H2 
A   18
 H3 
A   19
 H4 
A   20
 H5 
A   21
 H6 
A   22
 H7 
A   23
 H8 
A   24
 H9 
A   25
 H10
A   26
 H11
M  END
>  <ref_pdb>  (1) 
x0051_0B

>  <ref_mols>  (1) 
x0404_0B,x0969_0B

>  <original SMILES>  (1) 
[H]c1sc(C(=O)N([H])c2nc([H])n(C([H])([H])[H])c2[H])c([H])c1C([H])([H])[H]

>  <index>  (1) 
5921

>  <∆∆G>  (1) 
-8.340744

>  <comRMSD>  (1) 
0.21471

>  <N_constrained_atoms>  (1) 
14.0

>  <N_unconstrained_atoms>  (1) 
1.0

>  <LE>  (1) 
0.55605

>  <percent_hybrid>  (1) 
0.0

>  <max_hit_Tanimoto>  (1) 
0.209716

>  <largest_ring>  (1) 
5

>  <N_interactions_kept>  (1) 
0.0

>  <N_interactions_lost>  (1) 
0.0

>  <interaction_uniqueness_metric>  (1) 
0.580388

>  <N_HA>  (1) 
15

>  <N_rotatable_bonds>  (1) 
4

>  <N_interactions>  (1) 
8

>  <N_PAINS>  (1) 
0

>  <UFF_Gibbs>  (1) 
54.813697

>  <strain_per_HA>  (1) 
3.654222

>  <ad_hoc_penalty>  (1) 
-63.485492

>  <cluster>  (1) 
43

>  <merger_rank>  (1) 
1

>  <pication:ARG:29>  (1) 
0

>  <hbond:HIS:51>  (1) 
0

>  <pistack:HIS:51>  (1) 
1

>  <hydroph_interaction:TYR:161>  (1) 
1

>  <pication:HIS:51>  (1) 
1

>  <hydroph_interaction:ALA:132>  (1) 
0

>  <hydroph_interaction:TYR:150>  (1) 
1

>  <hydroph_interaction:LYS:54>  (1) 
0

>  <hbond:SER:135>  (1) 
0

>  <hydroph_interaction:HIS:51>  (1) 
0

>  <hbond:ASP:83>  (1) 
0

>  <hbond:ALA:132>  (1) 
0

>  <halogenbond:SER:81>  (1) 
0

>  <hbond:GLY:82>  (1) 
0

>  <saltbridge:HIS:51>  (1) 
0

>  <pistack:TYR:161>  (1) 
1

>  <hbond:SER:81>  (1) 
0

>  <hbond:ASN:152>  (1) 
0

>  <hbond:GLY:151>  (1) 
0

>  <hydroph_interaction:ASN:152>  (1) 
0

>  <hbond:TYR:161>  (1) 
1

>  <halogenbond:TYR:150>  (1) 
0

>  <hbond:ASP:75>  (1) 
0

>  <hbond:GLY:153>  (1) 
0

>  <hbond:VAL:36>  (1) 
0

>  <hbond:PRO:131>  (1) 
0

>  <hbond:VAL:52>  (1) 
0

>  <hydroph_interaction:ASP:83>  (1) 
0

>  <hydroph_interaction:MET:49>  (1) 
0

>  <hydroph_interaction:VAL:52>  (1) 
0

>  <saltbridge:ASP:83>  (1) 
1

>  <saltbridge:ASP:75>  (1) 
1

>  <hydroph_interaction:TRP:50>  (1) 
0

>  <hydroph_interaction:VAL:72>  (1) 
0

>  <hydroph_interaction:ASP:75>  (1) 
0

>  <halogenbond:ASN:152>  (1) 
0

>  <halogenbond:GLY:153>  (1) 
0

>  <halogenbond:TYR:130>  (1) 
0

>  <hbond:TYR:130>  (1) 
0

>  <halogenbond:ASP:75>  (1) 
0

>  <halogenbond:GLY:151>  (1) 
0

>  <hbond:TYR:150>  (1) 
0

>  <halogenbond:TYR:161>  (1) 
0

>  <hydroph_interaction:ASP:129>  (1) 
0

>  <hbond:ASP:129>  (1) 
0

>  <halogenbond:ALA:132>  (1) 
0

$$$$
Z1527367814
     RDKit          3D

 30 33  0  0  0  0  0  0  0  0999 V2000
   -8.6770    4.5610  -19.8200 C   0  0  0  0  0  0  0  0  0  0  0  0
   -8.2420    5.0850  -18.4740 C   0  0  0  0  0  0  0  0  0  0  0  0
   -7.0900    6.0370  -18.5340 C   0  0  0  0  0  0  0  0  0  0  0  0
   -6.7260    6.5080  -17.1580 C   0  0  0  0  0  0  0  0  0  0  0  0
   -7.4880    6.0200  -15.9300 C   0  0  0  0  0  0  0  0  0  0  0  0
   -7.3300    6.3070  -14.6240 N   0  0  0  0  0  0  0  0  0  0  0  0
   -8.2440    5.5980  -13.9280 C   0  0  0  0  0  0  0  0  0  0  0  0
   -8.4260    5.5640  -12.4420 C   0  0  0  0  0  0  0  0  0  0  0  0
   -8.2970    6.6430  -11.4440 C   0  0  0  0  0  0  0  0  0  0  0  0
   -8.4280    6.7010  -10.1020 N   0  0  0  0  0  0  0  0  0  0  0  0
   -8.7440    5.4260   -9.7230 C   0  0  0  0  0  0  0  0  0  0  0  0
   -8.9090    5.2740   -8.3340 C   0  0  0  0  0  0  0  0  0  0  0  0
   -9.2320    3.9260   -8.1150 C   0  0  0  0  0  0  0  0  0  0  0  0
   -9.3200    2.9520   -9.5170 S   0  0  0  0  0  0  0  0  0  0  0  0
   -8.9190    4.2840  -10.5040 C   0  0  0  0  0  0  0  0  0  0  0  0
   -8.7620    4.3350  -11.8880 C   0  0  0  0  0  0  0  0  0  0  0  0
   -8.9740    4.8850  -14.8470 N   0  0  0  0  0  0  0  0  0  0  0  0
   -8.5140    5.1390  -16.1000 C   0  0  0  0  0  0  0  0  0  0  0  0
   -8.9160    4.6620  -17.3260 C   0  0  0  0  0  0  0  0  0  0  0  0
   -8.9600    3.5130  -19.7370 H   0  0  0  0  0  0  0  0  0  0  0  0
   -7.8770    4.6330  -20.5650 H   0  0  0  0  0  0  0  0  0  0  0  0
   -9.5460    5.1180  -20.1830 H   0  0  0  0  0  0  0  0  0  0  0  0
   -6.5960    6.3380  -19.4510 H   0  0  0  0  0  0  0  0  0  0  0  0
   -5.8960    7.2160  -17.0390 H   0  0  0  0  0  0  0  0  0  0  0  0
   -8.0400    7.6470  -11.7600 H   0  0  0  0  0  0  0  0  0  0  0  0
   -8.8070    6.0470   -7.5860 H   0  0  0  0  0  0  0  0  0  0  0  0
   -9.4170    3.5160   -7.1270 H   0  0  0  0  0  0  0  0  0  0  0  0
   -8.8930    3.4530  -12.4990 H   0  0  0  0  0  0  0  0  0  0  0  0
   -9.7360    4.2470  -14.6620 H   0  0  0  0  0  0  0  0  0  0  0  0
   -9.7380    3.9660  -17.4000 H   0  0  0  0  0  0  0  0  0  0  0  0
  1  2  1  0
  2  3  2  0
  3  4  1  0
  4  5  2  0
  5  6  1  0
  6  7  2  0
  7  8  1  0
  8  9  2  0
  9 10  1  0
 10 11  2  0
 11 12  1  0
 12 13  2  0
 13 14  1  0
 14 15  1  0
 15 16  2  0
  7 17  1  0
 17 18  1  0
 18 19  2  0
 19  2  1  0
 18  5  1  0
 16  8  1  0
 15 11  1  0
  1 20  1  0
  1 21  1  0
  1 22  1  0
  3 23  1  0
  4 24  1  0
  9 25  1  0
 12 26  1  0
 13 27  1  0
 16 28  1  0
 17 29  1  0
 19 30  1  0
A    1
 C1 
A    2
 C2 
A    3
 C3 
A    4
 C4 
A    5
 C5 
A    6
 N1 
A    7
 C6 
A    8
 C7 
A    9
 C8 
A   10
 N2 
A   11
 C9 
A   12
 C10
A   13
 C11
A   14
 S1 
A   15
 C12
A   16
 C13
A   17
 N3 
A   18
 C14
A   19
 C15
A   20
 H1 
A   21
 H2 
A   22
 H3 
A   23
 H4 
A   24
 H5 
A   25
 H6 
A   26
 H7 
A   27
 H8 
A   28
 H9 
A   29
 H10
A   30
 H11
M  END
>  <ref_pdb>  (2) 
x0051_0B

>  <ref_mols>  (2) 
x0404_0B,x0969_0B

>  <original SMILES>  (2) 
[H]c1nc2c([H])c([H])sc2c([H])c1-c1nc2c([H])c([H])c(C([H])([H])[H])c([H])c2n1[H]

>  <index>  (2) 
5011

>  <∆∆G>  (2) 
-7.424486

>  <comRMSD>  (2) 
0.284092

>  <N_constrained_atoms>  (2) 
18.0

>  <N_unconstrained_atoms>  (2) 
1.0

>  <LE>  (2) 
0.390762

>  <percent_hybrid>  (2) 
0.0

>  <max_hit_Tanimoto>  (2) 
0.408514

>  <largest_ring>  (2) 
6

>  <N_interactions_kept>  (2) 
0.0

>  <N_interactions_lost>  (2) 
0.0

>  <interaction_uniqueness_metric>  (2) 
0.176989

>  <N_HA>  (2) 
19

>  <N_rotatable_bonds>  (2) 
2

>  <N_interactions>  (2) 
8

>  <N_PAINS>  (2) 
0

>  <UFF_Gibbs>  (2) 
80.59873

>  <strain_per_HA>  (2) 
4.242016

>  <ad_hoc_penalty>  (2) 
-59.079735

>  <cluster>  (2) 
383

>  <merger_rank>  (2) 
1

>  <pication:ARG:29>  (2) 
0

>  <hbond:HIS:51>  (2) 
0

>  <pistack:HIS:51>  (2) 
2

>  <hydroph_interaction:TYR:161>  (2) 
2

>  <pication:HIS:51>  (2) 
0

>  <hydroph_interaction:ALA:132>  (2) 
1

>  <hydroph_interaction:TYR:150>  (2) 
1

>  <hydroph_interaction:LYS:54>  (2) 
0

>  <hbond:SER:135>  (2) 
0

>  <hydroph_interaction:HIS:51>  (2) 
1

>  <hbond:ASP:83>  (2) 
0

>  <hbond:ALA:132>  (2) 
0

>  <halogenbond:SER:81>  (2) 
0

>  <hbond:GLY:82>  (2) 
0

>  <saltbridge:HIS:51>  (2) 
0

>  <pistack:TYR:161>  (2) 
0

>  <hbond:SER:81>  (2) 
0

>  <hbond:ASN:152>  (2) 
0

>  <hbond:GLY:151>  (2) 
0

>  <hydroph_interaction:ASN:152>  (2) 
0

>  <hbond:TYR:161>  (2) 
1

>  <halogenbond:TYR:150>  (2) 
0

>  <hbond:ASP:75>  (2) 
0

>  <hbond:GLY:153>  (2) 
0

>  <hbond:VAL:36>  (2) 
0

>  <hbond:PRO:131>  (2) 
0

>  <hbond:VAL:52>  (2) 
0

>  <hydroph_interaction:ASP:83>  (2) 
0

>  <hydroph_interaction:MET:49>  (2) 
0

>  <hydroph_interaction:VAL:52>  (2) 
0

>  <saltbridge:ASP:83>  (2) 
0

>  <saltbridge:ASP:75>  (2) 
0

>  <hydroph_interaction:TRP:50>  (2) 
0

>  <hydroph_interaction:VAL:72>  (2) 
0

>  <hydroph_interaction:ASP:75>  (2) 
0

>  <halogenbond:ASN:152>  (2) 
0

>  <halogenbond:GLY:153>  (2) 
0

>  <halogenbond:TYR:130>  (2) 
0

>  <hbond:TYR:130>  (2) 
0

>  <halogenbond:ASP:75>  (2) 
0

>  <halogenbond:GLY:151>  (2) 
0

>  <hbond:TYR:150>  (2) 
0

>  <halogenbond:TYR:161>  (2) 
0

>  <hydroph_interaction:ASP:129>  (2) 
0

>  <hbond:ASP:129>  (2) 
0

>  <halogenbond:ALA:132>  (2) 
0

$$$$
Z1527344930
     RDKit          3D

 27 30  0  0  0  0  0  0  0  0999 V2000
   -7.1330    6.0540  -18.3870 C   0  0  0  0  0  0  0  0  0  0  0  0
   -8.2750    5.0640  -18.5630 C   0  0  0  0  0  0  0  0  0  0  0  0
   -8.8910    4.6600  -17.3110 C   0  0  0  0  0  0  0  0  0  0  0  0
   -8.4320    5.1600  -16.1470 C   0  0  0  0  0  0  0  0  0  0  0  0
   -8.9380    4.8290  -14.8750 N   0  0  0  0  0  0  0  0  0  0  0  0
   -8.1900    5.5580  -13.8800 C   0  0  0  0  0  0  0  0  0  0  0  0
   -8.4110    5.4360  -12.5200 C   0  0  0  0  0  0  0  0  0  0  0  0
   -8.2500    6.7520  -11.6910 C   0  0  0  0  0  0  0  0  0  0  0  0
   -8.4250    6.7260  -10.3530 N   0  0  0  0  0  0  0  0  0  0  0  0
   -8.7290    5.5180   -9.8680 C   0  0  0  0  0  0  0  0  0  0  0  0
   -8.9600    5.1450   -8.5130 C   0  0  0  0  0  0  0  0  0  0  0  0
   -9.2650    3.8320   -8.2130 C   0  0  0  0  0  0  0  0  0  0  0  0
   -9.2870    2.9480   -9.6800 S   0  0  0  0  0  0  0  0  0  0  0  0
   -8.8870    4.3440  -10.5780 C   0  0  0  0  0  0  0  0  0  0  0  0
   -8.7420    4.2440  -11.9110 C   0  0  0  0  0  0  0  0  0  0  0  0
   -7.2500    6.3290  -14.5540 N   0  0  0  0  0  0  0  0  0  0  0  0
   -7.4090    6.0600  -15.9360 C   0  0  0  0  0  0  0  0  0  0  0  0
   -6.7450    6.5150  -17.0840 C   0  0  0  0  0  0  0  0  0  0  0  0
   -6.6020    6.4220  -19.2610 H   0  0  0  0  0  0  0  0  0  0  0  0
   -8.5940    4.6970  -19.5480 H   0  0  0  0  0  0  0  0  0  0  0  0
   -9.7080    3.9580  -17.3490 H   0  0  0  0  0  0  0  0  0  0  0  0
   -9.6990    4.1700  -14.7100 H   0  0  0  0  0  0  0  0  0  0  0  0
   -7.9970    7.7290  -12.0780 H   0  0  0  0  0  0  0  0  0  0  0  0
   -8.9060    5.8600   -7.7010 H   0  0  0  0  0  0  0  0  0  0  0  0
   -9.4670    3.3790   -7.2490 H   0  0  0  0  0  0  0  0  0  0  0  0
   -8.8680    3.3060  -12.4420 H   0  0  0  0  0  0  0  0  0  0  0  0
   -5.9320    7.2210  -16.9800 H   0  0  0  0  0  0  0  0  0  0  0  0
  1  2  2  0
  2  3  1  0
  3  4  2  0
  4  5  1  0
  5  6  1  0
  6  7  1  0
  7  8  2  0
  8  9  1  0
  9 10  2  0
 10 11  1  0
 11 12  2  0
 12 13  1  0
 13 14  1  0
 14 15  2  0
  6 16  2  0
 16 17  1  0
 17 18  2  0
 18  1  1  0
 17  4  1  0
 15  7  1  0
 14 10  1  0
  1 19  1  0
  2 20  1  0
  3 21  1  0
  5 22  1  0
  8 23  1  0
 11 24  1  0
 12 25  1  0
 15 26  1  0
 18 27  1  0
A    1
 C1 
A    2
 C2 
A    3
 C3 
A    4
 C4 
A    5
 N1 
A    6
 C5 
A    7
 C6 
A    8
 C7 
A    9
 N2 
A   10
 C8 
A   11
 C9 
A   12
 C10
A   13
 S1 
A   14
 C11
A   15
 C12
A   16
 N3 
A   17
 C13
A   18
 C14
A   19
 H1 
A   20
 H2 
A   21
 H3 
A   22
 H4 
A   23
 H5 
A   24
 H6 
A   25
 H7 
A   26
 H8 
A   27
 H9 
M  END
>  <ref_pdb>  (3) 
x0051_0B

>  <ref_mols>  (3) 
x0404_0B,x0969_0B

>  <original SMILES>  (3) 
[H]c1nc2c([H])c([H])sc2c([H])c1-c1nc2c([H])c([H])c([H])c([H])c2n1[H]

>  <index>  (3) 
5000

>  <∆∆G>  (3) 
-5.826365

>  <comRMSD>  (3) 
0.282446

>  <N_constrained_atoms>  (3) 
18.0

>  <N_unconstrained_atoms>  (3) 
0.0

>  <LE>  (3) 
0.323687

>  <percent_hybrid>  (3) 
0.0

>  <max_hit_Tanimoto>  (3) 
0.404558

>  <largest_ring>  (3) 
6

>  <N_interactions_kept>  (3) 
0.0

>  <N_interactions_lost>  (3) 
0.0

>  <interaction_uniqueness_metric>  (3) 
0.16287

>  <N_HA>  (3) 
18

>  <N_rotatable_bonds>  (3) 
1

>  <N_interactions>  (3) 
8

>  <N_PAINS>  (3) 
0

>  <UFF_Gibbs>  (3) 
71.623615

>  <strain_per_HA>  (3) 
3.979068

>  <ad_hoc_penalty>  (3) 
-57.761996

>  <cluster>  (3) 
1395

>  <merger_rank>  (3) 
2

>  <pication:ARG:29>  (3) 
0

>  <hbond:HIS:51>  (3) 
0

>  <pistack:HIS:51>  (3) 
2

>  <hydroph_interaction:TYR:161>  (3) 
2

>  <pication:HIS:51>  (3) 
0

>  <hydroph_interaction:ALA:132>  (3) 
1

>  <hydroph_interaction:TYR:150>  (3) 
0

>  <hydroph_interaction:LYS:54>  (3) 
0

>  <hbond:SER:135>  (3) 
0

>  <hydroph_interaction:HIS:51>  (3) 
1

>  <hbond:ASP:83>  (3) 
0

>  <hbond:ALA:132>  (3) 
0

>  <halogenbond:SER:81>  (3) 
0

>  <hbond:GLY:82>  (3) 
0

>  <saltbridge:HIS:51>  (3) 
0

>  <pistack:TYR:161>  (3) 
0

>  <hbond:SER:81>  (3) 
0

>  <hbond:ASN:152>  (3) 
0

>  <hbond:GLY:151>  (3) 
1

>  <hydroph_interaction:ASN:152>  (3) 
0

>  <hbond:TYR:161>  (3) 
1

>  <halogenbond:TYR:150>  (3) 
0

>  <hbond:ASP:75>  (3) 
0

>  <hbond:GLY:153>  (3) 
0

>  <hbond:VAL:36>  (3) 
0

>  <hbond:PRO:131>  (3) 
0

>  <hbond:VAL:52>  (3) 
0

>  <hydroph_interaction:ASP:83>  (3) 
0

>  <hydroph_interaction:MET:49>  (3) 
0

>  <hydroph_interaction:VAL:52>  (3) 
0

>  <saltbridge:ASP:83>  (3) 
0

>  <saltbridge:ASP:75>  (3) 
0

>  <hydroph_interaction:TRP:50>  (3) 
0

>  <hydroph_interaction:VAL:72>  (3) 
0

>  <hydroph_interaction:ASP:75>  (3) 
0

>  <halogenbond:ASN:152>  (3) 
0

>  <halogenbond:GLY:153>  (3) 
0

>  <halogenbond:TYR:130>  (3) 
0

>  <hbond:TYR:130>  (3) 
0

>  <halogenbond:ASP:75>  (3) 
0

>  <halogenbond:GLY:151>  (3) 
0

>  <hbond:TYR:150>  (3) 
0

>  <halogenbond:TYR:161>  (3) 
0

>  <hydroph_interaction:ASP:129>  (3) 
0

>  <hbond:ASP:129>  (3) 
0

>  <halogenbond:ALA:132>  (3) 
0

$$$$
Z1527354847
     RDKit          3D

 30 33  0  0  0  0  0  0  0  0999 V2000
   -5.4770    7.4310  -16.9150 C   0  0  0  0  0  0  0  0  0  0  0  0
   -6.6760    6.5120  -17.0540 C   0  0  0  0  0  0  0  0  0  0  0  0
   -7.1590    6.0200  -18.3760 C   0  0  0  0  0  0  0  0  0  0  0  0
   -8.2460    5.1910  -18.4790 C   0  0  0  0  0  0  0  0  0  0  0  0
   -9.0120    4.7240  -17.3170 C   0  0  0  0  0  0  0  0  0  0  0  0
   -8.4860    5.2260  -16.1290 C   0  0  0  0  0  0  0  0  0  0  0  0
   -7.4010    6.0700  -15.9280 C   0  0  0  0  0  0  0  0  0  0  0  0
   -7.2150    6.3300  -14.6250 N   0  0  0  0  0  0  0  0  0  0  0  0
   -8.2730    5.5570  -13.9710 C   0  0  0  0  0  0  0  0  0  0  0  0
   -8.4510    5.4900  -12.5530 C   0  0  0  0  0  0  0  0  0  0  0  0
   -8.2710    6.6600  -11.8250 C   0  0  0  0  0  0  0  0  0  0  0  0
   -8.3980    6.7080  -10.4590 N   0  0  0  0  0  0  0  0  0  0  0  0
   -8.7430    5.4180   -9.8020 C   0  0  0  0  0  0  0  0  0  0  0  0
   -8.9180    5.1970   -8.4060 C   0  0  0  0  0  0  0  0  0  0  0  0
   -9.2390    3.8750   -8.1380 C   0  0  0  0  0  0  0  0  0  0  0  0
   -9.3300    2.9240   -9.5480 S   0  0  0  0  0  0  0  0  0  0  0  0
   -8.9300    4.2620  -10.5410 C   0  0  0  0  0  0  0  0  0  0  0  0
   -8.7860    4.2860  -11.9280 C   0  0  0  0  0  0  0  0  0  0  0  0
   -8.9950    4.9270  -14.9320 N   0  0  0  0  0  0  0  0  0  0  0  0
   -5.6500    8.1830  -16.1380 H   0  0  0  0  0  0  0  0  0  0  0  0
   -4.5770    6.8700  -16.6440 H   0  0  0  0  0  0  0  0  0  0  0  0
   -5.2860    7.9510  -17.8580 H   0  0  0  0  0  0  0  0  0  0  0  0
   -6.6650    6.3060  -19.2910 H   0  0  0  0  0  0  0  0  0  0  0  0
   -8.6990    4.7640  -19.3830 H   0  0  0  0  0  0  0  0  0  0  0  0
   -9.8690    4.0780  -17.3350 H   0  0  0  0  0  0  0  0  0  0  0  0
   -8.0150    7.6470  -12.1850 H   0  0  0  0  0  0  0  0  0  0  0  0
   -8.8140    5.9660   -7.6490 H   0  0  0  0  0  0  0  0  0  0  0  0
   -9.4260    3.4250   -7.1700 H   0  0  0  0  0  0  0  0  0  0  0  0
   -8.9340    3.3700  -12.4860 H   0  0  0  0  0  0  0  0  0  0  0  0
   -9.7860    4.3140  -14.7960 H   0  0  0  0  0  0  0  0  0  0  0  0
  1  2  1  0
  2  3  2  0
  3  4  1  0
  4  5  2  0
  5  6  1  0
  6  7  2  0
  7  8  1  0
  8  9  2  0
  9 10  1  0
 10 11  2  0
 11 12  1  0
 12 13  2  0
 13 14  1  0
 14 15  2  0
 15 16  1  0
 16 17  1  0
 17 18  2  0
  9 19  1  0
  7  2  1  0
 19  6  1  0
 18 10  1  0
 17 13  1  0
  1 20  1  0
  1 21  1  0
  1 22  1  0
  3 23  1  0
  4 24  1  0
  5 25  1  0
 11 26  1  0
 14 27  1  0
 15 28  1  0
 18 29  1  0
 19 30  1  0
A    1
 C1 
A    2
 C2 
A    3
 C3 
A    4
 C4 
A    5
 C5 
A    6
 C6 
A    7
 C7 
A    8
 N1 
A    9
 C8 
A   10
 C9 
A   11
 C10
A   12
 N2 
A   13
 C11
A   14
 C12
A   15
 C13
A   16
 S1 
A   17
 C14
A   18
 C15
A   19
 N3 
A   20
 H1 
A   21
 H2 
A   22
 H3 
A   23
 H4 
A   24
 H5 
A   25
 H6 
A   26
 H7 
A   27
 H8 
A   28
 H9 
A   29
 H10
A   30
 H11
M  END
>  <ref_pdb>  (4) 
x0051_0B

>  <ref_mols>  (4) 
x0404_0B,x0969_0B

>  <original SMILES>  (4) 
[H]c1nc2c([H])c([H])sc2c([H])c1-c1nc2c(C([H])([H])[H])c([H])c([H])c([H])c2n1[H]

>  <index>  (4) 
5008

>  <∆∆G>  (4) 
-6.113838

>  <comRMSD>  (4) 
0.30675

>  <N_constrained_atoms>  (4) 
18.0

>  <N_unconstrained_atoms>  (4) 
1.0

>  <LE>  (4) 
0.321781

>  <percent_hybrid>  (4) 
0.0

>  <max_hit_Tanimoto>  (4) 
0.398261

>  <largest_ring>  (4) 
6

>  <N_interactions_kept>  (4) 
0.0

>  <N_interactions_lost>  (4) 
0.0

>  <interaction_uniqueness_metric>  (4) 
0.16287

>  <N_HA>  (4) 
19

>  <N_rotatable_bonds>  (4) 
2

>  <N_interactions>  (4) 
8

>  <N_PAINS>  (4) 
0

>  <UFF_Gibbs>  (4) 
51.08126

>  <strain_per_HA>  (4) 
2.688473

>  <ad_hoc_penalty>  (4) 
-56.408712

>  <cluster>  (4) 
1388

>  <merger_rank>  (4) 
3

>  <pication:ARG:29>  (4) 
0

>  <hbond:HIS:51>  (4) 
0

>  <pistack:HIS:51>  (4) 
2

>  <hydroph_interaction:TYR:161>  (4) 
2

>  <pication:HIS:51>  (4) 
0

>  <hydroph_interaction:ALA:132>  (4) 
1

>  <hydroph_interaction:TYR:150>  (4) 
0

>  <hydroph_interaction:LYS:54>  (4) 
0

>  <hbond:SER:135>  (4) 
0

>  <hydroph_interaction:HIS:51>  (4) 
1

>  <hbond:ASP:83>  (4) 
0

>  <hbond:ALA:132>  (4) 
0

>  <halogenbond:SER:81>  (4) 
0

>  <hbond:GLY:82>  (4) 
0

>  <saltbridge:HIS:51>  (4) 
0

>  <pistack:TYR:161>  (4) 
0

>  <hbond:SER:81>  (4) 
0

>  <hbond:ASN:152>  (4) 
0

>  <hbond:GLY:151>  (4) 
1

>  <hydroph_interaction:ASN:152>  (4) 
0

>  <hbond:TYR:161>  (4) 
1

>  <halogenbond:TYR:150>  (4) 
0

>  <hbond:ASP:75>  (4) 
0

>  <hbond:GLY:153>  (4) 
0

>  <hbond:VAL:36>  (4) 
0

>  <hbond:PRO:131>  (4) 
0

>  <hbond:VAL:52>  (4) 
0

>  <hydroph_interaction:ASP:83>  (4) 
0

>  <hydroph_interaction:MET:49>  (4) 
0

>  <hydroph_interaction:VAL:52>  (4) 
0

>  <saltbridge:ASP:83>  (4) 
0

>  <saltbridge:ASP:75>  (4) 
0

>  <hydroph_interaction:TRP:50>  (4) 
0

>  <hydroph_interaction:VAL:72>  (4) 
0

>  <hydroph_interaction:ASP:75>  (4) 
0

>  <halogenbond:ASN:152>  (4) 
0

>  <halogenbond:GLY:153>  (4) 
0

>  <halogenbond:TYR:130>  (4) 
0

>  <hbond:TYR:130>  (4) 
0

>  <halogenbond:ASP:75>  (4) 
0

>  <halogenbond:GLY:151>  (4) 
0

>  <hbond:TYR:150>  (4) 
0

>  <halogenbond:TYR:161>  (4) 
0

>  <hydroph_interaction:ASP:129>  (4) 
0

>  <hbond:ASP:129>  (4) 
0

>  <halogenbond:ALA:132>  (4) 
0

$$$$
PV-002973919777
     RDKit          3D

 27 30  0  0  0  0  0  0  0  0999 V2000
   -8.6330    5.0380  -18.5010 C   0  0  0  0  0  0  0  0  0  0  0  0
   -7.3730    5.8610  -18.6330 C   0  0  0  0  0  0  0  0  0  0  0  0
   -6.8180    6.3590  -17.3440 C   0  0  0  0  0  0  0  0  0  0  0  0
   -7.4530    6.0540  -16.1380 C   0  0  0  0  0  0  0  0  0  0  0  0
   -6.9320    6.5480  -14.5570 S   0  0  0  0  0  0  0  0  0  0  0  0
   -8.2330    5.7180  -13.8160 C   0  0  0  0  0  0  0  0  0  0  0  0
   -8.4550    5.6270  -12.4080 C   0  0  0  0  0  0  0  0  0  0  0  0
   -8.7810    4.3150  -11.8330 C   0  0  0  0  0  0  0  0  0  0  0  0
   -8.9450    4.3080  -10.4650 C   0  0  0  0  0  0  0  0  0  0  0  0
   -8.7850    5.5820   -9.7610 C   0  0  0  0  0  0  0  0  0  0  0  0
   -9.0050    5.2120   -8.4180 C   0  0  0  0  0  0  0  0  0  0  0  0
   -9.2750    3.8790   -8.2870 C   0  0  0  0  0  0  0  0  0  0  0  0
   -9.2350    3.3500   -9.5630 N   0  0  0  0  0  0  0  0  0  0  0  0
   -8.5060    6.7520  -10.3010 N   0  0  0  0  0  0  0  0  0  0  0  0
   -8.3390    6.7620  -11.6440 N   0  0  0  0  0  0  0  0  0  0  0  0
   -9.0270    5.1250  -14.7770 C   0  0  0  0  0  0  0  0  0  0  0  0
   -8.6260    5.2790  -16.0800 C   0  0  0  0  0  0  0  0  0  0  0  0
   -9.2100    4.7790  -17.2650 C   0  0  0  0  0  0  0  0  0  0  0  0
   -9.0450    4.6720  -19.4490 H   0  0  0  0  0  0  0  0  0  0  0  0
   -6.9010    6.0820  -19.5860 H   0  0  0  0  0  0  0  0  0  0  0  0
   -5.9160    6.9630  -17.3450 H   0  0  0  0  0  0  0  0  0  0  0  0
   -8.8760    3.4230  -12.4390 H   0  0  0  0  0  0  0  0  0  0  0  0
   -8.9680    5.9020   -7.5870 H   0  0  0  0  0  0  0  0  0  0  0  0
   -9.4820    3.3230   -7.3810 H   0  0  0  0  0  0  0  0  0  0  0  0
   -9.3940    2.3830   -9.7820 H   0  0  0  0  0  0  0  0  0  0  0  0
   -9.9150    4.5540  -14.5260 H   0  0  0  0  0  0  0  0  0  0  0  0
  -10.1120    4.1890  -17.2120 H   0  0  0  0  0  0  0  0  0  0  0  0
  1  2  2  0
  2  3  1  0
  3  4  2  0
  4  5  1  0
  5  6  1  0
  6  7  1  0
  7  8  2  0
  8  9  1  0
  9 10  2  0
 10 11  1  0
 11 12  2  0
 12 13  1  0
 10 14  1  0
 14 15  2  0
  6 16  2  0
 16 17  1  0
 17 18  2  0
 18  1  1  0
 17  4  1  0
 15  7  1  0
 13  9  1  0
  1 19  1  0
  2 20  1  0
  3 21  1  0
  8 22  1  0
 11 23  1  0
 12 24  1  0
 13 25  1  0
 16 26  1  0
 18 27  1  0
A    1
 C1 
A    2
 C2 
A    3
 C3 
A    4
 C4 
A    5
 S1 
A    6
 C5 
A    7
 C6 
A    8
 C7 
A    9
 C8 
A   10
 C9 
A   11
 C10
A   12
 C11
A   13
 N1 
A   14
 N2 
A   15
 N3 
A   16
 C12
A   17
 C13
A   18
 C14
A   19
 H1 
A   20
 H2 
A   21
 H3 
A   22
 H4 
A   23
 H5 
A   24
 H6 
A   25
 H7 
A   26
 H8 
A   27
 H9 
M  END
>  <ref_pdb>  (5) 
x0051_0B

>  <ref_mols>  (5) 
x0404_0B,x0969_0B

>  <original SMILES>  (5) 
[H]c1c([H])c([H])c2c([H])c(-c3nnc4c([H])c([H])n([H])c4c3[H])sc2c1[H]

>  <index>  (5) 
5030

>  <∆∆G>  (5) 
-5.543593

>  <comRMSD>  (5) 
0.216541

>  <N_constrained_atoms>  (5) 
18.0

>  <N_unconstrained_atoms>  (5) 
0.0

>  <LE>  (5) 
0.307977

>  <percent_hybrid>  (5) 
0.0

>  <max_hit_Tanimoto>  (5) 
0.340872

>  <largest_ring>  (5) 
6

>  <N_interactions_kept>  (5) 
0.0

>  <N_interactions_lost>  (5) 
0.0

>  <interaction_uniqueness_metric>  (5) 
0.224722

>  <N_HA>  (5) 
18

>  <N_rotatable_bonds>  (5) 
1

>  <N_interactions>  (5) 
7

>  <N_PAINS>  (5) 
0

>  <UFF_Gibbs>  (5) 
39.56129

>  <strain_per_HA>  (5) 
2.197837

>  <ad_hoc_penalty>  (5) 
-54.868259

>  <cluster>  (5) 
1370

>  <merger_rank>  (5) 
4

>  <pication:ARG:29>  (5) 
0

>  <hbond:HIS:51>  (5) 
0

>  <pistack:HIS:51>  (5) 
2

>  <hydroph_interaction:TYR:161>  (5) 
2

>  <pication:HIS:51>  (5) 
0

>  <hydroph_interaction:ALA:132>  (5) 
1

>  <hydroph_interaction:TYR:150>  (5) 
0

>  <hydroph_interaction:LYS:54>  (5) 
0

>  <hbond:SER:135>  (5) 
0

>  <hydroph_interaction:HIS:51>  (5) 
1

>  <hbond:ASP:83>  (5) 
0

>  <hbond:ALA:132>  (5) 
0

>  <halogenbond:SER:81>  (5) 
0

>  <hbond:GLY:82>  (5) 
0

>  <saltbridge:HIS:51>  (5) 
0

>  <pistack:TYR:161>  (5) 
0

>  <hbond:SER:81>  (5) 
0

>  <hbond:ASN:152>  (5) 
0

>  <hbond:GLY:151>  (5) 
0

>  <hydroph_interaction:ASN:152>  (5) 
0

>  <hbond:TYR:161>  (5) 
0

>  <halogenbond:TYR:150>  (5) 
0

>  <hbond:ASP:75>  (5) 
1

>  <hbond:GLY:153>  (5) 
0

>  <hbond:VAL:36>  (5) 
0

>  <hbond:PRO:131>  (5) 
0

>  <hbond:VAL:52>  (5) 
0

>  <hydroph_interaction:ASP:83>  (5) 
0

>  <hydroph_interaction:MET:49>  (5) 
0

>  <hydroph_interaction:VAL:52>  (5) 
0

>  <saltbridge:ASP:83>  (5) 
0

>  <saltbridge:ASP:75>  (5) 
0

>  <hydroph_interaction:TRP:50>  (5) 
0

>  <hydroph_interaction:VAL:72>  (5) 
0

>  <hydroph_interaction:ASP:75>  (5) 
0

>  <halogenbond:ASN:152>  (5) 
0

>  <halogenbond:GLY:153>  (5) 
0

>  <halogenbond:TYR:130>  (5) 
0

>  <hbond:TYR:130>  (5) 
0

>  <halogenbond:ASP:75>  (5) 
0

>  <halogenbond:GLY:151>  (5) 
0

>  <hbond:TYR:150>  (5) 
0

>  <halogenbond:TYR:161>  (5) 
0

>  <hydroph_interaction:ASP:129>  (5) 
0

>  <hbond:ASP:129>  (5) 
0

>  <halogenbond:ALA:132>  (5) 
0

$$$$
PV-002971326197
     RDKit          3D

 27 29  0  0  0  0  0  0  0  0999 V2000
  -11.7880    3.1750   -4.3870 C   0  0  0  0  0  0  0  0  0  0  0  0
  -10.7020    4.0510   -3.8150 C   0  0  0  0  0  0  0  0  0  0  0  0
   -9.6840    4.4370   -4.8140 C   0  0  0  0  0  0  0  0  0  0  0  0
   -9.7100    4.0360   -6.1430 C   0  0  0  0  0  0  0  0  0  0  0  0
   -8.7290    4.4400   -6.9650 N   0  0  0  0  0  0  0  0  0  0  0  0
   -8.8830    4.3230   -8.3290 C   0  0  0  0  0  0  0  0  0  0  0  0
   -9.1570    3.1810   -9.0090 N   0  0  0  0  0  0  0  0  0  0  0  0
   -9.2020    3.5150  -10.3100 N   0  0  0  0  0  0  0  0  0  0  0  0
   -8.9640    4.8130  -10.3320 C   0  0  0  0  0  0  0  0  0  0  0  0
   -8.8960    5.6730  -11.4090 C   0  0  0  0  0  0  0  0  0  0  0  0
   -8.5930    5.1550  -12.6630 C   0  0  0  0  0  0  0  0  0  0  0  0
   -8.5900    6.2640  -13.5860 C   0  0  0  0  0  0  0  0  0  0  0  0
   -8.8890    7.3860  -12.8470 C   0  0  0  0  0  0  0  0  0  0  0  0
   -9.0680    7.0260  -11.5550 N   0  0  0  0  0  0  0  0  0  0  0  0
   -8.7690    5.2990   -9.0670 O   0  0  0  0  0  0  0  0  0  0  0  0
  -10.7700    3.2160   -6.5660 C   0  0  0  0  0  0  0  0  0  0  0  0
  -11.7680    2.8140   -5.7090 C   0  0  0  0  0  0  0  0  0  0  0  0
  -12.5550    2.8700   -3.6910 H   0  0  0  0  0  0  0  0  0  0  0  0
  -10.6720    4.3660   -2.7750 H   0  0  0  0  0  0  0  0  0  0  0  0
   -8.8650    5.0710   -4.4880 H   0  0  0  0  0  0  0  0  0  0  0  0
   -7.8490    4.6990   -6.5190 H   0  0  0  0  0  0  0  0  0  0  0  0
   -8.3910    4.1290  -12.9530 H   0  0  0  0  0  0  0  0  0  0  0  0
   -8.3920    6.2140  -14.6500 H   0  0  0  0  0  0  0  0  0  0  0  0
   -8.9660    8.3920  -13.2500 H   0  0  0  0  0  0  0  0  0  0  0  0
   -9.2970    7.6610  -10.8020 H   0  0  0  0  0  0  0  0  0  0  0  0
  -10.8360    2.8710   -7.5930 H   0  0  0  0  0  0  0  0  0  0  0  0
  -12.5270    2.1860   -6.1680 H   0  0  0  0  0  0  0  0  0  0  0  0
  1  2  2  0
  2  3  1  0
  3  4  2  0
  4  5  1  0
  5  6  1  0
  6  7  2  0
  7  8  1  0
  8  9  2  0
  9 10  1  0
 10 11  2  0
 11 12  1  0
 12 13  2  0
 13 14  1  0
  9 15  1  0
  4 16  1  0
 16 17  2  0
 17  1  1  0
 15  6  1  0
 14 10  1  0
  1 18  1  0
  2 19  1  0
  3 20  1  0
  5 21  1  0
 11 22  1  0
 12 23  1  0
 13 24  1  0
 14 25  1  0
 16 26  1  0
 17 27  1  0
A    1
 C1 
A    2
 C2 
A    3
 C3 
A    4
 C4 
A    5
 N1 
A    6
 C5 
A    7
 N2 
A    8
 N3 
A    9
 C6 
A   10
 C7 
A   11
 C8 
A   12
 C9 
A   13
 C10
A   14
 N4 
A   15
 O1 
A   16
 C11
A   17
 C12
A   18
 H1 
A   19
 H2 
A   20
 H3 
A   21
 H4 
A   22
 H5 
A   23
 H6 
A   24
 H7 
A   25
 H8 
A   26
 H9 
A   27
 H10
M  END
>  <ref_pdb>  (6) 
x0051_0B

>  <ref_mols>  (6) 
x0404_0B,x0969_0B

>  <original SMILES>  (6) 
[H]c1c([H])c([H])c(N([H])c2nnc(-c3c([H])c([H])c([H])n3[H])o2)c([H])c1[H]

>  <index>  (6) 
5519

>  <∆∆G>  (6) 
-1.845811

>  <comRMSD>  (6) 
0.447145

>  <N_constrained_atoms>  (6) 
12.0

>  <N_unconstrained_atoms>  (6) 
7.0

>  <LE>  (6) 
0.097148

>  <percent_hybrid>  (6) 
0.0

>  <max_hit_Tanimoto>  (6) 
0.266071

>  <largest_ring>  (6) 
6

>  <N_interactions_kept>  (6) 
0.0

>  <N_interactions_lost>  (6) 
0.0

>  <interaction_uniqueness_metric>  (6) 
1.085081

>  <N_HA>  (6) 
17

>  <N_rotatable_bonds>  (6) 
3

>  <N_interactions>  (6) 
8

>  <N_PAINS>  (6) 
0

>  <UFF_Gibbs>  (6) 
57.577845

>  <strain_per_HA>  (6) 
3.386912

>  <ad_hoc_penalty>  (6) 
-54.018221

>  <cluster>  (6) 
1041

>  <merger_rank>  (6) 
1

>  <pication:ARG:29>  (6) 
0

>  <hbond:HIS:51>  (6) 
1

>  <pistack:HIS:51>  (6) 
1

>  <hydroph_interaction:TYR:161>  (6) 
0

>  <pication:HIS:51>  (6) 
0

>  <hydroph_interaction:ALA:132>  (6) 
0

>  <hydroph_interaction:TYR:150>  (6) 
0

>  <hydroph_interaction:LYS:54>  (6) 
0

>  <hbond:SER:135>  (6) 
0

>  <hydroph_interaction:HIS:51>  (6) 
1

>  <hbond:ASP:83>  (6) 
1

>  <hbond:ALA:132>  (6) 
0

>  <halogenbond:SER:81>  (6) 
0

>  <hbond:GLY:82>  (6) 
0

>  <saltbridge:HIS:51>  (6) 
0

>  <pistack:TYR:161>  (6) 
0

>  <hbond:SER:81>  (6) 
0

>  <hbond:ASN:152>  (6) 
0

>  <hbond:GLY:151>  (6) 
0

>  <hydroph_interaction:ASN:152>  (6) 
0

>  <hbond:TYR:161>  (6) 
0

>  <halogenbond:TYR:150>  (6) 
0

>  <hbond:ASP:75>  (6) 
0

>  <hbond:GLY:153>  (6) 
0

>  <hbond:VAL:36>  (6) 
0

>  <hbond:PRO:131>  (6) 
0

>  <hbond:VAL:52>  (6) 
0

>  <hydroph_interaction:ASP:83>  (6) 
0

>  <hydroph_interaction:MET:49>  (6) 
0

>  <hydroph_interaction:VAL:52>  (6) 
0

>  <saltbridge:ASP:83>  (6) 
0

>  <saltbridge:ASP:75>  (6) 
0

>  <hydroph_interaction:TRP:50>  (6) 
2

>  <hydroph_interaction:VAL:72>  (6) 
1

>  <hydroph_interaction:ASP:75>  (6) 
1

>  <halogenbond:ASN:152>  (6) 
0

>  <halogenbond:GLY:153>  (6) 
0

>  <halogenbond:TYR:130>  (6) 
0

>  <hbond:TYR:130>  (6) 
0

>  <halogenbond:ASP:75>  (6) 
0

>  <halogenbond:GLY:151>  (6) 
0

>  <hbond:TYR:150>  (6) 
0

>  <halogenbond:TYR:161>  (6) 
0

>  <hydroph_interaction:ASP:129>  (6) 
0

>  <hbond:ASP:129>  (6) 
0

>  <halogenbond:ALA:132>  (6) 
0

$$$$
PV-002738234462
     RDKit          3D

 28 30  0  0  0  0  0  0  0  0999 V2000
   -8.9820    4.4690   -8.3620 C   0  0  0  0  0  0  0  0  0  0  0  0
   -9.0620    5.7300   -9.0300 O   0  0  0  0  0  0  0  0  0  0  0  0
   -8.9500    5.6920  -10.3910 C   0  0  0  0  0  0  0  0  0  0  0  0
   -9.4740    6.8110  -11.1490 C   0  0  0  0  0  0  0  0  0  0  0  0
   -9.2550    6.5660  -12.5970 C   0  0  0  0  0  0  0  0  0  0  0  0
   -8.6250    5.4270  -13.2440 C   0  0  0  0  0  0  0  0  0  0  0  0
   -8.5110    5.3920  -14.7580 C   0  0  0  0  0  0  0  0  0  0  0  0
   -7.1320    5.5740  -15.3120 C   0  0  0  0  0  0  0  0  0  0  0  0
   -7.1030    5.5100  -16.7620 C   0  0  0  0  0  0  0  0  0  0  0  0
   -8.2620    5.2990  -17.4780 C   0  0  0  0  0  0  0  0  0  0  0  0
   -7.9600    5.2780  -18.8670 C   0  0  0  0  0  0  0  0  0  0  0  0
   -6.6170    5.4740  -19.0290 C   0  0  0  0  0  0  0  0  0  0  0  0
   -6.0740    5.6230  -17.6620 N   0  0  0  0  0  0  0  0  0  0  0  0
   -9.5120    5.1390  -16.9110 N   0  0  0  0  0  0  0  0  0  0  0  0
   -9.6090    5.1920  -15.5340 N   0  0  0  0  0  0  0  0  0  0  0  0
   -8.1720    4.4460  -12.3930 C   0  0  0  0  0  0  0  0  0  0  0  0
   -7.5700    3.3470  -12.8550 F   0  0  0  0  0  0  0  0  0  0  0  0
   -8.3270    4.5670  -11.0150 C   0  0  0  0  0  0  0  0  0  0  0  0
   -9.6360    4.4300   -7.5000 H   0  0  0  0  0  0  0  0  0  0  0  0
   -9.2410    3.6320   -9.0210 H   0  0  0  0  0  0  0  0  0  0  0  0
   -7.9550    4.3340   -8.0180 H   0  0  0  0  0  0  0  0  0  0  0  0
   -9.9540    7.6910  -10.7390 H   0  0  0  0  0  0  0  0  0  0  0  0
   -9.6170    7.3510  -13.2720 H   0  0  0  0  0  0  0  0  0  0  0  0
   -6.2370    5.7310  -14.6990 H   0  0  0  0  0  0  0  0  0  0  0  0
   -8.6660    5.1340  -19.6740 H   0  0  0  0  0  0  0  0  0  0  0  0
   -5.9690    5.5320  -19.8910 H   0  0  0  0  0  0  0  0  0  0  0  0
   -5.1050    5.7830  -17.4260 H   0  0  0  0  0  0  0  0  0  0  0  0
   -7.9430    3.7460  -10.4190 H   0  0  0  0  0  0  0  0  0  0  0  0
  1  2  1  0
  2  3  1  0
  3  4  2  0
  4  5  1  0
  5  6  2  0
  6  7  1  0
  7  8  2  0
  8  9  1  0
  9 10  2  0
 10 11  1  0
 11 12  2  0
 12 13  1  0
 10 14  1  0
 14 15  2  0
  6 16  1  0
 16 17  1  0
 16 18  2  0
 18  3  1  0
 15  7  1  0
 13  9  1  0
  1 19  1  0
  1 20  1  0
  1 21  1  0
  4 22  1  0
  5 23  1  0
  8 24  1  0
 11 25  1  0
 12 26  1  0
 13 27  1  0
 18 28  1  0
A    1
 C1 
A    2
 O1 
A    3
 C2 
A    4
 C3 
A    5
 C4 
A    6
 C5 
A    7
 C6 
A    8
 C7 
A    9
 C8 
A   10
 C9 
A   11
 C10
A   12
 C11
A   13
 N1 
A   14
 N2 
A   15
 N3 
A   16
 C12
A   17
 F1 
A   18
 C13
A   19
 H1 
A   20
 H2 
A   21
 H3 
A   22
 H4 
A   23
 H5 
A   24
 H6 
A   25
 H7 
A   26
 H8 
A   27
 H9 
A   28
 H10
M  END
>  <ref_pdb>  (7) 
x0051_0B

>  <ref_mols>  (7) 
x0404_0B,x0969_0B

>  <original SMILES>  (7) 
[H]c1c([H])c(-c2nnc3c([H])c([H])n([H])c3c2[H])c(F)c([H])c1OC([H])([H])[H]

>  <index>  (7) 
3211

>  <∆∆G>  (7) 
-5.47096

>  <comRMSD>  (7) 
0.244693

>  <N_constrained_atoms>  (7) 
17.0

>  <N_unconstrained_atoms>  (7) 
1.0

>  <LE>  (7) 
0.303942

>  <percent_hybrid>  (7) 
0.0

>  <max_hit_Tanimoto>  (7) 
0.320755

>  <largest_ring>  (7) 
6

>  <N_interactions_kept>  (7) 
0.0

>  <N_interactions_lost>  (7) 
0.0

>  <interaction_uniqueness_metric>  (7) 
1.087101

>  <N_HA>  (7) 
18

>  <N_rotatable_bonds>  (7) 
3

>  <N_interactions>  (7) 
5

>  <N_PAINS>  (7) 
0

>  <UFF_Gibbs>  (7) 
69.095357

>  <strain_per_HA>  (7) 
3.83861

>  <ad_hoc_penalty>  (7) 
-53.537045

>  <cluster>  (7) 
228

>  <merger_rank>  (7) 
1

>  <pication:ARG:29>  (7) 
0

>  <hbond:HIS:51>  (7) 
0

>  <pistack:HIS:51>  (7) 
1

>  <hydroph_interaction:TYR:161>  (7) 
0

>  <pication:HIS:51>  (7) 
0

>  <hydroph_interaction:ALA:132>  (7) 
0

>  <hydroph_interaction:TYR:150>  (7) 
0

>  <hydroph_interaction:LYS:54>  (7) 
0

>  <hbond:SER:135>  (7) 
1

>  <hydroph_interaction:HIS:51>  (7) 
1

>  <hbond:ASP:83>  (7) 
0

>  <hbond:ALA:132>  (7) 
0

>  <halogenbond:SER:81>  (7) 
0

>  <hbond:GLY:82>  (7) 
0

>  <saltbridge:HIS:51>  (7) 
0

>  <pistack:TYR:161>  (7) 
1

>  <hbond:SER:81>  (7) 
0

>  <hbond:ASN:152>  (7) 
0

>  <hbond:GLY:151>  (7) 
0

>  <hydroph_interaction:ASN:152>  (7) 
0

>  <hbond:TYR:161>  (7) 
0

>  <halogenbond:TYR:150>  (7) 
0

>  <hbond:ASP:75>  (7) 
0

>  <hbond:GLY:153>  (7) 
0

>  <hbond:VAL:36>  (7) 
0

>  <hbond:PRO:131>  (7) 
0

>  <hbond:VAL:52>  (7) 
0

>  <hydroph_interaction:ASP:83>  (7) 
0

>  <hydroph_interaction:MET:49>  (7) 
0

>  <hydroph_interaction:VAL:52>  (7) 
0

>  <saltbridge:ASP:83>  (7) 
0

>  <saltbridge:ASP:75>  (7) 
0

>  <hydroph_interaction:TRP:50>  (7) 
0

>  <hydroph_interaction:VAL:72>  (7) 
0

>  <hydroph_interaction:ASP:75>  (7) 
0

>  <halogenbond:ASN:152>  (7) 
0

>  <halogenbond:GLY:153>  (7) 
0

>  <halogenbond:TYR:130>  (7) 
0

>  <hbond:TYR:130>  (7) 
0

>  <halogenbond:ASP:75>  (7) 
0

>  <halogenbond:GLY:151>  (7) 
0

>  <hbond:TYR:150>  (7) 
0

>  <halogenbond:TYR:161>  (7) 
1

>  <hydroph_interaction:ASP:129>  (7) 
0

>  <hbond:ASP:129>  (7) 
0

>  <halogenbond:ALA:132>  (7) 
0

$$$$
PV-003666568040
     RDKit          3D

 26 28  0  0  0  0  0  0  0  0999 V2000
  -11.9690    3.0210   -4.3770 C   0  0  0  0  0  0  0  0  0  0  0  0
  -10.9240    3.8580   -3.6520 C   0  0  0  0  0  0  0  0  0  0  0  0
   -9.7780    4.3170   -4.5600 C   0  0  0  0  0  0  0  0  0  0  0  0
   -9.8310    3.8830   -6.0040 C   0  0  0  0  0  0  0  0  0  0  0  0
   -8.8210    4.2400   -6.8870 N   0  0  0  0  0  0  0  0  0  0  0  0
   -8.9440    4.2500   -8.3480 C   0  0  0  0  0  0  0  0  0  0  0  0
   -9.1930    3.1250   -9.0360 N   0  0  0  0  0  0  0  0  0  0  0  0
   -9.1780    3.6900  -10.2710 N   0  0  0  0  0  0  0  0  0  0  0  0
   -8.9490    4.9890  -10.2270 C   0  0  0  0  0  0  0  0  0  0  0  0
   -8.9060    5.6900  -11.4080 C   0  0  0  0  0  0  0  0  0  0  0  0
   -9.1640    7.0450  -11.5420 C   0  0  0  0  0  0  0  0  0  0  0  0
   -9.0490    7.5270  -12.8660 C   0  0  0  0  0  0  0  0  0  0  0  0
   -8.6570    6.3740  -13.8210 C   0  0  0  0  0  0  0  0  0  0  0  0
   -8.5080    4.9270  -12.9070 S   0  0  0  0  0  0  0  0  0  0  0  0
   -8.7980    5.3590   -8.9350 O   0  0  0  0  0  0  0  0  0  0  0  0
  -10.8920    3.1000   -6.5060 C   0  0  0  0  0  0  0  0  0  0  0  0
  -11.9330    2.6790   -5.7200 C   0  0  0  0  0  0  0  0  0  0  0  0
  -12.7760    2.7030   -3.7350 H   0  0  0  0  0  0  0  0  0  0  0  0
  -10.9890    4.1080   -2.5980 H   0  0  0  0  0  0  0  0  0  0  0  0
   -8.9760    4.9180   -4.1500 H   0  0  0  0  0  0  0  0  0  0  0  0
   -8.2430    5.0000   -6.5370 H   0  0  0  0  0  0  0  0  0  0  0  0
   -9.4310    7.6820  -10.7030 H   0  0  0  0  0  0  0  0  0  0  0  0
   -9.2150    8.5570  -13.1670 H   0  0  0  0  0  0  0  0  0  0  0  0
   -8.4920    6.4150  -14.8900 H   0  0  0  0  0  0  0  0  0  0  0  0
  -10.8290    2.8440   -7.5550 H   0  0  0  0  0  0  0  0  0  0  0  0
  -12.7650    2.0860   -6.0470 H   0  0  0  0  0  0  0  0  0  0  0  0
  1  2  2  0
  2  3  1  0
  3  4  2  0
  4  5  1  0
  5  6  1  0
  6  7  2  0
  7  8  1  0
  8  9  2  0
  9 10  1  0
 10 11  2  0
 11 12  1  0
 12 13  2  0
 13 14  1  0
  9 15  1  0
  4 16  1  0
 16 17  2  0
 17  1  1  0
 15  6  1  0
 14 10  1  0
  1 18  1  0
  2 19  1  0
  3 20  1  0
  5 21  1  0
 11 22  1  0
 12 23  1  0
 13 24  1  0
 16 25  1  0
 17 26  1  0
A    1
 C1 
A    2
 C2 
A    3
 C3 
A    4
 C4 
A    5
 N1 
A    6
 C5 
A    7
 N2 
A    8
 N3 
A    9
 C6 
A   10
 C7 
A   11
 C8 
A   12
 C9 
A   13
 C10
A   14
 S1 
A   15
 O1 
A   16
 C11
A   17
 C12
A   18
 H1 
A   19
 H2 
A   20
 H3 
A   21
 H4 
A   22
 H5 
A   23
 H6 
A   24
 H7 
A   25
 H8 
A   26
 H9 
M  END
>  <ref_pdb>  (8) 
x0051_0B

>  <ref_mols>  (8) 
x0404_0B,x0969_0B

>  <original SMILES>  (8) 
[H]c1sc(-c2nnc(N([H])c3c([H])c([H])c([H])c([H])c3[H])o2)c([H])c1[H]

>  <index>  (8) 
5518

>  <∆∆G>  (8) 
-1.892587

>  <comRMSD>  (8) 
0.387613

>  <N_constrained_atoms>  (8) 
12.0

>  <N_unconstrained_atoms>  (8) 
7.0

>  <LE>  (8) 
0.09961

>  <percent_hybrid>  (8) 
0.0

>  <max_hit_Tanimoto>  (8) 
0.276173

>  <largest_ring>  (8) 
6

>  <N_interactions_kept>  (8) 
0.0

>  <N_interactions_lost>  (8) 
0.0

>  <interaction_uniqueness_metric>  (8) 
1.085081

>  <N_HA>  (8) 
17

>  <N_rotatable_bonds>  (8) 
3

>  <N_interactions>  (8) 
8

>  <N_PAINS>  (8) 
0

>  <UFF_Gibbs>  (8) 
83.876573

>  <strain_per_HA>  (8) 
4.933887

>  <ad_hoc_penalty>  (8) 
-52.621677

>  <cluster>  (8) 
1042

>  <merger_rank>  (8) 
2

>  <pication:ARG:29>  (8) 
0

>  <hbond:HIS:51>  (8) 
1

>  <pistack:HIS:51>  (8) 
1

>  <hydroph_interaction:TYR:161>  (8) 
0

>  <pication:HIS:51>  (8) 
0

>  <hydroph_interaction:ALA:132>  (8) 
0

>  <hydroph_interaction:TYR:150>  (8) 
0

>  <hydroph_interaction:LYS:54>  (8) 
0

>  <hbond:SER:135>  (8) 
0

>  <hydroph_interaction:HIS:51>  (8) 
1

>  <hbond:ASP:83>  (8) 
1

>  <hbond:ALA:132>  (8) 
0

>  <halogenbond:SER:81>  (8) 
0

>  <hbond:GLY:82>  (8) 
0

>  <saltbridge:HIS:51>  (8) 
0

>  <pistack:TYR:161>  (8) 
0

>  <hbond:SER:81>  (8) 
0

>  <hbond:ASN:152>  (8) 
0

>  <hbond:GLY:151>  (8) 
0

>  <hydroph_interaction:ASN:152>  (8) 
0

>  <hbond:TYR:161>  (8) 
0

>  <halogenbond:TYR:150>  (8) 
0

>  <hbond:ASP:75>  (8) 
0

>  <hbond:GLY:153>  (8) 
0

>  <hbond:VAL:36>  (8) 
0

>  <hbond:PRO:131>  (8) 
0

>  <hbond:VAL:52>  (8) 
0

>  <hydroph_interaction:ASP:83>  (8) 
0

>  <hydroph_interaction:MET:49>  (8) 
0

>  <hydroph_interaction:VAL:52>  (8) 
0

>  <saltbridge:ASP:83>  (8) 
0

>  <saltbridge:ASP:75>  (8) 
0

>  <hydroph_interaction:TRP:50>  (8) 
2

>  <hydroph_interaction:VAL:72>  (8) 
1

>  <hydroph_interaction:ASP:75>  (8) 
1

>  <halogenbond:ASN:152>  (8) 
0

>  <halogenbond:GLY:153>  (8) 
0

>  <halogenbond:TYR:130>  (8) 
0

>  <hbond:TYR:130>  (8) 
0

>  <halogenbond:ASP:75>  (8) 
0

>  <halogenbond:GLY:151>  (8) 
0

>  <hbond:TYR:150>  (8) 
0

>  <halogenbond:TYR:161>  (8) 
0

>  <hydroph_interaction:ASP:129>  (8) 
0

>  <hbond:ASP:129>  (8) 
0

>  <halogenbond:ALA:132>  (8) 
0

$$$$
Z46029286
     RDKit          3D

 30 31  0  0  0  0  0  0  0  0999 V2000
   -7.4050    3.7580   -7.5930 C   0  0  0  0  0  0  0  0  0  0  0  0
   -8.0650    4.0580   -8.8710 C   0  0  0  0  0  0  0  0  0  0  0  0
   -9.0810    3.3060   -9.4540 C   0  0  0  0  0  0  0  0  0  0  0  0
   -9.6280    3.7640  -10.7110 C   0  0  0  0  0  0  0  0  0  0  0  0
   -9.1070    4.9330  -11.2680 C   0  0  0  0  0  0  0  0  0  0  0  0
   -9.5490    5.5240  -12.4990 C   0  0  0  0  0  0  0  0  0  0  0  0
  -10.8780    5.8430  -12.6840 O   0  0  0  0  0  0  0  0  0  0  0  0
   -8.6890    5.7950  -13.5920 C   0  0  0  0  0  0  0  0  0  0  0  0
   -8.9870    5.3610  -14.8580 C   0  0  0  0  0  0  0  0  0  0  0  0
   -8.1590    5.5630  -16.0730 C   0  0  0  0  0  0  0  0  0  0  0  0
   -8.7200    5.0410  -17.2360 C   0  0  0  0  0  0  0  0  0  0  0  0
   -7.8790    5.2540  -18.4220 C   0  0  0  0  0  0  0  0  0  0  0  0
   -6.6700    5.8980  -18.3910 C   0  0  0  0  0  0  0  0  0  0  0  0
   -6.1630    6.3900  -17.2360 N   0  0  0  0  0  0  0  0  0  0  0  0
   -6.9180    6.2090  -16.1110 C   0  0  0  0  0  0  0  0  0  0  0  0
   -8.0890    5.6420  -10.6580 C   0  0  0  0  0  0  0  0  0  0  0  0
   -7.5770    5.2070   -9.4710 C   0  0  0  0  0  0  0  0  0  0  0  0
   -6.3250    3.6370   -7.7380 H   0  0  0  0  0  0  0  0  0  0  0  0
   -7.5630    4.5640   -6.8740 H   0  0  0  0  0  0  0  0  0  0  0  0
   -7.8090    2.8330   -7.1660 H   0  0  0  0  0  0  0  0  0  0  0  0
   -9.4470    2.4110   -8.9700 H   0  0  0  0  0  0  0  0  0  0  0  0
  -10.4220    3.2180  -11.2040 H   0  0  0  0  0  0  0  0  0  0  0  0
   -7.7820    6.3500  -13.3980 H   0  0  0  0  0  0  0  0  0  0  0  0
   -9.9190    4.8180  -14.9320 H   0  0  0  0  0  0  0  0  0  0  0  0
   -9.6760    4.5270  -17.2840 H   0  0  0  0  0  0  0  0  0  0  0  0
   -8.2310    4.8820  -19.3780 H   0  0  0  0  0  0  0  0  0  0  0  0
   -6.0720    6.0410  -19.2800 H   0  0  0  0  0  0  0  0  0  0  0  0
   -6.4750    6.6170  -15.2130 H   0  0  0  0  0  0  0  0  0  0  0  0
   -7.6960    6.5480  -11.1140 H   0  0  0  0  0  0  0  0  0  0  0  0
   -6.7820    5.7780   -8.9980 H   0  0  0  0  0  0  0  0  0  0  0  0
  1  2  1  0
  2  3  2  0
  3  4  1  0
  4  5  2  0
  5  6  1  0
  6  7  2  0
  6  8  1  0
  8  9  2  3
  9 10  1  0
 10 11  2  0
 11 12  1  0
 12 13  2  0
 13 14  1  0
 14 15  2  0
  5 16  1  0
 16 17  2  0
 17  2  1  0
 15 10  1  0
  1 18  1  0
  1 19  1  0
  1 20  1  0
  3 21  1  0
  4 22  1  0
  8 23  1  0
  9 24  1  0
 11 25  1  0
 12 26  1  0
 13 27  1  0
 15 28  1  0
 16 29  1  0
 17 30  1  0
A    1
 C1 
A    2
 C2 
A    3
 C3 
A    4
 C4 
A    5
 C5 
A    6
 C6 
A    7
 O1 
A    8
 C7 
A    9
 C8 
A   10
 C9 
A   11
 C10
A   12
 C11
A   13
 C12
A   14
 N1 
A   15
 C13
A   16
 C14
A   17
 C15
A   18
 H1 
A   19
 H2 
A   20
 H3 
A   21
 H4 
A   22
 H5 
A   23
 H6 
A   24
 H7 
A   25
 H8 
A   26
 H9 
A   27
 H10
A   28
 H11
A   29
 H12
A   30
 H13
M  END
>  <ref_pdb>  (9) 
x0051_0B

>  <ref_mols>  (9) 
x0404_0B,x0969_0B

>  <original SMILES>  (9) 
[H]C(C(=O)c1c([H])c([H])c(C([H])([H])[H])c([H])c1[H])=C([H])c1c([H])nc([H])c([H])c1[H]

>  <index>  (9) 
3344

>  <∆∆G>  (9) 
-6.014381

>  <comRMSD>  (9) 
0.32543

>  <N_constrained_atoms>  (9) 
16.0

>  <N_unconstrained_atoms>  (9) 
1.0

>  <LE>  (9) 
0.353787

>  <percent_hybrid>  (9) 
0.0

>  <max_hit_Tanimoto>  (9) 
0.708447

>  <largest_ring>  (9) 
6

>  <N_interactions_kept>  (9) 
0.0

>  <N_interactions_lost>  (9) 
0.0

>  <interaction_uniqueness_metric>  (9) 
0.249576

>  <N_HA>  (9) 
17

>  <N_rotatable_bonds>  (9) 
4

>  <N_interactions>  (9) 
8

>  <N_PAINS>  (9) 
0

>  <UFF_Gibbs>  (9) 
42.60068

>  <strain_per_HA>  (9) 
2.505908

>  <ad_hoc_penalty>  (9) 
-51.937204

>  <cluster>  (9) 
4

>  <merger_rank>  (9) 
1

>  <pication:ARG:29>  (9) 
0

>  <hbond:HIS:51>  (9) 
0

>  <pistack:HIS:51>  (9) 
1

>  <hydroph_interaction:TYR:161>  (9) 
2

>  <pication:HIS:51>  (9) 
0

>  <hydroph_interaction:ALA:132>  (9) 
1

>  <hydroph_interaction:TYR:150>  (9) 
0

>  <hydroph_interaction:LYS:54>  (9) 
0

>  <hbond:SER:135>  (9) 
2

>  <hydroph_interaction:HIS:51>  (9) 
1

>  <hbond:ASP:83>  (9) 
0

>  <hbond:ALA:132>  (9) 
0

>  <halogenbond:SER:81>  (9) 
0

>  <hbond:GLY:82>  (9) 
0

>  <saltbridge:HIS:51>  (9) 
0

>  <pistack:TYR:161>  (9) 
0

>  <hbond:SER:81>  (9) 
0

>  <hbond:ASN:152>  (9) 
0

>  <hbond:GLY:151>  (9) 
0

>  <hydroph_interaction:ASN:152>  (9) 
0

>  <hbond:TYR:161>  (9) 
0

>  <halogenbond:TYR:150>  (9) 
0

>  <hbond:ASP:75>  (9) 
0

>  <hbond:GLY:153>  (9) 
0

>  <hbond:VAL:36>  (9) 
0

>  <hbond:PRO:131>  (9) 
0

>  <hbond:VAL:52>  (9) 
0

>  <hydroph_interaction:ASP:83>  (9) 
1

>  <hydroph_interaction:MET:49>  (9) 
0

>  <hydroph_interaction:VAL:52>  (9) 
0

>  <saltbridge:ASP:83>  (9) 
0

>  <saltbridge:ASP:75>  (9) 
0

>  <hydroph_interaction:TRP:50>  (9) 
0

>  <hydroph_interaction:VAL:72>  (9) 
0

>  <hydroph_interaction:ASP:75>  (9) 
0

>  <halogenbond:ASN:152>  (9) 
0

>  <halogenbond:GLY:153>  (9) 
0

>  <halogenbond:TYR:130>  (9) 
0

>  <hbond:TYR:130>  (9) 
0

>  <halogenbond:ASP:75>  (9) 
0

>  <halogenbond:GLY:151>  (9) 
0

>  <hbond:TYR:150>  (9) 
0

>  <halogenbond:TYR:161>  (9) 
0

>  <hydroph_interaction:ASP:129>  (9) 
0

>  <hbond:ASP:129>  (9) 
0

>  <halogenbond:ALA:132>  (9) 
0

$$$$
PV-002345302973
     RDKit          3D

 28 31  0  0  0  0  0  0  0  0999 V2000
   -7.1290    4.8210  -18.5090 C   0  0  0  0  0  0  0  0  0  0  0  0
   -8.5240    4.7160  -17.9760 C   0  0  0  0  0  0  0  0  0  0  0  0
   -8.7560    5.4320  -16.7210 C   0  0  0  0  0  0  0  0  0  0  0  0
   -9.9470    5.3830  -16.2070 N   0  0  0  0  0  0  0  0  0  0  0  0
  -10.1410    6.0890  -15.0490 C   0  0  0  0  0  0  0  0  0  0  0  0
   -9.1130    6.7740  -14.5220 C   0  0  0  0  0  0  0  0  0  0  0  0
   -9.5590    7.6410  -13.0680 S   0  0  0  0  0  0  0  0  0  0  0  0
   -9.1280    6.3210  -12.0600 C   0  0  0  0  0  0  0  0  0  0  0  0
   -8.4600    6.5340  -10.9380 N   0  0  0  0  0  0  0  0  0  0  0  0
   -8.2820    5.3210  -10.3570 C   0  0  0  0  0  0  0  0  0  0  0  0
   -7.6270    5.2190   -9.1910 N   0  0  0  0  0  0  0  0  0  0  0  0
   -7.5240    3.9650   -8.6960 C   0  0  0  0  0  0  0  0  0  0  0  0
   -8.0300    2.8230   -9.2810 C   0  0  0  0  0  0  0  0  0  0  0  0
   -8.6850    2.9270  -10.4660 C   0  0  0  0  0  0  0  0  0  0  0  0
   -8.8140    4.1890  -11.0260 C   0  0  0  0  0  0  0  0  0  0  0  0
   -9.5320    4.7070  -12.4650 S   0  0  0  0  0  0  0  0  0  0  0  0
   -7.8720    6.8400  -14.9880 N   0  0  0  0  0  0  0  0  0  0  0  0
   -7.6870    6.1550  -16.1170 C   0  0  0  0  0  0  0  0  0  0  0  0
   -6.4250    6.1760  -16.6870 C   0  0  0  0  0  0  0  0  0  0  0  0
   -6.1440    5.5270  -17.8560 C   0  0  0  0  0  0  0  0  0  0  0  0
   -6.9750    4.2870  -19.4510 H   0  0  0  0  0  0  0  0  0  0  0  0
   -9.3240    4.1600  -18.4630 H   0  0  0  0  0  0  0  0  0  0  0  0
  -11.1140    6.0880  -14.5830 H   0  0  0  0  0  0  0  0  0  0  0  0
   -6.9910    3.9010   -7.7510 H   0  0  0  0  0  0  0  0  0  0  0  0
   -7.9010    1.8610   -8.8040 H   0  0  0  0  0  0  0  0  0  0  0  0
   -9.0930    2.0540  -10.9620 H   0  0  0  0  0  0  0  0  0  0  0  0
   -5.6380    6.7350  -16.1860 H   0  0  0  0  0  0  0  0  0  0  0  0
   -5.1400    5.5720  -18.2730 H   0  0  0  0  0  0  0  0  0  0  0  0
  1  2  2  0
  2  3  1  0
  3  4  2  0
  4  5  1  0
  5  6  2  0
  6  7  1  0
  7  8  1  0
  8  9  2  0
  9 10  1  0
 10 11  2  0
 11 12  1  0
 12 13  2  0
 13 14  1  0
 14 15  2  0
 15 16  1  0
  6 17  1  0
 17 18  2  0
 18 19  1  0
 19 20  2  0
 20  1  1  0
 18  3  1  0
 16  8  1  0
 15 10  1  0
  1 21  1  0
  2 22  1  0
  5 23  1  0
 12 24  1  0
 13 25  1  0
 14 26  1  0
 19 27  1  0
 20 28  1  0
A    1
 C1 
A    2
 C2 
A    3
 C3 
A    4
 N1 
A    5
 C4 
A    6
 C5 
A    7
 S1 
A    8
 C6 
A    9
 N2 
A   10
 C7 
A   11
 N3 
A   12
 C8 
A   13
 C9 
A   14
 C10
A   15
 C11
A   16
 S2 
A   17
 N4 
A   18
 C12
A   19
 C13
A   20
 C14
A   21
 H1 
A   22
 H2 
A   23
 H3 
A   24
 H4 
A   25
 H5 
A   26
 H6 
A   27
 H7 
A   28
 H8 
M  END
>  <ref_pdb>  (10) 
x0051_0B

>  <ref_mols>  (10) 
x0404_0B,x0969_0B

>  <original SMILES>  (10) 
[H]c1nc2c([H])c([H])c([H])c([H])c2nc1Sc1nc2nc([H])c([H])c([H])c2s1

>  <index>  (10) 
4070

>  <∆∆G>  (10) 
-5.516415

>  <comRMSD>  (10) 
0.854938

>  <N_constrained_atoms>  (10) 
19.0

>  <N_unconstrained_atoms>  (10) 
1.0

>  <LE>  (10) 
0.275821

>  <percent_hybrid>  (10) 
0.0

>  <max_hit_Tanimoto>  (10) 
0.678082

>  <largest_ring>  (10) 
6

>  <N_interactions_kept>  (10) 
0.0

>  <N_interactions_lost>  (10) 
0.0

>  <interaction_uniqueness_metric>  (10) 
0.199516

>  <N_HA>  (10) 
20

>  <N_rotatable_bonds>  (10) 
2

>  <N_interactions>  (10) 
7

>  <N_PAINS>  (10) 
0

>  <UFF_Gibbs>  (10) 
50.388812

>  <strain_per_HA>  (10) 
2.519428

>  <ad_hoc_penalty>  (10) 
-50.998219

>  <cluster>  (10) 
2001

>  <merger_rank>  (10) 
1

>  <pication:ARG:29>  (10) 
0

>  <hbond:HIS:51>  (10) 
0

>  <pistack:HIS:51>  (10) 
2

>  <hydroph_interaction:TYR:161>  (10) 
3

>  <pication:HIS:51>  (10) 
0

>  <hydroph_interaction:ALA:132>  (10) 
1

>  <hydroph_interaction:TYR:150>  (10) 
0

>  <hydroph_interaction:LYS:54>  (10) 
0

>  <hbond:SER:135>  (10) 
0

>  <hydroph_interaction:HIS:51>  (10) 
0

>  <hbond:ASP:83>  (10) 
0

>  <hbond:ALA:132>  (10) 
0

>  <halogenbond:SER:81>  (10) 
0

>  <hbond:GLY:82>  (10) 
0

>  <saltbridge:HIS:51>  (10) 
0

>  <pistack:TYR:161>  (10) 
0

>  <hbond:SER:81>  (10) 
0

>  <hbond:ASN:152>  (10) 
0

>  <hbond:GLY:151>  (10) 
0

>  <hydroph_interaction:ASN:152>  (10) 
0

>  <hbond:TYR:161>  (10) 
0

>  <halogenbond:TYR:150>  (10) 
0

>  <hbond:ASP:75>  (10) 
0

>  <hbond:GLY:153>  (10) 
0

>  <hbond:VAL:36>  (10) 
0

>  <hbond:PRO:131>  (10) 
0

>  <hbond:VAL:52>  (10) 
0

>  <hydroph_interaction:ASP:83>  (10) 
1

>  <hydroph_interaction:MET:49>  (10) 
0

>  <hydroph_interaction:VAL:52>  (10) 
0

>  <saltbridge:ASP:83>  (10) 
0

>  <saltbridge:ASP:75>  (10) 
0

>  <hydroph_interaction:TRP:50>  (10) 
0

>  <hydroph_interaction:VAL:72>  (10) 
0

>  <hydroph_interaction:ASP:75>  (10) 
0

>  <halogenbond:ASN:152>  (10) 
0

>  <halogenbond:GLY:153>  (10) 
0

>  <halogenbond:TYR:130>  (10) 
0

>  <hbond:TYR:130>  (10) 
0

>  <halogenbond:ASP:75>  (10) 
0

>  <halogenbond:GLY:151>  (10) 
0

>  <hbond:TYR:150>  (10) 
0

>  <halogenbond:TYR:161>  (10) 
0

>  <hydroph_interaction:ASP:129>  (10) 
0

>  <hbond:ASP:129>  (10) 
0

>  <halogenbond:ALA:132>  (10) 
0

$$$$
Z1557306409
     RDKit          3D

 29 31  0  0  0  0  0  0  0  0999 V2000
   -7.2660    7.5570  -15.1200 O   0  0  0  0  0  0  0  0  0  0  0  0
   -8.0170    6.6220  -14.8580 C   0  0  0  0  0  0  0  0  0  0  0  0
   -8.6780    5.9130  -15.8560 N   0  0  0  0  0  0  0  0  0  0  0  0
   -7.9750    5.1620  -16.8560 C   0  0  0  0  0  0  0  0  0  0  0  0
   -6.9540    5.8420  -17.5750 C   0  0  0  0  0  0  0  0  0  0  0  0
   -7.1000    5.4080  -18.9280 C   0  0  0  0  0  0  0  0  0  0  0  0
   -8.2340    4.6810  -18.9520 C   0  0  0  0  0  0  0  0  0  0  0  0
   -8.9420    4.5040  -17.8400 C   0  0  0  0  0  0  0  0  0  0  0  0
   -8.2880    6.1430  -13.5090 C   0  0  0  0  0  0  0  0  0  0  0  0
   -8.4680    4.8640  -13.2100 N   0  0  0  0  0  0  0  0  0  0  0  0
   -8.6830    4.6260  -11.9470 C   0  0  0  0  0  0  0  0  0  0  0  0
   -8.9160    3.2980  -11.3120 C   0  0  0  0  0  0  0  0  0  0  0  0
   -9.1050    3.4140   -9.9240 C   0  0  0  0  0  0  0  0  0  0  0  0
   -9.0710    4.7180   -9.1960 C   0  0  0  0  0  0  0  0  0  0  0  0
   -8.8550    5.9190   -9.8470 C   0  0  0  0  0  0  0  0  0  0  0  0
   -8.6720    5.7940  -11.2050 C   0  0  0  0  0  0  0  0  0  0  0  0
   -8.3910    7.1900  -12.1580 S   0  0  0  0  0  0  0  0  0  0  0  0
   -9.6320    5.6320  -15.6860 H   0  0  0  0  0  0  0  0  0  0  0  0
   -7.4870    4.3460  -16.3240 H   0  0  0  0  0  0  0  0  0  0  0  0
   -5.9990    5.4950  -17.1940 H   0  0  0  0  0  0  0  0  0  0  0  0
   -6.9070    6.9070  -17.4160 H   0  0  0  0  0  0  0  0  0  0  0  0
   -6.4450    5.6170  -19.7640 H   0  0  0  0  0  0  0  0  0  0  0  0
   -8.5580    4.2410  -19.9040 H   0  0  0  0  0  0  0  0  0  0  0  0
   -9.2500    3.5310  -17.4560 H   0  0  0  0  0  0  0  0  0  0  0  0
   -9.8630    5.0950  -17.9080 H   0  0  0  0  0  0  0  0  0  0  0  0
   -8.9340    2.3640  -11.8560 H   0  0  0  0  0  0  0  0  0  0  0  0
   -9.2910    2.5560   -9.2670 H   0  0  0  0  0  0  0  0  0  0  0  0
   -9.2240    4.7210   -8.1180 H   0  0  0  0  0  0  0  0  0  0  0  0
   -8.8360    6.8600   -9.3170 H   0  0  0  0  0  0  0  0  0  0  0  0
  1  2  2  0
  2  3  1  0
  3  4  1  0
  4  5  1  0
  5  6  1  0
  6  7  2  0
  7  8  1  0
  2  9  1  0
  9 10  2  0
 10 11  1  0
 11 12  2  0
 12 13  1  0
 13 14  2  0
 14 15  1  0
 15 16  2  0
 16 17  1  0
  8  4  1  0
 17  9  1  0
 16 11  1  0
  3 18  1  0
  4 19  1  0
  5 20  1  0
  5 21  1  0
  6 22  1  0
  7 23  1  0
  8 24  1  0
  8 25  1  0
 12 26  1  0
 13 27  1  0
 14 28  1  0
 15 29  1  0
A    1
 O1 
A    2
 C1 
A    3
 N1 
A    4
 C2 
A    5
 C3 
A    6
 C4 
A    7
 C5 
A    8
 C6 
A    9
 C7 
A   10
 N2 
A   11
 C8 
A   12
 C9 
A   13
 C10
A   14
 C11
A   15
 C12
A   16
 C13
A   17
 S1 
A   18
 H1 
A   19
 H2 
A   20
 H3 
A   21
 H4 
A   22
 H5 
A   23
 H6 
A   24
 H7 
A   25
 H8 
A   26
 H9 
A   27
 H10
A   28
 H11
A   29
 H12
M  END
>  <ref_pdb>  (11) 
x0051_0B

>  <ref_mols>  (11) 
x0404_0B,x0969_0B

>  <original SMILES>  (11) 
[H]C1=C([H])C([H])([H])C([H])(N([H])C(=O)c2nc3c([H])c([H])c([H])c([H])c3s2)C1([H])[H]

>  <index>  (11) 
4708

>  <∆∆G>  (11) 
-4.16053

>  <comRMSD>  (11) 
0.223767

>  <N_constrained_atoms>  (11) 
18.0

>  <N_unconstrained_atoms>  (11) 
0.0

>  <LE>  (11) 
0.231141

>  <percent_hybrid>  (11) 
0.0

>  <max_hit_Tanimoto>  (11) 
0.343257

>  <largest_ring>  (11) 
6

>  <N_interactions_kept>  (11) 
0.0

>  <N_interactions_lost>  (11) 
0.0

>  <interaction_uniqueness_metric>  (11) 
0.172572

>  <N_HA>  (11) 
17

>  <N_rotatable_bonds>  (11) 
2

>  <N_interactions>  (11) 
8

>  <N_PAINS>  (11) 
0

>  <UFF_Gibbs>  (11) 
68.295364

>  <strain_per_HA>  (11) 
4.017351

>  <ad_hoc_penalty>  (11) 
-49.858938

>  <cluster>  (11) 
1567

>  <merger_rank>  (11) 
1

>  <pication:ARG:29>  (11) 
0

>  <hbond:HIS:51>  (11) 
0

>  <pistack:HIS:51>  (11) 
2

>  <hydroph_interaction:TYR:161>  (11) 
3

>  <pication:HIS:51>  (11) 
0

>  <hydroph_interaction:ALA:132>  (11) 
1

>  <hydroph_interaction:TYR:150>  (11) 
0

>  <hydroph_interaction:LYS:54>  (11) 
0

>  <hbond:SER:135>  (11) 
0

>  <hydroph_interaction:HIS:51>  (11) 
1

>  <hbond:ASP:83>  (11) 
0

>  <hbond:ALA:132>  (11) 
1

>  <halogenbond:SER:81>  (11) 
0

>  <hbond:GLY:82>  (11) 
0

>  <saltbridge:HIS:51>  (11) 
0

>  <pistack:TYR:161>  (11) 
0

>  <hbond:SER:81>  (11) 
0

>  <hbond:ASN:152>  (11) 
0

>  <hbond:GLY:151>  (11) 
0

>  <hydroph_interaction:ASN:152>  (11) 
0

>  <hbond:TYR:161>  (11) 
0

>  <halogenbond:TYR:150>  (11) 
0

>  <hbond:ASP:75>  (11) 
0

>  <hbond:GLY:153>  (11) 
0

>  <hbond:VAL:36>  (11) 
0

>  <hbond:PRO:131>  (11) 
0

>  <hbond:VAL:52>  (11) 
0

>  <hydroph_interaction:ASP:83>  (11) 
0

>  <hydroph_interaction:MET:49>  (11) 
0

>  <hydroph_interaction:VAL:52>  (11) 
0

>  <saltbridge:ASP:83>  (11) 
0

>  <saltbridge:ASP:75>  (11) 
0

>  <hydroph_interaction:TRP:50>  (11) 
0

>  <hydroph_interaction:VAL:72>  (11) 
0

>  <hydroph_interaction:ASP:75>  (11) 
0

>  <halogenbond:ASN:152>  (11) 
0

>  <halogenbond:GLY:153>  (11) 
0

>  <halogenbond:TYR:130>  (11) 
0

>  <hbond:TYR:130>  (11) 
0

>  <halogenbond:ASP:75>  (11) 
0

>  <halogenbond:GLY:151>  (11) 
0

>  <hbond:TYR:150>  (11) 
0

>  <halogenbond:TYR:161>  (11) 
0

>  <hydroph_interaction:ASP:129>  (11) 
0

>  <hbond:ASP:129>  (11) 
0

>  <halogenbond:ALA:132>  (11) 
0

$$$$
Z246162964
     RDKit          3D

 29 32  0  0  0  0  0  0  0  0999 V2000
   -7.1840    4.7690  -18.4550 C   0  0  0  0  0  0  0  0  0  0  0  0
   -8.4600    4.6830  -17.9580 C   0  0  0  0  0  0  0  0  0  0  0  0
   -8.6650    5.4560  -16.6660 C   0  0  0  0  0  0  0  0  0  0  0  0
   -9.9470    5.3990  -16.1260 N   0  0  0  0  0  0  0  0  0  0  0  0
  -10.1960    6.0780  -15.0220 C   0  0  0  0  0  0  0  0  0  0  0  0
   -9.1320    6.8750  -14.3800 C   0  0  0  0  0  0  0  0  0  0  0  0
   -9.5540    7.7530  -13.0040 S   0  0  0  0  0  0  0  0  0  0  0  0
   -9.1510    6.3810  -12.1130 C   0  0  0  0  0  0  0  0  0  0  0  0
   -8.5060    6.5550  -11.0040 N   0  0  0  0  0  0  0  0  0  0  0  0
   -8.3320    5.3390  -10.4700 C   0  0  0  0  0  0  0  0  0  0  0  0
   -7.6710    5.1320   -9.2590 C   0  0  0  0  0  0  0  0  0  0  0  0
   -7.4900    3.9040   -8.6800 C   0  0  0  0  0  0  0  0  0  0  0  0
   -8.0420    2.7950   -9.4100 C   0  0  0  0  0  0  0  0  0  0  0  0
   -8.7020    2.9600  -10.6270 C   0  0  0  0  0  0  0  0  0  0  0  0
   -8.8220    4.2390  -11.1270 C   0  0  0  0  0  0  0  0  0  0  0  0
   -9.5400    4.7820  -12.5700 S   0  0  0  0  0  0  0  0  0  0  0  0
   -7.8870    6.9070  -14.8820 N   0  0  0  0  0  0  0  0  0  0  0  0
   -7.6580    6.1990  -16.0270 C   0  0  0  0  0  0  0  0  0  0  0  0
   -6.4120    6.1940  -16.6190 C   0  0  0  0  0  0  0  0  0  0  0  0
   -6.1840    5.4960  -17.8050 C   0  0  0  0  0  0  0  0  0  0  0  0
   -6.9180    4.2670  -19.3750 H   0  0  0  0  0  0  0  0  0  0  0  0
   -9.3380    4.1660  -18.3260 H   0  0  0  0  0  0  0  0  0  0  0  0
  -11.1580    6.1280  -14.5040 H   0  0  0  0  0  0  0  0  0  0  0  0
   -7.2800    6.0070   -8.7480 H   0  0  0  0  0  0  0  0  0  0  0  0
   -6.9610    3.8730   -7.7380 H   0  0  0  0  0  0  0  0  0  0  0  0
   -7.9280    1.8090   -8.9880 H   0  0  0  0  0  0  0  0  0  0  0  0
   -9.1380    2.1840  -11.2380 H   0  0  0  0  0  0  0  0  0  0  0  0
   -5.6020    6.7500  -16.1540 H   0  0  0  0  0  0  0  0  0  0  0  0
   -5.1900    5.5230  -18.2420 H   0  0  0  0  0  0  0  0  0  0  0  0
  1  2  2  0
  2  3  1  0
  3  4  2  0
  4  5  1  0
  5  6  2  0
  6  7  1  0
  7  8  1  0
  8  9  2  0
  9 10  1  0
 10 11  2  0
 11 12  1  0
 12 13  2  0
 13 14  1  0
 14 15  2  0
 15 16  1  0
  6 17  1  0
 17 18  2  0
 18 19  1  0
 19 20  2  0
 20  1  1  0
 18  3  1  0
 16  8  1  0
 15 10  1  0
  1 21  1  0
  2 22  1  0
  5 23  1  0
 11 24  1  0
 12 25  1  0
 13 26  1  0
 14 27  1  0
 19 28  1  0
 20 29  1  0
A    1
 C1 
A    2
 C2 
A    3
 C3 
A    4
 N1 
A    5
 C4 
A    6
 C5 
A    7
 S1 
A    8
 C6 
A    9
 N2 
A   10
 C7 
A   11
 C8 
A   12
 C9 
A   13
 C10
A   14
 C11
A   15
 C12
A   16
 S2 
A   17
 N3 
A   18
 C13
A   19
 C14
A   20
 C15
A   21
 H1 
A   22
 H2 
A   23
 H3 
A   24
 H4 
A   25
 H5 
A   26
 H6 
A   27
 H7 
A   28
 H8 
A   29
 H9 
M  END
>  <ref_pdb>  (12) 
x0051_0B

>  <ref_mols>  (12) 
x0404_0B,x0969_0B

>  <original SMILES>  (12) 
[H]c1nc2c([H])c([H])c([H])c([H])c2nc1Sc1nc2c([H])c([H])c([H])c([H])c2s1

>  <index>  (12) 
4079

>  <∆∆G>  (12) 
-5.421461

>  <comRMSD>  (12) 
0.854129

>  <N_constrained_atoms>  (12) 
19.0

>  <N_unconstrained_atoms>  (12) 
1.0

>  <LE>  (12) 
0.271073

>  <percent_hybrid>  (12) 
0.0

>  <max_hit_Tanimoto>  (12) 
0.46738

>  <largest_ring>  (12) 
6

>  <N_interactions_kept>  (12) 
0.0

>  <N_interactions_lost>  (12) 
0.0

>  <interaction_uniqueness_metric>  (12) 
0.199516

>  <N_HA>  (12) 
20

>  <N_rotatable_bonds>  (12) 
2

>  <N_interactions>  (12) 
7

>  <N_PAINS>  (12) 
0

>  <UFF_Gibbs>  (12) 
63.650434

>  <strain_per_HA>  (12) 
3.182506

>  <ad_hoc_penalty>  (12) 
-49.839576

>  <cluster>  (12) 
1993

>  <merger_rank>  (12) 
2

>  <pication:ARG:29>  (12) 
0

>  <hbond:HIS:51>  (12) 
0

>  <pistack:HIS:51>  (12) 
2

>  <hydroph_interaction:TYR:161>  (12) 
3

>  <pication:HIS:51>  (12) 
0

>  <hydroph_interaction:ALA:132>  (12) 
1

>  <hydroph_interaction:TYR:150>  (12) 
0

>  <hydroph_interaction:LYS:54>  (12) 
0

>  <hbond:SER:135>  (12) 
0

>  <hydroph_interaction:HIS:51>  (12) 
0

>  <hbond:ASP:83>  (12) 
0

>  <hbond:ALA:132>  (12) 
0

>  <halogenbond:SER:81>  (12) 
0

>  <hbond:GLY:82>  (12) 
0

>  <saltbridge:HIS:51>  (12) 
0

>  <pistack:TYR:161>  (12) 
0

>  <hbond:SER:81>  (12) 
0

>  <hbond:ASN:152>  (12) 
0

>  <hbond:GLY:151>  (12) 
0

>  <hydroph_interaction:ASN:152>  (12) 
0

>  <hbond:TYR:161>  (12) 
0

>  <halogenbond:TYR:150>  (12) 
0

>  <hbond:ASP:75>  (12) 
0

>  <hbond:GLY:153>  (12) 
0

>  <hbond:VAL:36>  (12) 
0

>  <hbond:PRO:131>  (12) 
0

>  <hbond:VAL:52>  (12) 
0

>  <hydroph_interaction:ASP:83>  (12) 
1

>  <hydroph_interaction:MET:49>  (12) 
0

>  <hydroph_interaction:VAL:52>  (12) 
0

>  <saltbridge:ASP:83>  (12) 
0

>  <saltbridge:ASP:75>  (12) 
0

>  <hydroph_interaction:TRP:50>  (12) 
0

>  <hydroph_interaction:VAL:72>  (12) 
0

>  <hydroph_interaction:ASP:75>  (12) 
0

>  <halogenbond:ASN:152>  (12) 
0

>  <halogenbond:GLY:153>  (12) 
0

>  <halogenbond:TYR:130>  (12) 
0

>  <hbond:TYR:130>  (12) 
0

>  <halogenbond:ASP:75>  (12) 
0

>  <halogenbond:GLY:151>  (12) 
0

>  <hbond:TYR:150>  (12) 
0

>  <halogenbond:TYR:161>  (12) 
0

>  <hydroph_interaction:ASP:129>  (12) 
0

>  <hbond:ASP:129>  (12) 
0

>  <halogenbond:ALA:132>  (12) 
0

$$$$
Z1557147480
     RDKit          3D

 25 27  0  0  0  0  0  0  0  0999 V2000
   -7.5550    7.3850  -15.1400 O   0  0  0  0  0  0  0  0  0  0  0  0
   -8.1670    6.3590  -14.8570 C   0  0  0  0  0  0  0  0  0  0  0  0
   -8.6990    5.4400  -15.7500 N   0  0  0  0  0  0  0  0  0  0  0  0
   -8.2210    5.3290  -17.0140 C   0  0  0  0  0  0  0  0  0  0  0  0
   -9.0260    4.5370  -17.9400 C   0  0  0  0  0  0  0  0  0  0  0  0
   -8.3110    4.4780  -19.4740 S   0  0  0  0  0  0  0  0  0  0  0  0
   -6.9710    5.4560  -19.0020 C   0  0  0  0  0  0  0  0  0  0  0  0
   -7.0400    5.8480  -17.6560 C   0  0  0  0  0  0  0  0  0  0  0  0
   -8.3890    5.9810  -13.5180 C   0  0  0  0  0  0  0  0  0  0  0  0
   -8.5290    4.7280  -13.1590 N   0  0  0  0  0  0  0  0  0  0  0  0
   -8.7280    4.6340  -11.8090 C   0  0  0  0  0  0  0  0  0  0  0  0
   -8.9000    3.4080  -11.2290 C   0  0  0  0  0  0  0  0  0  0  0  0
   -9.1000    3.4060   -9.8070 C   0  0  0  0  0  0  0  0  0  0  0  0
   -9.1000    4.6270   -9.1190 C   0  0  0  0  0  0  0  0  0  0  0  0
   -8.9220    5.8550   -9.7560 C   0  0  0  0  0  0  0  0  0  0  0  0
   -8.7370    5.8270  -11.1210 C   0  0  0  0  0  0  0  0  0  0  0  0
   -8.4920    7.1190  -12.2360 S   0  0  0  0  0  0  0  0  0  0  0  0
   -9.1540    4.5850  -15.4140 H   0  0  0  0  0  0  0  0  0  0  0  0
   -9.9670    4.0240  -17.7460 H   0  0  0  0  0  0  0  0  0  0  0  0
   -6.2010    5.6970  -19.7240 H   0  0  0  0  0  0  0  0  0  0  0  0
   -6.3410    6.4580  -17.0990 H   0  0  0  0  0  0  0  0  0  0  0  0
   -8.8910    2.4890  -11.7930 H   0  0  0  0  0  0  0  0  0  0  0  0
   -9.2410    2.4650   -9.2890 H   0  0  0  0  0  0  0  0  0  0  0  0
   -9.2490    4.6270   -8.0490 H   0  0  0  0  0  0  0  0  0  0  0  0
   -8.9110    6.8430   -9.3190 H   0  0  0  0  0  0  0  0  0  0  0  0
  1  2  2  0
  2  3  1  0
  3  4  1  0
  4  5  2  0
  5  6  1  0
  6  7  1  0
  7  8  2  0
  2  9  1  0
  9 10  2  0
 10 11  1  0
 11 12  2  0
 12 13  1  0
 13 14  2  0
 14 15  1  0
 15 16  2  0
 16 17  1  0
  8  4  1  0
 17  9  1  0
 16 11  1  0
  3 18  1  0
  5 19  1  0
  7 20  1  0
  8 21  1  0
 12 22  1  0
 13 23  1  0
 14 24  1  0
 15 25  1  0
A    1
 O1 
A    2
 C1 
A    3
 N1 
A    4
 C2 
A    5
 C3 
A    6
 S1 
A    7
 C4 
A    8
 C5 
A    9
 C6 
A   10
 N2 
A   11
 C7 
A   12
 C8 
A   13
 C9 
A   14
 C10
A   15
 C11
A   16
 C12
A   17
 S2 
A   18
 H1 
A   19
 H2 
A   20
 H3 
A   21
 H4 
A   22
 H5 
A   23
 H6 
A   24
 H7 
A   25
 H8 
M  END
>  <ref_pdb>  (13) 
x0051_0B

>  <ref_mols>  (13) 
x0404_0B,x0969_0B

>  <original SMILES>  (13) 
[H]c1sc([H])c(N([H])C(=O)c2nc3c([H])c([H])c([H])c([H])c3s2)c1[H]

>  <index>  (13) 
4684

>  <∆∆G>  (13) 
-6.897019

>  <comRMSD>  (13) 
0.235211

>  <N_constrained_atoms>  (13) 
18.0

>  <N_unconstrained_atoms>  (13) 
0.0

>  <LE>  (13) 
0.383168

>  <percent_hybrid>  (13) 
0.0

>  <max_hit_Tanimoto>  (13) 
0.42446

>  <largest_ring>  (13) 
6

>  <N_interactions_kept>  (13) 
0.0

>  <N_interactions_lost>  (13) 
0.0

>  <interaction_uniqueness_metric>  (13) 
0.136283

>  <N_HA>  (13) 
17

>  <N_rotatable_bonds>  (13) 
2

>  <N_interactions>  (13) 
6

>  <N_PAINS>  (13) 
0

>  <UFF_Gibbs>  (13) 
39.169298

>  <strain_per_HA>  (13) 
2.304063

>  <ad_hoc_penalty>  (13) 
-49.137121

>  <cluster>  (13) 
1588

>  <merger_rank>  (13) 
2

>  <pication:ARG:29>  (13) 
0

>  <hbond:HIS:51>  (13) 
0

>  <pistack:HIS:51>  (13) 
2

>  <hydroph_interaction:TYR:161>  (13) 
0

>  <pication:HIS:51>  (13) 
0

>  <hydroph_interaction:ALA:132>  (13) 
1

>  <hydroph_interaction:TYR:150>  (13) 
0

>  <hydroph_interaction:LYS:54>  (13) 
0

>  <hbond:SER:135>  (13) 
0

>  <hydroph_interaction:HIS:51>  (13) 
1

>  <hbond:ASP:83>  (13) 
0

>  <hbond:ALA:132>  (13) 
0

>  <halogenbond:SER:81>  (13) 
0

>  <hbond:GLY:82>  (13) 
0

>  <saltbridge:HIS:51>  (13) 
0

>  <pistack:TYR:161>  (13) 
1

>  <hbond:SER:81>  (13) 
0

>  <hbond:ASN:152>  (13) 
0

>  <hbond:GLY:151>  (13) 
1

>  <hydroph_interaction:ASN:152>  (13) 
0

>  <hbond:TYR:161>  (13) 
0

>  <halogenbond:TYR:150>  (13) 
0

>  <hbond:ASP:75>  (13) 
0

>  <hbond:GLY:153>  (13) 
0

>  <hbond:VAL:36>  (13) 
0

>  <hbond:PRO:131>  (13) 
0

>  <hbond:VAL:52>  (13) 
0

>  <hydroph_interaction:ASP:83>  (13) 
0

>  <hydroph_interaction:MET:49>  (13) 
0

>  <hydroph_interaction:VAL:52>  (13) 
0

>  <saltbridge:ASP:83>  (13) 
0

>  <saltbridge:ASP:75>  (13) 
0

>  <hydroph_interaction:TRP:50>  (13) 
0

>  <hydroph_interaction:VAL:72>  (13) 
0

>  <hydroph_interaction:ASP:75>  (13) 
0

>  <halogenbond:ASN:152>  (13) 
0

>  <halogenbond:GLY:153>  (13) 
0

>  <halogenbond:TYR:130>  (13) 
0

>  <hbond:TYR:130>  (13) 
0

>  <halogenbond:ASP:75>  (13) 
0

>  <halogenbond:GLY:151>  (13) 
0

>  <hbond:TYR:150>  (13) 
0

>  <halogenbond:TYR:161>  (13) 
0

>  <hydroph_interaction:ASP:129>  (13) 
0

>  <hbond:ASP:129>  (13) 
0

>  <halogenbond:ALA:132>  (13) 
0

$$$$
PV-002899679218
     RDKit          3D

 31 33  0  0  0  0  0  0  0  0999 V2000
   -9.7960    2.3980   -8.0340 N   0  0  0  0  0  0  0  0  0  0  0  0
   -9.3770    3.5650   -8.5200 C   0  0  0  0  0  0  0  0  0  0  0  0
   -9.0680    4.5910   -7.6710 C   0  0  0  0  0  0  0  0  0  0  0  0
   -8.6570    5.7860   -8.0520 N   0  0  0  0  0  0  0  0  0  0  0  0
   -8.5190    6.0570   -9.4080 N   0  0  0  0  0  0  0  0  0  0  0  0
   -8.8220    5.0290  -10.3140 C   0  0  0  0  0  0  0  0  0  0  0  0
   -8.6860    5.2810  -11.6990 C   0  0  0  0  0  0  0  0  0  0  0  0
   -9.0060    6.5170  -12.2810 C   0  0  0  0  0  0  0  0  0  0  0  0
   -8.7820    6.5500  -13.7520 C   0  0  0  0  0  0  0  0  0  0  0  0
   -8.2630    5.3710  -14.5330 C   0  0  0  0  0  0  0  0  0  0  0  0
   -8.0540    5.4640  -16.0070 C   0  0  0  0  0  0  0  0  0  0  0  0
   -7.0100    6.1300  -16.6120 C   0  0  0  0  0  0  0  0  0  0  0  0
   -6.8910    6.1470  -18.0580 C   0  0  0  0  0  0  0  0  0  0  0  0
   -7.8140    5.4960  -18.8900 C   0  0  0  0  0  0  0  0  0  0  0  0
   -8.8240    4.8590  -18.2960 C   0  0  0  0  0  0  0  0  0  0  0  0
   -8.9610    4.8380  -16.8350 C   0  0  0  0  0  0  0  0  0  0  0  0
   -7.9890    4.2300  -13.8360 N   0  0  0  0  0  0  0  0  0  0  0  0
   -8.2090    4.2380  -12.5030 C   0  0  0  0  0  0  0  0  0  0  0  0
   -9.2500    3.7860   -9.8700 C   0  0  0  0  0  0  0  0  0  0  0  0
   -9.8910    1.6030   -8.6380 H   0  0  0  0  0  0  0  0  0  0  0  0
   -9.4980    2.2070   -7.0830 H   0  0  0  0  0  0  0  0  0  0  0  0
   -9.1660    4.4220   -6.6060 H   0  0  0  0  0  0  0  0  0  0  0  0
   -9.3800    7.3730  -11.7270 H   0  0  0  0  0  0  0  0  0  0  0  0
   -8.9550    7.3880  -14.4390 H   0  0  0  0  0  0  0  0  0  0  0  0
   -6.2640    6.6470  -16.0190 H   0  0  0  0  0  0  0  0  0  0  0  0
   -6.0690    6.6740  -18.5230 H   0  0  0  0  0  0  0  0  0  0  0  0
   -7.7700    5.4730  -19.9690 H   0  0  0  0  0  0  0  0  0  0  0  0
   -9.5610    4.3460  -18.9020 H   0  0  0  0  0  0  0  0  0  0  0  0
   -9.8320    4.2860  -16.4810 H   0  0  0  0  0  0  0  0  0  0  0  0
   -7.9610    3.2720  -12.0540 H   0  0  0  0  0  0  0  0  0  0  0  0
   -9.4850    2.9920  -10.5700 H   0  0  0  0  0  0  0  0  0  0  0  0
  1  2  1  0
  2  3  2  0
  3  4  1  0
  4  5  2  0
  5  6  1  0
  6  7  1  0
  7  8  2  0
  8  9  1  0
  9 10  2  0
 10 11  1  0
 11 12  2  0
 12 13  1  0
 13 14  2  0
 14 15  1  0
 15 16  2  0
 10 17  1  0
 17 18  2  0
  6 19  2  0
 19  2  1  0
 18  7  1  0
 16 11  1  0
  1 20  1  0
  1 21  1  0
  3 22  1  0
  8 23  1  0
  9 24  1  0
 12 25  1  0
 13 26  1  0
 14 27  1  0
 15 28  1  0
 16 29  1  0
 18 30  1  0
 19 31  1  0
A    1
 N1 
A    2
 C1 
A    3
 C2 
A    4
 N2 
A    5
 N3 
A    6
 C3 
A    7
 C4 
A    8
 C5 
A    9
 C6 
A   10
 C7 
A   11
 C8 
A   12
 C9 
A   13
 C10
A   14
 C11
A   15
 C12
A   16
 C13
A   17
 N4 
A   18
 C14
A   19
 C15
A   20
 H1 
A   21
 H2 
A   22
 H3 
A   23
 H4 
A   24
 H5 
A   25
 H6 
A   26
 H7 
A   27
 H8 
A   28
 H9 
A   29
 H10
A   30
 H11
A   31
 H12
M  END
>  <ref_pdb>  (14) 
x0051_0B

>  <ref_mols>  (14) 
x0404_0B,x0969_0B

>  <original SMILES>  (14) 
[H]c1nc(-c2c([H])c([H])c([H])c([H])c2[H])c([H])c([H])c1-c1nnc([H])c(N([H])[H])c1[H]

>  <index>  (14) 
4353

>  <∆∆G>  (14) 
-5.226722

>  <comRMSD>  (14) 
0.296926

>  <N_constrained_atoms>  (14) 
18.0

>  <N_unconstrained_atoms>  (14) 
1.0

>  <LE>  (14) 
0.275091

>  <percent_hybrid>  (14) 
0.0

>  <max_hit_Tanimoto>  (14) 
0.382895

>  <largest_ring>  (14) 
6

>  <N_interactions_kept>  (14) 
0.0

>  <N_interactions_lost>  (14) 
0.0

>  <interaction_uniqueness_metric>  (14) 
0.342813

>  <N_HA>  (14) 
19

>  <N_rotatable_bonds>  (14) 
3

>  <N_interactions>  (14) 
7

>  <N_PAINS>  (14) 
0

>  <UFF_Gibbs>  (14) 
60.659808

>  <strain_per_HA>  (14) 
3.192605

>  <ad_hoc_penalty>  (14) 
-48.826712

>  <cluster>  (14) 
1827

>  <merger_rank>  (14) 
1

>  <pication:ARG:29>  (14) 
0

>  <hbond:HIS:51>  (14) 
1

>  <pistack:HIS:51>  (14) 
1

>  <hydroph_interaction:TYR:161>  (14) 
2

>  <pication:HIS:51>  (14) 
0

>  <hydroph_interaction:ALA:132>  (14) 
1

>  <hydroph_interaction:TYR:150>  (14) 
0

>  <hydroph_interaction:LYS:54>  (14) 
0

>  <hbond:SER:135>  (14) 
0

>  <hydroph_interaction:HIS:51>  (14) 
1

>  <hbond:ASP:83>  (14) 
0

>  <hbond:ALA:132>  (14) 
0

>  <halogenbond:SER:81>  (14) 
0

>  <hbond:GLY:82>  (14) 
0

>  <saltbridge:HIS:51>  (14) 
0

>  <pistack:TYR:161>  (14) 
0

>  <hbond:SER:81>  (14) 
1

>  <hbond:ASN:152>  (14) 
0

>  <hbond:GLY:151>  (14) 
0

>  <hydroph_interaction:ASN:152>  (14) 
0

>  <hbond:TYR:161>  (14) 
0

>  <halogenbond:TYR:150>  (14) 
0

>  <hbond:ASP:75>  (14) 
0

>  <hbond:GLY:153>  (14) 
0

>  <hbond:VAL:36>  (14) 
0

>  <hbond:PRO:131>  (14) 
0

>  <hbond:VAL:52>  (14) 
0

>  <hydroph_interaction:ASP:83>  (14) 
0

>  <hydroph_interaction:MET:49>  (14) 
0

>  <hydroph_interaction:VAL:52>  (14) 
0

>  <saltbridge:ASP:83>  (14) 
0

>  <saltbridge:ASP:75>  (14) 
0

>  <hydroph_interaction:TRP:50>  (14) 
0

>  <hydroph_interaction:VAL:72>  (14) 
0

>  <hydroph_interaction:ASP:75>  (14) 
0

>  <halogenbond:ASN:152>  (14) 
0

>  <halogenbond:GLY:153>  (14) 
0

>  <halogenbond:TYR:130>  (14) 
0

>  <hbond:TYR:130>  (14) 
0

>  <halogenbond:ASP:75>  (14) 
0

>  <halogenbond:GLY:151>  (14) 
0

>  <hbond:TYR:150>  (14) 
0

>  <halogenbond:TYR:161>  (14) 
0

>  <hydroph_interaction:ASP:129>  (14) 
0

>  <hbond:ASP:129>  (14) 
0

>  <halogenbond:ALA:132>  (14) 
0

$$$$
PV-006987686487
     RDKit          3D

 23 24  0  0  0  0  0  0  0  0999 V2000
   -9.3870    3.2280   -9.3250 C   0  0  0  0  0  0  0  0  0  0  0  0
   -9.0120    4.0160  -10.3970 N   0  0  0  0  0  0  0  0  0  0  0  0
   -8.8970    5.3660  -10.4850 C   0  0  0  0  0  0  0  0  0  0  0  0
   -8.5150    5.8720  -11.6210 N   0  0  0  0  0  0  0  0  0  0  0  0
   -8.3520    4.7570  -12.3810 C   0  0  0  0  0  0  0  0  0  0  0  0
   -7.9330    4.7560  -13.6950 N   0  0  0  0  0  0  0  0  0  0  0  0
   -8.5590    5.7350  -14.4110 C   0  0  0  0  0  0  0  0  0  0  0  0
   -9.4580    6.6810  -13.9970 O   0  0  0  0  0  0  0  0  0  0  0  0
   -8.0520    5.6270  -15.8530 C   0  0  0  0  0  0  0  0  0  0  0  0
   -8.7130    5.0850  -16.9740 C   0  0  0  0  0  0  0  0  0  0  0  0
   -8.1070    5.0780  -18.2060 C   0  0  0  0  0  0  0  0  0  0  0  0
   -6.8320    5.6820  -18.0050 C   0  0  0  0  0  0  0  0  0  0  0  0
   -5.4990    5.9190  -19.5820 I   0  0  0  0  0  0  0  0  0  0  0  0
   -6.5110    6.1860  -16.3740 S   0  0  0  0  0  0  0  0  0  0  0  0
   -8.6550    3.5920  -11.6530 C   0  0  0  0  0  0  0  0  0  0  0  0
   -8.9690    2.2240   -9.4370 H   0  0  0  0  0  0  0  0  0  0  0  0
  -10.4680    3.1390   -9.2740 H   0  0  0  0  0  0  0  0  0  0  0  0
   -9.0220    3.6610   -8.3900 H   0  0  0  0  0  0  0  0  0  0  0  0
   -9.1400    5.9160   -9.5710 H   0  0  0  0  0  0  0  0  0  0  0  0
   -7.7090    3.8360  -14.1140 H   0  0  0  0  0  0  0  0  0  0  0  0
   -9.7090    4.6730  -16.8570 H   0  0  0  0  0  0  0  0  0  0  0  0
   -8.4980    4.6980  -19.1450 H   0  0  0  0  0  0  0  0  0  0  0  0
   -8.6390    2.5460  -11.9220 H   0  0  0  0  0  0  0  0  0  0  0  0
  1  2  1  0
  2  3  1  0
  3  4  2  0
  4  5  1  0
  5  6  1  0
  6  7  1  0
  7  8  2  0
  7  9  1  0
  9 10  2  0
 10 11  1  0
 11 12  2  0
 12 13  1  0
 12 14  1  0
  5 15  2  0
 15  2  1  0
 14  9  1  0
  1 16  1  0
  1 17  1  0
  1 18  1  0
  3 19  1  0
  6 20  1  0
 10 21  1  0
 11 22  1  0
 15 23  1  0
A    1
 C1 
A    2
 N1 
A    3
 C2 
A    4
 N2 
A    5
 C3 
A    6
 N3 
A    7
 C4 
A    8
 O1 
A    9
 C5 
A   10
 C6 
A   11
 C7 
A   12
 C8 
A   13
 I1 
A   14
 S1 
A   15
 C9 
A   16
 H1 
A   17
 H2 
A   18
 H3 
A   19
 H4 
A   20
 H5 
A   21
 H6 
A   22
 H7 
A   23
 H8 
M  END
>  <ref_pdb>  (15) 
x0051_0B

>  <ref_mols>  (15) 
x0404_0B,x0969_0B

>  <original SMILES>  (15) 
[H]c1c(I)sc(C(=O)N([H])c2nc([H])n(C([H])([H])[H])c2[H])c1[H]

>  <index>  (15) 
5949

>  <∆∆G>  (15) 
-6.54581

>  <comRMSD>  (15) 
0.192864

>  <N_constrained_atoms>  (15) 
14.0

>  <N_unconstrained_atoms>  (15) 
1.0

>  <LE>  (15) 
0.436387

>  <percent_hybrid>  (15) 
0.0

>  <max_hit_Tanimoto>  (15) 
0.209848

>  <largest_ring>  (15) 
5

>  <N_interactions_kept>  (15) 
0.0

>  <N_interactions_lost>  (15) 
0.0

>  <interaction_uniqueness_metric>  (15) 
0.490791

>  <N_HA>  (15) 
15

>  <N_rotatable_bonds>  (15) 
3

>  <N_interactions>  (15) 
6

>  <N_PAINS>  (15) 
0

>  <UFF_Gibbs>  (15) 
65.489801

>  <strain_per_HA>  (15) 
4.365958

>  <ad_hoc_penalty>  (15) 
-48.597149

>  <cluster>  (15) 
42

>  <merger_rank>  (15) 
2

>  <pication:ARG:29>  (15) 
0

>  <hbond:HIS:51>  (15) 
0

>  <pistack:HIS:51>  (15) 
1

>  <hydroph_interaction:TYR:161>  (15) 
1

>  <pication:HIS:51>  (15) 
1

>  <hydroph_interaction:ALA:132>  (15) 
0

>  <hydroph_interaction:TYR:150>  (15) 
0

>  <hydroph_interaction:LYS:54>  (15) 
0

>  <hbond:SER:135>  (15) 
0

>  <hydroph_interaction:HIS:51>  (15) 
0

>  <hbond:ASP:83>  (15) 
0

>  <hbond:ALA:132>  (15) 
0

>  <halogenbond:SER:81>  (15) 
0

>  <hbond:GLY:82>  (15) 
0

>  <saltbridge:HIS:51>  (15) 
0

>  <pistack:TYR:161>  (15) 
0

>  <hbond:SER:81>  (15) 
0

>  <hbond:ASN:152>  (15) 
0

>  <hbond:GLY:151>  (15) 
0

>  <hydroph_interaction:ASN:152>  (15) 
0

>  <hbond:TYR:161>  (15) 
1

>  <halogenbond:TYR:150>  (15) 
0

>  <hbond:ASP:75>  (15) 
0

>  <hbond:GLY:153>  (15) 
0

>  <hbond:VAL:36>  (15) 
0

>  <hbond:PRO:131>  (15) 
0

>  <hbond:VAL:52>  (15) 
0

>  <hydroph_interaction:ASP:83>  (15) 
0

>  <hydroph_interaction:MET:49>  (15) 
0

>  <hydroph_interaction:VAL:52>  (15) 
0

>  <saltbridge:ASP:83>  (15) 
1

>  <saltbridge:ASP:75>  (15) 
1

>  <hydroph_interaction:TRP:50>  (15) 
0

>  <hydroph_interaction:VAL:72>  (15) 
0

>  <hydroph_interaction:ASP:75>  (15) 
0

>  <halogenbond:ASN:152>  (15) 
0

>  <halogenbond:GLY:153>  (15) 
0

>  <halogenbond:TYR:130>  (15) 
0

>  <hbond:TYR:130>  (15) 
0

>  <halogenbond:ASP:75>  (15) 
0

>  <halogenbond:GLY:151>  (15) 
0

>  <hbond:TYR:150>  (15) 
0

>  <halogenbond:TYR:161>  (15) 
0

>  <hydroph_interaction:ASP:129>  (15) 
0

>  <hbond:ASP:129>  (15) 
0

>  <halogenbond:ALA:132>  (15) 
0

$$$$
Z2622838138
     RDKit          3D

 23 24  0  0  0  0  0  0  0  0999 V2000
   -9.2980    3.1380   -9.0250 C   0  0  0  0  0  0  0  0  0  0  0  0
   -8.8810    3.9630  -10.2060 C   0  0  0  0  0  0  0  0  0  0  0  0
   -8.3820    5.2590  -10.2140 C   0  0  0  0  0  0  0  0  0  0  0  0
   -8.0910    5.7600  -11.4250 N   0  0  0  0  0  0  0  0  0  0  0  0
   -8.3810    4.8060  -12.3810 C   0  0  0  0  0  0  0  0  0  0  0  0
   -8.1920    5.0500  -13.7010 N   0  0  0  0  0  0  0  0  0  0  0  0
   -9.1690    5.4220  -14.5650 C   0  0  0  0  0  0  0  0  0  0  0  0
  -10.2650    5.8380  -14.2370 O   0  0  0  0  0  0  0  0  0  0  0  0
   -8.8020    5.2870  -16.0370 C   0  0  0  0  0  0  0  0  0  0  0  0
   -7.4850    5.6080  -16.5070 N   0  0  0  0  0  0  0  0  0  0  0  0
   -7.4080    5.4080  -17.8510 N   0  0  0  0  0  0  0  0  0  0  0  0
   -8.5710    4.9740  -18.3330 C   0  0  0  0  0  0  0  0  0  0  0  0
   -8.8340    4.6370  -19.8050 C   0  0  0  0  0  0  0  0  0  0  0  0
   -9.8660    4.7740  -17.2390 S   0  0  0  0  0  0  0  0  0  0  0  0
   -8.9920    3.3280  -11.7880 S   0  0  0  0  0  0  0  0  0  0  0  0
   -8.9020    2.1200   -9.1110 H   0  0  0  0  0  0  0  0  0  0  0  0
  -10.3850    3.0580   -8.9560 H   0  0  0  0  0  0  0  0  0  0  0  0
   -8.9270    3.5800   -8.0960 H   0  0  0  0  0  0  0  0  0  0  0  0
   -8.1930    5.9270   -9.3830 H   0  0  0  0  0  0  0  0  0  0  0  0
   -7.2550    4.8760  -14.0680 H   0  0  0  0  0  0  0  0  0  0  0  0
   -9.0720    3.6120  -19.9820 H   0  0  0  0  0  0  0  0  0  0  0  0
   -9.6630    5.1360  -20.2890 H   0  0  0  0  0  0  0  0  0  0  0  0
   -8.0340    4.7830  -20.5160 H   0  0  0  0  0  0  0  0  0  0  0  0
  1  2  1  0
  2  3  2  0
  3  4  1  0
  4  5  2  0
  5  6  1  0
  6  7  1  0
  7  8  2  0
  7  9  1  0
  9 10  2  0
 10 11  1  0
 11 12  2  0
 12 13  1  0
 12 14  1  0
  5 15  1  0
 15  2  1  0
 14  9  1  0
  1 16  1  0
  1 17  1  0
  1 18  1  0
  3 19  1  0
  6 20  1  0
 13 21  1  0
 13 22  1  0
 13 23  1  0
A    1
 C1 
A    2
 C2 
A    3
 C3 
A    4
 N1 
A    5
 C4 
A    6
 N2 
A    7
 C5 
A    8
 O1 
A    9
 C6 
A   10
 N3 
A   11
 N4 
A   12
 C7 
A   13
 C8 
A   14
 S1 
A   15
 S2 
A   16
 H1 
A   17
 H2 
A   18
 H3 
A   19
 H4 
A   20
 H5 
A   21
 H6 
A   22
 H7 
A   23
 H8 
M  END
>  <ref_pdb>  (16) 
x0051_0B

>  <ref_mols>  (16) 
x0969_1B,x0553_0B

>  <original SMILES>  (16) 
[H]c1nc(N([H])C(=O)c2nnc(C([H])([H])[H])s2)sc1C([H])([H])[H]

>  <index>  (16) 
3327

>  <∆∆G>  (16) 
-7.260505

>  <comRMSD>  (16) 
0.452148

>  <N_constrained_atoms>  (16) 
14.0

>  <N_unconstrained_atoms>  (16) 
1.0

>  <LE>  (16) 
0.484034

>  <percent_hybrid>  (16) 
0.0

>  <max_hit_Tanimoto>  (16) 
0.329502

>  <largest_ring>  (16) 
5

>  <N_interactions_kept>  (16) 
0.0

>  <N_interactions_lost>  (16) 
0.0

>  <interaction_uniqueness_metric>  (16) 
0.196696

>  <N_HA>  (16) 
15

>  <N_rotatable_bonds>  (16) 
4

>  <N_interactions>  (16) 
7

>  <N_PAINS>  (16) 
0

>  <UFF_Gibbs>  (16) 
45.302601

>  <strain_per_HA>  (16) 
3.020153

>  <ad_hoc_penalty>  (16) 
-48.324782

>  <cluster>  (16) 
501

>  <merger_rank>  (16) 
1

>  <pication:ARG:29>  (16) 
0

>  <hbond:HIS:51>  (16) 
0

>  <pistack:HIS:51>  (16) 
1

>  <hydroph_interaction:TYR:161>  (16) 
1

>  <pication:HIS:51>  (16) 
0

>  <hydroph_interaction:ALA:132>  (16) 
0

>  <hydroph_interaction:TYR:150>  (16) 
1

>  <hydroph_interaction:LYS:54>  (16) 
0

>  <hbond:SER:135>  (16) 
1

>  <hydroph_interaction:HIS:51>  (16) 
1

>  <hbond:ASP:83>  (16) 
0

>  <hbond:ALA:132>  (16) 
0

>  <halogenbond:SER:81>  (16) 
0

>  <hbond:GLY:82>  (16) 
0

>  <saltbridge:HIS:51>  (16) 
0

>  <pistack:TYR:161>  (16) 
1

>  <hbond:SER:81>  (16) 
0

>  <hbond:ASN:152>  (16) 
0

>  <hbond:GLY:151>  (16) 
0

>  <hydroph_interaction:ASN:152>  (16) 
0

>  <hbond:TYR:161>  (16) 
1

>  <halogenbond:TYR:150>  (16) 
0

>  <hbond:ASP:75>  (16) 
0

>  <hbond:GLY:153>  (16) 
0

>  <hbond:VAL:36>  (16) 
0

>  <hbond:PRO:131>  (16) 
0

>  <hbond:VAL:52>  (16) 
0

>  <hydroph_interaction:ASP:83>  (16) 
0

>  <hydroph_interaction:MET:49>  (16) 
0

>  <hydroph_interaction:VAL:52>  (16) 
0

>  <saltbridge:ASP:83>  (16) 
0

>  <saltbridge:ASP:75>  (16) 
0

>  <hydroph_interaction:TRP:50>  (16) 
0

>  <hydroph_interaction:VAL:72>  (16) 
0

>  <hydroph_interaction:ASP:75>  (16) 
0

>  <halogenbond:ASN:152>  (16) 
0

>  <halogenbond:GLY:153>  (16) 
0

>  <halogenbond:TYR:130>  (16) 
0

>  <hbond:TYR:130>  (16) 
0

>  <halogenbond:ASP:75>  (16) 
0

>  <halogenbond:GLY:151>  (16) 
0

>  <hbond:TYR:150>  (16) 
0

>  <halogenbond:TYR:161>  (16) 
0

>  <hydroph_interaction:ASP:129>  (16) 
0

>  <hbond:ASP:129>  (16) 
0

>  <halogenbond:ALA:132>  (16) 
0

$$$$
Z1882541672
     RDKit          3D

 24 25  0  0  0  0  0  0  0  0999 V2000
   -6.5040    5.6260  -19.1420 C   0  0  0  0  0  0  0  0  0  0  0  0
   -7.3780    5.4180  -17.9280 C   0  0  0  0  0  0  0  0  0  0  0  0
   -7.3190    6.1210  -16.6670 C   0  0  0  0  0  0  0  0  0  0  0  0
   -8.3110    5.6660  -15.7260 C   0  0  0  0  0  0  0  0  0  0  0  0
   -8.5570    6.0940  -14.4420 C   0  0  0  0  0  0  0  0  0  0  0  0
   -8.3150    7.2720  -14.1650 O   0  0  0  0  0  0  0  0  0  0  0  0
   -9.0750    5.1280  -13.5610 N   0  0  0  0  0  0  0  0  0  0  0  0
   -8.9910    5.0080  -12.2140 C   0  0  0  0  0  0  0  0  0  0  0  0
   -9.0060    6.2260  -11.3540 C   0  0  0  0  0  0  0  0  0  0  0  0
   -8.9200    6.0800   -9.9970 C   0  0  0  0  0  0  0  0  0  0  0  0
   -8.8200    4.7310   -9.5200 C   0  0  0  0  0  0  0  0  0  0  0  0
   -8.7250    4.4750   -8.1910 O   0  0  0  0  0  0  0  0  0  0  0  0
   -8.8110    3.6320  -10.3190 N   0  0  0  0  0  0  0  0  0  0  0  0
   -8.8950    3.7600  -11.6810 N   0  0  0  0  0  0  0  0  0  0  0  0
   -9.0860    4.6640  -16.2490 N   0  0  0  0  0  0  0  0  0  0  0  0
   -8.6370    4.2780  -17.8300 S   0  0  0  0  0  0  0  0  0  0  0  0
   -6.8470    6.4980  -19.7100 H   0  0  0  0  0  0  0  0  0  0  0  0
   -6.5360    4.7560  -19.8080 H   0  0  0  0  0  0  0  0  0  0  0  0
   -5.4610    5.7900  -18.8550 H   0  0  0  0  0  0  0  0  0  0  0  0
   -6.6060    6.9090  -16.4470 H   0  0  0  0  0  0  0  0  0  0  0  0
   -9.3540    4.2630  -14.0600 H   0  0  0  0  0  0  0  0  0  0  0  0
   -9.0830    7.2310  -11.7580 H   0  0  0  0  0  0  0  0  0  0  0  0
   -8.9330    6.9970   -9.3990 H   0  0  0  0  0  0  0  0  0  0  0  0
   -8.0400    3.7470   -8.1970 H   0  0  0  0  0  0  0  0  0  0  0  0
  1  2  1  0
  2  3  2  0
  3  4  1  0
  4  5  1  0
  5  6  2  0
  5  7  1  0
  7  8  1  0
  8  9  2  0
  9 10  1  0
 10 11  2  0
 11 12  1  0
 11 13  1  0
 13 14  2  0
  4 15  2  0
 15 16  1  0
 16  2  1  0
 14  8  1  0
  1 17  1  0
  1 18  1  0
  1 19  1  0
  3 20  1  0
  7 21  1  0
  9 22  1  0
 10 23  1  0
 12 24  1  0
A    1
 C1 
A    2
 C2 
A    3
 C3 
A    4
 C4 
A    5
 C5 
A    6
 O1 
A    7
 N1 
A    8
 C6 
A    9
 C7 
A   10
 C8 
A   11
 C9 
A   12
 O2 
A   13
 N2 
A   14
 N3 
A   15
 N4 
A   16
 S1 
A   17
 H1 
A   18
 H2 
A   19
 H3 
A   20
 H4 
A   21
 H5 
A   22
 H6 
A   23
 H7 
A   24
 H8 
M  END
>  <ref_pdb>  (17) 
x0051_0B

>  <ref_mols>  (17) 
x0404_0B,x0969_0B

>  <original SMILES>  (17) 
[H]Oc1nnc(N([H])C(=O)c2nsc(C([H])([H])[H])c2[H])c([H])c1[H]

>  <index>  (17) 
4276

>  <∆∆G>  (17) 
-6.017209

>  <comRMSD>  (17) 
0.321464

>  <N_constrained_atoms>  (17) 
16.0

>  <N_unconstrained_atoms>  (17) 
0.0

>  <LE>  (17) 
0.376076

>  <percent_hybrid>  (17) 
0.0

>  <max_hit_Tanimoto>  (17) 
0.477987

>  <largest_ring>  (17) 
6

>  <N_interactions_kept>  (17) 
0.0

>  <N_interactions_lost>  (17) 
0.0

>  <interaction_uniqueness_metric>  (17) 
0.237302

>  <N_HA>  (17) 
16

>  <N_rotatable_bonds>  (17) 
4

>  <N_interactions>  (17) 
7

>  <N_PAINS>  (17) 
0

>  <UFF_Gibbs>  (17) 
57.598322

>  <strain_per_HA>  (17) 
3.599873

>  <ad_hoc_penalty>  (17) 
-45.875775

>  <cluster>  (17) 
24

>  <merger_rank>  (17) 
1

>  <pication:ARG:29>  (17) 
0

>  <hbond:HIS:51>  (17) 
0

>  <pistack:HIS:51>  (17) 
1

>  <hydroph_interaction:TYR:161>  (17) 
1

>  <pication:HIS:51>  (17) 
0

>  <hydroph_interaction:ALA:132>  (17) 
1

>  <hydroph_interaction:TYR:150>  (17) 
0

>  <hydroph_interaction:LYS:54>  (17) 
0

>  <hbond:SER:135>  (17) 
0

>  <hydroph_interaction:HIS:51>  (17) 
1

>  <hbond:ASP:83>  (17) 
1

>  <hbond:ALA:132>  (17) 
0

>  <halogenbond:SER:81>  (17) 
0

>  <hbond:GLY:82>  (17) 
0

>  <saltbridge:HIS:51>  (17) 
0

>  <pistack:TYR:161>  (17) 
1

>  <hbond:SER:81>  (17) 
0

>  <hbond:ASN:152>  (17) 
0

>  <hbond:GLY:151>  (17) 
1

>  <hydroph_interaction:ASN:152>  (17) 
0

>  <hbond:TYR:161>  (17) 
0

>  <halogenbond:TYR:150>  (17) 
0

>  <hbond:ASP:75>  (17) 
0

>  <hbond:GLY:153>  (17) 
0

>  <hbond:VAL:36>  (17) 
0

>  <hbond:PRO:131>  (17) 
0

>  <hbond:VAL:52>  (17) 
0

>  <hydroph_interaction:ASP:83>  (17) 
0

>  <hydroph_interaction:MET:49>  (17) 
0

>  <hydroph_interaction:VAL:52>  (17) 
0

>  <saltbridge:ASP:83>  (17) 
0

>  <saltbridge:ASP:75>  (17) 
0

>  <hydroph_interaction:TRP:50>  (17) 
0

>  <hydroph_interaction:VAL:72>  (17) 
0

>  <hydroph_interaction:ASP:75>  (17) 
0

>  <halogenbond:ASN:152>  (17) 
0

>  <halogenbond:GLY:153>  (17) 
0

>  <halogenbond:TYR:130>  (17) 
0

>  <hbond:TYR:130>  (17) 
0

>  <halogenbond:ASP:75>  (17) 
0

>  <halogenbond:GLY:151>  (17) 
0

>  <hbond:TYR:150>  (17) 
0

>  <halogenbond:TYR:161>  (17) 
0

>  <hydroph_interaction:ASP:129>  (17) 
0

>  <hbond:ASP:129>  (17) 
0

>  <halogenbond:ALA:132>  (17) 
0

$$$$
PV-002261382778
     RDKit          3D

 23 24  0  0  0  0  0  0  0  0999 V2000
   -9.3300    3.3650   -9.2030 C   0  0  0  0  0  0  0  0  0  0  0  0
   -8.9990    4.1140  -10.3150 N   0  0  0  0  0  0  0  0  0  0  0  0
   -8.8650    5.4610  -10.4570 C   0  0  0  0  0  0  0  0  0  0  0  0
   -8.5340    5.8470  -11.6520 N   0  0  0  0  0  0  0  0  0  0  0  0
   -8.4300    4.7400  -12.3750 C   0  0  0  0  0  0  0  0  0  0  0  0
   -8.0810    4.7780  -13.7070 N   0  0  0  0  0  0  0  0  0  0  0  0
   -8.4100    5.7390  -14.6470 C   0  0  0  0  0  0  0  0  0  0  0  0
   -9.2360    6.7140  -14.1720 O   0  0  0  0  0  0  0  0  0  0  0  0
   -7.9110    5.6770  -15.9420 C   0  0  0  0  0  0  0  0  0  0  0  0
   -8.6460    4.9560  -16.9300 C   0  0  0  0  0  0  0  0  0  0  0  0
   -7.8660    5.1170  -18.0160 C   0  0  0  0  0  0  0  0  0  0  0  0
   -6.7350    5.8480  -17.8320 C   0  0  0  0  0  0  0  0  0  0  0  0
   -6.7400    6.2240  -16.5030 O   0  0  0  0  0  0  0  0  0  0  0  0
   -8.7180    3.6250  -11.5750 C   0  0  0  0  0  0  0  0  0  0  0  0
  -10.3950    3.1210   -9.1980 H   0  0  0  0  0  0  0  0  0  0  0  0
   -8.7680    2.4230   -9.2230 H   0  0  0  0  0  0  0  0  0  0  0  0
   -9.0850    3.9080   -8.2830 H   0  0  0  0  0  0  0  0  0  0  0  0
   -9.0520    6.0440   -9.5440 H   0  0  0  0  0  0  0  0  0  0  0  0
   -7.8000    3.8500  -14.0610 H   0  0  0  0  0  0  0  0  0  0  0  0
   -9.5830    4.4230  -16.8210 H   0  0  0  0  0  0  0  0  0  0  0  0
   -8.2430    4.6320  -18.9240 H   0  0  0  0  0  0  0  0  0  0  0  0
   -5.9160    6.1590  -18.4660 H   0  0  0  0  0  0  0  0  0  0  0  0
   -8.7380    2.5660  -11.8000 H   0  0  0  0  0  0  0  0  0  0  0  0
  1  2  1  0
  2  3  1  0
  3  4  2  0
  4  5  1  0
  5  6  1  0
  6  7  1  0
  7  8  2  0
  7  9  1  0
  9 10  2  0
 10 11  1  0
 11 12  2  0
 12 13  1  0
  5 14  2  0
 14  2  1  0
 13  9  1  0
  1 15  1  0
  1 16  1  0
  1 17  1  0
  3 18  1  0
  6 19  1  0
 10 20  1  0
 11 21  1  0
 12 22  1  0
 14 23  1  0
A    1
 C1 
A    2
 N1 
A    3
 C2 
A    4
 N2 
A    5
 C3 
A    6
 N3 
A    7
 C4 
A    8
 O1 
A    9
 C5 
A   10
 C6 
A   11
 C7 
A   12
 C8 
A   13
 O2 
A   14
 C9 
A   15
 H1 
A   16
 H2 
A   17
 H3 
A   18
 H4 
A   19
 H5 
A   20
 H6 
A   21
 H7 
A   22
 H8 
A   23
 H9 
M  END
>  <ref_pdb>  (18) 
x0051_0B

>  <ref_mols>  (18) 
x0404_0B,x0969_0B

>  <original SMILES>  (18) 
[H]c1oc(C(=O)N([H])c2nc([H])n(C([H])([H])[H])c2[H])c([H])c1[H]

>  <index>  (18) 
5952

>  <∆∆G>  (18) 
-5.501994

>  <comRMSD>  (18) 
0.189872

>  <N_constrained_atoms>  (18) 
14.0

>  <N_unconstrained_atoms>  (18) 
0.0

>  <LE>  (18) 
0.393

>  <percent_hybrid>  (18) 
0.0

>  <max_hit_Tanimoto>  (18) 
0.172414

>  <largest_ring>  (18) 
5

>  <N_interactions_kept>  (18) 
0.0

>  <N_interactions_lost>  (18) 
0.0

>  <interaction_uniqueness_metric>  (18) 
0.499661

>  <N_HA>  (18) 
14

>  <N_rotatable_bonds>  (18) 
3

>  <N_interactions>  (18) 
6

>  <N_PAINS>  (18) 
0

>  <UFF_Gibbs>  (18) 
64.884971

>  <strain_per_HA>  (18) 
4.634608

>  <ad_hoc_penalty>  (18) 
-45.837005

>  <cluster>  (18) 
800

>  <merger_rank>  (18) 
3

>  <pication:ARG:29>  (18) 
0

>  <hbond:HIS:51>  (18) 
0

>  <pistack:HIS:51>  (18) 
1

>  <hydroph_interaction:TYR:161>  (18) 
0

>  <pication:HIS:51>  (18) 
1

>  <hydroph_interaction:ALA:132>  (18) 
0

>  <hydroph_interaction:TYR:150>  (18) 
0

>  <hydroph_interaction:LYS:54>  (18) 
0

>  <hbond:SER:135>  (18) 
0

>  <hydroph_interaction:HIS:51>  (18) 
0

>  <hbond:ASP:83>  (18) 
0

>  <hbond:ALA:132>  (18) 
0

>  <halogenbond:SER:81>  (18) 
0

>  <hbond:GLY:82>  (18) 
0

>  <saltbridge:HIS:51>  (18) 
0

>  <pistack:TYR:161>  (18) 
1

>  <hbond:SER:81>  (18) 
0

>  <hbond:ASN:152>  (18) 
0

>  <hbond:GLY:151>  (18) 
0

>  <hydroph_interaction:ASN:152>  (18) 
0

>  <hbond:TYR:161>  (18) 
1

>  <halogenbond:TYR:150>  (18) 
0

>  <hbond:ASP:75>  (18) 
0

>  <hbond:GLY:153>  (18) 
0

>  <hbond:VAL:36>  (18) 
0

>  <hbond:PRO:131>  (18) 
0

>  <hbond:VAL:52>  (18) 
0

>  <hydroph_interaction:ASP:83>  (18) 
0

>  <hydroph_interaction:MET:49>  (18) 
0

>  <hydroph_interaction:VAL:52>  (18) 
0

>  <saltbridge:ASP:83>  (18) 
1

>  <saltbridge:ASP:75>  (18) 
1

>  <hydroph_interaction:TRP:50>  (18) 
0

>  <hydroph_interaction:VAL:72>  (18) 
0

>  <hydroph_interaction:ASP:75>  (18) 
0

>  <halogenbond:ASN:152>  (18) 
0

>  <halogenbond:GLY:153>  (18) 
0

>  <halogenbond:TYR:130>  (18) 
0

>  <hbond:TYR:130>  (18) 
0

>  <halogenbond:ASP:75>  (18) 
0

>  <halogenbond:GLY:151>  (18) 
0

>  <hbond:TYR:150>  (18) 
0

>  <halogenbond:TYR:161>  (18) 
0

>  <hydroph_interaction:ASP:129>  (18) 
0

>  <hbond:ASP:129>  (18) 
0

>  <halogenbond:ALA:132>  (18) 
0

$$$$
Z46027875
     RDKit          3D

 28 29  0  0  0  0  0  0  0  0999 V2000
  -10.7210    5.7260  -12.7950 O   0  0  0  0  0  0  0  0  0  0  0  0
   -9.5190    5.5010  -12.6460 C   0  0  0  0  0  0  0  0  0  0  0  0
   -8.6330    5.7010  -13.6660 C   0  0  0  0  0  0  0  0  0  0  0  0
   -9.2260    5.3540  -14.9130 C   0  0  0  0  0  0  0  0  0  0  0  0
   -8.3780    5.5180  -15.9900 C   0  0  0  0  0  0  0  0  0  0  0  0
   -7.0320    6.1620  -15.9190 C   0  0  0  0  0  0  0  0  0  0  0  0
   -6.1530    6.3030  -17.1560 C   0  0  0  0  0  0  0  0  0  0  0  0
   -6.7550    5.7800  -18.2730 C   0  0  0  0  0  0  0  0  0  0  0  0
   -8.0160    5.1710  -18.3680 C   0  0  0  0  0  0  0  0  0  0  0  0
   -8.8020    5.0480  -17.2400 C   0  0  0  0  0  0  0  0  0  0  0  0
   -9.0430    5.0360  -11.3240 C   0  0  0  0  0  0  0  0  0  0  0  0
   -8.0490    5.7640  -10.7600 C   0  0  0  0  0  0  0  0  0  0  0  0
   -7.5650    5.3810   -9.4540 C   0  0  0  0  0  0  0  0  0  0  0  0
   -8.1260    4.2820   -8.8080 C   0  0  0  0  0  0  0  0  0  0  0  0
   -7.5350    3.8040   -7.0800 Br  0  0  0  0  0  0  0  0  0  0  0  0
   -9.1330    3.5660   -9.4580 C   0  0  0  0  0  0  0  0  0  0  0  0
   -9.5930    3.9320  -10.7050 C   0  0  0  0  0  0  0  0  0  0  0  0
   -7.6180    6.0660  -13.5410 H   0  0  0  0  0  0  0  0  0  0  0  0
  -10.2430    4.9900  -15.0130 H   0  0  0  0  0  0  0  0  0  0  0  0
   -6.6720    6.5390  -14.9550 H   0  0  0  0  0  0  0  0  0  0  0  0
   -5.1710    6.7610  -17.1480 H   0  0  0  0  0  0  0  0  0  0  0  0
   -6.0900    5.9080  -19.1200 H   0  0  0  0  0  0  0  0  0  0  0  0
   -8.3970    4.7880  -19.3060 H   0  0  0  0  0  0  0  0  0  0  0  0
   -9.7810    4.5830  -17.2760 H   0  0  0  0  0  0  0  0  0  0  0  0
   -7.6350    6.6210  -11.2790 H   0  0  0  0  0  0  0  0  0  0  0  0
   -6.7770    5.9620   -8.9870 H   0  0  0  0  0  0  0  0  0  0  0  0
   -9.5800    2.6980   -8.9750 H   0  0  0  0  0  0  0  0  0  0  0  0
  -10.3850    3.3520  -11.1730 H   0  0  0  0  0  0  0  0  0  0  0  0
  1  2  2  0
  2  3  1  0
  3  4  2  3
  4  5  1  0
  5  6  2  0
  6  7  1  0
  7  8  2  0
  8  9  1  0
  9 10  2  0
  2 11  1  0
 11 12  2  0
 12 13  1  0
 13 14  2  0
 14 15  1  0
 14 16  1  0
 16 17  2  0
 10  5  1  0
 17 11  1  0
  3 18  1  0
  4 19  1  0
  6 20  1  0
  7 21  1  0
  8 22  1  0
  9 23  1  0
 10 24  1  0
 12 25  1  0
 13 26  1  0
 16 27  1  0
 17 28  1  0
A    1
 O1 
A    2
 C1 
A    3
 C2 
A    4
 C3 
A    5
 C4 
A    6
 C5 
A    7
 C6 
A    8
 C7 
A    9
 C8 
A   10
 C9 
A   11
 C10
A   12
 C11
A   13
 C12
A   14
 C13
A   15
BR1 
A   16
 C14
A   17
 C15
A   18
 H1 
A   19
 H2 
A   20
 H3 
A   21
 H4 
A   22
 H5 
A   23
 H6 
A   24
 H7 
A   25
 H8 
A   26
 H9 
A   27
 H10
A   28
 H11
M  END
>  <ref_pdb>  (19) 
x0051_0B

>  <ref_mols>  (19) 
x0404_0B,x0969_0B

>  <original SMILES>  (19) 
[H]C(C(=O)c1c([H])c([H])c(Br)c([H])c1[H])=C([H])c1c([H])c([H])c([H])c([H])c1[H]

>  <index>  (19) 
3385

>  <∆∆G>  (19) 
-5.540551

>  <comRMSD>  (19) 
0.351557

>  <N_constrained_atoms>  (19) 
16.0

>  <N_unconstrained_atoms>  (19) 
1.0

>  <LE>  (19) 
0.325915

>  <percent_hybrid>  (19) 
0.0

>  <max_hit_Tanimoto>  (19) 
0.415842

>  <largest_ring>  (19) 
6

>  <N_interactions_kept>  (19) 
0.0

>  <N_interactions_lost>  (19) 
0.0

>  <interaction_uniqueness_metric>  (19) 
0.208905

>  <N_HA>  (19) 
17

>  <N_rotatable_bonds>  (19) 
3

>  <N_interactions>  (19) 
7

>  <N_PAINS>  (19) 
0

>  <UFF_Gibbs>  (19) 
69.854662

>  <strain_per_HA>  (19) 
4.109074

>  <ad_hoc_penalty>  (19) 
-45.806524

>  <cluster>  (19) 
14

>  <merger_rank>  (19) 
2

>  <pication:ARG:29>  (19) 
0

>  <hbond:HIS:51>  (19) 
0

>  <pistack:HIS:51>  (19) 
1

>  <hydroph_interaction:TYR:161>  (19) 
2

>  <pication:HIS:51>  (19) 
0

>  <hydroph_interaction:ALA:132>  (19) 
1

>  <hydroph_interaction:TYR:150>  (19) 
0

>  <hydroph_interaction:LYS:54>  (19) 
0

>  <hbond:SER:135>  (19) 
1

>  <hydroph_interaction:HIS:51>  (19) 
1

>  <hbond:ASP:83>  (19) 
0

>  <hbond:ALA:132>  (19) 
0

>  <halogenbond:SER:81>  (19) 
1

>  <hbond:GLY:82>  (19) 
0

>  <saltbridge:HIS:51>  (19) 
0

>  <pistack:TYR:161>  (19) 
0

>  <hbond:SER:81>  (19) 
0

>  <hbond:ASN:152>  (19) 
0

>  <hbond:GLY:151>  (19) 
0

>  <hydroph_interaction:ASN:152>  (19) 
0

>  <hbond:TYR:161>  (19) 
0

>  <halogenbond:TYR:150>  (19) 
0

>  <hbond:ASP:75>  (19) 
0

>  <hbond:GLY:153>  (19) 
0

>  <hbond:VAL:36>  (19) 
0

>  <hbond:PRO:131>  (19) 
0

>  <hbond:VAL:52>  (19) 
0

>  <hydroph_interaction:ASP:83>  (19) 
0

>  <hydroph_interaction:MET:49>  (19) 
0

>  <hydroph_interaction:VAL:52>  (19) 
0

>  <saltbridge:ASP:83>  (19) 
0

>  <saltbridge:ASP:75>  (19) 
0

>  <hydroph_interaction:TRP:50>  (19) 
0

>  <hydroph_interaction:VAL:72>  (19) 
0

>  <hydroph_interaction:ASP:75>  (19) 
0

>  <halogenbond:ASN:152>  (19) 
0

>  <halogenbond:GLY:153>  (19) 
0

>  <halogenbond:TYR:130>  (19) 
0

>  <hbond:TYR:130>  (19) 
0

>  <halogenbond:ASP:75>  (19) 
0

>  <halogenbond:GLY:151>  (19) 
0

>  <hbond:TYR:150>  (19) 
0

>  <halogenbond:TYR:161>  (19) 
0

>  <hydroph_interaction:ASP:129>  (19) 
0

>  <hbond:ASP:129>  (19) 
0

>  <halogenbond:ALA:132>  (19) 
0

$$$$
PV-002871796689
     RDKit          3D

 22 24  0  0  0  0  0  0  0  0999 V2000
   -9.4640    2.8210   -8.0030 Cl  0  0  0  0  0  0  0  0  0  0  0  0
   -9.2330    3.5680   -9.5400 C   0  0  0  0  0  0  0  0  0  0  0  0
   -9.4120    2.8260  -10.6800 C   0  0  0  0  0  0  0  0  0  0  0  0
   -9.2690    3.3450  -12.0600 C   0  0  0  0  0  0  0  0  0  0  0  0
   -8.9100    4.7660  -12.0450 C   0  0  0  0  0  0  0  0  0  0  0  0
   -8.6820    5.7030  -13.2050 C   0  0  0  0  0  0  0  0  0  0  0  0
   -8.8060    5.3250  -14.6910 C   0  0  0  0  0  0  0  0  0  0  0  0
   -7.6230    5.0120  -15.4960 C   0  0  0  0  0  0  0  0  0  0  0  0
   -8.1940    4.7320  -16.8630 C   0  0  0  0  0  0  0  0  0  0  0  0
   -9.5550    4.8700  -16.8120 C   0  0  0  0  0  0  0  0  0  0  0  0
   -9.9300    5.2270  -15.5180 O   0  0  0  0  0  0  0  0  0  0  0  0
   -8.3460    6.9790  -12.6310 N   0  0  0  0  0  0  0  0  0  0  0  0
   -8.3980    6.7500  -11.2870 N   0  0  0  0  0  0  0  0  0  0  0  0
   -8.7250    5.4870  -10.8810 C   0  0  0  0  0  0  0  0  0  0  0  0
   -8.8750    4.9270   -9.6190 C   0  0  0  0  0  0  0  0  0  0  0  0
   -9.6810    1.7930  -10.5630 H   0  0  0  0  0  0  0  0  0  0  0  0
   -9.4130    2.7620  -12.9390 H   0  0  0  0  0  0  0  0  0  0  0  0
   -6.5870    4.9900  -15.2010 H   0  0  0  0  0  0  0  0  0  0  0  0
   -7.6340    4.4640  -17.7450 H   0  0  0  0  0  0  0  0  0  0  0  0
  -10.3560    4.7660  -17.5320 H   0  0  0  0  0  0  0  0  0  0  0  0
   -8.1930    7.5370  -10.6830 H   0  0  0  0  0  0  0  0  0  0  0  0
   -8.7270    5.5170   -8.7200 H   0  0  0  0  0  0  0  0  0  0  0  0
  1  2  1  0
  2  3  2  0
  3  4  1  0
  4  5  2  0
  5  6  1  0
  6  7  1  0
  7  8  2  0
  8  9  1  0
  9 10  2  0
 10 11  1  0
  6 12  2  0
 12 13  1  0
 13 14  1  0
 14 15  2  0
 15  2  1  0
 14  5  1  0
 11  7  1  0
  3 16  1  0
  4 17  1  0
  8 18  1  0
  9 19  1  0
 10 20  1  0
 13 21  1  0
 15 22  1  0
A    1
CL1 
A    2
 C1 
A    3
 C2 
A    4
 C3 
A    5
 C4 
A    6
 C5 
A    7
 C6 
A    8
 C7 
A    9
 C8 
A   10
 C9 
A   11
 O1 
A   12
 N1 
A   13
 N2 
A   14
 C10
A   15
 C11
A   16
 H1 
A   17
 H2 
A   18
 H3 
A   19
 H4 
A   20
 H5 
A   21
 H6 
A   22
 H7 
M  END
>  <ref_pdb>  (20) 
x0051_0B

>  <ref_mols>  (20) 
x0969_1B,x0553_0B

>  <original SMILES>  (20) 
[H]c1oc(-c2nn([H])c3c([H])c(Cl)c([H])c([H])c23)c([H])c1[H]

>  <index>  (20) 
1332

>  <∆∆G>  (20) 
-3.483638

>  <comRMSD>  (20) 
0.333422

>  <N_constrained_atoms>  (20) 
14.0

>  <N_unconstrained_atoms>  (20) 
1.0

>  <LE>  (20) 
0.232243

>  <percent_hybrid>  (20) 
0.0

>  <max_hit_Tanimoto>  (20) 
0.418719

>  <largest_ring>  (20) 
6

>  <N_interactions_kept>  (20) 
0.0

>  <N_interactions_lost>  (20) 
0.0

>  <interaction_uniqueness_metric>  (20) 
0.264942

>  <N_HA>  (20) 
15

>  <N_rotatable_bonds>  (20) 
1

>  <N_interactions>  (20) 
7

>  <N_PAINS>  (20) 
0

>  <UFF_Gibbs>  (20) 
70.191711

>  <strain_per_HA>  (20) 
4.679416

>  <ad_hoc_penalty>  (20) 
-45.789057

>  <cluster>  (20) 
3871

>  <merger_rank>  (20) 
1

>  <pication:ARG:29>  (20) 
0

>  <hbond:HIS:51>  (20) 
0

>  <pistack:HIS:51>  (20) 
2

>  <hydroph_interaction:TYR:161>  (20) 
2

>  <pication:HIS:51>  (20) 
0

>  <hydroph_interaction:ALA:132>  (20) 
0

>  <hydroph_interaction:TYR:150>  (20) 
0

>  <hydroph_interaction:LYS:54>  (20) 
0

>  <hbond:SER:135>  (20) 
0

>  <hydroph_interaction:HIS:51>  (20) 
1

>  <hbond:ASP:83>  (20) 
0

>  <hbond:ALA:132>  (20) 
0

>  <halogenbond:SER:81>  (20) 
1

>  <hbond:GLY:82>  (20) 
0

>  <saltbridge:HIS:51>  (20) 
0

>  <pistack:TYR:161>  (20) 
0

>  <hbond:SER:81>  (20) 
0

>  <hbond:ASN:152>  (20) 
0

>  <hbond:GLY:151>  (20) 
0

>  <hydroph_interaction:ASN:152>  (20) 
1

>  <hbond:TYR:161>  (20) 
0

>  <halogenbond:TYR:150>  (20) 
0

>  <hbond:ASP:75>  (20) 
0

>  <hbond:GLY:153>  (20) 
0

>  <hbond:VAL:36>  (20) 
0

>  <hbond:PRO:131>  (20) 
0

>  <hbond:VAL:52>  (20) 
0

>  <hydroph_interaction:ASP:83>  (20) 
0

>  <hydroph_interaction:MET:49>  (20) 
0

>  <hydroph_interaction:VAL:52>  (20) 
0

>  <saltbridge:ASP:83>  (20) 
0

>  <saltbridge:ASP:75>  (20) 
0

>  <hydroph_interaction:TRP:50>  (20) 
0

>  <hydroph_interaction:VAL:72>  (20) 
0

>  <hydroph_interaction:ASP:75>  (20) 
0

>  <halogenbond:ASN:152>  (20) 
0

>  <halogenbond:GLY:153>  (20) 
0

>  <halogenbond:TYR:130>  (20) 
0

>  <hbond:TYR:130>  (20) 
0

>  <halogenbond:ASP:75>  (20) 
0

>  <halogenbond:GLY:151>  (20) 
0

>  <hbond:TYR:150>  (20) 
0

>  <halogenbond:TYR:161>  (20) 
0

>  <hydroph_interaction:ASP:129>  (20) 
0

>  <hbond:ASP:129>  (20) 
0

>  <halogenbond:ALA:132>  (20) 
0

$$$$
PV-002397904754
     RDKit          3D

 25 27  0  0  0  0  0  0  0  0999 V2000
   -7.4620    7.5620  -15.0570 O   0  0  0  0  0  0  0  0  0  0  0  0
   -8.1120    6.5450  -14.8410 C   0  0  0  0  0  0  0  0  0  0  0  0
   -8.7030    5.7570  -15.7890 N   0  0  0  0  0  0  0  0  0  0  0  0
   -8.2390    5.5220  -17.0380 C   0  0  0  0  0  0  0  0  0  0  0  0
   -9.1250    4.7440  -17.9270 C   0  0  0  0  0  0  0  0  0  0  0  0
   -8.4860    4.4850  -19.5090 S   0  0  0  0  0  0  0  0  0  0  0  0
   -6.9940    5.4080  -19.0470 C   0  0  0  0  0  0  0  0  0  0  0  0
   -7.0370    5.8740  -17.7300 C   0  0  0  0  0  0  0  0  0  0  0  0
   -8.3440    6.0080  -13.5230 C   0  0  0  0  0  0  0  0  0  0  0  0
   -8.4780    4.6760  -13.1930 C   0  0  0  0  0  0  0  0  0  0  0  0
   -8.6980    4.6360  -11.7110 C   0  0  0  0  0  0  0  0  0  0  0  0
   -8.8630    3.4740  -11.0850 N   0  0  0  0  0  0  0  0  0  0  0  0
   -9.0570    3.4740   -9.7420 C   0  0  0  0  0  0  0  0  0  0  0  0
   -9.0850    4.6770   -9.0000 C   0  0  0  0  0  0  0  0  0  0  0  0
   -8.9090    5.8830   -9.6990 C   0  0  0  0  0  0  0  0  0  0  0  0
   -8.7190    5.8400  -11.0500 C   0  0  0  0  0  0  0  0  0  0  0  0
   -8.4780    7.0950  -12.1820 S   0  0  0  0  0  0  0  0  0  0  0  0
   -9.3500    5.0390  -15.4970 H   0  0  0  0  0  0  0  0  0  0  0  0
  -10.0980    4.3690  -17.6150 H   0  0  0  0  0  0  0  0  0  0  0  0
   -6.1010    5.6390  -19.6410 H   0  0  0  0  0  0  0  0  0  0  0  0
   -6.1520    6.4400  -17.4130 H   0  0  0  0  0  0  0  0  0  0  0  0
   -8.4320    3.8330  -13.8660 H   0  0  0  0  0  0  0  0  0  0  0  0
   -9.1840    2.4940   -9.2970 H   0  0  0  0  0  0  0  0  0  0  0  0
   -9.2370    4.6920   -7.9290 H   0  0  0  0  0  0  0  0  0  0  0  0
   -8.9260    6.8270   -9.1640 H   0  0  0  0  0  0  0  0  0  0  0  0
  1  2  2  0
  2  3  1  0
  3  4  1  0
  4  5  2  0
  5  6  1  0
  6  7  1  0
  7  8  2  0
  2  9  1  0
  9 10  2  0
 10 11  1  0
 11 12  2  0
 12 13  1  0
 13 14  2  0
 14 15  1  0
 15 16  2  0
 16 17  1  0
  8  4  1  0
 17  9  1  0
 16 11  1  0
  3 18  1  0
  5 19  1  0
  7 20  1  0
  8 21  1  0
 10 22  1  0
 13 23  1  0
 14 24  1  0
 15 25  1  0
A    1
 O1 
A    2
 C1 
A    3
 N1 
A    4
 C2 
A    5
 C3 
A    6
 S1 
A    7
 C4 
A    8
 C5 
A    9
 C6 
A   10
 C7 
A   11
 C8 
A   12
 N2 
A   13
 C9 
A   14
 C10
A   15
 C11
A   16
 C12
A   17
 S2 
A   18
 H1 
A   19
 H2 
A   20
 H3 
A   21
 H4 
A   22
 H5 
A   23
 H6 
A   24
 H7 
A   25
 H8 
M  END
>  <ref_pdb>  (21) 
x0051_0B

>  <ref_mols>  (21) 
x0404_0B,x0969_0B

>  <original SMILES>  (21) 
[H]c1nc2c([H])c(C(=O)N([H])c3c([H])sc([H])c3[H])sc2c([H])c1[H]

>  <index>  (21) 
4683

>  <∆∆G>  (21) 
-6.165538

>  <comRMSD>  (21) 
0.251578

>  <N_constrained_atoms>  (21) 
18.0

>  <N_unconstrained_atoms>  (21) 
0.0

>  <LE>  (21) 
0.34253

>  <percent_hybrid>  (21) 
0.0

>  <max_hit_Tanimoto>  (21) 
0.327987

>  <largest_ring>  (21) 
6

>  <N_interactions_kept>  (21) 
0.0

>  <N_interactions_lost>  (21) 
0.0

>  <interaction_uniqueness_metric>  (21) 
0.136283

>  <N_HA>  (21) 
17

>  <N_rotatable_bonds>  (21) 
2

>  <N_interactions>  (21) 
6

>  <N_PAINS>  (21) 
0

>  <UFF_Gibbs>  (21) 
58.262965

>  <strain_per_HA>  (21) 
3.427213

>  <ad_hoc_penalty>  (21) 
-45.723055

>  <cluster>  (21) 
1589

>  <merger_rank>  (21) 
3

>  <pication:ARG:29>  (21) 
0

>  <hbond:HIS:51>  (21) 
0

>  <pistack:HIS:51>  (21) 
2

>  <hydroph_interaction:TYR:161>  (21) 
0

>  <pication:HIS:51>  (21) 
0

>  <hydroph_interaction:ALA:132>  (21) 
1

>  <hydroph_interaction:TYR:150>  (21) 
0

>  <hydroph_interaction:LYS:54>  (21) 
0

>  <hbond:SER:135>  (21) 
0

>  <hydroph_interaction:HIS:51>  (21) 
1

>  <hbond:ASP:83>  (21) 
0

>  <hbond:ALA:132>  (21) 
0

>  <halogenbond:SER:81>  (21) 
0

>  <hbond:GLY:82>  (21) 
0

>  <saltbridge:HIS:51>  (21) 
0

>  <pistack:TYR:161>  (21) 
1

>  <hbond:SER:81>  (21) 
0

>  <hbond:ASN:152>  (21) 
0

>  <hbond:GLY:151>  (21) 
1

>  <hydroph_interaction:ASN:152>  (21) 
0

>  <hbond:TYR:161>  (21) 
0

>  <halogenbond:TYR:150>  (21) 
0

>  <hbond:ASP:75>  (21) 
0

>  <hbond:GLY:153>  (21) 
0

>  <hbond:VAL:36>  (21) 
0

>  <hbond:PRO:131>  (21) 
0

>  <hbond:VAL:52>  (21) 
0

>  <hydroph_interaction:ASP:83>  (21) 
0

>  <hydroph_interaction:MET:49>  (21) 
0

>  <hydroph_interaction:VAL:52>  (21) 
0

>  <saltbridge:ASP:83>  (21) 
0

>  <saltbridge:ASP:75>  (21) 
0

>  <hydroph_interaction:TRP:50>  (21) 
0

>  <hydroph_interaction:VAL:72>  (21) 
0

>  <hydroph_interaction:ASP:75>  (21) 
0

>  <halogenbond:ASN:152>  (21) 
0

>  <halogenbond:GLY:153>  (21) 
0

>  <halogenbond:TYR:130>  (21) 
0

>  <hbond:TYR:130>  (21) 
0

>  <halogenbond:ASP:75>  (21) 
0

>  <halogenbond:GLY:151>  (21) 
0

>  <hbond:TYR:150>  (21) 
0

>  <halogenbond:TYR:161>  (21) 
0

>  <hydroph_interaction:ASP:129>  (21) 
0

>  <hbond:ASP:129>  (21) 
0

>  <halogenbond:ALA:132>  (21) 
0

$$$$
PV-005121990041
     RDKit          3D

 30 32  0  0  0  0  0  0  0  0999 V2000
   -9.6940    4.4320  -18.9880 C   0  0  0  0  0  0  0  0  0  0  0  0
   -8.7390    5.0400  -18.0120 C   0  0  0  0  0  0  0  0  0  0  0  0
   -7.5240    5.6540  -18.6020 C   0  0  0  0  0  0  0  0  0  0  0  0
   -6.5920    6.2480  -17.8030 C   0  0  0  0  0  0  0  0  0  0  0  0
   -6.9410    6.1940  -16.3590 C   0  0  0  0  0  0  0  0  0  0  0  0
   -8.0880    5.6030  -15.8770 C   0  0  0  0  0  0  0  0  0  0  0  0
   -8.3030    5.6070  -14.4040 C   0  0  0  0  0  0  0  0  0  0  0  0
   -8.5800    6.7620  -13.5360 C   0  0  0  0  0  0  0  0  0  0  0  0
   -8.7640    6.7060  -12.1450 N   0  0  0  0  0  0  0  0  0  0  0  0
   -8.6510    5.3920  -11.6710 C   0  0  0  0  0  0  0  0  0  0  0  0
   -8.7890    5.1200  -10.3110 C   0  0  0  0  0  0  0  0  0  0  0  0
   -8.5700    6.0990   -9.3960 N   0  0  0  0  0  0  0  0  0  0  0  0
   -8.7070    5.7500   -8.0970 C   0  0  0  0  0  0  0  0  0  0  0  0
   -9.0790    4.3750   -7.6530 C   0  0  0  0  0  0  0  0  0  0  0  0
   -9.2690    3.5040   -8.7150 C   0  0  0  0  0  0  0  0  0  0  0  0
   -9.1290    3.8600  -10.0070 N   0  0  0  0  0  0  0  0  0  0  0  0
   -8.4090    4.3030  -12.4070 N   0  0  0  0  0  0  0  0  0  0  0  0
   -8.2490    4.4530  -13.7090 C   0  0  0  0  0  0  0  0  0  0  0  0
   -9.0020    5.0190  -16.6930 N   0  0  0  0  0  0  0  0  0  0  0  0
   -9.5460    4.8400  -19.9950 H   0  0  0  0  0  0  0  0  0  0  0  0
  -10.7320    4.6300  -18.6930 H   0  0  0  0  0  0  0  0  0  0  0  0
   -9.5460    3.3510  -19.0270 H   0  0  0  0  0  0  0  0  0  0  0  0
   -7.3840    5.6290  -19.6770 H   0  0  0  0  0  0  0  0  0  0  0  0
   -5.7000    6.7020  -18.2240 H   0  0  0  0  0  0  0  0  0  0  0  0
   -6.1940    6.6690  -15.7130 H   0  0  0  0  0  0  0  0  0  0  0  0
   -8.6230    7.6870  -14.1210 H   0  0  0  0  0  0  0  0  0  0  0  0
   -8.5260    6.5460   -7.3810 H   0  0  0  0  0  0  0  0  0  0  0  0
   -9.1900    4.0840   -6.6120 H   0  0  0  0  0  0  0  0  0  0  0  0
   -9.5440    2.4660   -8.5500 H   0  0  0  0  0  0  0  0  0  0  0  0
   -8.0620    3.5360  -14.2030 H   0  0  0  0  0  0  0  0  0  0  0  0
  1  2  1  0
  2  3  2  0
  3  4  1  0
  4  5  2  0
  5  6  1  0
  6  7  1  0
  7  8  2  0
  8  9  1  0
  9 10  2  0
 10 11  1  0
 11 12  2  0
 12 13  1  0
 13 14  2  0
 14 15  1  0
 15 16  2  0
 10 17  1  0
 17 18  2  0
  6 19  2  0
 19  2  1  0
 18  7  1  0
 16 11  1  0
  1 20  1  0
  1 21  1  0
  1 22  1  0
  3 23  1  0
  4 24  1  0
  5 25  1  0
  8 26  1  0
 13 27  1  0
 14 28  1  0
 15 29  1  0
 18 30  1  0
A    1
 C1 
A    2
 C2 
A    3
 C3 
A    4
 C4 
A    5
 C5 
A    6
 C6 
A    7
 C7 
A    8
 C8 
A    9
 N1 
A   10
 C9 
A   11
 C10
A   12
 N2 
A   13
 C11
A   14
 C12
A   15
 C13
A   16
 N3 
A   17
 N4 
A   18
 C14
A   19
 N5 
A   20
 H1 
A   21
 H2 
A   22
 H3 
A   23
 H4 
A   24
 H5 
A   25
 H6 
A   26
 H7 
A   27
 H8 
A   28
 H9 
A   29
 H10
A   30
 H11
M  END
>  <ref_pdb>  (22) 
x0051_0B

>  <ref_mols>  (22) 
x0404_0B,x0969_0B

>  <original SMILES>  (22) 
[H]c1nc(-c2nc([H])c(-c3nc(C([H])([H])[H])c([H])c([H])c3[H])c([H])n2)nc([H])c1[H]

>  <index>  (22) 
4347

>  <∆∆G>  (22) 
-5.410538

>  <comRMSD>  (22) 
0.279393

>  <N_constrained_atoms>  (22) 
18.0

>  <N_unconstrained_atoms>  (22) 
1.0

>  <LE>  (22) 
0.284765

>  <percent_hybrid>  (22) 
0.0

>  <max_hit_Tanimoto>  (22) 
0.282579

>  <largest_ring>  (22) 
6

>  <N_interactions_kept>  (22) 
0.0

>  <N_interactions_lost>  (22) 
0.0

>  <interaction_uniqueness_metric>  (22) 
0.171191

>  <N_HA>  (22) 
19

>  <N_rotatable_bonds>  (22) 
3

>  <N_interactions>  (22) 
7

>  <N_PAINS>  (22) 
0

>  <UFF_Gibbs>  (22) 
63.88006

>  <strain_per_HA>  (22) 
3.362091

>  <ad_hoc_penalty>  (22) 
-45.675921

>  <cluster>  (22) 
1833

>  <merger_rank>  (22) 
2

>  <pication:ARG:29>  (22) 
0

>  <hbond:HIS:51>  (22) 
0

>  <pistack:HIS:51>  (22) 
1

>  <hydroph_interaction:TYR:161>  (22) 
2

>  <pication:HIS:51>  (22) 
0

>  <hydroph_interaction:ALA:132>  (22) 
1

>  <hydroph_interaction:TYR:150>  (22) 
1

>  <hydroph_interaction:LYS:54>  (22) 
0

>  <hbond:SER:135>  (22) 
0

>  <hydroph_interaction:HIS:51>  (22) 
1

>  <hbond:ASP:83>  (22) 
0

>  <hbond:ALA:132>  (22) 
0

>  <halogenbond:SER:81>  (22) 
0

>  <hbond:GLY:82>  (22) 
0

>  <saltbridge:HIS:51>  (22) 
0

>  <pistack:TYR:161>  (22) 
0

>  <hbond:SER:81>  (22) 
0

>  <hbond:ASN:152>  (22) 
0

>  <hbond:GLY:151>  (22) 
0

>  <hydroph_interaction:ASN:152>  (22) 
0

>  <hbond:TYR:161>  (22) 
1

>  <halogenbond:TYR:150>  (22) 
0

>  <hbond:ASP:75>  (22) 
0

>  <hbond:GLY:153>  (22) 
0

>  <hbond:VAL:36>  (22) 
0

>  <hbond:PRO:131>  (22) 
0

>  <hbond:VAL:52>  (22) 
0

>  <hydroph_interaction:ASP:83>  (22) 
0

>  <hydroph_interaction:MET:49>  (22) 
0

>  <hydroph_interaction:VAL:52>  (22) 
0

>  <saltbridge:ASP:83>  (22) 
0

>  <saltbridge:ASP:75>  (22) 
0

>  <hydroph_interaction:TRP:50>  (22) 
0

>  <hydroph_interaction:VAL:72>  (22) 
0

>  <hydroph_interaction:ASP:75>  (22) 
0

>  <halogenbond:ASN:152>  (22) 
0

>  <halogenbond:GLY:153>  (22) 
0

>  <halogenbond:TYR:130>  (22) 
0

>  <hbond:TYR:130>  (22) 
0

>  <halogenbond:ASP:75>  (22) 
0

>  <halogenbond:GLY:151>  (22) 
0

>  <hbond:TYR:150>  (22) 
0

>  <halogenbond:TYR:161>  (22) 
0

>  <hydroph_interaction:ASP:129>  (22) 
0

>  <hbond:ASP:129>  (22) 
0

>  <halogenbond:ALA:132>  (22) 
0

$$$$
PV-002324867558
     RDKit          3D

 23 24  0  0  0  0  0  0  0  0999 V2000
   -9.3080    3.2520   -9.3510 C   0  0  0  0  0  0  0  0  0  0  0  0
   -8.9930    4.0800  -10.4120 N   0  0  0  0  0  0  0  0  0  0  0  0
   -8.9390    5.4600  -10.4400 C   0  0  0  0  0  0  0  0  0  0  0  0
   -8.6080    6.0320  -11.5720 N   0  0  0  0  0  0  0  0  0  0  0  0
   -8.4300    4.8850  -12.3380 C   0  0  0  0  0  0  0  0  0  0  0  0
   -8.0560    4.8900  -13.6320 N   0  0  0  0  0  0  0  0  0  0  0  0
   -8.5540    5.7940  -14.4540 C   0  0  0  0  0  0  0  0  0  0  0  0
   -9.4330    6.7680  -14.0690 O   0  0  0  0  0  0  0  0  0  0  0  0
   -8.0460    5.6770  -15.8590 C   0  0  0  0  0  0  0  0  0  0  0  0
   -8.8210    5.0600  -16.8640 C   0  0  0  0  0  0  0  0  0  0  0  0
   -8.0740    5.0940  -18.1320 C   0  0  0  0  0  0  0  0  0  0  0  0
   -6.8310    5.6790  -18.1220 C   0  0  0  0  0  0  0  0  0  0  0  0
   -6.4830    6.2440  -16.5210 S   0  0  0  0  0  0  0  0  0  0  0  0
   -8.6570    3.6890  -11.6870 C   0  0  0  0  0  0  0  0  0  0  0  0
   -8.8870    2.2580   -9.4510 H   0  0  0  0  0  0  0  0  0  0  0  0
  -10.3730    3.2500   -9.1750 H   0  0  0  0  0  0  0  0  0  0  0  0
   -8.8540    3.6820   -8.4540 H   0  0  0  0  0  0  0  0  0  0  0  0
   -9.1860    5.9340   -9.4850 H   0  0  0  0  0  0  0  0  0  0  0  0
   -7.1190    4.5500  -13.7510 H   0  0  0  0  0  0  0  0  0  0  0  0
   -9.8190    4.5990  -16.8350 H   0  0  0  0  0  0  0  0  0  0  0  0
   -8.4870    4.6740  -19.0420 H   0  0  0  0  0  0  0  0  0  0  0  0
   -6.1610    5.7830  -18.9670 H   0  0  0  0  0  0  0  0  0  0  0  0
   -8.5960    2.6650  -12.0390 H   0  0  0  0  0  0  0  0  0  0  0  0
  1  2  1  0
  2  3  1  0
  3  4  2  0
  4  5  1  0
  5  6  1  0
  6  7  1  0
  7  8  2  0
  7  9  1  0
  9 10  2  0
 10 11  1  0
 11 12  2  0
 12 13  1  0
  5 14  2  0
 14  2  1  0
 13  9  1  0
  1 15  1  0
  1 16  1  0
  1 17  1  0
  3 18  1  0
  6 19  1  0
 10 20  1  0
 11 21  1  0
 12 22  1  0
 14 23  1  0
A    1
 C1 
A    2
 N1 
A    3
 C2 
A    4
 N2 
A    5
 C3 
A    6
 N3 
A    7
 C4 
A    8
 O1 
A    9
 C5 
A   10
 C6 
A   11
 C7 
A   12
 C8 
A   13
 S1 
A   14
 C9 
A   15
 H1 
A   16
 H2 
A   17
 H3 
A   18
 H4 
A   19
 H5 
A   20
 H6 
A   21
 H7 
A   22
 H8 
A   23
 H9 
M  END
>  <ref_pdb>  (23) 
x0051_0B

>  <ref_mols>  (23) 
x0404_0B,x0969_0B

>  <original SMILES>  (23) 
[H]c1sc(C(=O)N([H])c2nc([H])n(C([H])([H])[H])c2[H])c([H])c1[H]

>  <index>  (23) 
5907

>  <∆∆G>  (23) 
-5.544231

>  <comRMSD>  (23) 
0.162686

>  <N_constrained_atoms>  (23) 
14.0

>  <N_unconstrained_atoms>  (23) 
0.0

>  <LE>  (23) 
0.396017

>  <percent_hybrid>  (23) 
0.0

>  <max_hit_Tanimoto>  (23) 
0.205845

>  <largest_ring>  (23) 
5

>  <N_interactions_kept>  (23) 
0.0

>  <N_interactions_lost>  (23) 
0.0

>  <interaction_uniqueness_metric>  (23) 
0.490791

>  <N_HA>  (23) 
14

>  <N_rotatable_bonds>  (23) 
3

>  <N_interactions>  (23) 
6

>  <N_PAINS>  (23) 
0

>  <UFF_Gibbs>  (23) 
68.430498

>  <strain_per_HA>  (23) 
4.887858

>  <ad_hoc_penalty>  (23) 
-45.56651

>  <cluster>  (23) 
813

>  <merger_rank>  (23) 
4

>  <pication:ARG:29>  (23) 
0

>  <hbond:HIS:51>  (23) 
0

>  <pistack:HIS:51>  (23) 
1

>  <hydroph_interaction:TYR:161>  (23) 
1

>  <pication:HIS:51>  (23) 
1

>  <hydroph_interaction:ALA:132>  (23) 
0

>  <hydroph_interaction:TYR:150>  (23) 
0

>  <hydroph_interaction:LYS:54>  (23) 
0

>  <hbond:SER:135>  (23) 
0

>  <hydroph_interaction:HIS:51>  (23) 
0

>  <hbond:ASP:83>  (23) 
0

>  <hbond:ALA:132>  (23) 
0

>  <halogenbond:SER:81>  (23) 
0

>  <hbond:GLY:82>  (23) 
0

>  <saltbridge:HIS:51>  (23) 
0

>  <pistack:TYR:161>  (23) 
0

>  <hbond:SER:81>  (23) 
0

>  <hbond:ASN:152>  (23) 
0

>  <hbond:GLY:151>  (23) 
0

>  <hydroph_interaction:ASN:152>  (23) 
0

>  <hbond:TYR:161>  (23) 
1

>  <halogenbond:TYR:150>  (23) 
0

>  <hbond:ASP:75>  (23) 
0

>  <hbond:GLY:153>  (23) 
0

>  <hbond:VAL:36>  (23) 
0

>  <hbond:PRO:131>  (23) 
0

>  <hbond:VAL:52>  (23) 
0

>  <hydroph_interaction:ASP:83>  (23) 
0

>  <hydroph_interaction:MET:49>  (23) 
0

>  <hydroph_interaction:VAL:52>  (23) 
0

>  <saltbridge:ASP:83>  (23) 
1

>  <saltbridge:ASP:75>  (23) 
1

>  <hydroph_interaction:TRP:50>  (23) 
0

>  <hydroph_interaction:VAL:72>  (23) 
0

>  <hydroph_interaction:ASP:75>  (23) 
0

>  <halogenbond:ASN:152>  (23) 
0

>  <halogenbond:GLY:153>  (23) 
0

>  <halogenbond:TYR:130>  (23) 
0

>  <hbond:TYR:130>  (23) 
0

>  <halogenbond:ASP:75>  (23) 
0

>  <halogenbond:GLY:151>  (23) 
0

>  <hbond:TYR:150>  (23) 
0

>  <halogenbond:TYR:161>  (23) 
0

>  <hydroph_interaction:ASP:129>  (23) 
0

>  <hbond:ASP:129>  (23) 
0

>  <halogenbond:ALA:132>  (23) 
0

$$$$
Z2193648280
     RDKit          3D

 26 27  0  0  0  0  0  0  0  0999 V2000
   -9.2290    3.4970   -7.9480 C   0  0  0  0  0  0  0  0  0  0  0  0
   -9.0700    4.3390   -9.0420 N   0  0  0  0  0  0  0  0  0  0  0  0
   -9.1030    3.9700  -10.3320 C   0  0  0  0  0  0  0  0  0  0  0  0
   -8.8980    5.1490  -11.1270 C   0  0  0  0  0  0  0  0  0  0  0  0
   -8.8720    5.1540  -12.4960 N   0  0  0  0  0  0  0  0  0  0  0  0
   -8.9690    6.3020  -13.1520 C   0  0  0  0  0  0  0  0  0  0  0  0
   -9.5570    7.2710  -12.6820 O   0  0  0  0  0  0  0  0  0  0  0  0
   -8.3810    6.4920  -14.4440 C   0  0  0  0  0  0  0  0  0  0  0  0
   -8.5330    5.4950  -15.4690 C   0  0  0  0  0  0  0  0  0  0  0  0
   -8.0700    5.4710  -16.7660 C   0  0  0  0  0  0  0  0  0  0  0  0
   -8.9240    4.8840  -17.6930 C   0  0  0  0  0  0  0  0  0  0  0  0
   -8.3950    4.8890  -19.0320 C   0  0  0  0  0  0  0  0  0  0  0  0
   -7.1650    5.4670  -19.1370 C   0  0  0  0  0  0  0  0  0  0  0  0
   -6.6240    6.0200  -17.5800 S   0  0  0  0  0  0  0  0  0  0  0  0
   -8.7410    6.2110  -10.2780 N   0  0  0  0  0  0  0  0  0  0  0  0
   -8.8490    5.7000   -8.9980 N   0  0  0  0  0  0  0  0  0  0  0  0
  -10.1670    3.6690   -7.4170 H   0  0  0  0  0  0  0  0  0  0  0  0
   -9.1990    2.4430   -8.2500 H   0  0  0  0  0  0  0  0  0  0  0  0
   -8.4030    3.6760   -7.2520 H   0  0  0  0  0  0  0  0  0  0  0  0
   -9.2630    2.9450  -10.6830 H   0  0  0  0  0  0  0  0  0  0  0  0
   -9.2750    4.3760  -13.0260 H   0  0  0  0  0  0  0  0  0  0  0  0
   -7.8420    7.4310  -14.5540 H   0  0  0  0  0  0  0  0  0  0  0  0
   -9.1240    4.6580  -15.0860 H   0  0  0  0  0  0  0  0  0  0  0  0
   -9.8730    4.4930  -17.3150 H   0  0  0  0  0  0  0  0  0  0  0  0
   -8.9200    4.4720  -19.8970 H   0  0  0  0  0  0  0  0  0  0  0  0
   -6.6790    5.5200  -20.1160 H   0  0  0  0  0  0  0  0  0  0  0  0
  1  2  1  0
  2  3  1  0
  3  4  2  0
  4  5  1  0
  5  6  1  0
  6  7  2  0
  6  8  1  0
  8  9  2  3
  9 10  1  0
 10 11  2  0
 11 12  1  0
 12 13  2  0
 13 14  1  0
  4 15  1  0
 15 16  2  0
 16  2  1  0
 14 10  1  0
  1 17  1  0
  1 18  1  0
  1 19  1  0
  3 20  1  0
  5 21  1  0
  8 22  1  0
  9 23  1  0
 11 24  1  0
 12 25  1  0
 13 26  1  0
A    1
 C1 
A    2
 N1 
A    3
 C2 
A    4
 C3 
A    5
 N2 
A    6
 C4 
A    7
 O1 
A    8
 C5 
A    9
 C6 
A   10
 C7 
A   11
 C8 
A   12
 C9 
A   13
 C10
A   14
 S1 
A   15
 N3 
A   16
 N4 
A   17
 H1 
A   18
 H2 
A   19
 H3 
A   20
 H4 
A   21
 H5 
A   22
 H6 
A   23
 H7 
A   24
 H8 
A   25
 H9 
A   26
 H10
M  END
>  <ref_pdb>  (24) 
x0051_0B

>  <ref_mols>  (24) 
x0404_0B,x0969_0B

>  <original SMILES>  (24) 
[H]C(C(=O)N([H])c1nnn(C([H])([H])[H])c1[H])=C([H])c1sc([H])c([H])c1[H]

>  <index>  (24) 
6091

>  <∆∆G>  (24) 
-6.232393

>  <comRMSD>  (24) 
0.38836

>  <N_constrained_atoms>  (24) 
16.0

>  <N_unconstrained_atoms>  (24) 
0.0

>  <LE>  (24) 
0.389525

>  <percent_hybrid>  (24) 
0.0

>  <max_hit_Tanimoto>  (24) 
0.166889

>  <largest_ring>  (24) 
5

>  <N_interactions_kept>  (24) 
0.0

>  <N_interactions_lost>  (24) 
0.0

>  <interaction_uniqueness_metric>  (24) 
0.466801

>  <N_HA>  (24) 
16

>  <N_rotatable_bonds>  (24) 
4

>  <N_interactions>  (24) 
6

>  <N_PAINS>  (24) 
0

>  <UFF_Gibbs>  (24) 
65.928551

>  <strain_per_HA>  (24) 
4.120509

>  <ad_hoc_penalty>  (24) 
-45.279573

>  <cluster>  (24) 
713

>  <merger_rank>  (24) 
1

>  <pication:ARG:29>  (24) 
0

>  <hbond:HIS:51>  (24) 
0

>  <pistack:HIS:51>  (24) 
1

>  <hydroph_interaction:TYR:161>  (24) 
2

>  <pication:HIS:51>  (24) 
0

>  <hydroph_interaction:ALA:132>  (24) 
0

>  <hydroph_interaction:TYR:150>  (24) 
0

>  <hydroph_interaction:LYS:54>  (24) 
0

>  <hbond:SER:135>  (24) 
0

>  <hydroph_interaction:HIS:51>  (24) 
0

>  <hbond:ASP:83>  (24) 
0

>  <hbond:ALA:132>  (24) 
0

>  <halogenbond:SER:81>  (24) 
0

>  <hbond:GLY:82>  (24) 
0

>  <saltbridge:HIS:51>  (24) 
0

>  <pistack:TYR:161>  (24) 
0

>  <hbond:SER:81>  (24) 
0

>  <hbond:ASN:152>  (24) 
0

>  <hbond:GLY:151>  (24) 
1

>  <hydroph_interaction:ASN:152>  (24) 
0

>  <hbond:TYR:161>  (24) 
0

>  <halogenbond:TYR:150>  (24) 
0

>  <hbond:ASP:75>  (24) 
0

>  <hbond:GLY:153>  (24) 
0

>  <hbond:VAL:36>  (24) 
0

>  <hbond:PRO:131>  (24) 
0

>  <hbond:VAL:52>  (24) 
0

>  <hydroph_interaction:ASP:83>  (24) 
0

>  <hydroph_interaction:MET:49>  (24) 
0

>  <hydroph_interaction:VAL:52>  (24) 
0

>  <saltbridge:ASP:83>  (24) 
1

>  <saltbridge:ASP:75>  (24) 
1

>  <hydroph_interaction:TRP:50>  (24) 
0

>  <hydroph_interaction:VAL:72>  (24) 
0

>  <hydroph_interaction:ASP:75>  (24) 
0

>  <halogenbond:ASN:152>  (24) 
0

>  <halogenbond:GLY:153>  (24) 
0

>  <halogenbond:TYR:130>  (24) 
0

>  <hbond:TYR:130>  (24) 
0

>  <halogenbond:ASP:75>  (24) 
0

>  <halogenbond:GLY:151>  (24) 
0

>  <hbond:TYR:150>  (24) 
0

>  <halogenbond:TYR:161>  (24) 
0

>  <hydroph_interaction:ASP:129>  (24) 
0

>  <hbond:ASP:129>  (24) 
0

>  <halogenbond:ALA:132>  (24) 
0

$$$$
Z4919319908
     RDKit          3D

 21 22  0  0  0  0  0  0  0  0999 V2000
   -9.2830    6.7500  -12.7190 O   0  0  0  0  0  0  0  0  0  0  0  0
   -8.6660    5.7080  -12.5560 C   0  0  0  0  0  0  0  0  0  0  0  0
   -7.7350    5.2300  -13.4300 N   0  0  0  0  0  0  0  0  0  0  0  0
   -8.2010    5.1250  -14.8280 C   0  0  0  0  0  0  0  0  0  0  0  0
   -7.1950    5.1000  -15.9110 C   0  0  0  0  0  0  0  0  0  0  0  0
   -7.4700    4.9880  -17.2410 C   0  0  0  0  0  0  0  0  0  0  0  0
   -8.8390    4.8890  -17.5800 C   0  0  0  0  0  0  0  0  0  0  0  0
   -9.2450    4.7180  -19.3950 Br  0  0  0  0  0  0  0  0  0  0  0  0
   -9.8090    4.9200  -16.6030 N   0  0  0  0  0  0  0  0  0  0  0  0
   -9.5150    5.0360  -15.2620 N   0  0  0  0  0  0  0  0  0  0  0  0
   -8.8490    4.8720  -11.3730 C   0  0  0  0  0  0  0  0  0  0  0  0
   -8.8950    5.1570   -9.8820 C   0  0  0  0  0  0  0  0  0  0  0  0
   -9.0910    4.0230   -9.2100 C   0  0  0  0  0  0  0  0  0  0  0  0
   -9.1660    3.0470  -10.2430 C   0  0  0  0  0  0  0  0  0  0  0  0
   -9.0160    3.6270  -11.4980 O   0  0  0  0  0  0  0  0  0  0  0  0
   -6.7770    5.5340  -13.3610 H   0  0  0  0  0  0  0  0  0  0  0  0
   -6.1410    5.1710  -15.6500 H   0  0  0  0  0  0  0  0  0  0  0  0
   -6.6830    4.9710  -17.9880 H   0  0  0  0  0  0  0  0  0  0  0  0
   -8.7880    6.1360   -9.4360 H   0  0  0  0  0  0  0  0  0  0  0  0
   -9.1760    3.8750   -8.1420 H   0  0  0  0  0  0  0  0  0  0  0  0
   -9.3190    1.9830  -10.1200 H   0  0  0  0  0  0  0  0  0  0  0  0
  1  2  2  0
  2  3  1  0
  3  4  1  0
  4  5  2  0
  5  6  1  0
  6  7  2  0
  7  8  1  0
  7  9  1  0
  9 10  2  0
  2 11  1  0
 11 12  2  0
 12 13  1  0
 13 14  2  0
 14 15  1  0
 10  4  1  0
 15 11  1  0
  3 16  1  0
  5 17  1  0
  6 18  1  0
 12 19  1  0
 13 20  1  0
 14 21  1  0
A    1
 O1 
A    2
 C1 
A    3
 N1 
A    4
 C2 
A    5
 C3 
A    6
 C4 
A    7
 C5 
A    8
BR1 
A    9
 N2 
A   10
 N3 
A   11
 C6 
A   12
 C7 
A   13
 C8 
A   14
 C9 
A   15
 O2 
A   16
 H1 
A   17
 H2 
A   18
 H3 
A   19
 H4 
A   20
 H5 
A   21
 H6 
M  END
>  <ref_pdb>  (25) 
x0051_0B

>  <ref_mols>  (25) 
x0969_1B,x0553_0B

>  <original SMILES>  (25) 
[H]c1oc(C(=O)N([H])c2nnc(Br)c([H])c2[H])c([H])c1[H]

>  <index>  (25) 
2475

>  <∆∆G>  (25) 
-3.210915

>  <comRMSD>  (25) 
0.489986

>  <N_constrained_atoms>  (25) 
14.0

>  <N_unconstrained_atoms>  (25) 
1.0

>  <LE>  (25) 
0.214061

>  <percent_hybrid>  (25) 
0.0

>  <max_hit_Tanimoto>  (25) 
0.309032

>  <largest_ring>  (25) 
6

>  <N_interactions_kept>  (25) 
0.0

>  <N_interactions_lost>  (25) 
0.0

>  <interaction_uniqueness_metric>  (25) 
0.385785

>  <N_HA>  (25) 
15

>  <N_rotatable_bonds>  (25) 
2

>  <N_interactions>  (25) 
7

>  <N_PAINS>  (25) 
0

>  <UFF_Gibbs>  (25) 
57.745428

>  <strain_per_HA>  (25) 
3.84967

>  <ad_hoc_penalty>  (25) 
-45.107805

>  <cluster>  (25) 
36

>  <merger_rank>  (25) 
1

>  <pication:ARG:29>  (25) 
0

>  <hbond:HIS:51>  (25) 
0

>  <pistack:HIS:51>  (25) 
1

>  <hydroph_interaction:TYR:161>  (25) 
2

>  <pication:HIS:51>  (25) 
0

>  <hydroph_interaction:ALA:132>  (25) 
0

>  <hydroph_interaction:TYR:150>  (25) 
0

>  <hydroph_interaction:LYS:54>  (25) 
0

>  <hbond:SER:135>  (25) 
1

>  <hydroph_interaction:HIS:51>  (25) 
1

>  <hbond:ASP:83>  (25) 
0

>  <hbond:ALA:132>  (25) 
0

>  <halogenbond:SER:81>  (25) 
0

>  <hbond:GLY:82>  (25) 
0

>  <saltbridge:HIS:51>  (25) 
0

>  <pistack:TYR:161>  (25) 
0

>  <hbond:SER:81>  (25) 
0

>  <hbond:ASN:152>  (25) 
0

>  <hbond:GLY:151>  (25) 
0

>  <hydroph_interaction:ASN:152>  (25) 
0

>  <hbond:TYR:161>  (25) 
0

>  <halogenbond:TYR:150>  (25) 
1

>  <hbond:ASP:75>  (25) 
0

>  <hbond:GLY:153>  (25) 
0

>  <hbond:VAL:36>  (25) 
0

>  <hbond:PRO:131>  (25) 
0

>  <hbond:VAL:52>  (25) 
0

>  <hydroph_interaction:ASP:83>  (25) 
0

>  <hydroph_interaction:MET:49>  (25) 
0

>  <hydroph_interaction:VAL:52>  (25) 
0

>  <saltbridge:ASP:83>  (25) 
0

>  <saltbridge:ASP:75>  (25) 
0

>  <hydroph_interaction:TRP:50>  (25) 
0

>  <hydroph_interaction:VAL:72>  (25) 
0

>  <hydroph_interaction:ASP:75>  (25) 
0

>  <halogenbond:ASN:152>  (25) 
0

>  <halogenbond:GLY:153>  (25) 
0

>  <halogenbond:TYR:130>  (25) 
1

>  <hbond:TYR:130>  (25) 
0

>  <halogenbond:ASP:75>  (25) 
0

>  <halogenbond:GLY:151>  (25) 
0

>  <hbond:TYR:150>  (25) 
0

>  <halogenbond:TYR:161>  (25) 
0

>  <hydroph_interaction:ASP:129>  (25) 
0

>  <hbond:ASP:129>  (25) 
0

>  <halogenbond:ALA:132>  (25) 
0

$$$$
Z730098884
     RDKit          3D

 24 25  0  0  0  0  0  0  0  0999 V2000
   -9.2710    4.5910  -19.5770 C   0  0  0  0  0  0  0  0  0  0  0  0
   -8.8170    4.9010  -18.3350 C   0  0  0  0  0  0  0  0  0  0  0  0
   -7.6380    5.3030  -17.9400 N   0  0  0  0  0  0  0  0  0  0  0  0
   -7.7320    5.4720  -16.5910 N   0  0  0  0  0  0  0  0  0  0  0  0
   -8.9480    5.1960  -16.0790 C   0  0  0  0  0  0  0  0  0  0  0  0
   -9.1770    5.3400  -14.7200 C   0  0  0  0  0  0  0  0  0  0  0  0
  -10.3760    5.8800  -14.3170 O   0  0  0  0  0  0  0  0  0  0  0  0
   -8.2100    4.9510  -13.8950 N   0  0  0  0  0  0  0  0  0  0  0  0
   -8.3660    4.8230  -12.5260 C   0  0  0  0  0  0  0  0  0  0  0  0
   -8.0990    5.7350  -11.6090 N   0  0  0  0  0  0  0  0  0  0  0  0
   -8.3830    5.2770  -10.3110 N   0  0  0  0  0  0  0  0  0  0  0  0
   -8.8580    4.0280  -10.2850 C   0  0  0  0  0  0  0  0  0  0  0  0
   -9.2340    3.2920   -9.1730 C   0  0  0  0  0  0  0  0  0  0  0  0
   -8.9730    3.3710  -11.8600 S   0  0  0  0  0  0  0  0  0  0  0  0
   -9.7340    4.8030  -17.1770 C   0  0  0  0  0  0  0  0  0  0  0  0
   -8.4750    4.6270  -20.3270 H   0  0  0  0  0  0  0  0  0  0  0  0
   -9.6380    3.5710  -19.5450 H   0  0  0  0  0  0  0  0  0  0  0  0
  -10.0920    5.2390  -19.9020 H   0  0  0  0  0  0  0  0  0  0  0  0
   -6.9060    5.7840  -16.1000 H   0  0  0  0  0  0  0  0  0  0  0  0
   -7.2440    5.0130  -14.1700 H   0  0  0  0  0  0  0  0  0  0  0  0
   -8.9840    3.6690   -8.1920 H   0  0  0  0  0  0  0  0  0  0  0  0
   -8.8930    2.2680   -9.0820 H   0  0  0  0  0  0  0  0  0  0  0  0
  -10.3020    3.1600   -9.0870 H   0  0  0  0  0  0  0  0  0  0  0  0
  -10.7660    4.5070  -17.1650 H   0  0  0  0  0  0  0  0  0  0  0  0
  1  2  1  0
  2  3  2  0
  3  4  1  0
  4  5  1  0
  5  6  1  0
  6  7  2  0
  6  8  1  0
  8  9  1  0
  9 10  2  0
 10 11  1  0
 11 12  2  0
 12 13  1  0
 12 14  1  0
  5 15  2  0
 15  2  1  0
 14  9  1  0
  1 16  1  0
  1 17  1  0
  1 18  1  0
  4 19  1  0
  8 20  1  0
 13 21  1  0
 13 22  1  0
 13 23  1  0
 15 24  1  0
A    1
 C1 
A    2
 C2 
A    3
 N1 
A    4
 N2 
A    5
 C3 
A    6
 C4 
A    7
 O1 
A    8
 N3 
A    9
 C5 
A   10
 N4 
A   11
 N5 
A   12
 C6 
A   13
 C7 
A   14
 S1 
A   15
 C8 
A   16
 H1 
A   17
 H2 
A   18
 H3 
A   19
 H4 
A   20
 H5 
A   21
 H6 
A   22
 H7 
A   23
 H8 
A   24
 H9 
M  END
>  <ref_pdb>  (26) 
x0051_0B

>  <ref_mols>  (26) 
x0969_1B,x0553_0B

>  <original SMILES>  (26) 
[H]c1c(C([H])([H])[H])nn([H])c1C(=O)N([H])c1nnc(C([H])([H])[H])s1

>  <index>  (26) 
3322

>  <∆∆G>  (26) 
-6.824334

>  <comRMSD>  (26) 
0.35833

>  <N_constrained_atoms>  (26) 
14.0

>  <N_unconstrained_atoms>  (26) 
1.0

>  <LE>  (26) 
0.454956

>  <percent_hybrid>  (26) 
0.0

>  <max_hit_Tanimoto>  (26) 
0.515988

>  <largest_ring>  (26) 
5

>  <N_interactions_kept>  (26) 
0.0

>  <N_interactions_lost>  (26) 
0.0

>  <interaction_uniqueness_metric>  (26) 
0.196696

>  <N_HA>  (26) 
15

>  <N_rotatable_bonds>  (26) 
4

>  <N_interactions>  (26) 
7

>  <N_PAINS>  (26) 
0

>  <UFF_Gibbs>  (26) 
78.288158

>  <strain_per_HA>  (26) 
5.219176

>  <ad_hoc_penalty>  (26) 
-45.003734

>  <cluster>  (26) 
219

>  <merger_rank>  (26) 
2

>  <pication:ARG:29>  (26) 
0

>  <hbond:HIS:51>  (26) 
0

>  <pistack:HIS:51>  (26) 
1

>  <hydroph_interaction:TYR:161>  (26) 
1

>  <pication:HIS:51>  (26) 
0

>  <hydroph_interaction:ALA:132>  (26) 
0

>  <hydroph_interaction:TYR:150>  (26) 
1

>  <hydroph_interaction:LYS:54>  (26) 
0

>  <hbond:SER:135>  (26) 
1

>  <hydroph_interaction:HIS:51>  (26) 
1

>  <hbond:ASP:83>  (26) 
0

>  <hbond:ALA:132>  (26) 
0

>  <halogenbond:SER:81>  (26) 
0

>  <hbond:GLY:82>  (26) 
0

>  <saltbridge:HIS:51>  (26) 
0

>  <pistack:TYR:161>  (26) 
1

>  <hbond:SER:81>  (26) 
0

>  <hbond:ASN:152>  (26) 
0

>  <hbond:GLY:151>  (26) 
0

>  <hydroph_interaction:ASN:152>  (26) 
0

>  <hbond:TYR:161>  (26) 
1

>  <halogenbond:TYR:150>  (26) 
0

>  <hbond:ASP:75>  (26) 
0

>  <hbond:GLY:153>  (26) 
0

>  <hbond:VAL:36>  (26) 
0

>  <hbond:PRO:131>  (26) 
0

>  <hbond:VAL:52>  (26) 
0

>  <hydroph_interaction:ASP:83>  (26) 
0

>  <hydroph_interaction:MET:49>  (26) 
0

>  <hydroph_interaction:VAL:52>  (26) 
0

>  <saltbridge:ASP:83>  (26) 
0

>  <saltbridge:ASP:75>  (26) 
0

>  <hydroph_interaction:TRP:50>  (26) 
0

>  <hydroph_interaction:VAL:72>  (26) 
0

>  <hydroph_interaction:ASP:75>  (26) 
0

>  <halogenbond:ASN:152>  (26) 
0

>  <halogenbond:GLY:153>  (26) 
0

>  <halogenbond:TYR:130>  (26) 
0

>  <hbond:TYR:130>  (26) 
0

>  <halogenbond:ASP:75>  (26) 
0

>  <halogenbond:GLY:151>  (26) 
0

>  <hbond:TYR:150>  (26) 
0

>  <halogenbond:TYR:161>  (26) 
0

>  <hydroph_interaction:ASP:129>  (26) 
0

>  <hbond:ASP:129>  (26) 
0

>  <halogenbond:ALA:132>  (26) 
0

$$$$
PV-002810752630
     RDKit          3D

 27 29  0  0  0  0  0  0  0  0999 V2000
  -10.1470    6.9100  -15.1040 F   0  0  0  0  0  0  0  0  0  0  0  0
   -9.1950    6.2820  -14.3980 C   0  0  0  0  0  0  0  0  0  0  0  0
   -8.0270    5.4600  -14.9140 C   0  0  0  0  0  0  0  0  0  0  0  0
   -7.8510    5.2930  -16.3780 C   0  0  0  0  0  0  0  0  0  0  0  0
   -6.5540    5.4410  -16.7880 C   0  0  0  0  0  0  0  0  0  0  0  0
   -6.1500    5.3270  -18.1030 C   0  0  0  0  0  0  0  0  0  0  0  0
   -7.2150    5.0390  -19.0210 C   0  0  0  0  0  0  0  0  0  0  0  0
   -8.5550    4.8750  -18.6720 C   0  0  0  0  0  0  0  0  0  0  0  0
   -8.8790    5.0050  -17.3200 C   0  0  0  0  0  0  0  0  0  0  0  0
   -9.1620    6.3120  -12.9880 C   0  0  0  0  0  0  0  0  0  0  0  0
   -9.1020    5.2370  -12.2270 N   0  0  0  0  0  0  0  0  0  0  0  0
   -9.0900    5.6990  -10.9670 C   0  0  0  0  0  0  0  0  0  0  0  0
   -9.0530    4.8510   -9.8940 C   0  0  0  0  0  0  0  0  0  0  0  0
   -8.8270    5.2490   -8.6560 N   0  0  0  0  0  0  0  0  0  0  0  0
   -8.8830    4.1560   -7.8090 C   0  0  0  0  0  0  0  0  0  0  0  0
   -9.1480    2.9540   -8.4140 C   0  0  0  0  0  0  0  0  0  0  0  0
   -9.3280    3.1550  -10.0950 S   0  0  0  0  0  0  0  0  0  0  0  0
   -9.1350    7.0810  -10.8850 N   0  0  0  0  0  0  0  0  0  0  0  0
   -9.1850    7.4700  -12.2220 O   0  0  0  0  0  0  0  0  0  0  0  0
   -7.4370    5.0820  -14.0710 H   0  0  0  0  0  0  0  0  0  0  0  0
   -5.7800    5.6590  -16.0560 H   0  0  0  0  0  0  0  0  0  0  0  0
   -5.1500    5.4280  -18.5150 H   0  0  0  0  0  0  0  0  0  0  0  0
   -6.9450    4.9400  -20.0790 H   0  0  0  0  0  0  0  0  0  0  0  0
   -9.3200    4.6560  -19.4140 H   0  0  0  0  0  0  0  0  0  0  0  0
   -9.9090    4.8860  -16.9950 H   0  0  0  0  0  0  0  0  0  0  0  0
   -8.7190    4.2940   -6.7470 H   0  0  0  0  0  0  0  0  0  0  0  0
   -9.2390    1.9800   -7.9550 H   0  0  0  0  0  0  0  0  0  0  0  0
  1  2  1  0
  2  3  2  3
  3  4  1  0
  4  5  2  0
  5  6  1  0
  6  7  2  0
  7  8  1  0
  8  9  2  0
  2 10  1  0
 10 11  2  0
 11 12  1  0
 12 13  1  0
 13 14  2  0
 14 15  1  0
 15 16  2  0
 16 17  1  0
 12 18  2  0
 18 19  1  0
  9  4  1  0
 19 10  1  0
 17 13  1  0
  3 20  1  0
  5 21  1  0
  6 22  1  0
  7 23  1  0
  8 24  1  0
  9 25  1  0
 15 26  1  0
 16 27  1  0
A    1
 F1 
A    2
 C1 
A    3
 C2 
A    4
 C3 
A    5
 C4 
A    6
 C5 
A    7
 C6 
A    8
 C7 
A    9
 C8 
A   10
 C9 
A   11
 N1 
A   12
 C10
A   13
 C11
A   14
 N2 
A   15
 C12
A   16
 C13
A   17
 S1 
A   18
 N3 
A   19
 O1 
A   20
 H1 
A   21
 H2 
A   22
 H3 
A   23
 H4 
A   24
 H5 
A   25
 H6 
A   26
 H7 
A   27
 H8 
M  END
>  <ref_pdb>  (27) 
x0051_0B

>  <ref_mols>  (27) 
x0404_0B,x0969_0B

>  <original SMILES>  (27) 
[H]C(=C(F)c1nc(-c2nc([H])c([H])s2)no1)c1c([H])c([H])c([H])c([H])c1[H]

>  <index>  (27) 
5641

>  <∆∆G>  (27) 
-6.187935

>  <comRMSD>  (27) 
0.259803

>  <N_constrained_atoms>  (27) 
18.0

>  <N_unconstrained_atoms>  (27) 
1.0

>  <LE>  (27) 
0.325681

>  <percent_hybrid>  (27) 
0.0

>  <max_hit_Tanimoto>  (27) 
0.293087

>  <largest_ring>  (27) 
6

>  <N_interactions_kept>  (27) 
0.0

>  <N_interactions_lost>  (27) 
0.0

>  <interaction_uniqueness_metric>  (27) 
1.038774

>  <N_HA>  (27) 
19

>  <N_rotatable_bonds>  (27) 
3

>  <N_interactions>  (27) 
3

>  <N_PAINS>  (27) 
0

>  <UFF_Gibbs>  (27) 
71.434316

>  <strain_per_HA>  (27) 
3.759681

>  <ad_hoc_penalty>  (27) 
-44.972686

>  <cluster>  (27) 
975

>  <merger_rank>  (27) 
1

>  <pication:ARG:29>  (27) 
0

>  <hbond:HIS:51>  (27) 
0

>  <pistack:HIS:51>  (27) 
1

>  <hydroph_interaction:TYR:161>  (27) 
0

>  <pication:HIS:51>  (27) 
0

>  <hydroph_interaction:ALA:132>  (27) 
0

>  <hydroph_interaction:TYR:150>  (27) 
0

>  <hydroph_interaction:LYS:54>  (27) 
0

>  <hbond:SER:135>  (27) 
0

>  <hydroph_interaction:HIS:51>  (27) 
0

>  <hbond:ASP:83>  (27) 
0

>  <hbond:ALA:132>  (27) 
0

>  <halogenbond:SER:81>  (27) 
0

>  <hbond:GLY:82>  (27) 
0

>  <saltbridge:HIS:51>  (27) 
0

>  <pistack:TYR:161>  (27) 
1

>  <hbond:SER:81>  (27) 
0

>  <hbond:ASN:152>  (27) 
0

>  <hbond:GLY:151>  (27) 
0

>  <hydroph_interaction:ASN:152>  (27) 
0

>  <hbond:TYR:161>  (27) 
0

>  <halogenbond:TYR:150>  (27) 
0

>  <hbond:ASP:75>  (27) 
0

>  <hbond:GLY:153>  (27) 
0

>  <hbond:VAL:36>  (27) 
0

>  <hbond:PRO:131>  (27) 
0

>  <hbond:VAL:52>  (27) 
0

>  <hydroph_interaction:ASP:83>  (27) 
0

>  <hydroph_interaction:MET:49>  (27) 
0

>  <hydroph_interaction:VAL:52>  (27) 
0

>  <saltbridge:ASP:83>  (27) 
0

>  <saltbridge:ASP:75>  (27) 
0

>  <hydroph_interaction:TRP:50>  (27) 
0

>  <hydroph_interaction:VAL:72>  (27) 
0

>  <hydroph_interaction:ASP:75>  (27) 
0

>  <halogenbond:ASN:152>  (27) 
0

>  <halogenbond:GLY:153>  (27) 
0

>  <halogenbond:TYR:130>  (27) 
0

>  <hbond:TYR:130>  (27) 
0

>  <halogenbond:ASP:75>  (27) 
0

>  <halogenbond:GLY:151>  (27) 
0

>  <hbond:TYR:150>  (27) 
0

>  <halogenbond:TYR:161>  (27) 
0

>  <hydroph_interaction:ASP:129>  (27) 
0

>  <hbond:ASP:129>  (27) 
0

>  <halogenbond:ALA:132>  (27) 
1

$$$$
Z1169968278
     RDKit          3D

 27 29  0  0  0  0  0  0  0  0999 V2000
   -7.2380    5.4930  -18.7550 C   0  0  0  0  0  0  0  0  0  0  0  0
   -6.4170    6.2330  -17.7010 C   0  0  0  0  0  0  0  0  0  0  0  0
   -6.9190    6.3020  -16.3090 C   0  0  0  0  0  0  0  0  0  0  0  0
   -8.0910    5.7330  -15.9050 C   0  0  0  0  0  0  0  0  0  0  0  0
   -8.4050    5.9120  -14.5310 C   0  0  0  0  0  0  0  0  0  0  0  0
   -9.0390    4.9670  -13.8550 N   0  0  0  0  0  0  0  0  0  0  0  0
   -9.1830    5.4660  -12.6380 C   0  0  0  0  0  0  0  0  0  0  0  0
   -9.8560    4.7520  -11.5900 C   0  0  0  0  0  0  0  0  0  0  0  0
   -9.0900    4.8130  -10.4460 C   0  0  0  0  0  0  0  0  0  0  0  0
   -8.5830    3.6810   -9.7890 C   0  0  0  0  0  0  0  0  0  0  0  0
   -7.8600    3.9230   -8.6590 C   0  0  0  0  0  0  0  0  0  0  0  0
   -7.8180    5.3480   -8.4430 C   0  0  0  0  0  0  0  0  0  0  0  0
   -8.6680    6.2590   -9.6540 S   0  0  0  0  0  0  0  0  0  0  0  0
   -8.6440    6.6890  -12.5480 N   0  0  0  0  0  0  0  0  0  0  0  0
   -8.1310    6.9310  -13.8720 O   0  0  0  0  0  0  0  0  0  0  0  0
   -8.8610    5.0450  -16.8440 C   0  0  0  0  0  0  0  0  0  0  0  0
   -8.4350    4.9140  -18.3210 C   0  0  0  0  0  0  0  0  0  0  0  0
   -6.9620    5.3850  -19.8000 H   0  0  0  0  0  0  0  0  0  0  0  0
   -5.4690    6.7030  -17.9820 H   0  0  0  0  0  0  0  0  0  0  0  0
   -6.3210    6.8360  -15.5780 H   0  0  0  0  0  0  0  0  0  0  0  0
  -10.1530    3.7440  -11.8570 H   0  0  0  0  0  0  0  0  0  0  0  0
  -10.8470    5.1440  -11.4090 H   0  0  0  0  0  0  0  0  0  0  0  0
   -8.6640    2.6270  -10.0180 H   0  0  0  0  0  0  0  0  0  0  0  0
   -7.4030    3.1600   -8.0390 H   0  0  0  0  0  0  0  0  0  0  0  0
   -7.3170    5.8450   -7.6210 H   0  0  0  0  0  0  0  0  0  0  0  0
   -9.8010    4.5570  -16.6270 H   0  0  0  0  0  0  0  0  0  0  0  0
   -9.0660    4.3720  -19.0220 H   0  0  0  0  0  0  0  0  0  0  0  0
  1  2  2  0
  2  3  1  0
  3  4  2  0
  4  5  1  0
  5  6  2  0
  6  7  1  0
  7  8  1  0
  8  9  1  0
  9 10  2  0
 10 11  1  0
 11 12  2  0
 12 13  1  0
  7 14  2  0
 14 15  1  0
  4 16  1  0
 16 17  2  0
 17  1  1  0
 15  5  1  0
 13  9  1  0
  1 18  1  0
  2 19  1  0
  3 20  1  0
  8 21  1  0
  8 22  1  0
 10 23  1  0
 11 24  1  0
 12 25  1  0
 16 26  1  0
 17 27  1  0
A    1
 C1 
A    2
 C2 
A    3
 C3 
A    4
 C4 
A    5
 C5 
A    6
 N1 
A    7
 C6 
A    8
 C7 
A    9
 C8 
A   10
 C9 
A   11
 C10
A   12
 C11
A   13
 S1 
A   14
 N2 
A   15
 O1 
A   16
 C12
A   17
 C13
A   18
 H1 
A   19
 H2 
A   20
 H3 
A   21
 H4 
A   22
 H5 
A   23
 H6 
A   24
 H7 
A   25
 H8 
A   26
 H9 
A   27
 H10
M  END
>  <ref_pdb>  (28) 
x0051_0B

>  <ref_mols>  (28) 
x0404_0B,x0969_0B

>  <original SMILES>  (28) 
[H]c1sc(C([H])([H])c2noc(-c3c([H])c([H])c([H])c([H])c3[H])n2)c([H])c1[H]

>  <index>  (28) 
4841

>  <∆∆G>  (28) 
-5.637636

>  <comRMSD>  (28) 
0.527889

>  <N_constrained_atoms>  (28) 
17.0

>  <N_unconstrained_atoms>  (28) 
0.0

>  <LE>  (28) 
0.331626

>  <percent_hybrid>  (28) 
0.0

>  <max_hit_Tanimoto>  (28) 
0.197087

>  <largest_ring>  (28) 
6

>  <N_interactions_kept>  (28) 
0.0

>  <N_interactions_lost>  (28) 
0.0

>  <interaction_uniqueness_metric>  (28) 
0.136757

>  <N_HA>  (28) 
17

>  <N_rotatable_bonds>  (28) 
3

>  <N_interactions>  (28) 
7

>  <N_PAINS>  (28) 
0

>  <UFF_Gibbs>  (28) 
79.596087

>  <strain_per_HA>  (28) 
4.682095

>  <ad_hoc_penalty>  (28) 
-44.563049

>  <cluster>  (28) 
1491

>  <merger_rank>  (28) 
1

>  <pication:ARG:29>  (28) 
0

>  <hbond:HIS:51>  (28) 
0

>  <pistack:HIS:51>  (28) 
1

>  <hydroph_interaction:TYR:161>  (28) 
2

>  <pication:HIS:51>  (28) 
0

>  <hydroph_interaction:ALA:132>  (28) 
1

>  <hydroph_interaction:TYR:150>  (28) 
0

>  <hydroph_interaction:LYS:54>  (28) 
0

>  <hbond:SER:135>  (28) 
1

>  <hydroph_interaction:HIS:51>  (28) 
1

>  <hbond:ASP:83>  (28) 
0

>  <hbond:ALA:132>  (28) 
0

>  <halogenbond:SER:81>  (28) 
0

>  <hbond:GLY:82>  (28) 
0

>  <saltbridge:HIS:51>  (28) 
0

>  <pistack:TYR:161>  (28) 
0

>  <hbond:SER:81>  (28) 
0

>  <hbond:ASN:152>  (28) 
0

>  <hbond:GLY:151>  (28) 
0

>  <hydroph_interaction:ASN:152>  (28) 
0

>  <hbond:TYR:161>  (28) 
1

>  <halogenbond:TYR:150>  (28) 
0

>  <hbond:ASP:75>  (28) 
0

>  <hbond:GLY:153>  (28) 
0

>  <hbond:VAL:36>  (28) 
0

>  <hbond:PRO:131>  (28) 
0

>  <hbond:VAL:52>  (28) 
0

>  <hydroph_interaction:ASP:83>  (28) 
0

>  <hydroph_interaction:MET:49>  (28) 
0

>  <hydroph_interaction:VAL:52>  (28) 
0

>  <saltbridge:ASP:83>  (28) 
0

>  <saltbridge:ASP:75>  (28) 
0

>  <hydroph_interaction:TRP:50>  (28) 
0

>  <hydroph_interaction:VAL:72>  (28) 
0

>  <hydroph_interaction:ASP:75>  (28) 
0

>  <halogenbond:ASN:152>  (28) 
0

>  <halogenbond:GLY:153>  (28) 
0

>  <halogenbond:TYR:130>  (28) 
0

>  <hbond:TYR:130>  (28) 
0

>  <halogenbond:ASP:75>  (28) 
0

>  <halogenbond:GLY:151>  (28) 
0

>  <hbond:TYR:150>  (28) 
0

>  <halogenbond:TYR:161>  (28) 
0

>  <hydroph_interaction:ASP:129>  (28) 
0

>  <hbond:ASP:129>  (28) 
0

>  <halogenbond:ALA:132>  (28) 
0

$$$$
Z2852169036
     RDKit          3D

 25 26  0  0  0  0  0  0  0  0999 V2000
   -8.5420    5.0800  -15.3160 C   0  0  0  0  0  0  0  0  0  0  0  0
   -9.4900    5.4970  -14.2030 C   0  0  0  0  0  0  0  0  0  0  0  0
   -9.1460    4.9090  -12.8700 C   0  0  0  0  0  0  0  0  0  0  0  0
   -9.3780    3.6980  -12.4230 N   0  0  0  0  0  0  0  0  0  0  0  0
   -8.8890    3.6490  -11.1350 N   0  0  0  0  0  0  0  0  0  0  0  0
   -8.3800    4.8330  -10.8640 C   0  0  0  0  0  0  0  0  0  0  0  0
   -7.6370    5.2610   -9.3380 S   0  0  0  0  0  0  0  0  0  0  0  0
   -8.8170    4.4880   -8.2530 C   0  0  0  0  0  0  0  0  0  0  0  0
   -9.2760    3.1020   -8.4900 C   0  0  0  0  0  0  0  0  0  0  0  0
  -10.2820    2.5980   -7.5320 C   0  0  0  0  0  0  0  0  0  0  0  0
  -10.7470    3.4660   -6.4530 C   0  0  0  0  0  0  0  0  0  0  0  0
  -11.7380    3.0490   -5.5710 C   0  0  0  0  0  0  0  0  0  0  0  0
  -10.2220    4.7270   -6.3210 N   0  0  0  0  0  0  0  0  0  0  0  0
   -9.2950    5.2130   -7.1930 N   0  0  0  0  0  0  0  0  0  0  0  0
   -8.5040    5.6990  -11.9390 O   0  0  0  0  0  0  0  0  0  0  0  0
   -7.9690    5.9330  -15.6890 H   0  0  0  0  0  0  0  0  0  0  0  0
   -9.0910    4.6510  -16.1620 H   0  0  0  0  0  0  0  0  0  0  0  0
   -7.8370    4.3270  -14.9560 H   0  0  0  0  0  0  0  0  0  0  0  0
  -10.5080    5.2010  -14.4840 H   0  0  0  0  0  0  0  0  0  0  0  0
   -9.5040    6.5900  -14.1260 H   0  0  0  0  0  0  0  0  0  0  0  0
   -8.9700    2.4270   -9.2800 H   0  0  0  0  0  0  0  0  0  0  0  0
  -10.6820    1.5880   -7.6440 H   0  0  0  0  0  0  0  0  0  0  0  0
  -12.6920    3.3150   -6.0200 H   0  0  0  0  0  0  0  0  0  0  0  0
  -11.8650    2.0140   -5.2930 H   0  0  0  0  0  0  0  0  0  0  0  0
  -11.6440    3.6330   -4.6720 H   0  0  0  0  0  0  0  0  0  0  0  0
  1  2  1  0
  2  3  1  0
  3  4  2  0
  4  5  1  0
  5  6  2  0
  6  7  1  0
  7  8  1  0
  8  9  2  0
  9 10  1  0
 10 11  2  0
 11 12  1  0
 11 13  1  0
 13 14  2  0
  6 15  1  0
 15  3  1  0
 14  8  1  0
  1 16  1  0
  1 17  1  0
  1 18  1  0
  2 19  1  0
  2 20  1  0
  9 21  1  0
 10 22  1  0
 12 23  1  0
 12 24  1  0
 12 25  1  0
A    1
 C1 
A    2
 C2 
A    3
 C3 
A    4
 N1 
A    5
 N2 
A    6
 C4 
A    7
 S1 
A    8
 C5 
A    9
 C6 
A   10
 C7 
A   11
 C8 
A   12
 C9 
A   13
 N3 
A   14
 N4 
A   15
 O1 
A   16
 H1 
A   17
 H2 
A   18
 H3 
A   19
 H4 
A   20
 H5 
A   21
 H6 
A   22
 H7 
A   23
 H8 
A   24
 H9 
A   25
 H10
M  END
>  <ref_pdb>  (29) 
x0051_0B

>  <ref_mols>  (29) 
x0969_1B,x0553_0B

>  <original SMILES>  (29) 
[H]c1c(Sc2nnc(C([H])([H])C([H])([H])[H])o2)nnc(C([H])([H])[H])c1[H]

>  <index>  (29) 
742

>  <∆∆G>  (29) 
-4.837544

>  <comRMSD>  (29) 
0.971651

>  <N_constrained_atoms>  (29) 
12.0

>  <N_unconstrained_atoms>  (29) 
6.0

>  <LE>  (29) 
0.268752

>  <percent_hybrid>  (29) 
0.0

>  <max_hit_Tanimoto>  (29) 
0.153563

>  <largest_ring>  (29) 
6

>  <N_interactions_kept>  (29) 
0.0

>  <N_interactions_lost>  (29) 
0.0

>  <interaction_uniqueness_metric>  (29) 
0.712096

>  <N_HA>  (29) 
15

>  <N_rotatable_bonds>  (29) 
5

>  <N_interactions>  (29) 
7

>  <N_PAINS>  (29) 
0

>  <UFF_Gibbs>  (29) 
56.448683

>  <strain_per_HA>  (29) 
3.76322

>  <ad_hoc_penalty>  (29) 
-44.544885

>  <cluster>  (29) 
641

>  <merger_rank>  (29) 
1

>  <pication:ARG:29>  (29) 
0

>  <hbond:HIS:51>  (29) 
0

>  <pistack:HIS:51>  (29) 
1

>  <hydroph_interaction:TYR:161>  (29) 
1

>  <pication:HIS:51>  (29) 
1

>  <hydroph_interaction:ALA:132>  (29) 
0

>  <hydroph_interaction:TYR:150>  (29) 
0

>  <hydroph_interaction:LYS:54>  (29) 
0

>  <hbond:SER:135>  (29) 
0

>  <hydroph_interaction:HIS:51>  (29) 
1

>  <hbond:ASP:83>  (29) 
0

>  <hbond:ALA:132>  (29) 
0

>  <halogenbond:SER:81>  (29) 
0

>  <hbond:GLY:82>  (29) 
0

>  <saltbridge:HIS:51>  (29) 
0

>  <pistack:TYR:161>  (29) 
0

>  <hbond:SER:81>  (29) 
0

>  <hbond:ASN:152>  (29) 
0

>  <hbond:GLY:151>  (29) 
0

>  <hydroph_interaction:ASN:152>  (29) 
0

>  <hbond:TYR:161>  (29) 
1

>  <halogenbond:TYR:150>  (29) 
0

>  <hbond:ASP:75>  (29) 
0

>  <hbond:GLY:153>  (29) 
0

>  <hbond:VAL:36>  (29) 
0

>  <hbond:PRO:131>  (29) 
0

>  <hbond:VAL:52>  (29) 
0

>  <hydroph_interaction:ASP:83>  (29) 
0

>  <hydroph_interaction:MET:49>  (29) 
0

>  <hydroph_interaction:VAL:52>  (29) 
0

>  <saltbridge:ASP:83>  (29) 
0

>  <saltbridge:ASP:75>  (29) 
0

>  <hydroph_interaction:TRP:50>  (29) 
1

>  <hydroph_interaction:VAL:72>  (29) 
1

>  <hydroph_interaction:ASP:75>  (29) 
0

>  <halogenbond:ASN:152>  (29) 
0

>  <halogenbond:GLY:153>  (29) 
0

>  <halogenbond:TYR:130>  (29) 
0

>  <hbond:TYR:130>  (29) 
0

>  <halogenbond:ASP:75>  (29) 
0

>  <halogenbond:GLY:151>  (29) 
0

>  <hbond:TYR:150>  (29) 
0

>  <halogenbond:TYR:161>  (29) 
0

>  <hydroph_interaction:ASP:129>  (29) 
0

>  <hbond:ASP:129>  (29) 
0

>  <halogenbond:ALA:132>  (29) 
0

$$$$
PV-002391241517
     RDKit          3D

 24 26  0  0  0  0  0  0  0  0999 V2000
   -7.3300    7.4680  -15.1620 O   0  0  0  0  0  0  0  0  0  0  0  0
   -8.0890    6.5570  -14.8350 C   0  0  0  0  0  0  0  0  0  0  0  0
   -8.8530    5.7840  -15.7710 N   0  0  0  0  0  0  0  0  0  0  0  0
   -8.3340    5.4070  -17.0520 C   0  0  0  0  0  0  0  0  0  0  0  0
   -7.1710    5.8770  -17.5420 C   0  0  0  0  0  0  0  0  0  0  0  0
   -6.8680    5.3340  -18.8820 C   0  0  0  0  0  0  0  0  0  0  0  0
   -7.8320    4.4710  -19.3300 N   0  0  0  0  0  0  0  0  0  0  0  0
   -9.0560    4.3330  -18.1680 S   0  0  0  0  0  0  0  0  0  0  0  0
   -8.3080    6.1460  -13.5370 C   0  0  0  0  0  0  0  0  0  0  0  0
   -8.4920    4.7270  -13.0920 C   0  0  0  0  0  0  0  0  0  0  0  0
   -8.6920    4.5860  -11.7390 C   0  0  0  0  0  0  0  0  0  0  0  0
   -8.8750    3.4100  -11.1420 N   0  0  0  0  0  0  0  0  0  0  0  0
   -9.0470    3.5050   -9.8140 C   0  0  0  0  0  0  0  0  0  0  0  0
   -9.0380    4.6870   -9.1080 C   0  0  0  0  0  0  0  0  0  0  0  0
   -8.8520    5.8930   -9.7250 C   0  0  0  0  0  0  0  0  0  0  0  0
   -8.6720    5.8430  -11.1000 C   0  0  0  0  0  0  0  0  0  0  0  0
   -8.4150    7.1680  -12.1780 S   0  0  0  0  0  0  0  0  0  0  0  0
   -9.5350    5.1480  -15.3690 H   0  0  0  0  0  0  0  0  0  0  0  0
   -6.5300    6.5730  -17.0180 H   0  0  0  0  0  0  0  0  0  0  0  0
   -5.9890    5.5680  -19.4750 H   0  0  0  0  0  0  0  0  0  0  0  0
   -8.4970    3.7750  -13.6340 H   0  0  0  0  0  0  0  0  0  0  0  0
   -9.2010    2.5790   -9.2690 H   0  0  0  0  0  0  0  0  0  0  0  0
   -9.1880    4.6380   -8.0190 H   0  0  0  0  0  0  0  0  0  0  0  0
   -8.8560    6.7940   -9.1280 H   0  0  0  0  0  0  0  0  0  0  0  0
  1  2  2  0
  2  3  1  0
  3  4  1  0
  4  5  2  0
  5  6  1  0
  6  7  2  0
  7  8  1  0
  2  9  1  0
  9 10  2  0
 10 11  1  0
 11 12  2  0
 12 13  1  0
 13 14  2  0
 14 15  1  0
 15 16  2  0
 16 17  1  0
  8  4  1  0
 17  9  1  0
 16 11  1  0
  3 18  1  0
  5 19  1  0
  6 20  1  0
 10 21  1  0
 13 22  1  0
 14 23  1  0
 15 24  1  0
A    1
 O1 
A    2
 C1 
A    3
 N1 
A    4
 C2 
A    5
 C3 
A    6
 C4 
A    7
 N2 
A    8
 S1 
A    9
 C5 
A   10
 C6 
A   11
 C7 
A   12
 N3 
A   13
 C8 
A   14
 C9 
A   15
 C10
A   16
 C11
A   17
 S2 
A   18
 H1 
A   19
 H2 
A   20
 H3 
A   21
 H4 
A   22
 H5 
A   23
 H6 
A   24
 H7 
M  END
>  <ref_pdb>  (30) 
x0051_0B

>  <ref_mols>  (30) 
x0404_0B,x0969_0B

>  <original SMILES>  (30) 
[H]c1nsc(N([H])C(=O)c2sc3c([H])c([H])c([H])nc3c2[H])c1[H]

>  <index>  (30) 
4672

>  <∆∆G>  (30) 
-5.399409

>  <comRMSD>  (30) 
0.267239

>  <N_constrained_atoms>  (30) 
18.0

>  <N_unconstrained_atoms>  (30) 
0.0

>  <LE>  (30) 
0.299967

>  <percent_hybrid>  (30) 
0.0

>  <max_hit_Tanimoto>  (30) 
0.328616

>  <largest_ring>  (30) 
6

>  <N_interactions_kept>  (30) 
0.0

>  <N_interactions_lost>  (30) 
0.0

>  <interaction_uniqueness_metric>  (30) 
0.136283

>  <N_HA>  (30) 
17

>  <N_rotatable_bonds>  (30) 
2

>  <N_interactions>  (30) 
6

>  <N_PAINS>  (30) 
0

>  <UFF_Gibbs>  (30) 
44.731621

>  <strain_per_HA>  (30) 
2.631256

>  <ad_hoc_penalty>  (30) 
-44.221256

>  <cluster>  (30) 
1597

>  <merger_rank>  (30) 
4

>  <pication:ARG:29>  (30) 
0

>  <hbond:HIS:51>  (30) 
0

>  <pistack:HIS:51>  (30) 
2

>  <hydroph_interaction:TYR:161>  (30) 
0

>  <pication:HIS:51>  (30) 
0

>  <hydroph_interaction:ALA:132>  (30) 
1

>  <hydroph_interaction:TYR:150>  (30) 
0

>  <hydroph_interaction:LYS:54>  (30) 
0

>  <hbond:SER:135>  (30) 
0

>  <hydroph_interaction:HIS:51>  (30) 
1

>  <hbond:ASP:83>  (30) 
0

>  <hbond:ALA:132>  (30) 
0

>  <halogenbond:SER:81>  (30) 
0

>  <hbond:GLY:82>  (30) 
0

>  <saltbridge:HIS:51>  (30) 
0

>  <pistack:TYR:161>  (30) 
1

>  <hbond:SER:81>  (30) 
0

>  <hbond:ASN:152>  (30) 
0

>  <hbond:GLY:151>  (30) 
1

>  <hydroph_interaction:ASN:152>  (30) 
0

>  <hbond:TYR:161>  (30) 
0

>  <halogenbond:TYR:150>  (30) 
0

>  <hbond:ASP:75>  (30) 
0

>  <hbond:GLY:153>  (30) 
0

>  <hbond:VAL:36>  (30) 
0

>  <hbond:PRO:131>  (30) 
0

>  <hbond:VAL:52>  (30) 
0

>  <hydroph_interaction:ASP:83>  (30) 
0

>  <hydroph_interaction:MET:49>  (30) 
0

>  <hydroph_interaction:VAL:52>  (30) 
0

>  <saltbridge:ASP:83>  (30) 
0

>  <saltbridge:ASP:75>  (30) 
0

>  <hydroph_interaction:TRP:50>  (30) 
0

>  <hydroph_interaction:VAL:72>  (30) 
0

>  <hydroph_interaction:ASP:75>  (30) 
0

>  <halogenbond:ASN:152>  (30) 
0

>  <halogenbond:GLY:153>  (30) 
0

>  <halogenbond:TYR:130>  (30) 
0

>  <hbond:TYR:130>  (30) 
0

>  <halogenbond:ASP:75>  (30) 
0

>  <halogenbond:GLY:151>  (30) 
0

>  <hbond:TYR:150>  (30) 
0

>  <halogenbond:TYR:161>  (30) 
0

>  <hydroph_interaction:ASP:129>  (30) 
0

>  <hbond:ASP:129>  (30) 
0

>  <halogenbond:ALA:132>  (30) 
0

$$$$
PV-002716180498
     RDKit          3D

 31 33  0  0  0  0  0  0  0  0999 V2000
   -9.3250    4.4220   -6.1480 N   0  0  0  0  0  0  0  0  0  0  0  0
   -9.1490    4.6050   -7.6000 C   0  0  0  0  0  0  0  0  0  0  0  0
   -9.3290    3.4800   -8.3610 C   0  0  0  0  0  0  0  0  0  0  0  0
   -9.1940    3.5250   -9.7620 C   0  0  0  0  0  0  0  0  0  0  0  0
   -8.8550    4.8150  -10.3750 C   0  0  0  0  0  0  0  0  0  0  0  0
   -8.6720    5.0730  -11.8130 C   0  0  0  0  0  0  0  0  0  0  0  0
   -9.0250    6.4390  -12.2660 C   0  0  0  0  0  0  0  0  0  0  0  0
   -8.8210    6.6570  -13.8050 C   0  0  0  0  0  0  0  0  0  0  0  0
   -8.3290    5.5440  -14.5790 C   0  0  0  0  0  0  0  0  0  0  0  0
   -8.0950    5.5590  -15.9400 C   0  0  0  0  0  0  0  0  0  0  0  0
   -9.0360    4.8740  -16.7330 C   0  0  0  0  0  0  0  0  0  0  0  0
   -8.8520    4.8470  -18.1130 C   0  0  0  0  0  0  0  0  0  0  0  0
   -7.7820    5.4650  -18.7590 C   0  0  0  0  0  0  0  0  0  0  0  0
   -6.8090    6.1700  -18.0130 C   0  0  0  0  0  0  0  0  0  0  0  0
   -7.0250    6.1860  -16.5200 C   0  0  0  0  0  0  0  0  0  0  0  0
   -8.0400    4.3510  -14.0260 N   0  0  0  0  0  0  0  0  0  0  0  0
   -8.2130    4.1440  -12.7120 C   0  0  0  0  0  0  0  0  0  0  0  0
   -8.6810    5.9560   -9.4830 N   0  0  0  0  0  0  0  0  0  0  0  0
   -8.8310    5.8050   -8.1540 N   0  0  0  0  0  0  0  0  0  0  0  0
   -8.5530    4.5840   -5.5270 H   0  0  0  0  0  0  0  0  0  0  0  0
   -9.5800    3.4430   -5.9800 H   0  0  0  0  0  0  0  0  0  0  0  0
   -9.5830    2.4910   -7.9610 H   0  0  0  0  0  0  0  0  0  0  0  0
   -9.3370    2.6320  -10.3590 H   0  0  0  0  0  0  0  0  0  0  0  0
   -9.3920    7.2390  -11.6390 H   0  0  0  0  0  0  0  0  0  0  0  0
   -9.0430    7.6060  -14.2740 H   0  0  0  0  0  0  0  0  0  0  0  0
   -9.8610    4.4030  -16.2130 H   0  0  0  0  0  0  0  0  0  0  0  0
   -9.5710    4.3210  -18.7260 H   0  0  0  0  0  0  0  0  0  0  0  0
   -7.5820    5.4810  -19.8230 H   0  0  0  0  0  0  0  0  0  0  0  0
   -5.9670    6.6620  -18.4940 H   0  0  0  0  0  0  0  0  0  0  0  0
   -6.3050    6.7130  -15.8950 H   0  0  0  0  0  0  0  0  0  0  0  0
   -7.9500    3.1340  -12.4040 H   0  0  0  0  0  0  0  0  0  0  0  0
  1  2  1  0
  2  3  2  0
  3  4  1  0
  4  5  2  0
  5  6  1  0
  6  7  2  0
  7  8  1  0
  8  9  2  0
  9 10  1  0
 10 11  2  0
 11 12  1  0
 12 13  2  0
 13 14  1  0
 14 15  2  0
  9 16  1  0
 16 17  2  0
  5 18  1  0
 18 19  2  0
 19  2  1  0
 17  6  1  0
 15 10  1  0
  1 20  1  0
  1 21  1  0
  3 22  1  0
  4 23  1  0
  7 24  1  0
  8 25  1  0
 11 26  1  0
 12 27  1  0
 13 28  1  0
 14 29  1  0
 15 30  1  0
 17 31  1  0
A    1
 N1 
A    2
 C1 
A    3
 C2 
A    4
 C3 
A    5
 C4 
A    6
 C5 
A    7
 C6 
A    8
 C7 
A    9
 C8 
A   10
 C9 
A   11
 C10
A   12
 C11
A   13
 C12
A   14
 C13
A   15
 C14
A   16
 N2 
A   17
 C15
A   18
 N3 
A   19
 N4 
A   20
 H1 
A   21
 H2 
A   22
 H3 
A   23
 H4 
A   24
 H5 
A   25
 H6 
A   26
 H7 
A   27
 H8 
A   28
 H9 
A   29
 H10
A   30
 H11
A   31
 H12
M  END
>  <ref_pdb>  (31) 
x0051_0B

>  <ref_mols>  (31) 
x0404_0B,x0969_0B

>  <original SMILES>  (31) 
[H]c1nc(-c2c([H])c([H])c([H])c([H])c2[H])c([H])c([H])c1-c1nnc(N([H])[H])c([H])c1[H]

>  <index>  (31) 
4343

>  <∆∆G>  (31) 
-5.906569

>  <comRMSD>  (31) 
0.314714

>  <N_constrained_atoms>  (31) 
18.0

>  <N_unconstrained_atoms>  (31) 
1.0

>  <LE>  (31) 
0.310872

>  <percent_hybrid>  (31) 
0.0

>  <max_hit_Tanimoto>  (31) 
0.391421

>  <largest_ring>  (31) 
6

>  <N_interactions_kept>  (31) 
0.0

>  <N_interactions_lost>  (31) 
0.0

>  <interaction_uniqueness_metric>  (31) 
0.30111

>  <N_HA>  (31) 
19

>  <N_rotatable_bonds>  (31) 
3

>  <N_interactions>  (31) 
6

>  <N_PAINS>  (31) 
0

>  <UFF_Gibbs>  (31) 
77.534717

>  <strain_per_HA>  (31) 
4.080753

>  <ad_hoc_penalty>  (31) 
-44.152572

>  <cluster>  (31) 
1836

>  <merger_rank>  (31) 
3

>  <pication:ARG:29>  (31) 
0

>  <hbond:HIS:51>  (31) 
0

>  <pistack:HIS:51>  (31) 
1

>  <hydroph_interaction:TYR:161>  (31) 
2

>  <pication:HIS:51>  (31) 
0

>  <hydroph_interaction:ALA:132>  (31) 
1

>  <hydroph_interaction:TYR:150>  (31) 
0

>  <hydroph_interaction:LYS:54>  (31) 
0

>  <hbond:SER:135>  (31) 
0

>  <hydroph_interaction:HIS:51>  (31) 
1

>  <hbond:ASP:83>  (31) 
0

>  <hbond:ALA:132>  (31) 
0

>  <halogenbond:SER:81>  (31) 
0

>  <hbond:GLY:82>  (31) 
0

>  <saltbridge:HIS:51>  (31) 
0

>  <pistack:TYR:161>  (31) 
0

>  <hbond:SER:81>  (31) 
1

>  <hbond:ASN:152>  (31) 
0

>  <hbond:GLY:151>  (31) 
0

>  <hydroph_interaction:ASN:152>  (31) 
0

>  <hbond:TYR:161>  (31) 
0

>  <halogenbond:TYR:150>  (31) 
0

>  <hbond:ASP:75>  (31) 
0

>  <hbond:GLY:153>  (31) 
0

>  <hbond:VAL:36>  (31) 
0

>  <hbond:PRO:131>  (31) 
0

>  <hbond:VAL:52>  (31) 
0

>  <hydroph_interaction:ASP:83>  (31) 
0

>  <hydroph_interaction:MET:49>  (31) 
0

>  <hydroph_interaction:VAL:52>  (31) 
0

>  <saltbridge:ASP:83>  (31) 
0

>  <saltbridge:ASP:75>  (31) 
0

>  <hydroph_interaction:TRP:50>  (31) 
0

>  <hydroph_interaction:VAL:72>  (31) 
0

>  <hydroph_interaction:ASP:75>  (31) 
0

>  <halogenbond:ASN:152>  (31) 
0

>  <halogenbond:GLY:153>  (31) 
0

>  <halogenbond:TYR:130>  (31) 
0

>  <hbond:TYR:130>  (31) 
0

>  <halogenbond:ASP:75>  (31) 
0

>  <halogenbond:GLY:151>  (31) 
0

>  <hbond:TYR:150>  (31) 
0

>  <halogenbond:TYR:161>  (31) 
0

>  <hydroph_interaction:ASP:129>  (31) 
0

>  <hbond:ASP:129>  (31) 
0

>  <halogenbond:ALA:132>  (31) 
0

$$$$
Z1435411616
     RDKit          3D

 29 31  0  0  0  0  0  0  0  0999 V2000
   -9.2450    4.1970   -6.4950 C   0  0  0  0  0  0  0  0  0  0  0  0
   -9.1430    4.3480   -8.0060 C   0  0  0  0  0  0  0  0  0  0  0  0
   -9.1810    3.2450   -8.9410 C   0  0  0  0  0  0  0  0  0  0  0  0
   -9.0680    3.7240  -10.1850 C   0  0  0  0  0  0  0  0  0  0  0  0
   -8.9590    5.1190  -10.1110 C   0  0  0  0  0  0  0  0  0  0  0  0
   -8.8280    5.9720  -11.3040 C   0  0  0  0  0  0  0  0  0  0  0  0
   -9.0300    7.3390  -11.4130 N   0  0  0  0  0  0  0  0  0  0  0  0
   -8.7990    7.6940  -12.6920 N   0  0  0  0  0  0  0  0  0  0  0  0
   -8.4620    6.5420  -13.3350 C   0  0  0  0  0  0  0  0  0  0  0  0
   -8.1400    6.5800  -14.7610 N   0  0  0  0  0  0  0  0  0  0  0  0
   -8.8020    5.7800  -15.6330 C   0  0  0  0  0  0  0  0  0  0  0  0
   -9.9970    5.2360  -15.2850 O   0  0  0  0  0  0  0  0  0  0  0  0
   -8.3530    5.4820  -16.9010 C   0  0  0  0  0  0  0  0  0  0  0  0
   -7.0160    5.7120  -17.3050 C   0  0  0  0  0  0  0  0  0  0  0  0
   -6.9540    5.3120  -18.6180 C   0  0  0  0  0  0  0  0  0  0  0  0
   -8.2250    4.8590  -18.9680 C   0  0  0  0  0  0  0  0  0  0  0  0
   -9.0900    4.9560  -17.9190 O   0  0  0  0  0  0  0  0  0  0  0  0
   -8.4740    5.4690  -12.5020 N   0  0  0  0  0  0  0  0  0  0  0  0
   -9.0040    5.5050   -8.7440 O   0  0  0  0  0  0  0  0  0  0  0  0
   -8.5310    3.4550   -6.1200 H   0  0  0  0  0  0  0  0  0  0  0  0
   -9.0340    5.1510   -6.0030 H   0  0  0  0  0  0  0  0  0  0  0  0
  -10.2490    3.8730   -6.1960 H   0  0  0  0  0  0  0  0  0  0  0  0
   -9.2770    2.1810   -8.7780 H   0  0  0  0  0  0  0  0  0  0  0  0
   -9.0640    3.1300  -11.1020 H   0  0  0  0  0  0  0  0  0  0  0  0
   -7.3870    7.1470  -15.1380 H   0  0  0  0  0  0  0  0  0  0  0  0
   -6.1320    6.1050  -16.8240 H   0  0  0  0  0  0  0  0  0  0  0  0
   -6.0870    5.3410  -19.2690 H   0  0  0  0  0  0  0  0  0  0  0  0
   -8.6290    4.4600  -19.8910 H   0  0  0  0  0  0  0  0  0  0  0  0
   -8.2680    4.5090  -12.7190 H   0  0  0  0  0  0  0  0  0  0  0  0
  1  2  1  0
  2  3  2  0
  3  4  1  0
  4  5  2  0
  5  6  1  0
  6  7  2  0
  7  8  1  0
  8  9  2  0
  9 10  1  0
 10 11  1  0
 11 12  2  0
 11 13  1  0
 13 14  2  0
 14 15  1  0
 15 16  2  0
 16 17  1  0
  9 18  1  0
  5 19  1  0
 19  2  1  0
 18  6  1  0
 17 13  1  0
  1 20  1  0
  1 21  1  0
  1 22  1  0
  3 23  1  0
  4 24  1  0
 10 25  1  0
 14 26  1  0
 15 27  1  0
 16 28  1  0
 18 29  1  0
A    1
 C1 
A    2
 C2 
A    3
 C3 
A    4
 C4 
A    5
 C5 
A    6
 C6 
A    7
 N1 
A    8
 N2 
A    9
 C7 
A   10
 N3 
A   11
 C8 
A   12
 O1 
A   13
 C9 
A   14
 C10
A   15
 C11
A   16
 C12
A   17
 O2 
A   18
 N4 
A   19
 O3 
A   20
 H1 
A   21
 H2 
A   22
 H3 
A   23
 H4 
A   24
 H5 
A   25
 H6 
A   26
 H7 
A   27
 H8 
A   28
 H9 
A   29
 H10
M  END
>  <ref_pdb>  (32) 
x0051_0B

>  <ref_mols>  (32) 
x0404_0B,x0969_0B

>  <original SMILES>  (32) 
[H]c1oc(C(=O)N([H])c2nnc(-c3oc(C([H])([H])[H])c([H])c3[H])n2[H])c([H])c1[H]

>  <index>  (32) 
5386

>  <∆∆G>  (32) 
-5.800928

>  <comRMSD>  (32) 
0.234395

>  <N_constrained_atoms>  (32) 
19.0

>  <N_unconstrained_atoms>  (32) 
0.0

>  <LE>  (32) 
0.305312

>  <percent_hybrid>  (32) 
0.0

>  <max_hit_Tanimoto>  (32) 
0.37892

>  <largest_ring>  (32) 
5

>  <N_interactions_kept>  (32) 
0.0

>  <N_interactions_lost>  (32) 
0.0

>  <interaction_uniqueness_metric>  (32) 
0.113688

>  <N_HA>  (32) 
19

>  <N_rotatable_bonds>  (32) 
4

>  <N_interactions>  (32) 
7

>  <N_PAINS>  (32) 
0

>  <UFF_Gibbs>  (32) 
56.218176

>  <strain_per_HA>  (32) 
2.958836

>  <ad_hoc_penalty>  (32) 
-43.896623

>  <cluster>  (32) 
84

>  <merger_rank>  (32) 
1

>  <pication:ARG:29>  (32) 
0

>  <hbond:HIS:51>  (32) 
0

>  <pistack:HIS:51>  (32) 
2

>  <hydroph_interaction:TYR:161>  (32) 
2

>  <pication:HIS:51>  (32) 
0

>  <hydroph_interaction:ALA:132>  (32) 
1

>  <hydroph_interaction:TYR:150>  (32) 
0

>  <hydroph_interaction:LYS:54>  (32) 
0

>  <hbond:SER:135>  (32) 
1

>  <hydroph_interaction:HIS:51>  (32) 
1

>  <hbond:ASP:83>  (32) 
0

>  <hbond:ALA:132>  (32) 
0

>  <halogenbond:SER:81>  (32) 
0

>  <hbond:GLY:82>  (32) 
0

>  <saltbridge:HIS:51>  (32) 
0

>  <pistack:TYR:161>  (32) 
0

>  <hbond:SER:81>  (32) 
0

>  <hbond:ASN:152>  (32) 
0

>  <hbond:GLY:151>  (32) 
0

>  <hydroph_interaction:ASN:152>  (32) 
0

>  <hbond:TYR:161>  (32) 
0

>  <halogenbond:TYR:150>  (32) 
0

>  <hbond:ASP:75>  (32) 
0

>  <hbond:GLY:153>  (32) 
0

>  <hbond:VAL:36>  (32) 
0

>  <hbond:PRO:131>  (32) 
0

>  <hbond:VAL:52>  (32) 
0

>  <hydroph_interaction:ASP:83>  (32) 
0

>  <hydroph_interaction:MET:49>  (32) 
0

>  <hydroph_interaction:VAL:52>  (32) 
0

>  <saltbridge:ASP:83>  (32) 
0

>  <saltbridge:ASP:75>  (32) 
0

>  <hydroph_interaction:TRP:50>  (32) 
0

>  <hydroph_interaction:VAL:72>  (32) 
0

>  <hydroph_interaction:ASP:75>  (32) 
0

>  <halogenbond:ASN:152>  (32) 
0

>  <halogenbond:GLY:153>  (32) 
0

>  <halogenbond:TYR:130>  (32) 
0

>  <hbond:TYR:130>  (32) 
0

>  <halogenbond:ASP:75>  (32) 
0

>  <halogenbond:GLY:151>  (32) 
0

>  <hbond:TYR:150>  (32) 
0

>  <halogenbond:TYR:161>  (32) 
0

>  <hydroph_interaction:ASP:129>  (32) 
0

>  <hbond:ASP:129>  (32) 
0

>  <halogenbond:ALA:132>  (32) 
0

$$$$
PV-002725188686
     RDKit          3D

 20 22  0  0  0  0  0  0  0  0999 V2000
   -9.2530    3.3770   -9.0720 C   0  0  0  0  0  0  0  0  0  0  0  0
   -8.9630    4.7870   -8.6630 C   0  0  0  0  0  0  0  0  0  0  0  0
   -8.7150    5.7100   -9.5690 N   0  0  0  0  0  0  0  0  0  0  0  0
   -8.7430    5.2810  -10.8660 C   0  0  0  0  0  0  0  0  0  0  0  0
   -8.4470    6.3220  -12.1950 S   0  0  0  0  0  0  0  0  0  0  0  0
   -8.6680    4.9990  -13.2610 C   0  0  0  0  0  0  0  0  0  0  0  0
   -8.5430    5.1420  -14.6580 N   0  0  0  0  0  0  0  0  0  0  0  0
   -7.4500    5.2990  -15.4490 C   0  0  0  0  0  0  0  0  0  0  0  0
   -7.9700    5.3650  -16.7560 C   0  0  0  0  0  0  0  0  0  0  0  0
   -9.3200    5.2500  -16.7500 C   0  0  0  0  0  0  0  0  0  0  0  0
   -9.7150    5.1140  -15.4630 N   0  0  0  0  0  0  0  0  0  0  0  0
   -8.9530    3.8490  -12.7030 N   0  0  0  0  0  0  0  0  0  0  0  0
   -8.9990    3.9800  -11.3410 C   0  0  0  0  0  0  0  0  0  0  0  0
   -9.2710    2.9780  -10.4250 C   0  0  0  0  0  0  0  0  0  0  0  0
   -9.4530    2.6600   -8.2660 H   0  0  0  0  0  0  0  0  0  0  0  0
   -8.9500    5.0850   -7.6160 H   0  0  0  0  0  0  0  0  0  0  0  0
   -6.4430    5.3490  -15.0630 H   0  0  0  0  0  0  0  0  0  0  0  0
   -7.3650    5.4860  -17.6430 H   0  0  0  0  0  0  0  0  0  0  0  0
  -10.0170    5.2580  -17.5780 H   0  0  0  0  0  0  0  0  0  0  0  0
   -9.4760    1.9660  -10.7390 H   0  0  0  0  0  0  0  0  0  0  0  0
  1  2  2  0
  2  3  1  0
  3  4  2  0
  4  5  1  0
  5  6  1  0
  6  7  1  0
  7  8  1  0
  8  9  2  0
  9 10  1  0
 10 11  2  0
  6 12  2  0
 12 13  1  0
 13 14  2  0
 14  1  1  0
 13  4  1  0
 11  7  1  0
  1 15  1  0
  2 16  1  0
  8 17  1  0
  9 18  1  0
 10 19  1  0
 14 20  1  0
A    1
 C1 
A    2
 C2 
A    3
 N1 
A    4
 C3 
A    5
 S1 
A    6
 C4 
A    7
 N2 
A    8
 C5 
A    9
 C6 
A   10
 C7 
A   11
 N3 
A   12
 N4 
A   13
 C8 
A   14
 C9 
A   15
 H1 
A   16
 H2 
A   17
 H3 
A   18
 H4 
A   19
 H5 
A   20
 H6 
M  END
>  <ref_pdb>  (33) 
x0051_0B

>  <ref_mols>  (33) 
x0969_1B,x0553_0B

>  <original SMILES>  (33) 
[H]c1nc2sc(-n3nc([H])c([H])c3[H])nc2c([H])c1[H]

>  <index>  (33) 
1146

>  <∆∆G>  (33) 
-2.99046

>  <comRMSD>  (33) 
0.292976

>  <N_constrained_atoms>  (33) 
13.0

>  <N_unconstrained_atoms>  (33) 
1.0

>  <LE>  (33) 
0.213604

>  <percent_hybrid>  (33) 
0.0

>  <max_hit_Tanimoto>  (33) 
0.358272

>  <largest_ring>  (33) 
6

>  <N_interactions_kept>  (33) 
0.0

>  <N_interactions_lost>  (33) 
0.0

>  <interaction_uniqueness_metric>  (33) 
0.135966

>  <N_HA>  (33) 
14

>  <N_rotatable_bonds>  (33) 
1

>  <N_interactions>  (33) 
7

>  <N_PAINS>  (33) 
0

>  <UFF_Gibbs>  (33) 
35.725329

>  <strain_per_HA>  (33) 
2.551791

>  <ad_hoc_penalty>  (33) 
-43.597189

>  <cluster>  (33) 
4026

>  <merger_rank>  (33) 
1

>  <pication:ARG:29>  (33) 
0

>  <hbond:HIS:51>  (33) 
0

>  <pistack:HIS:51>  (33) 
2

>  <hydroph_interaction:TYR:161>  (33) 
1

>  <pication:HIS:51>  (33) 
0

>  <hydroph_interaction:ALA:132>  (33) 
1

>  <hydroph_interaction:TYR:150>  (33) 
0

>  <hydroph_interaction:LYS:54>  (33) 
0

>  <hbond:SER:135>  (33) 
1

>  <hydroph_interaction:HIS:51>  (33) 
1

>  <hbond:ASP:83>  (33) 
0

>  <hbond:ALA:132>  (33) 
0

>  <halogenbond:SER:81>  (33) 
0

>  <hbond:GLY:82>  (33) 
0

>  <saltbridge:HIS:51>  (33) 
0

>  <pistack:TYR:161>  (33) 
0

>  <hbond:SER:81>  (33) 
0

>  <hbond:ASN:152>  (33) 
0

>  <hbond:GLY:151>  (33) 
0

>  <hydroph_interaction:ASN:152>  (33) 
0

>  <hbond:TYR:161>  (33) 
1

>  <halogenbond:TYR:150>  (33) 
0

>  <hbond:ASP:75>  (33) 
0

>  <hbond:GLY:153>  (33) 
0

>  <hbond:VAL:36>  (33) 
0

>  <hbond:PRO:131>  (33) 
0

>  <hbond:VAL:52>  (33) 
0

>  <hydroph_interaction:ASP:83>  (33) 
0

>  <hydroph_interaction:MET:49>  (33) 
0

>  <hydroph_interaction:VAL:52>  (33) 
0

>  <saltbridge:ASP:83>  (33) 
0

>  <saltbridge:ASP:75>  (33) 
0

>  <hydroph_interaction:TRP:50>  (33) 
0

>  <hydroph_interaction:VAL:72>  (33) 
0

>  <hydroph_interaction:ASP:75>  (33) 
0

>  <halogenbond:ASN:152>  (33) 
0

>  <halogenbond:GLY:153>  (33) 
0

>  <halogenbond:TYR:130>  (33) 
0

>  <hbond:TYR:130>  (33) 
0

>  <halogenbond:ASP:75>  (33) 
0

>  <halogenbond:GLY:151>  (33) 
0

>  <hbond:TYR:150>  (33) 
0

>  <halogenbond:TYR:161>  (33) 
0

>  <hydroph_interaction:ASP:129>  (33) 
0

>  <hbond:ASP:129>  (33) 
0

>  <halogenbond:ALA:132>  (33) 
0

$$$$
PV-003206130395
     RDKit          3D

 24 25  0  0  0  0  0  0  0  0999 V2000
   -9.8150    4.8450  -18.1770 C   0  0  0  0  0  0  0  0  0  0  0  0
   -8.8390    5.0570  -17.2220 C   0  0  0  0  0  0  0  0  0  0  0  0
   -7.6280    5.3030  -17.6460 N   0  0  0  0  0  0  0  0  0  0  0  0
   -6.7360    5.4640  -16.2490 S   0  0  0  0  0  0  0  0  0  0  0  0
   -8.0970    5.1760  -15.2330 C   0  0  0  0  0  0  0  0  0  0  0  0
   -8.0240    5.1330  -13.8520 C   0  0  0  0  0  0  0  0  0  0  0  0
   -9.1390    4.8020  -12.9070 C   0  0  0  0  0  0  0  0  0  0  0  0
   -8.7170    4.7900  -11.4380 C   0  0  0  0  0  0  0  0  0  0  0  0
   -9.4510    3.9020  -10.7140 C   0  0  0  0  0  0  0  0  0  0  0  0
  -10.4470    3.1070  -11.2140 C   0  0  0  0  0  0  0  0  0  0  0  0
   -9.0460    3.9020   -9.3420 C   0  0  0  0  0  0  0  0  0  0  0  0
   -7.9890    4.8320   -9.1060 C   0  0  0  0  0  0  0  0  0  0  0  0
   -7.5370    5.6510  -10.5400 S   0  0  0  0  0  0  0  0  0  0  0  0
   -9.1820    4.9890  -15.9680 N   0  0  0  0  0  0  0  0  0  0  0  0
   -9.9460    3.7850  -18.3960 H   0  0  0  0  0  0  0  0  0  0  0  0
   -9.5520    5.3620  -19.1060 H   0  0  0  0  0  0  0  0  0  0  0  0
  -10.7800    5.2340  -17.8520 H   0  0  0  0  0  0  0  0  0  0  0  0
   -7.0830    5.3300  -13.3240 H   0  0  0  0  0  0  0  0  0  0  0  0
  -10.1440    4.5760  -13.2390 H   0  0  0  0  0  0  0  0  0  0  0  0
  -10.3560    2.7420  -12.2260 H   0  0  0  0  0  0  0  0  0  0  0  0
  -11.4900    3.3890  -11.2290 H   0  0  0  0  0  0  0  0  0  0  0  0
  -10.5080    2.1910  -10.6590 H   0  0  0  0  0  0  0  0  0  0  0  0
   -9.4760    3.2810   -8.5630 H   0  0  0  0  0  0  0  0  0  0  0  0
   -7.4880    5.0400   -8.1720 H   0  0  0  0  0  0  0  0  0  0  0  0
  1  2  1  0
  2  3  2  0
  3  4  1  0
  4  5  1  0
  5  6  1  0
  6  7  2  3
  7  8  1  0
  8  9  2  0
  9 10  1  0
  9 11  1  0
 11 12  2  0
 12 13  1  0
  5 14  2  0
 14  2  1  0
 13  8  1  0
  1 15  1  0
  1 16  1  0
  1 17  1  0
  6 18  1  0
  7 19  1  0
 10 20  1  0
 10 21  1  0
 10 22  1  0
 11 23  1  0
 12 24  1  0
A    1
 C1 
A    2
 C2 
A    3
 N1 
A    4
 S1 
A    5
 C3 
A    6
 C4 
A    7
 C5 
A    8
 C6 
A    9
 C7 
A   10
 C8 
A   11
 C9 
A   12
 C10
A   13
 S2 
A   14
 N2 
A   15
 H1 
A   16
 H2 
A   17
 H3 
A   18
 H4 
A   19
 H5 
A   20
 H6 
A   21
 H7 
A   22
 H8 
A   23
 H9 
A   24
 H10
M  END
>  <ref_pdb>  (34) 
x0051_0B

>  <ref_mols>  (34) 
x0969_1B,x0553_0B

>  <original SMILES>  (34) 
[H]C(=C([H])c1sc([H])c([H])c1C([H])([H])[H])c1nc(C([H])([H])[H])ns1

>  <index>  (34) 
1451

>  <∆∆G>  (34) 
-6.064804

>  <comRMSD>  (34) 
0.365422

>  <N_constrained_atoms>  (34) 
13.0

>  <N_unconstrained_atoms>  (34) 
1.0

>  <LE>  (34) 
0.4332

>  <percent_hybrid>  (34) 
0.0

>  <max_hit_Tanimoto>  (34) 
0.217325

>  <largest_ring>  (34) 
5

>  <N_interactions_kept>  (34) 
0.0

>  <N_interactions_lost>  (34) 
0.0

>  <interaction_uniqueness_metric>  (34) 
0.270004

>  <N_HA>  (34) 
14

>  <N_rotatable_bonds>  (34) 
4

>  <N_interactions>  (34) 
7

>  <N_PAINS>  (34) 
0

>  <UFF_Gibbs>  (34) 
78.417335

>  <strain_per_HA>  (34) 
5.601198

>  <ad_hoc_penalty>  (34) 
-43.310624

>  <cluster>  (34) 
3773

>  <merger_rank>  (34) 
1

>  <pication:ARG:29>  (34) 
0

>  <hbond:HIS:51>  (34) 
0

>  <pistack:HIS:51>  (34) 
1

>  <hydroph_interaction:TYR:161>  (34) 
1

>  <pication:HIS:51>  (34) 
0

>  <hydroph_interaction:ALA:132>  (34) 
0

>  <hydroph_interaction:TYR:150>  (34) 
1

>  <hydroph_interaction:LYS:54>  (34) 
0

>  <hbond:SER:135>  (34) 
0

>  <hydroph_interaction:HIS:51>  (34) 
1

>  <hbond:ASP:83>  (34) 
0

>  <hbond:ALA:132>  (34) 
0

>  <halogenbond:SER:81>  (34) 
0

>  <hbond:GLY:82>  (34) 
0

>  <saltbridge:HIS:51>  (34) 
0

>  <pistack:TYR:161>  (34) 
1

>  <hbond:SER:81>  (34) 
0

>  <hbond:ASN:152>  (34) 
0

>  <hbond:GLY:151>  (34) 
0

>  <hydroph_interaction:ASN:152>  (34) 
1

>  <hbond:TYR:161>  (34) 
1

>  <halogenbond:TYR:150>  (34) 
0

>  <hbond:ASP:75>  (34) 
0

>  <hbond:GLY:153>  (34) 
0

>  <hbond:VAL:36>  (34) 
0

>  <hbond:PRO:131>  (34) 
0

>  <hbond:VAL:52>  (34) 
0

>  <hydroph_interaction:ASP:83>  (34) 
0

>  <hydroph_interaction:MET:49>  (34) 
0

>  <hydroph_interaction:VAL:52>  (34) 
0

>  <saltbridge:ASP:83>  (34) 
0

>  <saltbridge:ASP:75>  (34) 
0

>  <hydroph_interaction:TRP:50>  (34) 
0

>  <hydroph_interaction:VAL:72>  (34) 
0

>  <hydroph_interaction:ASP:75>  (34) 
0

>  <halogenbond:ASN:152>  (34) 
0

>  <halogenbond:GLY:153>  (34) 
0

>  <halogenbond:TYR:130>  (34) 
0

>  <hbond:TYR:130>  (34) 
0

>  <halogenbond:ASP:75>  (34) 
0

>  <halogenbond:GLY:151>  (34) 
0

>  <hbond:TYR:150>  (34) 
0

>  <halogenbond:TYR:161>  (34) 
0

>  <hydroph_interaction:ASP:129>  (34) 
0

>  <hbond:ASP:129>  (34) 
0

>  <halogenbond:ALA:132>  (34) 
0

$$$$
Z2610574050
     RDKit          3D

 24 25  0  0  0  0  0  0  0  0999 V2000
   -8.6620    5.5440  -15.2580 C   0  0  0  0  0  0  0  0  0  0  0  0
   -9.5170    4.8870  -14.3120 N   0  0  0  0  0  0  0  0  0  0  0  0
   -9.1480    4.7060  -13.0050 C   0  0  0  0  0  0  0  0  0  0  0  0
   -9.3850    3.6590  -12.2490 N   0  0  0  0  0  0  0  0  0  0  0  0
   -8.8850    3.7730  -10.9660 N   0  0  0  0  0  0  0  0  0  0  0  0
   -8.2800    4.9220  -10.8050 C   0  0  0  0  0  0  0  0  0  0  0  0
   -7.5620    5.2470   -9.2070 S   0  0  0  0  0  0  0  0  0  0  0  0
   -8.8170    4.5440   -8.0910 C   0  0  0  0  0  0  0  0  0  0  0  0
   -9.2600    3.1120   -8.4170 C   0  0  0  0  0  0  0  0  0  0  0  0
  -10.2810    2.6860   -7.4760 C   0  0  0  0  0  0  0  0  0  0  0  0
  -10.7630    3.4790   -6.4500 C   0  0  0  0  0  0  0  0  0  0  0  0
  -11.8590    3.0070   -5.5580 C   0  0  0  0  0  0  0  0  0  0  0  0
  -10.2810    4.7300   -6.2320 N   0  0  0  0  0  0  0  0  0  0  0  0
   -9.3100    5.2640   -7.0520 N   0  0  0  0  0  0  0  0  0  0  0  0
   -8.2690    5.9410  -12.1750 S   0  0  0  0  0  0  0  0  0  0  0  0
   -8.9860    5.3120  -16.2780 H   0  0  0  0  0  0  0  0  0  0  0  0
   -8.7170    6.6260  -15.1030 H   0  0  0  0  0  0  0  0  0  0  0  0
   -7.6220    5.2180  -15.1320 H   0  0  0  0  0  0  0  0  0  0  0  0
   -9.9440    4.0580  -14.7140 H   0  0  0  0  0  0  0  0  0  0  0  0
   -8.8810    2.4990   -9.2320 H   0  0  0  0  0  0  0  0  0  0  0  0
  -10.6940    1.6950   -7.5970 H   0  0  0  0  0  0  0  0  0  0  0  0
  -12.8210    3.2130   -6.0190 H   0  0  0  0  0  0  0  0  0  0  0  0
  -11.8080    3.5540   -4.6210 H   0  0  0  0  0  0  0  0  0  0  0  0
  -11.8240    1.9340   -5.3970 H   0  0  0  0  0  0  0  0  0  0  0  0
  1  2  1  0
  2  3  1  0
  3  4  2  0
  4  5  1  0
  5  6  2  0
  6  7  1  0
  7  8  1  0
  8  9  2  0
  9 10  1  0
 10 11  2  0
 11 12  1  0
 11 13  1  0
 13 14  2  0
  6 15  1  0
 15  3  1  0
 14  8  1  0
  1 16  1  0
  1 17  1  0
  1 18  1  0
  2 19  1  0
  9 20  1  0
 10 21  1  0
 12 22  1  0
 12 23  1  0
 12 24  1  0
A    1
 C1 
A    2
 N1 
A    3
 C2 
A    4
 N2 
A    5
 N3 
A    6
 C3 
A    7
 S1 
A    8
 C4 
A    9
 C5 
A   10
 C6 
A   11
 C7 
A   12
 C8 
A   13
 N4 
A   14
 N5 
A   15
 S2 
A   16
 H1 
A   17
 H2 
A   18
 H3 
A   19
 H4 
A   20
 H5 
A   21
 H6 
A   22
 H7 
A   23
 H8 
A   24
 H9 
M  END
>  <ref_pdb>  (35) 
x0051_0B

>  <ref_mols>  (35) 
x0969_1B,x0553_0B

>  <original SMILES>  (35) 
[H]c1c(Sc2nnc(N([H])C([H])([H])[H])s2)nnc(C([H])([H])[H])c1[H]

>  <index>  (35) 
712

>  <∆∆G>  (35) 
-4.445642

>  <comRMSD>  (35) 
0.419009

>  <N_constrained_atoms>  (35) 
11.0

>  <N_unconstrained_atoms>  (35) 
6.0

>  <LE>  (35) 
0.261508

>  <percent_hybrid>  (35) 
0.0

>  <max_hit_Tanimoto>  (35) 
0.190594

>  <largest_ring>  (35) 
6

>  <N_interactions_kept>  (35) 
0.0

>  <N_interactions_lost>  (35) 
0.0

>  <interaction_uniqueness_metric>  (35) 
0.737891

>  <N_HA>  (35) 
15

>  <N_rotatable_bonds>  (35) 
5

>  <N_interactions>  (35) 
7

>  <N_PAINS>  (35) 
0

>  <UFF_Gibbs>  (35) 
63.709088

>  <strain_per_HA>  (35) 
4.247244

>  <ad_hoc_penalty>  (35) 
-43.238104

>  <cluster>  (35) 
643

>  <merger_rank>  (35) 
2

>  <pication:ARG:29>  (35) 
0

>  <hbond:HIS:51>  (35) 
1

>  <pistack:HIS:51>  (35) 
1

>  <hydroph_interaction:TYR:161>  (35) 
0

>  <pication:HIS:51>  (35) 
1

>  <hydroph_interaction:ALA:132>  (35) 
0

>  <hydroph_interaction:TYR:150>  (35) 
0

>  <hydroph_interaction:LYS:54>  (35) 
0

>  <hbond:SER:135>  (35) 
0

>  <hydroph_interaction:HIS:51>  (35) 
1

>  <hbond:ASP:83>  (35) 
0

>  <hbond:ALA:132>  (35) 
0

>  <halogenbond:SER:81>  (35) 
0

>  <hbond:GLY:82>  (35) 
0

>  <saltbridge:HIS:51>  (35) 
0

>  <pistack:TYR:161>  (35) 
0

>  <hbond:SER:81>  (35) 
0

>  <hbond:ASN:152>  (35) 
0

>  <hbond:GLY:151>  (35) 
0

>  <hydroph_interaction:ASN:152>  (35) 
0

>  <hbond:TYR:161>  (35) 
1

>  <halogenbond:TYR:150>  (35) 
0

>  <hbond:ASP:75>  (35) 
0

>  <hbond:GLY:153>  (35) 
0

>  <hbond:VAL:36>  (35) 
0

>  <hbond:PRO:131>  (35) 
0

>  <hbond:VAL:52>  (35) 
0

>  <hydroph_interaction:ASP:83>  (35) 
0

>  <hydroph_interaction:MET:49>  (35) 
0

>  <hydroph_interaction:VAL:52>  (35) 
0

>  <saltbridge:ASP:83>  (35) 
0

>  <saltbridge:ASP:75>  (35) 
0

>  <hydroph_interaction:TRP:50>  (35) 
1

>  <hydroph_interaction:VAL:72>  (35) 
1

>  <hydroph_interaction:ASP:75>  (35) 
0

>  <halogenbond:ASN:152>  (35) 
0

>  <halogenbond:GLY:153>  (35) 
0

>  <halogenbond:TYR:130>  (35) 
0

>  <hbond:TYR:130>  (35) 
0

>  <halogenbond:ASP:75>  (35) 
0

>  <halogenbond:GLY:151>  (35) 
0

>  <hbond:TYR:150>  (35) 
0

>  <halogenbond:TYR:161>  (35) 
0

>  <hydroph_interaction:ASP:129>  (35) 
0

>  <hbond:ASP:129>  (35) 
0

>  <halogenbond:ALA:132>  (35) 
0

$$$$
Z915492670
     RDKit          3D

 23 24  0  0  0  0  0  0  0  0999 V2000
   -9.0250    4.7180  -19.7270 C   0  0  0  0  0  0  0  0  0  0  0  0
   -8.7020    4.9570  -18.4410 C   0  0  0  0  0  0  0  0  0  0  0  0
   -7.4840    5.3180  -18.0390 N   0  0  0  0  0  0  0  0  0  0  0  0
   -7.5030    5.4730  -16.6810 C   0  0  0  0  0  0  0  0  0  0  0  0
   -8.7140    5.2490  -15.9770 C   0  0  0  0  0  0  0  0  0  0  0  0
   -9.0630    5.3210  -14.6420 C   0  0  0  0  0  0  0  0  0  0  0  0
  -10.2170    5.6160  -14.3720 O   0  0  0  0  0  0  0  0  0  0  0  0
   -8.1050    5.0680  -13.6920 N   0  0  0  0  0  0  0  0  0  0  0  0
   -8.3520    4.8630  -12.3570 C   0  0  0  0  0  0  0  0  0  0  0  0
   -8.1550    5.7850  -11.4030 N   0  0  0  0  0  0  0  0  0  0  0  0
   -8.4850    5.3060  -10.1840 N   0  0  0  0  0  0  0  0  0  0  0  0
   -8.9350    3.9860  -10.2750 C   0  0  0  0  0  0  0  0  0  0  0  0
   -9.3490    3.2460   -9.1200 C   0  0  0  0  0  0  0  0  0  0  0  0
   -8.9540    3.3310  -11.8570 S   0  0  0  0  0  0  0  0  0  0  0  0
   -9.8630    4.8140  -17.1790 S   0  0  0  0  0  0  0  0  0  0  0  0
   -9.3870    3.7730  -20.0400 H   0  0  0  0  0  0  0  0  0  0  0  0
   -8.1400    4.9110  -20.3360 H   0  0  0  0  0  0  0  0  0  0  0  0
   -9.7860    5.4460  -20.0370 H   0  0  0  0  0  0  0  0  0  0  0  0
   -6.6140    5.7670  -16.1110 H   0  0  0  0  0  0  0  0  0  0  0  0
   -7.1760    4.7720  -13.9570 H   0  0  0  0  0  0  0  0  0  0  0  0
   -9.0260    2.2030   -9.2130 H   0  0  0  0  0  0  0  0  0  0  0  0
   -8.8720    3.6620   -8.2280 H   0  0  0  0  0  0  0  0  0  0  0  0
  -10.4120    3.2020   -8.8720 H   0  0  0  0  0  0  0  0  0  0  0  0
  1  2  1  0
  2  3  2  0
  3  4  1  0
  4  5  2  0
  5  6  1  0
  6  7  2  0
  6  8  1  0
  8  9  1  0
  9 10  2  0
 10 11  1  0
 11 12  2  0
 12 13  1  0
 12 14  1  0
  5 15  1  0
 15  2  1  0
 14  9  1  0
  1 16  1  0
  1 17  1  0
  1 18  1  0
  4 19  1  0
  8 20  1  0
 13 21  1  0
 13 22  1  0
 13 23  1  0
A    1
 C1 
A    2
 C2 
A    3
 N1 
A    4
 C3 
A    5
 C4 
A    6
 C5 
A    7
 O1 
A    8
 N2 
A    9
 C6 
A   10
 N3 
A   11
 N4 
A   12
 C7 
A   13
 C8 
A   14
 S1 
A   15
 S2 
A   16
 H1 
A   17
 H2 
A   18
 H3 
A   19
 H4 
A   20
 H5 
A   21
 H6 
A   22
 H7 
A   23
 H8 
M  END
>  <ref_pdb>  (36) 
x0051_0B

>  <ref_mols>  (36) 
x0969_1B,x0553_0B

>  <original SMILES>  (36) 
[H]c1nc(C([H])([H])[H])sc1C(=O)N([H])c1nnc(C([H])([H])[H])s1

>  <index>  (36) 
3329

>  <∆∆G>  (36) 
-7.365113

>  <comRMSD>  (36) 
0.384725

>  <N_constrained_atoms>  (36) 
14.0

>  <N_unconstrained_atoms>  (36) 
1.0

>  <LE>  (36) 
0.491008

>  <percent_hybrid>  (36) 
0.0

>  <max_hit_Tanimoto>  (36) 
0.41745

>  <largest_ring>  (36) 
5

>  <N_interactions_kept>  (36) 
0.0

>  <N_interactions_lost>  (36) 
0.0

>  <interaction_uniqueness_metric>  (36) 
0.167828

>  <N_HA>  (36) 
15

>  <N_rotatable_bonds>  (36) 
4

>  <N_interactions>  (36) 
6

>  <N_PAINS>  (36) 
0

>  <UFF_Gibbs>  (36) 
46.752476

>  <strain_per_HA>  (36) 
3.116811

>  <ad_hoc_penalty>  (36) 
-43.052546

>  <cluster>  (36) 
218

>  <merger_rank>  (36) 
3

>  <pication:ARG:29>  (36) 
0

>  <hbond:HIS:51>  (36) 
0

>  <pistack:HIS:51>  (36) 
1

>  <hydroph_interaction:TYR:161>  (36) 
1

>  <pication:HIS:51>  (36) 
0

>  <hydroph_interaction:ALA:132>  (36) 
0

>  <hydroph_interaction:TYR:150>  (36) 
1

>  <hydroph_interaction:LYS:54>  (36) 
0

>  <hbond:SER:135>  (36) 
1

>  <hydroph_interaction:HIS:51>  (36) 
1

>  <hbond:ASP:83>  (36) 
0

>  <hbond:ALA:132>  (36) 
0

>  <halogenbond:SER:81>  (36) 
0

>  <hbond:GLY:82>  (36) 
0

>  <saltbridge:HIS:51>  (36) 
0

>  <pistack:TYR:161>  (36) 
1

>  <hbond:SER:81>  (36) 
0

>  <hbond:ASN:152>  (36) 
0

>  <hbond:GLY:151>  (36) 
0

>  <hydroph_interaction:ASN:152>  (36) 
0

>  <hbond:TYR:161>  (36) 
0

>  <halogenbond:TYR:150>  (36) 
0

>  <hbond:ASP:75>  (36) 
0

>  <hbond:GLY:153>  (36) 
0

>  <hbond:VAL:36>  (36) 
0

>  <hbond:PRO:131>  (36) 
0

>  <hbond:VAL:52>  (36) 
0

>  <hydroph_interaction:ASP:83>  (36) 
0

>  <hydroph_interaction:MET:49>  (36) 
0

>  <hydroph_interaction:VAL:52>  (36) 
0

>  <saltbridge:ASP:83>  (36) 
0

>  <saltbridge:ASP:75>  (36) 
0

>  <hydroph_interaction:TRP:50>  (36) 
0

>  <hydroph_interaction:VAL:72>  (36) 
0

>  <hydroph_interaction:ASP:75>  (36) 
0

>  <halogenbond:ASN:152>  (36) 
0

>  <halogenbond:GLY:153>  (36) 
0

>  <halogenbond:TYR:130>  (36) 
0

>  <hbond:TYR:130>  (36) 
0

>  <halogenbond:ASP:75>  (36) 
0

>  <halogenbond:GLY:151>  (36) 
0

>  <hbond:TYR:150>  (36) 
0

>  <halogenbond:TYR:161>  (36) 
0

>  <hydroph_interaction:ASP:129>  (36) 
0

>  <hbond:ASP:129>  (36) 
0

>  <halogenbond:ALA:132>  (36) 
0

$$$$
Z2187865212
     RDKit          3D

 27 28  0  0  0  0  0  0  0  0999 V2000
   -9.3050    3.6210   -7.7530 C   0  0  0  0  0  0  0  0  0  0  0  0
   -9.0830    4.4830   -8.9160 N   0  0  0  0  0  0  0  0  0  0  0  0
   -9.1140    4.0350  -10.2500 C   0  0  0  0  0  0  0  0  0  0  0  0
   -8.8620    5.1320  -11.1510 C   0  0  0  0  0  0  0  0  0  0  0  0
   -8.8310    4.9870  -12.5570 N   0  0  0  0  0  0  0  0  0  0  0  0
   -9.1030    6.0860  -13.2430 C   0  0  0  0  0  0  0  0  0  0  0  0
   -9.3260    7.1870  -12.7400 O   0  0  0  0  0  0  0  0  0  0  0  0
   -9.1270    5.9560  -14.6510 C   0  0  0  0  0  0  0  0  0  0  0  0
   -7.8990    5.7260  -15.4120 C   0  0  0  0  0  0  0  0  0  0  0  0
   -7.8290    5.5840  -16.7930 C   0  0  0  0  0  0  0  0  0  0  0  0
   -8.8350    4.9080  -17.5080 C   0  0  0  0  0  0  0  0  0  0  0  0
   -8.4670    4.9340  -18.9250 C   0  0  0  0  0  0  0  0  0  0  0  0
   -7.2230    5.6490  -18.9610 C   0  0  0  0  0  0  0  0  0  0  0  0
   -6.8880    6.0130  -17.6740 N   0  0  0  0  0  0  0  0  0  0  0  0
   -8.6820    6.2220  -10.3280 N   0  0  0  0  0  0  0  0  0  0  0  0
   -8.8180    5.8100   -8.9870 N   0  0  0  0  0  0  0  0  0  0  0  0
   -8.3720    3.4410   -7.2100 H   0  0  0  0  0  0  0  0  0  0  0  0
  -10.0150    4.0710   -7.0520 H   0  0  0  0  0  0  0  0  0  0  0  0
   -9.7070    2.6460   -8.0610 H   0  0  0  0  0  0  0  0  0  0  0  0
   -9.3040    3.0000  -10.5610 H   0  0  0  0  0  0  0  0  0  0  0  0
   -9.1350    4.0970  -12.9220 H   0  0  0  0  0  0  0  0  0  0  0  0
  -10.1490    6.0550  -14.9880 H   0  0  0  0  0  0  0  0  0  0  0  0
   -6.9450    5.6510  -14.9030 H   0  0  0  0  0  0  0  0  0  0  0  0
   -9.6830    4.4900  -16.9540 H   0  0  0  0  0  0  0  0  0  0  0  0
   -9.0750    4.4790  -19.7160 H   0  0  0  0  0  0  0  0  0  0  0  0
   -6.6610    5.8550  -19.8680 H   0  0  0  0  0  0  0  0  0  0  0  0
   -6.0530    6.5300  -17.4280 H   0  0  0  0  0  0  0  0  0  0  0  0
  1  2  1  0
  2  3  1  0
  3  4  2  0
  4  5  1  0
  5  6  1  0
  6  7  2  0
  6  8  1  0
  8  9  2  3
  9 10  1  0
 10 11  2  0
 11 12  1  0
 12 13  2  0
 13 14  1  0
  4 15  1  0
 15 16  2  0
 16  2  1  0
 14 10  1  0
  1 17  1  0
  1 18  1  0
  1 19  1  0
  3 20  1  0
  5 21  1  0
  8 22  1  0
  9 23  1  0
 11 24  1  0
 12 25  1  0
 13 26  1  0
 14 27  1  0
A    1
 C1 
A    2
 N1 
A    3
 C2 
A    4
 C3 
A    5
 N2 
A    6
 C4 
A    7
 O1 
A    8
 C5 
A    9
 C6 
A   10
 C7 
A   11
 C8 
A   12
 C9 
A   13
 C10
A   14
 N3 
A   15
 N4 
A   16
 N5 
A   17
 H1 
A   18
 H2 
A   19
 H3 
A   20
 H4 
A   21
 H5 
A   22
 H6 
A   23
 H7 
A   24
 H8 
A   25
 H9 
A   26
 H10
A   27
 H11
M  END
>  <ref_pdb>  (37) 
x0051_0B

>  <ref_mols>  (37) 
x0404_0B,x0969_0B

>  <original SMILES>  (37) 
[H]C(C(=O)N([H])c1nnn(C([H])([H])[H])c1[H])=C([H])c1c([H])c([H])c([H])n1[H]

>  <index>  (37) 
6100

>  <∆∆G>  (37) 
-5.667424

>  <comRMSD>  (37) 
0.205728

>  <N_constrained_atoms>  (37) 
16.0

>  <N_unconstrained_atoms>  (37) 
0.0

>  <LE>  (37) 
0.354214

>  <percent_hybrid>  (37) 
0.0

>  <max_hit_Tanimoto>  (37) 
0.18414

>  <largest_ring>  (37) 
5

>  <N_interactions_kept>  (37) 
0.0

>  <N_interactions_lost>  (37) 
0.0

>  <interaction_uniqueness_metric>  (37) 
0.466801

>  <N_HA>  (37) 
16

>  <N_rotatable_bonds>  (37) 
4

>  <N_interactions>  (37) 
6

>  <N_PAINS>  (37) 
0

>  <UFF_Gibbs>  (37) 
75.303452

>  <strain_per_HA>  (37) 
4.706436

>  <ad_hoc_penalty>  (37) 
-43.01599

>  <cluster>  (37) 
704

>  <merger_rank>  (37) 
2

>  <pication:ARG:29>  (37) 
0

>  <hbond:HIS:51>  (37) 
0

>  <pistack:HIS:51>  (37) 
1

>  <hydroph_interaction:TYR:161>  (37) 
2

>  <pication:HIS:51>  (37) 
0

>  <hydroph_interaction:ALA:132>  (37) 
0

>  <hydroph_interaction:TYR:150>  (37) 
0

>  <hydroph_interaction:LYS:54>  (37) 
0

>  <hbond:SER:135>  (37) 
0

>  <hydroph_interaction:HIS:51>  (37) 
0

>  <hbond:ASP:83>  (37) 
0

>  <hbond:ALA:132>  (37) 
0

>  <halogenbond:SER:81>  (37) 
0

>  <hbond:GLY:82>  (37) 
0

>  <saltbridge:HIS:51>  (37) 
0

>  <pistack:TYR:161>  (37) 
0

>  <hbond:SER:81>  (37) 
0

>  <hbond:ASN:152>  (37) 
0

>  <hbond:GLY:151>  (37) 
1

>  <hydroph_interaction:ASN:152>  (37) 
0

>  <hbond:TYR:161>  (37) 
0

>  <halogenbond:TYR:150>  (37) 
0

>  <hbond:ASP:75>  (37) 
0

>  <hbond:GLY:153>  (37) 
0

>  <hbond:VAL:36>  (37) 
0

>  <hbond:PRO:131>  (37) 
0

>  <hbond:VAL:52>  (37) 
0

>  <hydroph_interaction:ASP:83>  (37) 
0

>  <hydroph_interaction:MET:49>  (37) 
0

>  <hydroph_interaction:VAL:52>  (37) 
0

>  <saltbridge:ASP:83>  (37) 
1

>  <saltbridge:ASP:75>  (37) 
1

>  <hydroph_interaction:TRP:50>  (37) 
0

>  <hydroph_interaction:VAL:72>  (37) 
0

>  <hydroph_interaction:ASP:75>  (37) 
0

>  <halogenbond:ASN:152>  (37) 
0

>  <halogenbond:GLY:153>  (37) 
0

>  <halogenbond:TYR:130>  (37) 
0

>  <hbond:TYR:130>  (37) 
0

>  <halogenbond:ASP:75>  (37) 
0

>  <halogenbond:GLY:151>  (37) 
0

>  <hbond:TYR:150>  (37) 
0

>  <halogenbond:TYR:161>  (37) 
0

>  <hydroph_interaction:ASP:129>  (37) 
0

>  <hbond:ASP:129>  (37) 
0

>  <halogenbond:ALA:132>  (37) 
0

$$$$
Z1246299979
     RDKit          3D

 29 31  0  0  0  0  0  0  0  0999 V2000
   -9.9100    4.6770  -17.9810 C   0  0  0  0  0  0  0  0  0  0  0  0
   -8.5100    5.0970  -17.5720 C   0  0  0  0  0  0  0  0  0  0  0  0
   -8.0480    5.6650  -16.4190 C   0  0  0  0  0  0  0  0  0  0  0  0
   -8.8890    6.0000  -15.3080 C   0  0  0  0  0  0  0  0  0  0  0  0
  -10.0540    5.6600  -15.2020 O   0  0  0  0  0  0  0  0  0  0  0  0
   -8.2580    6.7770  -14.3500 N   0  0  0  0  0  0  0  0  0  0  0  0
   -9.0020    7.2720  -13.2130 C   0  0  0  0  0  0  0  0  0  0  0  0
   -9.0030    6.2060  -12.2100 C   0  0  0  0  0  0  0  0  0  0  0  0
   -8.9090    6.6400  -10.7740 C   0  0  0  0  0  0  0  0  0  0  0  0
   -8.9440    5.3600  -10.0560 C   0  0  0  0  0  0  0  0  0  0  0  0
   -9.0490    4.1220  -10.8710 C   0  0  0  0  0  0  0  0  0  0  0  0
   -9.0740    3.0410  -10.0840 C   0  0  0  0  0  0  0  0  0  0  0  0
   -8.9890    3.5550   -8.7690 C   0  0  0  0  0  0  0  0  0  0  0  0
   -8.9060    4.9470   -8.7250 O   0  0  0  0  0  0  0  0  0  0  0  0
   -9.1020    4.5200  -12.5280 S   0  0  0  0  0  0  0  0  0  0  0  0
   -6.3920    6.0080  -16.2810 S   0  0  0  0  0  0  0  0  0  0  0  0
   -6.1920    5.3820  -17.8550 C   0  0  0  0  0  0  0  0  0  0  0  0
   -7.3730    4.9350  -18.4380 C   0  0  0  0  0  0  0  0  0  0  0  0
  -10.5370    4.5410  -17.1000 H   0  0  0  0  0  0  0  0  0  0  0  0
   -9.8770    3.7300  -18.5260 H   0  0  0  0  0  0  0  0  0  0  0  0
  -10.3890    5.4140  -18.6310 H   0  0  0  0  0  0  0  0  0  0  0  0
   -7.2830    6.5750  -14.1830 H   0  0  0  0  0  0  0  0  0  0  0  0
  -10.0210    7.5300  -13.5220 H   0  0  0  0  0  0  0  0  0  0  0  0
   -8.5190    8.1800  -12.8400 H   0  0  0  0  0  0  0  0  0  0  0  0
   -8.8380    7.6440  -10.3820 H   0  0  0  0  0  0  0  0  0  0  0  0
   -9.1470    2.0070  -10.4490 H   0  0  0  0  0  0  0  0  0  0  0  0
   -8.9820    2.9600   -7.8640 H   0  0  0  0  0  0  0  0  0  0  0  0
   -5.2160    5.3540  -18.3260 H   0  0  0  0  0  0  0  0  0  0  0  0
   -7.4320    4.5110  -19.4320 H   0  0  0  0  0  0  0  0  0  0  0  0
  1  2  1  0
  2  3  2  0
  3  4  1  0
  4  5  2  0
  4  6  1  0
  6  7  1  0
  7  8  1  0
  8  9  2  0
  9 10  1  0
 10 11  2  0
 11 12  1  0
 12 13  2  0
 13 14  1  0
 11 15  1  0
  3 16  1  0
 16 17  1  0
 17 18  2  0
 18  2  1  0
 15  8  1  0
 14 10  1  0
  1 19  1  0
  1 20  1  0
  1 21  1  0
  6 22  1  0
  7 23  1  0
  7 24  1  0
  9 25  1  0
 12 26  1  0
 13 27  1  0
 17 28  1  0
 18 29  1  0
A    1
 C1 
A    2
 C2 
A    3
 C3 
A    4
 C4 
A    5
 O1 
A    6
 N1 
A    7
 C5 
A    8
 C6 
A    9
 C7 
A   10
 C8 
A   11
 C9 
A   12
 C10
A   13
 C11
A   14
 O2 
A   15
 S1 
A   16
 S2 
A   17
 C12
A   18
 C13
A   19
 H1 
A   20
 H2 
A   21
 H3 
A   22
 H4 
A   23
 H5 
A   24
 H6 
A   25
 H7 
A   26
 H8 
A   27
 H9 
A   28
 H10
A   29
 H11
M  END
>  <ref_pdb>  (38) 
x0051_0B

>  <ref_mols>  (38) 
x0404_0B,x0969_0B

>  <original SMILES>  (38) 
[H]c1oc2c([H])c(C([H])([H])N([H])C(=O)c3sc([H])c([H])c3C([H])([H])[H])sc2c1[H]

>  <index>  (38) 
4450

>  <∆∆G>  (38) 
-7.533623

>  <comRMSD>  (38) 
0.321486

>  <N_constrained_atoms>  (38) 
17.0

>  <N_unconstrained_atoms>  (38) 
1.0

>  <LE>  (38) 
0.418535

>  <percent_hybrid>  (38) 
0.0

>  <max_hit_Tanimoto>  (38) 
0.37665

>  <largest_ring>  (38) 
5

>  <N_interactions_kept>  (38) 
0.0

>  <N_interactions_lost>  (38) 
0.0

>  <interaction_uniqueness_metric>  (38) 
0.155686

>  <N_HA>  (38) 
18

>  <N_rotatable_bonds>  (38) 
4

>  <N_interactions>  (38) 
6

>  <N_PAINS>  (38) 
0

>  <UFF_Gibbs>  (38) 
73.344285

>  <strain_per_HA>  (38) 
4.07466

>  <ad_hoc_penalty>  (38) 
-42.91658

>  <cluster>  (38) 
92

>  <merger_rank>  (38) 
1

>  <pication:ARG:29>  (38) 
0

>  <hbond:HIS:51>  (38) 
0

>  <pistack:HIS:51>  (38) 
2

>  <hydroph_interaction:TYR:161>  (38) 
1

>  <pication:HIS:51>  (38) 
0

>  <hydroph_interaction:ALA:132>  (38) 
0

>  <hydroph_interaction:TYR:150>  (38) 
1

>  <hydroph_interaction:LYS:54>  (38) 
0

>  <hbond:SER:135>  (38) 
1

>  <hydroph_interaction:HIS:51>  (38) 
0

>  <hbond:ASP:83>  (38) 
0

>  <hbond:ALA:132>  (38) 
0

>  <halogenbond:SER:81>  (38) 
0

>  <hbond:GLY:82>  (38) 
0

>  <saltbridge:HIS:51>  (38) 
0

>  <pistack:TYR:161>  (38) 
1

>  <hbond:SER:81>  (38) 
0

>  <hbond:ASN:152>  (38) 
0

>  <hbond:GLY:151>  (38) 
0

>  <hydroph_interaction:ASN:152>  (38) 
0

>  <hbond:TYR:161>  (38) 
0

>  <halogenbond:TYR:150>  (38) 
0

>  <hbond:ASP:75>  (38) 
0

>  <hbond:GLY:153>  (38) 
0

>  <hbond:VAL:36>  (38) 
0

>  <hbond:PRO:131>  (38) 
0

>  <hbond:VAL:52>  (38) 
0

>  <hydroph_interaction:ASP:83>  (38) 
0

>  <hydroph_interaction:MET:49>  (38) 
0

>  <hydroph_interaction:VAL:52>  (38) 
0

>  <saltbridge:ASP:83>  (38) 
0

>  <saltbridge:ASP:75>  (38) 
0

>  <hydroph_interaction:TRP:50>  (38) 
0

>  <hydroph_interaction:VAL:72>  (38) 
0

>  <hydroph_interaction:ASP:75>  (38) 
0

>  <halogenbond:ASN:152>  (38) 
0

>  <halogenbond:GLY:153>  (38) 
0

>  <halogenbond:TYR:130>  (38) 
0

>  <hbond:TYR:130>  (38) 
0

>  <halogenbond:ASP:75>  (38) 
0

>  <halogenbond:GLY:151>  (38) 
0

>  <hbond:TYR:150>  (38) 
0

>  <halogenbond:TYR:161>  (38) 
0

>  <hydroph_interaction:ASP:129>  (38) 
0

>  <hbond:ASP:129>  (38) 
0

>  <halogenbond:ALA:132>  (38) 
0

$$$$
PV-003021214414
     RDKit          3D

 22 24  0  0  0  0  0  0  0  0999 V2000
  -10.3400    4.7910  -18.2050 Cl  0  0  0  0  0  0  0  0  0  0  0  0
   -9.3600    4.9530  -16.8070 C   0  0  0  0  0  0  0  0  0  0  0  0
   -8.0040    4.8070  -16.8040 C   0  0  0  0  0  0  0  0  0  0  0  0
   -7.5850    5.0170  -15.4750 C   0  0  0  0  0  0  0  0  0  0  0  0
   -8.7100    5.2870  -14.7130 C   0  0  0  0  0  0  0  0  0  0  0  0
   -8.7330    5.5720  -13.2970 C   0  0  0  0  0  0  0  0  0  0  0  0
   -8.6040    6.7940  -12.8400 N   0  0  0  0  0  0  0  0  0  0  0  0
   -8.6570    6.7370  -11.4640 N   0  0  0  0  0  0  0  0  0  0  0  0
   -8.8160    5.4950  -11.0580 C   0  0  0  0  0  0  0  0  0  0  0  0
   -8.9210    4.9720   -9.6880 C   0  0  0  0  0  0  0  0  0  0  0  0
   -9.0820    3.6210   -9.6610 C   0  0  0  0  0  0  0  0  0  0  0  0
   -9.1490    2.7780  -10.7350 C   0  0  0  0  0  0  0  0  0  0  0  0
   -9.0470    3.2950  -12.0090 C   0  0  0  0  0  0  0  0  0  0  0  0
   -8.8780    4.6770  -12.1880 C   0  0  0  0  0  0  0  0  0  0  0  0
   -9.8090    5.2460  -15.5460 O   0  0  0  0  0  0  0  0  0  0  0  0
   -7.3850    4.5730  -17.6600 H   0  0  0  0  0  0  0  0  0  0  0  0
   -6.5710    4.9770  -15.1020 H   0  0  0  0  0  0  0  0  0  0  0  0
   -8.5740    7.5880  -10.9180 H   0  0  0  0  0  0  0  0  0  0  0  0
   -8.8490    5.7620   -8.9340 H   0  0  0  0  0  0  0  0  0  0  0  0
   -9.1820    3.0060   -8.7610 H   0  0  0  0  0  0  0  0  0  0  0  0
   -9.2760    1.7340  -10.5610 H   0  0  0  0  0  0  0  0  0  0  0  0
   -9.0960    2.6510  -12.8530 H   0  0  0  0  0  0  0  0  0  0  0  0
  1  2  1  0
  2  3  2  0
  3  4  1  0
  4  5  2  0
  5  6  1  0
  6  7  2  0
  7  8  1  0
  8  9  1  0
  9 10  2  0
 10 11  1  0
 11 12  2  0
 12 13  1  0
 13 14  2  0
  5 15  1  0
 15  2  1  0
 14  6  1  0
 14  9  1  0
  3 16  1  0
  4 17  1  0
  8 18  1  0
 10 19  1  0
 11 20  1  0
 12 21  1  0
 13 22  1  0
A    1
CL1 
A    2
 C1 
A    3
 C2 
A    4
 C3 
A    5
 C4 
A    6
 C5 
A    7
 N1 
A    8
 N2 
A    9
 C6 
A   10
 C7 
A   11
 C8 
A   12
 C9 
A   13
 C10
A   14
 C11
A   15
 O1 
A   16
 H1 
A   17
 H2 
A   18
 H3 
A   19
 H4 
A   20
 H5 
A   21
 H6 
A   22
 H7 
M  END
>  <ref_pdb>  (39) 
x0051_0B

>  <ref_mols>  (39) 
x0969_1B,x0553_0B

>  <original SMILES>  (39) 
[H]c1c(Cl)oc(-c2nn([H])c3c([H])c([H])c([H])c([H])c23)c1[H]

>  <index>  (39) 
1317

>  <∆∆G>  (39) 
-4.141294

>  <comRMSD>  (39) 
0.328007

>  <N_constrained_atoms>  (39) 
14.0

>  <N_unconstrained_atoms>  (39) 
1.0

>  <LE>  (39) 
0.276086

>  <percent_hybrid>  (39) 
0.0

>  <max_hit_Tanimoto>  (39) 
0.418057

>  <largest_ring>  (39) 
6

>  <N_interactions_kept>  (39) 
0.0

>  <N_interactions_lost>  (39) 
0.0

>  <interaction_uniqueness_metric>  (39) 
0.163927

>  <N_HA>  (39) 
15

>  <N_rotatable_bonds>  (39) 
1

>  <N_interactions>  (39) 
6

>  <N_PAINS>  (39) 
0

>  <UFF_Gibbs>  (39) 
38.991848

>  <strain_per_HA>  (39) 
2.599439

>  <ad_hoc_penalty>  (39) 
-42.821034

>  <cluster>  (39) 
3884

>  <merger_rank>  (39) 
2

>  <pication:ARG:29>  (39) 
0

>  <hbond:HIS:51>  (39) 
0

>  <pistack:HIS:51>  (39) 
2

>  <hydroph_interaction:TYR:161>  (39) 
2

>  <pication:HIS:51>  (39) 
0

>  <hydroph_interaction:ALA:132>  (39) 
0

>  <hydroph_interaction:TYR:150>  (39) 
0

>  <hydroph_interaction:LYS:54>  (39) 
0

>  <hbond:SER:135>  (39) 
0

>  <hydroph_interaction:HIS:51>  (39) 
1

>  <hbond:ASP:83>  (39) 
0

>  <hbond:ALA:132>  (39) 
0

>  <halogenbond:SER:81>  (39) 
0

>  <hbond:GLY:82>  (39) 
0

>  <saltbridge:HIS:51>  (39) 
0

>  <pistack:TYR:161>  (39) 
0

>  <hbond:SER:81>  (39) 
0

>  <hbond:ASN:152>  (39) 
0

>  <hbond:GLY:151>  (39) 
0

>  <hydroph_interaction:ASN:152>  (39) 
1

>  <hbond:TYR:161>  (39) 
0

>  <halogenbond:TYR:150>  (39) 
0

>  <hbond:ASP:75>  (39) 
0

>  <hbond:GLY:153>  (39) 
0

>  <hbond:VAL:36>  (39) 
0

>  <hbond:PRO:131>  (39) 
0

>  <hbond:VAL:52>  (39) 
0

>  <hydroph_interaction:ASP:83>  (39) 
0

>  <hydroph_interaction:MET:49>  (39) 
0

>  <hydroph_interaction:VAL:52>  (39) 
0

>  <saltbridge:ASP:83>  (39) 
0

>  <saltbridge:ASP:75>  (39) 
0

>  <hydroph_interaction:TRP:50>  (39) 
0

>  <hydroph_interaction:VAL:72>  (39) 
0

>  <hydroph_interaction:ASP:75>  (39) 
0

>  <halogenbond:ASN:152>  (39) 
0

>  <halogenbond:GLY:153>  (39) 
0

>  <halogenbond:TYR:130>  (39) 
0

>  <hbond:TYR:130>  (39) 
0

>  <halogenbond:ASP:75>  (39) 
0

>  <halogenbond:GLY:151>  (39) 
0

>  <hbond:TYR:150>  (39) 
0

>  <halogenbond:TYR:161>  (39) 
0

>  <hydroph_interaction:ASP:129>  (39) 
0

>  <hbond:ASP:129>  (39) 
0

>  <halogenbond:ALA:132>  (39) 
0

$$$$
Z645882724
     RDKit          3D

 26 28  0  0  0  0  0  0  0  0999 V2000
   -9.4330    3.8930   -7.0220 C   0  0  0  0  0  0  0  0  0  0  0  0
   -9.2130    4.0950   -8.3680 C   0  0  0  0  0  0  0  0  0  0  0  0
   -8.8770    5.2650   -9.0550 C   0  0  0  0  0  0  0  0  0  0  0  0
   -8.7900    4.8830  -10.3610 N   0  0  0  0  0  0  0  0  0  0  0  0
   -8.5050    5.5400  -11.5190 N   0  0  0  0  0  0  0  0  0  0  0  0
   -8.5690    4.6170  -12.4580 C   0  0  0  0  0  0  0  0  0  0  0  0
   -8.3460    4.8120  -13.7840 N   0  0  0  0  0  0  0  0  0  0  0  0
   -9.3500    5.3420  -14.6860 C   0  0  0  0  0  0  0  0  0  0  0  0
   -9.0050    5.1580  -16.1250 C   0  0  0  0  0  0  0  0  0  0  0  0
   -7.7680    5.3310  -16.7050 C   0  0  0  0  0  0  0  0  0  0  0  0
   -7.8220    5.0830  -18.0370 O   0  0  0  0  0  0  0  0  0  0  0  0
   -9.0970    4.7420  -18.3310 C   0  0  0  0  0  0  0  0  0  0  0  0
   -9.8600    4.7710  -17.1980 C   0  0  0  0  0  0  0  0  0  0  0  0
   -8.9740    2.9680  -11.9490 S   0  0  0  0  0  0  0  0  0  0  0  0
   -9.0610    3.5580  -10.3790 C   0  0  0  0  0  0  0  0  0  0  0  0
   -9.3230    3.0310   -9.2310 N   0  0  0  0  0  0  0  0  0  0  0  0
  -10.2570    3.3010   -6.6420 H   0  0  0  0  0  0  0  0  0  0  0  0
   -9.5380    4.8790   -6.5580 H   0  0  0  0  0  0  0  0  0  0  0  0
   -8.5340    3.4460   -6.5890 H   0  0  0  0  0  0  0  0  0  0  0  0
   -8.7050    6.2790   -8.7320 H   0  0  0  0  0  0  0  0  0  0  0  0
   -7.8970    3.9700  -14.1820 H   0  0  0  0  0  0  0  0  0  0  0  0
   -9.4940    6.4130  -14.4880 H   0  0  0  0  0  0  0  0  0  0  0  0
  -10.3130    4.8500  -14.4950 H   0  0  0  0  0  0  0  0  0  0  0  0
   -6.7960    5.6170  -16.3200 H   0  0  0  0  0  0  0  0  0  0  0  0
   -9.3000    4.5120  -19.3680 H   0  0  0  0  0  0  0  0  0  0  0  0
  -10.9010    4.5400  -17.1620 H   0  0  0  0  0  0  0  0  0  0  0  0
  1  2  1  0
  2  3  2  0
  3  4  1  0
  4  5  1  0
  5  6  2  0
  6  7  1  0
  7  8  1  0
  8  9  1  0
  9 10  2  0
 10 11  1  0
 11 12  1  0
 12 13  2  0
  6 14  1  0
 14 15  1  0
 15 16  2  0
 16  2  1  0
 15  4  1  0
 13  9  1  0
  1 17  1  0
  1 18  1  0
  1 19  1  0
  3 20  1  0
  7 21  1  0
  8 22  1  0
  8 23  1  0
 10 24  1  0
 12 25  1  0
 13 26  1  0
A    1
 C1 
A    2
 C2 
A    3
 C3 
A    4
 N1 
A    5
 N2 
A    6
 C4 
A    7
 N3 
A    8
 C5 
A    9
 C6 
A   10
 C7 
A   11
 O1 
A   12
 C8 
A   13
 C9 
A   14
 S1 
A   15
 C10
A   16
 N4 
A   17
 H1 
A   18
 H2 
A   19
 H3 
A   20
 H4 
A   21
 H5 
A   22
 H6 
A   23
 H7 
A   24
 H8 
A   25
 H9 
A   26
 H10
M  END
>  <ref_pdb>  (40) 
x0051_0B

>  <ref_mols>  (40) 
x0969_1B,x0553_0B

>  <original SMILES>  (40) 
[H]c1oc([H])c(C([H])([H])N([H])c2nn3c([H])c(C([H])([H])[H])nc3s2)c1[H]

>  <index>  (40) 
192

>  <∆∆G>  (40) 
-4.717313

>  <comRMSD>  (40) 
0.400999

>  <N_constrained_atoms>  (40) 
15.0

>  <N_unconstrained_atoms>  (40) 
1.0

>  <LE>  (40) 
0.294832

>  <percent_hybrid>  (40) 
0.0

>  <max_hit_Tanimoto>  (40) 
0.193837

>  <largest_ring>  (40) 
5

>  <N_interactions_kept>  (40) 
0.0

>  <N_interactions_lost>  (40) 
0.0

>  <interaction_uniqueness_metric>  (40) 
0.13617

>  <N_HA>  (40) 
16

>  <N_rotatable_bonds>  (40) 
3

>  <N_interactions>  (40) 
7

>  <N_PAINS>  (40) 
0

>  <UFF_Gibbs>  (40) 
47.636976

>  <strain_per_HA>  (40) 
2.977292

>  <ad_hoc_penalty>  (40) 
-42.591891

>  <cluster>  (40) 
4762

>  <merger_rank>  (40) 
1

>  <pication:ARG:29>  (40) 
0

>  <hbond:HIS:51>  (40) 
1

>  <pistack:HIS:51>  (40) 
2

>  <hydroph_interaction:TYR:161>  (40) 
1

>  <pication:HIS:51>  (40) 
0

>  <hydroph_interaction:ALA:132>  (40) 
0

>  <hydroph_interaction:TYR:150>  (40) 
0

>  <hydroph_interaction:LYS:54>  (40) 
0

>  <hbond:SER:135>  (40) 
0

>  <hydroph_interaction:HIS:51>  (40) 
1

>  <hbond:ASP:83>  (40) 
0

>  <hbond:ALA:132>  (40) 
0

>  <halogenbond:SER:81>  (40) 
0

>  <hbond:GLY:82>  (40) 
0

>  <saltbridge:HIS:51>  (40) 
0

>  <pistack:TYR:161>  (40) 
0

>  <hbond:SER:81>  (40) 
0

>  <hbond:ASN:152>  (40) 
0

>  <hbond:GLY:151>  (40) 
0

>  <hydroph_interaction:ASN:152>  (40) 
0

>  <hbond:TYR:161>  (40) 
2

>  <halogenbond:TYR:150>  (40) 
0

>  <hbond:ASP:75>  (40) 
0

>  <hbond:GLY:153>  (40) 
0

>  <hbond:VAL:36>  (40) 
0

>  <hbond:PRO:131>  (40) 
0

>  <hbond:VAL:52>  (40) 
0

>  <hydroph_interaction:ASP:83>  (40) 
0

>  <hydroph_interaction:MET:49>  (40) 
0

>  <hydroph_interaction:VAL:52>  (40) 
0

>  <saltbridge:ASP:83>  (40) 
0

>  <saltbridge:ASP:75>  (40) 
0

>  <hydroph_interaction:TRP:50>  (40) 
0

>  <hydroph_interaction:VAL:72>  (40) 
0

>  <hydroph_interaction:ASP:75>  (40) 
0

>  <halogenbond:ASN:152>  (40) 
0

>  <halogenbond:GLY:153>  (40) 
0

>  <halogenbond:TYR:130>  (40) 
0

>  <hbond:TYR:130>  (40) 
0

>  <halogenbond:ASP:75>  (40) 
0

>  <halogenbond:GLY:151>  (40) 
0

>  <hbond:TYR:150>  (40) 
0

>  <halogenbond:TYR:161>  (40) 
0

>  <hydroph_interaction:ASP:129>  (40) 
0

>  <hbond:ASP:129>  (40) 
0

>  <halogenbond:ALA:132>  (40) 
0

$$$$
Z2623435188
     RDKit          3D

 22 23  0  0  0  0  0  0  0  0999 V2000
   -9.2720    3.1950   -9.0170 C   0  0  0  0  0  0  0  0  0  0  0  0
   -8.8640    4.0420  -10.2230 C   0  0  0  0  0  0  0  0  0  0  0  0
   -8.4530    5.3030  -10.1690 N   0  0  0  0  0  0  0  0  0  0  0  0
   -8.1560    5.7900  -11.3910 N   0  0  0  0  0  0  0  0  0  0  0  0
   -8.3630    4.8430  -12.3780 C   0  0  0  0  0  0  0  0  0  0  0  0
   -8.1380    5.0910  -13.6790 N   0  0  0  0  0  0  0  0  0  0  0  0
   -9.0370    5.3630  -14.6030 C   0  0  0  0  0  0  0  0  0  0  0  0
  -10.1480    5.7520  -14.2730 O   0  0  0  0  0  0  0  0  0  0  0  0
   -8.8020    5.2310  -16.0600 C   0  0  0  0  0  0  0  0  0  0  0  0
   -7.5680    5.5180  -16.4520 N   0  0  0  0  0  0  0  0  0  0  0  0
   -7.4630    5.3600  -17.8130 N   0  0  0  0  0  0  0  0  0  0  0  0
   -8.5980    4.9700  -18.3480 C   0  0  0  0  0  0  0  0  0  0  0  0
   -8.7920    4.7110  -19.7560 C   0  0  0  0  0  0  0  0  0  0  0  0
   -9.8950    4.7690  -17.2650 S   0  0  0  0  0  0  0  0  0  0  0  0
   -8.9250    3.3460  -11.7900 S   0  0  0  0  0  0  0  0  0  0  0  0
   -8.8960    2.1710   -9.1350 H   0  0  0  0  0  0  0  0  0  0  0  0
  -10.3590    3.1350   -8.9060 H   0  0  0  0  0  0  0  0  0  0  0  0
   -8.8590    3.6060   -8.0910 H   0  0  0  0  0  0  0  0  0  0  0  0
   -7.1970    4.8690  -13.9920 H   0  0  0  0  0  0  0  0  0  0  0  0
   -7.9860    4.9910  -20.4140 H   0  0  0  0  0  0  0  0  0  0  0  0
   -9.6320    5.2460  -20.1940 H   0  0  0  0  0  0  0  0  0  0  0  0
   -8.9680    3.7290  -20.1190 H   0  0  0  0  0  0  0  0  0  0  0  0
  1  2  1  0
  2  3  2  0
  3  4  1  0
  4  5  2  0
  5  6  1  0
  6  7  1  0
  7  8  2  0
  7  9  1  0
  9 10  2  0
 10 11  1  0
 11 12  2  0
 12 13  1  0
 12 14  1  0
  5 15  1  0
 15  2  1  0
 14  9  1  0
  1 16  1  0
  1 17  1  0
  1 18  1  0
  6 19  1  0
 13 20  1  0
 13 21  1  0
 13 22  1  0
A    1
 C1 
A    2
 C2 
A    3
 N1 
A    4
 N2 
A    5
 C3 
A    6
 N3 
A    7
 C4 
A    8
 O1 
A    9
 C5 
A   10
 N4 
A   11
 N5 
A   12
 C6 
A   13
 C7 
A   14
 S1 
A   15
 S2 
A   16
 H1 
A   17
 H2 
A   18
 H3 
A   19
 H4 
A   20
 H5 
A   21
 H6 
A   22
 H7 
M  END
>  <ref_pdb>  (41) 
x0051_0B

>  <ref_mols>  (41) 
x0969_1B,x0553_0B

>  <original SMILES>  (41) 
[H]N(C(=O)c1nnc(C([H])([H])[H])s1)c1nnc(C([H])([H])[H])s1

>  <index>  (41) 
3297

>  <∆∆G>  (41) 
-7.191391

>  <comRMSD>  (41) 
0.422843

>  <N_constrained_atoms>  (41) 
14.0

>  <N_unconstrained_atoms>  (41) 
1.0

>  <LE>  (41) 
0.479426

>  <percent_hybrid>  (41) 
0.0

>  <max_hit_Tanimoto>  (41) 
0.513804

>  <largest_ring>  (41) 
5

>  <N_interactions_kept>  (41) 
0.0

>  <N_interactions_lost>  (41) 
0.0

>  <interaction_uniqueness_metric>  (41) 
0.167828

>  <N_HA>  (41) 
15

>  <N_rotatable_bonds>  (41) 
4

>  <N_interactions>  (41) 
6

>  <N_PAINS>  (41) 
0

>  <UFF_Gibbs>  (41) 
48.869668

>  <strain_per_HA>  (41) 
3.257956

>  <ad_hoc_penalty>  (41) 
-42.486589

>  <cluster>  (41) 
502

>  <merger_rank>  (41) 
4

>  <pication:ARG:29>  (41) 
0

>  <hbond:HIS:51>  (41) 
0

>  <pistack:HIS:51>  (41) 
1

>  <hydroph_interaction:TYR:161>  (41) 
1

>  <pication:HIS:51>  (41) 
0

>  <hydroph_interaction:ALA:132>  (41) 
0

>  <hydroph_interaction:TYR:150>  (41) 
1

>  <hydroph_interaction:LYS:54>  (41) 
0

>  <hbond:SER:135>  (41) 
1

>  <hydroph_interaction:HIS:51>  (41) 
1

>  <hbond:ASP:83>  (41) 
0

>  <hbond:ALA:132>  (41) 
0

>  <halogenbond:SER:81>  (41) 
0

>  <hbond:GLY:82>  (41) 
0

>  <saltbridge:HIS:51>  (41) 
0

>  <pistack:TYR:161>  (41) 
1

>  <hbond:SER:81>  (41) 
0

>  <hbond:ASN:152>  (41) 
0

>  <hbond:GLY:151>  (41) 
0

>  <hydroph_interaction:ASN:152>  (41) 
0

>  <hbond:TYR:161>  (41) 
0

>  <halogenbond:TYR:150>  (41) 
0

>  <hbond:ASP:75>  (41) 
0

>  <hbond:GLY:153>  (41) 
0

>  <hbond:VAL:36>  (41) 
0

>  <hbond:PRO:131>  (41) 
0

>  <hbond:VAL:52>  (41) 
0

>  <hydroph_interaction:ASP:83>  (41) 
0

>  <hydroph_interaction:MET:49>  (41) 
0

>  <hydroph_interaction:VAL:52>  (41) 
0

>  <saltbridge:ASP:83>  (41) 
0

>  <saltbridge:ASP:75>  (41) 
0

>  <hydroph_interaction:TRP:50>  (41) 
0

>  <hydroph_interaction:VAL:72>  (41) 
0

>  <hydroph_interaction:ASP:75>  (41) 
0

>  <halogenbond:ASN:152>  (41) 
0

>  <halogenbond:GLY:153>  (41) 
0

>  <halogenbond:TYR:130>  (41) 
0

>  <hbond:TYR:130>  (41) 
0

>  <halogenbond:ASP:75>  (41) 
0

>  <halogenbond:GLY:151>  (41) 
0

>  <hbond:TYR:150>  (41) 
0

>  <halogenbond:TYR:161>  (41) 
0

>  <hydroph_interaction:ASP:129>  (41) 
0

>  <hbond:ASP:129>  (41) 
0

>  <halogenbond:ALA:132>  (41) 
0

$$$$
Z1673602992
     RDKit          3D

 26 28  0  0  0  0  0  0  0  0999 V2000
  -15.7520   13.2910   -5.4470 C   0  0  0  0  0  0  0  0  0  0  0  0
  -14.5590   14.1750   -5.6920 C   0  0  0  0  0  0  0  0  0  0  0  0
  -14.6610   14.7390   -6.9080 O   0  0  0  0  0  0  0  0  0  0  0  0
  -15.8500   14.2590   -7.4530 C   0  0  0  0  0  0  0  0  0  0  0  0
  -16.1600   14.7640   -8.8120 C   0  0  0  0  0  0  0  0  0  0  0  0
  -15.8590   13.7920   -9.8310 N   0  0  0  0  0  0  0  0  0  0  0  0
  -14.5740   13.5790  -10.1300 C   0  0  0  0  0  0  0  0  0  0  0  0
  -13.4860   14.3870  -10.0620 N   0  0  0  0  0  0  0  0  0  0  0  0
  -12.4340   13.6200  -10.5180 N   0  0  0  0  0  0  0  0  0  0  0  0
  -12.9260   12.4100  -10.8350 C   0  0  0  0  0  0  0  0  0  0  0  0
  -12.1950   11.3510  -11.3310 C   0  0  0  0  0  0  0  0  0  0  0  0
  -11.0840   10.8430  -10.6680 C   0  0  0  0  0  0  0  0  0  0  0  0
  -10.4570    9.7550  -11.3380 C   0  0  0  0  0  0  0  0  0  0  0  0
  -11.2370    9.4600  -12.6490 C   0  0  0  0  0  0  0  0  0  0  0  0
  -12.5440   10.5290  -12.8100 S   0  0  0  0  0  0  0  0  0  0  0  0
  -14.2770   12.3410  -10.6020 O   0  0  0  0  0  0  0  0  0  0  0  0
  -16.5240   13.3870   -6.6000 C   0  0  0  0  0  0  0  0  0  0  0  0
  -15.8380   12.7550   -4.5010 H   0  0  0  0  0  0  0  0  0  0  0  0
  -13.7250   14.3610   -5.0200 H   0  0  0  0  0  0  0  0  0  0  0  0
  -15.5900   15.6860   -8.9830 H   0  0  0  0  0  0  0  0  0  0  0  0
  -17.2240   15.0250   -8.8540 H   0  0  0  0  0  0  0  0  0  0  0  0
  -16.4460   13.9000  -10.6490 H   0  0  0  0  0  0  0  0  0  0  0  0
  -10.7160   11.2310   -9.7250 H   0  0  0  0  0  0  0  0  0  0  0  0
   -9.5810    9.2140  -11.0010 H   0  0  0  0  0  0  0  0  0  0  0  0
  -11.0420    8.7030  -13.3990 H   0  0  0  0  0  0  0  0  0  0  0  0
  -17.4620   12.8830   -6.7870 H   0  0  0  0  0  0  0  0  0  0  0  0
  1  2  2  0
  2  3  1  0
  3  4  1  0
  4  5  1  0
  5  6  1  0
  6  7  1  0
  7  8  2  0
  8  9  1  0
  9 10  2  0
 10 11  1  0
 11 12  2  0
 12 13  1  0
 13 14  2  0
 14 15  1  0
 10 16  1  0
  4 17  2  0
 17  1  1  0
 16  7  1  0
 15 11  1  0
  1 18  1  0
  2 19  1  0
  5 20  1  0
  5 21  1  0
  6 22  1  0
 12 23  1  0
 13 24  1  0
 14 25  1  0
 17 26  1  0
A    1
 C1 
A    2
 C2 
A    3
 O1 
A    4
 C3 
A    5
 C4 
A    6
 N1 
A    7
 C5 
A    8
 N2 
A    9
 N3 
A   10
 C6 
A   11
 C7 
A   12
 C8 
A   13
 C9 
A   14
 C10
A   15
 S1 
A   16
 O2 
A   17
 C11
A   18
 H1 
A   19
 H2 
A   20
 H3 
A   21
 H4 
A   22
 H5 
A   23
 H6 
A   24
 H7 
A   25
 H8 
A   26
 H9 
M  END
>  <ref_pdb>  (42) 
x0051_0B

>  <ref_mols>  (42) 
x0846_0B,x0559_0B

>  <original SMILES>  (42) 
[H]c1oc(C([H])([H])N([H])c2nnc(-c3sc([H])c([H])c3[H])o2)c([H])c1[H]

>  <index>  (42) 
390

>  <∆∆G>  (42) 
-3.70155

>  <comRMSD>  (42) 
0.256519

>  <N_constrained_atoms>  (42) 
11.0

>  <N_unconstrained_atoms>  (42) 
7.0

>  <LE>  (42) 
0.205642

>  <percent_hybrid>  (42) 
0.0

>  <max_hit_Tanimoto>  (42) 
0.267857

>  <largest_ring>  (42) 
5

>  <N_interactions_kept>  (42) 
0.0

>  <N_interactions_lost>  (42) 
0.0

>  <interaction_uniqueness_metric>  (42) 
1.676365

>  <N_HA>  (42) 
17

>  <N_rotatable_bonds>  (42) 
4

>  <N_interactions>  (42) 
3

>  <N_PAINS>  (42) 
0

>  <UFF_Gibbs>  (42) 
74.763509

>  <strain_per_HA>  (42) 
4.397828

>  <ad_hoc_penalty>  (42) 
-42.201981

>  <cluster>  (42) 
4611

>  <merger_rank>  (42) 
1

>  <pication:ARG:29>  (42) 
1

>  <hbond:HIS:51>  (42) 
0

>  <pistack:HIS:51>  (42) 
0

>  <hydroph_interaction:TYR:161>  (42) 
0

>  <pication:HIS:51>  (42) 
0

>  <hydroph_interaction:ALA:132>  (42) 
0

>  <hydroph_interaction:TYR:150>  (42) 
0

>  <hydroph_interaction:LYS:54>  (42) 
1

>  <hbond:SER:135>  (42) 
0

>  <hydroph_interaction:HIS:51>  (42) 
0

>  <hbond:ASP:83>  (42) 
0

>  <hbond:ALA:132>  (42) 
0

>  <halogenbond:SER:81>  (42) 
0

>  <hbond:GLY:82>  (42) 
0

>  <saltbridge:HIS:51>  (42) 
0

>  <pistack:TYR:161>  (42) 
0

>  <hbond:SER:81>  (42) 
0

>  <hbond:ASN:152>  (42) 
0

>  <hbond:GLY:151>  (42) 
0

>  <hydroph_interaction:ASN:152>  (42) 
0

>  <hbond:TYR:161>  (42) 
0

>  <halogenbond:TYR:150>  (42) 
0

>  <hbond:ASP:75>  (42) 
0

>  <hbond:GLY:153>  (42) 
0

>  <hbond:VAL:36>  (42) 
0

>  <hbond:PRO:131>  (42) 
0

>  <hbond:VAL:52>  (42) 
1

>  <hydroph_interaction:ASP:83>  (42) 
0

>  <hydroph_interaction:MET:49>  (42) 
0

>  <hydroph_interaction:VAL:52>  (42) 
0

>  <saltbridge:ASP:83>  (42) 
0

>  <saltbridge:ASP:75>  (42) 
0

>  <hydroph_interaction:TRP:50>  (42) 
0

>  <hydroph_interaction:VAL:72>  (42) 
0

>  <hydroph_interaction:ASP:75>  (42) 
0

>  <halogenbond:ASN:152>  (42) 
0

>  <halogenbond:GLY:153>  (42) 
0

>  <halogenbond:TYR:130>  (42) 
0

>  <hbond:TYR:130>  (42) 
0

>  <halogenbond:ASP:75>  (42) 
0

>  <halogenbond:GLY:151>  (42) 
0

>  <hbond:TYR:150>  (42) 
0

>  <halogenbond:TYR:161>  (42) 
0

>  <hydroph_interaction:ASP:129>  (42) 
0

>  <hbond:ASP:129>  (42) 
0

>  <halogenbond:ALA:132>  (42) 
0

$$$$
Z1894208440
     RDKit          3D

 26 28  0  0  0  0  0  0  0  0999 V2000
   -9.9200    5.5520  -15.3820 O   0  0  0  0  0  0  0  0  0  0  0  0
   -8.7750    5.8880  -15.6440 C   0  0  0  0  0  0  0  0  0  0  0  0
   -7.9990    6.6220  -14.7810 O   0  0  0  0  0  0  0  0  0  0  0  0
   -8.7320    7.2530  -13.7190 C   0  0  0  0  0  0  0  0  0  0  0  0
   -8.8370    6.3520  -12.6740 C   0  0  0  0  0  0  0  0  0  0  0  0
   -8.7210    6.6700  -11.3970 N   0  0  0  0  0  0  0  0  0  0  0  0
   -8.8880    5.5370  -10.6120 C   0  0  0  0  0  0  0  0  0  0  0  0
   -8.8390    5.4840   -9.2280 C   0  0  0  0  0  0  0  0  0  0  0  0
   -9.0250    4.2710   -8.4330 C   0  0  0  0  0  0  0  0  0  0  0  0
   -9.2760    3.0920   -9.2740 C   0  0  0  0  0  0  0  0  0  0  0  0
   -9.3300    3.1070  -10.6680 C   0  0  0  0  0  0  0  0  0  0  0  0
   -9.1330    4.3460  -11.3140 C   0  0  0  0  0  0  0  0  0  0  0  0
   -9.1420    4.6930  -12.9970 S   0  0  0  0  0  0  0  0  0  0  0  0
   -8.0720    5.5860  -16.8880 C   0  0  0  0  0  0  0  0  0  0  0  0
   -6.8060    5.9160  -17.0860 N   0  0  0  0  0  0  0  0  0  0  0  0
   -6.4100    5.5200  -18.3450 C   0  0  0  0  0  0  0  0  0  0  0  0
   -7.3730    4.8920  -19.1030 C   0  0  0  0  0  0  0  0  0  0  0  0
   -8.8310    4.7790  -18.2140 S   0  0  0  0  0  0  0  0  0  0  0  0
   -9.7390    7.5110  -14.0700 H   0  0  0  0  0  0  0  0  0  0  0  0
   -8.2260    8.1510  -13.3950 H   0  0  0  0  0  0  0  0  0  0  0  0
   -8.6490    6.4140   -8.7060 H   0  0  0  0  0  0  0  0  0  0  0  0
   -8.9830    4.2470   -7.3460 H   0  0  0  0  0  0  0  0  0  0  0  0
   -9.4310    2.1320   -8.7640 H   0  0  0  0  0  0  0  0  0  0  0  0
   -9.5200    2.2010  -11.2330 H   0  0  0  0  0  0  0  0  0  0  0  0
   -5.3950    5.7160  -18.6680 H   0  0  0  0  0  0  0  0  0  0  0  0
   -7.2910    4.5010  -20.1080 H   0  0  0  0  0  0  0  0  0  0  0  0
  1  2  2  0
  2  3  1  0
  3  4  1  0
  4  5  1  0
  5  6  2  0
  6  7  1  0
  7  8  2  0
  8  9  1  0
  9 10  2  0
 10 11  1  0
 11 12  2  0
 12 13  1  0
  2 14  1  0
 14 15  2  0
 15 16  1  0
 16 17  2  0
 17 18  1  0
 13  5  1  0
 12  7  1  0
 18 14  1  0
  4 19  1  0
  4 20  1  0
  8 21  1  0
  9 22  1  0
 10 23  1  0
 11 24  1  0
 16 25  1  0
 17 26  1  0
A    1
 O1 
A    2
 C1 
A    3
 O2 
A    4
 C2 
A    5
 C3 
A    6
 N1 
A    7
 C4 
A    8
 C5 
A    9
 C6 
A   10
 C7 
A   11
 C8 
A   12
 C9 
A   13
 S1 
A   14
 C10
A   15
 N2 
A   16
 C11
A   17
 C12
A   18
 S2 
A   19
 H1 
A   20
 H2 
A   21
 H3 
A   22
 H4 
A   23
 H5 
A   24
 H6 
A   25
 H7 
A   26
 H8 
M  END
>  <ref_pdb>  (43) 
x0051_0B

>  <ref_mols>  (43) 
x0404_0B,x0969_0B

>  <original SMILES>  (43) 
[H]c1nc(C(=O)OC([H])([H])c2nc3c([H])c([H])c([H])c([H])c3s2)sc1[H]

>  <index>  (43) 
5969

>  <∆∆G>  (43) 
-5.294889

>  <comRMSD>  (43) 
0.223294

>  <N_constrained_atoms>  (43) 
19.0

>  <N_unconstrained_atoms>  (43) 
0.0

>  <LE>  (43) 
0.278678

>  <percent_hybrid>  (43) 
0.0

>  <max_hit_Tanimoto>  (43) 
0.50996

>  <largest_ring>  (43) 
6

>  <N_interactions_kept>  (43) 
0.0

>  <N_interactions_lost>  (43) 
0.0

>  <interaction_uniqueness_metric>  (43) 
0.166821

>  <N_HA>  (43) 
18

>  <N_rotatable_bonds>  (43) 
3

>  <N_interactions>  (43) 
6

>  <N_PAINS>  (43) 
0

>  <UFF_Gibbs>  (43) 
46.684965

>  <strain_per_HA>  (43) 
2.593595

>  <ad_hoc_penalty>  (43) 
-41.937452

>  <cluster>  (43) 
789

>  <merger_rank>  (43) 
1

>  <pication:ARG:29>  (43) 
0

>  <hbond:HIS:51>  (43) 
0

>  <pistack:HIS:51>  (43) 
2

>  <hydroph_interaction:TYR:161>  (43) 
0

>  <pication:HIS:51>  (43) 
0

>  <hydroph_interaction:ALA:132>  (43) 
0

>  <hydroph_interaction:TYR:150>  (43) 
0

>  <hydroph_interaction:LYS:54>  (43) 
0

>  <hbond:SER:135>  (43) 
1

>  <hydroph_interaction:HIS:51>  (43) 
1

>  <hbond:ASP:83>  (43) 
0

>  <hbond:ALA:132>  (43) 
0

>  <halogenbond:SER:81>  (43) 
0

>  <hbond:GLY:82>  (43) 
0

>  <saltbridge:HIS:51>  (43) 
1

>  <pistack:TYR:161>  (43) 
1

>  <hbond:SER:81>  (43) 
0

>  <hbond:ASN:152>  (43) 
0

>  <hbond:GLY:151>  (43) 
0

>  <hydroph_interaction:ASN:152>  (43) 
0

>  <hbond:TYR:161>  (43) 
0

>  <halogenbond:TYR:150>  (43) 
0

>  <hbond:ASP:75>  (43) 
0

>  <hbond:GLY:153>  (43) 
0

>  <hbond:VAL:36>  (43) 
0

>  <hbond:PRO:131>  (43) 
0

>  <hbond:VAL:52>  (43) 
0

>  <hydroph_interaction:ASP:83>  (43) 
0

>  <hydroph_interaction:MET:49>  (43) 
0

>  <hydroph_interaction:VAL:52>  (43) 
0

>  <saltbridge:ASP:83>  (43) 
0

>  <saltbridge:ASP:75>  (43) 
0

>  <hydroph_interaction:TRP:50>  (43) 
0

>  <hydroph_interaction:VAL:72>  (43) 
0

>  <hydroph_interaction:ASP:75>  (43) 
0

>  <halogenbond:ASN:152>  (43) 
0

>  <halogenbond:GLY:153>  (43) 
0

>  <halogenbond:TYR:130>  (43) 
0

>  <hbond:TYR:130>  (43) 
0

>  <halogenbond:ASP:75>  (43) 
0

>  <halogenbond:GLY:151>  (43) 
0

>  <hbond:TYR:150>  (43) 
0

>  <halogenbond:TYR:161>  (43) 
0

>  <hydroph_interaction:ASP:129>  (43) 
0

>  <hbond:ASP:129>  (43) 
0

>  <halogenbond:ALA:132>  (43) 
0

$$$$
Z132907444
     RDKit          3D

 29 31  0  0  0  0  0  0  0  0999 V2000
   -7.4150    5.1680  -19.6110 C   0  0  0  0  0  0  0  0  0  0  0  0
   -7.6760    5.4220  -18.1400 C   0  0  0  0  0  0  0  0  0  0  0  0
   -6.9720    6.2230  -17.3840 N   0  0  0  0  0  0  0  0  0  0  0  0
   -7.4230    6.2610  -16.1010 C   0  0  0  0  0  0  0  0  0  0  0  0
   -6.8650    7.0260  -15.0950 C   0  0  0  0  0  0  0  0  0  0  0  0
   -7.5000    6.9260  -13.7040 C   0  0  0  0  0  0  0  0  0  0  0  0
   -8.6490    6.0430  -13.5030 C   0  0  0  0  0  0  0  0  0  0  0  0
   -9.2210    5.9050  -12.2870 N   0  0  0  0  0  0  0  0  0  0  0  0
   -8.2400    5.2740  -11.5350 C   0  0  0  0  0  0  0  0  0  0  0  0
   -8.7420    4.5550  -10.4270 C   0  0  0  0  0  0  0  0  0  0  0  0
   -8.7690    5.0770   -9.1350 C   0  0  0  0  0  0  0  0  0  0  0  0
   -9.2910    4.1510   -8.1950 C   0  0  0  0  0  0  0  0  0  0  0  0
   -9.6370    2.9850   -8.7930 C   0  0  0  0  0  0  0  0  0  0  0  0
   -9.3580    2.9490  -10.4830 S   0  0  0  0  0  0  0  0  0  0  0  0
   -9.1480    5.3240  -14.5990 C   0  0  0  0  0  0  0  0  0  0  0  0
   -8.5350    5.4400  -15.8590 C   0  0  0  0  0  0  0  0  0  0  0  0
   -8.9660    4.6490  -17.3370 S   0  0  0  0  0  0  0  0  0  0  0  0
   -8.2980    4.7430  -20.1010 H   0  0  0  0  0  0  0  0  0  0  0  0
   -6.5810    4.4740  -19.7600 H   0  0  0  0  0  0  0  0  0  0  0  0
   -7.1700    6.1080  -20.1140 H   0  0  0  0  0  0  0  0  0  0  0  0
   -6.0120    7.7130  -15.1190 H   0  0  0  0  0  0  0  0  0  0  0  0
   -7.1040    7.4950  -12.8710 H   0  0  0  0  0  0  0  0  0  0  0  0
   -9.4590    6.7890  -11.8560 H   0  0  0  0  0  0  0  0  0  0  0  0
   -7.6970    4.6230  -12.2100 H   0  0  0  0  0  0  0  0  0  0  0  0
   -7.4960    6.0480  -11.4250 H   0  0  0  0  0  0  0  0  0  0  0  0
   -8.4260    6.0760   -8.8760 H   0  0  0  0  0  0  0  0  0  0  0  0
   -9.4020    4.3420   -7.1360 H   0  0  0  0  0  0  0  0  0  0  0  0
  -10.0530    2.1870   -8.1650 H   0  0  0  0  0  0  0  0  0  0  0  0
  -10.0040    4.6700  -14.4720 H   0  0  0  0  0  0  0  0  0  0  0  0
  1  2  1  0
  2  3  2  0
  3  4  1  0
  4  5  2  0
  5  6  1  0
  6  7  2  0
  7  8  1  0
  8  9  1  0
  9 10  1  0
 10 11  2  0
 11 12  1  0
 12 13  2  0
 13 14  1  0
  7 15  1  0
 15 16  2  0
 16 17  1  0
 17  2  1  0
 16  4  1  0
 14 10  1  0
  1 18  1  0
  1 19  1  0
  1 20  1  0
  5 21  1  0
  6 22  1  0
  8 23  1  0
  9 24  1  0
  9 25  1  0
 11 26  1  0
 12 27  1  0
 13 28  1  0
 15 29  1  0
A    1
 C1 
A    2
 C2 
A    3
 N1 
A    4
 C3 
A    5
 C4 
A    6
 C5 
A    7
 C6 
A    8
 N2 
A    9
 C7 
A   10
 C8 
A   11
 C9 
A   12
 C10
A   13
 C11
A   14
 S1 
A   15
 C12
A   16
 C13
A   17
 S2 
A   18
 H1 
A   19
 H2 
A   20
 H3 
A   21
 H4 
A   22
 H5 
A   23
 H6 
A   24
 H7 
A   25
 H8 
A   26
 H9 
A   27
 H10
A   28
 H11
A   29
 H12
M  END
>  <ref_pdb>  (44) 
x0051_0B

>  <ref_mols>  (44) 
x0404_0B,x0969_0B

>  <original SMILES>  (44) 
[H]c1sc(C([H])([H])N([H])c2c([H])c([H])c3nc(C([H])([H])[H])sc3c2[H])c([H])c1[H]

>  <index>  (44) 
6037

>  <∆∆G>  (44) 
-7.313838

>  <comRMSD>  (44) 
0.268613

>  <N_constrained_atoms>  (44) 
17.0

>  <N_unconstrained_atoms>  (44) 
0.0

>  <LE>  (44) 
0.430226

>  <percent_hybrid>  (44) 
0.0

>  <max_hit_Tanimoto>  (44) 
0.238523

>  <largest_ring>  (44) 
6

>  <N_interactions_kept>  (44) 
0.0

>  <N_interactions_lost>  (44) 
0.0

>  <interaction_uniqueness_metric>  (44) 
0.137393

>  <N_HA>  (44) 
17

>  <N_rotatable_bonds>  (44) 
4

>  <N_interactions>  (44) 
6

>  <N_PAINS>  (44) 
0

>  <UFF_Gibbs>  (44) 
75.252038

>  <strain_per_HA>  (44) 
4.426564

>  <ad_hoc_penalty>  (44) 
-41.901342

>  <cluster>  (44) 
765

>  <merger_rank>  (44) 
1

>  <pication:ARG:29>  (44) 
0

>  <hbond:HIS:51>  (44) 
1

>  <pistack:HIS:51>  (44) 
1

>  <hydroph_interaction:TYR:161>  (44) 
1

>  <pication:HIS:51>  (44) 
0

>  <hydroph_interaction:ALA:132>  (44) 
1

>  <hydroph_interaction:TYR:150>  (44) 
0

>  <hydroph_interaction:LYS:54>  (44) 
0

>  <hbond:SER:135>  (44) 
0

>  <hydroph_interaction:HIS:51>  (44) 
1

>  <hbond:ASP:83>  (44) 
0

>  <hbond:ALA:132>  (44) 
0

>  <halogenbond:SER:81>  (44) 
0

>  <hbond:GLY:82>  (44) 
0

>  <saltbridge:HIS:51>  (44) 
0

>  <pistack:TYR:161>  (44) 
1

>  <hbond:SER:81>  (44) 
0

>  <hbond:ASN:152>  (44) 
0

>  <hbond:GLY:151>  (44) 
0

>  <hydroph_interaction:ASN:152>  (44) 
0

>  <hbond:TYR:161>  (44) 
0

>  <halogenbond:TYR:150>  (44) 
0

>  <hbond:ASP:75>  (44) 
0

>  <hbond:GLY:153>  (44) 
0

>  <hbond:VAL:36>  (44) 
0

>  <hbond:PRO:131>  (44) 
0

>  <hbond:VAL:52>  (44) 
0

>  <hydroph_interaction:ASP:83>  (44) 
0

>  <hydroph_interaction:MET:49>  (44) 
0

>  <hydroph_interaction:VAL:52>  (44) 
0

>  <saltbridge:ASP:83>  (44) 
0

>  <saltbridge:ASP:75>  (44) 
0

>  <hydroph_interaction:TRP:50>  (44) 
0

>  <hydroph_interaction:VAL:72>  (44) 
0

>  <hydroph_interaction:ASP:75>  (44) 
0

>  <halogenbond:ASN:152>  (44) 
0

>  <halogenbond:GLY:153>  (44) 
0

>  <halogenbond:TYR:130>  (44) 
0

>  <hbond:TYR:130>  (44) 
0

>  <halogenbond:ASP:75>  (44) 
0

>  <halogenbond:GLY:151>  (44) 
0

>  <hbond:TYR:150>  (44) 
0

>  <halogenbond:TYR:161>  (44) 
0

>  <hydroph_interaction:ASP:129>  (44) 
0

>  <hbond:ASP:129>  (44) 
0

>  <halogenbond:ALA:132>  (44) 
0

$$$$
Z3809788219
     RDKit          3D

 22 23  0  0  0  0  0  0  0  0999 V2000
   -9.1330    4.6420  -19.4720 I   0  0  0  0  0  0  0  0  0  0  0  0
   -8.7970    4.8600  -17.4580 C   0  0  0  0  0  0  0  0  0  0  0  0
   -7.4920    4.8980  -17.0660 C   0  0  0  0  0  0  0  0  0  0  0  0
   -7.1550    5.0200  -15.6770 C   0  0  0  0  0  0  0  0  0  0  0  0
   -8.3420    5.0870  -14.8580 C   0  0  0  0  0  0  0  0  0  0  0  0
   -8.2640    5.1810  -13.5430 N   0  0  0  0  0  0  0  0  0  0  0  0
   -9.3880    4.8710  -12.8540 C   0  0  0  0  0  0  0  0  0  0  0  0
   -9.1310    4.8090  -11.3980 C   0  0  0  0  0  0  0  0  0  0  0  0
   -9.2420    3.4510  -10.7380 C   0  0  0  0  0  0  0  0  0  0  0  0
   -8.9760    3.7070   -9.3240 C   0  0  0  0  0  0  0  0  0  0  0  0
   -8.7180    5.1660   -9.2470 C   0  0  0  0  0  0  0  0  0  0  0  0
   -8.8400    5.7170  -10.5430 O   0  0  0  0  0  0  0  0  0  0  0  0
   -9.6160    5.0560  -15.3590 N   0  0  0  0  0  0  0  0  0  0  0  0
   -9.8530    4.9400  -16.6750 N   0  0  0  0  0  0  0  0  0  0  0  0
   -6.6390    4.8320  -17.7550 H   0  0  0  0  0  0  0  0  0  0  0  0
   -6.1380    5.0490  -15.2910 H   0  0  0  0  0  0  0  0  0  0  0  0
   -7.9460    6.1110  -13.2710 H   0  0  0  0  0  0  0  0  0  0  0  0
  -10.0750    5.6650  -13.1200 H   0  0  0  0  0  0  0  0  0  0  0  0
   -9.9610    4.0440  -13.2420 H   0  0  0  0  0  0  0  0  0  0  0  0
   -9.4790    2.4910  -11.2170 H   0  0  0  0  0  0  0  0  0  0  0  0
   -8.9690    2.9690   -8.5120 H   0  0  0  0  0  0  0  0  0  0  0  0
   -8.4750    5.8080   -8.4130 H   0  0  0  0  0  0  0  0  0  0  0  0
  1  2  1  0
  2  3  2  0
  3  4  1  0
  4  5  2  0
  5  6  1  0
  6  7  1  0
  7  8  1  0
  8  9  2  0
  9 10  1  0
 10 11  2  0
 11 12  1  0
  5 13  1  0
 13 14  2  0
 14  2  1  0
 12  8  1  0
  3 15  1  0
  4 16  1  0
  6 17  1  0
  7 18  1  0
  7 19  1  0
  9 20  1  0
 10 21  1  0
 11 22  1  0
A    1
 I1 
A    2
 C1 
A    3
 C2 
A    4
 C3 
A    5
 C4 
A    6
 N1 
A    7
 C5 
A    8
 C6 
A    9
 C7 
A   10
 C8 
A   11
 C9 
A   12
 O1 
A   13
 N2 
A   14
 N3 
A   15
 H1 
A   16
 H2 
A   17
 H3 
A   18
 H4 
A   19
 H5 
A   20
 H6 
A   21
 H7 
A   22
 H8 
M  END
>  <ref_pdb>  (45) 
x0051_0B

>  <ref_mols>  (45) 
x0969_1B,x0553_0B

>  <original SMILES>  (45) 
[H]c1oc(C([H])([H])N([H])c2nnc(I)c([H])c2[H])c([H])c1[H]

>  <index>  (45) 
4607

>  <∆∆G>  (45) 
-3.963499

>  <comRMSD>  (45) 
0.432307

>  <N_constrained_atoms>  (45) 
13.0

>  <N_unconstrained_atoms>  (45) 
1.0

>  <LE>  (45) 
0.283107

>  <percent_hybrid>  (45) 
0.0

>  <max_hit_Tanimoto>  (45) 
0.201377

>  <largest_ring>  (45) 
6

>  <N_interactions_kept>  (45) 
0.0

>  <N_interactions_lost>  (45) 
0.0

>  <interaction_uniqueness_metric>  (45) 
0.385785

>  <N_HA>  (45) 
14

>  <N_rotatable_bonds>  (45) 
3

>  <N_interactions>  (45) 
7

>  <N_PAINS>  (45) 
0

>  <UFF_Gibbs>  (45) 
84.695443

>  <strain_per_HA>  (45) 
6.049631

>  <ad_hoc_penalty>  (45) 
-41.857943

>  <cluster>  (45) 
1643

>  <merger_rank>  (45) 
1

>  <pication:ARG:29>  (45) 
0

>  <hbond:HIS:51>  (45) 
0

>  <pistack:HIS:51>  (45) 
1

>  <hydroph_interaction:TYR:161>  (45) 
2

>  <pication:HIS:51>  (45) 
0

>  <hydroph_interaction:ALA:132>  (45) 
0

>  <hydroph_interaction:TYR:150>  (45) 
0

>  <hydroph_interaction:LYS:54>  (45) 
0

>  <hbond:SER:135>  (45) 
1

>  <hydroph_interaction:HIS:51>  (45) 
1

>  <hbond:ASP:83>  (45) 
0

>  <hbond:ALA:132>  (45) 
0

>  <halogenbond:SER:81>  (45) 
0

>  <hbond:GLY:82>  (45) 
0

>  <saltbridge:HIS:51>  (45) 
0

>  <pistack:TYR:161>  (45) 
0

>  <hbond:SER:81>  (45) 
0

>  <hbond:ASN:152>  (45) 
0

>  <hbond:GLY:151>  (45) 
0

>  <hydroph_interaction:ASN:152>  (45) 
0

>  <hbond:TYR:161>  (45) 
0

>  <halogenbond:TYR:150>  (45) 
1

>  <hbond:ASP:75>  (45) 
0

>  <hbond:GLY:153>  (45) 
0

>  <hbond:VAL:36>  (45) 
0

>  <hbond:PRO:131>  (45) 
0

>  <hbond:VAL:52>  (45) 
0

>  <hydroph_interaction:ASP:83>  (45) 
0

>  <hydroph_interaction:MET:49>  (45) 
0

>  <hydroph_interaction:VAL:52>  (45) 
0

>  <saltbridge:ASP:83>  (45) 
0

>  <saltbridge:ASP:75>  (45) 
0

>  <hydroph_interaction:TRP:50>  (45) 
0

>  <hydroph_interaction:VAL:72>  (45) 
0

>  <hydroph_interaction:ASP:75>  (45) 
0

>  <halogenbond:ASN:152>  (45) 
0

>  <halogenbond:GLY:153>  (45) 
0

>  <halogenbond:TYR:130>  (45) 
1

>  <hbond:TYR:130>  (45) 
0

>  <halogenbond:ASP:75>  (45) 
0

>  <halogenbond:GLY:151>  (45) 
0

>  <hbond:TYR:150>  (45) 
0

>  <halogenbond:TYR:161>  (45) 
0

>  <hydroph_interaction:ASP:129>  (45) 
0

>  <hbond:ASP:129>  (45) 
0

>  <halogenbond:ALA:132>  (45) 
0

$$$$
PV-003045368931
     RDKit          3D

 24 25  0  0  0  0  0  0  0  0999 V2000
   -9.6330    2.2210   -9.3180 N   0  0  0  0  0  0  0  0  0  0  0  0
   -9.1880    3.4200   -9.9510 C   0  0  0  0  0  0  0  0  0  0  0  0
   -9.1110    4.4690   -9.1330 N   0  0  0  0  0  0  0  0  0  0  0  0
   -8.7170    5.5990   -9.7030 C   0  0  0  0  0  0  0  0  0  0  0  0
   -8.3840    5.7150  -11.1280 C   0  0  0  0  0  0  0  0  0  0  0  0
   -8.5030    4.5520  -11.8600 C   0  0  0  0  0  0  0  0  0  0  0  0
   -8.1970    4.6290  -13.2360 N   0  0  0  0  0  0  0  0  0  0  0  0
   -9.1950    5.2270  -13.9470 C   0  0  0  0  0  0  0  0  0  0  0  0
   -8.6220    5.1910  -15.3030 C   0  0  0  0  0  0  0  0  0  0  0  0
   -9.4990    4.8430  -16.4900 C   0  0  0  0  0  0  0  0  0  0  0  0
   -8.8210    4.8630  -17.6390 O   0  0  0  0  0  0  0  0  0  0  0  0
   -7.5320    5.2050  -17.2810 C   0  0  0  0  0  0  0  0  0  0  0  0
   -7.3610    5.4090  -15.9000 C   0  0  0  0  0  0  0  0  0  0  0  0
   -8.9030    3.4020  -11.2720 N   0  0  0  0  0  0  0  0  0  0  0  0
  -10.5820    1.8880   -9.4850 H   0  0  0  0  0  0  0  0  0  0  0  0
   -9.3480    2.2530   -8.3500 H   0  0  0  0  0  0  0  0  0  0  0  0
   -8.6360    6.4920   -9.0870 H   0  0  0  0  0  0  0  0  0  0  0  0
   -8.0560    6.5690  -11.7090 H   0  0  0  0  0  0  0  0  0  0  0  0
   -7.9200    3.7130  -13.6270 H   0  0  0  0  0  0  0  0  0  0  0  0
  -10.0150    4.5010  -13.9930 H   0  0  0  0  0  0  0  0  0  0  0  0
   -9.6780    6.0690  -13.4750 H   0  0  0  0  0  0  0  0  0  0  0  0
  -10.5470    4.6090  -16.3600 H   0  0  0  0  0  0  0  0  0  0  0  0
   -6.8500    5.2630  -18.1140 H   0  0  0  0  0  0  0  0  0  0  0  0
   -6.4280    5.6840  -15.4050 H   0  0  0  0  0  0  0  0  0  0  0  0
  1  2  1  0
  2  3  2  0
  3  4  1  0
  4  5  2  0
  5  6  1  0
  6  7  1  0
  7  8  1  0
  8  9  1  0
  9 10  2  0
 10 11  1  0
 11 12  1  0
 12 13  2  0
  6 14  2  0
 14  2  1  0
 13  9  1  0
  1 15  1  0
  1 16  1  0
  4 17  1  0
  5 18  1  0
  7 19  1  0
  8 20  1  0
  8 21  1  0
 10 22  1  0
 12 23  1  0
 13 24  1  0
A    1
 N1 
A    2
 C1 
A    3
 N2 
A    4
 C2 
A    5
 C3 
A    6
 C4 
A    7
 N3 
A    8
 C5 
A    9
 C6 
A   10
 C7 
A   11
 O1 
A   12
 C8 
A   13
 C9 
A   14
 N4 
A   15
 H1 
A   16
 H2 
A   17
 H3 
A   18
 H4 
A   19
 H5 
A   20
 H6 
A   21
 H7 
A   22
 H8 
A   23
 H9 
A   24
 H10
M  END
>  <ref_pdb>  (46) 
x0051_0B

>  <ref_mols>  (46) 
x0969_1B,x0553_0B

>  <original SMILES>  (46) 
[H]c1nc(N([H])[H])nc(N([H])C([H])([H])c2c([H])oc([H])c2[H])c1[H]

>  <index>  (46) 
1259

>  <∆∆G>  (46) 
-2.665241

>  <comRMSD>  (46) 
0.380947

>  <N_constrained_atoms>  (46) 
13.0

>  <N_unconstrained_atoms>  (46) 
1.0

>  <LE>  (46) 
0.190374

>  <percent_hybrid>  (46) 
0.0

>  <max_hit_Tanimoto>  (46) 
0.236581

>  <largest_ring>  (46) 
6

>  <N_interactions_kept>  (46) 
0.0

>  <N_interactions_lost>  (46) 
0.0

>  <interaction_uniqueness_metric>  (46) 
0.722616

>  <N_HA>  (46) 
14

>  <N_rotatable_bonds>  (46) 
4

>  <N_interactions>  (46) 
7

>  <N_PAINS>  (46) 
0

>  <UFF_Gibbs>  (46) 
83.168023

>  <strain_per_HA>  (46) 
5.940531

>  <ad_hoc_penalty>  (46) 
-41.844088

>  <cluster>  (46) 
3935

>  <merger_rank>  (46) 
1

>  <pication:ARG:29>  (46) 
0

>  <hbond:HIS:51>  (46) 
1

>  <pistack:HIS:51>  (46) 
1

>  <hydroph_interaction:TYR:161>  (46) 
1

>  <pication:HIS:51>  (46) 
0

>  <hydroph_interaction:ALA:132>  (46) 
0

>  <hydroph_interaction:TYR:150>  (46) 
0

>  <hydroph_interaction:LYS:54>  (46) 
0

>  <hbond:SER:135>  (46) 
0

>  <hydroph_interaction:HIS:51>  (46) 
0

>  <hbond:ASP:83>  (46) 
0

>  <hbond:ALA:132>  (46) 
0

>  <halogenbond:SER:81>  (46) 
0

>  <hbond:GLY:82>  (46) 
0

>  <saltbridge:HIS:51>  (46) 
0

>  <pistack:TYR:161>  (46) 
0

>  <hbond:SER:81>  (46) 
0

>  <hbond:ASN:152>  (46) 
1

>  <hbond:GLY:151>  (46) 
0

>  <hydroph_interaction:ASN:152>  (46) 
0

>  <hbond:TYR:161>  (46) 
1

>  <halogenbond:TYR:150>  (46) 
0

>  <hbond:ASP:75>  (46) 
0

>  <hbond:GLY:153>  (46) 
0

>  <hbond:VAL:36>  (46) 
0

>  <hbond:PRO:131>  (46) 
0

>  <hbond:VAL:52>  (46) 
0

>  <hydroph_interaction:ASP:83>  (46) 
0

>  <hydroph_interaction:MET:49>  (46) 
0

>  <hydroph_interaction:VAL:52>  (46) 
0

>  <saltbridge:ASP:83>  (46) 
1

>  <saltbridge:ASP:75>  (46) 
1

>  <hydroph_interaction:TRP:50>  (46) 
0

>  <hydroph_interaction:VAL:72>  (46) 
0

>  <hydroph_interaction:ASP:75>  (46) 
0

>  <halogenbond:ASN:152>  (46) 
0

>  <halogenbond:GLY:153>  (46) 
0

>  <halogenbond:TYR:130>  (46) 
0

>  <hbond:TYR:130>  (46) 
0

>  <halogenbond:ASP:75>  (46) 
0

>  <halogenbond:GLY:151>  (46) 
0

>  <hbond:TYR:150>  (46) 
0

>  <halogenbond:TYR:161>  (46) 
0

>  <hydroph_interaction:ASP:129>  (46) 
0

>  <hbond:ASP:129>  (46) 
0

>  <halogenbond:ALA:132>  (46) 
0

$$$$
Z2190598506
     RDKit          3D

 21 22  0  0  0  0  0  0  0  0999 V2000
   -9.0770    6.8230  -12.7610 O   0  0  0  0  0  0  0  0  0  0  0  0
   -8.6070    5.6990  -12.6750 C   0  0  0  0  0  0  0  0  0  0  0  0
   -7.8830    5.1080  -13.6760 N   0  0  0  0  0  0  0  0  0  0  0  0
   -8.3130    5.0420  -14.9780 C   0  0  0  0  0  0  0  0  0  0  0  0
   -7.2610    5.0580  -16.0260 C   0  0  0  0  0  0  0  0  0  0  0  0
   -7.7890    4.9680  -17.3350 C   0  0  0  0  0  0  0  0  0  0  0  0
   -9.1330    4.8770  -17.6050 C   0  0  0  0  0  0  0  0  0  0  0  0
  -10.0260    4.8770  -16.6000 N   0  0  0  0  0  0  0  0  0  0  0  0
   -9.6200    4.9620  -15.2910 N   0  0  0  0  0  0  0  0  0  0  0  0
   -8.7820    4.9240  -11.4800 C   0  0  0  0  0  0  0  0  0  0  0  0
   -8.7700    5.2850  -10.1210 C   0  0  0  0  0  0  0  0  0  0  0  0
   -8.5320    6.8080   -9.3950 Cl  0  0  0  0  0  0  0  0  0  0  0  0
   -9.0010    4.1010   -9.4170 C   0  0  0  0  0  0  0  0  0  0  0  0
   -9.1490    3.0350  -10.3840 C   0  0  0  0  0  0  0  0  0  0  0  0
   -9.0130    3.5500  -11.6250 O   0  0  0  0  0  0  0  0  0  0  0  0
   -7.0720    4.5560  -13.4560 H   0  0  0  0  0  0  0  0  0  0  0  0
   -6.1920    5.1240  -15.8330 H   0  0  0  0  0  0  0  0  0  0  0  0
   -7.0680    4.9730  -18.1420 H   0  0  0  0  0  0  0  0  0  0  0  0
   -9.5680    4.8030  -18.6070 H   0  0  0  0  0  0  0  0  0  0  0  0
   -9.0610    3.9750   -8.3470 H   0  0  0  0  0  0  0  0  0  0  0  0
   -9.3340    1.9840  -10.2320 H   0  0  0  0  0  0  0  0  0  0  0  0
  1  2  2  0
  2  3  1  0
  3  4  1  0
  4  5  2  0
  5  6  1  0
  6  7  2  0
  7  8  1  0
  8  9  2  0
  2 10  1  0
 10 11  2  0
 11 12  1  0
 11 13  1  0
 13 14  2  0
 14 15  1  0
  9  4  1  0
 15 10  1  0
  3 16  1  0
  5 17  1  0
  6 18  1  0
  7 19  1  0
 13 20  1  0
 14 21  1  0
A    1
 O1 
A    2
 C1 
A    3
 N1 
A    4
 C2 
A    5
 C3 
A    6
 C4 
A    7
 C5 
A    8
 N2 
A    9
 N3 
A   10
 C6 
A   11
 C7 
A   12
CL1 
A   13
 C8 
A   14
 C9 
A   15
 O2 
A   16
 H1 
A   17
 H2 
A   18
 H3 
A   19
 H4 
A   20
 H5 
A   21
 H6 
M  END
>  <ref_pdb>  (47) 
x0051_0B

>  <ref_mols>  (47) 
x0969_1B,x0553_0B

>  <original SMILES>  (47) 
[H]c1nnc(N([H])C(=O)c2oc([H])c([H])c2Cl)c([H])c1[H]

>  <index>  (47) 
2486

>  <∆∆G>  (47) 
-3.413397

>  <comRMSD>  (47) 
0.398451

>  <N_constrained_atoms>  (47) 
14.0

>  <N_unconstrained_atoms>  (47) 
1.0

>  <LE>  (47) 
0.22756

>  <percent_hybrid>  (47) 
0.0

>  <max_hit_Tanimoto>  (47) 
0.307128

>  <largest_ring>  (47) 
6

>  <N_interactions_kept>  (47) 
0.0

>  <N_interactions_lost>  (47) 
0.0

>  <interaction_uniqueness_metric>  (47) 
0.125645

>  <N_HA>  (47) 
15

>  <N_rotatable_bonds>  (47) 
2

>  <N_interactions>  (47) 
7

>  <N_PAINS>  (47) 
0

>  <UFF_Gibbs>  (47) 
39.367032

>  <strain_per_HA>  (47) 
2.624451

>  <ad_hoc_penalty>  (47) 
-41.735775

>  <cluster>  (47) 
3021

>  <merger_rank>  (47) 
2

>  <pication:ARG:29>  (47) 
0

>  <hbond:HIS:51>  (47) 
0

>  <pistack:HIS:51>  (47) 
1

>  <hydroph_interaction:TYR:161>  (47) 
2

>  <pication:HIS:51>  (47) 
0

>  <hydroph_interaction:ALA:132>  (47) 
0

>  <hydroph_interaction:TYR:150>  (47) 
0

>  <hydroph_interaction:LYS:54>  (47) 
0

>  <hbond:SER:135>  (47) 
1

>  <hydroph_interaction:HIS:51>  (47) 
1

>  <hbond:ASP:83>  (47) 
0

>  <hbond:ALA:132>  (47) 
0

>  <halogenbond:SER:81>  (47) 
0

>  <hbond:GLY:82>  (47) 
0

>  <saltbridge:HIS:51>  (47) 
0

>  <pistack:TYR:161>  (47) 
0

>  <hbond:SER:81>  (47) 
0

>  <hbond:ASN:152>  (47) 
0

>  <hbond:GLY:151>  (47) 
0

>  <hydroph_interaction:ASN:152>  (47) 
0

>  <hbond:TYR:161>  (47) 
2

>  <halogenbond:TYR:150>  (47) 
0

>  <hbond:ASP:75>  (47) 
0

>  <hbond:GLY:153>  (47) 
0

>  <hbond:VAL:36>  (47) 
0

>  <hbond:PRO:131>  (47) 
0

>  <hbond:VAL:52>  (47) 
0

>  <hydroph_interaction:ASP:83>  (47) 
0

>  <hydroph_interaction:MET:49>  (47) 
0

>  <hydroph_interaction:VAL:52>  (47) 
0

>  <saltbridge:ASP:83>  (47) 
0

>  <saltbridge:ASP:75>  (47) 
0

>  <hydroph_interaction:TRP:50>  (47) 
0

>  <hydroph_interaction:VAL:72>  (47) 
0

>  <hydroph_interaction:ASP:75>  (47) 
0

>  <halogenbond:ASN:152>  (47) 
0

>  <halogenbond:GLY:153>  (47) 
0

>  <halogenbond:TYR:130>  (47) 
0

>  <hbond:TYR:130>  (47) 
0

>  <halogenbond:ASP:75>  (47) 
0

>  <halogenbond:GLY:151>  (47) 
0

>  <hbond:TYR:150>  (47) 
0

>  <halogenbond:TYR:161>  (47) 
0

>  <hydroph_interaction:ASP:129>  (47) 
0

>  <hbond:ASP:129>  (47) 
0

>  <halogenbond:ALA:132>  (47) 
0

$$$$
PV-006057546475
     RDKit          3D

 23 25  0  0  0  0  0  0  0  0999 V2000
   -8.6130    5.2220  -10.0780 C   0  0  0  0  0  0  0  0  0  0  0  0
   -9.3480    3.9140   -9.9410 C   0  0  0  0  0  0  0  0  0  0  0  0
   -9.4560    3.1170  -11.0010 N   0  0  0  0  0  0  0  0  0  0  0  0
   -8.8820    3.5130  -12.1990 N   0  0  0  0  0  0  0  0  0  0  0  0
   -8.1940    4.6760  -12.3890 C   0  0  0  0  0  0  0  0  0  0  0  0
   -7.6610    4.8650  -13.6580 C   0  0  0  0  0  0  0  0  0  0  0  0
   -6.2430    4.8430  -13.6420 C   0  0  0  0  0  0  0  0  0  0  0  0
   -5.5750    5.0050  -14.9190 C   0  0  0  0  0  0  0  0  0  0  0  0
   -6.1690    5.1700  -16.1470 C   0  0  0  0  0  0  0  0  0  0  0  0
   -7.5700    5.1900  -16.1490 C   0  0  0  0  0  0  0  0  0  0  0  0
   -8.3000    5.0560  -14.9340 C   0  0  0  0  0  0  0  0  0  0  0  0
   -9.9920    5.1530  -15.2830 S   0  0  0  0  0  0  0  0  0  0  0  0
   -9.8040    5.3160  -16.9500 C   0  0  0  0  0  0  0  0  0  0  0  0
   -8.3970    5.3310  -17.3000 C   0  0  0  0  0  0  0  0  0  0  0  0
   -8.0580    5.5570  -11.3100 C   0  0  0  0  0  0  0  0  0  0  0  0
   -8.5630    5.8350   -9.1710 H   0  0  0  0  0  0  0  0  0  0  0  0
   -9.8050    3.5720   -9.0190 H   0  0  0  0  0  0  0  0  0  0  0  0
   -5.6470    4.7100  -12.7440 H   0  0  0  0  0  0  0  0  0  0  0  0
   -4.4890    4.9900  -14.9060 H   0  0  0  0  0  0  0  0  0  0  0  0
   -5.5860    5.2760  -17.0610 H   0  0  0  0  0  0  0  0  0  0  0  0
  -10.6570    5.3980  -17.6080 H   0  0  0  0  0  0  0  0  0  0  0  0
   -8.0290    5.4350  -18.3140 H   0  0  0  0  0  0  0  0  0  0  0  0
   -7.5280    6.4980  -11.3870 H   0  0  0  0  0  0  0  0  0  0  0  0
  1  2  2  0
  2  3  1  0
  3  4  2  0
  4  5  1  0
  5  6  1  0
  6  7  2  0
  7  8  1  0
  8  9  2  0
  9 10  1  0
 10 11  2  0
 11 12  1  0
 12 13  1  0
 13 14  2  0
  5 15  2  0
 15  1  1  0
 11  6  1  0
 14 10  1  0
  1 16  1  0
  2 17  1  0
  7 18  1  0
  8 19  1  0
  9 20  1  0
 13 21  1  0
 14 22  1  0
 15 23  1  0
A    1
 C1 
A    2
 C2 
A    3
 N1 
A    4
 N2 
A    5
 C3 
A    6
 C4 
A    7
 C5 
A    8
 C6 
A    9
 C7 
A   10
 C8 
A   11
 C9 
A   12
 S1 
A   13
 C10
A   14
 C11
A   15
 C12
A   16
 H1 
A   17
 H2 
A   18
 H3 
A   19
 H4 
A   20
 H5 
A   21
 H6 
A   22
 H7 
A   23
 H8 
M  END
>  <ref_pdb>  (48) 
x0051_0B

>  <ref_mols>  (48) 
x0969_1B,x0553_0B

>  <original SMILES>  (48) 
[H]c1nnc(-c2c([H])c([H])c([H])c3c([H])c([H])sc23)c([H])c1[H]

>  <index>  (48) 
317

>  <∆∆G>  (48) 
-3.567137

>  <comRMSD>  (48) 
0.403537

>  <N_constrained_atoms>  (48) 
15.0

>  <N_unconstrained_atoms>  (48) 
0.0

>  <LE>  (48) 
0.237809

>  <percent_hybrid>  (48) 
0.0

>  <max_hit_Tanimoto>  (48) 
0.339122

>  <largest_ring>  (48) 
6

>  <N_interactions_kept>  (48) 
0.0

>  <N_interactions_lost>  (48) 
0.0

>  <interaction_uniqueness_metric>  (48) 
0.144788

>  <N_HA>  (48) 
15

>  <N_rotatable_bonds>  (48) 
1

>  <N_interactions>  (48) 
6

>  <N_PAINS>  (48) 
0

>  <UFF_Gibbs>  (48) 
33.443513

>  <strain_per_HA>  (48) 
2.229553

>  <ad_hoc_penalty>  (48) 
-41.706731

>  <cluster>  (48) 
4668

>  <merger_rank>  (48) 
1

>  <pication:ARG:29>  (48) 
0

>  <hbond:HIS:51>  (48) 
0

>  <pistack:HIS:51>  (48) 
0

>  <hydroph_interaction:TYR:161>  (48) 
2

>  <pication:HIS:51>  (48) 
1

>  <hydroph_interaction:ALA:132>  (48) 
1

>  <hydroph_interaction:TYR:150>  (48) 
0

>  <hydroph_interaction:LYS:54>  (48) 
0

>  <hbond:SER:135>  (48) 
0

>  <hydroph_interaction:HIS:51>  (48) 
1

>  <hbond:ASP:83>  (48) 
0

>  <hbond:ALA:132>  (48) 
0

>  <halogenbond:SER:81>  (48) 
0

>  <hbond:GLY:82>  (48) 
0

>  <saltbridge:HIS:51>  (48) 
0

>  <pistack:TYR:161>  (48) 
0

>  <hbond:SER:81>  (48) 
0

>  <hbond:ASN:152>  (48) 
0

>  <hbond:GLY:151>  (48) 
0

>  <hydroph_interaction:ASN:152>  (48) 
0

>  <hbond:TYR:161>  (48) 
1

>  <halogenbond:TYR:150>  (48) 
0

>  <hbond:ASP:75>  (48) 
0

>  <hbond:GLY:153>  (48) 
0

>  <hbond:VAL:36>  (48) 
0

>  <hbond:PRO:131>  (48) 
0

>  <hbond:VAL:52>  (48) 
0

>  <hydroph_interaction:ASP:83>  (48) 
0

>  <hydroph_interaction:MET:49>  (48) 
0

>  <hydroph_interaction:VAL:52>  (48) 
0

>  <saltbridge:ASP:83>  (48) 
0

>  <saltbridge:ASP:75>  (48) 
0

>  <hydroph_interaction:TRP:50>  (48) 
0

>  <hydroph_interaction:VAL:72>  (48) 
0

>  <hydroph_interaction:ASP:75>  (48) 
0

>  <halogenbond:ASN:152>  (48) 
0

>  <halogenbond:GLY:153>  (48) 
0

>  <halogenbond:TYR:130>  (48) 
0

>  <hbond:TYR:130>  (48) 
0

>  <halogenbond:ASP:75>  (48) 
0

>  <halogenbond:GLY:151>  (48) 
0

>  <hbond:TYR:150>  (48) 
0

>  <halogenbond:TYR:161>  (48) 
0

>  <hydroph_interaction:ASP:129>  (48) 
0

>  <hbond:ASP:129>  (48) 
0

>  <halogenbond:ALA:132>  (48) 
0

$$$$
Z1246299537
     RDKit          3D

 26 28  0  0  0  0  0  0  0  0999 V2000
  -10.0840    5.7670  -14.9580 O   0  0  0  0  0  0  0  0  0  0  0  0
   -8.9330    6.1270  -15.1260 C   0  0  0  0  0  0  0  0  0  0  0  0
   -8.2180    7.0010  -14.2290 N   0  0  0  0  0  0  0  0  0  0  0  0
   -8.9620    7.3200  -12.9980 C   0  0  0  0  0  0  0  0  0  0  0  0
   -8.9840    6.2150  -12.1370 C   0  0  0  0  0  0  0  0  0  0  0  0
   -8.9130    6.4890  -10.7850 C   0  0  0  0  0  0  0  0  0  0  0  0
   -8.9440    5.3130   -9.9390 C   0  0  0  0  0  0  0  0  0  0  0  0
   -9.0460    4.1460  -10.8220 C   0  0  0  0  0  0  0  0  0  0  0  0
   -9.0810    3.0000   -9.9890 C   0  0  0  0  0  0  0  0  0  0  0  0
   -9.0020    3.5450   -8.7050 C   0  0  0  0  0  0  0  0  0  0  0  0
   -8.9180    4.9710   -8.7230 O   0  0  0  0  0  0  0  0  0  0  0  0
   -9.0880    4.5190  -12.4900 S   0  0  0  0  0  0  0  0  0  0  0  0
   -8.1390    5.7460  -16.2780 C   0  0  0  0  0  0  0  0  0  0  0  0
   -8.4790    5.1810  -17.4640 C   0  0  0  0  0  0  0  0  0  0  0  0
   -7.4680    4.9680  -18.3760 C   0  0  0  0  0  0  0  0  0  0  0  0
   -7.7420    4.2260  -20.0720 Br  0  0  0  0  0  0  0  0  0  0  0  0
   -6.2360    5.4000  -17.8300 C   0  0  0  0  0  0  0  0  0  0  0  0
   -6.4450    6.0310  -16.2500 S   0  0  0  0  0  0  0  0  0  0  0  0
   -7.7280    7.7710  -14.6710 H   0  0  0  0  0  0  0  0  0  0  0  0
   -8.4970    8.1340  -12.4270 H   0  0  0  0  0  0  0  0  0  0  0  0
   -9.9510    7.6560  -13.2980 H   0  0  0  0  0  0  0  0  0  0  0  0
   -8.8400    7.4840  -10.3460 H   0  0  0  0  0  0  0  0  0  0  0  0
   -9.1500    1.9560  -10.2650 H   0  0  0  0  0  0  0  0  0  0  0  0
   -8.9980    3.0020   -7.7650 H   0  0  0  0  0  0  0  0  0  0  0  0
   -9.5100    4.9170  -17.6870 H   0  0  0  0  0  0  0  0  0  0  0  0
   -5.2550    5.3720  -18.2780 H   0  0  0  0  0  0  0  0  0  0  0  0
  1  2  2  0
  2  3  1  0
  3  4  1  0
  4  5  1  0
  5  6  2  0
  6  7  1  0
  7  8  2  0
  8  9  1  0
  9 10  2  0
 10 11  1  0
  8 12  1  0
  2 13  1  0
 13 14  2  0
 14 15  1  0
 15 16  1  0
 15 17  2  0
 17 18  1  0
 12  5  1  0
 11  7  1  0
 18 13  1  0
  3 19  1  0
  4 20  1  0
  4 21  1  0
  6 22  1  0
  9 23  1  0
 10 24  1  0
 14 25  1  0
 17 26  1  0
A    1
 O1 
A    2
 C1 
A    3
 N1 
A    4
 C2 
A    5
 C3 
A    6
 C4 
A    7
 C5 
A    8
 C6 
A    9
 C7 
A   10
 C8 
A   11
 O2 
A   12
 S1 
A   13
 C9 
A   14
 C10
A   15
 C11
A   16
BR1 
A   17
 C12
A   18
 S2 
A   19
 H1 
A   20
 H2 
A   21
 H3 
A   22
 H4 
A   23
 H5 
A   24
 H6 
A   25
 H7 
A   26
 H8 
M  END
>  <ref_pdb>  (49) 
x0051_0B

>  <ref_mols>  (49) 
x0404_0B,x0969_0B

>  <original SMILES>  (49) 
[H]c1oc2c([H])c(C([H])([H])N([H])C(=O)c3sc([H])c(Br)c3[H])sc2c1[H]

>  <index>  (49) 
4441

>  <∆∆G>  (49) 
-5.729634

>  <comRMSD>  (49) 
0.34973

>  <N_constrained_atoms>  (49) 
17.0

>  <N_unconstrained_atoms>  (49) 
1.0

>  <LE>  (49) 
0.318313

>  <percent_hybrid>  (49) 
0.0

>  <max_hit_Tanimoto>  (49) 
0.378378

>  <largest_ring>  (49) 
5

>  <N_interactions_kept>  (49) 
0.0

>  <N_interactions_lost>  (49) 
0.0

>  <interaction_uniqueness_metric>  (49) 
0.190478

>  <N_HA>  (49) 
18

>  <N_rotatable_bonds>  (49) 
3

>  <N_interactions>  (49) 
6

>  <N_PAINS>  (49) 
0

>  <UFF_Gibbs>  (49) 
64.550732

>  <strain_per_HA>  (49) 
3.586132

>  <ad_hoc_penalty>  (49) 
-41.690709

>  <cluster>  (49) 
23

>  <merger_rank>  (49) 
2

>  <pication:ARG:29>  (49) 
0

>  <hbond:HIS:51>  (49) 
0

>  <pistack:HIS:51>  (49) 
2

>  <hydroph_interaction:TYR:161>  (49) 
0

>  <pication:HIS:51>  (49) 
0

>  <hydroph_interaction:ALA:132>  (49) 
1

>  <hydroph_interaction:TYR:150>  (49) 
0

>  <hydroph_interaction:LYS:54>  (49) 
0

>  <hbond:SER:135>  (49) 
1

>  <hydroph_interaction:HIS:51>  (49) 
0

>  <hbond:ASP:83>  (49) 
0

>  <hbond:ALA:132>  (49) 
0

>  <halogenbond:SER:81>  (49) 
0

>  <hbond:GLY:82>  (49) 
0

>  <saltbridge:HIS:51>  (49) 
0

>  <pistack:TYR:161>  (49) 
1

>  <hbond:SER:81>  (49) 
0

>  <hbond:ASN:152>  (49) 
0

>  <hbond:GLY:151>  (49) 
0

>  <hydroph_interaction:ASN:152>  (49) 
0

>  <hbond:TYR:161>  (49) 
0

>  <halogenbond:TYR:150>  (49) 
1

>  <hbond:ASP:75>  (49) 
0

>  <hbond:GLY:153>  (49) 
0

>  <hbond:VAL:36>  (49) 
0

>  <hbond:PRO:131>  (49) 
0

>  <hbond:VAL:52>  (49) 
0

>  <hydroph_interaction:ASP:83>  (49) 
0

>  <hydroph_interaction:MET:49>  (49) 
0

>  <hydroph_interaction:VAL:52>  (49) 
0

>  <saltbridge:ASP:83>  (49) 
0

>  <saltbridge:ASP:75>  (49) 
0

>  <hydroph_interaction:TRP:50>  (49) 
0

>  <hydroph_interaction:VAL:72>  (49) 
0

>  <hydroph_interaction:ASP:75>  (49) 
0

>  <halogenbond:ASN:152>  (49) 
0

>  <halogenbond:GLY:153>  (49) 
0

>  <halogenbond:TYR:130>  (49) 
0

>  <hbond:TYR:130>  (49) 
0

>  <halogenbond:ASP:75>  (49) 
0

>  <halogenbond:GLY:151>  (49) 
0

>  <hbond:TYR:150>  (49) 
0

>  <halogenbond:TYR:161>  (49) 
0

>  <hydroph_interaction:ASP:129>  (49) 
0

>  <hbond:ASP:129>  (49) 
0

>  <halogenbond:ALA:132>  (49) 
0

$$$$
Z637733618
     RDKit          3D

 20 22  0  0  0  0  0  0  0  0999 V2000
   -9.1380    5.2390  -16.8680 C   0  0  0  0  0  0  0  0  0  0  0  0
   -7.6840    5.4720  -16.9840 C   0  0  0  0  0  0  0  0  0  0  0  0
   -7.0250    5.4760  -15.3760 S   0  0  0  0  0  0  0  0  0  0  0  0
   -8.6250    5.1770  -14.5860 C   0  0  0  0  0  0  0  0  0  0  0  0
   -8.6860    5.0630  -13.1780 C   0  0  0  0  0  0  0  0  0  0  0  0
   -8.9860    3.9100  -12.5930 N   0  0  0  0  0  0  0  0  0  0  0  0
   -8.9890    4.0470  -11.2320 C   0  0  0  0  0  0  0  0  0  0  0  0
   -9.2740    3.0050  -10.2930 C   0  0  0  0  0  0  0  0  0  0  0  0
   -9.2310    3.3260   -8.9470 C   0  0  0  0  0  0  0  0  0  0  0  0
   -8.8930    4.7290   -8.5890 C   0  0  0  0  0  0  0  0  0  0  0  0
   -8.6190    5.7400   -9.4860 N   0  0  0  0  0  0  0  0  0  0  0  0
   -8.6850    5.3310  -10.7730 C   0  0  0  0  0  0  0  0  0  0  0  0
   -8.3930    6.3760  -12.1010 S   0  0  0  0  0  0  0  0  0  0  0  0
   -9.6150    5.0860  -15.5320 C   0  0  0  0  0  0  0  0  0  0  0  0
   -9.6890    5.2080  -17.8110 H   0  0  0  0  0  0  0  0  0  0  0  0
   -7.0270    5.6250  -17.8270 H   0  0  0  0  0  0  0  0  0  0  0  0
   -9.5070    2.0300  -10.6890 H   0  0  0  0  0  0  0  0  0  0  0  0
   -9.4320    2.5990   -8.1670 H   0  0  0  0  0  0  0  0  0  0  0  0
   -8.8480    5.0270   -7.5480 H   0  0  0  0  0  0  0  0  0  0  0  0
  -10.6400    4.9080  -15.2750 H   0  0  0  0  0  0  0  0  0  0  0  0
  1  2  2  0
  2  3  1  0
  3  4  1  0
  4  5  1  0
  5  6  2  0
  6  7  1  0
  7  8  2  0
  8  9  1  0
  9 10  2  0
 10 11  1  0
 11 12  2  0
 12 13  1  0
  4 14  2  0
 14  1  1  0
 13  5  1  0
 12  7  1  0
  1 15  1  0
  2 16  1  0
  8 17  1  0
  9 18  1  0
 10 19  1  0
 14 20  1  0
A    1
 C1 
A    2
 C2 
A    3
 S1 
A    4
 C3 
A    5
 C4 
A    6
 N1 
A    7
 C5 
A    8
 C6 
A    9
 C7 
A   10
 C8 
A   11
 N2 
A   12
 C9 
A   13
 S2 
A   14
 C10
A   15
 H1 
A   16
 H2 
A   17
 H3 
A   18
 H4 
A   19
 H5 
A   20
 H6 
M  END
>  <ref_pdb>  (50) 
x0051_0B

>  <ref_mols>  (50) 
x0969_1B,x0553_0B

>  <original SMILES>  (50) 
[H]c1nc2sc(-c3sc([H])c([H])c3[H])nc2c([H])c1[H]

>  <index>  (50) 
1169

>  <∆∆G>  (50) 
-4.249866

>  <comRMSD>  (50) 
0.329549

>  <N_constrained_atoms>  (50) 
13.0

>  <N_unconstrained_atoms>  (50) 
1.0

>  <LE>  (50) 
0.303562

>  <percent_hybrid>  (50) 
0.0

>  <max_hit_Tanimoto>  (50) 
0.261477

>  <largest_ring>  (50) 
6

>  <N_interactions_kept>  (50) 
0.0

>  <N_interactions_lost>  (50) 
0.0

>  <interaction_uniqueness_metric>  (50) 
0.10558

>  <N_HA>  (50) 
14

>  <N_rotatable_bonds>  (50) 
1

>  <N_interactions>  (50) 
6

>  <N_PAINS>  (50) 
0

>  <UFF_Gibbs>  (50) 
36.402438

>  <strain_per_HA>  (50) 
2.600156

>  <ad_hoc_penalty>  (50) 
-41.622511

>  <cluster>  (50) 
4004

>  <merger_rank>  (50) 
2

>  <pication:ARG:29>  (50) 
0

>  <hbond:HIS:51>  (50) 
0

>  <pistack:HIS:51>  (50) 
2

>  <hydroph_interaction:TYR:161>  (50) 
1

>  <pication:HIS:51>  (50) 
0

>  <hydroph_interaction:ALA:132>  (50) 
1

>  <hydroph_interaction:TYR:150>  (50) 
0

>  <hydroph_interaction:LYS:54>  (50) 
0

>  <hbond:SER:135>  (50) 
0

>  <hydroph_interaction:HIS:51>  (50) 
1

>  <hbond:ASP:83>  (50) 
0

>  <hbond:ALA:132>  (50) 
0

>  <halogenbond:SER:81>  (50) 
0

>  <hbond:GLY:82>  (50) 
0

>  <saltbridge:HIS:51>  (50) 
0

>  <pistack:TYR:161>  (50) 
0

>  <hbond:SER:81>  (50) 
0

>  <hbond:ASN:152>  (50) 
0

>  <hbond:GLY:151>  (50) 
0

>  <hydroph_interaction:ASN:152>  (50) 
0

>  <hbond:TYR:161>  (50) 
1

>  <halogenbond:TYR:150>  (50) 
0

>  <hbond:ASP:75>  (50) 
0

>  <hbond:GLY:153>  (50) 
0

>  <hbond:VAL:36>  (50) 
0

>  <hbond:PRO:131>  (50) 
0

>  <hbond:VAL:52>  (50) 
0

>  <hydroph_interaction:ASP:83>  (50) 
0

>  <hydroph_interaction:MET:49>  (50) 
0

>  <hydroph_interaction:VAL:52>  (50) 
0

>  <saltbridge:ASP:83>  (50) 
0

>  <saltbridge:ASP:75>  (50) 
0

>  <hydroph_interaction:TRP:50>  (50) 
0

>  <hydroph_interaction:VAL:72>  (50) 
0

>  <hydroph_interaction:ASP:75>  (50) 
0

>  <halogenbond:ASN:152>  (50) 
0

>  <halogenbond:GLY:153>  (50) 
0

>  <halogenbond:TYR:130>  (50) 
0

>  <hbond:TYR:130>  (50) 
0

>  <halogenbond:ASP:75>  (50) 
0

>  <halogenbond:GLY:151>  (50) 
0

>  <hbond:TYR:150>  (50) 
0

>  <halogenbond:TYR:161>  (50) 
0

>  <hydroph_interaction:ASP:129>  (50) 
0

>  <hbond:ASP:129>  (50) 
0

>  <halogenbond:ALA:132>  (50) 
0

$$$$
PV-004200671753
     RDKit          3D

 31 34  0  0  0  0  0  0  0  0999 V2000
   -8.2980    2.9990  -12.1030 Br  0  0  0  0  0  0  0  0  0  0  0  0
   -8.7450    3.7000  -10.4300 C   0  0  0  0  0  0  0  0  0  0  0  0
   -8.9670    4.9960  -10.1370 C   0  0  0  0  0  0  0  0  0  0  0  0
   -8.9070    6.0280  -11.0730 C   0  0  0  0  0  0  0  0  0  0  0  0
   -8.0320    6.0940  -12.1980 C   0  0  0  0  0  0  0  0  0  0  0  0
   -8.2790    7.2170  -12.8110 N   0  0  0  0  0  0  0  0  0  0  0  0
   -7.5590    7.6050  -13.9360 C   0  0  0  0  0  0  0  0  0  0  0  0
   -7.6440    6.7960  -15.0610 C   0  0  0  0  0  0  0  0  0  0  0  0
   -6.7630    6.9150  -16.0570 N   0  0  0  0  0  0  0  0  0  0  0  0
   -7.1690    5.9970  -16.9790 C   0  0  0  0  0  0  0  0  0  0  0  0
   -6.5950    5.6990  -18.2550 C   0  0  0  0  0  0  0  0  0  0  0  0
   -7.3020    4.6340  -19.0160 C   0  0  0  0  0  0  0  0  0  0  0  0
   -8.4110    3.9710  -18.5650 C   0  0  0  0  0  0  0  0  0  0  0  0
   -8.9460    4.3330  -17.2350 C   0  0  0  0  0  0  0  0  0  0  0  0
   -8.3020    5.3210  -16.5160 C   0  0  0  0  0  0  0  0  0  0  0  0
   -8.5680    5.8690  -15.2730 N   0  0  0  0  0  0  0  0  0  0  0  0
   -9.2680    7.9140  -12.1950 N   0  0  0  0  0  0  0  0  0  0  0  0
   -9.6620    7.1790  -11.1050 N   0  0  0  0  0  0  0  0  0  0  0  0
   -9.2490    5.1310   -8.8200 O   0  0  0  0  0  0  0  0  0  0  0  0
   -9.2090    3.8720   -8.2840 C   0  0  0  0  0  0  0  0  0  0  0  0
   -8.9030    2.9440   -9.2520 C   0  0  0  0  0  0  0  0  0  0  0  0
   -7.2700    5.4250  -12.5680 H   0  0  0  0  0  0  0  0  0  0  0  0
   -6.5810    7.6820  -13.4850 H   0  0  0  0  0  0  0  0  0  0  0  0
   -7.7480    8.6520  -14.1390 H   0  0  0  0  0  0  0  0  0  0  0  0
   -5.7180    6.2130  -18.6310 H   0  0  0  0  0  0  0  0  0  0  0  0
   -6.9140    4.3660  -19.9940 H   0  0  0  0  0  0  0  0  0  0  0  0
   -8.8850    3.1990  -19.1690 H   0  0  0  0  0  0  0  0  0  0  0  0
   -9.8120    3.8540  -16.8350 H   0  0  0  0  0  0  0  0  0  0  0  0
   -9.3270    5.6180  -14.6450 H   0  0  0  0  0  0  0  0  0  0  0  0
   -9.4160    3.8040   -7.2250 H   0  0  0  0  0  0  0  0  0  0  0  0
   -8.8050    1.8790   -9.1140 H   0  0  0  0  0  0  0  0  0  0  0  0
  1  2  1  0
  2  3  2  0
  3  4  1  0
  4  5  2  0
  5  6  1  0
  6  7  1  0
  7  8  1  0
  8  9  2  0
  9 10  1  0
 10 11  2  0
 11 12  1  0
 12 13  2  0
 13 14  1  0
 14 15  2  0
 15 16  1  0
  6 17  1  0
 17 18  2  0
  3 19  1  0
 19 20  1  0
 20 21  2  0
 21  2  1  0
 18  4  1  0
 16  8  1  0
 15 10  1  0
  5 22  1  0
  7 23  1  0
  7 24  1  0
 11 25  1  0
 12 26  1  0
 13 27  1  0
 14 28  1  0
 16 29  1  0
 20 30  1  0
 21 31  1  0
A    1
BR1 
A    2
 C1 
A    3
 C2 
A    4
 C3 
A    5
 C4 
A    6
 N1 
A    7
 C5 
A    8
 C6 
A    9
 N2 
A   10
 C7 
A   11
 C8 
A   12
 C9 
A   13
 C10
A   14
 C11
A   15
 C12
A   16
 N3 
A   17
 N4 
A   18
 N5 
A   19
 O1 
A   20
 C13
A   21
 C14
A   22
 H1 
A   23
 H2 
A   24
 H3 
A   25
 H4 
A   26
 H5 
A   27
 H6 
A   28
 H7 
A   29
 H8 
A   30
 H9 
A   31
 H10
M  END
>  <ref_pdb>  (51) 
x0051_0B

>  <ref_mols>  (51) 
x0404_0B,x0969_0B

>  <original SMILES>  (51) 
[H]c1oc(-c2nnn(C([H])([H])c3nc4c([H])c([H])c([H])c([H])c4n3[H])c2[H])c(Br)c1[H]

>  <index>  (51) 
2461

>  <∆∆G>  (51) 
-5.055348

>  <comRMSD>  (51) 
0.443323

>  <N_constrained_atoms>  (51) 
20.0

>  <N_unconstrained_atoms>  (51) 
1.0

>  <LE>  (51) 
0.240731

>  <percent_hybrid>  (51) 
0.0

>  <max_hit_Tanimoto>  (51) 
0.315831

>  <largest_ring>  (51) 
6

>  <N_interactions_kept>  (51) 
0.0

>  <N_interactions_lost>  (51) 
0.0

>  <interaction_uniqueness_metric>  (51) 
0.458936

>  <N_HA>  (51) 
21

>  <N_rotatable_bonds>  (51) 
3

>  <N_interactions>  (51) 
5

>  <N_PAINS>  (51) 
0

>  <UFF_Gibbs>  (51) 
55.580444

>  <strain_per_HA>  (51) 
2.646675

>  <ad_hoc_penalty>  (51) 
-41.513926

>  <cluster>  (51) 
3036

>  <merger_rank>  (51) 
1

>  <pication:ARG:29>  (51) 
0

>  <hbond:HIS:51>  (51) 
0

>  <pistack:HIS:51>  (51) 
1

>  <hydroph_interaction:TYR:161>  (51) 
1

>  <pication:HIS:51>  (51) 
0

>  <hydroph_interaction:ALA:132>  (51) 
0

>  <hydroph_interaction:TYR:150>  (51) 
0

>  <hydroph_interaction:LYS:54>  (51) 
0

>  <hbond:SER:135>  (51) 
0

>  <hydroph_interaction:HIS:51>  (51) 
0

>  <hbond:ASP:83>  (51) 
0

>  <hbond:ALA:132>  (51) 
0

>  <halogenbond:SER:81>  (51) 
0

>  <hbond:GLY:82>  (51) 
0

>  <saltbridge:HIS:51>  (51) 
0

>  <pistack:TYR:161>  (51) 
1

>  <hbond:SER:81>  (51) 
0

>  <hbond:ASN:152>  (51) 
0

>  <hbond:GLY:151>  (51) 
1

>  <hydroph_interaction:ASN:152>  (51) 
0

>  <hbond:TYR:161>  (51) 
0

>  <halogenbond:TYR:150>  (51) 
0

>  <hbond:ASP:75>  (51) 
0

>  <hbond:GLY:153>  (51) 
0

>  <hbond:VAL:36>  (51) 
0

>  <hbond:PRO:131>  (51) 
0

>  <hbond:VAL:52>  (51) 
0

>  <hydroph_interaction:ASP:83>  (51) 
0

>  <hydroph_interaction:MET:49>  (51) 
0

>  <hydroph_interaction:VAL:52>  (51) 
0

>  <saltbridge:ASP:83>  (51) 
0

>  <saltbridge:ASP:75>  (51) 
0

>  <hydroph_interaction:TRP:50>  (51) 
0

>  <hydroph_interaction:VAL:72>  (51) 
0

>  <hydroph_interaction:ASP:75>  (51) 
0

>  <halogenbond:ASN:152>  (51) 
0

>  <halogenbond:GLY:153>  (51) 
0

>  <halogenbond:TYR:130>  (51) 
0

>  <hbond:TYR:130>  (51) 
0

>  <halogenbond:ASP:75>  (51) 
0

>  <halogenbond:GLY:151>  (51) 
1

>  <hbond:TYR:150>  (51) 
0

>  <halogenbond:TYR:161>  (51) 
0

>  <hydroph_interaction:ASP:129>  (51) 
0

>  <hbond:ASP:129>  (51) 
0

>  <halogenbond:ALA:132>  (51) 
0

$$$$
Z1272242830
     RDKit          3D

 25 26  0  0  0  0  0  0  0  0999 V2000
   -9.8750    4.7550  -18.1860 C   0  0  0  0  0  0  0  0  0  0  0  0
   -8.7810    5.0220  -17.1590 C   0  0  0  0  0  0  0  0  0  0  0  0
   -7.5060    5.2500  -17.5320 N   0  0  0  0  0  0  0  0  0  0  0  0
   -6.6270    5.4680  -16.1320 S   0  0  0  0  0  0  0  0  0  0  0  0
   -7.9900    5.2510  -15.0880 C   0  0  0  0  0  0  0  0  0  0  0  0
   -8.0110    5.2870  -13.7220 N   0  0  0  0  0  0  0  0  0  0  0  0
   -9.0690    5.1990  -12.9450 C   0  0  0  0  0  0  0  0  0  0  0  0
   -8.8510    5.0510  -11.5600 C   0  0  0  0  0  0  0  0  0  0  0  0
   -9.0270    3.7800  -10.8580 C   0  0  0  0  0  0  0  0  0  0  0  0
   -9.3710    2.6120  -11.3170 C   0  0  0  0  0  0  0  0  0  0  0  0
   -8.7570    3.9680   -9.4640 C   0  0  0  0  0  0  0  0  0  0  0  0
   -8.3990    5.2650   -9.1390 C   0  0  0  0  0  0  0  0  0  0  0  0
   -8.3770    6.3080  -10.4980 S   0  0  0  0  0  0  0  0  0  0  0  0
   -9.0820    5.0290  -15.8030 N   0  0  0  0  0  0  0  0  0  0  0  0
   -9.7150    5.3230  -19.1050 H   0  0  0  0  0  0  0  0  0  0  0  0
  -10.8680    5.0060  -17.8040 H   0  0  0  0  0  0  0  0  0  0  0  0
   -9.8710    3.7010  -18.4660 H   0  0  0  0  0  0  0  0  0  0  0  0
   -7.1690    4.9280  -13.2840 H   0  0  0  0  0  0  0  0  0  0  0  0
   -9.6570    6.0710  -13.2280 H   0  0  0  0  0  0  0  0  0  0  0  0
   -9.8010    4.4200  -13.1070 H   0  0  0  0  0  0  0  0  0  0  0  0
  -10.2690    2.2100  -10.8590 H   0  0  0  0  0  0  0  0  0  0  0  0
   -8.7230    1.7610  -11.3680 H   0  0  0  0  0  0  0  0  0  0  0  0
   -9.6640    2.7870  -12.3550 H   0  0  0  0  0  0  0  0  0  0  0  0
   -8.8180    3.1810   -8.7240 H   0  0  0  0  0  0  0  0  0  0  0  0
   -8.1480    5.6450   -8.1590 H   0  0  0  0  0  0  0  0  0  0  0  0
  1  2  1  0
  2  3  2  0
  3  4  1  0
  4  5  1  0
  5  6  1  0
  6  7  1  0
  7  8  1  0
  8  9  2  0
  9 10  1  0
  9 11  1  0
 11 12  2  0
 12 13  1  0
  5 14  2  0
 14  2  1  0
 13  8  1  0
  1 15  1  0
  1 16  1  0
  1 17  1  0
  6 18  1  0
  7 19  1  0
  7 20  1  0
 10 21  1  0
 10 22  1  0
 10 23  1  0
 11 24  1  0
 12 25  1  0
A    1
 C1 
A    2
 C2 
A    3
 N1 
A    4
 S1 
A    5
 C3 
A    6
 N2 
A    7
 C4 
A    8
 C5 
A    9
 C6 
A   10
 C7 
A   11
 C8 
A   12
 C9 
A   13
 S2 
A   14
 N3 
A   15
 H1 
A   16
 H2 
A   17
 H3 
A   18
 H4 
A   19
 H5 
A   20
 H6 
A   21
 H7 
A   22
 H8 
A   23
 H9 
A   24
 H10
A   25
 H11
M  END
>  <ref_pdb>  (52) 
x0051_0B

>  <ref_mols>  (52) 
x0969_1B,x0553_0B

>  <original SMILES>  (52) 
[H]c1sc(C([H])([H])N([H])c2nc(C([H])([H])[H])ns2)c(C([H])([H])[H])c1[H]

>  <index>  (52) 
1469

>  <∆∆G>  (52) 
-6.440883

>  <comRMSD>  (52) 
0.411213

>  <N_constrained_atoms>  (52) 
13.0

>  <N_unconstrained_atoms>  (52) 
1.0

>  <LE>  (52) 
0.460063

>  <percent_hybrid>  (52) 
0.0

>  <max_hit_Tanimoto>  (52) 
0.248074

>  <largest_ring>  (52) 
5

>  <N_interactions_kept>  (52) 
0.0

>  <N_interactions_lost>  (52) 
0.0

>  <interaction_uniqueness_metric>  (52) 
0.270004

>  <N_HA>  (52) 
14

>  <N_rotatable_bonds>  (52) 
5

>  <N_interactions>  (52) 
7

>  <N_PAINS>  (52) 
0

>  <UFF_Gibbs>  (52) 
78.40458

>  <strain_per_HA>  (52) 
5.600287

>  <ad_hoc_penalty>  (52) 
-41.470521

>  <cluster>  (52) 
276

>  <merger_rank>  (52) 
2

>  <pication:ARG:29>  (52) 
0

>  <hbond:HIS:51>  (52) 
0

>  <pistack:HIS:51>  (52) 
1

>  <hydroph_interaction:TYR:161>  (52) 
1

>  <pication:HIS:51>  (52) 
0

>  <hydroph_interaction:ALA:132>  (52) 
0

>  <hydroph_interaction:TYR:150>  (52) 
1

>  <hydroph_interaction:LYS:54>  (52) 
0

>  <hbond:SER:135>  (52) 
0

>  <hydroph_interaction:HIS:51>  (52) 
1

>  <hbond:ASP:83>  (52) 
0

>  <hbond:ALA:132>  (52) 
0

>  <halogenbond:SER:81>  (52) 
0

>  <hbond:GLY:82>  (52) 
0

>  <saltbridge:HIS:51>  (52) 
0

>  <pistack:TYR:161>  (52) 
1

>  <hbond:SER:81>  (52) 
0

>  <hbond:ASN:152>  (52) 
0

>  <hbond:GLY:151>  (52) 
0

>  <hydroph_interaction:ASN:152>  (52) 
1

>  <hbond:TYR:161>  (52) 
1

>  <halogenbond:TYR:150>  (52) 
0

>  <hbond:ASP:75>  (52) 
0

>  <hbond:GLY:153>  (52) 
0

>  <hbond:VAL:36>  (52) 
0

>  <hbond:PRO:131>  (52) 
0

>  <hbond:VAL:52>  (52) 
0

>  <hydroph_interaction:ASP:83>  (52) 
0

>  <hydroph_interaction:MET:49>  (52) 
0

>  <hydroph_interaction:VAL:52>  (52) 
0

>  <saltbridge:ASP:83>  (52) 
0

>  <saltbridge:ASP:75>  (52) 
0

>  <hydroph_interaction:TRP:50>  (52) 
0

>  <hydroph_interaction:VAL:72>  (52) 
0

>  <hydroph_interaction:ASP:75>  (52) 
0

>  <halogenbond:ASN:152>  (52) 
0

>  <halogenbond:GLY:153>  (52) 
0

>  <halogenbond:TYR:130>  (52) 
0

>  <hbond:TYR:130>  (52) 
0

>  <halogenbond:ASP:75>  (52) 
0

>  <halogenbond:GLY:151>  (52) 
0

>  <hbond:TYR:150>  (52) 
0

>  <halogenbond:TYR:161>  (52) 
0

>  <hydroph_interaction:ASP:129>  (52) 
0

>  <hbond:ASP:129>  (52) 
0

>  <halogenbond:ALA:132>  (52) 
0

$$$$
Z1331702608
     RDKit          3D

 27 28  0  0  0  0  0  0  0  0999 V2000
   -8.9300    4.1010   -8.3880 C   0  0  0  0  0  0  0  0  0  0  0  0
   -8.9240    4.7970   -9.7390 C   0  0  0  0  0  0  0  0  0  0  0  0
   -9.0040    3.9130  -10.9390 C   0  0  0  0  0  0  0  0  0  0  0  0
   -9.0080    4.4690  -12.2050 C   0  0  0  0  0  0  0  0  0  0  0  0
   -8.9260    5.9510  -12.3030 C   0  0  0  0  0  0  0  0  0  0  0  0
   -8.9260    6.5710  -13.6130 C   0  0  0  0  0  0  0  0  0  0  0  0
   -8.3730    7.8120  -13.8220 O   0  0  0  0  0  0  0  0  0  0  0  0
   -9.5280    5.7700  -14.5700 N   0  0  0  0  0  0  0  0  0  0  0  0
   -8.9550    5.5670  -15.8030 C   0  0  0  0  0  0  0  0  0  0  0  0
   -9.5640    4.9860  -17.0090 C   0  0  0  0  0  0  0  0  0  0  0  0
   -8.6300    4.9730  -18.0500 C   0  0  0  0  0  0  0  0  0  0  0  0
   -9.1010    4.4610  -19.2320 C   0  0  0  0  0  0  0  0  0  0  0  0
   -7.3840    5.4660  -17.7840 N   0  0  0  0  0  0  0  0  0  0  0  0
   -7.3350    5.9750  -16.2010 S   0  0  0  0  0  0  0  0  0  0  0  0
   -8.8520    6.7350  -11.1460 C   0  0  0  0  0  0  0  0  0  0  0  0
   -8.8490    6.1890   -9.8820 N   0  0  0  0  0  0  0  0  0  0  0  0
   -9.1630    3.0340   -8.4880 H   0  0  0  0  0  0  0  0  0  0  0  0
   -9.6710    4.5490   -7.7240 H   0  0  0  0  0  0  0  0  0  0  0  0
   -7.9530    4.1850   -7.9010 H   0  0  0  0  0  0  0  0  0  0  0  0
   -9.0600    2.8410  -10.7190 H   0  0  0  0  0  0  0  0  0  0  0  0
   -9.0640    3.9150  -13.1470 H   0  0  0  0  0  0  0  0  0  0  0  0
  -10.2170    5.1210  -14.2020 H   0  0  0  0  0  0  0  0  0  0  0  0
  -10.5820    4.6240  -17.0900 H   0  0  0  0  0  0  0  0  0  0  0  0
   -9.5120    3.4670  -19.1260 H   0  0  0  0  0  0  0  0  0  0  0  0
   -8.3260    4.3080  -19.9780 H   0  0  0  0  0  0  0  0  0  0  0  0
   -9.8630    4.9590  -19.8160 H   0  0  0  0  0  0  0  0  0  0  0  0
   -8.7920    7.8190  -11.1760 H   0  0  0  0  0  0  0  0  0  0  0  0
  1  2  1  0
  2  3  2  0
  3  4  1  0
  4  5  2  0
  5  6  1  0
  6  7  2  0
  6  8  1  0
  8  9  1  0
  9 10  2  0
 10 11  1  0
 11 12  1  0
 11 13  2  0
 13 14  1  0
  5 15  1  0
 15 16  2  0
 16  2  1  0
 14  9  1  0
  1 17  1  0
  1 18  1  0
  1 19  1  0
  3 20  1  0
  4 21  1  0
  8 22  1  0
 10 23  1  0
 12 24  1  0
 12 25  1  0
 12 26  1  0
 15 27  1  0
A    1
 C1 
A    2
 C2 
A    3
 C3 
A    4
 C4 
A    5
 C5 
A    6
 C6 
A    7
 O1 
A    8
 N1 
A    9
 C7 
A   10
 C8 
A   11
 C9 
A   12
 C10
A   13
 N2 
A   14
 S1 
A   15
 C11
A   16
 N3 
A   17
 H1 
A   18
 H2 
A   19
 H3 
A   20
 H4 
A   21
 H5 
A   22
 H6 
A   23
 H7 
A   24
 H8 
A   25
 H9 
A   26
 H10
A   27
 H11
M  END
>  <ref_pdb>  (53) 
x0051_0B

>  <ref_mols>  (53) 
x0404_0B,x0969_0B

>  <original SMILES>  (53) 
[H]c1nc(C([H])([H])[H])c([H])c([H])c1C(=O)N([H])c1snc(C([H])([H])[H])c1[H]

>  <index>  (53) 
5727

>  <∆∆G>  (53) 
-7.137971

>  <comRMSD>  (53) 
0.152394

>  <N_constrained_atoms>  (53) 
15.0

>  <N_unconstrained_atoms>  (53) 
1.0

>  <LE>  (53) 
0.446123

>  <percent_hybrid>  (53) 
0.0

>  <max_hit_Tanimoto>  (53) 
0.486056

>  <largest_ring>  (53) 
6

>  <N_interactions_kept>  (53) 
0.0

>  <N_interactions_lost>  (53) 
0.0

>  <interaction_uniqueness_metric>  (53) 
0.160957

>  <N_HA>  (53) 
16

>  <N_rotatable_bonds>  (53) 
4

>  <N_interactions>  (53) 
6

>  <N_PAINS>  (53) 
0

>  <UFF_Gibbs>  (53) 
66.793476

>  <strain_per_HA>  (53) 
4.174566

>  <ad_hoc_penalty>  (53) 
-41.44454

>  <cluster>  (53) 
921

>  <merger_rank>  (53) 
1

>  <pication:ARG:29>  (53) 
0

>  <hbond:HIS:51>  (53) 
1

>  <pistack:HIS:51>  (53) 
1

>  <hydroph_interaction:TYR:161>  (53) 
2

>  <pication:HIS:51>  (53) 
0

>  <hydroph_interaction:ALA:132>  (53) 
0

>  <hydroph_interaction:TYR:150>  (53) 
1

>  <hydroph_interaction:LYS:54>  (53) 
0

>  <hbond:SER:135>  (53) 
0

>  <hydroph_interaction:HIS:51>  (53) 
1

>  <hbond:ASP:83>  (53) 
0

>  <hbond:ALA:132>  (53) 
0

>  <halogenbond:SER:81>  (53) 
0

>  <hbond:GLY:82>  (53) 
0

>  <saltbridge:HIS:51>  (53) 
0

>  <pistack:TYR:161>  (53) 
0

>  <hbond:SER:81>  (53) 
0

>  <hbond:ASN:152>  (53) 
0

>  <hbond:GLY:151>  (53) 
0

>  <hydroph_interaction:ASN:152>  (53) 
0

>  <hbond:TYR:161>  (53) 
0

>  <halogenbond:TYR:150>  (53) 
0

>  <hbond:ASP:75>  (53) 
0

>  <hbond:GLY:153>  (53) 
0

>  <hbond:VAL:36>  (53) 
0

>  <hbond:PRO:131>  (53) 
0

>  <hbond:VAL:52>  (53) 
0

>  <hydroph_interaction:ASP:83>  (53) 
0

>  <hydroph_interaction:MET:49>  (53) 
0

>  <hydroph_interaction:VAL:52>  (53) 
0

>  <saltbridge:ASP:83>  (53) 
0

>  <saltbridge:ASP:75>  (53) 
0

>  <hydroph_interaction:TRP:50>  (53) 
0

>  <hydroph_interaction:VAL:72>  (53) 
0

>  <hydroph_interaction:ASP:75>  (53) 
0

>  <halogenbond:ASN:152>  (53) 
0

>  <halogenbond:GLY:153>  (53) 
0

>  <halogenbond:TYR:130>  (53) 
0

>  <hbond:TYR:130>  (53) 
0

>  <halogenbond:ASP:75>  (53) 
0

>  <halogenbond:GLY:151>  (53) 
0

>  <hbond:TYR:150>  (53) 
0

>  <halogenbond:TYR:161>  (53) 
0

>  <hydroph_interaction:ASP:129>  (53) 
0

>  <hbond:ASP:129>  (53) 
0

>  <halogenbond:ALA:132>  (53) 
0

$$$$
PV-003400833353
     RDKit          3D

 28 30  0  0  0  0  0  0  0  0999 V2000
   -5.6790    6.4090  -22.4270 C   0  0  0  0  0  0  0  0  0  0  0  0
   -5.9130    7.6670  -21.6330 C   0  0  0  0  0  0  0  0  0  0  0  0
   -6.4660    7.5000  -20.2190 C   0  0  0  0  0  0  0  0  0  0  0  0
   -6.7150    6.0740  -19.7960 C   0  0  0  0  0  0  0  0  0  0  0  0
   -7.2130    5.8400  -18.4800 C   0  0  0  0  0  0  0  0  0  0  0  0
   -8.3170    5.0620  -18.1250 C   0  0  0  0  0  0  0  0  0  0  0  0
   -8.5990    4.9810  -16.7700 N   0  0  0  0  0  0  0  0  0  0  0  0
   -7.8550    5.6140  -15.8290 C   0  0  0  0  0  0  0  0  0  0  0  0
   -8.2500    5.4390  -14.3850 C   0  0  0  0  0  0  0  0  0  0  0  0
   -8.7620    6.6060  -13.6680 C   0  0  0  0  0  0  0  0  0  0  0  0
   -9.1090    6.4890  -12.3420 N   0  0  0  0  0  0  0  0  0  0  0  0
   -8.9360    5.2440  -11.8220 C   0  0  0  0  0  0  0  0  0  0  0  0
   -8.4580    4.1810  -12.5310 C   0  0  0  0  0  0  0  0  0  0  0  0
   -8.1080    4.2770  -13.8140 N   0  0  0  0  0  0  0  0  0  0  0  0
   -6.8100    6.3610  -16.1350 N   0  0  0  0  0  0  0  0  0  0  0  0
   -6.5310    6.4440  -17.4420 C   0  0  0  0  0  0  0  0  0  0  0  0
   -6.4540    4.9940  -20.6420 C   0  0  0  0  0  0  0  0  0  0  0  0
   -5.9520    5.1540  -21.9080 C   0  0  0  0  0  0  0  0  0  0  0  0
   -5.2810    6.5690  -23.4340 H   0  0  0  0  0  0  0  0  0  0  0  0
   -5.7250    8.6920  -21.9680 H   0  0  0  0  0  0  0  0  0  0  0  0
   -6.6710    8.3240  -19.5500 H   0  0  0  0  0  0  0  0  0  0  0  0
   -8.9720    4.5170  -18.7950 H   0  0  0  0  0  0  0  0  0  0  0  0
   -8.8880    7.5840  -14.1230 H   0  0  0  0  0  0  0  0  0  0  0  0
   -9.2120    5.1340  -10.7600 H   0  0  0  0  0  0  0  0  0  0  0  0
   -8.3370    3.2020  -12.0730 H   0  0  0  0  0  0  0  0  0  0  0  0
   -5.6690    7.0590  -17.6480 H   0  0  0  0  0  0  0  0  0  0  0  0
   -6.6710    4.0320  -20.2280 H   0  0  0  0  0  0  0  0  0  0  0  0
   -5.7600    4.2930  -22.5240 H   0  0  0  0  0  0  0  0  0  0  0  0
  1  2  2  0
  2  3  1  0
  3  4  2  0
  4  5  1  0
  5  6  2  0
  6  7  1  0
  7  8  2  0
  8  9  1  0
  9 10  2  0
 10 11  1  0
 11 12  2  0
 12 13  1  0
 13 14  2  0
  8 15  1  0
 15 16  2  0
  4 17  1  0
 17 18  2  0
 18  1  1  0
 16  5  1  0
 14  9  1  0
  1 19  1  0
  2 20  1  0
  3 21  1  0
  6 22  1  0
 10 23  1  0
 12 24  1  0
 13 25  1  0
 16 26  1  0
 17 27  1  0
 18 28  1  0
A    1
 C1 
A    2
 C2 
A    3
 C3 
A    4
 C4 
A    5
 C5 
A    6
 C6 
A    7
 N1 
A    8
 C7 
A    9
 C8 
A   10
 C9 
A   11
 N2 
A   12
 C10
A   13
 C11
A   14
 N3 
A   15
 N4 
A   16
 C12
A   17
 C13
A   18
 C14
A   19
 H1 
A   20
 H2 
A   21
 H3 
A   22
 H4 
A   23
 H5 
A   24
 H6 
A   25
 H7 
A   26
 H8 
A   27
 H9 
A   28
 H10
M  END
>  <ref_pdb>  (54) 
x0051_0B

>  <ref_mols>  (54) 
x0404_0B,x0969_0B

>  <original SMILES>  (54) 
[H]c1nc([H])c(-c2nc([H])c(-c3c([H])c([H])c([H])c([H])c3[H])c([H])n2)nc1[H]

>  <index>  (54) 
4367

>  <∆∆G>  (54) 
-4.868562

>  <comRMSD>  (54) 
0.426111

>  <N_constrained_atoms>  (54) 
13.0

>  <N_unconstrained_atoms>  (54) 
6.0

>  <LE>  (54) 
0.25624

>  <percent_hybrid>  (54) 
0.0

>  <max_hit_Tanimoto>  (54) 
0.252482

>  <largest_ring>  (54) 
6

>  <N_interactions_kept>  (54) 
0.0

>  <N_interactions_lost>  (54) 
0.0

>  <interaction_uniqueness_metric>  (54) 
0.559563

>  <N_HA>  (54) 
18

>  <N_rotatable_bonds>  (54) 
2

>  <N_interactions>  (54) 
5

>  <N_PAINS>  (54) 
0

>  <UFF_Gibbs>  (54) 
58.024182

>  <strain_per_HA>  (54) 
3.223548

>  <ad_hoc_penalty>  (54) 
-41.425875

>  <cluster>  (54) 
1813

>  <merger_rank>  (54) 
4

>  <pication:ARG:29>  (54) 
0

>  <hbond:HIS:51>  (54) 
0

>  <pistack:HIS:51>  (54) 
1

>  <hydroph_interaction:TYR:161>  (54) 
2

>  <pication:HIS:51>  (54) 
0

>  <hydroph_interaction:ALA:132>  (54) 
1

>  <hydroph_interaction:TYR:150>  (54) 
0

>  <hydroph_interaction:LYS:54>  (54) 
0

>  <hbond:SER:135>  (54) 
0

>  <hydroph_interaction:HIS:51>  (54) 
0

>  <hbond:ASP:83>  (54) 
0

>  <hbond:ALA:132>  (54) 
0

>  <halogenbond:SER:81>  (54) 
0

>  <hbond:GLY:82>  (54) 
0

>  <saltbridge:HIS:51>  (54) 
0

>  <pistack:TYR:161>  (54) 
0

>  <hbond:SER:81>  (54) 
0

>  <hbond:ASN:152>  (54) 
0

>  <hbond:GLY:151>  (54) 
0

>  <hydroph_interaction:ASN:152>  (54) 
0

>  <hbond:TYR:161>  (54) 
0

>  <halogenbond:TYR:150>  (54) 
0

>  <hbond:ASP:75>  (54) 
0

>  <hbond:GLY:153>  (54) 
0

>  <hbond:VAL:36>  (54) 
0

>  <hbond:PRO:131>  (54) 
0

>  <hbond:VAL:52>  (54) 
0

>  <hydroph_interaction:ASP:83>  (54) 
0

>  <hydroph_interaction:MET:49>  (54) 
0

>  <hydroph_interaction:VAL:52>  (54) 
0

>  <saltbridge:ASP:83>  (54) 
0

>  <saltbridge:ASP:75>  (54) 
0

>  <hydroph_interaction:TRP:50>  (54) 
0

>  <hydroph_interaction:VAL:72>  (54) 
0

>  <hydroph_interaction:ASP:75>  (54) 
0

>  <halogenbond:ASN:152>  (54) 
0

>  <halogenbond:GLY:153>  (54) 
0

>  <halogenbond:TYR:130>  (54) 
0

>  <hbond:TYR:130>  (54) 
0

>  <halogenbond:ASP:75>  (54) 
0

>  <halogenbond:GLY:151>  (54) 
0

>  <hbond:TYR:150>  (54) 
0

>  <halogenbond:TYR:161>  (54) 
0

>  <hydroph_interaction:ASP:129>  (54) 
1

>  <hbond:ASP:129>  (54) 
0

>  <halogenbond:ALA:132>  (54) 
0

$$$$
Z729056100
     RDKit          3D

 30 32  0  0  0  0  0  0  0  0999 V2000
   -9.6170    2.3250   -8.5580 C   0  0  0  0  0  0  0  0  0  0  0  0
   -9.1230    3.6630   -8.3680 N   0  0  0  0  0  0  0  0  0  0  0  0
   -9.0040    4.5260   -9.4030 C   0  0  0  0  0  0  0  0  0  0  0  0
   -8.9050    5.9830   -9.2900 C   0  0  0  0  0  0  0  0  0  0  0  0
   -8.7990    6.8290  -10.3190 C   0  0  0  0  0  0  0  0  0  0  0  0
   -8.7790    6.2110  -11.6420 C   0  0  0  0  0  0  0  0  0  0  0  0
   -8.6590    7.2530  -12.6820 N   0  0  0  0  0  0  0  0  0  0  0  0
   -8.4300    6.7070  -14.0120 C   0  0  0  0  0  0  0  0  0  0  0  0
   -7.3190    6.6800  -14.7920 N   0  0  0  0  0  0  0  0  0  0  0  0
   -7.5830    6.1000  -15.9520 C   0  0  0  0  0  0  0  0  0  0  0  0
   -6.6450    5.9470  -16.9450 C   0  0  0  0  0  0  0  0  0  0  0  0
   -6.8750    5.3280  -18.2640 C   0  0  0  0  0  0  0  0  0  0  0  0
   -8.1650    4.8610  -18.4940 C   0  0  0  0  0  0  0  0  0  0  0  0
   -9.1940    4.9680  -17.5160 C   0  0  0  0  0  0  0  0  0  0  0  0
   -8.8600    5.6330  -16.1770 C   0  0  0  0  0  0  0  0  0  0  0  0
   -9.7860    5.9690  -14.7750 S   0  0  0  0  0  0  0  0  0  0  0  0
   -8.8690    4.8100  -11.7550 C   0  0  0  0  0  0  0  0  0  0  0  0
   -8.9800    3.9510  -10.6700 N   0  0  0  0  0  0  0  0  0  0  0  0
  -10.0920    1.9240   -7.6520 H   0  0  0  0  0  0  0  0  0  0  0  0
   -8.8140    1.6430   -8.8550 H   0  0  0  0  0  0  0  0  0  0  0  0
  -10.3640    2.3380   -9.3580 H   0  0  0  0  0  0  0  0  0  0  0  0
   -8.3570    3.7310   -7.6960 H   0  0  0  0  0  0  0  0  0  0  0  0
   -8.9250    6.4070   -8.2780 H   0  0  0  0  0  0  0  0  0  0  0  0
   -8.7320    7.8990  -10.1980 H   0  0  0  0  0  0  0  0  0  0  0  0
   -8.0910    8.0600  -12.4150 H   0  0  0  0  0  0  0  0  0  0  0  0
   -5.6500    6.3220  -16.7340 H   0  0  0  0  0  0  0  0  0  0  0  0
   -6.0110    5.2940  -18.9340 H   0  0  0  0  0  0  0  0  0  0  0  0
   -8.4680    4.3850  -19.4280 H   0  0  0  0  0  0  0  0  0  0  0  0
  -10.2390    4.6300  -17.5970 H   0  0  0  0  0  0  0  0  0  0  0  0
   -8.8580    4.3020  -12.7110 H   0  0  0  0  0  0  0  0  0  0  0  0
  1  2  1  0
  2  3  1  0
  3  4  2  0
  4  5  1  0
  5  6  2  0
  6  7  1  0
  7  8  1  0
  8  9  2  0
  9 10  1  0
 10 11  2  0
 11 12  1  0
 12 13  2  0
 13 14  1  0
 14 15  2  0
 15 16  1  0
  6 17  1  0
 17 18  2  0
 18  3  1  0
 16  8  1  0
 15 10  1  0
  1 19  1  0
  1 20  1  0
  1 21  1  0
  2 22  1  0
  4 23  1  0
  5 24  1  0
  7 25  1  0
 11 26  1  0
 12 27  1  0
 13 28  1  0
 14 29  1  0
 17 30  1  0
A    1
 C1 
A    2
 N1 
A    3
 C2 
A    4
 C3 
A    5
 C4 
A    6
 C5 
A    7
 N2 
A    8
 C6 
A    9
 N3 
A   10
 C7 
A   11
 C8 
A   12
 C9 
A   13
 C10
A   14
 C11
A   15
 C12
A   16
 S1 
A   17
 C13
A   18
 N4 
A   19
 H1 
A   20
 H2 
A   21
 H3 
A   22
 H4 
A   23
 H5 
A   24
 H6 
A   25
 H7 
A   26
 H8 
A   27
 H9 
A   28
 H10
A   29
 H11
A   30
 H12
M  END
>  <ref_pdb>  (55) 
x0051_0B

>  <ref_mols>  (55) 
x0404_0B,x0969_0B

>  <original SMILES>  (55) 
[H]c1nc(N([H])C([H])([H])[H])c([H])c([H])c1N([H])c1nc2c([H])c([H])c([H])c([H])c2s1

>  <index>  (55) 
5148

>  <∆∆G>  (55) 
-7.0241

>  <comRMSD>  (55) 
0.275074

>  <N_constrained_atoms>  (55) 
17.0

>  <N_unconstrained_atoms>  (55) 
1.0

>  <LE>  (55) 
0.390228

>  <percent_hybrid>  (55) 
0.0

>  <max_hit_Tanimoto>  (55) 
0.254059

>  <largest_ring>  (55) 
6

>  <N_interactions_kept>  (55) 
0.0

>  <N_interactions_lost>  (55) 
0.0

>  <interaction_uniqueness_metric>  (55) 
0.168412

>  <N_HA>  (55) 
18

>  <N_rotatable_bonds>  (55) 
4

>  <N_interactions>  (55) 
6

>  <N_PAINS>  (55) 
0

>  <UFF_Gibbs>  (55) 
75.481232

>  <strain_per_HA>  (55) 
4.193379

>  <ad_hoc_penalty>  (55) 
-41.401224

>  <cluster>  (55) 
1288

>  <merger_rank>  (55) 
1

>  <pication:ARG:29>  (55) 
0

>  <hbond:HIS:51>  (55) 
0

>  <pistack:HIS:51>  (55) 
1

>  <hydroph_interaction:TYR:161>  (55) 
2

>  <pication:HIS:51>  (55) 
0

>  <hydroph_interaction:ALA:132>  (55) 
1

>  <hydroph_interaction:TYR:150>  (55) 
0

>  <hydroph_interaction:LYS:54>  (55) 
0

>  <hbond:SER:135>  (55) 
0

>  <hydroph_interaction:HIS:51>  (55) 
1

>  <hbond:ASP:83>  (55) 
1

>  <hbond:ALA:132>  (55) 
0

>  <halogenbond:SER:81>  (55) 
0

>  <hbond:GLY:82>  (55) 
0

>  <saltbridge:HIS:51>  (55) 
0

>  <pistack:TYR:161>  (55) 
0

>  <hbond:SER:81>  (55) 
0

>  <hbond:ASN:152>  (55) 
0

>  <hbond:GLY:151>  (55) 
0

>  <hydroph_interaction:ASN:152>  (55) 
0

>  <hbond:TYR:161>  (55) 
0

>  <halogenbond:TYR:150>  (55) 
0

>  <hbond:ASP:75>  (55) 
0

>  <hbond:GLY:153>  (55) 
0

>  <hbond:VAL:36>  (55) 
0

>  <hbond:PRO:131>  (55) 
0

>  <hbond:VAL:52>  (55) 
0

>  <hydroph_interaction:ASP:83>  (55) 
0

>  <hydroph_interaction:MET:49>  (55) 
0

>  <hydroph_interaction:VAL:52>  (55) 
0

>  <saltbridge:ASP:83>  (55) 
0

>  <saltbridge:ASP:75>  (55) 
0

>  <hydroph_interaction:TRP:50>  (55) 
0

>  <hydroph_interaction:VAL:72>  (55) 
0

>  <hydroph_interaction:ASP:75>  (55) 
0

>  <halogenbond:ASN:152>  (55) 
0

>  <halogenbond:GLY:153>  (55) 
0

>  <halogenbond:TYR:130>  (55) 
0

>  <hbond:TYR:130>  (55) 
0

>  <halogenbond:ASP:75>  (55) 
0

>  <halogenbond:GLY:151>  (55) 
0

>  <hbond:TYR:150>  (55) 
0

>  <halogenbond:TYR:161>  (55) 
0

>  <hydroph_interaction:ASP:129>  (55) 
0

>  <hbond:ASP:129>  (55) 
0

>  <halogenbond:ALA:132>  (55) 
0

$$$$
PV-003041597259
     RDKit          3D

 27 29  0  0  0  0  0  0  0  0999 V2000
   -9.2550    3.0560   -8.5350 C   0  0  0  0  0  0  0  0  0  0  0  0
   -9.1260    4.1540   -9.5780 C   0  0  0  0  0  0  0  0  0  0  0  0
   -9.0890    3.7730  -11.0140 C   0  0  0  0  0  0  0  0  0  0  0  0
   -8.9970    4.7670  -11.9260 C   0  0  0  0  0  0  0  0  0  0  0  0
   -8.9300    6.2410  -11.5840 C   0  0  0  0  0  0  0  0  0  0  0  0
   -8.8380    7.6200  -12.5670 S   0  0  0  0  0  0  0  0  0  0  0  0
   -8.4750    6.8430  -14.0640 C   0  0  0  0  0  0  0  0  0  0  0  0
   -7.2470    6.8230  -14.6400 N   0  0  0  0  0  0  0  0  0  0  0  0
   -7.3780    6.1590  -15.8220 C   0  0  0  0  0  0  0  0  0  0  0  0
   -6.3770    5.8900  -16.8060 C   0  0  0  0  0  0  0  0  0  0  0  0
   -6.7630    5.1590  -18.0350 C   0  0  0  0  0  0  0  0  0  0  0  0
   -8.1110    4.7640  -18.1500 C   0  0  0  0  0  0  0  0  0  0  0  0
   -8.5520    3.9340  -19.5700 Cl  0  0  0  0  0  0  0  0  0  0  0  0
   -9.1960    5.0160  -17.1290 C   0  0  0  0  0  0  0  0  0  0  0  0
   -8.7000    5.7540  -15.9650 C   0  0  0  0  0  0  0  0  0  0  0  0
   -9.3680    6.1920  -14.8410 N   0  0  0  0  0  0  0  0  0  0  0  0
   -8.9570    6.4670  -10.2840 N   0  0  0  0  0  0  0  0  0  0  0  0
   -9.0450    5.5180   -9.3350 N   0  0  0  0  0  0  0  0  0  0  0  0
   -8.8780    2.0980   -8.9090 H   0  0  0  0  0  0  0  0  0  0  0  0
  -10.3060    2.9100   -8.2650 H   0  0  0  0  0  0  0  0  0  0  0  0
   -8.7010    3.3060   -7.6200 H   0  0  0  0  0  0  0  0  0  0  0  0
   -9.1280    2.8150  -11.5130 H   0  0  0  0  0  0  0  0  0  0  0  0
   -8.9780    4.4630  -12.9810 H   0  0  0  0  0  0  0  0  0  0  0  0
   -5.3630    6.2270  -16.6410 H   0  0  0  0  0  0  0  0  0  0  0  0
   -6.0950    4.9050  -18.8520 H   0  0  0  0  0  0  0  0  0  0  0  0
  -10.2030    4.6650  -17.3170 H   0  0  0  0  0  0  0  0  0  0  0  0
  -10.3460    6.0690  -14.6260 H   0  0  0  0  0  0  0  0  0  0  0  0
  1  2  1  0
  2  3  2  0
  3  4  1  0
  4  5  2  0
  5  6  1  0
  6  7  1  0
  7  8  2  0
  8  9  1  0
  9 10  2  0
 10 11  1  0
 11 12  2  0
 12 13  1  0
 12 14  1  0
 14 15  2  0
 15 16  1  0
  5 17  1  0
 17 18  2  0
 18  2  1  0
 16  7  1  0
 15  9  1  0
  1 19  1  0
  1 20  1  0
  1 21  1  0
  3 22  1  0
  4 23  1  0
 10 24  1  0
 11 25  1  0
 14 26  1  0
 16 27  1  0
A    1
 C1 
A    2
 C2 
A    3
 C3 
A    4
 C4 
A    5
 C5 
A    6
 S1 
A    7
 C6 
A    8
 N1 
A    9
 C7 
A   10
 C8 
A   11
 C9 
A   12
 C10
A   13
CL1 
A   14
 C11
A   15
 C12
A   16
 N2 
A   17
 N3 
A   18
 N4 
A   19
 H1 
A   20
 H2 
A   21
 H3 
A   22
 H4 
A   23
 H5 
A   24
 H6 
A   25
 H7 
A   26
 H8 
A   27
 H9 
M  END
>  <ref_pdb>  (56) 
x0051_0B

>  <ref_mols>  (56) 
x0404_0B,x0969_0B

>  <original SMILES>  (56) 
[H]c1c(Sc2nc3c([H])c([H])c(Cl)c([H])c3n2[H])nnc(C([H])([H])[H])c1[H]

>  <index>  (56) 
5156

>  <∆∆G>  (56) 
-7.113622

>  <comRMSD>  (56) 
0.330493

>  <N_constrained_atoms>  (56) 
17.0

>  <N_unconstrained_atoms>  (56) 
1.0

>  <LE>  (56) 
0.395201

>  <percent_hybrid>  (56) 
0.0

>  <max_hit_Tanimoto>  (56) 
0.233912

>  <largest_ring>  (56) 
6

>  <N_interactions_kept>  (56) 
0.0

>  <N_interactions_lost>  (56) 
0.0

>  <interaction_uniqueness_metric>  (56) 
0.233379

>  <N_HA>  (56) 
18

>  <N_rotatable_bonds>  (56) 
3

>  <N_interactions>  (56) 
5

>  <N_PAINS>  (56) 
0

>  <UFF_Gibbs>  (56) 
68.760818

>  <strain_per_HA>  (56) 
3.820024

>  <ad_hoc_penalty>  (56) 
-41.32234

>  <cluster>  (56) 
1284

>  <merger_rank>  (56) 
2

>  <pication:ARG:29>  (56) 
0

>  <hbond:HIS:51>  (56) 
0

>  <pistack:HIS:51>  (56) 
1

>  <hydroph_interaction:TYR:161>  (56) 
0

>  <pication:HIS:51>  (56) 
0

>  <hydroph_interaction:ALA:132>  (56) 
0

>  <hydroph_interaction:TYR:150>  (56) 
0

>  <hydroph_interaction:LYS:54>  (56) 
0

>  <hbond:SER:135>  (56) 
0

>  <hydroph_interaction:HIS:51>  (56) 
1

>  <hbond:ASP:83>  (56) 
0

>  <hbond:ALA:132>  (56) 
1

>  <halogenbond:SER:81>  (56) 
0

>  <hbond:GLY:82>  (56) 
0

>  <saltbridge:HIS:51>  (56) 
0

>  <pistack:TYR:161>  (56) 
1

>  <hbond:SER:81>  (56) 
0

>  <hbond:ASN:152>  (56) 
0

>  <hbond:GLY:151>  (56) 
0

>  <hydroph_interaction:ASN:152>  (56) 
0

>  <hbond:TYR:161>  (56) 
0

>  <halogenbond:TYR:150>  (56) 
1

>  <hbond:ASP:75>  (56) 
0

>  <hbond:GLY:153>  (56) 
0

>  <hbond:VAL:36>  (56) 
0

>  <hbond:PRO:131>  (56) 
0

>  <hbond:VAL:52>  (56) 
0

>  <hydroph_interaction:ASP:83>  (56) 
0

>  <hydroph_interaction:MET:49>  (56) 
0

>  <hydroph_interaction:VAL:52>  (56) 
0

>  <saltbridge:ASP:83>  (56) 
0

>  <saltbridge:ASP:75>  (56) 
0

>  <hydroph_interaction:TRP:50>  (56) 
0

>  <hydroph_interaction:VAL:72>  (56) 
0

>  <hydroph_interaction:ASP:75>  (56) 
0

>  <halogenbond:ASN:152>  (56) 
0

>  <halogenbond:GLY:153>  (56) 
0

>  <halogenbond:TYR:130>  (56) 
0

>  <hbond:TYR:130>  (56) 
0

>  <halogenbond:ASP:75>  (56) 
0

>  <halogenbond:GLY:151>  (56) 
0

>  <hbond:TYR:150>  (56) 
0

>  <halogenbond:TYR:161>  (56) 
0

>  <hydroph_interaction:ASP:129>  (56) 
0

>  <hbond:ASP:129>  (56) 
0

>  <halogenbond:ALA:132>  (56) 
0

$$$$
PV-004503958341
     RDKit          3D

 22 24  0  0  0  0  0  0  0  0999 V2000
   -9.5400    2.7640   -7.9350 Br  0  0  0  0  0  0  0  0  0  0  0  0
   -9.2420    3.6260   -9.6050 C   0  0  0  0  0  0  0  0  0  0  0  0
   -9.3490    2.8060  -10.8700 C   0  0  0  0  0  0  0  0  0  0  0  0
   -9.1490    3.4610  -12.1840 C   0  0  0  0  0  0  0  0  0  0  0  0
   -8.8760    4.8130  -12.0920 C   0  0  0  0  0  0  0  0  0  0  0  0
   -8.6640    5.6860  -13.0900 C   0  0  0  0  0  0  0  0  0  0  0  0
   -8.6970    5.3620  -14.5350 C   0  0  0  0  0  0  0  0  0  0  0  0
   -7.5850    5.1240  -15.3660 C   0  0  0  0  0  0  0  0  0  0  0  0
   -8.1520    4.9080  -16.5720 C   0  0  0  0  0  0  0  0  0  0  0  0
   -9.5970    4.9850  -16.5820 C   0  0  0  0  0  0  0  0  0  0  0  0
   -9.8980    5.2730  -15.2830 O   0  0  0  0  0  0  0  0  0  0  0  0
   -8.4080    6.9590  -12.6630 N   0  0  0  0  0  0  0  0  0  0  0  0
   -8.4840    6.8130  -11.3270 N   0  0  0  0  0  0  0  0  0  0  0  0
   -8.7730    5.5300  -10.9110 C   0  0  0  0  0  0  0  0  0  0  0  0
   -8.9440    4.9870   -9.6290 C   0  0  0  0  0  0  0  0  0  0  0  0
   -9.5670    1.7670  -10.9200 H   0  0  0  0  0  0  0  0  0  0  0  0
   -9.2190    2.9200  -13.0930 H   0  0  0  0  0  0  0  0  0  0  0  0
   -6.5390    5.1230  -15.0890 H   0  0  0  0  0  0  0  0  0  0  0  0
   -7.6730    4.6850  -17.5310 H   0  0  0  0  0  0  0  0  0  0  0  0
  -10.3930    4.8790  -17.3020 H   0  0  0  0  0  0  0  0  0  0  0  0
   -8.3310    7.6340  -10.7540 H   0  0  0  0  0  0  0  0  0  0  0  0
   -8.8720    5.5220   -8.6930 H   0  0  0  0  0  0  0  0  0  0  0  0
  1  2  1  0
  2  3  2  0
  3  4  1  0
  4  5  2  0
  5  6  1  0
  6  7  1  0
  7  8  2  0
  8  9  1  0
  9 10  2  0
 10 11  1  0
  6 12  2  0
 12 13  1  0
 13 14  1  0
 14 15  2  0
 15  2  1  0
 14  5  1  0
 11  7  1  0
  3 16  1  0
  4 17  1  0
  8 18  1  0
  9 19  1  0
 10 20  1  0
 13 21  1  0
 15 22  1  0
A    1
BR1 
A    2
 C1 
A    3
 C2 
A    4
 C3 
A    5
 C4 
A    6
 C5 
A    7
 C6 
A    8
 C7 
A    9
 C8 
A   10
 C9 
A   11
 O1 
A   12
 N1 
A   13
 N2 
A   14
 C10
A   15
 C11
A   16
 H1 
A   17
 H2 
A   18
 H3 
A   19
 H4 
A   20
 H5 
A   21
 H6 
A   22
 H7 
M  END
>  <ref_pdb>  (57) 
x0051_0B

>  <ref_mols>  (57) 
x0969_1B,x0553_0B

>  <original SMILES>  (57) 
[H]c1oc(-c2nn([H])c3c([H])c(Br)c([H])c([H])c23)c([H])c1[H]

>  <index>  (57) 
1331

>  <∆∆G>  (57) 
-3.263916

>  <comRMSD>  (57) 
0.394419

>  <N_constrained_atoms>  (57) 
14.0

>  <N_unconstrained_atoms>  (57) 
1.0

>  <LE>  (57) 
0.217594

>  <percent_hybrid>  (57) 
0.0

>  <max_hit_Tanimoto>  (57) 
0.433433

>  <largest_ring>  (57) 
6

>  <N_interactions_kept>  (57) 
0.0

>  <N_interactions_lost>  (57) 
0.0

>  <interaction_uniqueness_metric>  (57) 
0.258353

>  <N_HA>  (57) 
15

>  <N_rotatable_bonds>  (57) 
1

>  <N_interactions>  (57) 
6

>  <N_PAINS>  (57) 
0

>  <UFF_Gibbs>  (57) 
50.921733

>  <strain_per_HA>  (57) 
3.39476

>  <ad_hoc_penalty>  (57) 
-41.297483

>  <cluster>  (57) 
3872

>  <merger_rank>  (57) 
3

>  <pication:ARG:29>  (57) 
0

>  <hbond:HIS:51>  (57) 
0

>  <pistack:HIS:51>  (57) 
2

>  <hydroph_interaction:TYR:161>  (57) 
1

>  <pication:HIS:51>  (57) 
0

>  <hydroph_interaction:ALA:132>  (57) 
0

>  <hydroph_interaction:TYR:150>  (57) 
0

>  <hydroph_interaction:LYS:54>  (57) 
0

>  <hbond:SER:135>  (57) 
0

>  <hydroph_interaction:HIS:51>  (57) 
1

>  <hbond:ASP:83>  (57) 
0

>  <hbond:ALA:132>  (57) 
0

>  <halogenbond:SER:81>  (57) 
1

>  <hbond:GLY:82>  (57) 
0

>  <saltbridge:HIS:51>  (57) 
0

>  <pistack:TYR:161>  (57) 
0

>  <hbond:SER:81>  (57) 
0

>  <hbond:ASN:152>  (57) 
0

>  <hbond:GLY:151>  (57) 
0

>  <hydroph_interaction:ASN:152>  (57) 
1

>  <hbond:TYR:161>  (57) 
0

>  <halogenbond:TYR:150>  (57) 
0

>  <hbond:ASP:75>  (57) 
0

>  <hbond:GLY:153>  (57) 
0

>  <hbond:VAL:36>  (57) 
0

>  <hbond:PRO:131>  (57) 
0

>  <hbond:VAL:52>  (57) 
0

>  <hydroph_interaction:ASP:83>  (57) 
0

>  <hydroph_interaction:MET:49>  (57) 
0

>  <hydroph_interaction:VAL:52>  (57) 
0

>  <saltbridge:ASP:83>  (57) 
0

>  <saltbridge:ASP:75>  (57) 
0

>  <hydroph_interaction:TRP:50>  (57) 
0

>  <hydroph_interaction:VAL:72>  (57) 
0

>  <hydroph_interaction:ASP:75>  (57) 
0

>  <halogenbond:ASN:152>  (57) 
0

>  <halogenbond:GLY:153>  (57) 
0

>  <halogenbond:TYR:130>  (57) 
0

>  <hbond:TYR:130>  (57) 
0

>  <halogenbond:ASP:75>  (57) 
0

>  <halogenbond:GLY:151>  (57) 
0

>  <hbond:TYR:150>  (57) 
0

>  <halogenbond:TYR:161>  (57) 
0

>  <hydroph_interaction:ASP:129>  (57) 
0

>  <hbond:ASP:129>  (57) 
0

>  <halogenbond:ALA:132>  (57) 
0

$$$$
PV-006751860783
     RDKit          3D

 29 31  0  0  0  0  0  0  0  0999 V2000
   -9.4930    4.9500  -18.4200 C   0  0  0  0  0  0  0  0  0  0  0  0
   -8.7960    5.2200  -17.2490 C   0  0  0  0  0  0  0  0  0  0  0  0
   -9.5470    4.9120  -16.0120 C   0  0  0  0  0  0  0  0  0  0  0  0
   -8.9340    5.1190  -14.7470 C   0  0  0  0  0  0  0  0  0  0  0  0
   -7.6790    5.6060  -14.7090 C   0  0  0  0  0  0  0  0  0  0  0  0
   -6.9520    5.9200  -15.8440 C   0  0  0  0  0  0  0  0  0  0  0  0
   -7.4820    5.7330  -17.1130 C   0  0  0  0  0  0  0  0  0  0  0  0
   -6.5800    6.1010  -18.2500 C   0  0  0  0  0  0  0  0  0  0  0  0
   -7.0430    5.8000  -13.1190 S   0  0  0  0  0  0  0  0  0  0  0  0
   -8.5370    5.1670  -12.5600 C   0  0  0  0  0  0  0  0  0  0  0  0
   -8.7530    4.9600  -11.1700 C   0  0  0  0  0  0  0  0  0  0  0  0
   -8.4490    5.9950  -10.3310 C   0  0  0  0  0  0  0  0  0  0  0  0
   -8.6550    5.7450   -8.9280 C   0  0  0  0  0  0  0  0  0  0  0  0
   -9.1370    4.4840   -8.5540 C   0  0  0  0  0  0  0  0  0  0  0  0
   -9.4040    3.5400   -9.5290 C   0  0  0  0  0  0  0  0  0  0  0  0
   -9.2200    3.7590  -10.8240 N   0  0  0  0  0  0  0  0  0  0  0  0
   -9.4590    4.8660  -13.5400 N   0  0  0  0  0  0  0  0  0  0  0  0
   -9.2170    5.3490  -19.3900 H   0  0  0  0  0  0  0  0  0  0  0  0
  -10.5360    5.2600  -18.2730 H   0  0  0  0  0  0  0  0  0  0  0  0
   -9.5360    3.8680  -18.5490 H   0  0  0  0  0  0  0  0  0  0  0  0
  -10.5480    4.5210  -16.0890 H   0  0  0  0  0  0  0  0  0  0  0  0
   -5.9340    6.3160  -15.7390 H   0  0  0  0  0  0  0  0  0  0  0  0
   -6.6120    7.1280  -18.5820 H   0  0  0  0  0  0  0  0  0  0  0  0
   -6.5250    5.5820  -19.1980 H   0  0  0  0  0  0  0  0  0  0  0  0
   -5.5720    5.9630  -17.8500 H   0  0  0  0  0  0  0  0  0  0  0  0
   -8.0740    6.9660  -10.6220 H   0  0  0  0  0  0  0  0  0  0  0  0
   -8.4430    6.4990   -8.1830 H   0  0  0  0  0  0  0  0  0  0  0  0
   -9.3090    4.2390   -7.5130 H   0  0  0  0  0  0  0  0  0  0  0  0
   -9.7830    2.5450   -9.3330 H   0  0  0  0  0  0  0  0  0  0  0  0
  1  2  1  0
  2  3  2  0
  3  4  1  0
  4  5  2  0
  5  6  1  0
  6  7  2  0
  7  8  1  0
  5  9  1  0
  9 10  1  0
 10 11  1  0
 11 12  2  0
 12 13  1  0
 13 14  2  0
 14 15  1  0
 15 16  2  0
 10 17  2  0
  7  2  1  0
 17  4  1  0
 16 11  1  0
  1 18  1  0
  1 19  1  0
  1 20  1  0
  3 21  1  0
  6 22  1  0
  8 23  1  0
  8 24  1  0
  8 25  1  0
 12 26  1  0
 13 27  1  0
 14 28  1  0
 15 29  1  0
A    1
 C1 
A    2
 C2 
A    3
 C3 
A    4
 C4 
A    5
 C5 
A    6
 C6 
A    7
 C7 
A    8
 C8 
A    9
 S1 
A   10
 C9 
A   11
 C10
A   12
 C11
A   13
 C12
A   14
 C13
A   15
 C14
A   16
 N1 
A   17
 N2 
A   18
 H1 
A   19
 H2 
A   20
 H3 
A   21
 H4 
A   22
 H5 
A   23
 H6 
A   24
 H7 
A   25
 H8 
A   26
 H9 
A   27
 H10
A   28
 H11
A   29
 H12
M  END
>  <ref_pdb>  (58) 
x0051_0B

>  <ref_mols>  (58) 
x0404_0B,x0969_0B

>  <original SMILES>  (58) 
[H]c1nc(-c2nc3c([H])c(C([H])([H])[H])c(C([H])([H])[H])c([H])c3s2)c([H])c([H])c1[H]

>  <index>  (58) 
3732

>  <∆∆G>  (58) 
-5.692573

>  <comRMSD>  (58) 
0.289814

>  <N_constrained_atoms>  (58) 
16.0

>  <N_unconstrained_atoms>  (58) 
1.0

>  <LE>  (58) 
0.334857

>  <percent_hybrid>  (58) 
0.0

>  <max_hit_Tanimoto>  (58) 
0.331847

>  <largest_ring>  (58) 
6

>  <N_interactions_kept>  (58) 
0.0

>  <N_interactions_lost>  (58) 
0.0

>  <interaction_uniqueness_metric>  (58) 
0.142323

>  <N_HA>  (58) 
17

>  <N_rotatable_bonds>  (58) 
3

>  <N_interactions>  (58) 
6

>  <N_PAINS>  (58) 
0

>  <UFF_Gibbs>  (58) 
48.337659

>  <strain_per_HA>  (58) 
2.843375

>  <ad_hoc_penalty>  (58) 
-41.11266

>  <cluster>  (58) 
2258

>  <merger_rank>  (58) 
1

>  <pication:ARG:29>  (58) 
0

>  <hbond:HIS:51>  (58) 
0

>  <pistack:HIS:51>  (58) 
1

>  <hydroph_interaction:TYR:161>  (58) 
2

>  <pication:HIS:51>  (58) 
0

>  <hydroph_interaction:ALA:132>  (58) 
1

>  <hydroph_interaction:TYR:150>  (58) 
1

>  <hydroph_interaction:LYS:54>  (58) 
0

>  <hbond:SER:135>  (58) 
0

>  <hydroph_interaction:HIS:51>  (58) 
1

>  <hbond:ASP:83>  (58) 
0

>  <hbond:ALA:132>  (58) 
0

>  <halogenbond:SER:81>  (58) 
0

>  <hbond:GLY:82>  (58) 
0

>  <saltbridge:HIS:51>  (58) 
0

>  <pistack:TYR:161>  (58) 
0

>  <hbond:SER:81>  (58) 
0

>  <hbond:ASN:152>  (58) 
0

>  <hbond:GLY:151>  (58) 
0

>  <hydroph_interaction:ASN:152>  (58) 
0

>  <hbond:TYR:161>  (58) 
0

>  <halogenbond:TYR:150>  (58) 
0

>  <hbond:ASP:75>  (58) 
0

>  <hbond:GLY:153>  (58) 
0

>  <hbond:VAL:36>  (58) 
0

>  <hbond:PRO:131>  (58) 
0

>  <hbond:VAL:52>  (58) 
0

>  <hydroph_interaction:ASP:83>  (58) 
0

>  <hydroph_interaction:MET:49>  (58) 
0

>  <hydroph_interaction:VAL:52>  (58) 
0

>  <saltbridge:ASP:83>  (58) 
0

>  <saltbridge:ASP:75>  (58) 
0

>  <hydroph_interaction:TRP:50>  (58) 
0

>  <hydroph_interaction:VAL:72>  (58) 
0

>  <hydroph_interaction:ASP:75>  (58) 
0

>  <halogenbond:ASN:152>  (58) 
0

>  <halogenbond:GLY:153>  (58) 
0

>  <halogenbond:TYR:130>  (58) 
0

>  <hbond:TYR:130>  (58) 
0

>  <halogenbond:ASP:75>  (58) 
0

>  <halogenbond:GLY:151>  (58) 
0

>  <hbond:TYR:150>  (58) 
0

>  <halogenbond:TYR:161>  (58) 
0

>  <hydroph_interaction:ASP:129>  (58) 
0

>  <hbond:ASP:129>  (58) 
0

>  <halogenbond:ALA:132>  (58) 
0

$$$$
Z1910873620
     RDKit          3D

 25 27  0  0  0  0  0  0  0  0999 V2000
   -9.0110    2.8210   -9.8190 O   0  0  0  0  0  0  0  0  0  0  0  0
   -8.9210    4.0320   -9.8120 C   0  0  0  0  0  0  0  0  0  0  0  0
   -8.9200    4.8420   -8.6590 N   0  0  0  0  0  0  0  0  0  0  0  0
   -8.8010    6.1610   -8.9480 N   0  0  0  0  0  0  0  0  0  0  0  0
   -8.7290    6.1560  -10.3100 C   0  0  0  0  0  0  0  0  0  0  0  0
   -8.5610    7.5890  -11.2200 S   0  0  0  0  0  0  0  0  0  0  0  0
   -8.9960    7.1020  -12.8260 C   0  0  0  0  0  0  0  0  0  0  0  0
   -8.1570    6.5140  -13.6740 N   0  0  0  0  0  0  0  0  0  0  0  0
   -8.8210    6.2720  -14.9340 C   0  0  0  0  0  0  0  0  0  0  0  0
   -8.2590    5.6880  -16.1880 C   0  0  0  0  0  0  0  0  0  0  0  0
   -6.7850    5.8310  -16.3920 C   0  0  0  0  0  0  0  0  0  0  0  0
   -6.1420    5.2990  -17.6720 C   0  0  0  0  0  0  0  0  0  0  0  0
   -7.0710    4.6450  -18.6730 C   0  0  0  0  0  0  0  0  0  0  0  0
   -8.4500    4.6180  -18.2420 C   0  0  0  0  0  0  0  0  0  0  0  0
   -9.1270    5.0460  -17.1520 C   0  0  0  0  0  0  0  0  0  0  0  0
  -10.0950    6.6490  -14.9940 N   0  0  0  0  0  0  0  0  0  0  0  0
  -10.5230    7.3370  -13.5410 S   0  0  0  0  0  0  0  0  0  0  0  0
   -8.7990    4.8860  -10.8710 N   0  0  0  0  0  0  0  0  0  0  0  0
   -8.2320    2.4800   -9.3370 H   0  0  0  0  0  0  0  0  0  0  0  0
   -6.1590    6.3170  -15.6440 H   0  0  0  0  0  0  0  0  0  0  0  0
   -5.0760    5.3860  -17.8550 H   0  0  0  0  0  0  0  0  0  0  0  0
   -6.7270    4.2350  -19.6170 H   0  0  0  0  0  0  0  0  0  0  0  0
   -9.0950    4.1370  -18.9740 H   0  0  0  0  0  0  0  0  0  0  0  0
  -10.1990    4.9310  -17.0160 H   0  0  0  0  0  0  0  0  0  0  0  0
   -8.7640    4.6610  -11.8590 H   0  0  0  0  0  0  0  0  0  0  0  0
  1  2  1  0
  2  3  2  0
  3  4  1  0
  4  5  2  0
  5  6  1  0
  6  7  1  0
  7  8  2  0
  8  9  1  0
  9 10  1  0
 10 11  2  0
 11 12  1  0
 12 13  2  0
 13 14  1  0
 14 15  2  0
  9 16  2  0
 16 17  1  0
  5 18  1  0
 18  2  1  0
 17  7  1  0
 15 10  1  0
  1 19  1  0
 11 20  1  0
 12 21  1  0
 13 22  1  0
 14 23  1  0
 15 24  1  0
 18 25  1  0
A    1
 O1 
A    2
 C1 
A    3
 N1 
A    4
 N2 
A    5
 C2 
A    6
 S1 
A    7
 C3 
A    8
 N3 
A    9
 C4 
A   10
 C5 
A   11
 C6 
A   12
 C7 
A   13
 C8 
A   14
 C9 
A   15
 C10
A   16
 N4 
A   17
 S2 
A   18
 N5 
A   19
 H1 
A   20
 H2 
A   21
 H3 
A   22
 H4 
A   23
 H5 
A   24
 H6 
A   25
 H7 
M  END
>  <ref_pdb>  (59) 
x0051_0B

>  <ref_mols>  (59) 
x0404_0B,x0969_0B

>  <original SMILES>  (59) 
[H]Oc1nnc(Sc2nc(-c3c([H])c([H])c([H])c([H])c3[H])ns2)n1[H]

>  <index>  (59) 
4399

>  <∆∆G>  (59) 
-5.178297

>  <comRMSD>  (59) 
0.372572

>  <N_constrained_atoms>  (59) 
18.0

>  <N_unconstrained_atoms>  (59) 
0.0

>  <LE>  (59) 
0.287683

>  <percent_hybrid>  (59) 
0.0

>  <max_hit_Tanimoto>  (59) 
0.303901

>  <largest_ring>  (59) 
6

>  <N_interactions_kept>  (59) 
0.0

>  <N_interactions_lost>  (59) 
0.0

>  <interaction_uniqueness_metric>  (59) 
0.234055

>  <N_HA>  (59) 
18

>  <N_rotatable_bonds>  (59) 
4

>  <N_interactions>  (59) 
7

>  <N_PAINS>  (59) 
0

>  <UFF_Gibbs>  (59) 
108.745136

>  <strain_per_HA>  (59) 
6.041363

>  <ad_hoc_penalty>  (59) 
-41.078535

>  <cluster>  (59) 
1790

>  <merger_rank>  (59) 
1

>  <pication:ARG:29>  (59) 
0

>  <hbond:HIS:51>  (59) 
1

>  <pistack:HIS:51>  (59) 
1

>  <hydroph_interaction:TYR:161>  (59) 
1

>  <pication:HIS:51>  (59) 
0

>  <hydroph_interaction:ALA:132>  (59) 
1

>  <hydroph_interaction:TYR:150>  (59) 
0

>  <hydroph_interaction:LYS:54>  (59) 
0

>  <hbond:SER:135>  (59) 
1

>  <hydroph_interaction:HIS:51>  (59) 
0

>  <hbond:ASP:83>  (59) 
0

>  <hbond:ALA:132>  (59) 
1

>  <halogenbond:SER:81>  (59) 
0

>  <hbond:GLY:82>  (59) 
0

>  <saltbridge:HIS:51>  (59) 
0

>  <pistack:TYR:161>  (59) 
1

>  <hbond:SER:81>  (59) 
0

>  <hbond:ASN:152>  (59) 
0

>  <hbond:GLY:151>  (59) 
0

>  <hydroph_interaction:ASN:152>  (59) 
0

>  <hbond:TYR:161>  (59) 
0

>  <halogenbond:TYR:150>  (59) 
0

>  <hbond:ASP:75>  (59) 
0

>  <hbond:GLY:153>  (59) 
0

>  <hbond:VAL:36>  (59) 
0

>  <hbond:PRO:131>  (59) 
0

>  <hbond:VAL:52>  (59) 
0

>  <hydroph_interaction:ASP:83>  (59) 
0

>  <hydroph_interaction:MET:49>  (59) 
0

>  <hydroph_interaction:VAL:52>  (59) 
0

>  <saltbridge:ASP:83>  (59) 
0

>  <saltbridge:ASP:75>  (59) 
0

>  <hydroph_interaction:TRP:50>  (59) 
0

>  <hydroph_interaction:VAL:72>  (59) 
0

>  <hydroph_interaction:ASP:75>  (59) 
0

>  <halogenbond:ASN:152>  (59) 
0

>  <halogenbond:GLY:153>  (59) 
0

>  <halogenbond:TYR:130>  (59) 
0

>  <hbond:TYR:130>  (59) 
0

>  <halogenbond:ASP:75>  (59) 
0

>  <halogenbond:GLY:151>  (59) 
0

>  <hbond:TYR:150>  (59) 
0

>  <halogenbond:TYR:161>  (59) 
0

>  <hydroph_interaction:ASP:129>  (59) 
0

>  <hbond:ASP:129>  (59) 
0

>  <halogenbond:ALA:132>  (59) 
0

$$$$
PV-002507652668
     RDKit          3D

 33 34  0  0  0  0  0  0  0  0999 V2000
   -7.7540    4.4370  -18.9840 C   0  0  0  0  0  0  0  0  0  0  0  0
   -7.7450    5.0900  -17.6130 C   0  0  0  0  0  0  0  0  0  0  0  0
   -8.5120    4.7370  -16.6110 N   0  0  0  0  0  0  0  0  0  0  0  0
   -8.2750    5.5370  -15.4930 C   0  0  0  0  0  0  0  0  0  0  0  0
   -9.0100    5.2890  -14.3320 C   0  0  0  0  0  0  0  0  0  0  0  0
   -9.4210    6.5510  -13.7000 N   0  0  0  0  0  0  0  0  0  0  0  0
   -8.6500    6.9190  -12.5100 C   0  0  0  0  0  0  0  0  0  0  0  0
   -8.7730    6.0230  -11.3300 C   0  0  0  0  0  0  0  0  0  0  0  0
   -8.7190    6.4070  -10.0070 C   0  0  0  0  0  0  0  0  0  0  0  0
   -8.8550    5.3110   -9.1110 C   0  0  0  0  0  0  0  0  0  0  0  0
   -9.0150    4.1110   -9.7720 C   0  0  0  0  0  0  0  0  0  0  0  0
   -9.1850    2.7820   -9.2340 C   0  0  0  0  0  0  0  0  0  0  0  0
   -9.5390    2.7010   -7.9170 N   0  0  0  0  0  0  0  0  0  0  0  0
   -9.0180    1.7560   -9.8700 O   0  0  0  0  0  0  0  0  0  0  0  0
   -8.9940    4.3280  -11.4690 S   0  0  0  0  0  0  0  0  0  0  0  0
   -7.3060    6.5040  -15.6950 C   0  0  0  0  0  0  0  0  0  0  0  0
   -6.8040    7.5340  -14.7520 C   0  0  0  0  0  0  0  0  0  0  0  0
   -6.6850    6.3910  -17.2900 S   0  0  0  0  0  0  0  0  0  0  0  0
   -8.3820    4.9980  -19.6820 H   0  0  0  0  0  0  0  0  0  0  0  0
   -6.7410    4.4000  -19.3970 H   0  0  0  0  0  0  0  0  0  0  0  0
   -8.1410    3.4140  -18.9370 H   0  0  0  0  0  0  0  0  0  0  0  0
   -9.8960    4.7000  -14.5830 H   0  0  0  0  0  0  0  0  0  0  0  0
   -8.3940    4.6870  -13.6530 H   0  0  0  0  0  0  0  0  0  0  0  0
  -10.3990    6.4240  -13.4280 H   0  0  0  0  0  0  0  0  0  0  0  0
   -7.5930    6.9110  -12.7930 H   0  0  0  0  0  0  0  0  0  0  0  0
   -8.8720    7.9560  -12.2370 H   0  0  0  0  0  0  0  0  0  0  0  0
   -8.5830    7.4370   -9.7000 H   0  0  0  0  0  0  0  0  0  0  0  0
   -8.8350    5.4150   -8.0340 H   0  0  0  0  0  0  0  0  0  0  0  0
   -8.7690    2.8270   -7.2680 H   0  0  0  0  0  0  0  0  0  0  0  0
  -10.3340    2.1670   -7.5970 H   0  0  0  0  0  0  0  0  0  0  0  0
   -6.2160    7.0730  -13.9520 H   0  0  0  0  0  0  0  0  0  0  0  0
   -6.1610    8.2680  -15.2510 H   0  0  0  0  0  0  0  0  0  0  0  0
   -7.6420    8.0750  -14.2990 H   0  0  0  0  0  0  0  0  0  0  0  0
  1  2  1  0
  2  3  2  0
  3  4  1  0
  4  5  1  0
  5  6  1  0
  6  7  1  0
  7  8  1  0
  8  9  2  0
  9 10  1  0
 10 11  2  0
 11 12  1  0
 12 13  1  0
 12 14  2  0
 11 15  1  0
  4 16  2  0
 16 17  1  0
 16 18  1  0
 18  2  1  0
 15  8  1  0
  1 19  1  0
  1 20  1  0
  1 21  1  0
  5 22  1  0
  5 23  1  0
  6 24  1  0
  7 25  1  0
  7 26  1  0
  9 27  1  0
 10 28  1  0
 13 29  1  0
 13 30  1  0
 17 31  1  0
 17 32  1  0
 17 33  1  0
A    1
 C1 
A    2
 C2 
A    3
 N1 
A    4
 C3 
A    5
 C4 
A    6
 N2 
A    7
 C5 
A    8
 C6 
A    9
 C7 
A   10
 C8 
A   11
 C9 
A   12
 C10
A   13
 N3 
A   14
 O1 
A   15
 S1 
A   16
 C11
A   17
 C12
A   18
 S2 
A   19
 H1 
A   20
 H2 
A   21
 H3 
A   22
 H4 
A   23
 H5 
A   24
 H6 
A   25
 H7 
A   26
 H8 
A   27
 H9 
A   28
 H10
A   29
 H11
A   30
 H12
A   31
 H13
A   32
 H14
A   33
 H15
M  END
>  <ref_pdb>  (60) 
x0051_0B

>  <ref_mols>  (60) 
x0404_0B,x0969_0B

>  <original SMILES>  (60) 
[H]c1c(C(=O)N([H])[H])sc(C([H])([H])N([H])C([H])([H])c2nc(C([H])([H])[H])sc2C([H])([H])[H])c1[H]

>  <index>  (60) 
106

>  <∆∆G>  (60) 
-5.232931

>  <comRMSD>  (60) 
0.354527

>  <N_constrained_atoms>  (60) 
19.0

>  <N_unconstrained_atoms>  (60) 
0.0

>  <LE>  (60) 
0.275417

>  <percent_hybrid>  (60) 
0.0

>  <max_hit_Tanimoto>  (60) 
0.281893

>  <largest_ring>  (60) 
5

>  <N_interactions_kept>  (60) 
0.0

>  <N_interactions_lost>  (60) 
0.0

>  <interaction_uniqueness_metric>  (60) 
0.578759

>  <N_HA>  (60) 
18

>  <N_rotatable_bonds>  (60) 
7

>  <N_interactions>  (60) 
7

>  <N_PAINS>  (60) 
0

>  <UFF_Gibbs>  (60) 
78.660158

>  <strain_per_HA>  (60) 
4.369984

>  <ad_hoc_penalty>  (60) 
-40.98589

>  <cluster>  (60) 
685

>  <merger_rank>  (60) 
1

>  <pication:ARG:29>  (60) 
0

>  <hbond:HIS:51>  (60) 
1

>  <pistack:HIS:51>  (60) 
1

>  <hydroph_interaction:TYR:161>  (60) 
1

>  <pication:HIS:51>  (60) 
0

>  <hydroph_interaction:ALA:132>  (60) 
1

>  <hydroph_interaction:TYR:150>  (60) 
0

>  <hydroph_interaction:LYS:54>  (60) 
0

>  <hbond:SER:135>  (60) 
0

>  <hydroph_interaction:HIS:51>  (60) 
1

>  <hbond:ASP:83>  (60) 
0

>  <hbond:ALA:132>  (60) 
0

>  <halogenbond:SER:81>  (60) 
0

>  <hbond:GLY:82>  (60) 
0

>  <saltbridge:HIS:51>  (60) 
0

>  <pistack:TYR:161>  (60) 
0

>  <hbond:SER:81>  (60) 
1

>  <hbond:ASN:152>  (60) 
1

>  <hbond:GLY:151>  (60) 
0

>  <hydroph_interaction:ASN:152>  (60) 
0

>  <hbond:TYR:161>  (60) 
0

>  <halogenbond:TYR:150>  (60) 
0

>  <hbond:ASP:75>  (60) 
0

>  <hbond:GLY:153>  (60) 
0

>  <hbond:VAL:36>  (60) 
0

>  <hbond:PRO:131>  (60) 
0

>  <hbond:VAL:52>  (60) 
0

>  <hydroph_interaction:ASP:83>  (60) 
0

>  <hydroph_interaction:MET:49>  (60) 
0

>  <hydroph_interaction:VAL:52>  (60) 
0

>  <saltbridge:ASP:83>  (60) 
0

>  <saltbridge:ASP:75>  (60) 
0

>  <hydroph_interaction:TRP:50>  (60) 
0

>  <hydroph_interaction:VAL:72>  (60) 
0

>  <hydroph_interaction:ASP:75>  (60) 
0

>  <halogenbond:ASN:152>  (60) 
0

>  <halogenbond:GLY:153>  (60) 
0

>  <halogenbond:TYR:130>  (60) 
0

>  <hbond:TYR:130>  (60) 
0

>  <halogenbond:ASP:75>  (60) 
0

>  <halogenbond:GLY:151>  (60) 
0

>  <hbond:TYR:150>  (60) 
0

>  <halogenbond:TYR:161>  (60) 
0

>  <hydroph_interaction:ASP:129>  (60) 
0

>  <hbond:ASP:129>  (60) 
0

>  <halogenbond:ALA:132>  (60) 
0

$$$$
PV-002880777565
     RDKit          3D

 23 25  0  0  0  0  0  0  0  0999 V2000
   -8.0330    5.6150  -16.9640 C   0  0  0  0  0  0  0  0  0  0  0  0
   -6.9070    5.5780  -16.1530 C   0  0  0  0  0  0  0  0  0  0  0  0
   -7.0360    5.2550  -14.6390 C   0  0  0  0  0  0  0  0  0  0  0  0
   -8.4750    5.0280  -14.3120 C   0  0  0  0  0  0  0  0  0  0  0  0
   -8.6900    4.6690  -12.8350 C   0  0  0  0  0  0  0  0  0  0  0  0
   -8.5670    5.6960  -11.8920 C   0  0  0  0  0  0  0  0  0  0  0  0
   -8.7690    5.1510  -10.6170 C   0  0  0  0  0  0  0  0  0  0  0  0
   -8.7170    5.8420   -9.4540 N   0  0  0  0  0  0  0  0  0  0  0  0
   -8.9330    5.1220   -8.3310 C   0  0  0  0  0  0  0  0  0  0  0  0
   -9.2040    3.7600   -8.2740 C   0  0  0  0  0  0  0  0  0  0  0  0
   -9.2610    3.0580   -9.4460 C   0  0  0  0  0  0  0  0  0  0  0  0
   -9.0360    3.7760  -10.6240 C   0  0  0  0  0  0  0  0  0  0  0  0
   -9.0400    3.1470  -12.1960 S   0  0  0  0  0  0  0  0  0  0  0  0
   -9.5070    5.0810  -15.0980 N   0  0  0  0  0  0  0  0  0  0  0  0
   -9.2960    5.3600  -16.3770 C   0  0  0  0  0  0  0  0  0  0  0  0
   -7.9350    5.8370  -18.0200 H   0  0  0  0  0  0  0  0  0  0  0  0
   -5.8940    5.7570  -16.4850 H   0  0  0  0  0  0  0  0  0  0  0  0
   -6.1970    5.2000  -13.9400 H   0  0  0  0  0  0  0  0  0  0  0  0
   -8.3470    6.7360  -12.0900 H   0  0  0  0  0  0  0  0  0  0  0  0
   -8.8710    5.7440   -7.4490 H   0  0  0  0  0  0  0  0  0  0  0  0
   -9.3630    3.2770   -7.3180 H   0  0  0  0  0  0  0  0  0  0  0  0
   -9.4650    2.0010   -9.4700 H   0  0  0  0  0  0  0  0  0  0  0  0
  -10.1920    5.3850  -16.9840 H   0  0  0  0  0  0  0  0  0  0  0  0
  1  2  2  0
  2  3  1  0
  3  4  2  0
  4  5  1  0
  5  6  2  0
  6  7  1  0
  7  8  2  0
  8  9  1  0
  9 10  2  0
 10 11  1  0
 11 12  2  0
 12 13  1  0
  4 14  1  0
 14 15  2  0
 15  1  1  0
 13  5  1  0
 12  7  1  0
  1 16  1  0
  2 17  1  0
  3 18  1  0
  6 19  1  0
  9 20  1  0
 10 21  1  0
 11 22  1  0
 15 23  1  0
A    1
 C1 
A    2
 C2 
A    3
 C3 
A    4
 C4 
A    5
 C5 
A    6
 C6 
A    7
 C7 
A    8
 N1 
A    9
 C8 
A   10
 C9 
A   11
 C10
A   12
 C11
A   13
 S1 
A   14
 N2 
A   15
 C12
A   16
 H1 
A   17
 H2 
A   18
 H3 
A   19
 H4 
A   20
 H5 
A   21
 H6 
A   22
 H7 
A   23
 H8 
M  END
>  <ref_pdb>  (61) 
x0051_0B

>  <ref_mols>  (61) 
x0969_1B,x0553_0B

>  <original SMILES>  (61) 
[H]c1nc(-c2sc3c([H])c([H])c([H])nc3c2[H])c([H])c([H])c1[H]

>  <index>  (61) 
1597

>  <∆∆G>  (61) 
-4.159307

>  <comRMSD>  (61) 
0.439181

>  <N_constrained_atoms>  (61) 
14.0

>  <N_unconstrained_atoms>  (61) 
1.0

>  <LE>  (61) 
0.277287

>  <percent_hybrid>  (61) 
0.0

>  <max_hit_Tanimoto>  (61) 
0.474737

>  <largest_ring>  (61) 
6

>  <N_interactions_kept>  (61) 
0.0

>  <N_interactions_lost>  (61) 
0.0

>  <interaction_uniqueness_metric>  (61) 
0.107099

>  <N_HA>  (61) 
15

>  <N_rotatable_bonds>  (61) 
1

>  <N_interactions>  (61) 
6

>  <N_PAINS>  (61) 
0

>  <UFF_Gibbs>  (61) 
51.59706

>  <strain_per_HA>  (61) 
3.439781

>  <ad_hoc_penalty>  (61) 
-40.954854

>  <cluster>  (61) 
3679

>  <merger_rank>  (61) 
1

>  <pication:ARG:29>  (61) 
0

>  <hbond:HIS:51>  (61) 
0

>  <pistack:HIS:51>  (61) 
2

>  <hydroph_interaction:TYR:161>  (61) 
1

>  <pication:HIS:51>  (61) 
0

>  <hydroph_interaction:ALA:132>  (61) 
1

>  <hydroph_interaction:TYR:150>  (61) 
0

>  <hydroph_interaction:LYS:54>  (61) 
0

>  <hbond:SER:135>  (61) 
1

>  <hydroph_interaction:HIS:51>  (61) 
1

>  <hbond:ASP:83>  (61) 
0

>  <hbond:ALA:132>  (61) 
0

>  <halogenbond:SER:81>  (61) 
0

>  <hbond:GLY:82>  (61) 
0

>  <saltbridge:HIS:51>  (61) 
0

>  <pistack:TYR:161>  (61) 
0

>  <hbond:SER:81>  (61) 
0

>  <hbond:ASN:152>  (61) 
0

>  <hbond:GLY:151>  (61) 
0

>  <hydroph_interaction:ASN:152>  (61) 
0

>  <hbond:TYR:161>  (61) 
0

>  <halogenbond:TYR:150>  (61) 
0

>  <hbond:ASP:75>  (61) 
0

>  <hbond:GLY:153>  (61) 
0

>  <hbond:VAL:36>  (61) 
0

>  <hbond:PRO:131>  (61) 
0

>  <hbond:VAL:52>  (61) 
0

>  <hydroph_interaction:ASP:83>  (61) 
0

>  <hydroph_interaction:MET:49>  (61) 
0

>  <hydroph_interaction:VAL:52>  (61) 
0

>  <saltbridge:ASP:83>  (61) 
0

>  <saltbridge:ASP:75>  (61) 
0

>  <hydroph_interaction:TRP:50>  (61) 
0

>  <hydroph_interaction:VAL:72>  (61) 
0

>  <hydroph_interaction:ASP:75>  (61) 
0

>  <halogenbond:ASN:152>  (61) 
0

>  <halogenbond:GLY:153>  (61) 
0

>  <halogenbond:TYR:130>  (61) 
0

>  <hbond:TYR:130>  (61) 
0

>  <halogenbond:ASP:75>  (61) 
0

>  <halogenbond:GLY:151>  (61) 
0

>  <hbond:TYR:150>  (61) 
0

>  <halogenbond:TYR:161>  (61) 
0

>  <hydroph_interaction:ASP:129>  (61) 
0

>  <hbond:ASP:129>  (61) 
0

>  <halogenbond:ALA:132>  (61) 
0

$$$$
Z19684191
     RDKit          3D

 27 28  0  0  0  0  0  0  0  0999 V2000
  -10.8050    5.9710  -12.7620 O   0  0  0  0  0  0  0  0  0  0  0  0
   -9.6200    5.6780  -12.6510 C   0  0  0  0  0  0  0  0  0  0  0  0
   -8.7330    5.8230  -13.6560 O   0  0  0  0  0  0  0  0  0  0  0  0
   -9.3640    5.6770  -14.9210 C   0  0  0  0  0  0  0  0  0  0  0  0
   -8.3650    5.6940  -16.0210 C   0  0  0  0  0  0  0  0  0  0  0  0
   -8.7380    5.1210  -17.4110 C   0  0  0  0  0  0  0  0  0  0  0  0
   -7.8490    5.1290  -18.4770 C   0  0  0  0  0  0  0  0  0  0  0  0
   -6.5440    5.7190  -18.1540 C   0  0  0  0  0  0  0  0  0  0  0  0
   -6.1900    6.2340  -16.9080 C   0  0  0  0  0  0  0  0  0  0  0  0
   -7.0790    6.2250  -15.8580 C   0  0  0  0  0  0  0  0  0  0  0  0
   -9.0180    5.1410  -11.4220 C   0  0  0  0  0  0  0  0  0  0  0  0
   -9.4800    3.9340  -10.8160 C   0  0  0  0  0  0  0  0  0  0  0  0
   -8.8270    3.5790   -9.6630 C   0  0  0  0  0  0  0  0  0  0  0  0
   -7.8210    4.2880   -9.1100 N   0  0  0  0  0  0  0  0  0  0  0  0
   -7.4110    5.4070   -9.7100 C   0  0  0  0  0  0  0  0  0  0  0  0
   -7.9730    5.8740  -10.8610 C   0  0  0  0  0  0  0  0  0  0  0  0
  -10.0990    6.4780  -14.9140 H   0  0  0  0  0  0  0  0  0  0  0  0
   -9.9900    4.8020  -14.8990 H   0  0  0  0  0  0  0  0  0  0  0  0
   -9.6980    4.6700  -17.6980 H   0  0  0  0  0  0  0  0  0  0  0  0
   -8.1050    4.7310  -19.4510 H   0  0  0  0  0  0  0  0  0  0  0  0
   -5.9070    5.6840  -19.0440 H   0  0  0  0  0  0  0  0  0  0  0  0
   -5.2420    6.6870  -16.5880 H   0  0  0  0  0  0  0  0  0  0  0  0
   -6.6390    6.6690  -14.9610 H   0  0  0  0  0  0  0  0  0  0  0  0
  -10.3030    3.3900  -11.2950 H   0  0  0  0  0  0  0  0  0  0  0  0
   -9.1080    2.6720   -9.1270 H   0  0  0  0  0  0  0  0  0  0  0  0
   -6.5960    5.9330   -9.2190 H   0  0  0  0  0  0  0  0  0  0  0  0
   -7.6160    6.7920  -11.3140 H   0  0  0  0  0  0  0  0  0  0  0  0
  1  2  2  0
  2  3  1  0
  3  4  1  0
  4  5  1  0
  5  6  2  0
  6  7  1  0
  7  8  2  0
  8  9  1  0
  9 10  2  0
  2 11  1  0
 11 12  2  0
 12 13  1  0
 13 14  2  0
 14 15  1  0
 15 16  2  0
 10  5  1  0
 16 11  1  0
  4 17  1  0
  4 18  1  0
  6 19  1  0
  7 20  1  0
  8 21  1  0
  9 22  1  0
 10 23  1  0
 12 24  1  0
 13 25  1  0
 15 26  1  0
 16 27  1  0
A    1
 O1 
A    2
 C1 
A    3
 O2 
A    4
 C2 
A    5
 C3 
A    6
 C4 
A    7
 C5 
A    8
 C6 
A    9
 C7 
A   10
 C8 
A   11
 C9 
A   12
 C10
A   13
 C11
A   14
 N1 
A   15
 C12
A   16
 C13
A   17
 H1 
A   18
 H2 
A   19
 H3 
A   20
 H4 
A   21
 H5 
A   22
 H6 
A   23
 H7 
A   24
 H8 
A   25
 H9 
A   26
 H10
A   27
 H11
M  END
>  <ref_pdb>  (62) 
x0051_0B

>  <ref_mols>  (62) 
x0404_0B,x0969_0B

>  <original SMILES>  (62) 
[H]c1nc([H])c([H])c(C(=O)OC([H])([H])c2c([H])c([H])c([H])c([H])c2[H])c1[H]

>  <index>  (62) 
3377

>  <∆∆G>  (62) 
-3.853146

>  <comRMSD>  (62) 
0.313696

>  <N_constrained_atoms>  (62) 
16.0

>  <N_unconstrained_atoms>  (62) 
0.0

>  <LE>  (62) 
0.240822

>  <percent_hybrid>  (62) 
0.0

>  <max_hit_Tanimoto>  (62) 
0.247059

>  <largest_ring>  (62) 
6

>  <N_interactions_kept>  (62) 
0.0

>  <N_interactions_lost>  (62) 
0.0

>  <interaction_uniqueness_metric>  (62) 
0.181812

>  <N_HA>  (62) 
16

>  <N_rotatable_bonds>  (62) 
3

>  <N_interactions>  (62) 
7

>  <N_PAINS>  (62) 
0

>  <UFF_Gibbs>  (62) 
61.721945

>  <strain_per_HA>  (62) 
3.857597

>  <ad_hoc_penalty>  (62) 
-40.78514

>  <cluster>  (62) 
2482

>  <merger_rank>  (62) 
3

>  <pication:ARG:29>  (62) 
0

>  <hbond:HIS:51>  (62) 
0

>  <pistack:HIS:51>  (62) 
1

>  <hydroph_interaction:TYR:161>  (62) 
2

>  <pication:HIS:51>  (62) 
0

>  <hydroph_interaction:ALA:132>  (62) 
1

>  <hydroph_interaction:TYR:150>  (62) 
0

>  <hydroph_interaction:LYS:54>  (62) 
0

>  <hbond:SER:135>  (62) 
1

>  <hydroph_interaction:HIS:51>  (62) 
1

>  <hbond:ASP:83>  (62) 
0

>  <hbond:ALA:132>  (62) 
0

>  <halogenbond:SER:81>  (62) 
0

>  <hbond:GLY:82>  (62) 
0

>  <saltbridge:HIS:51>  (62) 
1

>  <pistack:TYR:161>  (62) 
0

>  <hbond:SER:81>  (62) 
0

>  <hbond:ASN:152>  (62) 
0

>  <hbond:GLY:151>  (62) 
0

>  <hydroph_interaction:ASN:152>  (62) 
0

>  <hbond:TYR:161>  (62) 
0

>  <halogenbond:TYR:150>  (62) 
0

>  <hbond:ASP:75>  (62) 
0

>  <hbond:GLY:153>  (62) 
0

>  <hbond:VAL:36>  (62) 
0

>  <hbond:PRO:131>  (62) 
0

>  <hbond:VAL:52>  (62) 
0

>  <hydroph_interaction:ASP:83>  (62) 
0

>  <hydroph_interaction:MET:49>  (62) 
0

>  <hydroph_interaction:VAL:52>  (62) 
0

>  <saltbridge:ASP:83>  (62) 
0

>  <saltbridge:ASP:75>  (62) 
0

>  <hydroph_interaction:TRP:50>  (62) 
0

>  <hydroph_interaction:VAL:72>  (62) 
0

>  <hydroph_interaction:ASP:75>  (62) 
0

>  <halogenbond:ASN:152>  (62) 
0

>  <halogenbond:GLY:153>  (62) 
0

>  <halogenbond:TYR:130>  (62) 
0

>  <hbond:TYR:130>  (62) 
0

>  <halogenbond:ASP:75>  (62) 
0

>  <halogenbond:GLY:151>  (62) 
0

>  <hbond:TYR:150>  (62) 
0

>  <halogenbond:TYR:161>  (62) 
0

>  <hydroph_interaction:ASP:129>  (62) 
0

>  <hbond:ASP:129>  (62) 
0

>  <halogenbond:ALA:132>  (62) 
0

$$$$
Z2827052622
     RDKit          3D

 29 31  0  0  0  0  0  0  0  0999 V2000
   -7.1760    5.0180  -19.3460 C   0  0  0  0  0  0  0  0  0  0  0  0
   -7.6060    5.2280  -18.0610 C   0  0  0  0  0  0  0  0  0  0  0  0
   -8.6440    4.5290  -17.5870 N   0  0  0  0  0  0  0  0  0  0  0  0
   -8.9360    4.9960  -16.0090 S   0  0  0  0  0  0  0  0  0  0  0  0
   -7.6770    6.1630  -15.9300 C   0  0  0  0  0  0  0  0  0  0  0  0
   -7.4290    6.9280  -14.7990 C   0  0  0  0  0  0  0  0  0  0  0  0
   -7.4450    6.2810  -13.6350 N   0  0  0  0  0  0  0  0  0  0  0  0
   -8.2670    7.0090  -12.8050 C   0  0  0  0  0  0  0  0  0  0  0  0
   -9.6150    6.3220  -12.6630 C   0  0  0  0  0  0  0  0  0  0  0  0
   -9.3420    4.9600  -12.4930 C   0  0  0  0  0  0  0  0  0  0  0  0
  -10.5630    4.3080  -12.3650 C   0  0  0  0  0  0  0  0  0  0  0  0
  -11.8140    5.1940  -12.4410 C   0  0  0  0  0  0  0  0  0  0  0  0
  -12.8800    4.4010  -12.3030 C   0  0  0  0  0  0  0  0  0  0  0  0
  -12.3000    3.1390  -12.1530 C   0  0  0  0  0  0  0  0  0  0  0  0
  -10.9160    3.1240  -12.1960 O   0  0  0  0  0  0  0  0  0  0  0  0
  -11.3100    6.8090  -12.6690 S   0  0  0  0  0  0  0  0  0  0  0  0
   -7.0270    6.1670  -17.1490 C   0  0  0  0  0  0  0  0  0  0  0  0
   -7.7680    4.2450  -19.8500 H   0  0  0  0  0  0  0  0  0  0  0  0
   -7.2890    5.9400  -19.9230 H   0  0  0  0  0  0  0  0  0  0  0  0
   -6.1220    4.7300  -19.3870 H   0  0  0  0  0  0  0  0  0  0  0  0
   -8.2000    7.7010  -14.7520 H   0  0  0  0  0  0  0  0  0  0  0  0
   -6.4830    7.4670  -14.8640 H   0  0  0  0  0  0  0  0  0  0  0  0
   -7.6590    5.3100  -13.8030 H   0  0  0  0  0  0  0  0  0  0  0  0
   -7.8170    7.1290  -11.8110 H   0  0  0  0  0  0  0  0  0  0  0  0
   -8.4170    8.0100  -13.2260 H   0  0  0  0  0  0  0  0  0  0  0  0
   -8.3700    4.4910  -12.4640 H   0  0  0  0  0  0  0  0  0  0  0  0
  -13.9240    4.6480  -12.3020 H   0  0  0  0  0  0  0  0  0  0  0  0
  -12.8400    2.2210  -12.0110 H   0  0  0  0  0  0  0  0  0  0  0  0
   -6.1820    6.8140  -17.3760 H   0  0  0  0  0  0  0  0  0  0  0  0
  1  2  1  0
  2  3  2  0
  3  4  1  0
  4  5  1  0
  5  6  1  0
  6  7  1  0
  7  8  1  0
  8  9  1  0
  9 10  2  0
 10 11  1  0
 11 12  2  0
 12 13  1  0
 13 14  2  0
 14 15  1  0
 12 16  1  0
  5 17  2  0
 17  2  1  0
 16  9  1  0
 15 11  1  0
  1 18  1  0
  1 19  1  0
  1 20  1  0
  6 21  1  0
  6 22  1  0
  7 23  1  0
  8 24  1  0
  8 25  1  0
 10 26  1  0
 13 27  1  0
 14 28  1  0
 17 29  1  0
A    1
 C1 
A    2
 C2 
A    3
 N1 
A    4
 S1 
A    5
 C3 
A    6
 C4 
A    7
 N2 
A    8
 C5 
A    9
 C6 
A   10
 C7 
A   11
 C8 
A   12
 C9 
A   13
 C10
A   14
 C11
A   15
 O1 
A   16
 S2 
A   17
 C12
A   18
 H1 
A   19
 H2 
A   20
 H3 
A   21
 H4 
A   22
 H5 
A   23
 H6 
A   24
 H7 
A   25
 H8 
A   26
 H9 
A   27
 H10
A   28
 H11
A   29
 H12
M  END
>  <ref_pdb>  (63) 
x0051_0B

>  <ref_mols>  (63) 
x0404_0B,x0969_0B

>  <original SMILES>  (63) 
[H]c1oc2c([H])c(C([H])([H])N([H])C([H])([H])c3snc(C([H])([H])[H])c3[H])sc2c1[H]

>  <index>  (63) 
3719

>  <∆∆G>  (63) 
-6.376248

>  <comRMSD>  (63) 
0.82436

>  <N_constrained_atoms>  (63) 
11.0

>  <N_unconstrained_atoms>  (63) 
8.0

>  <LE>  (63) 
0.335592

>  <percent_hybrid>  (63) 
0.0

>  <max_hit_Tanimoto>  (63) 
0.208997

>  <largest_ring>  (63) 
5

>  <N_interactions_kept>  (63) 
0.0

>  <N_interactions_lost>  (63) 
0.0

>  <interaction_uniqueness_metric>  (63) 
1.018128

>  <N_HA>  (63) 
17

>  <N_rotatable_bonds>  (63) 
5

>  <N_interactions>  (63) 
6

>  <N_PAINS>  (63) 
0

>  <UFF_Gibbs>  (63) 
208.044008

>  <strain_per_HA>  (63) 
12.237811

>  <ad_hoc_penalty>  (63) 
-40.662486

>  <cluster>  (63) 
2271

>  <merger_rank>  (63) 
1

>  <pication:ARG:29>  (63) 
0

>  <hbond:HIS:51>  (63) 
0

>  <pistack:HIS:51>  (63) 
1

>  <hydroph_interaction:TYR:161>  (63) 
1

>  <pication:HIS:51>  (63) 
0

>  <hydroph_interaction:ALA:132>  (63) 
1

>  <hydroph_interaction:TYR:150>  (63) 
0

>  <hydroph_interaction:LYS:54>  (63) 
0

>  <hbond:SER:135>  (63) 
0

>  <hydroph_interaction:HIS:51>  (63) 
1

>  <hbond:ASP:83>  (63) 
0

>  <hbond:ALA:132>  (63) 
0

>  <halogenbond:SER:81>  (63) 
0

>  <hbond:GLY:82>  (63) 
0

>  <saltbridge:HIS:51>  (63) 
0

>  <pistack:TYR:161>  (63) 
0

>  <hbond:SER:81>  (63) 
0

>  <hbond:ASN:152>  (63) 
0

>  <hbond:GLY:151>  (63) 
0

>  <hydroph_interaction:ASN:152>  (63) 
0

>  <hbond:TYR:161>  (63) 
0

>  <halogenbond:TYR:150>  (63) 
0

>  <hbond:ASP:75>  (63) 
0

>  <hbond:GLY:153>  (63) 
0

>  <hbond:VAL:36>  (63) 
0

>  <hbond:PRO:131>  (63) 
0

>  <hbond:VAL:52>  (63) 
0

>  <hydroph_interaction:ASP:83>  (63) 
0

>  <hydroph_interaction:MET:49>  (63) 
1

>  <hydroph_interaction:VAL:52>  (63) 
1

>  <saltbridge:ASP:83>  (63) 
0

>  <saltbridge:ASP:75>  (63) 
0

>  <hydroph_interaction:TRP:50>  (63) 
0

>  <hydroph_interaction:VAL:72>  (63) 
0

>  <hydroph_interaction:ASP:75>  (63) 
0

>  <halogenbond:ASN:152>  (63) 
0

>  <halogenbond:GLY:153>  (63) 
0

>  <halogenbond:TYR:130>  (63) 
0

>  <hbond:TYR:130>  (63) 
0

>  <halogenbond:ASP:75>  (63) 
0

>  <halogenbond:GLY:151>  (63) 
0

>  <hbond:TYR:150>  (63) 
0

>  <halogenbond:TYR:161>  (63) 
0

>  <hydroph_interaction:ASP:129>  (63) 
0

>  <hbond:ASP:129>  (63) 
0

>  <halogenbond:ALA:132>  (63) 
0

$$$$
Z30820281
     RDKit          3D

 22 23  0  0  0  0  0  0  0  0999 V2000
  -10.0510    4.8310  -18.2140 C   0  0  0  0  0  0  0  0  0  0  0  0
   -8.9860    5.0060  -17.1360 C   0  0  0  0  0  0  0  0  0  0  0  0
   -7.6130    5.2580  -17.5920 C   0  0  0  0  0  0  0  0  0  0  0  0
   -6.5850    5.3960  -16.2210 S   0  0  0  0  0  0  0  0  0  0  0  0
   -8.0230    5.1100  -15.1450 C   0  0  0  0  0  0  0  0  0  0  0  0
   -7.9540    5.0510  -13.7850 N   0  0  0  0  0  0  0  0  0  0  0  0
   -8.8030    5.6010  -12.8440 C   0  0  0  0  0  0  0  0  0  0  0  0
   -9.4920    6.5880  -13.0760 O   0  0  0  0  0  0  0  0  0  0  0  0
   -8.8180    4.9590  -11.5380 C   0  0  0  0  0  0  0  0  0  0  0  0
   -9.1870    3.6890  -11.0920 C   0  0  0  0  0  0  0  0  0  0  0  0
   -9.0190    3.5640   -9.6830 C   0  0  0  0  0  0  0  0  0  0  0  0
   -8.5330    4.7100   -9.1000 C   0  0  0  0  0  0  0  0  0  0  0  0
   -8.2760    5.9410  -10.2270 S   0  0  0  0  0  0  0  0  0  0  0  0
   -9.1760    4.9470  -15.8120 N   0  0  0  0  0  0  0  0  0  0  0  0
   -9.7820    5.3810  -19.1170 H   0  0  0  0  0  0  0  0  0  0  0  0
  -10.1390    3.7920  -18.5110 H   0  0  0  0  0  0  0  0  0  0  0  0
  -11.0290    5.1770  -17.8890 H   0  0  0  0  0  0  0  0  0  0  0  0
   -7.2080    5.3520  -18.5900 H   0  0  0  0  0  0  0  0  0  0  0  0
   -7.1830    4.4740  -13.4790 H   0  0  0  0  0  0  0  0  0  0  0  0
   -9.5520    2.9370  -11.7860 H   0  0  0  0  0  0  0  0  0  0  0  0
   -9.1910    2.7600   -8.9770 H   0  0  0  0  0  0  0  0  0  0  0  0
   -8.3170    4.8760   -8.0540 H   0  0  0  0  0  0  0  0  0  0  0  0
  1  2  1  0
  2  3  2  0
  3  4  1  0
  4  5  1  0
  5  6  1  0
  6  7  1  0
  7  8  2  0
  7  9  1  0
  9 10  2  0
 10 11  1  0
 11 12  2  0
 12 13  1  0
  5 14  2  0
 14  2  1  0
 13  9  1  0
  1 15  1  0
  1 16  1  0
  1 17  1  0
  3 18  1  0
  6 19  1  0
 10 20  1  0
 11 21  1  0
 12 22  1  0
A    1
 C1 
A    2
 C2 
A    3
 C3 
A    4
 S1 
A    5
 C4 
A    6
 N1 
A    7
 C5 
A    8
 O1 
A    9
 C6 
A   10
 C7 
A   11
 C8 
A   12
 C9 
A   13
 S2 
A   14
 N2 
A   15
 H1 
A   16
 H2 
A   17
 H3 
A   18
 H4 
A   19
 H5 
A   20
 H6 
A   21
 H7 
A   22
 H8 
M  END
>  <ref_pdb>  (64) 
x0051_0B

>  <ref_mols>  (64) 
x0969_1B,x0553_0B

>  <original SMILES>  (64) 
[H]c1sc(N([H])C(=O)c2sc([H])c([H])c2[H])nc1C([H])([H])[H]

>  <index>  (64) 
1491

>  <∆∆G>  (64) 
-5.744251

>  <comRMSD>  (64) 
0.387989

>  <N_constrained_atoms>  (64) 
13.0

>  <N_unconstrained_atoms>  (64) 
1.0

>  <LE>  (64) 
0.410304

>  <percent_hybrid>  (64) 
0.0

>  <max_hit_Tanimoto>  (64) 
0.181692

>  <largest_ring>  (64) 
5

>  <N_interactions_kept>  (64) 
0.0

>  <N_interactions_lost>  (64) 
0.0

>  <interaction_uniqueness_metric>  (64) 
0.162359

>  <N_HA>  (64) 
14

>  <N_rotatable_bonds>  (64) 
3

>  <N_interactions>  (64) 
6

>  <N_PAINS>  (64) 
0

>  <UFF_Gibbs>  (64) 
45.125063

>  <strain_per_HA>  (64) 
3.223196

>  <ad_hoc_penalty>  (64) 
-40.538435

>  <cluster>  (64) 
3759

>  <merger_rank>  (64) 
3

>  <pication:ARG:29>  (64) 
0

>  <hbond:HIS:51>  (64) 
0

>  <pistack:HIS:51>  (64) 
1

>  <hydroph_interaction:TYR:161>  (64) 
0

>  <pication:HIS:51>  (64) 
0

>  <hydroph_interaction:ALA:132>  (64) 
0

>  <hydroph_interaction:TYR:150>  (64) 
1

>  <hydroph_interaction:LYS:54>  (64) 
0

>  <hbond:SER:135>  (64) 
0

>  <hydroph_interaction:HIS:51>  (64) 
1

>  <hbond:ASP:83>  (64) 
0

>  <hbond:ALA:132>  (64) 
0

>  <halogenbond:SER:81>  (64) 
0

>  <hbond:GLY:82>  (64) 
0

>  <saltbridge:HIS:51>  (64) 
0

>  <pistack:TYR:161>  (64) 
1

>  <hbond:SER:81>  (64) 
0

>  <hbond:ASN:152>  (64) 
0

>  <hbond:GLY:151>  (64) 
0

>  <hydroph_interaction:ASN:152>  (64) 
0

>  <hbond:TYR:161>  (64) 
2

>  <halogenbond:TYR:150>  (64) 
0

>  <hbond:ASP:75>  (64) 
0

>  <hbond:GLY:153>  (64) 
0

>  <hbond:VAL:36>  (64) 
0

>  <hbond:PRO:131>  (64) 
0

>  <hbond:VAL:52>  (64) 
0

>  <hydroph_interaction:ASP:83>  (64) 
0

>  <hydroph_interaction:MET:49>  (64) 
0

>  <hydroph_interaction:VAL:52>  (64) 
0

>  <saltbridge:ASP:83>  (64) 
0

>  <saltbridge:ASP:75>  (64) 
0

>  <hydroph_interaction:TRP:50>  (64) 
0

>  <hydroph_interaction:VAL:72>  (64) 
0

>  <hydroph_interaction:ASP:75>  (64) 
0

>  <halogenbond:ASN:152>  (64) 
0

>  <halogenbond:GLY:153>  (64) 
0

>  <halogenbond:TYR:130>  (64) 
0

>  <hbond:TYR:130>  (64) 
0

>  <halogenbond:ASP:75>  (64) 
0

>  <halogenbond:GLY:151>  (64) 
0

>  <hbond:TYR:150>  (64) 
0

>  <halogenbond:TYR:161>  (64) 
0

>  <hydroph_interaction:ASP:129>  (64) 
0

>  <hbond:ASP:129>  (64) 
0

>  <halogenbond:ALA:132>  (64) 
0

$$$$
PV-002947046890
     RDKit          3D

 31 33  0  0  0  0  0  0  0  0999 V2000
   -8.3190    3.8570  -19.1930 C   0  0  0  0  0  0  0  0  0  0  0  0
   -8.0920    4.7490  -17.9880 C   0  0  0  0  0  0  0  0  0  0  0  0
   -6.8460    5.5540  -18.0400 C   0  0  0  0  0  0  0  0  0  0  0  0
   -6.6800    6.3510  -16.9460 C   0  0  0  0  0  0  0  0  0  0  0  0
   -7.5830    6.4760  -15.7740 C   0  0  0  0  0  0  0  0  0  0  0  0
   -7.1310    7.4350  -14.7480 C   0  0  0  0  0  0  0  0  0  0  0  0
   -8.0300    7.3430  -13.4910 C   0  0  0  0  0  0  0  0  0  0  0  0
   -8.9170    8.2030  -12.9290 N   0  0  0  0  0  0  0  0  0  0  0  0
   -9.3860    7.5480  -11.8090 N   0  0  0  0  0  0  0  0  0  0  0  0
   -8.7340    6.3230  -11.7900 C   0  0  0  0  0  0  0  0  0  0  0  0
   -8.8780    5.3170  -10.8680 C   0  0  0  0  0  0  0  0  0  0  0  0
   -8.9050    5.7730   -9.5950 N   0  0  0  0  0  0  0  0  0  0  0  0
   -9.0970    4.8600   -8.6440 C   0  0  0  0  0  0  0  0  0  0  0  0
   -9.2640    3.5420   -8.8820 C   0  0  0  0  0  0  0  0  0  0  0  0
   -9.5800    2.3650   -7.4970 Br  0  0  0  0  0  0  0  0  0  0  0  0
   -9.1890    3.1810  -10.2350 C   0  0  0  0  0  0  0  0  0  0  0  0
   -8.9950    4.0450  -11.2480 N   0  0  0  0  0  0  0  0  0  0  0  0
   -7.8880    6.1790  -12.8260 O   0  0  0  0  0  0  0  0  0  0  0  0
   -8.7410    5.6820  -15.7850 C   0  0  0  0  0  0  0  0  0  0  0  0
   -8.9810    4.8310  -16.8880 C   0  0  0  0  0  0  0  0  0  0  0  0
   -8.9920    4.3540  -19.9020 H   0  0  0  0  0  0  0  0  0  0  0  0
   -8.7810    2.9040  -18.9100 H   0  0  0  0  0  0  0  0  0  0  0  0
   -7.3810    3.6460  -19.7170 H   0  0  0  0  0  0  0  0  0  0  0  0
   -6.0640    5.6180  -18.7860 H   0  0  0  0  0  0  0  0  0  0  0  0
   -5.7830    6.9850  -16.9040 H   0  0  0  0  0  0  0  0  0  0  0  0
   -7.1770    8.4980  -15.0300 H   0  0  0  0  0  0  0  0  0  0  0  0
   -6.0710    7.3530  -14.5180 H   0  0  0  0  0  0  0  0  0  0  0  0
   -9.1240    5.2450   -7.6290 H   0  0  0  0  0  0  0  0  0  0  0  0
   -9.2990    2.1440  -10.5240 H   0  0  0  0  0  0  0  0  0  0  0  0
   -9.4530    5.7130  -14.9630 H   0  0  0  0  0  0  0  0  0  0  0  0
   -9.8810    4.2260  -16.8820 H   0  0  0  0  0  0  0  0  0  0  0  0
  1  2  1  0
  2  3  2  0
  3  4  1  0
  4  5  2  0
  5  6  1  0
  6  7  1  0
  7  8  2  0
  8  9  1  0
  9 10  2  0
 10 11  1  0
 11 12  2  0
 12 13  1  0
 13 14  2  0
 14 15  1  0
 14 16  1  0
 16 17  2  0
 10 18  1  0
  5 19  1  0
 19 20  2  0
 20  2  1  0
 18  7  1  0
 17 11  1  0
  1 21  1  0
  1 22  1  0
  1 23  1  0
  3 24  1  0
  4 25  1  0
  6 26  1  0
  6 27  1  0
 13 28  1  0
 16 29  1  0
 19 30  1  0
 20 31  1  0
A    1
 C1 
A    2
 C2 
A    3
 C3 
A    4
 C4 
A    5
 C5 
A    6
 C6 
A    7
 C7 
A    8
 N1 
A    9
 N2 
A   10
 C8 
A   11
 C9 
A   12
 N3 
A   13
 C10
A   14
 C11
A   15
BR1 
A   16
 C12
A   17
 N4 
A   18
 O1 
A   19
 C13
A   20
 C14
A   21
 H1 
A   22
 H2 
A   23
 H3 
A   24
 H4 
A   25
 H5 
A   26
 H6 
A   27
 H7 
A   28
 H8 
A   29
 H9 
A   30
 H10
A   31
 H11
M  END
>  <ref_pdb>  (65) 
x0051_0B

>  <ref_mols>  (65) 
x0404_0B,x0969_0B

>  <original SMILES>  (65) 
[H]c1nc(-c2nnc(C([H])([H])c3c([H])c([H])c(C([H])([H])[H])c([H])c3[H])o2)nc([H])c1Br

>  <index>  (65) 
4252

>  <∆∆G>  (65) 
-5.739913

>  <comRMSD>  (65) 
0.463688

>  <N_constrained_atoms>  (65) 
19.0

>  <N_unconstrained_atoms>  (65) 
1.0

>  <LE>  (65) 
0.286996

>  <percent_hybrid>  (65) 
0.0

>  <max_hit_Tanimoto>  (65) 
0.40875

>  <largest_ring>  (65) 
6

>  <N_interactions_kept>  (65) 
0.0

>  <N_interactions_lost>  (65) 
0.0

>  <interaction_uniqueness_metric>  (65) 
0.243586

>  <N_HA>  (65) 
20

>  <N_rotatable_bonds>  (65) 
4

>  <N_interactions>  (65) 
6

>  <N_PAINS>  (65) 
0

>  <UFF_Gibbs>  (65) 
65.258945

>  <strain_per_HA>  (65) 
3.262931

>  <ad_hoc_penalty>  (65) 
-40.537278

>  <cluster>  (65) 
12

>  <merger_rank>  (65) 
1

>  <pication:ARG:29>  (65) 
0

>  <hbond:HIS:51>  (65) 
0

>  <pistack:HIS:51>  (65) 
1

>  <hydroph_interaction:TYR:161>  (65) 
1

>  <pication:HIS:51>  (65) 
0

>  <hydroph_interaction:ALA:132>  (65) 
1

>  <hydroph_interaction:TYR:150>  (65) 
1

>  <hydroph_interaction:LYS:54>  (65) 
0

>  <hbond:SER:135>  (65) 
0

>  <hydroph_interaction:HIS:51>  (65) 
0

>  <hbond:ASP:83>  (65) 
0

>  <hbond:ALA:132>  (65) 
0

>  <halogenbond:SER:81>  (65) 
1

>  <hbond:GLY:82>  (65) 
0

>  <saltbridge:HIS:51>  (65) 
0

>  <pistack:TYR:161>  (65) 
1

>  <hbond:SER:81>  (65) 
0

>  <hbond:ASN:152>  (65) 
0

>  <hbond:GLY:151>  (65) 
0

>  <hydroph_interaction:ASN:152>  (65) 
0

>  <hbond:TYR:161>  (65) 
0

>  <halogenbond:TYR:150>  (65) 
0

>  <hbond:ASP:75>  (65) 
0

>  <hbond:GLY:153>  (65) 
0

>  <hbond:VAL:36>  (65) 
0

>  <hbond:PRO:131>  (65) 
0

>  <hbond:VAL:52>  (65) 
0

>  <hydroph_interaction:ASP:83>  (65) 
0

>  <hydroph_interaction:MET:49>  (65) 
0

>  <hydroph_interaction:VAL:52>  (65) 
0

>  <saltbridge:ASP:83>  (65) 
0

>  <saltbridge:ASP:75>  (65) 
0

>  <hydroph_interaction:TRP:50>  (65) 
0

>  <hydroph_interaction:VAL:72>  (65) 
0

>  <hydroph_interaction:ASP:75>  (65) 
0

>  <halogenbond:ASN:152>  (65) 
0

>  <halogenbond:GLY:153>  (65) 
0

>  <halogenbond:TYR:130>  (65) 
0

>  <hbond:TYR:130>  (65) 
0

>  <halogenbond:ASP:75>  (65) 
0

>  <halogenbond:GLY:151>  (65) 
0

>  <hbond:TYR:150>  (65) 
0

>  <halogenbond:TYR:161>  (65) 
0

>  <hydroph_interaction:ASP:129>  (65) 
0

>  <hbond:ASP:129>  (65) 
0

>  <halogenbond:ALA:132>  (65) 
0

$$$$
PV-002143334846
     RDKit          3D

 34 35  0  0  0  0  0  0  0  0999 V2000
   -7.7030    4.4560  -19.1110 C   0  0  0  0  0  0  0  0  0  0  0  0
   -7.6330    5.1500  -17.7520 C   0  0  0  0  0  0  0  0  0  0  0  0
   -8.4880    4.6090  -16.6300 C   0  0  0  0  0  0  0  0  0  0  0  0
   -8.2720    5.4370  -15.3960 C   0  0  0  0  0  0  0  0  0  0  0  0
   -8.8770    5.2340  -14.1600 C   0  0  0  0  0  0  0  0  0  0  0  0
   -9.3920    6.4800  -13.6160 N   0  0  0  0  0  0  0  0  0  0  0  0
   -8.7210    6.9440  -12.4000 C   0  0  0  0  0  0  0  0  0  0  0  0
   -8.8100    6.1070  -11.2940 C   0  0  0  0  0  0  0  0  0  0  0  0
   -8.7240    6.5420   -9.9760 C   0  0  0  0  0  0  0  0  0  0  0  0
   -8.8370    5.5000   -9.0220 C   0  0  0  0  0  0  0  0  0  0  0  0
   -9.0250    4.1390   -9.7230 C   0  0  0  0  0  0  0  0  0  0  0  0
   -9.1820    2.8130   -9.1710 C   0  0  0  0  0  0  0  0  0  0  0  0
   -8.8610    1.8130  -10.0210 N   0  0  0  0  0  0  0  0  0  0  0  0
   -9.5670    2.5440   -8.0330 O   0  0  0  0  0  0  0  0  0  0  0  0
   -9.0280    4.3930  -11.4250 S   0  0  0  0  0  0  0  0  0  0  0  0
   -7.3470    6.4590  -15.6700 C   0  0  0  0  0  0  0  0  0  0  0  0
   -6.8730    7.5090  -14.7220 C   0  0  0  0  0  0  0  0  0  0  0  0
   -6.7110    6.4770  -17.2830 S   0  0  0  0  0  0  0  0  0  0  0  0
   -8.1000    3.4380  -19.0220 H   0  0  0  0  0  0  0  0  0  0  0  0
   -6.7110    4.3820  -19.5730 H   0  0  0  0  0  0  0  0  0  0  0  0
   -8.3570    5.0050  -19.7960 H   0  0  0  0  0  0  0  0  0  0  0  0
   -9.1440    3.7610  -16.7230 H   0  0  0  0  0  0  0  0  0  0  0  0
   -8.1410    4.7970  -13.4760 H   0  0  0  0  0  0  0  0  0  0  0  0
   -9.6820    4.5100  -14.2690 H   0  0  0  0  0  0  0  0  0  0  0  0
  -10.3880    6.3710  -13.4220 H   0  0  0  0  0  0  0  0  0  0  0  0
   -8.9790    7.9910  -12.2930 H   0  0  0  0  0  0  0  0  0  0  0  0
   -7.6540    6.9840  -12.6480 H   0  0  0  0  0  0  0  0  0  0  0  0
   -8.5910    7.5850   -9.7140 H   0  0  0  0  0  0  0  0  0  0  0  0
   -8.7900    5.6480   -7.9510 H   0  0  0  0  0  0  0  0  0  0  0  0
   -7.9060    1.8190  -10.3600 H   0  0  0  0  0  0  0  0  0  0  0  0
   -9.5570    1.3790  -10.6010 H   0  0  0  0  0  0  0  0  0  0  0  0
   -6.3040    7.0530  -13.9060 H   0  0  0  0  0  0  0  0  0  0  0  0
   -7.7260    8.0450  -14.2920 H   0  0  0  0  0  0  0  0  0  0  0  0
   -6.2240    8.2450  -15.2060 H   0  0  0  0  0  0  0  0  0  0  0  0
  1  2  1  0
  2  3  2  0
  3  4  1  0
  4  5  1  0
  5  6  1  0
  6  7  1  0
  7  8  1  0
  8  9  2  0
  9 10  1  0
 10 11  2  0
 11 12  1  0
 12 13  1  0
 12 14  2  0
 11 15  1  0
  4 16  2  0
 16 17  1  0
 16 18  1  0
 18  2  1  0
 15  8  1  0
  1 19  1  0
  1 20  1  0
  1 21  1  0
  3 22  1  0
  5 23  1  0
  5 24  1  0
  6 25  1  0
  7 26  1  0
  7 27  1  0
  9 28  1  0
 10 29  1  0
 13 30  1  0
 13 31  1  0
 17 32  1  0
 17 33  1  0
 17 34  1  0
A    1
 C1 
A    2
 C2 
A    3
 C3 
A    4
 C4 
A    5
 C5 
A    6
 N1 
A    7
 C6 
A    8
 C7 
A    9
 C8 
A   10
 C9 
A   11
 C10
A   12
 C11
A   13
 N2 
A   14
 O1 
A   15
 S1 
A   16
 C12
A   17
 C13
A   18
 S2 
A   19
 H1 
A   20
 H2 
A   21
 H3 
A   22
 H4 
A   23
 H5 
A   24
 H6 
A   25
 H7 
A   26
 H8 
A   27
 H9 
A   28
 H10
A   29
 H11
A   30
 H12
A   31
 H13
A   32
 H14
A   33
 H15
A   34
 H16
M  END
>  <ref_pdb>  (66) 
x0051_0B

>  <ref_mols>  (66) 
x0404_0B,x0969_0B

>  <original SMILES>  (66) 
[H]c1c(C(=O)N([H])[H])sc(C([H])([H])N([H])C([H])([H])c2c(C([H])([H])[H])sc(C([H])([H])[H])c2[H])c1[H]

>  <index>  (66) 
132

>  <∆∆G>  (66) 
-5.470066

>  <comRMSD>  (66) 
0.358106

>  <N_constrained_atoms>  (66) 
19.0

>  <N_unconstrained_atoms>  (66) 
0.0

>  <LE>  (66) 
0.287898

>  <percent_hybrid>  (66) 
0.0

>  <max_hit_Tanimoto>  (66) 
0.206218

>  <largest_ring>  (66) 
5

>  <N_interactions_kept>  (66) 
0.0

>  <N_interactions_lost>  (66) 
0.0

>  <interaction_uniqueness_metric>  (66) 
0.619206

>  <N_HA>  (66) 
18

>  <N_rotatable_bonds>  (66) 
7

>  <N_interactions>  (66) 
7

>  <N_PAINS>  (66) 
0

>  <UFF_Gibbs>  (66) 
114.029669

>  <strain_per_HA>  (66) 
6.334946

>  <ad_hoc_penalty>  (66) 
-40.465589

>  <cluster>  (66) 
684

>  <merger_rank>  (66) 
2

>  <pication:ARG:29>  (66) 
0

>  <hbond:HIS:51>  (66) 
1

>  <pistack:HIS:51>  (66) 
1

>  <hydroph_interaction:TYR:161>  (66) 
2

>  <pication:HIS:51>  (66) 
0

>  <hydroph_interaction:ALA:132>  (66) 
1

>  <hydroph_interaction:TYR:150>  (66) 
0

>  <hydroph_interaction:LYS:54>  (66) 
0

>  <hbond:SER:135>  (66) 
0

>  <hydroph_interaction:HIS:51>  (66) 
1

>  <hbond:ASP:83>  (66) 
0

>  <hbond:ALA:132>  (66) 
0

>  <halogenbond:SER:81>  (66) 
0

>  <hbond:GLY:82>  (66) 
1

>  <saltbridge:HIS:51>  (66) 
0

>  <pistack:TYR:161>  (66) 
0

>  <hbond:SER:81>  (66) 
0

>  <hbond:ASN:152>  (66) 
0

>  <hbond:GLY:151>  (66) 
0

>  <hydroph_interaction:ASN:152>  (66) 
0

>  <hbond:TYR:161>  (66) 
0

>  <halogenbond:TYR:150>  (66) 
0

>  <hbond:ASP:75>  (66) 
0

>  <hbond:GLY:153>  (66) 
0

>  <hbond:VAL:36>  (66) 
0

>  <hbond:PRO:131>  (66) 
0

>  <hbond:VAL:52>  (66) 
0

>  <hydroph_interaction:ASP:83>  (66) 
0

>  <hydroph_interaction:MET:49>  (66) 
0

>  <hydroph_interaction:VAL:52>  (66) 
0

>  <saltbridge:ASP:83>  (66) 
0

>  <saltbridge:ASP:75>  (66) 
0

>  <hydroph_interaction:TRP:50>  (66) 
0

>  <hydroph_interaction:VAL:72>  (66) 
0

>  <hydroph_interaction:ASP:75>  (66) 
0

>  <halogenbond:ASN:152>  (66) 
0

>  <halogenbond:GLY:153>  (66) 
0

>  <halogenbond:TYR:130>  (66) 
0

>  <hbond:TYR:130>  (66) 
0

>  <halogenbond:ASP:75>  (66) 
0

>  <halogenbond:GLY:151>  (66) 
0

>  <hbond:TYR:150>  (66) 
0

>  <halogenbond:TYR:161>  (66) 
0

>  <hydroph_interaction:ASP:129>  (66) 
0

>  <hbond:ASP:129>  (66) 
0

>  <halogenbond:ALA:132>  (66) 
0

$$$$
PV-002777887459
     RDKit          3D

 24 26  0  0  0  0  0  0  0  0999 V2000
  -10.5570    5.1530  -17.9880 N   0  0  0  0  0  0  0  0  0  0  0  0
   -9.6200    5.1900  -17.0270 C   0  0  0  0  0  0  0  0  0  0  0  0
   -8.3620    5.3220  -17.2990 N   0  0  0  0  0  0  0  0  0  0  0  0
   -7.6300    5.2700  -16.1300 C   0  0  0  0  0  0  0  0  0  0  0  0
   -6.1730    5.3690  -16.0380 C   0  0  0  0  0  0  0  0  0  0  0  0
   -5.4670    5.2900  -14.8650 N   0  0  0  0  0  0  0  0  0  0  0  0
   -6.2440    5.0920  -13.8000 C   0  0  0  0  0  0  0  0  0  0  0  0
   -7.6410    4.9800  -13.7330 C   0  0  0  0  0  0  0  0  0  0  0  0
   -8.2440    4.7170  -12.3880 C   0  0  0  0  0  0  0  0  0  0  0  0
   -8.0680    5.6470  -11.2940 C   0  0  0  0  0  0  0  0  0  0  0  0
   -8.5950    5.3640  -10.0300 C   0  0  0  0  0  0  0  0  0  0  0  0
   -9.3020    4.1260   -9.8850 C   0  0  0  0  0  0  0  0  0  0  0  0
   -9.4150    3.3180  -11.0150 C   0  0  0  0  0  0  0  0  0  0  0  0
   -8.9200    3.5770  -12.2350 N   0  0  0  0  0  0  0  0  0  0  0  0
   -8.3290    5.0980  -14.9560 C   0  0  0  0  0  0  0  0  0  0  0  0
   -9.9890    5.0630  -15.3650 S   0  0  0  0  0  0  0  0  0  0  0  0
  -11.1760    4.3560  -17.9660 H   0  0  0  0  0  0  0  0  0  0  0  0
  -10.1830    5.3170  -18.9180 H   0  0  0  0  0  0  0  0  0  0  0  0
   -5.5730    5.5090  -16.9300 H   0  0  0  0  0  0  0  0  0  0  0  0
   -5.7790    4.9940  -12.8300 H   0  0  0  0  0  0  0  0  0  0  0  0
   -7.5170    6.5720  -11.4400 H   0  0  0  0  0  0  0  0  0  0  0  0
   -8.4710    6.0470   -9.1960 H   0  0  0  0  0  0  0  0  0  0  0  0
   -9.7380    3.8240   -8.9380 H   0  0  0  0  0  0  0  0  0  0  0  0
   -9.9480    2.3740  -10.9450 H   0  0  0  0  0  0  0  0  0  0  0  0
  1  2  1  0
  2  3  2  0
  3  4  1  0
  4  5  2  0
  5  6  1  0
  6  7  2  0
  7  8  1  0
  8  9  1  0
  9 10  2  0
 10 11  1  0
 11 12  2  0
 12 13  1  0
 13 14  2  0
  8 15  2  0
 15 16  1  0
 16  2  1  0
 15  4  1  0
 14  9  1  0
  1 17  1  0
  1 18  1  0
  5 19  1  0
  7 20  1  0
 10 21  1  0
 11 22  1  0
 12 23  1  0
 13 24  1  0
A    1
 N1 
A    2
 C1 
A    3
 N2 
A    4
 C2 
A    5
 C3 
A    6
 N3 
A    7
 C4 
A    8
 C5 
A    9
 C6 
A   10
 C7 
A   11
 C8 
A   12
 C9 
A   13
 C10
A   14
 N4 
A   15
 C11
A   16
 S1 
A   17
 H1 
A   18
 H2 
A   19
 H3 
A   20
 H4 
A   21
 H5 
A   22
 H6 
A   23
 H7 
A   24
 H8 
M  END
>  <ref_pdb>  (67) 
x0051_0B

>  <ref_mols>  (67) 
x0969_1B,x0553_0B

>  <original SMILES>  (67) 
[H]c1nc(-c2c([H])nc([H])c3nc(N([H])[H])sc23)c([H])c([H])c1[H]

>  <index>  (67) 
304

>  <∆∆G>  (67) 
-1.501297

>  <comRMSD>  (67) 
0.403508

>  <N_constrained_atoms>  (67) 
15.0

>  <N_unconstrained_atoms>  (67) 
1.0

>  <LE>  (67) 
0.093831

>  <percent_hybrid>  (67) 
0.0

>  <max_hit_Tanimoto>  (67) 
0.350772

>  <largest_ring>  (67) 
6

>  <N_interactions_kept>  (67) 
0.0

>  <N_interactions_lost>  (67) 
0.0

>  <interaction_uniqueness_metric>  (67) 
0.836716

>  <N_HA>  (67) 
16

>  <N_rotatable_bonds>  (67) 
2

>  <N_interactions>  (67) 
5

>  <N_PAINS>  (67) 
0

>  <UFF_Gibbs>  (67) 
42.14692

>  <strain_per_HA>  (67) 
2.634166

>  <ad_hoc_penalty>  (67) 
-40.45481

>  <cluster>  (67) 
4679

>  <merger_rank>  (67) 
2

>  <pication:ARG:29>  (67) 
0

>  <hbond:HIS:51>  (67) 
0

>  <pistack:HIS:51>  (67) 
0

>  <hydroph_interaction:TYR:161>  (67) 
0

>  <pication:HIS:51>  (67) 
1

>  <hydroph_interaction:ALA:132>  (67) 
0

>  <hydroph_interaction:TYR:150>  (67) 
0

>  <hydroph_interaction:LYS:54>  (67) 
0

>  <hbond:SER:135>  (67) 
1

>  <hydroph_interaction:HIS:51>  (67) 
1

>  <hbond:ASP:83>  (67) 
0

>  <hbond:ALA:132>  (67) 
0

>  <halogenbond:SER:81>  (67) 
0

>  <hbond:GLY:82>  (67) 
0

>  <saltbridge:HIS:51>  (67) 
0

>  <pistack:TYR:161>  (67) 
0

>  <hbond:SER:81>  (67) 
0

>  <hbond:ASN:152>  (67) 
0

>  <hbond:GLY:151>  (67) 
0

>  <hydroph_interaction:ASN:152>  (67) 
0

>  <hbond:TYR:161>  (67) 
1

>  <halogenbond:TYR:150>  (67) 
0

>  <hbond:ASP:75>  (67) 
0

>  <hbond:GLY:153>  (67) 
0

>  <hbond:VAL:36>  (67) 
0

>  <hbond:PRO:131>  (67) 
1

>  <hbond:VAL:52>  (67) 
0

>  <hydroph_interaction:ASP:83>  (67) 
0

>  <hydroph_interaction:MET:49>  (67) 
0

>  <hydroph_interaction:VAL:52>  (67) 
0

>  <saltbridge:ASP:83>  (67) 
0

>  <saltbridge:ASP:75>  (67) 
0

>  <hydroph_interaction:TRP:50>  (67) 
0

>  <hydroph_interaction:VAL:72>  (67) 
0

>  <hydroph_interaction:ASP:75>  (67) 
0

>  <halogenbond:ASN:152>  (67) 
0

>  <halogenbond:GLY:153>  (67) 
0

>  <halogenbond:TYR:130>  (67) 
0

>  <hbond:TYR:130>  (67) 
0

>  <halogenbond:ASP:75>  (67) 
0

>  <halogenbond:GLY:151>  (67) 
0

>  <hbond:TYR:150>  (67) 
0

>  <halogenbond:TYR:161>  (67) 
0

>  <hydroph_interaction:ASP:129>  (67) 
0

>  <hbond:ASP:129>  (67) 
0

>  <halogenbond:ALA:132>  (67) 
0

$$$$
Z1393204055
     RDKit          3D

 30 32  0  0  0  0  0  0  0  0999 V2000
   -9.2360    2.4630   -9.4250 C   0  0  0  0  0  0  0  0  0  0  0  0
   -9.0540    3.9590   -9.5630 C   0  0  0  0  0  0  0  0  0  0  0  0
   -9.1220    4.6820  -10.8320 C   0  0  0  0  0  0  0  0  0  0  0  0
   -8.9110    6.1760  -10.5780 C   0  0  0  0  0  0  0  0  0  0  0  0
   -8.9100    7.2300  -11.4910 C   0  0  0  0  0  0  0  0  0  0  0  0
   -9.0300    6.8470  -12.9070 C   0  0  0  0  0  0  0  0  0  0  0  0
   -8.0780    6.3640  -13.6360 N   0  0  0  0  0  0  0  0  0  0  0  0
   -8.7790    6.2340  -14.8150 C   0  0  0  0  0  0  0  0  0  0  0  0
   -8.1070    5.7220  -16.0710 C   0  0  0  0  0  0  0  0  0  0  0  0
   -9.0860    5.2040  -17.0390 C   0  0  0  0  0  0  0  0  0  0  0  0
   -8.5820    4.7150  -18.2820 C   0  0  0  0  0  0  0  0  0  0  0  0
   -7.2040    4.7510  -18.5140 C   0  0  0  0  0  0  0  0  0  0  0  0
   -6.3160    5.2510  -17.5340 C   0  0  0  0  0  0  0  0  0  0  0  0
   -6.7510    5.7290  -16.3340 C   0  0  0  0  0  0  0  0  0  0  0  0
  -10.0710    6.6070  -14.7760 N   0  0  0  0  0  0  0  0  0  0  0  0
  -10.2550    7.0420  -13.4550 O   0  0  0  0  0  0  0  0  0  0  0  0
   -8.7320    6.2170   -9.2460 N   0  0  0  0  0  0  0  0  0  0  0  0
   -8.8050    4.9620   -8.6140 N   0  0  0  0  0  0  0  0  0  0  0  0
   -9.0120    2.1390   -8.4040 H   0  0  0  0  0  0  0  0  0  0  0  0
  -10.2680    2.1910   -9.6430 H   0  0  0  0  0  0  0  0  0  0  0  0
   -8.5860    1.9130  -10.1140 H   0  0  0  0  0  0  0  0  0  0  0  0
   -9.2980    4.2960  -11.8390 H   0  0  0  0  0  0  0  0  0  0  0  0
   -9.5430    8.0590  -11.1950 H   0  0  0  0  0  0  0  0  0  0  0  0
   -7.8980    7.6460  -11.4200 H   0  0  0  0  0  0  0  0  0  0  0  0
  -10.1590    5.1950  -16.8250 H   0  0  0  0  0  0  0  0  0  0  0  0
   -9.3240    4.3370  -18.9960 H   0  0  0  0  0  0  0  0  0  0  0  0
   -6.8090    4.3870  -19.4570 H   0  0  0  0  0  0  0  0  0  0  0  0
   -5.2520    5.2480  -17.7690 H   0  0  0  0  0  0  0  0  0  0  0  0
   -6.0480    6.1140  -15.5990 H   0  0  0  0  0  0  0  0  0  0  0  0
   -8.6840    4.8880   -7.6090 H   0  0  0  0  0  0  0  0  0  0  0  0
  1  2  1  0
  2  3  2  0
  3  4  1  0
  4  5  1  0
  5  6  1  0
  6  7  2  0
  7  8  1  0
  8  9  1  0
  9 10  2  0
 10 11  1  0
 11 12  2  0
 12 13  1  0
 13 14  2  0
  8 15  2  0
 15 16  1  0
  4 17  2  0
 17 18  1  0
 18  2  1  0
 16  6  1  0
 14  9  1  0
  1 19  1  0
  1 20  1  0
  1 21  1  0
  3 22  1  0
  5 23  1  0
  5 24  1  0
 10 25  1  0
 11 26  1  0
 12 27  1  0
 13 28  1  0
 14 29  1  0
 18 30  1  0
A    1
 C1 
A    2
 C2 
A    3
 C3 
A    4
 C4 
A    5
 C5 
A    6
 C6 
A    7
 N1 
A    8
 C7 
A    9
 C8 
A   10
 C9 
A   11
 C10
A   12
 C11
A   13
 C12
A   14
 C13
A   15
 N2 
A   16
 O1 
A   17
 N3 
A   18
 N4 
A   19
 H1 
A   20
 H2 
A   21
 H3 
A   22
 H4 
A   23
 H5 
A   24
 H6 
A   25
 H7 
A   26
 H8 
A   27
 H9 
A   28
 H10
A   29
 H11
A   30
 H12
M  END
>  <ref_pdb>  (68) 
x0051_0B

>  <ref_mols>  (68) 
x0404_0B,x0969_0B

>  <original SMILES>  (68) 
[H]c1c([H])c([H])c(-c2noc(C([H])([H])c3nn([H])c(C([H])([H])[H])c3[H])n2)c([H])c1[H]

>  <index>  (68) 
4401

>  <∆∆G>  (68) 
-6.264097

>  <comRMSD>  (68) 
0.284475

>  <N_constrained_atoms>  (68) 
18.0

>  <N_unconstrained_atoms>  (68) 
0.0

>  <LE>  (68) 
0.348005

>  <percent_hybrid>  (68) 
0.0

>  <max_hit_Tanimoto>  (68) 
0.229962

>  <largest_ring>  (68) 
6

>  <N_interactions_kept>  (68) 
0.0

>  <N_interactions_lost>  (68) 
0.0

>  <interaction_uniqueness_metric>  (68) 
0.201079

>  <N_HA>  (68) 
18

>  <N_rotatable_bonds>  (68) 
4

>  <N_interactions>  (68) 
6

>  <N_PAINS>  (68) 
0

>  <UFF_Gibbs>  (68) 
78.43473

>  <strain_per_HA>  (68) 
4.357461

>  <ad_hoc_penalty>  (68) 
-40.286382

>  <cluster>  (68) 
182

>  <merger_rank>  (68) 
2

>  <pication:ARG:29>  (68) 
0

>  <hbond:HIS:51>  (68) 
0

>  <pistack:HIS:51>  (68) 
1

>  <hydroph_interaction:TYR:161>  (68) 
0

>  <pication:HIS:51>  (68) 
0

>  <hydroph_interaction:ALA:132>  (68) 
1

>  <hydroph_interaction:TYR:150>  (68) 
0

>  <hydroph_interaction:LYS:54>  (68) 
0

>  <hbond:SER:135>  (68) 
1

>  <hydroph_interaction:HIS:51>  (68) 
1

>  <hbond:ASP:83>  (68) 
1

>  <hbond:ALA:132>  (68) 
0

>  <halogenbond:SER:81>  (68) 
0

>  <hbond:GLY:82>  (68) 
0

>  <saltbridge:HIS:51>  (68) 
0

>  <pistack:TYR:161>  (68) 
1

>  <hbond:SER:81>  (68) 
0

>  <hbond:ASN:152>  (68) 
0

>  <hbond:GLY:151>  (68) 
0

>  <hydroph_interaction:ASN:152>  (68) 
0

>  <hbond:TYR:161>  (68) 
0

>  <halogenbond:TYR:150>  (68) 
0

>  <hbond:ASP:75>  (68) 
0

>  <hbond:GLY:153>  (68) 
0

>  <hbond:VAL:36>  (68) 
0

>  <hbond:PRO:131>  (68) 
0

>  <hbond:VAL:52>  (68) 
0

>  <hydroph_interaction:ASP:83>  (68) 
0

>  <hydroph_interaction:MET:49>  (68) 
0

>  <hydroph_interaction:VAL:52>  (68) 
0

>  <saltbridge:ASP:83>  (68) 
0

>  <saltbridge:ASP:75>  (68) 
0

>  <hydroph_interaction:TRP:50>  (68) 
0

>  <hydroph_interaction:VAL:72>  (68) 
0

>  <hydroph_interaction:ASP:75>  (68) 
0

>  <halogenbond:ASN:152>  (68) 
0

>  <halogenbond:GLY:153>  (68) 
0

>  <halogenbond:TYR:130>  (68) 
0

>  <hbond:TYR:130>  (68) 
0

>  <halogenbond:ASP:75>  (68) 
0

>  <halogenbond:GLY:151>  (68) 
0

>  <hbond:TYR:150>  (68) 
0

>  <halogenbond:TYR:161>  (68) 
0

>  <hydroph_interaction:ASP:129>  (68) 
0

>  <hbond:ASP:129>  (68) 
0

>  <halogenbond:ALA:132>  (68) 
0

$$$$
PV-002870567760
     RDKit          3D

 27 29  0  0  0  0  0  0  0  0999 V2000
   -6.5700    6.1130  -18.2420 C   0  0  0  0  0  0  0  0  0  0  0  0
   -7.3260    5.8100  -16.9620 C   0  0  0  0  0  0  0  0  0  0  0  0
   -8.7290    5.3280  -17.1890 C   0  0  0  0  0  0  0  0  0  0  0  0
   -9.4080    5.0510  -15.9780 C   0  0  0  0  0  0  0  0  0  0  0  0
   -8.8150    5.2020  -14.6530 C   0  0  0  0  0  0  0  0  0  0  0  0
   -9.3150    4.9680  -13.4370 N   0  0  0  0  0  0  0  0  0  0  0  0
   -8.3610    5.2450  -12.5560 C   0  0  0  0  0  0  0  0  0  0  0  0
   -8.6140    5.0440  -11.1710 C   0  0  0  0  0  0  0  0  0  0  0  0
   -9.1030    3.7840  -10.8710 N   0  0  0  0  0  0  0  0  0  0  0  0
   -9.3570    3.4650   -9.5670 C   0  0  0  0  0  0  0  0  0  0  0  0
   -9.1380    4.3770   -8.5350 C   0  0  0  0  0  0  0  0  0  0  0  0
   -8.6500    5.6500   -8.8470 C   0  0  0  0  0  0  0  0  0  0  0  0
   -8.3860    5.9890  -10.1770 C   0  0  0  0  0  0  0  0  0  0  0  0
   -7.9140    7.2150  -10.4560 F   0  0  0  0  0  0  0  0  0  0  0  0
   -7.2460    5.6810  -13.2040 N   0  0  0  0  0  0  0  0  0  0  0  0
   -7.5090    5.6540  -14.5590 C   0  0  0  0  0  0  0  0  0  0  0  0
   -6.7350    5.9730  -15.6920 C   0  0  0  0  0  0  0  0  0  0  0  0
   -6.3530    5.1930  -18.8030 H   0  0  0  0  0  0  0  0  0  0  0  0
   -7.1620    6.7740  -18.8880 H   0  0  0  0  0  0  0  0  0  0  0  0
   -5.6160    6.6070  -18.0260 H   0  0  0  0  0  0  0  0  0  0  0  0
   -9.1640    5.2090  -18.1750 H   0  0  0  0  0  0  0  0  0  0  0  0
  -10.4360    4.6880  -15.9150 H   0  0  0  0  0  0  0  0  0  0  0  0
   -9.7360    2.4680   -9.3730 H   0  0  0  0  0  0  0  0  0  0  0  0
   -9.3450    4.1000   -7.5040 H   0  0  0  0  0  0  0  0  0  0  0  0
   -8.4740    6.3760   -8.0550 H   0  0  0  0  0  0  0  0  0  0  0  0
   -6.3800    5.9600  -12.7680 H   0  0  0  0  0  0  0  0  0  0  0  0
   -5.7130    6.3260  -15.5920 H   0  0  0  0  0  0  0  0  0  0  0  0
  1  2  1  0
  2  3  2  0
  3  4  1  0
  4  5  2  0
  5  6  1  0
  6  7  2  0
  7  8  1  0
  8  9  2  0
  9 10  1  0
 10 11  2  0
 11 12  1  0
 12 13  2  0
 13 14  1  0
  7 15  1  0
 15 16  1  0
 16 17  2  0
 17  2  1  0
 16  5  1  0
 13  8  1  0
  1 18  1  0
  1 19  1  0
  1 20  1  0
  3 21  1  0
  4 22  1  0
 10 23  1  0
 11 24  1  0
 12 25  1  0
 15 26  1  0
 17 27  1  0
A    1
 C1 
A    2
 C2 
A    3
 C3 
A    4
 C4 
A    5
 C5 
A    6
 N1 
A    7
 C6 
A    8
 C7 
A    9
 N2 
A   10
 C8 
A   11
 C9 
A   12
 C10
A   13
 C11
A   14
 F1 
A   15
 N3 
A   16
 C12
A   17
 C13
A   18
 H1 
A   19
 H2 
A   20
 H3 
A   21
 H4 
A   22
 H5 
A   23
 H6 
A   24
 H7 
A   25
 H8 
A   26
 H9 
A   27
 H10
M  END
>  <ref_pdb>  (69) 
x0051_0B

>  <ref_mols>  (69) 
x0404_0B,x0969_0B

>  <original SMILES>  (69) 
[H]c1nc(-c2nc3c([H])c([H])c(C([H])([H])[H])c([H])c3n2[H])c(F)c([H])c1[H]

>  <index>  (69) 
3750

>  <∆∆G>  (69) 
-4.250051

>  <comRMSD>  (69) 
0.255613

>  <N_constrained_atoms>  (69) 
16.0

>  <N_unconstrained_atoms>  (69) 
1.0

>  <LE>  (69) 
0.250003

>  <percent_hybrid>  (69) 
0.0

>  <max_hit_Tanimoto>  (69) 
0.341772

>  <largest_ring>  (69) 
6

>  <N_interactions_kept>  (69) 
0.0

>  <N_interactions_lost>  (69) 
0.0

>  <interaction_uniqueness_metric>  (69) 
0.119206

>  <N_HA>  (69) 
17

>  <N_rotatable_bonds>  (69) 
2

>  <N_interactions>  (69) 
6

>  <N_PAINS>  (69) 
0

>  <UFF_Gibbs>  (69) 
32.26316

>  <strain_per_HA>  (69) 
1.897822

>  <ad_hoc_penalty>  (69) 
-40.278222

>  <cluster>  (69) 
2248

>  <merger_rank>  (69) 
2

>  <pication:ARG:29>  (69) 
0

>  <hbond:HIS:51>  (69) 
1

>  <pistack:HIS:51>  (69) 
1

>  <hydroph_interaction:TYR:161>  (69) 
2

>  <pication:HIS:51>  (69) 
0

>  <hydroph_interaction:ALA:132>  (69) 
1

>  <hydroph_interaction:TYR:150>  (69) 
0

>  <hydroph_interaction:LYS:54>  (69) 
0

>  <hbond:SER:135>  (69) 
0

>  <hydroph_interaction:HIS:51>  (69) 
1

>  <hbond:ASP:83>  (69) 
0

>  <hbond:ALA:132>  (69) 
0

>  <halogenbond:SER:81>  (69) 
0

>  <hbond:GLY:82>  (69) 
0

>  <saltbridge:HIS:51>  (69) 
0

>  <pistack:TYR:161>  (69) 
0

>  <hbond:SER:81>  (69) 
0

>  <hbond:ASN:152>  (69) 
0

>  <hbond:GLY:151>  (69) 
0

>  <hydroph_interaction:ASN:152>  (69) 
0

>  <hbond:TYR:161>  (69) 
0

>  <halogenbond:TYR:150>  (69) 
0

>  <hbond:ASP:75>  (69) 
0

>  <hbond:GLY:153>  (69) 
0

>  <hbond:VAL:36>  (69) 
0

>  <hbond:PRO:131>  (69) 
0

>  <hbond:VAL:52>  (69) 
0

>  <hydroph_interaction:ASP:83>  (69) 
0

>  <hydroph_interaction:MET:49>  (69) 
0

>  <hydroph_interaction:VAL:52>  (69) 
0

>  <saltbridge:ASP:83>  (69) 
0

>  <saltbridge:ASP:75>  (69) 
0

>  <hydroph_interaction:TRP:50>  (69) 
0

>  <hydroph_interaction:VAL:72>  (69) 
0

>  <hydroph_interaction:ASP:75>  (69) 
0

>  <halogenbond:ASN:152>  (69) 
0

>  <halogenbond:GLY:153>  (69) 
0

>  <halogenbond:TYR:130>  (69) 
0

>  <hbond:TYR:130>  (69) 
0

>  <halogenbond:ASP:75>  (69) 
0

>  <halogenbond:GLY:151>  (69) 
0

>  <hbond:TYR:150>  (69) 
0

>  <halogenbond:TYR:161>  (69) 
0

>  <hydroph_interaction:ASP:129>  (69) 
0

>  <hbond:ASP:129>  (69) 
0

>  <halogenbond:ALA:132>  (69) 
0

$$$$
Z4275406862
     RDKit          3D

 31 33  0  0  0  0  0  0  0  0999 V2000
   -8.5940    4.7390  -18.6300 C   0  0  0  0  0  0  0  0  0  0  0  0
   -7.8690    5.5130  -17.5290 C   0  0  0  0  0  0  0  0  0  0  0  0
   -8.1910    5.5160  -16.1020 C   0  0  0  0  0  0  0  0  0  0  0  0
   -7.3840    6.3010  -15.3630 C   0  0  0  0  0  0  0  0  0  0  0  0
   -7.4510    6.5040  -13.9410 C   0  0  0  0  0  0  0  0  0  0  0  0
   -8.6360    6.2760  -13.2980 N   0  0  0  0  0  0  0  0  0  0  0  0
   -8.7530    6.8250  -12.0380 C   0  0  0  0  0  0  0  0  0  0  0  0
   -8.8900    5.6890  -11.2630 C   0  0  0  0  0  0  0  0  0  0  0  0
   -8.9040    5.6950   -9.9170 C   0  0  0  0  0  0  0  0  0  0  0  0
   -9.0300    4.6930   -9.0750 N   0  0  0  0  0  0  0  0  0  0  0  0
   -9.1700    3.4560   -9.6810 C   0  0  0  0  0  0  0  0  0  0  0  0
   -9.2930    2.3760   -8.8450 N   0  0  0  0  0  0  0  0  0  0  0  0
   -9.1640    3.3750  -11.0500 N   0  0  0  0  0  0  0  0  0  0  0  0
   -9.0240    4.4820  -11.8020 C   0  0  0  0  0  0  0  0  0  0  0  0
   -8.9710    4.7710  -13.1900 C   0  0  0  0  0  0  0  0  0  0  0  0
   -6.4890    6.8560  -16.2420 N   0  0  0  0  0  0  0  0  0  0  0  0
   -6.7960    6.3710  -17.5190 N   0  0  0  0  0  0  0  0  0  0  0  0
   -9.3050    5.3770  -19.1600 H   0  0  0  0  0  0  0  0  0  0  0  0
   -7.8860    4.3510  -19.3640 H   0  0  0  0  0  0  0  0  0  0  0  0
   -9.1620    3.9050  -18.2110 H   0  0  0  0  0  0  0  0  0  0  0  0
   -9.0170    4.9330  -15.6710 H   0  0  0  0  0  0  0  0  0  0  0  0
   -6.7270    5.8000  -13.5160 H   0  0  0  0  0  0  0  0  0  0  0  0
   -7.1320    7.4580  -13.5470 H   0  0  0  0  0  0  0  0  0  0  0  0
   -7.8880    7.4450  -11.8390 H   0  0  0  0  0  0  0  0  0  0  0  0
   -9.5990    7.5010  -12.0730 H   0  0  0  0  0  0  0  0  0  0  0  0
   -8.7990    6.6430   -9.4030 H   0  0  0  0  0  0  0  0  0  0  0  0
   -8.3320    2.1170   -8.6580 H   0  0  0  0  0  0  0  0  0  0  0  0
   -9.8690    2.6260   -8.0550 H   0  0  0  0  0  0  0  0  0  0  0  0
   -9.9280    4.5600  -13.6710 H   0  0  0  0  0  0  0  0  0  0  0  0
   -8.2000    4.1390  -13.6390 H   0  0  0  0  0  0  0  0  0  0  0  0
   -6.2290    6.6790  -18.3040 H   0  0  0  0  0  0  0  0  0  0  0  0
  1  2  1  0
  2  3  2  0
  3  4  1  0
  4  5  1  0
  5  6  1  0
  6  7  1  0
  7  8  1  0
  8  9  2  0
  9 10  1  0
 10 11  2  0
 11 12  1  0
 11 13  1  0
 13 14  2  0
 14 15  1  0
  4 16  2  0
 16 17  1  0
 17  2  1  0
 15  6  1  0
 14  8  1  0
  1 18  1  0
  1 19  1  0
  1 20  1  0
  3 21  1  0
  5 22  1  0
  5 23  1  0
  7 24  1  0
  7 25  1  0
  9 26  1  0
 12 27  1  0
 12 28  1  0
 15 29  1  0
 15 30  1  0
 17 31  1  0
A    1
 C1 
A    2
 C2 
A    3
 C3 
A    4
 C4 
A    5
 C5 
A    6
 N1 
A    7
 C6 
A    8
 C7 
A    9
 C8 
A   10
 N2 
A   11
 C9 
A   12
 N3 
A   13
 N4 
A   14
 C10
A   15
 C11
A   16
 N5 
A   17
 N6 
A   18
 H1 
A   19
 H2 
A   20
 H3 
A   21
 H4 
A   22
 H5 
A   23
 H6 
A   24
 H7 
A   25
 H8 
A   26
 H9 
A   27
 H10
A   28
 H11
A   29
 H12
A   30
 H13
A   31
 H14
M  END
>  <ref_pdb>  (70) 
x0051_0B

>  <ref_mols>  (70) 
x0404_0B,x0969_0B

>  <original SMILES>  (70) 
[H]c1nc(N([H])[H])nc2c1C([H])([H])N(C([H])([H])c1nn([H])c(C([H])([H])[H])c1[H])C2([H])[H]

>  <index>  (70) 
4010

>  <∆∆G>  (70) 
-3.823141

>  <comRMSD>  (70) 
0.743123

>  <N_constrained_atoms>  (70) 
17.0

>  <N_unconstrained_atoms>  (70) 
1.0

>  <LE>  (70) 
0.212397

>  <percent_hybrid>  (70) 
0.0

>  <max_hit_Tanimoto>  (70) 
0.215979

>  <largest_ring>  (70) 
6

>  <N_interactions_kept>  (70) 
0.0

>  <N_interactions_lost>  (70) 
0.0

>  <interaction_uniqueness_metric>  (70) 
0.480871

>  <N_HA>  (70) 
17

>  <N_rotatable_bonds>  (70) 
4

>  <N_interactions>  (70) 
7

>  <N_PAINS>  (70) 
0

>  <UFF_Gibbs>  (70) 
118.63068

>  <strain_per_HA>  (70) 
6.978234

>  <ad_hoc_penalty>  (70) 
-40.224587

>  <cluster>  (70) 
2041

>  <merger_rank>  (70) 
1

>  <pication:ARG:29>  (70) 
0

>  <hbond:HIS:51>  (70) 
1

>  <pistack:HIS:51>  (70) 
1

>  <hydroph_interaction:TYR:161>  (70) 
2

>  <pication:HIS:51>  (70) 
0

>  <hydroph_interaction:ALA:132>  (70) 
1

>  <hydroph_interaction:TYR:150>  (70) 
0

>  <hydroph_interaction:LYS:54>  (70) 
0

>  <hbond:SER:135>  (70) 
0

>  <hydroph_interaction:HIS:51>  (70) 
0

>  <hbond:ASP:83>  (70) 
0

>  <hbond:ALA:132>  (70) 
0

>  <halogenbond:SER:81>  (70) 
0

>  <hbond:GLY:82>  (70) 
0

>  <saltbridge:HIS:51>  (70) 
0

>  <pistack:TYR:161>  (70) 
0

>  <hbond:SER:81>  (70) 
0

>  <hbond:ASN:152>  (70) 
0

>  <hbond:GLY:151>  (70) 
0

>  <hydroph_interaction:ASN:152>  (70) 
0

>  <hbond:TYR:161>  (70) 
0

>  <halogenbond:TYR:150>  (70) 
0

>  <hbond:ASP:75>  (70) 
0

>  <hbond:GLY:153>  (70) 
0

>  <hbond:VAL:36>  (70) 
0

>  <hbond:PRO:131>  (70) 
0

>  <hbond:VAL:52>  (70) 
0

>  <hydroph_interaction:ASP:83>  (70) 
0

>  <hydroph_interaction:MET:49>  (70) 
0

>  <hydroph_interaction:VAL:52>  (70) 
0

>  <saltbridge:ASP:83>  (70) 
1

>  <saltbridge:ASP:75>  (70) 
1

>  <hydroph_interaction:TRP:50>  (70) 
0

>  <hydroph_interaction:VAL:72>  (70) 
0

>  <hydroph_interaction:ASP:75>  (70) 
0

>  <halogenbond:ASN:152>  (70) 
0

>  <halogenbond:GLY:153>  (70) 
0

>  <halogenbond:TYR:130>  (70) 
0

>  <hbond:TYR:130>  (70) 
0

>  <halogenbond:ASP:75>  (70) 
0

>  <halogenbond:GLY:151>  (70) 
0

>  <hbond:TYR:150>  (70) 
0

>  <halogenbond:TYR:161>  (70) 
0

>  <hydroph_interaction:ASP:129>  (70) 
0

>  <hbond:ASP:129>  (70) 
0

>  <halogenbond:ALA:132>  (70) 
0

$$$$
PV-002453960592
     RDKit          3D

 25 26  0  0  0  0  0  0  0  0999 V2000
   -6.4400    5.6670  -18.8510 C   0  0  0  0  0  0  0  0  0  0  0  0
   -7.4620    5.4480  -17.7530 C   0  0  0  0  0  0  0  0  0  0  0  0
   -7.3500    5.9850  -16.3910 C   0  0  0  0  0  0  0  0  0  0  0  0
   -8.4230    5.5960  -15.7110 C   0  0  0  0  0  0  0  0  0  0  0  0
   -8.6080    5.9520  -14.3490 C   0  0  0  0  0  0  0  0  0  0  0  0
   -8.1320    7.1720  -13.9450 O   0  0  0  0  0  0  0  0  0  0  0  0
   -9.2550    5.0630  -13.6160 N   0  0  0  0  0  0  0  0  0  0  0  0
   -9.0680    5.0630  -12.2440 C   0  0  0  0  0  0  0  0  0  0  0  0
   -8.9990    6.2060  -11.4450 C   0  0  0  0  0  0  0  0  0  0  0  0
   -8.8270    6.1510  -10.0590 C   0  0  0  0  0  0  0  0  0  0  0  0
   -8.7340    4.8080   -9.6040 C   0  0  0  0  0  0  0  0  0  0  0  0
   -8.5600    4.5630   -8.2660 O   0  0  0  0  0  0  0  0  0  0  0  0
   -8.7870    3.6870  -10.2960 N   0  0  0  0  0  0  0  0  0  0  0  0
   -8.9580    3.8240  -11.6430 N   0  0  0  0  0  0  0  0  0  0  0  0
   -9.2520    4.8260  -16.5520 C   0  0  0  0  0  0  0  0  0  0  0  0
   -8.6520    4.7310  -17.8150 O   0  0  0  0  0  0  0  0  0  0  0  0
   -6.8630    5.3900  -19.8200 H   0  0  0  0  0  0  0  0  0  0  0  0
   -5.5580    5.0450  -18.6740 H   0  0  0  0  0  0  0  0  0  0  0  0
   -6.1370    6.7170  -18.9010 H   0  0  0  0  0  0  0  0  0  0  0  0
   -6.5820    6.5980  -15.9070 H   0  0  0  0  0  0  0  0  0  0  0  0
   -9.4920    4.1710  -14.0500 H   0  0  0  0  0  0  0  0  0  0  0  0
   -9.0880    7.1780  -11.9240 H   0  0  0  0  0  0  0  0  0  0  0  0
   -8.7720    7.0230   -9.4110 H   0  0  0  0  0  0  0  0  0  0  0  0
   -7.9280    3.8010   -8.1980 H   0  0  0  0  0  0  0  0  0  0  0  0
  -10.1960    4.3160  -16.4450 H   0  0  0  0  0  0  0  0  0  0  0  0
  1  2  1  0
  2  3  2  0
  3  4  1  0
  4  5  1  0
  5  6  2  0
  5  7  1  0
  7  8  1  0
  8  9  2  0
  9 10  1  0
 10 11  2  0
 11 12  1  0
 11 13  1  0
 13 14  2  0
  4 15  2  0
 15 16  1  0
 16  2  1  0
 14  8  1  0
  1 17  1  0
  1 18  1  0
  1 19  1  0
  3 20  1  0
  7 21  1  0
  9 22  1  0
 10 23  1  0
 12 24  1  0
 15 25  1  0
A    1
 C1 
A    2
 C2 
A    3
 C3 
A    4
 C4 
A    5
 C5 
A    6
 O1 
A    7
 N1 
A    8
 C6 
A    9
 C7 
A   10
 C8 
A   11
 C9 
A   12
 O2 
A   13
 N2 
A   14
 N3 
A   15
 C10
A   16
 O3 
A   17
 H1 
A   18
 H2 
A   19
 H3 
A   20
 H4 
A   21
 H5 
A   22
 H6 
A   23
 H7 
A   24
 H8 
A   25
 H9 
M  END
>  <ref_pdb>  (71) 
x0051_0B

>  <ref_mols>  (71) 
x0404_0B,x0969_0B

>  <original SMILES>  (71) 
[H]Oc1nnc(N([H])C(=O)c2c([H])oc(C([H])([H])[H])c2[H])c([H])c1[H]

>  <index>  (71) 
4291

>  <∆∆G>  (71) 
-6.412991

>  <comRMSD>  (71) 
0.437128

>  <N_constrained_atoms>  (71) 
16.0

>  <N_unconstrained_atoms>  (71) 
0.0

>  <LE>  (71) 
0.400812

>  <percent_hybrid>  (71) 
0.0

>  <max_hit_Tanimoto>  (71) 
0.440551

>  <largest_ring>  (71) 
6

>  <N_interactions_kept>  (71) 
0.0

>  <N_interactions_lost>  (71) 
0.0

>  <interaction_uniqueness_metric>  (71) 
0.212525

>  <N_HA>  (71) 
16

>  <N_rotatable_bonds>  (71) 
4

>  <N_interactions>  (71) 
6

>  <N_PAINS>  (71) 
0

>  <UFF_Gibbs>  (71) 
81.555833

>  <strain_per_HA>  (71) 
5.097208

>  <ad_hoc_penalty>  (71) 
-40.032821

>  <cluster>  (71) 
26

>  <merger_rank>  (71) 
2

>  <pication:ARG:29>  (71) 
0

>  <hbond:HIS:51>  (71) 
0

>  <pistack:HIS:51>  (71) 
1

>  <hydroph_interaction:TYR:161>  (71) 
1

>  <pication:HIS:51>  (71) 
0

>  <hydroph_interaction:ALA:132>  (71) 
1

>  <hydroph_interaction:TYR:150>  (71) 
0

>  <hydroph_interaction:LYS:54>  (71) 
0

>  <hbond:SER:135>  (71) 
0

>  <hydroph_interaction:HIS:51>  (71) 
1

>  <hbond:ASP:83>  (71) 
1

>  <hbond:ALA:132>  (71) 
0

>  <halogenbond:SER:81>  (71) 
0

>  <hbond:GLY:82>  (71) 
0

>  <saltbridge:HIS:51>  (71) 
0

>  <pistack:TYR:161>  (71) 
0

>  <hbond:SER:81>  (71) 
0

>  <hbond:ASN:152>  (71) 
0

>  <hbond:GLY:151>  (71) 
1

>  <hydroph_interaction:ASN:152>  (71) 
0

>  <hbond:TYR:161>  (71) 
0

>  <halogenbond:TYR:150>  (71) 
0

>  <hbond:ASP:75>  (71) 
0

>  <hbond:GLY:153>  (71) 
0

>  <hbond:VAL:36>  (71) 
0

>  <hbond:PRO:131>  (71) 
0

>  <hbond:VAL:52>  (71) 
0

>  <hydroph_interaction:ASP:83>  (71) 
0

>  <hydroph_interaction:MET:49>  (71) 
0

>  <hydroph_interaction:VAL:52>  (71) 
0

>  <saltbridge:ASP:83>  (71) 
0

>  <saltbridge:ASP:75>  (71) 
0

>  <hydroph_interaction:TRP:50>  (71) 
0

>  <hydroph_interaction:VAL:72>  (71) 
0

>  <hydroph_interaction:ASP:75>  (71) 
0

>  <halogenbond:ASN:152>  (71) 
0

>  <halogenbond:GLY:153>  (71) 
0

>  <halogenbond:TYR:130>  (71) 
0

>  <hbond:TYR:130>  (71) 
0

>  <halogenbond:ASP:75>  (71) 
0

>  <halogenbond:GLY:151>  (71) 
0

>  <hbond:TYR:150>  (71) 
0

>  <halogenbond:TYR:161>  (71) 
0

>  <hydroph_interaction:ASP:129>  (71) 
0

>  <hbond:ASP:129>  (71) 
0

>  <halogenbond:ALA:132>  (71) 
0

$$$$
Z1888944715
     RDKit          3D

 31 33  0  0  0  0  0  0  0  0999 V2000
   -9.8870    8.1990  -14.0220 C   0  0  0  0  0  0  0  0  0  0  0  0
   -8.6470    7.3890  -13.7100 C   0  0  0  0  0  0  0  0  0  0  0  0
   -7.9590    6.7290  -14.6850 N   0  0  0  0  0  0  0  0  0  0  0  0
   -8.5920    6.0210  -15.6540 C   0  0  0  0  0  0  0  0  0  0  0  0
   -9.8780    5.7010  -15.3350 O   0  0  0  0  0  0  0  0  0  0  0  0
   -8.0490    5.6400  -16.8720 C   0  0  0  0  0  0  0  0  0  0  0  0
   -6.7620    5.9650  -17.1260 N   0  0  0  0  0  0  0  0  0  0  0  0
   -6.5230    5.5060  -18.3250 C   0  0  0  0  0  0  0  0  0  0  0  0
   -7.5330    4.8210  -19.0850 C   0  0  0  0  0  0  0  0  0  0  0  0
   -9.0100    4.7610  -18.0720 S   0  0  0  0  0  0  0  0  0  0  0  0
   -8.7880    6.3460  -12.5910 C   0  0  0  0  0  0  0  0  0  0  0  0
   -8.7310    6.5020  -11.1550 C   0  0  0  0  0  0  0  0  0  0  0  0
   -8.9040    5.3650  -10.4290 C   0  0  0  0  0  0  0  0  0  0  0  0
   -8.8800    5.3260   -9.0560 C   0  0  0  0  0  0  0  0  0  0  0  0
   -9.0600    4.1920   -8.3590 C   0  0  0  0  0  0  0  0  0  0  0  0
   -9.2910    2.9480   -9.1980 C   0  0  0  0  0  0  0  0  0  0  0  0
   -9.3090    2.9970  -10.6020 C   0  0  0  0  0  0  0  0  0  0  0  0
   -9.1070    4.2500  -11.1980 C   0  0  0  0  0  0  0  0  0  0  0  0
   -9.0730    4.6740  -12.8890 S   0  0  0  0  0  0  0  0  0  0  0  0
   -9.6360    9.2370  -14.2690 H   0  0  0  0  0  0  0  0  0  0  0  0
  -10.5710    8.2160  -13.1680 H   0  0  0  0  0  0  0  0  0  0  0  0
  -10.4260    7.7610  -14.8710 H   0  0  0  0  0  0  0  0  0  0  0  0
   -7.9460    8.1410  -13.3260 H   0  0  0  0  0  0  0  0  0  0  0  0
   -6.9590    6.6490  -14.5630 H   0  0  0  0  0  0  0  0  0  0  0  0
   -5.5250    5.6550  -18.7530 H   0  0  0  0  0  0  0  0  0  0  0  0
   -7.5460    4.3660  -20.0830 H   0  0  0  0  0  0  0  0  0  0  0  0
   -8.5580    7.4820  -10.7040 H   0  0  0  0  0  0  0  0  0  0  0  0
   -8.7120    6.2580   -8.5090 H   0  0  0  0  0  0  0  0  0  0  0  0
   -9.0400    4.1700   -7.2790 H   0  0  0  0  0  0  0  0  0  0  0  0
   -9.4440    1.9930   -8.7130 H   0  0  0  0  0  0  0  0  0  0  0  0
   -9.4610    2.1840  -11.2970 H   0  0  0  0  0  0  0  0  0  0  0  0
  1  2  1  0
  2  3  1  0
  3  4  1  0
  4  5  2  0
  4  6  1  0
  6  7  2  0
  7  8  1  0
  8  9  2  0
  9 10  1  0
  2 11  1  0
 11 12  2  0
 12 13  1  0
 13 14  2  0
 14 15  1  0
 15 16  2  0
 16 17  1  0
 17 18  2  0
 18 19  1  0
 10  6  1  0
 19 11  1  0
 18 13  1  0
  1 20  1  0
  1 21  1  0
  1 22  1  0
  2 23  1  0
  3 24  1  0
  8 25  1  0
  9 26  1  0
 12 27  1  0
 14 28  1  0
 15 29  1  0
 16 30  1  0
 17 31  1  0
A    1
 C1 
A    2
 C2 
A    3
 N1 
A    4
 C3 
A    5
 O1 
A    6
 C4 
A    7
 N2 
A    8
 C5 
A    9
 C6 
A   10
 S1 
A   11
 C7 
A   12
 C8 
A   13
 C9 
A   14
 C10
A   15
 C11
A   16
 C12
A   17
 C13
A   18
 C14
A   19
 S2 
A   20
 H1 
A   21
 H2 
A   22
 H3 
A   23
 H4 
A   24
 H5 
A   25
 H6 
A   26
 H7 
A   27
 H8 
A   28
 H9 
A   29
 H10
A   30
 H11
A   31
 H12
M  END
>  <ref_pdb>  (72) 
x0051_0B

>  <ref_mols>  (72) 
x0404_0B,x0969_0B

>  <original SMILES>  (72) 
[H]c1nc(C(=O)N([H])C([H])(c2sc3c([H])c([H])c([H])c([H])c3c2[H])C([H])([H])[H])sc1[H]

>  <index>  (72) 
5988

>  <∆∆G>  (72) 
-6.689222

>  <comRMSD>  (72) 
0.339342

>  <N_constrained_atoms>  (72) 
19.0

>  <N_unconstrained_atoms>  (72) 
0.0

>  <LE>  (72) 
0.352064

>  <percent_hybrid>  (72) 
0.0

>  <max_hit_Tanimoto>  (72) 
0.424142

>  <largest_ring>  (72) 
6

>  <N_interactions_kept>  (72) 
0.0

>  <N_interactions_lost>  (72) 
0.0

>  <interaction_uniqueness_metric>  (72) 
0.115968

>  <N_HA>  (72) 
19

>  <N_rotatable_bonds>  (72) 
4

>  <N_interactions>  (72) 
6

>  <N_PAINS>  (72) 
0

>  <UFF_Gibbs>  (72) 
87.619625

>  <strain_per_HA>  (72) 
4.611535

>  <ad_hoc_penalty>  (72) 
-39.999636

>  <cluster>  (72) 
779

>  <merger_rank>  (72) 
2

>  <pication:ARG:29>  (72) 
0

>  <hbond:HIS:51>  (72) 
0

>  <pistack:HIS:51>  (72) 
2

>  <hydroph_interaction:TYR:161>  (72) 
0

>  <pication:HIS:51>  (72) 
0

>  <hydroph_interaction:ALA:132>  (72) 
1

>  <hydroph_interaction:TYR:150>  (72) 
0

>  <hydroph_interaction:LYS:54>  (72) 
0

>  <hbond:SER:135>  (72) 
1

>  <hydroph_interaction:HIS:51>  (72) 
1

>  <hbond:ASP:83>  (72) 
0

>  <hbond:ALA:132>  (72) 
0

>  <halogenbond:SER:81>  (72) 
0

>  <hbond:GLY:82>  (72) 
0

>  <saltbridge:HIS:51>  (72) 
0

>  <pistack:TYR:161>  (72) 
1

>  <hbond:SER:81>  (72) 
0

>  <hbond:ASN:152>  (72) 
0

>  <hbond:GLY:151>  (72) 
0

>  <hydroph_interaction:ASN:152>  (72) 
0

>  <hbond:TYR:161>  (72) 
0

>  <halogenbond:TYR:150>  (72) 
0

>  <hbond:ASP:75>  (72) 
0

>  <hbond:GLY:153>  (72) 
0

>  <hbond:VAL:36>  (72) 
0

>  <hbond:PRO:131>  (72) 
0

>  <hbond:VAL:52>  (72) 
0

>  <hydroph_interaction:ASP:83>  (72) 
0

>  <hydroph_interaction:MET:49>  (72) 
0

>  <hydroph_interaction:VAL:52>  (72) 
0

>  <saltbridge:ASP:83>  (72) 
0

>  <saltbridge:ASP:75>  (72) 
0

>  <hydroph_interaction:TRP:50>  (72) 
0

>  <hydroph_interaction:VAL:72>  (72) 
0

>  <hydroph_interaction:ASP:75>  (72) 
0

>  <halogenbond:ASN:152>  (72) 
0

>  <halogenbond:GLY:153>  (72) 
0

>  <halogenbond:TYR:130>  (72) 
0

>  <hbond:TYR:130>  (72) 
0

>  <halogenbond:ASP:75>  (72) 
0

>  <halogenbond:GLY:151>  (72) 
0

>  <hbond:TYR:150>  (72) 
0

>  <halogenbond:TYR:161>  (72) 
0

>  <hydroph_interaction:ASP:129>  (72) 
0

>  <hbond:ASP:129>  (72) 
0

>  <halogenbond:ALA:132>  (72) 
0

$$$$
Z28296766
     RDKit          3D

 28 30  0  0  0  0  0  0  0  0999 V2000
   -7.3050    5.2270  -19.6330 C   0  0  0  0  0  0  0  0  0  0  0  0
   -7.6800    5.4270  -18.1790 C   0  0  0  0  0  0  0  0  0  0  0  0
   -6.9730    6.2340  -17.3750 N   0  0  0  0  0  0  0  0  0  0  0  0
   -7.4930    6.2550  -16.1220 C   0  0  0  0  0  0  0  0  0  0  0  0
   -6.9890    6.9970  -15.0670 C   0  0  0  0  0  0  0  0  0  0  0  0
   -7.5840    6.9390  -13.8470 C   0  0  0  0  0  0  0  0  0  0  0  0
   -8.7310    6.1380  -13.5830 C   0  0  0  0  0  0  0  0  0  0  0  0
   -9.2640    6.1160  -12.3400 N   0  0  0  0  0  0  0  0  0  0  0  0
   -8.6000    5.0470  -11.7770 C   0  0  0  0  0  0  0  0  0  0  0  0
   -7.6810    4.5320  -12.4150 O   0  0  0  0  0  0  0  0  0  0  0  0
   -8.9150    4.4860  -10.4590 C   0  0  0  0  0  0  0  0  0  0  0  0
   -8.8940    5.0880   -9.2260 C   0  0  0  0  0  0  0  0  0  0  0  0
   -9.2650    4.2210   -8.1000 C   0  0  0  0  0  0  0  0  0  0  0  0
   -9.5580    2.9540   -8.5780 C   0  0  0  0  0  0  0  0  0  0  0  0
   -9.3870    2.8440  -10.2800 S   0  0  0  0  0  0  0  0  0  0  0  0
   -9.2670    5.3800  -14.6540 C   0  0  0  0  0  0  0  0  0  0  0  0
   -8.6220    5.4630  -15.9120 C   0  0  0  0  0  0  0  0  0  0  0  0
   -9.0180    4.6730  -17.4040 S   0  0  0  0  0  0  0  0  0  0  0  0
   -6.3820    4.6490  -19.7110 H   0  0  0  0  0  0  0  0  0  0  0  0
   -8.0910    4.6910  -20.1790 H   0  0  0  0  0  0  0  0  0  0  0  0
   -7.1470    6.1890  -20.1340 H   0  0  0  0  0  0  0  0  0  0  0  0
   -6.1050    7.6250  -15.2330 H   0  0  0  0  0  0  0  0  0  0  0  0
   -7.1740    7.5250  -13.0320 H   0  0  0  0  0  0  0  0  0  0  0  0
   -9.2330    6.9880  -11.8320 H   0  0  0  0  0  0  0  0  0  0  0  0
   -8.6380    6.1200   -8.9990 H   0  0  0  0  0  0  0  0  0  0  0  0
   -9.3080    4.5130   -7.0600 H   0  0  0  0  0  0  0  0  0  0  0  0
   -9.8680    2.0680   -8.0340 H   0  0  0  0  0  0  0  0  0  0  0  0
  -10.1410    4.7650  -14.4810 H   0  0  0  0  0  0  0  0  0  0  0  0
  1  2  1  0
  2  3  2  0
  3  4  1  0
  4  5  2  0
  5  6  1  0
  6  7  2  0
  7  8  1  0
  8  9  1  0
  9 10  2  0
  9 11  1  0
 11 12  2  0
 12 13  1  0
 13 14  2  0
 14 15  1  0
  7 16  1  0
 16 17  2  0
 17 18  1  0
 18  2  1  0
 17  4  1  0
 15 11  1  0
  1 19  1  0
  1 20  1  0
  1 21  1  0
  5 22  1  0
  6 23  1  0
  8 24  1  0
 12 25  1  0
 13 26  1  0
 14 27  1  0
 16 28  1  0
A    1
 C1 
A    2
 C2 
A    3
 N1 
A    4
 C3 
A    5
 C4 
A    6
 C5 
A    7
 C6 
A    8
 N2 
A    9
 C7 
A   10
 O1 
A   11
 C8 
A   12
 C9 
A   13
 C10
A   14
 C11
A   15
 S1 
A   16
 C12
A   17
 C13
A   18
 S2 
A   19
 H1 
A   20
 H2 
A   21
 H3 
A   22
 H4 
A   23
 H5 
A   24
 H6 
A   25
 H7 
A   26
 H8 
A   27
 H9 
A   28
 H10
M  END
>  <ref_pdb>  (73) 
x0051_0B

>  <ref_mols>  (73) 
x0404_0B,x0969_0B

>  <original SMILES>  (73) 
[H]c1sc(C(=O)N([H])c2c([H])c([H])c3nc(C([H])([H])[H])sc3c2[H])c([H])c1[H]

>  <index>  (73) 
6043

>  <∆∆G>  (73) 
-7.470678

>  <comRMSD>  (73) 
0.189973

>  <N_constrained_atoms>  (73) 
17.0

>  <N_unconstrained_atoms>  (73) 
1.0

>  <LE>  (73) 
0.415038

>  <percent_hybrid>  (73) 
0.0

>  <max_hit_Tanimoto>  (73) 
0.250696

>  <largest_ring>  (73) 
6

>  <N_interactions_kept>  (73) 
0.0

>  <N_interactions_lost>  (73) 
0.0

>  <interaction_uniqueness_metric>  (73) 
0.112617

>  <N_HA>  (73) 
18

>  <N_rotatable_bonds>  (73) 
3

>  <N_interactions>  (73) 
5

>  <N_PAINS>  (73) 
0

>  <UFF_Gibbs>  (73) 
70.45526

>  <strain_per_HA>  (73) 
3.914159

>  <ad_hoc_penalty>  (73) 
-39.900911

>  <cluster>  (73) 
759

>  <merger_rank>  (73) 
2

>  <pication:ARG:29>  (73) 
0

>  <hbond:HIS:51>  (73) 
1

>  <pistack:HIS:51>  (73) 
1

>  <hydroph_interaction:TYR:161>  (73) 
1

>  <pication:HIS:51>  (73) 
0

>  <hydroph_interaction:ALA:132>  (73) 
1

>  <hydroph_interaction:TYR:150>  (73) 
0

>  <hydroph_interaction:LYS:54>  (73) 
0

>  <hbond:SER:135>  (73) 
0

>  <hydroph_interaction:HIS:51>  (73) 
1

>  <hbond:ASP:83>  (73) 
0

>  <hbond:ALA:132>  (73) 
0

>  <halogenbond:SER:81>  (73) 
0

>  <hbond:GLY:82>  (73) 
0

>  <saltbridge:HIS:51>  (73) 
0

>  <pistack:TYR:161>  (73) 
0

>  <hbond:SER:81>  (73) 
0

>  <hbond:ASN:152>  (73) 
0

>  <hbond:GLY:151>  (73) 
0

>  <hydroph_interaction:ASN:152>  (73) 
0

>  <hbond:TYR:161>  (73) 
0

>  <halogenbond:TYR:150>  (73) 
0

>  <hbond:ASP:75>  (73) 
0

>  <hbond:GLY:153>  (73) 
0

>  <hbond:VAL:36>  (73) 
0

>  <hbond:PRO:131>  (73) 
0

>  <hbond:VAL:52>  (73) 
0

>  <hydroph_interaction:ASP:83>  (73) 
0

>  <hydroph_interaction:MET:49>  (73) 
0

>  <hydroph_interaction:VAL:52>  (73) 
0

>  <saltbridge:ASP:83>  (73) 
0

>  <saltbridge:ASP:75>  (73) 
0

>  <hydroph_interaction:TRP:50>  (73) 
0

>  <hydroph_interaction:VAL:72>  (73) 
0

>  <hydroph_interaction:ASP:75>  (73) 
0

>  <halogenbond:ASN:152>  (73) 
0

>  <halogenbond:GLY:153>  (73) 
0

>  <halogenbond:TYR:130>  (73) 
0

>  <hbond:TYR:130>  (73) 
0

>  <halogenbond:ASP:75>  (73) 
0

>  <halogenbond:GLY:151>  (73) 
0

>  <hbond:TYR:150>  (73) 
0

>  <halogenbond:TYR:161>  (73) 
0

>  <hydroph_interaction:ASP:129>  (73) 
0

>  <hbond:ASP:129>  (73) 
0

>  <halogenbond:ALA:132>  (73) 
0

$$$$
PV-002350864136
     RDKit          3D

 29 30  0  0  0  0  0  0  0  0999 V2000
   -5.7020    5.4040  -18.8320 C   0  0  0  0  0  0  0  0  0  0  0  0
   -7.0630    5.5320  -18.7790 C   0  0  0  0  0  0  0  0  0  0  0  0
   -7.4090    5.5240  -17.4200 C   0  0  0  0  0  0  0  0  0  0  0  0
   -8.6790    5.1310  -17.0860 C   0  0  0  0  0  0  0  0  0  0  0  0
   -9.2060    5.0800  -15.7080 C   0  0  0  0  0  0  0  0  0  0  0  0
   -9.1630    6.5380  -14.8400 S   0  0  0  0  0  0  0  0  0  0  0  0
   -9.0380    6.0060  -13.2310 C   0  0  0  0  0  0  0  0  0  0  0  0
   -8.7700    6.8010  -12.0860 N   0  0  0  0  0  0  0  0  0  0  0  0
   -8.7780    6.0130  -11.0290 C   0  0  0  0  0  0  0  0  0  0  0  0
   -8.5820    6.2980   -9.6750 C   0  0  0  0  0  0  0  0  0  0  0  0
   -8.6720    5.0980   -8.6900 C   0  0  0  0  0  0  0  0  0  0  0  0
   -8.9350    3.8320   -9.1990 C   0  0  0  0  0  0  0  0  0  0  0  0
   -9.1170    3.6070  -10.5490 C   0  0  0  0  0  0  0  0  0  0  0  0
   -9.0410    4.6860  -11.4590 C   0  0  0  0  0  0  0  0  0  0  0  0
   -9.1920    4.7440  -12.8570 N   0  0  0  0  0  0  0  0  0  0  0  0
   -5.2100    6.3780  -18.7600 H   0  0  0  0  0  0  0  0  0  0  0  0
   -5.3550    4.7970  -17.9880 H   0  0  0  0  0  0  0  0  0  0  0  0
   -5.3690    4.9140  -19.7510 H   0  0  0  0  0  0  0  0  0  0  0  0
   -7.3320    6.2740  -19.5410 H   0  0  0  0  0  0  0  0  0  0  0  0
   -7.4750    4.6100  -19.2000 H   0  0  0  0  0  0  0  0  0  0  0  0
   -6.6780    5.8320  -16.6740 H   0  0  0  0  0  0  0  0  0  0  0  0
   -9.4090    4.8250  -17.8460 H   0  0  0  0  0  0  0  0  0  0  0  0
  -10.2350    4.7100  -15.7060 H   0  0  0  0  0  0  0  0  0  0  0  0
   -8.5910    4.3530  -15.1620 H   0  0  0  0  0  0  0  0  0  0  0  0
   -8.3790    7.3090   -9.3370 H   0  0  0  0  0  0  0  0  0  0  0  0
   -8.5300    5.2470   -7.6240 H   0  0  0  0  0  0  0  0  0  0  0  0
   -8.9980    2.9940   -8.5190 H   0  0  0  0  0  0  0  0  0  0  0  0
   -9.3210    2.6010  -10.9020 H   0  0  0  0  0  0  0  0  0  0  0  0
   -9.3950    3.9690  -13.4990 H   0  0  0  0  0  0  0  0  0  0  0  0
  1  2  1  0
  2  3  1  0
  3  4  2  3
  4  5  1  0
  5  6  1  0
  6  7  1  0
  7  8  2  0
  8  9  1  0
  9 10  2  0
 10 11  1  0
 11 12  2  0
 12 13  1  0
 13 14  2  0
 14 15  1  0
 15  7  1  0
 14  9  1  0
  1 16  1  0
  1 17  1  0
  1 18  1  0
  2 19  1  0
  2 20  1  0
  3 21  1  0
  4 22  1  0
  5 23  1  0
  5 24  1  0
 10 25  1  0
 11 26  1  0
 12 27  1  0
 13 28  1  0
 15 29  1  0
A    1
 C1 
A    2
 C2 
A    3
 C3 
A    4
 C4 
A    5
 C5 
A    6
 S1 
A    7
 C6 
A    8
 N1 
A    9
 C7 
A   10
 C8 
A   11
 C9 
A   12
 C10
A   13
 C11
A   14
 C12
A   15
 N2 
A   16
 H1 
A   17
 H2 
A   18
 H3 
A   19
 H4 
A   20
 H5 
A   21
 H6 
A   22
 H7 
A   23
 H8 
A   24
 H9 
A   25
 H10
A   26
 H11
A   27
 H12
A   28
 H13
A   29
 H14
M  END
>  <ref_pdb>  (74) 
x0051_0B

>  <ref_mols>  (74) 
x0404_0B,x0969_0B

>  <original SMILES>  (74) 
[H]C(=C([H])C([H])([H])C([H])([H])[H])C([H])([H])Sc1nc2c([H])c([H])c([H])c([H])c2n1[H]

>  <index>  (74) 
2337

>  <∆∆G>  (74) 
-5.061423

>  <comRMSD>  (74) 
0.587854

>  <N_constrained_atoms>  (74) 
14.0

>  <N_unconstrained_atoms>  (74) 
1.0

>  <LE>  (74) 
0.337428

>  <percent_hybrid>  (74) 
0.0

>  <max_hit_Tanimoto>  (74) 
0.374083

>  <largest_ring>  (74) 
6

>  <N_interactions_kept>  (74) 
0.0

>  <N_interactions_lost>  (74) 
0.0

>  <interaction_uniqueness_metric>  (74) 
0.139059

>  <N_HA>  (74) 
15

>  <N_rotatable_bonds>  (74) 
5

>  <N_interactions>  (74) 
8

>  <N_PAINS>  (74) 
0

>  <UFF_Gibbs>  (74) 
88.066142

>  <strain_per_HA>  (74) 
5.871037

>  <ad_hoc_penalty>  (74) 
-39.768491

>  <cluster>  (74) 
3123

>  <merger_rank>  (74) 
1

>  <pication:ARG:29>  (74) 
0

>  <hbond:HIS:51>  (74) 
0

>  <pistack:HIS:51>  (74) 
2

>  <hydroph_interaction:TYR:161>  (74) 
3

>  <pication:HIS:51>  (74) 
0

>  <hydroph_interaction:ALA:132>  (74) 
1

>  <hydroph_interaction:TYR:150>  (74) 
0

>  <hydroph_interaction:LYS:54>  (74) 
0

>  <hbond:SER:135>  (74) 
0

>  <hydroph_interaction:HIS:51>  (74) 
1

>  <hbond:ASP:83>  (74) 
0

>  <hbond:ALA:132>  (74) 
0

>  <halogenbond:SER:81>  (74) 
0

>  <hbond:GLY:82>  (74) 
0

>  <saltbridge:HIS:51>  (74) 
0

>  <pistack:TYR:161>  (74) 
0

>  <hbond:SER:81>  (74) 
0

>  <hbond:ASN:152>  (74) 
0

>  <hbond:GLY:151>  (74) 
1

>  <hydroph_interaction:ASN:152>  (74) 
0

>  <hbond:TYR:161>  (74) 
0

>  <halogenbond:TYR:150>  (74) 
0

>  <hbond:ASP:75>  (74) 
0

>  <hbond:GLY:153>  (74) 
0

>  <hbond:VAL:36>  (74) 
0

>  <hbond:PRO:131>  (74) 
0

>  <hbond:VAL:52>  (74) 
0

>  <hydroph_interaction:ASP:83>  (74) 
0

>  <hydroph_interaction:MET:49>  (74) 
0

>  <hydroph_interaction:VAL:52>  (74) 
0

>  <saltbridge:ASP:83>  (74) 
0

>  <saltbridge:ASP:75>  (74) 
0

>  <hydroph_interaction:TRP:50>  (74) 
0

>  <hydroph_interaction:VAL:72>  (74) 
0

>  <hydroph_interaction:ASP:75>  (74) 
0

>  <halogenbond:ASN:152>  (74) 
0

>  <halogenbond:GLY:153>  (74) 
0

>  <halogenbond:TYR:130>  (74) 
0

>  <hbond:TYR:130>  (74) 
0

>  <halogenbond:ASP:75>  (74) 
0

>  <halogenbond:GLY:151>  (74) 
0

>  <hbond:TYR:150>  (74) 
0

>  <halogenbond:TYR:161>  (74) 
0

>  <hydroph_interaction:ASP:129>  (74) 
0

>  <hbond:ASP:129>  (74) 
0

>  <halogenbond:ALA:132>  (74) 
0

$$$$
PV-003664218139
     RDKit          3D

 25 27  0  0  0  0  0  0  0  0999 V2000
  -10.0660    4.6830  -18.2230 C   0  0  0  0  0  0  0  0  0  0  0  0
   -9.4760    4.9230  -16.8300 C   0  0  0  0  0  0  0  0  0  0  0  0
   -8.0320    4.9820  -16.7110 C   0  0  0  0  0  0  0  0  0  0  0  0
   -7.6040    5.1830  -15.4610 C   0  0  0  0  0  0  0  0  0  0  0  0
   -8.8540    5.2550  -14.7930 C   0  0  0  0  0  0  0  0  0  0  0  0
   -8.8240    5.4760  -13.4160 C   0  0  0  0  0  0  0  0  0  0  0  0
   -8.6670    6.8420  -12.8520 C   0  0  0  0  0  0  0  0  0  0  0  0
   -8.6690    6.7650  -11.5400 N   0  0  0  0  0  0  0  0  0  0  0  0
   -8.8180    5.4510  -11.1410 C   0  0  0  0  0  0  0  0  0  0  0  0
   -8.8880    4.8020   -9.7280 C   0  0  0  0  0  0  0  0  0  0  0  0
   -9.0420    3.4420   -9.6610 C   0  0  0  0  0  0  0  0  0  0  0  0
   -9.1170    2.7780  -10.8870 C   0  0  0  0  0  0  0  0  0  0  0  0
   -9.0620    3.2940  -12.1470 N   0  0  0  0  0  0  0  0  0  0  0  0
   -8.9140    4.6320  -12.2670 C   0  0  0  0  0  0  0  0  0  0  0  0
   -9.9540    5.0910  -15.6710 O   0  0  0  0  0  0  0  0  0  0  0  0
   -9.8820    3.6510  -18.5360 H   0  0  0  0  0  0  0  0  0  0  0  0
  -11.1480    4.8340  -18.2090 H   0  0  0  0  0  0  0  0  0  0  0  0
   -9.6510    5.3630  -18.9720 H   0  0  0  0  0  0  0  0  0  0  0  0
   -7.3720    4.8670  -17.5610 H   0  0  0  0  0  0  0  0  0  0  0  0
   -6.6650    5.2900  -14.9110 H   0  0  0  0  0  0  0  0  0  0  0  0
   -8.5650    7.7590  -13.4290 H   0  0  0  0  0  0  0  0  0  0  0  0
   -8.5790    7.5500  -10.9110 H   0  0  0  0  0  0  0  0  0  0  0  0
   -8.8230    5.3530   -8.8000 H   0  0  0  0  0  0  0  0  0  0  0  0
   -9.0980    2.9060   -8.7160 H   0  0  0  0  0  0  0  0  0  0  0  0
   -9.2320    1.7120  -10.8780 H   0  0  0  0  0  0  0  0  0  0  0  0
  1  2  1  0
  2  3  2  0
  3  4  1  0
  4  5  2  0
  5  6  1  0
  6  7  2  0
  7  8  1  0
  8  9  1  0
  9 10  2  0
 10 11  1  0
 11 12  2  0
 12 13  1  0
 13 14  2  0
  5 15  1  0
 15  2  1  0
 14  6  1  0
 14  9  1  0
  1 16  1  0
  1 17  1  0
  1 18  1  0
  3 19  1  0
  4 20  1  0
  7 21  1  0
  8 22  1  0
 10 23  1  0
 11 24  1  0
 12 25  1  0
A    1
 C1 
A    2
 C2 
A    3
 C3 
A    4
 C4 
A    5
 C5 
A    6
 C6 
A    7
 C7 
A    8
 N1 
A    9
 C8 
A   10
 C9 
A   11
 C10
A   12
 C11
A   13
 N2 
A   14
 C12
A   15
 O1 
A   16
 H1 
A   17
 H2 
A   18
 H3 
A   19
 H4 
A   20
 H5 
A   21
 H6 
A   22
 H7 
A   23
 H8 
A   24
 H9 
A   25
 H10
M  END
>  <ref_pdb>  (75) 
x0051_0B

>  <ref_mols>  (75) 
x0969_1B,x0553_0B

>  <original SMILES>  (75) 
[H]c1nc2c(-c3oc(C([H])([H])[H])c([H])c3[H])c([H])n([H])c2c([H])c1[H]

>  <index>  (75) 
1312

>  <∆∆G>  (75) 
-5.022397

>  <comRMSD>  (75) 
0.341469

>  <N_constrained_atoms>  (75) 
14.0

>  <N_unconstrained_atoms>  (75) 
1.0

>  <LE>  (75) 
0.334826

>  <percent_hybrid>  (75) 
0.0

>  <max_hit_Tanimoto>  (75) 
0.321987

>  <largest_ring>  (75) 
6

>  <N_interactions_kept>  (75) 
0.0

>  <N_interactions_lost>  (75) 
0.0

>  <interaction_uniqueness_metric>  (75) 
0.14733

>  <N_HA>  (75) 
15

>  <N_rotatable_bonds>  (75) 
2

>  <N_interactions>  (75) 
6

>  <N_PAINS>  (75) 
0

>  <UFF_Gibbs>  (75) 
74.307256

>  <strain_per_HA>  (75) 
4.953784

>  <ad_hoc_penalty>  (75) 
-39.682005

>  <cluster>  (75) 
279

>  <merger_rank>  (75) 
4

>  <pication:ARG:29>  (75) 
0

>  <hbond:HIS:51>  (75) 
0

>  <pistack:HIS:51>  (75) 
2

>  <hydroph_interaction:TYR:161>  (75) 
1

>  <pication:HIS:51>  (75) 
0

>  <hydroph_interaction:ALA:132>  (75) 
0

>  <hydroph_interaction:TYR:150>  (75) 
1

>  <hydroph_interaction:LYS:54>  (75) 
0

>  <hbond:SER:135>  (75) 
0

>  <hydroph_interaction:HIS:51>  (75) 
1

>  <hbond:ASP:83>  (75) 
0

>  <hbond:ALA:132>  (75) 
0

>  <halogenbond:SER:81>  (75) 
0

>  <hbond:GLY:82>  (75) 
0

>  <saltbridge:HIS:51>  (75) 
0

>  <pistack:TYR:161>  (75) 
0

>  <hbond:SER:81>  (75) 
0

>  <hbond:ASN:152>  (75) 
0

>  <hbond:GLY:151>  (75) 
0

>  <hydroph_interaction:ASN:152>  (75) 
0

>  <hbond:TYR:161>  (75) 
1

>  <halogenbond:TYR:150>  (75) 
0

>  <hbond:ASP:75>  (75) 
0

>  <hbond:GLY:153>  (75) 
0

>  <hbond:VAL:36>  (75) 
0

>  <hbond:PRO:131>  (75) 
0

>  <hbond:VAL:52>  (75) 
0

>  <hydroph_interaction:ASP:83>  (75) 
0

>  <hydroph_interaction:MET:49>  (75) 
0

>  <hydroph_interaction:VAL:52>  (75) 
0

>  <saltbridge:ASP:83>  (75) 
0

>  <saltbridge:ASP:75>  (75) 
0

>  <hydroph_interaction:TRP:50>  (75) 
0

>  <hydroph_interaction:VAL:72>  (75) 
0

>  <hydroph_interaction:ASP:75>  (75) 
0

>  <halogenbond:ASN:152>  (75) 
0

>  <halogenbond:GLY:153>  (75) 
0

>  <halogenbond:TYR:130>  (75) 
0

>  <hbond:TYR:130>  (75) 
0

>  <halogenbond:ASP:75>  (75) 
0

>  <halogenbond:GLY:151>  (75) 
0

>  <hbond:TYR:150>  (75) 
0

>  <halogenbond:TYR:161>  (75) 
0

>  <hydroph_interaction:ASP:129>  (75) 
0

>  <hbond:ASP:129>  (75) 
0

>  <halogenbond:ALA:132>  (75) 
0

$$$$
PV-002789675212
     RDKit          3D

 34 36  0  0  0  0  0  0  0  0999 V2000
   -8.4880    4.2750  -19.2600 C   0  0  0  0  0  0  0  0  0  0  0  0
   -8.3200    4.9760  -17.9720 C   0  0  0  0  0  0  0  0  0  0  0  0
   -9.2040    4.9230  -16.8950 C   0  0  0  0  0  0  0  0  0  0  0  0
   -8.9010    5.7050  -15.7110 C   0  0  0  0  0  0  0  0  0  0  0  0
   -7.7320    6.4790  -15.7020 C   0  0  0  0  0  0  0  0  0  0  0  0
   -7.2810    7.3390  -14.6400 C   0  0  0  0  0  0  0  0  0  0  0  0
   -8.0410    7.1410  -13.4890 C   0  0  0  0  0  0  0  0  0  0  0  0
   -8.9480    7.9800  -12.9590 N   0  0  0  0  0  0  0  0  0  0  0  0
   -9.4120    7.3630  -11.8070 N   0  0  0  0  0  0  0  0  0  0  0  0
   -8.7080    6.1870  -11.7860 C   0  0  0  0  0  0  0  0  0  0  0  0
   -8.8660    5.1400  -10.6890 C   0  0  0  0  0  0  0  0  0  0  0  0
   -8.9460    5.4990   -9.3780 N   0  0  0  0  0  0  0  0  0  0  0  0
   -9.0840    4.4980   -8.4720 C   0  0  0  0  0  0  0  0  0  0  0  0
   -9.1470    3.1570   -8.7950 C   0  0  0  0  0  0  0  0  0  0  0  0
   -9.0400    2.9150  -10.2670 C   0  0  0  0  0  0  0  0  0  0  0  0
   -8.9030    3.8740  -11.2030 N   0  0  0  0  0  0  0  0  0  0  0  0
   -7.8480    5.9870  -12.7970 O   0  0  0  0  0  0  0  0  0  0  0  0
   -6.8940    6.4720  -16.7870 C   0  0  0  0  0  0  0  0  0  0  0  0
   -7.1650    5.7430  -17.9090 C   0  0  0  0  0  0  0  0  0  0  0  0
   -6.2110    5.7910  -19.0660 C   0  0  0  0  0  0  0  0  0  0  0  0
   -7.5290    4.1010  -19.7550 H   0  0  0  0  0  0  0  0  0  0  0  0
   -9.0020    3.3220  -19.1190 H   0  0  0  0  0  0  0  0  0  0  0  0
   -9.1000    4.8840  -19.9360 H   0  0  0  0  0  0  0  0  0  0  0  0
  -10.0950    4.3190  -16.9530 H   0  0  0  0  0  0  0  0  0  0  0  0
   -9.5590    5.7050  -14.8510 H   0  0  0  0  0  0  0  0  0  0  0  0
   -6.2410    7.2020  -14.3730 H   0  0  0  0  0  0  0  0  0  0  0  0
   -7.1660    8.3760  -14.9200 H   0  0  0  0  0  0  0  0  0  0  0  0
   -9.1460    4.8190   -7.4400 H   0  0  0  0  0  0  0  0  0  0  0  0
   -9.2600    2.3650   -8.0640 H   0  0  0  0  0  0  0  0  0  0  0  0
   -9.0800    1.8690  -10.5620 H   0  0  0  0  0  0  0  0  0  0  0  0
   -5.9820    7.0770  -16.7540 H   0  0  0  0  0  0  0  0  0  0  0  0
   -5.6320    4.8650  -19.1220 H   0  0  0  0  0  0  0  0  0  0  0  0
   -6.7590    5.9400  -20.0030 H   0  0  0  0  0  0  0  0  0  0  0  0
   -5.5020    6.6190  -18.9670 H   0  0  0  0  0  0  0  0  0  0  0  0
  1  2  1  0
  2  3  2  0
  3  4  1  0
  4  5  2  0
  5  6  1  0
  6  7  1  0
  7  8  2  0
  8  9  1  0
  9 10  2  0
 10 11  1  0
 11 12  2  0
 12 13  1  0
 13 14  2  0
 14 15  1  0
 15 16  2  0
 10 17  1  0
  5 18  1  0
 18 19  2  0
 19 20  1  0
 19  2  1  0
 17  7  1  0
 16 11  1  0
  1 21  1  0
  1 22  1  0
  1 23  1  0
  3 24  1  0
  4 25  1  0
  6 26  1  0
  6 27  1  0
 13 28  1  0
 14 29  1  0
 15 30  1  0
 18 31  1  0
 20 32  1  0
 20 33  1  0
 20 34  1  0
A    1
 C1 
A    2
 C2 
A    3
 C3 
A    4
 C4 
A    5
 C5 
A    6
 C6 
A    7
 C7 
A    8
 N1 
A    9
 N2 
A   10
 C8 
A   11
 C9 
A   12
 N3 
A   13
 C10
A   14
 C11
A   15
 C12
A   16
 N4 
A   17
 O1 
A   18
 C13
A   19
 C14
A   20
 C15
A   21
 H1 
A   22
 H2 
A   23
 H3 
A   24
 H4 
A   25
 H5 
A   26
 H6 
A   27
 H7 
A   28
 H8 
A   29
 H9 
A   30
 H10
A   31
 H11
A   32
 H12
A   33
 H13
A   34
 H14
M  END
>  <ref_pdb>  (76) 
x0051_0B

>  <ref_mols>  (76) 
x0404_0B,x0969_0B

>  <original SMILES>  (76) 
[H]c1nc(-c2nnc(C([H])([H])c3c([H])c([H])c(C([H])([H])[H])c(C([H])([H])[H])c3[H])o2)nc([H])c1[H]

>  <index>  (76) 
4248

>  <∆∆G>  (76) 
-7.27842

>  <comRMSD>  (76) 
0.480234

>  <N_constrained_atoms>  (76) 
19.0

>  <N_unconstrained_atoms>  (76) 
1.0

>  <LE>  (76) 
0.363921

>  <percent_hybrid>  (76) 
0.0

>  <max_hit_Tanimoto>  (76) 
0.396088

>  <largest_ring>  (76) 
6

>  <N_interactions_kept>  (76) 
0.0

>  <N_interactions_lost>  (76) 
0.0

>  <interaction_uniqueness_metric>  (76) 
0.142323

>  <N_HA>  (76) 
20

>  <N_rotatable_bonds>  (76) 
5

>  <N_interactions>  (76) 
6

>  <N_PAINS>  (76) 
0

>  <UFF_Gibbs>  (76) 
74.832429

>  <strain_per_HA>  (76) 
3.741603

>  <ad_hoc_penalty>  (76) 
-39.636213

>  <cluster>  (76) 
184

>  <merger_rank>  (76) 
2

>  <pication:ARG:29>  (76) 
0

>  <hbond:HIS:51>  (76) 
0

>  <pistack:HIS:51>  (76) 
1

>  <hydroph_interaction:TYR:161>  (76) 
2

>  <pication:HIS:51>  (76) 
0

>  <hydroph_interaction:ALA:132>  (76) 
1

>  <hydroph_interaction:TYR:150>  (76) 
1

>  <hydroph_interaction:LYS:54>  (76) 
0

>  <hbond:SER:135>  (76) 
0

>  <hydroph_interaction:HIS:51>  (76) 
1

>  <hbond:ASP:83>  (76) 
0

>  <hbond:ALA:132>  (76) 
0

>  <halogenbond:SER:81>  (76) 
0

>  <hbond:GLY:82>  (76) 
0

>  <saltbridge:HIS:51>  (76) 
0

>  <pistack:TYR:161>  (76) 
0

>  <hbond:SER:81>  (76) 
0

>  <hbond:ASN:152>  (76) 
0

>  <hbond:GLY:151>  (76) 
0

>  <hydroph_interaction:ASN:152>  (76) 
0

>  <hbond:TYR:161>  (76) 
0

>  <halogenbond:TYR:150>  (76) 
0

>  <hbond:ASP:75>  (76) 
0

>  <hbond:GLY:153>  (76) 
0

>  <hbond:VAL:36>  (76) 
0

>  <hbond:PRO:131>  (76) 
0

>  <hbond:VAL:52>  (76) 
0

>  <hydroph_interaction:ASP:83>  (76) 
0

>  <hydroph_interaction:MET:49>  (76) 
0

>  <hydroph_interaction:VAL:52>  (76) 
0

>  <saltbridge:ASP:83>  (76) 
0

>  <saltbridge:ASP:75>  (76) 
0

>  <hydroph_interaction:TRP:50>  (76) 
0

>  <hydroph_interaction:VAL:72>  (76) 
0

>  <hydroph_interaction:ASP:75>  (76) 
0

>  <halogenbond:ASN:152>  (76) 
0

>  <halogenbond:GLY:153>  (76) 
0

>  <halogenbond:TYR:130>  (76) 
0

>  <hbond:TYR:130>  (76) 
0

>  <halogenbond:ASP:75>  (76) 
0

>  <halogenbond:GLY:151>  (76) 
0

>  <hbond:TYR:150>  (76) 
0

>  <halogenbond:TYR:161>  (76) 
0

>  <hydroph_interaction:ASP:129>  (76) 
0

>  <hbond:ASP:129>  (76) 
0

>  <halogenbond:ALA:132>  (76) 
0

$$$$
Z1500683312
     RDKit          3D

 26 27  0  0  0  0  0  0  0  0999 V2000
   -9.2660    3.7280   -7.5000 C   0  0  0  0  0  0  0  0  0  0  0  0
   -9.0910    4.4320   -8.8420 C   0  0  0  0  0  0  0  0  0  0  0  0
   -8.8730    5.7520   -8.9940 N   0  0  0  0  0  0  0  0  0  0  0  0
   -8.7750    6.0280  -10.3530 C   0  0  0  0  0  0  0  0  0  0  0  0
   -8.9220    4.8560  -11.2410 C   0  0  0  0  0  0  0  0  0  0  0  0
   -8.8380    4.9730  -12.7070 N   0  0  0  0  0  0  0  0  0  0  0  0
   -9.1280    6.2580  -13.3520 C   0  0  0  0  0  0  0  0  0  0  0  0
   -9.4570    7.2980  -12.7940 O   0  0  0  0  0  0  0  0  0  0  0  0
   -8.9340    6.1690  -14.8090 C   0  0  0  0  0  0  0  0  0  0  0  0
   -7.8060    5.5650  -15.3390 C   0  0  0  0  0  0  0  0  0  0  0  0
   -7.7020    5.5520  -16.8130 C   0  0  0  0  0  0  0  0  0  0  0  0
   -8.7810    4.8940  -17.3650 C   0  0  0  0  0  0  0  0  0  0  0  0
   -8.7180    4.8430  -18.8070 C   0  0  0  0  0  0  0  0  0  0  0  0
   -7.5470    5.5070  -19.1190 C   0  0  0  0  0  0  0  0  0  0  0  0
   -6.5300    6.1720  -17.9010 S   0  0  0  0  0  0  0  0  0  0  0  0
   -9.1830    3.4570  -10.2730 S   0  0  0  0  0  0  0  0  0  0  0  0
  -10.0260    4.2180   -6.8830 H   0  0  0  0  0  0  0  0  0  0  0  0
   -9.5710    2.6820   -7.6330 H   0  0  0  0  0  0  0  0  0  0  0  0
   -8.3270    3.7340   -6.9420 H   0  0  0  0  0  0  0  0  0  0  0  0
   -8.6030    6.9890  -10.8550 H   0  0  0  0  0  0  0  0  0  0  0  0
   -8.2690    4.2960  -13.2020 H   0  0  0  0  0  0  0  0  0  0  0  0
   -9.6870    6.5910  -15.4650 H   0  0  0  0  0  0  0  0  0  0  0  0
   -7.0290    5.1290  -14.7180 H   0  0  0  0  0  0  0  0  0  0  0  0
   -9.5840    4.4600  -16.7820 H   0  0  0  0  0  0  0  0  0  0  0  0
   -9.3930    4.4080  -19.5390 H   0  0  0  0  0  0  0  0  0  0  0  0
   -7.2680    5.6090  -20.1640 H   0  0  0  0  0  0  0  0  0  0  0  0
  1  2  1  0
  2  3  2  0
  3  4  1  0
  4  5  2  0
  5  6  1  0
  6  7  1  0
  7  8  2  0
  7  9  1  0
  9 10  2  3
 10 11  1  0
 11 12  2  0
 12 13  1  0
 13 14  2  0
 14 15  1  0
  5 16  1  0
 16  2  1  0
 15 11  1  0
  1 17  1  0
  1 18  1  0
  1 19  1  0
  4 20  1  0
  6 21  1  0
  9 22  1  0
 10 23  1  0
 12 24  1  0
 13 25  1  0
 14 26  1  0
A    1
 C1 
A    2
 C2 
A    3
 N1 
A    4
 C3 
A    5
 C4 
A    6
 N2 
A    7
 C5 
A    8
 O1 
A    9
 C6 
A   10
 C7 
A   11
 C8 
A   12
 C9 
A   13
 C10
A   14
 C11
A   15
 S1 
A   16
 S2 
A   17
 H1 
A   18
 H2 
A   19
 H3 
A   20
 H4 
A   21
 H5 
A   22
 H6 
A   23
 H7 
A   24
 H8 
A   25
 H9 
A   26
 H10
M  END
>  <ref_pdb>  (77) 
x0051_0B

>  <ref_mols>  (77) 
x0404_0B,x0969_0B

>  <original SMILES>  (77) 
[H]C(C(=O)N([H])c1sc(C([H])([H])[H])nc1[H])=C([H])c1sc([H])c([H])c1[H]

>  <index>  (77) 
6076

>  <∆∆G>  (77) 
-6.728849

>  <comRMSD>  (77) 
0.36784

>  <N_constrained_atoms>  (77) 
16.0

>  <N_unconstrained_atoms>  (77) 
0.0

>  <LE>  (77) 
0.420553

>  <percent_hybrid>  (77) 
0.0

>  <max_hit_Tanimoto>  (77) 
0.152031

>  <largest_ring>  (77) 
5

>  <N_interactions_kept>  (77) 
0.0

>  <N_interactions_lost>  (77) 
0.0

>  <interaction_uniqueness_metric>  (77) 
0.128205

>  <N_HA>  (77) 
16

>  <N_rotatable_bonds>  (77) 
4

>  <N_interactions>  (77) 
6

>  <N_PAINS>  (77) 
0

>  <UFF_Gibbs>  (77) 
71.781599

>  <strain_per_HA>  (77) 
4.486322

>  <ad_hoc_penalty>  (77) 
-39.616358

>  <cluster>  (77) 
728

>  <merger_rank>  (77) 
3

>  <pication:ARG:29>  (77) 
0

>  <hbond:HIS:51>  (77) 
0

>  <pistack:HIS:51>  (77) 
1

>  <hydroph_interaction:TYR:161>  (77) 
2

>  <pication:HIS:51>  (77) 
0

>  <hydroph_interaction:ALA:132>  (77) 
1

>  <hydroph_interaction:TYR:150>  (77) 
0

>  <hydroph_interaction:LYS:54>  (77) 
0

>  <hbond:SER:135>  (77) 
0

>  <hydroph_interaction:HIS:51>  (77) 
1

>  <hbond:ASP:83>  (77) 
0

>  <hbond:ALA:132>  (77) 
0

>  <halogenbond:SER:81>  (77) 
0

>  <hbond:GLY:82>  (77) 
0

>  <saltbridge:HIS:51>  (77) 
0

>  <pistack:TYR:161>  (77) 
0

>  <hbond:SER:81>  (77) 
0

>  <hbond:ASN:152>  (77) 
0

>  <hbond:GLY:151>  (77) 
1

>  <hydroph_interaction:ASN:152>  (77) 
0

>  <hbond:TYR:161>  (77) 
0

>  <halogenbond:TYR:150>  (77) 
0

>  <hbond:ASP:75>  (77) 
0

>  <hbond:GLY:153>  (77) 
0

>  <hbond:VAL:36>  (77) 
0

>  <hbond:PRO:131>  (77) 
0

>  <hbond:VAL:52>  (77) 
0

>  <hydroph_interaction:ASP:83>  (77) 
0

>  <hydroph_interaction:MET:49>  (77) 
0

>  <hydroph_interaction:VAL:52>  (77) 
0

>  <saltbridge:ASP:83>  (77) 
0

>  <saltbridge:ASP:75>  (77) 
0

>  <hydroph_interaction:TRP:50>  (77) 
0

>  <hydroph_interaction:VAL:72>  (77) 
0

>  <hydroph_interaction:ASP:75>  (77) 
0

>  <halogenbond:ASN:152>  (77) 
0

>  <halogenbond:GLY:153>  (77) 
0

>  <halogenbond:TYR:130>  (77) 
0

>  <hbond:TYR:130>  (77) 
0

>  <halogenbond:ASP:75>  (77) 
0

>  <halogenbond:GLY:151>  (77) 
0

>  <hbond:TYR:150>  (77) 
0

>  <halogenbond:TYR:161>  (77) 
0

>  <hydroph_interaction:ASP:129>  (77) 
0

>  <hbond:ASP:129>  (77) 
0

>  <halogenbond:ALA:132>  (77) 
0

$$$$
PV-006696257785
     RDKit          3D

 29 32  0  0  0  0  0  0  0  0999 V2000
   -9.9420    4.6570  -17.8010 C   0  0  0  0  0  0  0  0  0  0  0  0
   -8.5630    5.1590  -17.7600 C   0  0  0  0  0  0  0  0  0  0  0  0
   -7.7490    5.5820  -16.7470 C   0  0  0  0  0  0  0  0  0  0  0  0
   -8.0350    5.6470  -15.3070 C   0  0  0  0  0  0  0  0  0  0  0  0
   -8.2990    6.9140  -14.6640 N   0  0  0  0  0  0  0  0  0  0  0  0
   -8.5190    6.5020  -13.3000 C   0  0  0  0  0  0  0  0  0  0  0  0
   -8.8150    7.2720  -12.2020 N   0  0  0  0  0  0  0  0  0  0  0  0
   -8.9820    6.6390  -10.9850 C   0  0  0  0  0  0  0  0  0  0  0  0
   -8.8530    5.2590  -10.8800 C   0  0  0  0  0  0  0  0  0  0  0  0
   -9.0190    4.5970   -9.6680 C   0  0  0  0  0  0  0  0  0  0  0  0
   -9.4740    3.2610   -9.4720 C   0  0  0  0  0  0  0  0  0  0  0  0
   -9.5410    2.9010   -8.1890 N   0  0  0  0  0  0  0  0  0  0  0  0
   -9.1460    3.9100   -7.4240 C   0  0  0  0  0  0  0  0  0  0  0  0
   -8.6710    5.3730   -8.2080 S   0  0  0  0  0  0  0  0  0  0  0  0
   -8.5500    4.4680  -11.9950 C   0  0  0  0  0  0  0  0  0  0  0  0
   -8.3890    5.1200  -13.1840 C   0  0  0  0  0  0  0  0  0  0  0  0
   -8.0890    4.6280  -14.4230 N   0  0  0  0  0  0  0  0  0  0  0  0
   -6.2100    6.0880  -17.2630 S   0  0  0  0  0  0  0  0  0  0  0  0
   -6.6680    5.7170  -18.8710 C   0  0  0  0  0  0  0  0  0  0  0  0
   -7.8820    5.2470  -19.0510 N   0  0  0  0  0  0  0  0  0  0  0  0
  -10.6330    5.4090  -18.1920 H   0  0  0  0  0  0  0  0  0  0  0  0
   -9.9930    3.7800  -18.4500 H   0  0  0  0  0  0  0  0  0  0  0  0
  -10.2810    4.3800  -16.8000 H   0  0  0  0  0  0  0  0  0  0  0  0
   -9.2150    7.2860  -10.1490 H   0  0  0  0  0  0  0  0  0  0  0  0
   -9.7430    2.6080  -10.2930 H   0  0  0  0  0  0  0  0  0  0  0  0
   -9.1200    3.8220   -6.3460 H   0  0  0  0  0  0  0  0  0  0  0  0
   -8.4550    3.3980  -11.8880 H   0  0  0  0  0  0  0  0  0  0  0  0
   -7.9290    3.6510  -14.6500 H   0  0  0  0  0  0  0  0  0  0  0  0
   -5.9880    5.8620  -19.7000 H   0  0  0  0  0  0  0  0  0  0  0  0
  1  2  1  0
  2  3  2  0
  3  4  1  0
  4  5  2  0
  5  6  1  0
  6  7  2  0
  7  8  1  0
  8  9  2  0
  9 10  1  0
 10 11  2  0
 11 12  1  0
 12 13  2  0
 13 14  1  0
  9 15  1  0
 15 16  2  0
 16 17  1  0
  3 18  1  0
 18 19  1  0
 19 20  2  0
 20  2  1  0
 17  4  1  0
 16  6  1  0
 14 10  1  0
  1 21  1  0
  1 22  1  0
  1 23  1  0
  8 24  1  0
 11 25  1  0
 13 26  1  0
 15 27  1  0
 17 28  1  0
 19 29  1  0
A    1
 C1 
A    2
 C2 
A    3
 C3 
A    4
 C4 
A    5
 N1 
A    6
 C5 
A    7
 N2 
A    8
 C6 
A    9
 C7 
A   10
 C8 
A   11
 C9 
A   12
 N3 
A   13
 C10
A   14
 S1 
A   15
 C11
A   16
 C12
A   17
 N4 
A   18
 S2 
A   19
 C13
A   20
 N5 
A   21
 H1 
A   22
 H2 
A   23
 H3 
A   24
 H4 
A   25
 H5 
A   26
 H6 
A   27
 H7 
A   28
 H8 
A   29
 H9 
M  END
>  <ref_pdb>  (78) 
x0051_0B

>  <ref_mols>  (78) 
x0404_0B,x0969_0B

>  <original SMILES>  (78) 
[H]c1nc([H])c(-c2c([H])nc3nc(-c4sc([H])nc4C([H])([H])[H])n([H])c3c2[H])s1

>  <index>  (78) 
2710

>  <∆∆G>  (78) 
-6.501328

>  <comRMSD>  (78) 
0.359032

>  <N_constrained_atoms>  (78) 
19.0

>  <N_unconstrained_atoms>  (78) 
1.0

>  <LE>  (78) 
0.325066

>  <percent_hybrid>  (78) 
0.0

>  <max_hit_Tanimoto>  (78) 
0.295977

>  <largest_ring>  (78) 
6

>  <N_interactions_kept>  (78) 
0.0

>  <N_interactions_lost>  (78) 
0.0

>  <interaction_uniqueness_metric>  (78) 
0.161204

>  <N_HA>  (78) 
20

>  <N_rotatable_bonds>  (78) 
3

>  <N_interactions>  (78) 
5

>  <N_PAINS>  (78) 
0

>  <UFF_Gibbs>  (78) 
54.382042

>  <strain_per_HA>  (78) 
2.719088

>  <ad_hoc_penalty>  (78) 
-39.604956

>  <cluster>  (78) 
2873

>  <merger_rank>  (78) 
1

>  <pication:ARG:29>  (78) 
0

>  <hbond:HIS:51>  (78) 
1

>  <pistack:HIS:51>  (78) 
1

>  <hydroph_interaction:TYR:161>  (78) 
1

>  <pication:HIS:51>  (78) 
0

>  <hydroph_interaction:ALA:132>  (78) 
0

>  <hydroph_interaction:TYR:150>  (78) 
1

>  <hydroph_interaction:LYS:54>  (78) 
0

>  <hbond:SER:135>  (78) 
0

>  <hydroph_interaction:HIS:51>  (78) 
0

>  <hbond:ASP:83>  (78) 
0

>  <hbond:ALA:132>  (78) 
0

>  <halogenbond:SER:81>  (78) 
0

>  <hbond:GLY:82>  (78) 
0

>  <saltbridge:HIS:51>  (78) 
0

>  <pistack:TYR:161>  (78) 
1

>  <hbond:SER:81>  (78) 
0

>  <hbond:ASN:152>  (78) 
0

>  <hbond:GLY:151>  (78) 
0

>  <hydroph_interaction:ASN:152>  (78) 
0

>  <hbond:TYR:161>  (78) 
0

>  <halogenbond:TYR:150>  (78) 
0

>  <hbond:ASP:75>  (78) 
0

>  <hbond:GLY:153>  (78) 
0

>  <hbond:VAL:36>  (78) 
0

>  <hbond:PRO:131>  (78) 
0

>  <hbond:VAL:52>  (78) 
0

>  <hydroph_interaction:ASP:83>  (78) 
0

>  <hydroph_interaction:MET:49>  (78) 
0

>  <hydroph_interaction:VAL:52>  (78) 
0

>  <saltbridge:ASP:83>  (78) 
0

>  <saltbridge:ASP:75>  (78) 
0

>  <hydroph_interaction:TRP:50>  (78) 
0

>  <hydroph_interaction:VAL:72>  (78) 
0

>  <hydroph_interaction:ASP:75>  (78) 
0

>  <halogenbond:ASN:152>  (78) 
0

>  <halogenbond:GLY:153>  (78) 
0

>  <halogenbond:TYR:130>  (78) 
0

>  <hbond:TYR:130>  (78) 
0

>  <halogenbond:ASP:75>  (78) 
0

>  <halogenbond:GLY:151>  (78) 
0

>  <hbond:TYR:150>  (78) 
0

>  <halogenbond:TYR:161>  (78) 
0

>  <hydroph_interaction:ASP:129>  (78) 
0

>  <hbond:ASP:129>  (78) 
0

>  <halogenbond:ALA:132>  (78) 
0

$$$$
Z4919063056
     RDKit          3D

 22 24  0  0  0  0  0  0  0  0999 V2000
   -8.0330    5.4820  -16.9640 C   0  0  0  0  0  0  0  0  0  0  0  0
   -7.0760    5.5110  -15.9800 C   0  0  0  0  0  0  0  0  0  0  0  0
   -7.2550    5.3570  -14.6790 N   0  0  0  0  0  0  0  0  0  0  0  0
   -8.5750    5.1520  -14.3760 C   0  0  0  0  0  0  0  0  0  0  0  0
   -8.6960    4.9790  -12.9110 C   0  0  0  0  0  0  0  0  0  0  0  0
   -8.6030    5.9380  -11.8040 C   0  0  0  0  0  0  0  0  0  0  0  0
   -8.7870    5.2440  -10.5110 C   0  0  0  0  0  0  0  0  0  0  0  0
   -8.7620    5.8050   -9.2700 N   0  0  0  0  0  0  0  0  0  0  0  0
   -8.9590    4.9620   -8.2580 C   0  0  0  0  0  0  0  0  0  0  0  0
   -9.1920    3.5460   -8.3790 C   0  0  0  0  0  0  0  0  0  0  0  0
   -9.2100    2.9910   -9.6640 C   0  0  0  0  0  0  0  0  0  0  0  0
   -9.0020    3.8860  -10.6940 C   0  0  0  0  0  0  0  0  0  0  0  0
   -9.0060    3.3060  -12.2810 S   0  0  0  0  0  0  0  0  0  0  0  0
   -9.5930    5.1060  -15.2080 N   0  0  0  0  0  0  0  0  0  0  0  0
   -9.3020    5.2730  -16.5230 C   0  0  0  0  0  0  0  0  0  0  0  0
   -7.8320    5.6100  -18.0190 H   0  0  0  0  0  0  0  0  0  0  0  0
   -6.0070    5.6610  -16.0620 H   0  0  0  0  0  0  0  0  0  0  0  0
   -8.4230    7.0000  -11.9280 H   0  0  0  0  0  0  0  0  0  0  0  0
   -8.9340    5.4260   -7.2830 H   0  0  0  0  0  0  0  0  0  0  0  0
   -9.3460    2.9280   -7.5040 H   0  0  0  0  0  0  0  0  0  0  0  0
   -9.3730    1.9420   -9.8480 H   0  0  0  0  0  0  0  0  0  0  0  0
  -10.1440    5.2310  -17.2030 H   0  0  0  0  0  0  0  0  0  0  0  0
  1  2  2  0
  2  3  1  0
  3  4  2  0
  4  5  1  0
  5  6  2  0
  6  7  1  0
  7  8  2  0
  8  9  1  0
  9 10  2  0
 10 11  1  0
 11 12  2  0
 12 13  1  0
  4 14  1  0
 14 15  2  0
 15  1  1  0
 13  5  1  0
 12  7  1  0
  1 16  1  0
  2 17  1  0
  6 18  1  0
  9 19  1  0
 10 20  1  0
 11 21  1  0
 15 22  1  0
A    1
 C1 
A    2
 C2 
A    3
 N1 
A    4
 C3 
A    5
 C4 
A    6
 C5 
A    7
 C6 
A    8
 N2 
A    9
 C7 
A   10
 C8 
A   11
 C9 
A   12
 C10
A   13
 S1 
A   14
 N3 
A   15
 C11
A   16
 H1 
A   17
 H2 
A   18
 H3 
A   19
 H4 
A   20
 H5 
A   21
 H6 
A   22
 H7 
M  END
>  <ref_pdb>  (79) 
x0051_0B

>  <ref_mols>  (79) 
x0969_1B,x0553_0B

>  <original SMILES>  (79) 
[H]c1nc(-c2sc3c([H])c([H])c([H])nc3c2[H])nc([H])c1[H]

>  <index>  (79) 
1600

>  <∆∆G>  (79) 
-4.0018

>  <comRMSD>  (79) 
0.365445

>  <N_constrained_atoms>  (79) 
14.0

>  <N_unconstrained_atoms>  (79) 
1.0

>  <LE>  (79) 
0.266787

>  <percent_hybrid>  (79) 
0.0

>  <max_hit_Tanimoto>  (79) 
0.353597

>  <largest_ring>  (79) 
6

>  <N_interactions_kept>  (79) 
0.0

>  <N_interactions_lost>  (79) 
0.0

>  <interaction_uniqueness_metric>  (79) 
0.107099

>  <N_HA>  (79) 
15

>  <N_rotatable_bonds>  (79) 
1

>  <N_interactions>  (79) 
6

>  <N_PAINS>  (79) 
0

>  <UFF_Gibbs>  (79) 
63.302828

>  <strain_per_HA>  (79) 
4.22016

>  <ad_hoc_penalty>  (79) 
-39.580814

>  <cluster>  (79) 
3676

>  <merger_rank>  (79) 
2

>  <pication:ARG:29>  (79) 
0

>  <hbond:HIS:51>  (79) 
0

>  <pistack:HIS:51>  (79) 
2

>  <hydroph_interaction:TYR:161>  (79) 
1

>  <pication:HIS:51>  (79) 
0

>  <hydroph_interaction:ALA:132>  (79) 
1

>  <hydroph_interaction:TYR:150>  (79) 
0

>  <hydroph_interaction:LYS:54>  (79) 
0

>  <hbond:SER:135>  (79) 
1

>  <hydroph_interaction:HIS:51>  (79) 
1

>  <hbond:ASP:83>  (79) 
0

>  <hbond:ALA:132>  (79) 
0

>  <halogenbond:SER:81>  (79) 
0

>  <hbond:GLY:82>  (79) 
0

>  <saltbridge:HIS:51>  (79) 
0

>  <pistack:TYR:161>  (79) 
0

>  <hbond:SER:81>  (79) 
0

>  <hbond:ASN:152>  (79) 
0

>  <hbond:GLY:151>  (79) 
0

>  <hydroph_interaction:ASN:152>  (79) 
0

>  <hbond:TYR:161>  (79) 
0

>  <halogenbond:TYR:150>  (79) 
0

>  <hbond:ASP:75>  (79) 
0

>  <hbond:GLY:153>  (79) 
0

>  <hbond:VAL:36>  (79) 
0

>  <hbond:PRO:131>  (79) 
0

>  <hbond:VAL:52>  (79) 
0

>  <hydroph_interaction:ASP:83>  (79) 
0

>  <hydroph_interaction:MET:49>  (79) 
0

>  <hydroph_interaction:VAL:52>  (79) 
0

>  <saltbridge:ASP:83>  (79) 
0

>  <saltbridge:ASP:75>  (79) 
0

>  <hydroph_interaction:TRP:50>  (79) 
0

>  <hydroph_interaction:VAL:72>  (79) 
0

>  <hydroph_interaction:ASP:75>  (79) 
0

>  <halogenbond:ASN:152>  (79) 
0

>  <halogenbond:GLY:153>  (79) 
0

>  <halogenbond:TYR:130>  (79) 
0

>  <hbond:TYR:130>  (79) 
0

>  <halogenbond:ASP:75>  (79) 
0

>  <halogenbond:GLY:151>  (79) 
0

>  <hbond:TYR:150>  (79) 
0

>  <halogenbond:TYR:161>  (79) 
0

>  <hydroph_interaction:ASP:129>  (79) 
0

>  <hbond:ASP:129>  (79) 
0

>  <halogenbond:ALA:132>  (79) 
0

$$$$
Z254204190
     RDKit          3D

 30 32  0  0  0  0  0  0  0  0999 V2000
   -4.0280    5.2290  -17.8060 C   0  0  0  0  0  0  0  0  0  0  0  0
   -5.4080    5.4280  -17.2060 C   0  0  0  0  0  0  0  0  0  0  0  0
   -6.5380    5.2010  -18.1280 C   0  0  0  0  0  0  0  0  0  0  0  0
   -7.8920    5.3580  -17.6230 C   0  0  0  0  0  0  0  0  0  0  0  0
   -7.9730    5.7540  -16.1650 C   0  0  0  0  0  0  0  0  0  0  0  0
   -9.3550    5.8980  -15.6790 C   0  0  0  0  0  0  0  0  0  0  0  0
  -10.2050    5.0100  -16.2610 O   0  0  0  0  0  0  0  0  0  0  0  0
   -9.7270    6.8020  -14.7520 N   0  0  0  0  0  0  0  0  0  0  0  0
   -9.4070    6.5570  -13.4450 C   0  0  0  0  0  0  0  0  0  0  0  0
   -9.1130    7.4330  -12.4650 N   0  0  0  0  0  0  0  0  0  0  0  0
   -8.8620    6.7910  -11.2590 N   0  0  0  0  0  0  0  0  0  0  0  0
   -8.9820    5.4570  -11.4060 C   0  0  0  0  0  0  0  0  0  0  0  0
   -8.8210    4.5470  -10.3610 C   0  0  0  0  0  0  0  0  0  0  0  0
   -8.5580    5.0570   -9.0210 C   0  0  0  0  0  0  0  0  0  0  0  0
   -8.4760    3.9440   -8.2950 C   0  0  0  0  0  0  0  0  0  0  0  0
   -8.6650    2.8010   -9.0780 C   0  0  0  0  0  0  0  0  0  0  0  0
   -8.8790    3.1870  -10.3680 O   0  0  0  0  0  0  0  0  0  0  0  0
   -9.3650    4.9390  -12.9530 S   0  0  0  0  0  0  0  0  0  0  0  0
   -6.8310    5.9430  -15.4100 C   0  0  0  0  0  0  0  0  0  0  0  0
   -5.5650    5.7890  -15.9020 N   0  0  0  0  0  0  0  0  0  0  0  0
   -4.0830    5.0170  -18.8800 H   0  0  0  0  0  0  0  0  0  0  0  0
   -3.4210    6.1310  -17.6690 H   0  0  0  0  0  0  0  0  0  0  0  0
   -3.5020    4.3930  -17.3300 H   0  0  0  0  0  0  0  0  0  0  0  0
   -6.3470    4.9200  -19.1560 H   0  0  0  0  0  0  0  0  0  0  0  0
   -8.7750    5.2010  -18.2500 H   0  0  0  0  0  0  0  0  0  0  0  0
  -10.5370    7.4010  -14.8910 H   0  0  0  0  0  0  0  0  0  0  0  0
   -8.4580    6.0820   -8.6980 H   0  0  0  0  0  0  0  0  0  0  0  0
   -8.2870    3.9100   -7.2300 H   0  0  0  0  0  0  0  0  0  0  0  0
   -8.6750    1.7380   -8.8870 H   0  0  0  0  0  0  0  0  0  0  0  0
   -6.8850    6.2290  -14.3620 H   0  0  0  0  0  0  0  0  0  0  0  0
  1  2  1  0
  2  3  2  0
  3  4  1  0
  4  5  2  0
  5  6  1  0
  6  7  2  0
  6  8  1  0
  8  9  1  0
  9 10  2  0
 10 11  1  0
 11 12  2  0
 12 13  1  0
 13 14  2  0
 14 15  1  0
 15 16  2  0
 16 17  1  0
 12 18  1  0
  5 19  1  0
 19 20  2  0
 20  2  1  0
 18  9  1  0
 17 13  1  0
  1 21  1  0
  1 22  1  0
  1 23  1  0
  3 24  1  0
  4 25  1  0
  8 26  1  0
 14 27  1  0
 15 28  1  0
 16 29  1  0
 19 30  1  0
A    1
 C1 
A    2
 C2 
A    3
 C3 
A    4
 C4 
A    5
 C5 
A    6
 C6 
A    7
 O1 
A    8
 N1 
A    9
 C7 
A   10
 N2 
A   11
 N3 
A   12
 C8 
A   13
 C9 
A   14
 C10
A   15
 C11
A   16
 C12
A   17
 O2 
A   18
 S1 
A   19
 C13
A   20
 N4 
A   21
 H1 
A   22
 H2 
A   23
 H3 
A   24
 H4 
A   25
 H5 
A   26
 H6 
A   27
 H7 
A   28
 H8 
A   29
 H9 
A   30
 H10
M  END
>  <ref_pdb>  (80) 
x0051_0B

>  <ref_mols>  (80) 
x0404_0B,x0969_0B

>  <original SMILES>  (80) 
[H]c1nc(C([H])([H])[H])c([H])c([H])c1C(=O)N([H])c1nnc(-c2oc([H])c([H])c2[H])s1

>  <index>  (80) 
2996

>  <∆∆G>  (80) 
-6.029762

>  <comRMSD>  (80) 
0.403702

>  <N_constrained_atoms>  (80) 
19.0

>  <N_unconstrained_atoms>  (80) 
1.0

>  <LE>  (80) 
0.301488

>  <percent_hybrid>  (80) 
0.0

>  <max_hit_Tanimoto>  (80) 
0.362211

>  <largest_ring>  (80) 
6

>  <N_interactions_kept>  (80) 
0.0

>  <N_interactions_lost>  (80) 
0.0

>  <interaction_uniqueness_metric>  (80) 
0.179906

>  <N_HA>  (80) 
20

>  <N_rotatable_bonds>  (80) 
4

>  <N_interactions>  (80) 
6

>  <N_PAINS>  (80) 
0

>  <UFF_Gibbs>  (80) 
75.62791

>  <strain_per_HA>  (80) 
3.781377

>  <ad_hoc_penalty>  (80) 
-39.568238

>  <cluster>  (80) 
58

>  <merger_rank>  (80) 
1

>  <pication:ARG:29>  (80) 
0

>  <hbond:HIS:51>  (80) 
0

>  <pistack:HIS:51>  (80) 
1

>  <hydroph_interaction:TYR:161>  (80) 
1

>  <pication:HIS:51>  (80) 
0

>  <hydroph_interaction:ALA:132>  (80) 
1

>  <hydroph_interaction:TYR:150>  (80) 
0

>  <hydroph_interaction:LYS:54>  (80) 
0

>  <hbond:SER:135>  (80) 
0

>  <hydroph_interaction:HIS:51>  (80) 
1

>  <hbond:ASP:83>  (80) 
0

>  <hbond:ALA:132>  (80) 
1

>  <halogenbond:SER:81>  (80) 
0

>  <hbond:GLY:82>  (80) 
0

>  <saltbridge:HIS:51>  (80) 
0

>  <pistack:TYR:161>  (80) 
1

>  <hbond:SER:81>  (80) 
0

>  <hbond:ASN:152>  (80) 
0

>  <hbond:GLY:151>  (80) 
0

>  <hydroph_interaction:ASN:152>  (80) 
0

>  <hbond:TYR:161>  (80) 
0

>  <halogenbond:TYR:150>  (80) 
0

>  <hbond:ASP:75>  (80) 
0

>  <hbond:GLY:153>  (80) 
0

>  <hbond:VAL:36>  (80) 
0

>  <hbond:PRO:131>  (80) 
0

>  <hbond:VAL:52>  (80) 
0

>  <hydroph_interaction:ASP:83>  (80) 
0

>  <hydroph_interaction:MET:49>  (80) 
0

>  <hydroph_interaction:VAL:52>  (80) 
0

>  <saltbridge:ASP:83>  (80) 
0

>  <saltbridge:ASP:75>  (80) 
0

>  <hydroph_interaction:TRP:50>  (80) 
0

>  <hydroph_interaction:VAL:72>  (80) 
0

>  <hydroph_interaction:ASP:75>  (80) 
0

>  <halogenbond:ASN:152>  (80) 
0

>  <halogenbond:GLY:153>  (80) 
0

>  <halogenbond:TYR:130>  (80) 
0

>  <hbond:TYR:130>  (80) 
0

>  <halogenbond:ASP:75>  (80) 
0

>  <halogenbond:GLY:151>  (80) 
0

>  <hbond:TYR:150>  (80) 
0

>  <halogenbond:TYR:161>  (80) 
0

>  <hydroph_interaction:ASP:129>  (80) 
0

>  <hbond:ASP:129>  (80) 
0

>  <halogenbond:ALA:132>  (80) 
0

$$$$
PV-003404395536
     RDKit          3D

 29 31  0  0  0  0  0  0  0  0999 V2000
   -9.7960    8.0600  -13.8930 C   0  0  0  0  0  0  0  0  0  0  0  0
   -8.4960    7.3240  -13.6470 C   0  0  0  0  0  0  0  0  0  0  0  0
   -7.9200    6.6740  -14.8500 N   0  0  0  0  0  0  0  0  0  0  0  0
   -8.7340    5.9100  -15.6960 C   0  0  0  0  0  0  0  0  0  0  0  0
   -9.9590    5.6620  -15.1640 O   0  0  0  0  0  0  0  0  0  0  0  0
   -8.1340    5.5810  -16.8930 C   0  0  0  0  0  0  0  0  0  0  0  0
   -6.8320    5.9660  -17.0480 N   0  0  0  0  0  0  0  0  0  0  0  0
   -6.3820    5.5940  -18.2620 N   0  0  0  0  0  0  0  0  0  0  0  0
   -7.3400    4.9500  -18.9810 C   0  0  0  0  0  0  0  0  0  0  0  0
   -8.9090    4.7430  -18.1790 S   0  0  0  0  0  0  0  0  0  0  0  0
   -8.6760    6.3100  -12.5520 C   0  0  0  0  0  0  0  0  0  0  0  0
   -8.5930    6.5940  -11.2580 N   0  0  0  0  0  0  0  0  0  0  0  0
   -8.8000    5.4870  -10.4740 C   0  0  0  0  0  0  0  0  0  0  0  0
   -8.7810    5.4540   -9.0890 C   0  0  0  0  0  0  0  0  0  0  0  0
   -9.0390    4.1310   -8.5180 C   0  0  0  0  0  0  0  0  0  0  0  0
   -9.2860    2.9640   -9.2030 C   0  0  0  0  0  0  0  0  0  0  0  0
   -9.2850    3.0770  -10.5900 C   0  0  0  0  0  0  0  0  0  0  0  0
   -9.0510    4.3010  -11.2030 C   0  0  0  0  0  0  0  0  0  0  0  0
   -9.0130    4.6520  -12.8930 S   0  0  0  0  0  0  0  0  0  0  0  0
  -10.4530    8.0100  -13.0180 H   0  0  0  0  0  0  0  0  0  0  0  0
  -10.3470    7.6340  -14.7370 H   0  0  0  0  0  0  0  0  0  0  0  0
   -9.6000    9.1130  -14.1080 H   0  0  0  0  0  0  0  0  0  0  0  0
   -7.7330    8.0580  -13.3590 H   0  0  0  0  0  0  0  0  0  0  0  0
   -7.1790    6.0280  -14.6050 H   0  0  0  0  0  0  0  0  0  0  0  0
   -7.0230    4.6290  -19.9850 H   0  0  0  0  0  0  0  0  0  0  0  0
   -8.5940    6.3240   -8.4730 H   0  0  0  0  0  0  0  0  0  0  0  0
   -9.0160    4.1440   -7.4210 H   0  0  0  0  0  0  0  0  0  0  0  0
   -9.4740    1.9970   -8.7550 H   0  0  0  0  0  0  0  0  0  0  0  0
   -9.4710    2.2010  -11.2040 H   0  0  0  0  0  0  0  0  0  0  0  0
  1  2  1  0
  2  3  1  0
  3  4  1  0
  4  5  2  0
  4  6  1  0
  6  7  2  0
  7  8  1  0
  8  9  2  0
  9 10  1  0
  2 11  1  0
 11 12  2  0
 12 13  1  0
 13 14  2  0
 14 15  1  0
 15 16  2  0
 16 17  1  0
 17 18  2  0
 18 19  1  0
 10  6  1  0
 19 11  1  0
 18 13  1  0
  1 20  1  0
  1 21  1  0
  1 22  1  0
  2 23  1  0
  3 24  1  0
  9 25  1  0
 14 26  1  0
 15 27  1  0
 16 28  1  0
 17 29  1  0
A    1
 C1 
A    2
 C2 
A    3
 N1 
A    4
 C3 
A    5
 O1 
A    6
 C4 
A    7
 N2 
A    8
 N3 
A    9
 C5 
A   10
 S1 
A   11
 C6 
A   12
 N4 
A   13
 C7 
A   14
 C8 
A   15
 C9 
A   16
 C10
A   17
 C11
A   18
 C12
A   19
 S2 
A   20
 H1 
A   21
 H2 
A   22
 H3 
A   23
 H4 
A   24
 H5 
A   25
 H6 
A   26
 H7 
A   27
 H8 
A   28
 H9 
A   29
 H10
M  END
>  <ref_pdb>  (81) 
x0051_0B

>  <ref_mols>  (81) 
x0404_0B,x0969_0B

>  <original SMILES>  (81) 
[H]c1nnc(C(=O)N([H])C([H])(c2nc3c([H])c([H])c([H])c([H])c3s2)C([H])([H])[H])s1

>  <index>  (81) 
5990

>  <∆∆G>  (81) 
-6.448399

>  <comRMSD>  (81) 
0.299218

>  <N_constrained_atoms>  (81) 
19.0

>  <N_unconstrained_atoms>  (81) 
0.0

>  <LE>  (81) 
0.339389

>  <percent_hybrid>  (81) 
0.0

>  <max_hit_Tanimoto>  (81) 
0.643468

>  <largest_ring>  (81) 
6

>  <N_interactions_kept>  (81) 
0.0

>  <N_interactions_lost>  (81) 
0.0

>  <interaction_uniqueness_metric>  (81) 
0.115968

>  <N_HA>  (81) 
19

>  <N_rotatable_bonds>  (81) 
4

>  <N_interactions>  (81) 
6

>  <N_PAINS>  (81) 
0

>  <UFF_Gibbs>  (81) 
87.773741

>  <strain_per_HA>  (81) 
4.619646

>  <ad_hoc_penalty>  (81) 
-39.488381

>  <cluster>  (81) 
317

>  <merger_rank>  (81) 
3

>  <pication:ARG:29>  (81) 
0

>  <hbond:HIS:51>  (81) 
0

>  <pistack:HIS:51>  (81) 
2

>  <hydroph_interaction:TYR:161>  (81) 
0

>  <pication:HIS:51>  (81) 
0

>  <hydroph_interaction:ALA:132>  (81) 
1

>  <hydroph_interaction:TYR:150>  (81) 
0

>  <hydroph_interaction:LYS:54>  (81) 
0

>  <hbond:SER:135>  (81) 
1

>  <hydroph_interaction:HIS:51>  (81) 
1

>  <hbond:ASP:83>  (81) 
0

>  <hbond:ALA:132>  (81) 
0

>  <halogenbond:SER:81>  (81) 
0

>  <hbond:GLY:82>  (81) 
0

>  <saltbridge:HIS:51>  (81) 
0

>  <pistack:TYR:161>  (81) 
1

>  <hbond:SER:81>  (81) 
0

>  <hbond:ASN:152>  (81) 
0

>  <hbond:GLY:151>  (81) 
0

>  <hydroph_interaction:ASN:152>  (81) 
0

>  <hbond:TYR:161>  (81) 
0

>  <halogenbond:TYR:150>  (81) 
0

>  <hbond:ASP:75>  (81) 
0

>  <hbond:GLY:153>  (81) 
0

>  <hbond:VAL:36>  (81) 
0

>  <hbond:PRO:131>  (81) 
0

>  <hbond:VAL:52>  (81) 
0

>  <hydroph_interaction:ASP:83>  (81) 
0

>  <hydroph_interaction:MET:49>  (81) 
0

>  <hydroph_interaction:VAL:52>  (81) 
0

>  <saltbridge:ASP:83>  (81) 
0

>  <saltbridge:ASP:75>  (81) 
0

>  <hydroph_interaction:TRP:50>  (81) 
0

>  <hydroph_interaction:VAL:72>  (81) 
0

>  <hydroph_interaction:ASP:75>  (81) 
0

>  <halogenbond:ASN:152>  (81) 
0

>  <halogenbond:GLY:153>  (81) 
0

>  <halogenbond:TYR:130>  (81) 
0

>  <hbond:TYR:130>  (81) 
0

>  <halogenbond:ASP:75>  (81) 
0

>  <halogenbond:GLY:151>  (81) 
0

>  <hbond:TYR:150>  (81) 
0

>  <halogenbond:TYR:161>  (81) 
0

>  <hydroph_interaction:ASP:129>  (81) 
0

>  <hbond:ASP:129>  (81) 
0

>  <halogenbond:ALA:132>  (81) 
0

$$$$
Z1576481560
     RDKit          3D

 25 26  0  0  0  0  0  0  0  0999 V2000
   -7.5680    5.7840  -18.9280 C   0  0  0  0  0  0  0  0  0  0  0  0
   -7.8770    5.5280  -17.6110 C   0  0  0  0  0  0  0  0  0  0  0  0
   -6.9450    5.6510  -16.5830 C   0  0  0  0  0  0  0  0  0  0  0  0
   -7.2200    5.3700  -15.1590 C   0  0  0  0  0  0  0  0  0  0  0  0
   -8.6070    4.9210  -14.8030 C   0  0  0  0  0  0  0  0  0  0  0  0
   -9.1210    4.5500  -13.5390 N   0  0  0  0  0  0  0  0  0  0  0  0
   -8.9490    4.9400  -12.2520 C   0  0  0  0  0  0  0  0  0  0  0  0
   -9.0310    4.1460  -11.2230 N   0  0  0  0  0  0  0  0  0  0  0  0
   -8.8240    4.9290  -10.0950 C   0  0  0  0  0  0  0  0  0  0  0  0
   -8.8900    4.2170   -8.6980 C   0  0  0  0  0  0  0  0  0  0  0  0
   -8.5870    6.2470  -10.2590 N   0  0  0  0  0  0  0  0  0  0  0  0
   -8.6210    6.5780  -11.9040 S   0  0  0  0  0  0  0  0  0  0  0  0
   -9.4920    4.8420  -15.8910 C   0  0  0  0  0  0  0  0  0  0  0  0
   -9.2050    5.1060  -17.2100 C   0  0  0  0  0  0  0  0  0  0  0  0
   -7.3160    6.7730  -19.2910 H   0  0  0  0  0  0  0  0  0  0  0  0
   -8.4040    5.4490  -19.5500 H   0  0  0  0  0  0  0  0  0  0  0  0
   -6.7200    5.1480  -19.2080 H   0  0  0  0  0  0  0  0  0  0  0  0
   -5.9370    5.9690  -16.8380 H   0  0  0  0  0  0  0  0  0  0  0  0
   -6.4300    5.4790  -14.4050 H   0  0  0  0  0  0  0  0  0  0  0  0
   -9.6040    3.6600  -13.6480 H   0  0  0  0  0  0  0  0  0  0  0  0
   -9.6330    4.5560   -7.9900 H   0  0  0  0  0  0  0  0  0  0  0  0
   -7.9240    4.3280   -8.1970 H   0  0  0  0  0  0  0  0  0  0  0  0
   -9.0680    3.1470   -8.8480 H   0  0  0  0  0  0  0  0  0  0  0  0
  -10.5070    4.5320  -15.6890 H   0  0  0  0  0  0  0  0  0  0  0  0
   -9.9910    4.9920  -17.9550 H   0  0  0  0  0  0  0  0  0  0  0  0
  1  2  1  0
  2  3  2  0
  3  4  1  0
  4  5  2  0
  5  6  1  0
  6  7  1  0
  7  8  2  0
  8  9  1  0
  9 10  1  0
  9 11  2  0
 11 12  1  0
  5 13  1  0
 13 14  2  0
 14  2  1  0
 12  7  1  0
  1 15  1  0
  1 16  1  0
  1 17  1  0
  3 18  1  0
  4 19  1  0
  6 20  1  0
 10 21  1  0
 10 22  1  0
 10 23  1  0
 13 24  1  0
 14 25  1  0
A    1
 C1 
A    2
 C2 
A    3
 C3 
A    4
 C4 
A    5
 C5 
A    6
 N1 
A    7
 C6 
A    8
 N2 
A    9
 C7 
A   10
 C8 
A   11
 N3 
A   12
 S1 
A   13
 C9 
A   14
 C10
A   15
 H1 
A   16
 H2 
A   17
 H3 
A   18
 H4 
A   19
 H5 
A   20
 H6 
A   21
 H7 
A   22
 H8 
A   23
 H9 
A   24
 H10
A   25
 H11
M  END
>  <ref_pdb>  (82) 
x0051_0B

>  <ref_mols>  (82) 
x0969_1B,x0553_0B

>  <original SMILES>  (82) 
[H]c1c([H])c(C([H])([H])[H])c([H])c([H])c1N([H])c1nc(C([H])([H])[H])ns1

>  <index>  (82) 
565

>  <∆∆G>  (82) 
-4.853875

>  <comRMSD>  (82) 
0.625484

>  <N_constrained_atoms>  (82) 
13.0

>  <N_unconstrained_atoms>  (82) 
1.0

>  <LE>  (82) 
0.346705

>  <percent_hybrid>  (82) 
0.0

>  <max_hit_Tanimoto>  (82) 
0.326425

>  <largest_ring>  (82) 
6

>  <N_interactions_kept>  (82) 
0.0

>  <N_interactions_lost>  (82) 
0.0

>  <interaction_uniqueness_metric>  (82) 
0.17526

>  <N_HA>  (82) 
14

>  <N_rotatable_bonds>  (82) 
4

>  <N_interactions>  (82) 
7

>  <N_PAINS>  (82) 
0

>  <UFF_Gibbs>  (82) 
56.074523

>  <strain_per_HA>  (82) 
4.005294

>  <ad_hoc_penalty>  (82) 
-39.487958

>  <cluster>  (82) 
294

>  <merger_rank>  (82) 
1

>  <pication:ARG:29>  (82) 
0

>  <hbond:HIS:51>  (82) 
0

>  <pistack:HIS:51>  (82) 
1

>  <hydroph_interaction:TYR:161>  (82) 
1

>  <pication:HIS:51>  (82) 
0

>  <hydroph_interaction:ALA:132>  (82) 
1

>  <hydroph_interaction:TYR:150>  (82) 
0

>  <hydroph_interaction:LYS:54>  (82) 
0

>  <hbond:SER:135>  (82) 
0

>  <hydroph_interaction:HIS:51>  (82) 
1

>  <hbond:ASP:83>  (82) 
0

>  <hbond:ALA:132>  (82) 
0

>  <halogenbond:SER:81>  (82) 
0

>  <hbond:GLY:82>  (82) 
0

>  <saltbridge:HIS:51>  (82) 
0

>  <pistack:TYR:161>  (82) 
1

>  <hbond:SER:81>  (82) 
0

>  <hbond:ASN:152>  (82) 
0

>  <hbond:GLY:151>  (82) 
1

>  <hydroph_interaction:ASN:152>  (82) 
0

>  <hbond:TYR:161>  (82) 
1

>  <halogenbond:TYR:150>  (82) 
0

>  <hbond:ASP:75>  (82) 
0

>  <hbond:GLY:153>  (82) 
0

>  <hbond:VAL:36>  (82) 
0

>  <hbond:PRO:131>  (82) 
0

>  <hbond:VAL:52>  (82) 
0

>  <hydroph_interaction:ASP:83>  (82) 
0

>  <hydroph_interaction:MET:49>  (82) 
0

>  <hydroph_interaction:VAL:52>  (82) 
0

>  <saltbridge:ASP:83>  (82) 
0

>  <saltbridge:ASP:75>  (82) 
0

>  <hydroph_interaction:TRP:50>  (82) 
0

>  <hydroph_interaction:VAL:72>  (82) 
0

>  <hydroph_interaction:ASP:75>  (82) 
0

>  <halogenbond:ASN:152>  (82) 
0

>  <halogenbond:GLY:153>  (82) 
0

>  <halogenbond:TYR:130>  (82) 
0

>  <hbond:TYR:130>  (82) 
0

>  <halogenbond:ASP:75>  (82) 
0

>  <halogenbond:GLY:151>  (82) 
0

>  <hbond:TYR:150>  (82) 
0

>  <halogenbond:TYR:161>  (82) 
0

>  <hydroph_interaction:ASP:129>  (82) 
0

>  <hbond:ASP:129>  (82) 
0

>  <halogenbond:ALA:132>  (82) 
0

$$$$
Z278096818
     RDKit          3D

 28 30  0  0  0  0  0  0  0  0999 V2000
   -7.1800    6.3350   -7.5800 C   0  0  0  0  0  0  0  0  0  0  0  0
   -7.8690    5.4090   -8.5620 C   0  0  0  0  0  0  0  0  0  0  0  0
   -7.6380    3.9730   -8.4180 C   0  0  0  0  0  0  0  0  0  0  0  0
   -8.4450    3.0300   -9.5520 S   0  0  0  0  0  0  0  0  0  0  0  0
   -9.0570    4.5230  -10.1670 C   0  0  0  0  0  0  0  0  0  0  0  0
  -10.1500    4.4960  -11.5130 S   0  0  0  0  0  0  0  0  0  0  0  0
   -9.2780    5.5160  -12.6190 C   0  0  0  0  0  0  0  0  0  0  0  0
   -9.0550    5.0910  -13.9680 N   0  0  0  0  0  0  0  0  0  0  0  0
   -8.3670    6.0500  -14.6800 C   0  0  0  0  0  0  0  0  0  0  0  0
   -8.0570    5.7710  -16.1570 C   0  0  0  0  0  0  0  0  0  0  0  0
   -6.8570    6.3100  -16.6230 C   0  0  0  0  0  0  0  0  0  0  0  0
   -6.3760    6.1980  -17.9180 C   0  0  0  0  0  0  0  0  0  0  0  0
   -7.2120    5.4530  -18.8410 C   0  0  0  0  0  0  0  0  0  0  0  0
   -8.4260    4.9090  -18.3490 C   0  0  0  0  0  0  0  0  0  0  0  0
   -8.8230    5.0690  -17.0500 C   0  0  0  0  0  0  0  0  0  0  0  0
   -8.0480    7.1830  -13.9340 C   0  0  0  0  0  0  0  0  0  0  0  0
   -8.6210    7.0610  -12.2950 S   0  0  0  0  0  0  0  0  0  0  0  0
   -8.6730    5.6790   -9.5620 N   0  0  0  0  0  0  0  0  0  0  0  0
   -7.3990    7.3670   -7.3400 H   0  0  0  0  0  0  0  0  0  0  0  0
   -6.1190    6.3330   -7.8480 H   0  0  0  0  0  0  0  0  0  0  0  0
   -7.2230    5.8400   -6.6050 H   0  0  0  0  0  0  0  0  0  0  0  0
   -6.9780    3.6520   -7.6060 H   0  0  0  0  0  0  0  0  0  0  0  0
   -6.2140    6.8740  -15.9570 H   0  0  0  0  0  0  0  0  0  0  0  0
   -5.4370    6.6450  -18.2040 H   0  0  0  0  0  0  0  0  0  0  0  0
   -6.9320    5.3070  -19.8740 H   0  0  0  0  0  0  0  0  0  0  0  0
   -9.1430    4.3330  -18.9240 H   0  0  0  0  0  0  0  0  0  0  0  0
   -9.7670    4.6210  -16.7530 H   0  0  0  0  0  0  0  0  0  0  0  0
   -7.5210    8.0750  -14.2400 H   0  0  0  0  0  0  0  0  0  0  0  0
  1  2  1  0
  2  3  2  0
  3  4  1  0
  4  5  1  0
  5  6  1  0
  6  7  1  0
  7  8  2  0
  8  9  1  0
  9 10  1  0
 10 11  2  0
 11 12  1  0
 12 13  2  0
 13 14  1  0
 14 15  2  0
  9 16  2  0
 16 17  1  0
  5 18  2  0
 18  2  1  0
 17  7  1  0
 15 10  1  0
  1 19  1  0
  1 20  1  0
  1 21  1  0
  3 22  1  0
 11 23  1  0
 12 24  1  0
 13 25  1  0
 14 26  1  0
 15 27  1  0
 16 28  1  0
A    1
 C1 
A    2
 C2 
A    3
 C3 
A    4
 S1 
A    5
 C4 
A    6
 S2 
A    7
 C5 
A    8
 N1 
A    9
 C6 
A   10
 C7 
A   11
 C8 
A   12
 C9 
A   13
 C10
A   14
 C11
A   15
 C12
A   16
 C13
A   17
 S3 
A   18
 N2 
A   19
 H1 
A   20
 H2 
A   21
 H3 
A   22
 H4 
A   23
 H5 
A   24
 H6 
A   25
 H7 
A   26
 H8 
A   27
 H9 
A   28
 H10
M  END
>  <ref_pdb>  (83) 
x0051_0B

>  <ref_mols>  (83) 
x0404_0B,x0969_0B

>  <original SMILES>  (83) 
[H]c1sc(Sc2nc(C([H])([H])[H])c([H])s2)nc1-c1c([H])c([H])c([H])c([H])c1[H]

>  <index>  (83) 
4829

>  <∆∆G>  (83) 
-6.345794

>  <comRMSD>  (83) 
0.594232

>  <N_constrained_atoms>  (83) 
17.0

>  <N_unconstrained_atoms>  (83) 
1.0

>  <LE>  (83) 
0.352544

>  <percent_hybrid>  (83) 
0.0

>  <max_hit_Tanimoto>  (83) 
0.277121

>  <largest_ring>  (83) 
6

>  <N_interactions_kept>  (83) 
0.0

>  <N_interactions_lost>  (83) 
0.0

>  <interaction_uniqueness_metric>  (83) 
0.118817

>  <N_HA>  (83) 
18

>  <N_rotatable_bonds>  (83) 
4

>  <N_interactions>  (83) 
6

>  <N_PAINS>  (83) 
0

>  <UFF_Gibbs>  (83) 
56.810291

>  <strain_per_HA>  (83) 
3.15611

>  <ad_hoc_penalty>  (83) 
-39.434736

>  <cluster>  (83) 
1501

>  <merger_rank>  (83) 
2

>  <pication:ARG:29>  (83) 
0

>  <hbond:HIS:51>  (83) 
0

>  <pistack:HIS:51>  (83) 
1

>  <hydroph_interaction:TYR:161>  (83) 
2

>  <pication:HIS:51>  (83) 
0

>  <hydroph_interaction:ALA:132>  (83) 
1

>  <hydroph_interaction:TYR:150>  (83) 
0

>  <hydroph_interaction:LYS:54>  (83) 
0

>  <hbond:SER:135>  (83) 
1

>  <hydroph_interaction:HIS:51>  (83) 
0

>  <hbond:ASP:83>  (83) 
0

>  <hbond:ALA:132>  (83) 
0

>  <halogenbond:SER:81>  (83) 
0

>  <hbond:GLY:82>  (83) 
0

>  <saltbridge:HIS:51>  (83) 
0

>  <pistack:TYR:161>  (83) 
0

>  <hbond:SER:81>  (83) 
0

>  <hbond:ASN:152>  (83) 
0

>  <hbond:GLY:151>  (83) 
0

>  <hydroph_interaction:ASN:152>  (83) 
0

>  <hbond:TYR:161>  (83) 
1

>  <halogenbond:TYR:150>  (83) 
0

>  <hbond:ASP:75>  (83) 
0

>  <hbond:GLY:153>  (83) 
0

>  <hbond:VAL:36>  (83) 
0

>  <hbond:PRO:131>  (83) 
0

>  <hbond:VAL:52>  (83) 
0

>  <hydroph_interaction:ASP:83>  (83) 
0

>  <hydroph_interaction:MET:49>  (83) 
0

>  <hydroph_interaction:VAL:52>  (83) 
0

>  <saltbridge:ASP:83>  (83) 
0

>  <saltbridge:ASP:75>  (83) 
0

>  <hydroph_interaction:TRP:50>  (83) 
0

>  <hydroph_interaction:VAL:72>  (83) 
0

>  <hydroph_interaction:ASP:75>  (83) 
0

>  <halogenbond:ASN:152>  (83) 
0

>  <halogenbond:GLY:153>  (83) 
0

>  <halogenbond:TYR:130>  (83) 
0

>  <hbond:TYR:130>  (83) 
0

>  <halogenbond:ASP:75>  (83) 
0

>  <halogenbond:GLY:151>  (83) 
0

>  <hbond:TYR:150>  (83) 
0

>  <halogenbond:TYR:161>  (83) 
0

>  <hydroph_interaction:ASP:129>  (83) 
0

>  <hbond:ASP:129>  (83) 
0

>  <halogenbond:ALA:132>  (83) 
0

$$$$
PV-002714789903
     RDKit          3D

 29 31  0  0  0  0  0  0  0  0999 V2000
   -5.9970    5.2750  -19.1790 C   0  0  0  0  0  0  0  0  0  0  0  0
   -6.9520    5.3670  -18.1970 C   0  0  0  0  0  0  0  0  0  0  0  0
   -8.2570    4.7660  -18.4780 C   0  0  0  0  0  0  0  0  0  0  0  0
   -9.1480    4.9630  -17.3180 C   0  0  0  0  0  0  0  0  0  0  0  0
   -8.8180    5.6390  -16.0960 C   0  0  0  0  0  0  0  0  0  0  0  0
   -9.8520    5.9070  -14.7080 S   0  0  0  0  0  0  0  0  0  0  0  0
   -8.5510    6.7480  -13.9830 C   0  0  0  0  0  0  0  0  0  0  0  0
   -8.5630    7.5420  -12.4730 S   0  0  0  0  0  0  0  0  0  0  0  0
   -8.7870    6.1920  -11.4490 C   0  0  0  0  0  0  0  0  0  0  0  0
   -8.8730    4.7980  -11.9650 C   0  0  0  0  0  0  0  0  0  0  0  0
   -9.0540    3.7730  -11.0460 C   0  0  0  0  0  0  0  0  0  0  0  0
   -9.1330    4.2290   -9.6800 C   0  0  0  0  0  0  0  0  0  0  0  0
   -9.3200    3.2250   -8.7490 C   0  0  0  0  0  0  0  0  0  0  0  0
   -9.0440    5.5200   -9.2660 N   0  0  0  0  0  0  0  0  0  0  0  0
   -8.8700    6.5270  -10.1690 N   0  0  0  0  0  0  0  0  0  0  0  0
   -7.4160    6.8090  -14.6940 N   0  0  0  0  0  0  0  0  0  0  0  0
   -7.5790    6.1700  -15.9270 C   0  0  0  0  0  0  0  0  0  0  0  0
   -6.6490    6.0320  -16.9570 C   0  0  0  0  0  0  0  0  0  0  0  0
   -5.6170    6.1410  -19.7030 H   0  0  0  0  0  0  0  0  0  0  0  0
   -6.3650    4.6050  -19.9630 H   0  0  0  0  0  0  0  0  0  0  0  0
   -5.1190    4.7870  -18.7450 H   0  0  0  0  0  0  0  0  0  0  0  0
   -8.5420    4.2540  -19.3900 H   0  0  0  0  0  0  0  0  0  0  0  0
  -10.1620    4.5550  -17.3940 H   0  0  0  0  0  0  0  0  0  0  0  0
   -8.8010    4.5720  -13.0190 H   0  0  0  0  0  0  0  0  0  0  0  0
   -9.1300    2.7310  -11.3340 H   0  0  0  0  0  0  0  0  0  0  0  0
  -10.2950    2.9370   -8.3840 H   0  0  0  0  0  0  0  0  0  0  0  0
   -8.8030    3.3180   -7.8040 H   0  0  0  0  0  0  0  0  0  0  0  0
   -8.9450    2.2650   -9.0870 H   0  0  0  0  0  0  0  0  0  0  0  0
   -5.6590    6.4570  -16.8140 H   0  0  0  0  0  0  0  0  0  0  0  0
  1  2  1  0
  2  3  2  0
  3  4  1  0
  4  5  2  0
  5  6  1  0
  6  7  1  0
  7  8  1  0
  8  9  1  0
  9 10  2  0
 10 11  1  0
 11 12  2  0
 12 13  1  0
 12 14  1  0
 14 15  2  0
  7 16  2  0
 16 17  1  0
 17 18  2  0
 18  2  1  0
 17  5  1  0
 15  9  1  0
  1 19  1  0
  1 20  1  0
  1 21  1  0
  3 22  1  0
  4 23  1  0
 10 24  1  0
 11 25  1  0
 13 26  1  0
 13 27  1  0
 13 28  1  0
 18 29  1  0
A    1
 C1 
A    2
 C2 
A    3
 C3 
A    4
 C4 
A    5
 C5 
A    6
 S1 
A    7
 C6 
A    8
 S2 
A    9
 C7 
A   10
 C8 
A   11
 C9 
A   12
 C10
A   13
 C11
A   14
 N1 
A   15
 N2 
A   16
 N3 
A   17
 C12
A   18
 C13
A   19
 H1 
A   20
 H2 
A   21
 H3 
A   22
 H4 
A   23
 H5 
A   24
 H6 
A   25
 H7 
A   26
 H8 
A   27
 H9 
A   28
 H10
A   29
 H11
M  END
>  <ref_pdb>  (84) 
x0051_0B

>  <ref_mols>  (84) 
x0404_0B,x0969_0B

>  <original SMILES>  (84) 
[H]c1c(Sc2nc3c([H])c(C([H])([H])[H])c([H])c([H])c3s2)nnc(C([H])([H])[H])c1[H]

>  <index>  (84) 
5146

>  <∆∆G>  (84) 
-8.967484

>  <comRMSD>  (84) 
0.381529

>  <N_constrained_atoms>  (84) 
17.0

>  <N_unconstrained_atoms>  (84) 
1.0

>  <LE>  (84) 
0.498194

>  <percent_hybrid>  (84) 
0.0

>  <max_hit_Tanimoto>  (84) 
0.247971

>  <largest_ring>  (84) 
6

>  <N_interactions_kept>  (84) 
0.0

>  <N_interactions_lost>  (84) 
0.0

>  <interaction_uniqueness_metric>  (84) 
0.077503

>  <N_HA>  (84) 
18

>  <N_rotatable_bonds>  (84) 
4

>  <N_interactions>  (84) 
5

>  <N_PAINS>  (84) 
0

>  <UFF_Gibbs>  (84) 
93.203174

>  <strain_per_HA>  (84) 
5.177925

>  <ad_hoc_penalty>  (84) 
-39.42256

>  <cluster>  (84) 
373

>  <merger_rank>  (84) 
3

>  <pication:ARG:29>  (84) 
0

>  <hbond:HIS:51>  (84) 
0

>  <pistack:HIS:51>  (84) 
1

>  <hydroph_interaction:TYR:161>  (84) 
2

>  <pication:HIS:51>  (84) 
0

>  <hydroph_interaction:ALA:132>  (84) 
1

>  <hydroph_interaction:TYR:150>  (84) 
0

>  <hydroph_interaction:LYS:54>  (84) 
0

>  <hbond:SER:135>  (84) 
0

>  <hydroph_interaction:HIS:51>  (84) 
1

>  <hbond:ASP:83>  (84) 
0

>  <hbond:ALA:132>  (84) 
0

>  <halogenbond:SER:81>  (84) 
0

>  <hbond:GLY:82>  (84) 
0

>  <saltbridge:HIS:51>  (84) 
0

>  <pistack:TYR:161>  (84) 
0

>  <hbond:SER:81>  (84) 
0

>  <hbond:ASN:152>  (84) 
0

>  <hbond:GLY:151>  (84) 
0

>  <hydroph_interaction:ASN:152>  (84) 
0

>  <hbond:TYR:161>  (84) 
0

>  <halogenbond:TYR:150>  (84) 
0

>  <hbond:ASP:75>  (84) 
0

>  <hbond:GLY:153>  (84) 
0

>  <hbond:VAL:36>  (84) 
0

>  <hbond:PRO:131>  (84) 
0

>  <hbond:VAL:52>  (84) 
0

>  <hydroph_interaction:ASP:83>  (84) 
0

>  <hydroph_interaction:MET:49>  (84) 
0

>  <hydroph_interaction:VAL:52>  (84) 
0

>  <saltbridge:ASP:83>  (84) 
0

>  <saltbridge:ASP:75>  (84) 
0

>  <hydroph_interaction:TRP:50>  (84) 
0

>  <hydroph_interaction:VAL:72>  (84) 
0

>  <hydroph_interaction:ASP:75>  (84) 
0

>  <halogenbond:ASN:152>  (84) 
0

>  <halogenbond:GLY:153>  (84) 
0

>  <halogenbond:TYR:130>  (84) 
0

>  <hbond:TYR:130>  (84) 
0

>  <halogenbond:ASP:75>  (84) 
0

>  <halogenbond:GLY:151>  (84) 
0

>  <hbond:TYR:150>  (84) 
0

>  <halogenbond:TYR:161>  (84) 
0

>  <hydroph_interaction:ASP:129>  (84) 
0

>  <hbond:ASP:129>  (84) 
0

>  <halogenbond:ALA:132>  (84) 
0

$$$$
Z2718941768
     RDKit          3D

 20 22  0  0  0  0  0  0  0  0999 V2000
   -9.0630    5.2480  -16.8080 C   0  0  0  0  0  0  0  0  0  0  0  0
   -7.7210    5.4440  -16.6560 C   0  0  0  0  0  0  0  0  0  0  0  0
   -7.4090    5.4070  -15.3200 O   0  0  0  0  0  0  0  0  0  0  0  0
   -8.5700    5.1810  -14.5980 C   0  0  0  0  0  0  0  0  0  0  0  0
   -8.6530    5.0630  -13.1760 C   0  0  0  0  0  0  0  0  0  0  0  0
   -8.9580    3.9080  -12.6040 N   0  0  0  0  0  0  0  0  0  0  0  0
   -8.9640    4.0880  -11.3170 C   0  0  0  0  0  0  0  0  0  0  0  0
   -9.2470    3.0620  -10.5200 C   0  0  0  0  0  0  0  0  0  0  0  0
   -9.2700    3.2180   -9.0140 C   0  0  0  0  0  0  0  0  0  0  0  0
   -8.9370    4.6310   -8.6290 C   0  0  0  0  0  0  0  0  0  0  0  0
   -8.6490    5.6740   -9.4910 N   0  0  0  0  0  0  0  0  0  0  0  0
   -8.6820    5.3300  -10.7960 C   0  0  0  0  0  0  0  0  0  0  0  0
   -8.3740    6.3890  -12.1000 S   0  0  0  0  0  0  0  0  0  0  0  0
   -9.5880    5.0880  -15.5170 C   0  0  0  0  0  0  0  0  0  0  0  0
   -9.6280    5.2180  -17.7290 H   0  0  0  0  0  0  0  0  0  0  0  0
   -6.8980    5.6130  -17.3350 H   0  0  0  0  0  0  0  0  0  0  0  0
   -9.4810    2.0520  -10.8680 H   0  0  0  0  0  0  0  0  0  0  0  0
   -9.4900    2.4370   -8.2950 H   0  0  0  0  0  0  0  0  0  0  0  0
   -8.9120    4.8930   -7.5790 H   0  0  0  0  0  0  0  0  0  0  0  0
  -10.6170    4.9120  -15.2630 H   0  0  0  0  0  0  0  0  0  0  0  0
  1  2  2  0
  2  3  1  0
  3  4  1  0
  4  5  1  0
  5  6  2  0
  6  7  1  0
  7  8  2  0
  8  9  1  0
  9 10  2  0
 10 11  1  0
 11 12  2  0
 12 13  1  0
  4 14  2  0
 14  1  1  0
 13  5  1  0
 12  7  1  0
  1 15  1  0
  2 16  1  0
  8 17  1  0
  9 18  1  0
 10 19  1  0
 14 20  1  0
A    1
 C1 
A    2
 C2 
A    3
 O1 
A    4
 C3 
A    5
 C4 
A    6
 N1 
A    7
 C5 
A    8
 C6 
A    9
 C7 
A   10
 C8 
A   11
 N2 
A   12
 C9 
A   13
 S1 
A   14
 C10
A   15
 H1 
A   16
 H2 
A   17
 H3 
A   18
 H4 
A   19
 H5 
A   20
 H6 
M  END
>  <ref_pdb>  (85) 
x0051_0B

>  <ref_mols>  (85) 
x0969_1B,x0553_0B

>  <original SMILES>  (85) 
[H]c1nc2sc(-c3oc([H])c([H])c3[H])nc2c([H])c1[H]

>  <index>  (85) 
1168

>  <∆∆G>  (85) 
-3.76819

>  <comRMSD>  (85) 
0.276401

>  <N_constrained_atoms>  (85) 
13.0

>  <N_unconstrained_atoms>  (85) 
1.0

>  <LE>  (85) 
0.269156

>  <percent_hybrid>  (85) 
0.0

>  <max_hit_Tanimoto>  (85) 
0.257532

>  <largest_ring>  (85) 
6

>  <N_interactions_kept>  (85) 
0.0

>  <N_interactions_lost>  (85) 
0.0

>  <interaction_uniqueness_metric>  (85) 
0.10558

>  <N_HA>  (85) 
14

>  <N_rotatable_bonds>  (85) 
1

>  <N_interactions>  (85) 
6

>  <N_PAINS>  (85) 
0

>  <UFF_Gibbs>  (85) 
47.914213

>  <strain_per_HA>  (85) 
3.422419

>  <ad_hoc_penalty>  (85) 
-39.351271

>  <cluster>  (85) 
4005

>  <merger_rank>  (85) 
3

>  <pication:ARG:29>  (85) 
0

>  <hbond:HIS:51>  (85) 
0

>  <pistack:HIS:51>  (85) 
2

>  <hydroph_interaction:TYR:161>  (85) 
1

>  <pication:HIS:51>  (85) 
0

>  <hydroph_interaction:ALA:132>  (85) 
1

>  <hydroph_interaction:TYR:150>  (85) 
0

>  <hydroph_interaction:LYS:54>  (85) 
0

>  <hbond:SER:135>  (85) 
0

>  <hydroph_interaction:HIS:51>  (85) 
1

>  <hbond:ASP:83>  (85) 
0

>  <hbond:ALA:132>  (85) 
0

>  <halogenbond:SER:81>  (85) 
0

>  <hbond:GLY:82>  (85) 
0

>  <saltbridge:HIS:51>  (85) 
0

>  <pistack:TYR:161>  (85) 
0

>  <hbond:SER:81>  (85) 
0

>  <hbond:ASN:152>  (85) 
0

>  <hbond:GLY:151>  (85) 
0

>  <hydroph_interaction:ASN:152>  (85) 
0

>  <hbond:TYR:161>  (85) 
1

>  <halogenbond:TYR:150>  (85) 
0

>  <hbond:ASP:75>  (85) 
0

>  <hbond:GLY:153>  (85) 
0

>  <hbond:VAL:36>  (85) 
0

>  <hbond:PRO:131>  (85) 
0

>  <hbond:VAL:52>  (85) 
0

>  <hydroph_interaction:ASP:83>  (85) 
0

>  <hydroph_interaction:MET:49>  (85) 
0

>  <hydroph_interaction:VAL:52>  (85) 
0

>  <saltbridge:ASP:83>  (85) 
0

>  <saltbridge:ASP:75>  (85) 
0

>  <hydroph_interaction:TRP:50>  (85) 
0

>  <hydroph_interaction:VAL:72>  (85) 
0

>  <hydroph_interaction:ASP:75>  (85) 
0

>  <halogenbond:ASN:152>  (85) 
0

>  <halogenbond:GLY:153>  (85) 
0

>  <halogenbond:TYR:130>  (85) 
0

>  <hbond:TYR:130>  (85) 
0

>  <halogenbond:ASP:75>  (85) 
0

>  <halogenbond:GLY:151>  (85) 
0

>  <hbond:TYR:150>  (85) 
0

>  <halogenbond:TYR:161>  (85) 
0

>  <hydroph_interaction:ASP:129>  (85) 
0

>  <hbond:ASP:129>  (85) 
0

>  <halogenbond:ALA:132>  (85) 
0

$$$$
PV-002969694983
     RDKit          3D

 27 29  0  0  0  0  0  0  0  0999 V2000
   -6.6140    6.0760  -18.3100 C   0  0  0  0  0  0  0  0  0  0  0  0
   -7.3250    5.8000  -16.9980 C   0  0  0  0  0  0  0  0  0  0  0  0
   -8.7250    5.3570  -17.1160 C   0  0  0  0  0  0  0  0  0  0  0  0
   -9.5290    5.0530  -15.8900 C   0  0  0  0  0  0  0  0  0  0  0  0
   -8.8590    5.2150  -14.6820 C   0  0  0  0  0  0  0  0  0  0  0  0
   -9.3680    4.9940  -13.4440 N   0  0  0  0  0  0  0  0  0  0  0  0
   -8.4380    5.2410  -12.5520 C   0  0  0  0  0  0  0  0  0  0  0  0
   -8.6450    5.0870  -11.1930 C   0  0  0  0  0  0  0  0  0  0  0  0
   -8.4050    6.0930  -10.1790 C   0  0  0  0  0  0  0  0  0  0  0  0
   -8.7040    5.6130   -8.8230 C   0  0  0  0  0  0  0  0  0  0  0  0
   -9.1660    4.3340   -8.5170 C   0  0  0  0  0  0  0  0  0  0  0  0
   -9.3390    3.5060   -9.6410 C   0  0  0  0  0  0  0  0  0  0  0  0
   -9.0980    3.8360  -10.9430 N   0  0  0  0  0  0  0  0  0  0  0  0
   -7.2890    5.6500  -13.2130 N   0  0  0  0  0  0  0  0  0  0  0  0
   -7.5340    5.6330  -14.5930 C   0  0  0  0  0  0  0  0  0  0  0  0
   -6.7440    5.9360  -15.7260 C   0  0  0  0  0  0  0  0  0  0  0  0
   -4.9530    6.4950  -15.4890 Br  0  0  0  0  0  0  0  0  0  0  0  0
   -6.1400    7.0640  -18.3060 H   0  0  0  0  0  0  0  0  0  0  0  0
   -5.8380    5.3290  -18.5080 H   0  0  0  0  0  0  0  0  0  0  0  0
   -7.3310    6.0440  -19.1390 H   0  0  0  0  0  0  0  0  0  0  0  0
   -9.2530    5.2230  -18.0650 H   0  0  0  0  0  0  0  0  0  0  0  0
  -10.5580    4.7150  -15.7880 H   0  0  0  0  0  0  0  0  0  0  0  0
   -8.0450    7.0860  -10.4070 H   0  0  0  0  0  0  0  0  0  0  0  0
   -8.5490    6.3020   -8.0040 H   0  0  0  0  0  0  0  0  0  0  0  0
   -9.3780    4.0030   -7.5060 H   0  0  0  0  0  0  0  0  0  0  0  0
   -9.7000    2.4890   -9.5020 H   0  0  0  0  0  0  0  0  0  0  0  0
   -6.4280    5.9010  -12.7460 H   0  0  0  0  0  0  0  0  0  0  0  0
  1  2  1  0
  2  3  2  0
  3  4  1  0
  4  5  2  0
  5  6  1  0
  6  7  2  0
  7  8  1  0
  8  9  2  0
  9 10  1  0
 10 11  2  0
 11 12  1  0
 12 13  2  0
  7 14  1  0
 14 15  1  0
 15 16  2  0
 16 17  1  0
 16  2  1  0
 15  5  1  0
 13  8  1  0
  1 18  1  0
  1 19  1  0
  1 20  1  0
  3 21  1  0
  4 22  1  0
  9 23  1  0
 10 24  1  0
 11 25  1  0
 12 26  1  0
 14 27  1  0
A    1
 C1 
A    2
 C2 
A    3
 C3 
A    4
 C4 
A    5
 C5 
A    6
 N1 
A    7
 C6 
A    8
 C7 
A    9
 C8 
A   10
 C9 
A   11
 C10
A   12
 C11
A   13
 N2 
A   14
 N3 
A   15
 C12
A   16
 C13
A   17
BR1 
A   18
 H1 
A   19
 H2 
A   20
 H3 
A   21
 H4 
A   22
 H5 
A   23
 H6 
A   24
 H7 
A   25
 H8 
A   26
 H9 
A   27
 H10
M  END
>  <ref_pdb>  (86) 
x0051_0B

>  <ref_mols>  (86) 
x0404_0B,x0969_0B

>  <original SMILES>  (86) 
[H]c1nc(-c2nc3c([H])c([H])c(C([H])([H])[H])c(Br)c3n2[H])c([H])c([H])c1[H]

>  <index>  (86) 
3748

>  <∆∆G>  (86) 
-4.269322

>  <comRMSD>  (86) 
0.250963

>  <N_constrained_atoms>  (86) 
16.0

>  <N_unconstrained_atoms>  (86) 
1.0

>  <LE>  (86) 
0.251137

>  <percent_hybrid>  (86) 
0.0

>  <max_hit_Tanimoto>  (86) 
0.337573

>  <largest_ring>  (86) 
6

>  <N_interactions_kept>  (86) 
0.0

>  <N_interactions_lost>  (86) 
0.0

>  <interaction_uniqueness_metric>  (86) 
0.119206

>  <N_HA>  (86) 
17

>  <N_rotatable_bonds>  (86) 
2

>  <N_interactions>  (86) 
6

>  <N_PAINS>  (86) 
0

>  <UFF_Gibbs>  (86) 
49.423403

>  <strain_per_HA>  (86) 
2.907242

>  <ad_hoc_penalty>  (86) 
-39.322416

>  <cluster>  (86) 
2250

>  <merger_rank>  (86) 
3

>  <pication:ARG:29>  (86) 
0

>  <hbond:HIS:51>  (86) 
1

>  <pistack:HIS:51>  (86) 
1

>  <hydroph_interaction:TYR:161>  (86) 
2

>  <pication:HIS:51>  (86) 
0

>  <hydroph_interaction:ALA:132>  (86) 
1

>  <hydroph_interaction:TYR:150>  (86) 
0

>  <hydroph_interaction:LYS:54>  (86) 
0

>  <hbond:SER:135>  (86) 
0

>  <hydroph_interaction:HIS:51>  (86) 
1

>  <hbond:ASP:83>  (86) 
0

>  <hbond:ALA:132>  (86) 
0

>  <halogenbond:SER:81>  (86) 
0

>  <hbond:GLY:82>  (86) 
0

>  <saltbridge:HIS:51>  (86) 
0

>  <pistack:TYR:161>  (86) 
0

>  <hbond:SER:81>  (86) 
0

>  <hbond:ASN:152>  (86) 
0

>  <hbond:GLY:151>  (86) 
0

>  <hydroph_interaction:ASN:152>  (86) 
0

>  <hbond:TYR:161>  (86) 
0

>  <halogenbond:TYR:150>  (86) 
0

>  <hbond:ASP:75>  (86) 
0

>  <hbond:GLY:153>  (86) 
0

>  <hbond:VAL:36>  (86) 
0

>  <hbond:PRO:131>  (86) 
0

>  <hbond:VAL:52>  (86) 
0

>  <hydroph_interaction:ASP:83>  (86) 
0

>  <hydroph_interaction:MET:49>  (86) 
0

>  <hydroph_interaction:VAL:52>  (86) 
0

>  <saltbridge:ASP:83>  (86) 
0

>  <saltbridge:ASP:75>  (86) 
0

>  <hydroph_interaction:TRP:50>  (86) 
0

>  <hydroph_interaction:VAL:72>  (86) 
0

>  <hydroph_interaction:ASP:75>  (86) 
0

>  <halogenbond:ASN:152>  (86) 
0

>  <halogenbond:GLY:153>  (86) 
0

>  <halogenbond:TYR:130>  (86) 
0

>  <hbond:TYR:130>  (86) 
0

>  <halogenbond:ASP:75>  (86) 
0

>  <halogenbond:GLY:151>  (86) 
0

>  <hbond:TYR:150>  (86) 
0

>  <halogenbond:TYR:161>  (86) 
0

>  <hydroph_interaction:ASP:129>  (86) 
0

>  <hbond:ASP:129>  (86) 
0

>  <halogenbond:ALA:132>  (86) 
0

$$$$
PV-002568870504
     RDKit          3D

 22 23  0  0  0  0  0  0  0  0999 V2000
   -7.9300    2.6230  -12.8560 O   0  0  0  0  0  0  0  0  0  0  0  0
   -8.6450    3.8220  -12.6350 C   0  0  0  0  0  0  0  0  0  0  0  0
   -9.2040    4.5310  -13.7770 N   0  0  0  0  0  0  0  0  0  0  0  0
   -8.4810    5.4940  -14.4050 C   0  0  0  0  0  0  0  0  0  0  0  0
   -8.4330    5.3270  -15.8890 C   0  0  0  0  0  0  0  0  0  0  0  0
   -7.3200    5.7230  -16.4980 N   0  0  0  0  0  0  0  0  0  0  0  0
   -7.3930    5.5040  -18.1480 S   0  0  0  0  0  0  0  0  0  0  0  0
   -9.0240    4.8230  -18.0770 C   0  0  0  0  0  0  0  0  0  0  0  0
   -9.4410    4.8010  -16.7740 C   0  0  0  0  0  0  0  0  0  0  0  0
   -8.7850    4.3550  -11.2890 C   0  0  0  0  0  0  0  0  0  0  0  0
   -8.6360    5.6460  -10.7960 C   0  0  0  0  0  0  0  0  0  0  0  0
   -8.8470    5.6440   -9.4060 C   0  0  0  0  0  0  0  0  0  0  0  0
   -9.1590    4.4150   -8.7900 C   0  0  0  0  0  0  0  0  0  0  0  0
   -9.1920    3.2220  -10.0150 S   0  0  0  0  0  0  0  0  0  0  0  0
   -9.7300    3.9570  -14.4220 H   0  0  0  0  0  0  0  0  0  0  0  0
   -8.8950    6.4260  -14.0430 H   0  0  0  0  0  0  0  0  0  0  0  0
   -7.4830    5.4420  -13.9680 H   0  0  0  0  0  0  0  0  0  0  0  0
   -9.6900    4.4530  -18.8650 H   0  0  0  0  0  0  0  0  0  0  0  0
  -10.4420    4.4070  -16.5800 H   0  0  0  0  0  0  0  0  0  0  0  0
   -8.3910    6.5540  -11.3250 H   0  0  0  0  0  0  0  0  0  0  0  0
   -8.7450    6.6230   -8.9220 H   0  0  0  0  0  0  0  0  0  0  0  0
   -9.3460    4.2420   -7.7380 H   0  0  0  0  0  0  0  0  0  0  0  0
  1  2  2  0
  2  3  1  0
  3  4  1  0
  4  5  1  0
  5  6  2  0
  6  7  1  0
  7  8  1  0
  8  9  2  0
  2 10  1  0
 10 11  2  0
 11 12  1  0
 12 13  2  0
 13 14  1  0
  9  5  1  0
 14 10  1  0
  3 15  1  0
  4 16  1  0
  4 17  1  0
  8 18  1  0
  9 19  1  0
 11 20  1  0
 12 21  1  0
 13 22  1  0
A    1
 O1 
A    2
 C1 
A    3
 N1 
A    4
 C2 
A    5
 C3 
A    6
 N2 
A    7
 S1 
A    8
 C4 
A    9
 C5 
A   10
 C6 
A   11
 C7 
A   12
 C8 
A   13
 C9 
A   14
 S2 
A   15
 H1 
A   16
 H2 
A   17
 H3 
A   18
 H4 
A   19
 H5 
A   20
 H6 
A   21
 H7 
A   22
 H8 
M  END
>  <ref_pdb>  (87) 
x0051_0B

>  <ref_mols>  (87) 
x0969_1B,x0553_0B

>  <original SMILES>  (87) 
[H]c1snc(C([H])([H])N([H])C(=O)c2sc([H])c([H])c2[H])c1[H]

>  <index>  (87) 
845

>  <∆∆G>  (87) 
-4.329386

>  <comRMSD>  (87) 
0.562946

>  <N_constrained_atoms>  (87) 
14.0

>  <N_unconstrained_atoms>  (87) 
0.0

>  <LE>  (87) 
0.309242

>  <percent_hybrid>  (87) 
0.0

>  <max_hit_Tanimoto>  (87) 
0.172363

>  <largest_ring>  (87) 
5

>  <N_interactions_kept>  (87) 
0.0

>  <N_interactions_lost>  (87) 
0.0

>  <interaction_uniqueness_metric>  (87) 
0.342022

>  <N_HA>  (87) 
14

>  <N_rotatable_bonds>  (87) 
3

>  <N_interactions>  (87) 
6

>  <N_PAINS>  (87) 
0

>  <UFF_Gibbs>  (87) 
63.106233

>  <strain_per_HA>  (87) 
4.507556

>  <ad_hoc_penalty>  (87) 
-39.293404

>  <cluster>  (87) 
4269

>  <merger_rank>  (87) 
1

>  <pication:ARG:29>  (87) 
0

>  <hbond:HIS:51>  (87) 
1

>  <pistack:HIS:51>  (87) 
1

>  <hydroph_interaction:TYR:161>  (87) 
1

>  <pication:HIS:51>  (87) 
0

>  <hydroph_interaction:ALA:132>  (87) 
0

>  <hydroph_interaction:TYR:150>  (87) 
0

>  <hydroph_interaction:LYS:54>  (87) 
0

>  <hbond:SER:135>  (87) 
0

>  <hydroph_interaction:HIS:51>  (87) 
1

>  <hbond:ASP:83>  (87) 
0

>  <hbond:ALA:132>  (87) 
0

>  <halogenbond:SER:81>  (87) 
0

>  <hbond:GLY:82>  (87) 
0

>  <saltbridge:HIS:51>  (87) 
0

>  <pistack:TYR:161>  (87) 
0

>  <hbond:SER:81>  (87) 
0

>  <hbond:ASN:152>  (87) 
0

>  <hbond:GLY:151>  (87) 
0

>  <hydroph_interaction:ASN:152>  (87) 
0

>  <hbond:TYR:161>  (87) 
1

>  <halogenbond:TYR:150>  (87) 
0

>  <hbond:ASP:75>  (87) 
0

>  <hbond:GLY:153>  (87) 
1

>  <hbond:VAL:36>  (87) 
0

>  <hbond:PRO:131>  (87) 
0

>  <hbond:VAL:52>  (87) 
0

>  <hydroph_interaction:ASP:83>  (87) 
0

>  <hydroph_interaction:MET:49>  (87) 
0

>  <hydroph_interaction:VAL:52>  (87) 
0

>  <saltbridge:ASP:83>  (87) 
0

>  <saltbridge:ASP:75>  (87) 
0

>  <hydroph_interaction:TRP:50>  (87) 
0

>  <hydroph_interaction:VAL:72>  (87) 
0

>  <hydroph_interaction:ASP:75>  (87) 
0

>  <halogenbond:ASN:152>  (87) 
0

>  <halogenbond:GLY:153>  (87) 
0

>  <halogenbond:TYR:130>  (87) 
0

>  <hbond:TYR:130>  (87) 
0

>  <halogenbond:ASP:75>  (87) 
0

>  <halogenbond:GLY:151>  (87) 
0

>  <hbond:TYR:150>  (87) 
0

>  <halogenbond:TYR:161>  (87) 
0

>  <hydroph_interaction:ASP:129>  (87) 
0

>  <hbond:ASP:129>  (87) 
0

>  <halogenbond:ALA:132>  (87) 
0

$$$$
Z1783485344
     RDKit          3D

 27 28  0  0  0  0  0  0  0  0999 V2000
   -9.2970    3.4010   -7.6150 C   0  0  0  0  0  0  0  0  0  0  0  0
   -9.0730    4.2190   -8.8530 C   0  0  0  0  0  0  0  0  0  0  0  0
   -8.7970    5.5790   -8.9490 C   0  0  0  0  0  0  0  0  0  0  0  0
   -8.6430    6.0530  -10.1980 N   0  0  0  0  0  0  0  0  0  0  0  0
   -8.8040    5.0180  -11.1020 C   0  0  0  0  0  0  0  0  0  0  0  0
   -8.7020    5.1850  -12.4450 N   0  0  0  0  0  0  0  0  0  0  0  0
   -9.1320    6.2260  -13.2050 C   0  0  0  0  0  0  0  0  0  0  0  0
   -9.4280    7.3440  -12.7830 O   0  0  0  0  0  0  0  0  0  0  0  0
   -9.2110    5.8750  -14.7040 C   0  0  0  0  0  0  0  0  0  0  0  0
   -8.0390    5.9430  -15.4740 C   0  0  0  0  0  0  0  0  0  0  0  0
   -7.8240    5.6690  -16.9980 C   0  0  0  0  0  0  0  0  0  0  0  0
   -8.8400    4.9610  -17.5460 C   0  0  0  0  0  0  0  0  0  0  0  0
   -8.4020    4.8630  -18.9210 C   0  0  0  0  0  0  0  0  0  0  0  0
   -7.1620    5.5380  -19.0030 C   0  0  0  0  0  0  0  0  0  0  0  0
   -6.8250    6.0350  -17.7630 N   0  0  0  0  0  0  0  0  0  0  0  0
   -9.1400    3.4940  -10.3970 S   0  0  0  0  0  0  0  0  0  0  0  0
  -10.3330    3.4740   -7.2700 H   0  0  0  0  0  0  0  0  0  0  0  0
   -9.0880    2.3390   -7.7980 H   0  0  0  0  0  0  0  0  0  0  0  0
   -8.6340    3.7360   -6.8080 H   0  0  0  0  0  0  0  0  0  0  0  0
   -8.6880    6.3160   -8.1610 H   0  0  0  0  0  0  0  0  0  0  0  0
   -8.2330    4.4200  -12.9340 H   0  0  0  0  0  0  0  0  0  0  0  0
  -10.1480    5.5850  -15.1670 H   0  0  0  0  0  0  0  0  0  0  0  0
   -7.1470    6.2370  -14.9330 H   0  0  0  0  0  0  0  0  0  0  0  0
   -9.7400    4.5680  -17.0960 H   0  0  0  0  0  0  0  0  0  0  0  0
   -8.8750    4.3860  -19.7700 H   0  0  0  0  0  0  0  0  0  0  0  0
   -6.5290    5.6800  -19.8660 H   0  0  0  0  0  0  0  0  0  0  0  0
   -5.9930    6.5600  -17.5250 H   0  0  0  0  0  0  0  0  0  0  0  0
  1  2  1  0
  2  3  2  0
  3  4  1  0
  4  5  2  0
  5  6  1  0
  6  7  1  0
  7  8  2  0
  7  9  1  0
  9 10  2  3
 10 11  1  0
 11 12  2  0
 12 13  1  0
 13 14  2  0
 14 15  1  0
  5 16  1  0
 16  2  1  0
 15 11  1  0
  1 17  1  0
  1 18  1  0
  1 19  1  0
  3 20  1  0
  6 21  1  0
  9 22  1  0
 10 23  1  0
 12 24  1  0
 13 25  1  0
 14 26  1  0
 15 27  1  0
A    1
 C1 
A    2
 C2 
A    3
 C3 
A    4
 N1 
A    5
 C4 
A    6
 N2 
A    7
 C5 
A    8
 O1 
A    9
 C6 
A   10
 C7 
A   11
 C8 
A   12
 C9 
A   13
 C10
A   14
 C11
A   15
 N3 
A   16
 S1 
A   17
 H1 
A   18
 H2 
A   19
 H3 
A   20
 H4 
A   21
 H5 
A   22
 H6 
A   23
 H7 
A   24
 H8 
A   25
 H9 
A   26
 H10
A   27
 H11
M  END
>  <ref_pdb>  (88) 
x0051_0B

>  <ref_mols>  (88) 
x0404_0B,x0969_0B

>  <original SMILES>  (88) 
[H]C(C(=O)N([H])c1nc([H])c(C([H])([H])[H])s1)=C([H])c1c([H])c([H])c([H])n1[H]

>  <index>  (88) 
6082

>  <∆∆G>  (88) 
-6.299529

>  <comRMSD>  (88) 
0.261706

>  <N_constrained_atoms>  (88) 
16.0

>  <N_unconstrained_atoms>  (88) 
0.0

>  <LE>  (88) 
0.393721

>  <percent_hybrid>  (88) 
0.0

>  <max_hit_Tanimoto>  (88) 
0.167989

>  <largest_ring>  (88) 
5

>  <N_interactions_kept>  (88) 
0.0

>  <N_interactions_lost>  (88) 
0.0

>  <interaction_uniqueness_metric>  (88) 
0.128205

>  <N_HA>  (88) 
16

>  <N_rotatable_bonds>  (88) 
4

>  <N_interactions>  (88) 
6

>  <N_PAINS>  (88) 
0

>  <UFF_Gibbs>  (88) 
57.353637

>  <strain_per_HA>  (88) 
3.58458

>  <ad_hoc_penalty>  (88) 
-39.246099

>  <cluster>  (88) 
722

>  <merger_rank>  (88) 
4

>  <pication:ARG:29>  (88) 
0

>  <hbond:HIS:51>  (88) 
0

>  <pistack:HIS:51>  (88) 
1

>  <hydroph_interaction:TYR:161>  (88) 
2

>  <pication:HIS:51>  (88) 
0

>  <hydroph_interaction:ALA:132>  (88) 
1

>  <hydroph_interaction:TYR:150>  (88) 
0

>  <hydroph_interaction:LYS:54>  (88) 
0

>  <hbond:SER:135>  (88) 
0

>  <hydroph_interaction:HIS:51>  (88) 
1

>  <hbond:ASP:83>  (88) 
0

>  <hbond:ALA:132>  (88) 
0

>  <halogenbond:SER:81>  (88) 
0

>  <hbond:GLY:82>  (88) 
0

>  <saltbridge:HIS:51>  (88) 
0

>  <pistack:TYR:161>  (88) 
0

>  <hbond:SER:81>  (88) 
0

>  <hbond:ASN:152>  (88) 
0

>  <hbond:GLY:151>  (88) 
1

>  <hydroph_interaction:ASN:152>  (88) 
0

>  <hbond:TYR:161>  (88) 
0

>  <halogenbond:TYR:150>  (88) 
0

>  <hbond:ASP:75>  (88) 
0

>  <hbond:GLY:153>  (88) 
0

>  <hbond:VAL:36>  (88) 
0

>  <hbond:PRO:131>  (88) 
0

>  <hbond:VAL:52>  (88) 
0

>  <hydroph_interaction:ASP:83>  (88) 
0

>  <hydroph_interaction:MET:49>  (88) 
0

>  <hydroph_interaction:VAL:52>  (88) 
0

>  <saltbridge:ASP:83>  (88) 
0

>  <saltbridge:ASP:75>  (88) 
0

>  <hydroph_interaction:TRP:50>  (88) 
0

>  <hydroph_interaction:VAL:72>  (88) 
0

>  <hydroph_interaction:ASP:75>  (88) 
0

>  <halogenbond:ASN:152>  (88) 
0

>  <halogenbond:GLY:153>  (88) 
0

>  <halogenbond:TYR:130>  (88) 
0

>  <hbond:TYR:130>  (88) 
0

>  <halogenbond:ASP:75>  (88) 
0

>  <halogenbond:GLY:151>  (88) 
0

>  <hbond:TYR:150>  (88) 
0

>  <halogenbond:TYR:161>  (88) 
0

>  <hydroph_interaction:ASP:129>  (88) 
0

>  <hbond:ASP:129>  (88) 
0

>  <halogenbond:ALA:132>  (88) 
0

$$$$
Z899054020
     RDKit          3D

 30 32  0  0  0  0  0  0  0  0999 V2000
  -10.1120    5.6840  -15.0960 O   0  0  0  0  0  0  0  0  0  0  0  0
   -8.9480    6.0290  -15.1920 C   0  0  0  0  0  0  0  0  0  0  0  0
   -8.2050    6.8310  -14.2120 N   0  0  0  0  0  0  0  0  0  0  0  0
   -9.1140    7.2660  -13.1340 C   0  0  0  0  0  0  0  0  0  0  0  0
   -9.0160    6.2730  -12.0330 C   0  0  0  0  0  0  0  0  0  0  0  0
   -8.8010    6.4150  -10.6670 C   0  0  0  0  0  0  0  0  0  0  0  0
   -8.7790    5.1800   -9.9620 C   0  0  0  0  0  0  0  0  0  0  0  0
   -8.9860    4.1730  -10.8720 C   0  0  0  0  0  0  0  0  0  0  0  0
   -8.9760    2.9850  -10.2090 C   0  0  0  0  0  0  0  0  0  0  0  0
   -8.7570    3.3180   -8.7810 C   0  0  0  0  0  0  0  0  0  0  0  0
   -8.6010    4.6920   -8.5610 C   0  0  0  0  0  0  0  0  0  0  0  0
   -9.1920    4.6450  -12.4920 S   0  0  0  0  0  0  0  0  0  0  0  0
   -8.1910    5.6930  -16.3050 C   0  0  0  0  0  0  0  0  0  0  0  0
   -8.5090    5.1920  -17.5880 C   0  0  0  0  0  0  0  0  0  0  0  0
   -7.5500    4.9540  -18.5350 C   0  0  0  0  0  0  0  0  0  0  0  0
   -6.3100    5.3030  -17.9280 C   0  0  0  0  0  0  0  0  0  0  0  0
   -6.4780    5.8690  -16.3100 S   0  0  0  0  0  0  0  0  0  0  0  0
   -7.2660    6.5620  -13.9770 H   0  0  0  0  0  0  0  0  0  0  0  0
  -10.1640    7.4070  -13.3400 H   0  0  0  0  0  0  0  0  0  0  0  0
   -8.7610    8.2370  -12.7710 H   0  0  0  0  0  0  0  0  0  0  0  0
   -8.6500    7.2930  -10.0510 H   0  0  0  0  0  0  0  0  0  0  0  0
   -8.0840    2.3930  -10.4520 H   0  0  0  0  0  0  0  0  0  0  0  0
   -9.7330    2.2570  -10.4530 H   0  0  0  0  0  0  0  0  0  0  0  0
   -7.9090    2.7610   -8.3680 H   0  0  0  0  0  0  0  0  0  0  0  0
   -9.5110    2.9450   -8.1060 H   0  0  0  0  0  0  0  0  0  0  0  0
   -7.6150    5.0150   -8.2410 H   0  0  0  0  0  0  0  0  0  0  0  0
   -9.2840    5.2240   -7.9130 H   0  0  0  0  0  0  0  0  0  0  0  0
   -9.5830    5.0260  -17.7270 H   0  0  0  0  0  0  0  0  0  0  0  0
   -7.7290    4.5760  -19.5340 H   0  0  0  0  0  0  0  0  0  0  0  0
   -5.3260    5.2440  -18.3710 H   0  0  0  0  0  0  0  0  0  0  0  0
  1  2  2  0
  2  3  1  0
  3  4  1  0
  4  5  1  0
  5  6  2  0
  6  7  1  0
  7  8  2  0
  8  9  1  0
  9 10  1  0
 10 11  1  0
  8 12  1  0
  2 13  1  0
 13 14  2  0
 14 15  1  0
 15 16  2  0
 16 17  1  0
 12  5  1  0
 11  7  1  0
 17 13  1  0
  3 18  1  0
  4 19  1  0
  4 20  1  0
  6 21  1  0
  9 22  1  0
  9 23  1  0
 10 24  1  0
 10 25  1  0
 11 26  1  0
 11 27  1  0
 14 28  1  0
 15 29  1  0
 16 30  1  0
A    1
 O1 
A    2
 C1 
A    3
 N1 
A    4
 C2 
A    5
 C3 
A    6
 C4 
A    7
 C5 
A    8
 C6 
A    9
 C7 
A   10
 C8 
A   11
 C9 
A   12
 S1 
A   13
 C10
A   14
 C11
A   15
 C12
A   16
 C13
A   17
 S2 
A   18
 H1 
A   19
 H2 
A   20
 H3 
A   21
 H4 
A   22
 H5 
A   23
 H6 
A   24
 H7 
A   25
 H8 
A   26
 H9 
A   27
 H10
A   28
 H11
A   29
 H12
A   30
 H13
M  END
>  <ref_pdb>  (89) 
x0051_0B

>  <ref_mols>  (89) 
x0404_0B,x0969_0B

>  <original SMILES>  (89) 
[H]c1sc(C(=O)N([H])C([H])([H])c2sc3c(c2[H])C([H])([H])C([H])([H])C3([H])[H])c([H])c1[H]

>  <index>  (89) 
4437

>  <∆∆G>  (89) 
-5.704101

>  <comRMSD>  (89) 
0.257917

>  <N_constrained_atoms>  (89) 
17.0

>  <N_unconstrained_atoms>  (89) 
0.0

>  <LE>  (89) 
0.335535

>  <percent_hybrid>  (89) 
0.0

>  <max_hit_Tanimoto>  (89) 
0.357451

>  <largest_ring>  (89) 
5

>  <N_interactions_kept>  (89) 
0.0

>  <N_interactions_lost>  (89) 
0.0

>  <interaction_uniqueness_metric>  (89) 
0.115968

>  <N_HA>  (89) 
17

>  <N_rotatable_bonds>  (89) 
3

>  <N_interactions>  (89) 
6

>  <N_PAINS>  (89) 
0

>  <UFF_Gibbs>  (89) 
85.338952

>  <strain_per_HA>  (89) 
5.019909

>  <ad_hoc_penalty>  (89) 
-39.169211

>  <cluster>  (89) 
1763

>  <merger_rank>  (89) 
3

>  <pication:ARG:29>  (89) 
0

>  <hbond:HIS:51>  (89) 
0

>  <pistack:HIS:51>  (89) 
2

>  <hydroph_interaction:TYR:161>  (89) 
0

>  <pication:HIS:51>  (89) 
0

>  <hydroph_interaction:ALA:132>  (89) 
1

>  <hydroph_interaction:TYR:150>  (89) 
0

>  <hydroph_interaction:LYS:54>  (89) 
0

>  <hbond:SER:135>  (89) 
1

>  <hydroph_interaction:HIS:51>  (89) 
1

>  <hbond:ASP:83>  (89) 
0

>  <hbond:ALA:132>  (89) 
0

>  <halogenbond:SER:81>  (89) 
0

>  <hbond:GLY:82>  (89) 
0

>  <saltbridge:HIS:51>  (89) 
0

>  <pistack:TYR:161>  (89) 
1

>  <hbond:SER:81>  (89) 
0

>  <hbond:ASN:152>  (89) 
0

>  <hbond:GLY:151>  (89) 
0

>  <hydroph_interaction:ASN:152>  (89) 
0

>  <hbond:TYR:161>  (89) 
0

>  <halogenbond:TYR:150>  (89) 
0

>  <hbond:ASP:75>  (89) 
0

>  <hbond:GLY:153>  (89) 
0

>  <hbond:VAL:36>  (89) 
0

>  <hbond:PRO:131>  (89) 
0

>  <hbond:VAL:52>  (89) 
0

>  <hydroph_interaction:ASP:83>  (89) 
0

>  <hydroph_interaction:MET:49>  (89) 
0

>  <hydroph_interaction:VAL:52>  (89) 
0

>  <saltbridge:ASP:83>  (89) 
0

>  <saltbridge:ASP:75>  (89) 
0

>  <hydroph_interaction:TRP:50>  (89) 
0

>  <hydroph_interaction:VAL:72>  (89) 
0

>  <hydroph_interaction:ASP:75>  (89) 
0

>  <halogenbond:ASN:152>  (89) 
0

>  <halogenbond:GLY:153>  (89) 
0

>  <halogenbond:TYR:130>  (89) 
0

>  <hbond:TYR:130>  (89) 
0

>  <halogenbond:ASP:75>  (89) 
0

>  <halogenbond:GLY:151>  (89) 
0

>  <hbond:TYR:150>  (89) 
0

>  <halogenbond:TYR:161>  (89) 
0

>  <hydroph_interaction:ASP:129>  (89) 
0

>  <hbond:ASP:129>  (89) 
0

>  <halogenbond:ALA:132>  (89) 
0

$$$$
Z3801426596
     RDKit          3D

 32 34  0  0  0  0  0  0  0  0999 V2000
   -8.0440    4.0430  -20.0990 C   0  0  0  0  0  0  0  0  0  0  0  0
   -7.1170    4.9840  -19.3680 C   0  0  0  0  0  0  0  0  0  0  0  0
   -7.5860    5.2210  -17.9870 C   0  0  0  0  0  0  0  0  0  0  0  0
   -8.5490    4.5470  -17.3890 N   0  0  0  0  0  0  0  0  0  0  0  0
   -8.6770    5.0850  -16.1250 O   0  0  0  0  0  0  0  0  0  0  0  0
   -7.7830    6.0990  -15.9600 C   0  0  0  0  0  0  0  0  0  0  0  0
   -7.7050    6.8330  -14.7610 C   0  0  0  0  0  0  0  0  0  0  0  0
   -7.9050    6.2000  -13.6420 N   0  0  0  0  0  0  0  0  0  0  0  0
   -8.8610    6.6200  -12.7490 C   0  0  0  0  0  0  0  0  0  0  0  0
   -8.8970    5.7870  -11.6610 C   0  0  0  0  0  0  0  0  0  0  0  0
   -8.7910    6.2950  -10.3380 C   0  0  0  0  0  0  0  0  0  0  0  0
   -8.8510    5.2010   -9.3690 C   0  0  0  0  0  0  0  0  0  0  0  0
   -8.9990    3.9550   -9.9910 C   0  0  0  0  0  0  0  0  0  0  0  0
   -9.0490    3.0020   -9.0060 C   0  0  0  0  0  0  0  0  0  0  0  0
   -8.9340    3.5880   -7.7060 C   0  0  0  0  0  0  0  0  0  0  0  0
   -8.7660    5.3010   -7.6880 S   0  0  0  0  0  0  0  0  0  0  0  0
   -9.0650    4.0700  -11.7400 S   0  0  0  0  0  0  0  0  0  0  0  0
   -7.0690    6.2060  -17.1270 C   0  0  0  0  0  0  0  0  0  0  0  0
   -7.5310    3.5620  -20.9410 H   0  0  0  0  0  0  0  0  0  0  0  0
   -8.4070    3.2600  -19.4260 H   0  0  0  0  0  0  0  0  0  0  0  0
   -8.9180    4.5710  -20.4940 H   0  0  0  0  0  0  0  0  0  0  0  0
   -6.1080    4.5630  -19.3450 H   0  0  0  0  0  0  0  0  0  0  0  0
   -7.0510    5.9310  -19.9160 H   0  0  0  0  0  0  0  0  0  0  0  0
   -6.7380    7.3040  -14.6740 H   0  0  0  0  0  0  0  0  0  0  0  0
   -8.4370    7.6210  -14.7850 H   0  0  0  0  0  0  0  0  0  0  0  0
   -7.6870    5.2090  -13.6120 H   0  0  0  0  0  0  0  0  0  0  0  0
   -8.6470    7.6370  -12.4090 H   0  0  0  0  0  0  0  0  0  0  0  0
   -9.8450    6.6440  -13.2370 H   0  0  0  0  0  0  0  0  0  0  0  0
   -8.6820    7.3400  -10.0880 H   0  0  0  0  0  0  0  0  0  0  0  0
   -9.1640    1.9450   -9.2350 H   0  0  0  0  0  0  0  0  0  0  0  0
   -8.9430    3.0580   -6.7610 H   0  0  0  0  0  0  0  0  0  0  0  0
   -6.2800    6.9140  -17.3270 H   0  0  0  0  0  0  0  0  0  0  0  0
  1  2  1  0
  2  3  1  0
  3  4  2  0
  4  5  1  0
  5  6  1  0
  6  7  1  0
  7  8  1  0
  8  9  1  0
  9 10  1  0
 10 11  2  0
 11 12  1  0
 12 13  2  0
 13 14  1  0
 14 15  2  0
 15 16  1  0
 13 17  1  0
  6 18  2  0
 18  3  1  0
 17 10  1  0
 16 12  1  0
  1 19  1  0
  1 20  1  0
  1 21  1  0
  2 22  1  0
  2 23  1  0
  7 24  1  0
  7 25  1  0
  8 26  1  0
  9 27  1  0
  9 28  1  0
 11 29  1  0
 14 30  1  0
 15 31  1  0
 18 32  1  0
A    1
 C1 
A    2
 C2 
A    3
 C3 
A    4
 N1 
A    5
 O1 
A    6
 C4 
A    7
 C5 
A    8
 N2 
A    9
 C6 
A   10
 C7 
A   11
 C8 
A   12
 C9 
A   13
 C10
A   14
 C11
A   15
 C12
A   16
 S1 
A   17
 S2 
A   18
 C13
A   19
 H1 
A   20
 H2 
A   21
 H3 
A   22
 H4 
A   23
 H5 
A   24
 H6 
A   25
 H7 
A   26
 H8 
A   27
 H9 
A   28
 H10
A   29
 H11
A   30
 H12
A   31
 H13
A   32
 H14
M  END
>  <ref_pdb>  (90) 
x0051_0B

>  <ref_mols>  (90) 
x0404_0B,x0969_0B

>  <original SMILES>  (90) 
[H]c1sc2c([H])c(C([H])([H])N([H])C([H])([H])c3onc(C([H])([H])C([H])([H])[H])c3[H])sc2c1[H]

>  <index>  (90) 
3718

>  <∆∆G>  (90) 
-6.694643

>  <comRMSD>  (90) 
0.364379

>  <N_constrained_atoms>  (90) 
17.0

>  <N_unconstrained_atoms>  (90) 
1.0

>  <LE>  (90) 
0.371925

>  <percent_hybrid>  (90) 
0.0

>  <max_hit_Tanimoto>  (90) 
0.218424

>  <largest_ring>  (90) 
5

>  <N_interactions_kept>  (90) 
0.0

>  <N_interactions_lost>  (90) 
0.0

>  <interaction_uniqueness_metric>  (90) 
0.1671

>  <N_HA>  (90) 
18

>  <N_rotatable_bonds>  (90) 
6

>  <N_interactions>  (90) 
7

>  <N_PAINS>  (90) 
0

>  <UFF_Gibbs>  (90) 
80.57953

>  <strain_per_HA>  (90) 
4.476616

>  <ad_hoc_penalty>  (90) 
-39.067736

>  <cluster>  (90) 
472

>  <merger_rank>  (90) 
2

>  <pication:ARG:29>  (90) 
0

>  <hbond:HIS:51>  (90) 
0

>  <pistack:HIS:51>  (90) 
1

>  <hydroph_interaction:TYR:161>  (90) 
2

>  <pication:HIS:51>  (90) 
0

>  <hydroph_interaction:ALA:132>  (90) 
1

>  <hydroph_interaction:TYR:150>  (90) 
1

>  <hydroph_interaction:LYS:54>  (90) 
0

>  <hbond:SER:135>  (90) 
0

>  <hydroph_interaction:HIS:51>  (90) 
1

>  <hbond:ASP:83>  (90) 
0

>  <hbond:ALA:132>  (90) 
0

>  <halogenbond:SER:81>  (90) 
0

>  <hbond:GLY:82>  (90) 
0

>  <saltbridge:HIS:51>  (90) 
0

>  <pistack:TYR:161>  (90) 
1

>  <hbond:SER:81>  (90) 
0

>  <hbond:ASN:152>  (90) 
0

>  <hbond:GLY:151>  (90) 
0

>  <hydroph_interaction:ASN:152>  (90) 
0

>  <hbond:TYR:161>  (90) 
0

>  <halogenbond:TYR:150>  (90) 
0

>  <hbond:ASP:75>  (90) 
0

>  <hbond:GLY:153>  (90) 
0

>  <hbond:VAL:36>  (90) 
0

>  <hbond:PRO:131>  (90) 
0

>  <hbond:VAL:52>  (90) 
0

>  <hydroph_interaction:ASP:83>  (90) 
0

>  <hydroph_interaction:MET:49>  (90) 
0

>  <hydroph_interaction:VAL:52>  (90) 
0

>  <saltbridge:ASP:83>  (90) 
0

>  <saltbridge:ASP:75>  (90) 
0

>  <hydroph_interaction:TRP:50>  (90) 
0

>  <hydroph_interaction:VAL:72>  (90) 
0

>  <hydroph_interaction:ASP:75>  (90) 
0

>  <halogenbond:ASN:152>  (90) 
0

>  <halogenbond:GLY:153>  (90) 
0

>  <halogenbond:TYR:130>  (90) 
0

>  <hbond:TYR:130>  (90) 
0

>  <halogenbond:ASP:75>  (90) 
0

>  <halogenbond:GLY:151>  (90) 
0

>  <hbond:TYR:150>  (90) 
0

>  <halogenbond:TYR:161>  (90) 
0

>  <hydroph_interaction:ASP:129>  (90) 
0

>  <hbond:ASP:129>  (90) 
0

>  <halogenbond:ALA:132>  (90) 
0

$$$$
PV-002130819183
     RDKit          3D

 27 28  0  0  0  0  0  0  0  0999 V2000
   -9.0020    4.1420   -8.3590 C   0  0  0  0  0  0  0  0  0  0  0  0
   -8.9650    4.8050   -9.7260 C   0  0  0  0  0  0  0  0  0  0  0  0
   -9.0380    3.9310  -10.9130 C   0  0  0  0  0  0  0  0  0  0  0  0
   -9.0170    4.4580  -12.2750 C   0  0  0  0  0  0  0  0  0  0  0  0
   -8.9250    5.8400  -12.4290 C   0  0  0  0  0  0  0  0  0  0  0  0
   -8.9100    6.4250  -13.7950 C   0  0  0  0  0  0  0  0  0  0  0  0
   -8.0650    7.4880  -14.0070 O   0  0  0  0  0  0  0  0  0  0  0  0
   -9.6960    5.9590  -14.7380 N   0  0  0  0  0  0  0  0  0  0  0  0
   -9.0860    5.6140  -15.9450 C   0  0  0  0  0  0  0  0  0  0  0  0
   -9.7890    4.9660  -16.9330 N   0  0  0  0  0  0  0  0  0  0  0  0
   -8.8450    4.6950  -18.2400 S   0  0  0  0  0  0  0  0  0  0  0  0
   -7.4380    5.4070  -17.5840 C   0  0  0  0  0  0  0  0  0  0  0  0
   -6.2800    5.4410  -18.3280 C   0  0  0  0  0  0  0  0  0  0  0  0
   -7.7150    5.8790  -16.3000 C   0  0  0  0  0  0  0  0  0  0  0  0
   -8.8560    6.6270  -11.2760 C   0  0  0  0  0  0  0  0  0  0  0  0
   -8.8700    6.1740   -9.9840 N   0  0  0  0  0  0  0  0  0  0  0  0
   -9.7170    4.6270   -7.6930 H   0  0  0  0  0  0  0  0  0  0  0  0
   -8.0250    4.1910   -7.8680 H   0  0  0  0  0  0  0  0  0  0  0  0
   -9.2840    3.0870   -8.4520 H   0  0  0  0  0  0  0  0  0  0  0  0
   -9.1140    2.8480  -10.8270 H   0  0  0  0  0  0  0  0  0  0  0  0
   -9.0760    3.7720  -13.1200 H   0  0  0  0  0  0  0  0  0  0  0  0
  -10.4720    5.3630  -14.4810 H   0  0  0  0  0  0  0  0  0  0  0  0
   -5.7170    6.3070  -18.6440 H   0  0  0  0  0  0  0  0  0  0  0  0
   -5.5550    4.8810  -17.7280 H   0  0  0  0  0  0  0  0  0  0  0  0
   -6.3750    4.8780  -19.2510 H   0  0  0  0  0  0  0  0  0  0  0  0
   -6.9890    6.3740  -15.6700 H   0  0  0  0  0  0  0  0  0  0  0  0
   -8.7850    7.7070  -11.3430 H   0  0  0  0  0  0  0  0  0  0  0  0
  1  2  1  0
  2  3  2  0
  3  4  1  0
  4  5  2  0
  5  6  1  0
  6  7  2  0
  6  8  1  0
  8  9  1  0
  9 10  2  0
 10 11  1  0
 11 12  1  0
 12 13  1  0
 12 14  2  0
  5 15  1  0
 15 16  2  0
 16  2  1  0
 14  9  1  0
  1 17  1  0
  1 18  1  0
  1 19  1  0
  3 20  1  0
  4 21  1  0
  8 22  1  0
 13 23  1  0
 13 24  1  0
 13 25  1  0
 14 26  1  0
 15 27  1  0
A    1
 C1 
A    2
 C2 
A    3
 C3 
A    4
 C4 
A    5
 C5 
A    6
 C6 
A    7
 O1 
A    8
 N1 
A    9
 C7 
A   10
 N2 
A   11
 S1 
A   12
 C8 
A   13
 C9 
A   14
 C10
A   15
 C11
A   16
 N3 
A   17
 H1 
A   18
 H2 
A   19
 H3 
A   20
 H4 
A   21
 H5 
A   22
 H6 
A   23
 H7 
A   24
 H8 
A   25
 H9 
A   26
 H10
A   27
 H11
M  END
>  <ref_pdb>  (91) 
x0051_0B

>  <ref_mols>  (91) 
x0404_0B,x0969_0B

>  <original SMILES>  (91) 
[H]c1nc(C([H])([H])[H])c([H])c([H])c1C(=O)N([H])c1nsc(C([H])([H])[H])c1[H]

>  <index>  (91) 
5740

>  <∆∆G>  (91) 
-6.292564

>  <comRMSD>  (91) 
0.269814

>  <N_constrained_atoms>  (91) 
16.0

>  <N_unconstrained_atoms>  (91) 
0.0

>  <LE>  (91) 
0.393285

>  <percent_hybrid>  (91) 
0.0

>  <max_hit_Tanimoto>  (91) 
0.472368

>  <largest_ring>  (91) 
6

>  <N_interactions_kept>  (91) 
0.0

>  <N_interactions_lost>  (91) 
0.0

>  <interaction_uniqueness_metric>  (91) 
0.113888

>  <N_HA>  (91) 
16

>  <N_rotatable_bonds>  (91) 
4

>  <N_interactions>  (91) 
6

>  <N_PAINS>  (91) 
0

>  <UFF_Gibbs>  (91) 
62.528651

>  <strain_per_HA>  (91) 
3.908016

>  <ad_hoc_penalty>  (91) 
-38.919797

>  <cluster>  (91) 
909

>  <merger_rank>  (91) 
2

>  <pication:ARG:29>  (91) 
0

>  <hbond:HIS:51>  (91) 
0

>  <pistack:HIS:51>  (91) 
1

>  <hydroph_interaction:TYR:161>  (91) 
1

>  <pication:HIS:51>  (91) 
0

>  <hydroph_interaction:ALA:132>  (91) 
1

>  <hydroph_interaction:TYR:150>  (91) 
0

>  <hydroph_interaction:LYS:54>  (91) 
0

>  <hbond:SER:135>  (91) 
2

>  <hydroph_interaction:HIS:51>  (91) 
1

>  <hbond:ASP:83>  (91) 
0

>  <hbond:ALA:132>  (91) 
0

>  <halogenbond:SER:81>  (91) 
0

>  <hbond:GLY:82>  (91) 
0

>  <saltbridge:HIS:51>  (91) 
0

>  <pistack:TYR:161>  (91) 
0

>  <hbond:SER:81>  (91) 
0

>  <hbond:ASN:152>  (91) 
0

>  <hbond:GLY:151>  (91) 
0

>  <hydroph_interaction:ASN:152>  (91) 
0

>  <hbond:TYR:161>  (91) 
0

>  <halogenbond:TYR:150>  (91) 
0

>  <hbond:ASP:75>  (91) 
0

>  <hbond:GLY:153>  (91) 
0

>  <hbond:VAL:36>  (91) 
0

>  <hbond:PRO:131>  (91) 
0

>  <hbond:VAL:52>  (91) 
0

>  <hydroph_interaction:ASP:83>  (91) 
0

>  <hydroph_interaction:MET:49>  (91) 
0

>  <hydroph_interaction:VAL:52>  (91) 
0

>  <saltbridge:ASP:83>  (91) 
0

>  <saltbridge:ASP:75>  (91) 
0

>  <hydroph_interaction:TRP:50>  (91) 
0

>  <hydroph_interaction:VAL:72>  (91) 
0

>  <hydroph_interaction:ASP:75>  (91) 
0

>  <halogenbond:ASN:152>  (91) 
0

>  <halogenbond:GLY:153>  (91) 
0

>  <halogenbond:TYR:130>  (91) 
0

>  <hbond:TYR:130>  (91) 
0

>  <halogenbond:ASP:75>  (91) 
0

>  <halogenbond:GLY:151>  (91) 
0

>  <hbond:TYR:150>  (91) 
0

>  <halogenbond:TYR:161>  (91) 
0

>  <hydroph_interaction:ASP:129>  (91) 
0

>  <hbond:ASP:129>  (91) 
0

>  <halogenbond:ALA:132>  (91) 
0

$$$$
Z29693487
     RDKit          3D

 28 30  0  0  0  0  0  0  0  0999 V2000
   -8.9080    8.4960  -13.6170 O   0  0  0  0  0  0  0  0  0  0  0  0
   -8.6480    7.2980  -13.6950 C   0  0  0  0  0  0  0  0  0  0  0  0
   -8.1560    6.7010  -14.9230 N   0  0  0  0  0  0  0  0  0  0  0  0
   -8.8670    5.7620  -15.6510 C   0  0  0  0  0  0  0  0  0  0  0  0
   -8.1170    5.4980  -16.9570 C   0  0  0  0  0  0  0  0  0  0  0  0
   -6.7140    5.8580  -17.1290 C   0  0  0  0  0  0  0  0  0  0  0  0
   -6.3810    5.4770  -18.4520 C   0  0  0  0  0  0  0  0  0  0  0  0
   -7.4230    4.8960  -19.1820 C   0  0  0  0  0  0  0  0  0  0  0  0
   -8.9240    4.7570  -18.3000 S   0  0  0  0  0  0  0  0  0  0  0  0
   -8.7820    6.3280  -12.6140 C   0  0  0  0  0  0  0  0  0  0  0  0
   -8.6740    6.6440  -11.2730 N   0  0  0  0  0  0  0  0  0  0  0  0
   -8.8650    5.4260  -10.4970 C   0  0  0  0  0  0  0  0  0  0  0  0
   -8.7940    5.5270   -9.0520 C   0  0  0  0  0  0  0  0  0  0  0  0
   -9.0060    4.2740   -8.4780 C   0  0  0  0  0  0  0  0  0  0  0  0
   -9.2480    3.0990   -9.1990 C   0  0  0  0  0  0  0  0  0  0  0  0
   -9.2980    3.0750  -10.5970 C   0  0  0  0  0  0  0  0  0  0  0  0
   -9.0980    4.2900  -11.2430 C   0  0  0  0  0  0  0  0  0  0  0  0
   -9.0890    4.6720  -12.9280 S   0  0  0  0  0  0  0  0  0  0  0  0
   -7.1730    6.8120  -15.1420 H   0  0  0  0  0  0  0  0  0  0  0  0
   -9.8710    6.1630  -15.8390 H   0  0  0  0  0  0  0  0  0  0  0  0
   -8.9750    4.8390  -15.0760 H   0  0  0  0  0  0  0  0  0  0  0  0
   -6.0750    6.3220  -16.3910 H   0  0  0  0  0  0  0  0  0  0  0  0
   -5.4230    5.5900  -18.9400 H   0  0  0  0  0  0  0  0  0  0  0  0
   -7.2980    4.5630  -20.2080 H   0  0  0  0  0  0  0  0  0  0  0  0
   -8.6080    6.4320   -8.4880 H   0  0  0  0  0  0  0  0  0  0  0  0
   -8.9860    4.1880   -7.4030 H   0  0  0  0  0  0  0  0  0  0  0  0
   -9.4000    2.1780   -8.6490 H   0  0  0  0  0  0  0  0  0  0  0  0
   -9.4850    2.1700  -11.1570 H   0  0  0  0  0  0  0  0  0  0  0  0
  1  2  2  0
  2  3  1  0
  3  4  1  0
  4  5  1  0
  5  6  2  0
  6  7  1  0
  7  8  2  0
  8  9  1  0
  2 10  1  0
 10 11  2  0
 11 12  1  0
 12 13  2  0
 13 14  1  0
 14 15  2  0
 15 16  1  0
 16 17  2  0
 17 18  1  0
  9  5  1  0
 18 10  1  0
 17 12  1  0
  3 19  1  0
  4 20  1  0
  4 21  1  0
  6 22  1  0
  7 23  1  0
  8 24  1  0
 13 25  1  0
 14 26  1  0
 15 27  1  0
 16 28  1  0
A    1
 O1 
A    2
 C1 
A    3
 N1 
A    4
 C2 
A    5
 C3 
A    6
 C4 
A    7
 C5 
A    8
 C6 
A    9
 S1 
A   10
 C7 
A   11
 N2 
A   12
 C8 
A   13
 C9 
A   14
 C10
A   15
 C11
A   16
 C12
A   17
 C13
A   18
 S2 
A   19
 H1 
A   20
 H2 
A   21
 H3 
A   22
 H4 
A   23
 H5 
A   24
 H6 
A   25
 H7 
A   26
 H8 
A   27
 H9 
A   28
 H10
M  END
>  <ref_pdb>  (92) 
x0051_0B

>  <ref_mols>  (92) 
x0404_0B,x0969_0B

>  <original SMILES>  (92) 
[H]c1sc(C([H])([H])N([H])C(=O)c2nc3c([H])c([H])c([H])c([H])c3s2)c([H])c1[H]

>  <index>  (92) 
5970

>  <∆∆G>  (92) 
-7.37044

>  <comRMSD>  (92) 
0.229792

>  <N_constrained_atoms>  (92) 
19.0

>  <N_unconstrained_atoms>  (92) 
0.0

>  <LE>  (92) 
0.387918

>  <percent_hybrid>  (92) 
0.0

>  <max_hit_Tanimoto>  (92) 
0.832353

>  <largest_ring>  (92) 
6

>  <N_interactions_kept>  (92) 
0.0

>  <N_interactions_lost>  (92) 
0.0

>  <interaction_uniqueness_metric>  (92) 
0.085581

>  <N_HA>  (92) 
18

>  <N_rotatable_bonds>  (92) 
3

>  <N_interactions>  (92) 
5

>  <N_PAINS>  (92) 
0

>  <UFF_Gibbs>  (92) 
102.300565

>  <strain_per_HA>  (92) 
5.683333

>  <ad_hoc_penalty>  (92) 
-38.771966

>  <cluster>  (92) 
788

>  <merger_rank>  (92) 
4

>  <pication:ARG:29>  (92) 
0

>  <hbond:HIS:51>  (92) 
0

>  <pistack:HIS:51>  (92) 
2

>  <hydroph_interaction:TYR:161>  (92) 
0

>  <pication:HIS:51>  (92) 
0

>  <hydroph_interaction:ALA:132>  (92) 
1

>  <hydroph_interaction:TYR:150>  (92) 
0

>  <hydroph_interaction:LYS:54>  (92) 
0

>  <hbond:SER:135>  (92) 
0

>  <hydroph_interaction:HIS:51>  (92) 
1

>  <hbond:ASP:83>  (92) 
0

>  <hbond:ALA:132>  (92) 
0

>  <halogenbond:SER:81>  (92) 
0

>  <hbond:GLY:82>  (92) 
0

>  <saltbridge:HIS:51>  (92) 
0

>  <pistack:TYR:161>  (92) 
1

>  <hbond:SER:81>  (92) 
0

>  <hbond:ASN:152>  (92) 
0

>  <hbond:GLY:151>  (92) 
0

>  <hydroph_interaction:ASN:152>  (92) 
0

>  <hbond:TYR:161>  (92) 
0

>  <halogenbond:TYR:150>  (92) 
0

>  <hbond:ASP:75>  (92) 
0

>  <hbond:GLY:153>  (92) 
0

>  <hbond:VAL:36>  (92) 
0

>  <hbond:PRO:131>  (92) 
0

>  <hbond:VAL:52>  (92) 
0

>  <hydroph_interaction:ASP:83>  (92) 
0

>  <hydroph_interaction:MET:49>  (92) 
0

>  <hydroph_interaction:VAL:52>  (92) 
0

>  <saltbridge:ASP:83>  (92) 
0

>  <saltbridge:ASP:75>  (92) 
0

>  <hydroph_interaction:TRP:50>  (92) 
0

>  <hydroph_interaction:VAL:72>  (92) 
0

>  <hydroph_interaction:ASP:75>  (92) 
0

>  <halogenbond:ASN:152>  (92) 
0

>  <halogenbond:GLY:153>  (92) 
0

>  <halogenbond:TYR:130>  (92) 
0

>  <hbond:TYR:130>  (92) 
0

>  <halogenbond:ASP:75>  (92) 
0

>  <halogenbond:GLY:151>  (92) 
0

>  <hbond:TYR:150>  (92) 
0

>  <halogenbond:TYR:161>  (92) 
0

>  <hydroph_interaction:ASP:129>  (92) 
0

>  <hbond:ASP:129>  (92) 
0

>  <halogenbond:ALA:132>  (92) 
0

$$$$
PV-002944705441
     RDKit          3D

 27 29  0  0  0  0  0  0  0  0999 V2000
   -6.2990    6.1290  -17.9980 C   0  0  0  0  0  0  0  0  0  0  0  0
   -7.2450    5.7890  -16.9220 C   0  0  0  0  0  0  0  0  0  0  0  0
   -8.5630    5.3730  -17.1320 C   0  0  0  0  0  0  0  0  0  0  0  0
   -9.3950    5.0670  -15.9900 C   0  0  0  0  0  0  0  0  0  0  0  0
   -8.8450    5.1920  -14.7210 C   0  0  0  0  0  0  0  0  0  0  0  0
   -9.4960    4.9300  -13.5580 N   0  0  0  0  0  0  0  0  0  0  0  0
   -8.6170    5.1540  -12.6090 C   0  0  0  0  0  0  0  0  0  0  0  0
   -8.7340    5.0180  -11.2270 C   0  0  0  0  0  0  0  0  0  0  0  0
   -8.3540    6.1680  -10.3240 C   0  0  0  0  0  0  0  0  0  0  0  0
   -8.5290    5.8640   -8.8110 C   0  0  0  0  0  0  0  0  0  0  0  0
   -9.0430    4.4900   -8.5320 C   0  0  0  0  0  0  0  0  0  0  0  0
   -9.2710    4.0750   -6.8820 Cl  0  0  0  0  0  0  0  0  0  0  0  0
   -9.3450    3.5470   -9.4710 C   0  0  0  0  0  0  0  0  0  0  0  0
   -9.2010    3.7860  -10.7830 N   0  0  0  0  0  0  0  0  0  0  0  0
   -7.4220    5.5720  -13.1320 N   0  0  0  0  0  0  0  0  0  0  0  0
   -7.5660    5.5910  -14.4960 C   0  0  0  0  0  0  0  0  0  0  0  0
   -6.6770    5.9240  -15.6500 C   0  0  0  0  0  0  0  0  0  0  0  0
   -5.6890    6.9930  -17.7220 H   0  0  0  0  0  0  0  0  0  0  0  0
   -6.8400    6.3700  -18.9190 H   0  0  0  0  0  0  0  0  0  0  0  0
   -5.6300    5.2870  -18.1970 H   0  0  0  0  0  0  0  0  0  0  0  0
   -8.9430    5.2840  -18.1380 H   0  0  0  0  0  0  0  0  0  0  0  0
  -10.4140    4.7430  -16.1080 H   0  0  0  0  0  0  0  0  0  0  0  0
   -7.9900    7.1280  -10.6520 H   0  0  0  0  0  0  0  0  0  0  0  0
   -8.3170    6.5380   -7.9930 H   0  0  0  0  0  0  0  0  0  0  0  0
   -9.7140    2.5720   -9.1610 H   0  0  0  0  0  0  0  0  0  0  0  0
   -6.6070    5.8040  -12.5820 H   0  0  0  0  0  0  0  0  0  0  0  0
   -5.6510    6.2470  -15.5090 H   0  0  0  0  0  0  0  0  0  0  0  0
  1  2  1  0
  2  3  2  0
  3  4  1  0
  4  5  2  0
  5  6  1  0
  6  7  2  0
  7  8  1  0
  8  9  2  0
  9 10  1  0
 10 11  2  0
 11 12  1  0
 11 13  1  0
 13 14  2  0
  7 15  1  0
 15 16  1  0
 16 17  2  0
 17  2  1  0
 16  5  1  0
 14  8  1  0
  1 18  1  0
  1 19  1  0
  1 20  1  0
  3 21  1  0
  4 22  1  0
  9 23  1  0
 10 24  1  0
 13 25  1  0
 15 26  1  0
 17 27  1  0
A    1
 C1 
A    2
 C2 
A    3
 C3 
A    4
 C4 
A    5
 C5 
A    6
 N1 
A    7
 C6 
A    8
 C7 
A    9
 C8 
A   10
 C9 
A   11
 C10
A   12
CL1 
A   13
 C11
A   14
 N2 
A   15
 N3 
A   16
 C12
A   17
 C13
A   18
 H1 
A   19
 H2 
A   20
 H3 
A   21
 H4 
A   22
 H5 
A   23
 H6 
A   24
 H7 
A   25
 H8 
A   26
 H9 
A   27
 H10
M  END
>  <ref_pdb>  (93) 
x0051_0B

>  <ref_mols>  (93) 
x0404_0B,x0969_0B

>  <original SMILES>  (93) 
[H]c1nc(-c2nc3c([H])c([H])c(C([H])([H])[H])c([H])c3n2[H])c([H])c([H])c1Cl

>  <index>  (93) 
3739

>  <∆∆G>  (93) 
-3.590218

>  <comRMSD>  (93) 
0.215913

>  <N_constrained_atoms>  (93) 
16.0

>  <N_unconstrained_atoms>  (93) 
1.0

>  <LE>  (93) 
0.211189

>  <percent_hybrid>  (93) 
0.0

>  <max_hit_Tanimoto>  (93) 
0.335498

>  <largest_ring>  (93) 
6

>  <N_interactions_kept>  (93) 
0.0

>  <N_interactions_lost>  (93) 
0.0

>  <interaction_uniqueness_metric>  (93) 
0.222502

>  <N_HA>  (93) 
17

>  <N_rotatable_bonds>  (93) 
2

>  <N_interactions>  (93) 
6

>  <N_PAINS>  (93) 
0

>  <UFF_Gibbs>  (93) 
59.945185

>  <strain_per_HA>  (93) 
3.526167

>  <ad_hoc_penalty>  (93) 
-38.730017

>  <cluster>  (93) 
199

>  <merger_rank>  (93) 
4

>  <pication:ARG:29>  (93) 
0

>  <hbond:HIS:51>  (93) 
1

>  <pistack:HIS:51>  (93) 
1

>  <hydroph_interaction:TYR:161>  (93) 
0

>  <pication:HIS:51>  (93) 
0

>  <hydroph_interaction:ALA:132>  (93) 
1

>  <hydroph_interaction:TYR:150>  (93) 
0

>  <hydroph_interaction:LYS:54>  (93) 
0

>  <hbond:SER:135>  (93) 
0

>  <hydroph_interaction:HIS:51>  (93) 
1

>  <hbond:ASP:83>  (93) 
0

>  <hbond:ALA:132>  (93) 
0

>  <halogenbond:SER:81>  (93) 
1

>  <hbond:GLY:82>  (93) 
0

>  <saltbridge:HIS:51>  (93) 
0

>  <pistack:TYR:161>  (93) 
1

>  <hbond:SER:81>  (93) 
0

>  <hbond:ASN:152>  (93) 
0

>  <hbond:GLY:151>  (93) 
0

>  <hydroph_interaction:ASN:152>  (93) 
0

>  <hbond:TYR:161>  (93) 
0

>  <halogenbond:TYR:150>  (93) 
0

>  <hbond:ASP:75>  (93) 
0

>  <hbond:GLY:153>  (93) 
0

>  <hbond:VAL:36>  (93) 
0

>  <hbond:PRO:131>  (93) 
0

>  <hbond:VAL:52>  (93) 
0

>  <hydroph_interaction:ASP:83>  (93) 
0

>  <hydroph_interaction:MET:49>  (93) 
0

>  <hydroph_interaction:VAL:52>  (93) 
0

>  <saltbridge:ASP:83>  (93) 
0

>  <saltbridge:ASP:75>  (93) 
0

>  <hydroph_interaction:TRP:50>  (93) 
0

>  <hydroph_interaction:VAL:72>  (93) 
0

>  <hydroph_interaction:ASP:75>  (93) 
0

>  <halogenbond:ASN:152>  (93) 
0

>  <halogenbond:GLY:153>  (93) 
0

>  <halogenbond:TYR:130>  (93) 
0

>  <hbond:TYR:130>  (93) 
0

>  <halogenbond:ASP:75>  (93) 
0

>  <halogenbond:GLY:151>  (93) 
0

>  <hbond:TYR:150>  (93) 
0

>  <halogenbond:TYR:161>  (93) 
0

>  <hydroph_interaction:ASP:129>  (93) 
0

>  <hbond:ASP:129>  (93) 
0

>  <halogenbond:ALA:132>  (93) 
0

$$$$
Z756779286
     RDKit          3D

 29 32  0  0  0  0  0  0  0  0999 V2000
   -9.9170   10.8500  -12.8330 O   0  0  0  0  0  0  0  0  0  0  0  0
  -11.0740   10.6010  -12.4880 C   0  0  0  0  0  0  0  0  0  0  0  0
  -11.6390    9.3750  -12.7390 N   0  0  0  0  0  0  0  0  0  0  0  0
  -10.8190    8.3690  -13.1550 C   0  0  0  0  0  0  0  0  0  0  0  0
   -9.9000    7.8000  -12.4140 N   0  0  0  0  0  0  0  0  0  0  0  0
   -9.2650    6.8450  -13.1700 N   0  0  0  0  0  0  0  0  0  0  0  0
   -9.8160    6.8600  -14.3620 C   0  0  0  0  0  0  0  0  0  0  0  0
   -9.4360    6.0560  -15.4170 C   0  0  0  0  0  0  0  0  0  0  0  0
   -8.0450    5.9030  -15.5140 C   0  0  0  0  0  0  0  0  0  0  0  0
   -7.9890    5.0620  -16.6590 C   0  0  0  0  0  0  0  0  0  0  0  0
   -9.1980    4.7380  -17.1980 C   0  0  0  0  0  0  0  0  0  0  0  0
  -10.1250    5.3680  -16.4120 O   0  0  0  0  0  0  0  0  0  0  0  0
  -10.8050    7.8040  -14.3900 N   0  0  0  0  0  0  0  0  0  0  0  0
  -11.8920   11.5680  -11.7770 C   0  0  0  0  0  0  0  0  0  0  0  0
  -11.9780   13.0290  -11.9180 C   0  0  0  0  0  0  0  0  0  0  0  0
  -12.8950   13.5670  -10.9740 C   0  0  0  0  0  0  0  0  0  0  0  0
  -13.4530   12.6130  -10.1980 C   0  0  0  0  0  0  0  0  0  0  0  0
  -14.3250   13.1650   -9.2660 C   0  0  0  0  0  0  0  0  0  0  0  0
  -14.4030   14.5310   -9.3770 C   0  0  0  0  0  0  0  0  0  0  0  0
  -13.4420   15.1810  -10.5970 S   0  0  0  0  0  0  0  0  0  0  0  0
  -12.9390   10.9930  -10.5560 S   0  0  0  0  0  0  0  0  0  0  0  0
  -12.5990    9.2830  -13.0470 H   0  0  0  0  0  0  0  0  0  0  0  0
   -7.2660    6.3170  -14.8870 H   0  0  0  0  0  0  0  0  0  0  0  0
   -7.0610    4.6990  -17.0800 H   0  0  0  0  0  0  0  0  0  0  0  0
   -9.5490    4.1470  -18.0310 H   0  0  0  0  0  0  0  0  0  0  0  0
  -11.4110    8.0560  -15.1670 H   0  0  0  0  0  0  0  0  0  0  0  0
  -11.4300   13.6400  -12.6210 H   0  0  0  0  0  0  0  0  0  0  0  0
  -14.8710   12.5820   -8.5390 H   0  0  0  0  0  0  0  0  0  0  0  0
  -15.0020   15.2010   -8.7760 H   0  0  0  0  0  0  0  0  0  0  0  0
  1  2  2  0
  2  3  1  0
  3  4  1  0
  4  5  2  0
  5  6  1  0
  6  7  2  0
  7  8  1  0
  8  9  2  0
  9 10  1  0
 10 11  2  0
 11 12  1  0
  7 13  1  0
  2 14  1  0
 14 15  2  0
 15 16  1  0
 16 17  2  0
 17 18  1  0
 18 19  2  0
 19 20  1  0
 17 21  1  0
 13  4  1  0
 12  8  1  0
 21 14  1  0
 20 16  1  0
  3 22  1  0
  9 23  1  0
 10 24  1  0
 11 25  1  0
 13 26  1  0
 15 27  1  0
 18 28  1  0
 19 29  1  0
A    1
 O1 
A    2
 C1 
A    3
 N1 
A    4
 C2 
A    5
 N2 
A    6
 N3 
A    7
 C3 
A    8
 C4 
A    9
 C5 
A   10
 C6 
A   11
 C7 
A   12
 O2 
A   13
 N4 
A   14
 C8 
A   15
 C9 
A   16
 C10
A   17
 C11
A   18
 C12
A   19
 C13
A   20
 S1 
A   21
 S2 
A   22
 H1 
A   23
 H2 
A   24
 H3 
A   25
 H4 
A   26
 H5 
A   27
 H6 
A   28
 H7 
A   29
 H8 
M  END
>  <ref_pdb>  (94) 
x0051_0B

>  <ref_mols>  (94) 
x0846_0B,x0559_0B

>  <original SMILES>  (94) 
[H]c1oc(-c2nnc(N([H])C(=O)c3sc4c([H])c([H])sc4c3[H])n2[H])c([H])c1[H]

>  <index>  (94) 
262

>  <∆∆G>  (94) 
-6.959591

>  <comRMSD>  (94) 
0.990118

>  <N_constrained_atoms>  (94) 
20.0

>  <N_unconstrained_atoms>  (94) 
1.0

>  <LE>  (94) 
0.331409

>  <percent_hybrid>  (94) 
0.0

>  <max_hit_Tanimoto>  (94) 
0.330951

>  <largest_ring>  (94) 
5

>  <N_interactions_kept>  (94) 
0.0

>  <N_interactions_lost>  (94) 
0.0

>  <interaction_uniqueness_metric>  (94) 
0.314998

>  <N_HA>  (94) 
21

>  <N_rotatable_bonds>  (94) 
3

>  <N_interactions>  (94) 
4

>  <N_PAINS>  (94) 
0

>  <UFF_Gibbs>  (94) 
69.4469

>  <strain_per_HA>  (94) 
3.306979

>  <ad_hoc_penalty>  (94) 
-38.702696

>  <cluster>  (94) 
675

>  <merger_rank>  (94) 
1

>  <pication:ARG:29>  (94) 
0

>  <hbond:HIS:51>  (94) 
0

>  <pistack:HIS:51>  (94) 
0

>  <hydroph_interaction:TYR:161>  (94) 
1

>  <pication:HIS:51>  (94) 
1

>  <hydroph_interaction:ALA:132>  (94) 
1

>  <hydroph_interaction:TYR:150>  (94) 
0

>  <hydroph_interaction:LYS:54>  (94) 
0

>  <hbond:SER:135>  (94) 
0

>  <hydroph_interaction:HIS:51>  (94) 
0

>  <hbond:ASP:83>  (94) 
0

>  <hbond:ALA:132>  (94) 
0

>  <halogenbond:SER:81>  (94) 
0

>  <hbond:GLY:82>  (94) 
0

>  <saltbridge:HIS:51>  (94) 
0

>  <pistack:TYR:161>  (94) 
0

>  <hbond:SER:81>  (94) 
0

>  <hbond:ASN:152>  (94) 
0

>  <hbond:GLY:151>  (94) 
0

>  <hydroph_interaction:ASN:152>  (94) 
0

>  <hbond:TYR:161>  (94) 
0

>  <halogenbond:TYR:150>  (94) 
0

>  <hbond:ASP:75>  (94) 
0

>  <hbond:GLY:153>  (94) 
0

>  <hbond:VAL:36>  (94) 
1

>  <hbond:PRO:131>  (94) 
0

>  <hbond:VAL:52>  (94) 
0

>  <hydroph_interaction:ASP:83>  (94) 
0

>  <hydroph_interaction:MET:49>  (94) 
0

>  <hydroph_interaction:VAL:52>  (94) 
0

>  <saltbridge:ASP:83>  (94) 
0

>  <saltbridge:ASP:75>  (94) 
0

>  <hydroph_interaction:TRP:50>  (94) 
0

>  <hydroph_interaction:VAL:72>  (94) 
0

>  <hydroph_interaction:ASP:75>  (94) 
0

>  <halogenbond:ASN:152>  (94) 
0

>  <halogenbond:GLY:153>  (94) 
0

>  <halogenbond:TYR:130>  (94) 
0

>  <hbond:TYR:130>  (94) 
0

>  <halogenbond:ASP:75>  (94) 
0

>  <halogenbond:GLY:151>  (94) 
0

>  <hbond:TYR:150>  (94) 
0

>  <halogenbond:TYR:161>  (94) 
0

>  <hydroph_interaction:ASP:129>  (94) 
0

>  <hbond:ASP:129>  (94) 
0

>  <halogenbond:ALA:132>  (94) 
0

$$$$
PV-002725576559
     RDKit          3D

 32 34  0  0  0  0  0  0  0  0999 V2000
   -6.0310    5.5960  -18.8330 C   0  0  0  0  0  0  0  0  0  0  0  0
   -6.9780    5.6010  -17.8390 C   0  0  0  0  0  0  0  0  0  0  0  0
   -6.6410    6.5270  -16.8300 C   0  0  0  0  0  0  0  0  0  0  0  0
   -7.5210    6.6420  -15.7600 C   0  0  0  0  0  0  0  0  0  0  0  0
   -7.2730    7.6150  -14.6490 C   0  0  0  0  0  0  0  0  0  0  0  0
   -8.0260    7.1590  -13.4090 C   0  0  0  0  0  0  0  0  0  0  0  0
   -8.9970    8.0850  -12.8240 N   0  0  0  0  0  0  0  0  0  0  0  0
   -9.4070    7.3260  -11.7500 N   0  0  0  0  0  0  0  0  0  0  0  0
   -8.7500    6.1390  -11.7500 C   0  0  0  0  0  0  0  0  0  0  0  0
   -8.8830    5.1160  -10.8370 C   0  0  0  0  0  0  0  0  0  0  0  0
   -8.9470    5.4560   -9.3020 C   0  0  0  0  0  0  0  0  0  0  0  0
   -9.0850    4.4040   -8.4120 C   0  0  0  0  0  0  0  0  0  0  0  0
   -9.1680    3.0740   -8.8320 C   0  0  0  0  0  0  0  0  0  0  0  0
   -9.0930    2.8910  -10.2060 C   0  0  0  0  0  0  0  0  0  0  0  0
   -8.9610    3.8340  -11.1360 N   0  0  0  0  0  0  0  0  0  0  0  0
   -7.8740    5.9670  -12.7650 O   0  0  0  0  0  0  0  0  0  0  0  0
   -8.6870    5.8450  -15.7040 C   0  0  0  0  0  0  0  0  0  0  0  0
   -8.9820    4.9350  -16.7310 C   0  0  0  0  0  0  0  0  0  0  0  0
   -8.1170    4.8230  -17.8030 C   0  0  0  0  0  0  0  0  0  0  0  0
   -8.4830    3.7260  -19.0710 Cl  0  0  0  0  0  0  0  0  0  0  0  0
   -5.0060    5.6300  -18.4800 H   0  0  0  0  0  0  0  0  0  0  0  0
   -6.1600    4.8400  -19.6040 H   0  0  0  0  0  0  0  0  0  0  0  0
   -6.1750    6.5340  -19.3780 H   0  0  0  0  0  0  0  0  0  0  0  0
   -5.7550    7.1560  -16.8330 H   0  0  0  0  0  0  0  0  0  0  0  0
   -7.6720    8.6270  -14.7570 H   0  0  0  0  0  0  0  0  0  0  0  0
   -6.2440    7.9090  -14.5020 H   0  0  0  0  0  0  0  0  0  0  0  0
   -8.8880    6.4770   -8.9420 H   0  0  0  0  0  0  0  0  0  0  0  0
   -9.1190    4.7490   -7.3900 H   0  0  0  0  0  0  0  0  0  0  0  0
   -9.2780    2.2150   -8.1860 H   0  0  0  0  0  0  0  0  0  0  0  0
   -9.1420    1.8950  -10.6160 H   0  0  0  0  0  0  0  0  0  0  0  0
   -9.3760    5.9300  -14.8670 H   0  0  0  0  0  0  0  0  0  0  0  0
   -9.8830    4.3340  -16.6790 H   0  0  0  0  0  0  0  0  0  0  0  0
  1  2  1  0
  2  3  2  0
  3  4  1  0
  4  5  1  0
  5  6  1  0
  6  7  2  0
  7  8  1  0
  8  9  2  0
  9 10  1  0
 10 11  2  0
 11 12  1  0
 12 13  2  0
 13 14  1  0
 14 15  2  0
  9 16  1  0
  4 17  2  0
 17 18  1  0
 18 19  2  0
 19 20  1  0
 19  2  1  0
 16  6  1  0
 15 10  1  0
  1 21  1  0
  1 22  1  0
  1 23  1  0
  3 24  1  0
  5 25  1  0
  5 26  1  0
 11 27  1  0
 12 28  1  0
 13 29  1  0
 14 30  1  0
 17 31  1  0
 18 32  1  0
A    1
 C1 
A    2
 C2 
A    3
 C3 
A    4
 C4 
A    5
 C5 
A    6
 C6 
A    7
 N1 
A    8
 N2 
A    9
 C7 
A   10
 C8 
A   11
 C9 
A   12
 C10
A   13
 C11
A   14
 C12
A   15
 N3 
A   16
 O1 
A   17
 C13
A   18
 C14
A   19
 C15
A   20
CL1 
A   21
 H1 
A   22
 H2 
A   23
 H3 
A   24
 H4 
A   25
 H5 
A   26
 H6 
A   27
 H7 
A   28
 H8 
A   29
 H9 
A   30
 H10
A   31
 H11
A   32
 H12
M  END
>  <ref_pdb>  (95) 
x0051_0B

>  <ref_mols>  (95) 
x0404_0B,x0969_0B

>  <original SMILES>  (95) 
[H]c1nc(-c2nnc(C([H])([H])c3c([H])c([H])c(Cl)c(C([H])([H])[H])c3[H])o2)c([H])c([H])c1[H]

>  <index>  (95) 
4246

>  <∆∆G>  (95) 
-5.910956

>  <comRMSD>  (95) 
0.440818

>  <N_constrained_atoms>  (95) 
19.0

>  <N_unconstrained_atoms>  (95) 
1.0

>  <LE>  (95) 
0.295548

>  <percent_hybrid>  (95) 
0.0

>  <max_hit_Tanimoto>  (95) 
0.308157

>  <largest_ring>  (95) 
6

>  <N_interactions_kept>  (95) 
0.0

>  <N_interactions_lost>  (95) 
0.0

>  <interaction_uniqueness_metric>  (95) 
0.188141

>  <N_HA>  (95) 
20

>  <N_rotatable_bonds>  (95) 
4

>  <N_interactions>  (95) 
6

>  <N_PAINS>  (95) 
0

>  <UFF_Gibbs>  (95) 
88.750984

>  <strain_per_HA>  (95) 
4.437527

>  <ad_hoc_penalty>  (95) 
-38.666312

>  <cluster>  (95) 
93

>  <merger_rank>  (95) 
3

>  <pication:ARG:29>  (95) 
0

>  <hbond:HIS:51>  (95) 
0

>  <pistack:HIS:51>  (95) 
1

>  <hydroph_interaction:TYR:161>  (95) 
1

>  <pication:HIS:51>  (95) 
0

>  <hydroph_interaction:ALA:132>  (95) 
1

>  <hydroph_interaction:TYR:150>  (95) 
0

>  <hydroph_interaction:LYS:54>  (95) 
0

>  <hbond:SER:135>  (95) 
0

>  <hydroph_interaction:HIS:51>  (95) 
1

>  <hbond:ASP:83>  (95) 
0

>  <hbond:ALA:132>  (95) 
0

>  <halogenbond:SER:81>  (95) 
0

>  <hbond:GLY:82>  (95) 
0

>  <saltbridge:HIS:51>  (95) 
0

>  <pistack:TYR:161>  (95) 
1

>  <hbond:SER:81>  (95) 
0

>  <hbond:ASN:152>  (95) 
0

>  <hbond:GLY:151>  (95) 
0

>  <hydroph_interaction:ASN:152>  (95) 
0

>  <hbond:TYR:161>  (95) 
0

>  <halogenbond:TYR:150>  (95) 
1

>  <hbond:ASP:75>  (95) 
0

>  <hbond:GLY:153>  (95) 
0

>  <hbond:VAL:36>  (95) 
0

>  <hbond:PRO:131>  (95) 
0

>  <hbond:VAL:52>  (95) 
0

>  <hydroph_interaction:ASP:83>  (95) 
0

>  <hydroph_interaction:MET:49>  (95) 
0

>  <hydroph_interaction:VAL:52>  (95) 
0

>  <saltbridge:ASP:83>  (95) 
0

>  <saltbridge:ASP:75>  (95) 
0

>  <hydroph_interaction:TRP:50>  (95) 
0

>  <hydroph_interaction:VAL:72>  (95) 
0

>  <hydroph_interaction:ASP:75>  (95) 
0

>  <halogenbond:ASN:152>  (95) 
0

>  <halogenbond:GLY:153>  (95) 
0

>  <halogenbond:TYR:130>  (95) 
0

>  <hbond:TYR:130>  (95) 
0

>  <halogenbond:ASP:75>  (95) 
0

>  <halogenbond:GLY:151>  (95) 
0

>  <hbond:TYR:150>  (95) 
0

>  <halogenbond:TYR:161>  (95) 
0

>  <hydroph_interaction:ASP:129>  (95) 
0

>  <hbond:ASP:129>  (95) 
0

>  <halogenbond:ALA:132>  (95) 
0

$$$$
PV-002439772988
     RDKit          3D

 28 30  0  0  0  0  0  0  0  0999 V2000
   -8.9930    2.4970   -9.9840 C   0  0  0  0  0  0  0  0  0  0  0  0
   -8.9650    3.9040  -10.4350 C   0  0  0  0  0  0  0  0  0  0  0  0
   -8.6670    5.0420   -9.7200 C   0  0  0  0  0  0  0  0  0  0  0  0
   -8.7930    6.2110  -10.5150 C   0  0  0  0  0  0  0  0  0  0  0  0
   -9.1820    5.9310  -11.8100 C   0  0  0  0  0  0  0  0  0  0  0  0
   -9.4470    6.8380  -12.9200 C   0  0  0  0  0  0  0  0  0  0  0  0
  -10.5340    6.9470  -13.4700 O   0  0  0  0  0  0  0  0  0  0  0  0
   -8.3440    7.5620  -13.2440 N   0  0  0  0  0  0  0  0  0  0  0  0
   -7.4930    7.2690  -14.2790 C   0  0  0  0  0  0  0  0  0  0  0  0
   -6.2590    7.7370  -14.3020 N   0  0  0  0  0  0  0  0  0  0  0  0
   -5.4970    7.2320  -15.6550 S   0  0  0  0  0  0  0  0  0  0  0  0
   -6.8060    6.3400  -16.2970 C   0  0  0  0  0  0  0  0  0  0  0  0
   -6.8650    5.6220  -17.4920 C   0  0  0  0  0  0  0  0  0  0  0  0
   -8.0570    4.9720  -17.8080 C   0  0  0  0  0  0  0  0  0  0  0  0
   -9.1490    5.0300  -16.9560 C   0  0  0  0  0  0  0  0  0  0  0  0
   -9.0820    5.7510  -15.7610 C   0  0  0  0  0  0  0  0  0  0  0  0
   -7.8810    6.4370  -15.4100 C   0  0  0  0  0  0  0  0  0  0  0  0
   -9.3580    4.2450  -12.0540 S   0  0  0  0  0  0  0  0  0  0  0  0
   -8.8390    2.4270   -8.9040 H   0  0  0  0  0  0  0  0  0  0  0  0
   -9.9780    2.0840  -10.2010 H   0  0  0  0  0  0  0  0  0  0  0  0
   -8.2440    1.8870  -10.5020 H   0  0  0  0  0  0  0  0  0  0  0  0
   -8.3810    5.0280   -8.6730 H   0  0  0  0  0  0  0  0  0  0  0  0
   -8.6110    7.2070  -10.1310 H   0  0  0  0  0  0  0  0  0  0  0  0
   -8.2150    8.4610  -12.8130 H   0  0  0  0  0  0  0  0  0  0  0  0
   -6.0130    5.5700  -18.1610 H   0  0  0  0  0  0  0  0  0  0  0  0
   -8.1280    4.4130  -18.7380 H   0  0  0  0  0  0  0  0  0  0  0  0
  -10.0690    4.5110  -17.2210 H   0  0  0  0  0  0  0  0  0  0  0  0
   -9.9530    5.7810  -15.1150 H   0  0  0  0  0  0  0  0  0  0  0  0
  1  2  1  0
  2  3  2  0
  3  4  1  0
  4  5  2  0
  5  6  1  0
  6  7  2  0
  6  8  1  0
  8  9  1  0
  9 10  2  0
 10 11  1  0
 11 12  1  0
 12 13  2  0
 13 14  1  0
 14 15  2  0
 15 16  1  0
 16 17  2  0
  5 18  1  0
 18  2  1  0
 17  9  1  0
 17 12  1  0
  1 19  1  0
  1 20  1  0
  1 21  1  0
  3 22  1  0
  4 23  1  0
  8 24  1  0
 13 25  1  0
 14 26  1  0
 15 27  1  0
 16 28  1  0
A    1
 C1 
A    2
 C2 
A    3
 C3 
A    4
 C4 
A    5
 C5 
A    6
 C6 
A    7
 O1 
A    8
 N1 
A    9
 C7 
A   10
 N2 
A   11
 S1 
A   12
 C8 
A   13
 C9 
A   14
 C10
A   15
 C11
A   16
 C12
A   17
 C13
A   18
 S2 
A   19
 H1 
A   20
 H2 
A   21
 H3 
A   22
 H4 
A   23
 H5 
A   24
 H6 
A   25
 H7 
A   26
 H8 
A   27
 H9 
A   28
 H10
M  END
>  <ref_pdb>  (96) 
x0051_0B

>  <ref_mols>  (96) 
x0404_0B,x0969_0B

>  <original SMILES>  (96) 
[H]c1c(C(=O)N([H])c2nsc3c([H])c([H])c([H])c([H])c23)sc(C([H])([H])[H])c1[H]

>  <index>  (96) 
5839

>  <∆∆G>  (96) 
-6.345805

>  <comRMSD>  (96) 
0.405315

>  <N_constrained_atoms>  (96) 
18.0

>  <N_unconstrained_atoms>  (96) 
0.0

>  <LE>  (96) 
0.352545

>  <percent_hybrid>  (96) 
0.0

>  <max_hit_Tanimoto>  (96) 
0.26404

>  <largest_ring>  (96) 
6

>  <N_interactions_kept>  (96) 
0.0

>  <N_interactions_lost>  (96) 
0.0

>  <interaction_uniqueness_metric>  (96) 
0.101301

>  <N_HA>  (96) 
18

>  <N_rotatable_bonds>  (96) 
3

>  <N_interactions>  (96) 
5

>  <N_PAINS>  (96) 
0

>  <UFF_Gibbs>  (96) 
42.066574

>  <strain_per_HA>  (96) 
2.337019

>  <ad_hoc_penalty>  (96) 
-38.590455

>  <cluster>  (96) 
860

>  <merger_rank>  (96) 
1

>  <pication:ARG:29>  (96) 
0

>  <hbond:HIS:51>  (96) 
0

>  <pistack:HIS:51>  (96) 
1

>  <hydroph_interaction:TYR:161>  (96) 
1

>  <pication:HIS:51>  (96) 
0

>  <hydroph_interaction:ALA:132>  (96) 
1

>  <hydroph_interaction:TYR:150>  (96) 
0

>  <hydroph_interaction:LYS:54>  (96) 
0

>  <hbond:SER:135>  (96) 
1

>  <hydroph_interaction:HIS:51>  (96) 
1

>  <hbond:ASP:83>  (96) 
0

>  <hbond:ALA:132>  (96) 
0

>  <halogenbond:SER:81>  (96) 
0

>  <hbond:GLY:82>  (96) 
0

>  <saltbridge:HIS:51>  (96) 
0

>  <pistack:TYR:161>  (96) 
0

>  <hbond:SER:81>  (96) 
0

>  <hbond:ASN:152>  (96) 
0

>  <hbond:GLY:151>  (96) 
0

>  <hydroph_interaction:ASN:152>  (96) 
0

>  <hbond:TYR:161>  (96) 
0

>  <halogenbond:TYR:150>  (96) 
0

>  <hbond:ASP:75>  (96) 
0

>  <hbond:GLY:153>  (96) 
0

>  <hbond:VAL:36>  (96) 
0

>  <hbond:PRO:131>  (96) 
0

>  <hbond:VAL:52>  (96) 
0

>  <hydroph_interaction:ASP:83>  (96) 
0

>  <hydroph_interaction:MET:49>  (96) 
0

>  <hydroph_interaction:VAL:52>  (96) 
0

>  <saltbridge:ASP:83>  (96) 
0

>  <saltbridge:ASP:75>  (96) 
0

>  <hydroph_interaction:TRP:50>  (96) 
0

>  <hydroph_interaction:VAL:72>  (96) 
0

>  <hydroph_interaction:ASP:75>  (96) 
0

>  <halogenbond:ASN:152>  (96) 
0

>  <halogenbond:GLY:153>  (96) 
0

>  <halogenbond:TYR:130>  (96) 
0

>  <hbond:TYR:130>  (96) 
0

>  <halogenbond:ASP:75>  (96) 
0

>  <halogenbond:GLY:151>  (96) 
0

>  <hbond:TYR:150>  (96) 
0

>  <halogenbond:TYR:161>  (96) 
0

>  <hydroph_interaction:ASP:129>  (96) 
0

>  <hbond:ASP:129>  (96) 
0

>  <halogenbond:ALA:132>  (96) 
0

$$$$
Z1207785044
     RDKit          3D

 32 34  0  0  0  0  0  0  0  0999 V2000
   -9.2310    3.3090   -8.5200 C   0  0  0  0  0  0  0  0  0  0  0  0
   -9.0850    4.3580   -9.5600 C   0  0  0  0  0  0  0  0  0  0  0  0
   -8.9500    5.7380   -9.3360 C   0  0  0  0  0  0  0  0  0  0  0  0
   -8.8350    6.6260  -10.4820 C   0  0  0  0  0  0  0  0  0  0  0  0
   -8.8630    6.0310  -11.7300 C   0  0  0  0  0  0  0  0  0  0  0  0
   -8.7560    6.8800  -12.8260 N   0  0  0  0  0  0  0  0  0  0  0  0
   -8.4210    6.4930  -14.1030 C   0  0  0  0  0  0  0  0  0  0  0  0
   -7.2050    6.6590  -14.7020 N   0  0  0  0  0  0  0  0  0  0  0  0
   -7.4500    6.1070  -15.9210 C   0  0  0  0  0  0  0  0  0  0  0  0
   -6.5290    6.0290  -16.9200 C   0  0  0  0  0  0  0  0  0  0  0  0
   -7.0510    5.4220  -18.0690 C   0  0  0  0  0  0  0  0  0  0  0  0
   -6.0160    5.3260  -19.2460 C   0  0  0  0  0  0  0  0  0  0  0  0
   -8.3760    4.9290  -18.2070 C   0  0  0  0  0  0  0  0  0  0  0  0
   -9.2530    5.0380  -17.1500 C   0  0  0  0  0  0  0  0  0  0  0  0
   -8.7170    5.6550  -16.0100 C   0  0  0  0  0  0  0  0  0  0  0  0
   -9.2980    5.9330  -14.8010 O   0  0  0  0  0  0  0  0  0  0  0  0
   -8.9880    4.6680  -11.9240 C   0  0  0  0  0  0  0  0  0  0  0  0
   -9.0980    3.8410  -10.8440 C   0  0  0  0  0  0  0  0  0  0  0  0
   -8.5870    3.5170   -7.6570 H   0  0  0  0  0  0  0  0  0  0  0  0
  -10.2610    3.2400   -8.1630 H   0  0  0  0  0  0  0  0  0  0  0  0
   -8.9620    2.3290   -8.9310 H   0  0  0  0  0  0  0  0  0  0  0  0
   -8.9380    6.1220   -8.3260 H   0  0  0  0  0  0  0  0  0  0  0  0
   -8.7350    7.6970  -10.3720 H   0  0  0  0  0  0  0  0  0  0  0  0
   -9.0770    7.8460  -12.7430 H   0  0  0  0  0  0  0  0  0  0  0  0
   -5.5110    6.3900  -16.8500 H   0  0  0  0  0  0  0  0  0  0  0  0
   -6.1960    4.7660  -20.1550 H   0  0  0  0  0  0  0  0  0  0  0  0
   -5.0150    4.9880  -19.0110 H   0  0  0  0  0  0  0  0  0  0  0  0
   -5.8190    6.3100  -19.6850 H   0  0  0  0  0  0  0  0  0  0  0  0
   -8.5630    4.4970  -19.1830 H   0  0  0  0  0  0  0  0  0  0  0  0
  -10.2750    4.6970  -17.1500 H   0  0  0  0  0  0  0  0  0  0  0  0
   -9.0040    4.2390  -12.9220 H   0  0  0  0  0  0  0  0  0  0  0  0
   -9.2000    2.7710  -11.0050 H   0  0  0  0  0  0  0  0  0  0  0  0
  1  2  1  0
  2  3  2  0
  3  4  1  0
  4  5  2  0
  5  6  1  0
  6  7  1  0
  7  8  2  0
  8  9  1  0
  9 10  2  0
 10 11  1  0
 11 12  1  0
 11 13  2  0
 13 14  1  0
 14 15  2  0
 15 16  1  0
  5 17  1  0
 17 18  2  0
 18  2  1  0
 16  7  1  0
 15  9  1  0
  1 19  1  0
  1 20  1  0
  1 21  1  0
  3 22  1  0
  4 23  1  0
  6 24  1  0
 10 25  1  0
 12 26  1  0
 12 27  1  0
 12 28  1  0
 13 29  1  0
 14 30  1  0
 17 31  1  0
 18 32  1  0
A    1
 C1 
A    2
 C2 
A    3
 C3 
A    4
 C4 
A    5
 C5 
A    6
 N1 
A    7
 C6 
A    8
 N2 
A    9
 C7 
A   10
 C8 
A   11
 C9 
A   12
 C10
A   13
 C11
A   14
 C12
A   15
 C13
A   16
 O1 
A   17
 C14
A   18
 C15
A   19
 H1 
A   20
 H2 
A   21
 H3 
A   22
 H4 
A   23
 H5 
A   24
 H6 
A   25
 H7 
A   26
 H8 
A   27
 H9 
A   28
 H10
A   29
 H11
A   30
 H12
A   31
 H13
A   32
 H14
M  END
>  <ref_pdb>  (97) 
x0051_0B

>  <ref_mols>  (97) 
x0404_0B,x0969_0B

>  <original SMILES>  (97) 
[H]c1c([H])c(C([H])([H])[H])c([H])c([H])c1N([H])c1nc2c([H])c(C([H])([H])[H])c([H])c([H])c2o1

>  <index>  (97) 
5152

>  <∆∆G>  (97) 
-7.781862

>  <comRMSD>  (97) 
0.212836

>  <N_constrained_atoms>  (97) 
17.0

>  <N_unconstrained_atoms>  (97) 
1.0

>  <LE>  (97) 
0.432326

>  <percent_hybrid>  (97) 
0.0

>  <max_hit_Tanimoto>  (97) 
0.543346

>  <largest_ring>  (97) 
6

>  <N_interactions_kept>  (97) 
0.0

>  <N_interactions_lost>  (97) 
0.0

>  <interaction_uniqueness_metric>  (97) 
0.077503

>  <N_HA>  (97) 
18

>  <N_rotatable_bonds>  (97) 
4

>  <N_interactions>  (97) 
5

>  <N_PAINS>  (97) 
0

>  <UFF_Gibbs>  (97) 
49.941364

>  <strain_per_HA>  (97) 
2.774505

>  <ad_hoc_penalty>  (97) 
-38.564488

>  <cluster>  (97) 
372

>  <merger_rank>  (97) 
4

>  <pication:ARG:29>  (97) 
0

>  <hbond:HIS:51>  (97) 
0

>  <pistack:HIS:51>  (97) 
1

>  <hydroph_interaction:TYR:161>  (97) 
2

>  <pication:HIS:51>  (97) 
0

>  <hydroph_interaction:ALA:132>  (97) 
1

>  <hydroph_interaction:TYR:150>  (97) 
0

>  <hydroph_interaction:LYS:54>  (97) 
0

>  <hbond:SER:135>  (97) 
0

>  <hydroph_interaction:HIS:51>  (97) 
1

>  <hbond:ASP:83>  (97) 
0

>  <hbond:ALA:132>  (97) 
0

>  <halogenbond:SER:81>  (97) 
0

>  <hbond:GLY:82>  (97) 
0

>  <saltbridge:HIS:51>  (97) 
0

>  <pistack:TYR:161>  (97) 
0

>  <hbond:SER:81>  (97) 
0

>  <hbond:ASN:152>  (97) 
0

>  <hbond:GLY:151>  (97) 
0

>  <hydroph_interaction:ASN:152>  (97) 
0

>  <hbond:TYR:161>  (97) 
0

>  <halogenbond:TYR:150>  (97) 
0

>  <hbond:ASP:75>  (97) 
0

>  <hbond:GLY:153>  (97) 
0

>  <hbond:VAL:36>  (97) 
0

>  <hbond:PRO:131>  (97) 
0

>  <hbond:VAL:52>  (97) 
0

>  <hydroph_interaction:ASP:83>  (97) 
0

>  <hydroph_interaction:MET:49>  (97) 
0

>  <hydroph_interaction:VAL:52>  (97) 
0

>  <saltbridge:ASP:83>  (97) 
0

>  <saltbridge:ASP:75>  (97) 
0

>  <hydroph_interaction:TRP:50>  (97) 
0

>  <hydroph_interaction:VAL:72>  (97) 
0

>  <hydroph_interaction:ASP:75>  (97) 
0

>  <halogenbond:ASN:152>  (97) 
0

>  <halogenbond:GLY:153>  (97) 
0

>  <halogenbond:TYR:130>  (97) 
0

>  <hbond:TYR:130>  (97) 
0

>  <halogenbond:ASP:75>  (97) 
0

>  <halogenbond:GLY:151>  (97) 
0

>  <hbond:TYR:150>  (97) 
0

>  <halogenbond:TYR:161>  (97) 
0

>  <hydroph_interaction:ASP:129>  (97) 
0

>  <hbond:ASP:129>  (97) 
0

>  <halogenbond:ALA:132>  (97) 
0

$$$$
Z1536940908
     RDKit          3D

 23 24  0  0  0  0  0  0  0  0999 V2000
  -10.2130    4.7060  -18.4870 C   0  0  0  0  0  0  0  0  0  0  0  0
   -9.3350    4.9920  -17.2840 C   0  0  0  0  0  0  0  0  0  0  0  0
   -7.9180    5.2910  -17.3650 C   0  0  0  0  0  0  0  0  0  0  0  0
   -7.4950    5.4780  -15.9980 C   0  0  0  0  0  0  0  0  0  0  0  0
   -8.6570    5.2920  -15.1480 C   0  0  0  0  0  0  0  0  0  0  0  0
   -8.6680    5.3970  -13.6860 C   0  0  0  0  0  0  0  0  0  0  0  0
   -8.7450    4.1990  -13.0400 N   0  0  0  0  0  0  0  0  0  0  0  0
   -8.8520    4.1630  -11.6920 C   0  0  0  0  0  0  0  0  0  0  0  0
   -8.7060    5.1770  -10.8100 N   0  0  0  0  0  0  0  0  0  0  0  0
   -8.8920    4.6730   -9.5780 C   0  0  0  0  0  0  0  0  0  0  0  0
   -9.1760    3.3460   -9.4020 C   0  0  0  0  0  0  0  0  0  0  0  0
   -9.2190    2.6390  -10.9550 S   0  0  0  0  0  0  0  0  0  0  0  0
   -9.7750    4.9980  -15.9700 O   0  0  0  0  0  0  0  0  0  0  0  0
   -9.9670    3.7230  -18.8930 H   0  0  0  0  0  0  0  0  0  0  0  0
  -10.0710    5.4360  -19.2920 H   0  0  0  0  0  0  0  0  0  0  0  0
  -11.2690    4.7100  -18.2030 H   0  0  0  0  0  0  0  0  0  0  0  0
   -7.3010    5.3570  -18.2720 H   0  0  0  0  0  0  0  0  0  0  0  0
   -6.4400    5.7150  -15.8200 H   0  0  0  0  0  0  0  0  0  0  0  0
   -7.8960    5.9700  -13.1860 H   0  0  0  0  0  0  0  0  0  0  0  0
   -9.5990    5.9360  -13.4620 H   0  0  0  0  0  0  0  0  0  0  0  0
   -8.1820    3.4600  -13.4900 H   0  0  0  0  0  0  0  0  0  0  0  0
   -8.8050    5.3730   -8.7470 H   0  0  0  0  0  0  0  0  0  0  0  0
   -9.3510    2.7830   -8.4920 H   0  0  0  0  0  0  0  0  0  0  0  0
  1  2  1  0
  2  3  2  0
  3  4  1  0
  4  5  2  0
  5  6  1  0
  6  7  1  0
  7  8  1  0
  8  9  2  0
  9 10  1  0
 10 11  2  0
 11 12  1  0
  5 13  1  0
 13  2  1  0
 12  8  1  0
  1 14  1  0
  1 15  1  0
  1 16  1  0
  3 17  1  0
  4 18  1  0
  6 19  1  0
  6 20  1  0
  7 21  1  0
 10 22  1  0
 11 23  1  0
A    1
 C1 
A    2
 C2 
A    3
 C3 
A    4
 C4 
A    5
 C5 
A    6
 C6 
A    7
 N1 
A    8
 C7 
A    9
 N2 
A   10
 C8 
A   11
 C9 
A   12
 S1 
A   13
 O1 
A   14
 H1 
A   15
 H2 
A   16
 H3 
A   17
 H4 
A   18
 H5 
A   19
 H6 
A   20
 H7 
A   21
 H8 
A   22
 H9 
A   23
 H10
M  END
>  <ref_pdb>  (98) 
x0051_0B

>  <ref_mols>  (98) 
x0969_1B,x0553_0B

>  <original SMILES>  (98) 
[H]c1nc(N([H])C([H])([H])c2oc(C([H])([H])[H])c([H])c2[H])sc1[H]

>  <index>  (98) 
1977

>  <∆∆G>  (98) 
-6.287257

>  <comRMSD>  (98) 
0.485521

>  <N_constrained_atoms>  (98) 
12.0

>  <N_unconstrained_atoms>  (98) 
1.0

>  <LE>  (98) 
0.483635

>  <percent_hybrid>  (98) 
0.0

>  <max_hit_Tanimoto>  (98) 
0.170093

>  <largest_ring>  (98) 
5

>  <N_interactions_kept>  (98) 
0.0

>  <N_interactions_lost>  (98) 
0.0

>  <interaction_uniqueness_metric>  (98) 
0.158619

>  <N_HA>  (98) 
13

>  <N_rotatable_bonds>  (98) 
4

>  <N_interactions>  (98) 
6

>  <N_PAINS>  (98) 
0

>  <UFF_Gibbs>  (98) 
47.404033

>  <strain_per_HA>  (98) 
3.646436

>  <ad_hoc_penalty>  (98) 
-38.457811

>  <cluster>  (98) 
3399

>  <merger_rank>  (98) 
1

>  <pication:ARG:29>  (98) 
0

>  <hbond:HIS:51>  (98) 
0

>  <pistack:HIS:51>  (98) 
1

>  <hydroph_interaction:TYR:161>  (98) 
1

>  <pication:HIS:51>  (98) 
0

>  <hydroph_interaction:ALA:132>  (98) 
1

>  <hydroph_interaction:TYR:150>  (98) 
1

>  <hydroph_interaction:LYS:54>  (98) 
0

>  <hbond:SER:135>  (98) 
0

>  <hydroph_interaction:HIS:51>  (98) 
0

>  <hbond:ASP:83>  (98) 
0

>  <hbond:ALA:132>  (98) 
0

>  <halogenbond:SER:81>  (98) 
0

>  <hbond:GLY:82>  (98) 
0

>  <saltbridge:HIS:51>  (98) 
0

>  <pistack:TYR:161>  (98) 
0

>  <hbond:SER:81>  (98) 
0

>  <hbond:ASN:152>  (98) 
0

>  <hbond:GLY:151>  (98) 
0

>  <hydroph_interaction:ASN:152>  (98) 
0

>  <hbond:TYR:161>  (98) 
2

>  <halogenbond:TYR:150>  (98) 
0

>  <hbond:ASP:75>  (98) 
0

>  <hbond:GLY:153>  (98) 
0

>  <hbond:VAL:36>  (98) 
0

>  <hbond:PRO:131>  (98) 
0

>  <hbond:VAL:52>  (98) 
0

>  <hydroph_interaction:ASP:83>  (98) 
0

>  <hydroph_interaction:MET:49>  (98) 
0

>  <hydroph_interaction:VAL:52>  (98) 
0

>  <saltbridge:ASP:83>  (98) 
0

>  <saltbridge:ASP:75>  (98) 
0

>  <hydroph_interaction:TRP:50>  (98) 
0

>  <hydroph_interaction:VAL:72>  (98) 
0

>  <hydroph_interaction:ASP:75>  (98) 
0

>  <halogenbond:ASN:152>  (98) 
0

>  <halogenbond:GLY:153>  (98) 
0

>  <halogenbond:TYR:130>  (98) 
0

>  <hbond:TYR:130>  (98) 
0

>  <halogenbond:ASP:75>  (98) 
0

>  <halogenbond:GLY:151>  (98) 
0

>  <hbond:TYR:150>  (98) 
0

>  <halogenbond:TYR:161>  (98) 
0

>  <hydroph_interaction:ASP:129>  (98) 
0

>  <hbond:ASP:129>  (98) 
0

>  <halogenbond:ALA:132>  (98) 
0

$$$$
PV-003409422822
     RDKit          3D

 21 22  0  0  0  0  0  0  0  0999 V2000
   -9.8930    4.8140  -18.1890 C   0  0  0  0  0  0  0  0  0  0  0  0
   -8.8740    5.0490  -17.0780 C   0  0  0  0  0  0  0  0  0  0  0  0
   -7.5190    5.3330  -17.5320 N   0  0  0  0  0  0  0  0  0  0  0  0
   -6.6580    5.5040  -16.1190 S   0  0  0  0  0  0  0  0  0  0  0  0
   -8.0130    5.2140  -15.0470 C   0  0  0  0  0  0  0  0  0  0  0  0
   -7.9490    5.1880  -13.6590 C   0  0  0  0  0  0  0  0  0  0  0  0
   -9.0820    4.7370  -13.0190 C   0  0  0  0  0  0  0  0  0  0  0  0
   -8.9030    4.7060  -11.6200 C   0  0  0  0  0  0  0  0  0  0  0  0
   -9.2220    3.5690  -10.7320 C   0  0  0  0  0  0  0  0  0  0  0  0
   -8.9530    3.8400   -9.4050 C   0  0  0  0  0  0  0  0  0  0  0  0
   -8.4180    5.1840   -9.2330 C   0  0  0  0  0  0  0  0  0  0  0  0
   -8.2740    6.0500  -10.6990 S   0  0  0  0  0  0  0  0  0  0  0  0
   -9.1400    5.0030  -15.7230 N   0  0  0  0  0  0  0  0  0  0  0  0
  -10.8920    5.1590  -17.9120 H   0  0  0  0  0  0  0  0  0  0  0  0
   -9.9580    3.7570  -18.4430 H   0  0  0  0  0  0  0  0  0  0  0  0
   -9.5980    5.3350  -19.1040 H   0  0  0  0  0  0  0  0  0  0  0  0
   -7.0530    5.4900  -13.1350 H   0  0  0  0  0  0  0  0  0  0  0  0
   -9.9890    4.4260  -13.5160 H   0  0  0  0  0  0  0  0  0  0  0  0
   -9.6240    2.5990  -10.9820 H   0  0  0  0  0  0  0  0  0  0  0  0
   -9.1160    3.1470   -8.5890 H   0  0  0  0  0  0  0  0  0  0  0  0
   -8.1640    5.5210   -8.2230 H   0  0  0  0  0  0  0  0  0  0  0  0
  1  2  1  0
  2  3  2  0
  3  4  1  0
  4  5  1  0
  5  6  1  0
  6  7  2  3
  7  8  1  0
  8  9  2  0
  9 10  1  0
 10 11  2  0
 11 12  1  0
  5 13  2  0
 13  2  1  0
 12  8  1  0
  1 14  1  0
  1 15  1  0
  1 16  1  0
  6 17  1  0
  7 18  1  0
  9 19  1  0
 10 20  1  0
 11 21  1  0
A    1
 C1 
A    2
 C2 
A    3
 N1 
A    4
 S1 
A    5
 C3 
A    6
 C4 
A    7
 C5 
A    8
 C6 
A    9
 C7 
A   10
 C8 
A   11
 C9 
A   12
 S2 
A   13
 N2 
A   14
 H1 
A   15
 H2 
A   16
 H3 
A   17
 H4 
A   18
 H5 
A   19
 H6 
A   20
 H7 
A   21
 H8 
M  END
>  <ref_pdb>  (99) 
x0051_0B

>  <ref_mols>  (99) 
x0969_1B,x0553_0B

>  <original SMILES>  (99) 
[H]C(=C([H])c1sc([H])c([H])c1[H])c1nc(C([H])([H])[H])ns1

>  <index>  (99) 
1444

>  <∆∆G>  (99) 
-4.844118

>  <comRMSD>  (99) 
0.35397

>  <N_constrained_atoms>  (99) 
13.0

>  <N_unconstrained_atoms>  (99) 
0.0

>  <LE>  (99) 
0.372624

>  <percent_hybrid>  (99) 
0.0

>  <max_hit_Tanimoto>  (99) 
0.231959

>  <largest_ring>  (99) 
5

>  <N_interactions_kept>  (99) 
0.0

>  <N_interactions_lost>  (99) 
0.0

>  <interaction_uniqueness_metric>  (99) 
0.166309

>  <N_HA>  (99) 
13

>  <N_rotatable_bonds>  (99) 
3

>  <N_interactions>  (99) 
6

>  <N_PAINS>  (99) 
0

>  <UFF_Gibbs>  (99) 
42.569551

>  <strain_per_HA>  (99) 
3.274556

>  <ad_hoc_penalty>  (99) 
-38.415939

>  <cluster>  (99) 
3776

>  <merger_rank>  (99) 
4

>  <pication:ARG:29>  (99) 
0

>  <hbond:HIS:51>  (99) 
0

>  <pistack:HIS:51>  (99) 
1

>  <hydroph_interaction:TYR:161>  (99) 
1

>  <pication:HIS:51>  (99) 
0

>  <hydroph_interaction:ALA:132>  (99) 
0

>  <hydroph_interaction:TYR:150>  (99) 
1

>  <hydroph_interaction:LYS:54>  (99) 
0

>  <hbond:SER:135>  (99) 
0

>  <hydroph_interaction:HIS:51>  (99) 
1

>  <hbond:ASP:83>  (99) 
0

>  <hbond:ALA:132>  (99) 
0

>  <halogenbond:SER:81>  (99) 
0

>  <hbond:GLY:82>  (99) 
0

>  <saltbridge:HIS:51>  (99) 
0

>  <pistack:TYR:161>  (99) 
1

>  <hbond:SER:81>  (99) 
0

>  <hbond:ASN:152>  (99) 
0

>  <hbond:GLY:151>  (99) 
0

>  <hydroph_interaction:ASN:152>  (99) 
0

>  <hbond:TYR:161>  (99) 
1

>  <halogenbond:TYR:150>  (99) 
0

>  <hbond:ASP:75>  (99) 
0

>  <hbond:GLY:153>  (99) 
0

>  <hbond:VAL:36>  (99) 
0

>  <hbond:PRO:131>  (99) 
0

>  <hbond:VAL:52>  (99) 
0

>  <hydroph_interaction:ASP:83>  (99) 
0

>  <hydroph_interaction:MET:49>  (99) 
0

>  <hydroph_interaction:VAL:52>  (99) 
0

>  <saltbridge:ASP:83>  (99) 
0

>  <saltbridge:ASP:75>  (99) 
0

>  <hydroph_interaction:TRP:50>  (99) 
0

>  <hydroph_interaction:VAL:72>  (99) 
0

>  <hydroph_interaction:ASP:75>  (99) 
0

>  <halogenbond:ASN:152>  (99) 
0

>  <halogenbond:GLY:153>  (99) 
0

>  <halogenbond:TYR:130>  (99) 
0

>  <hbond:TYR:130>  (99) 
0

>  <halogenbond:ASP:75>  (99) 
0

>  <halogenbond:GLY:151>  (99) 
0

>  <hbond:TYR:150>  (99) 
0

>  <halogenbond:TYR:161>  (99) 
0

>  <hydroph_interaction:ASP:129>  (99) 
0

>  <hbond:ASP:129>  (99) 
0

>  <halogenbond:ALA:132>  (99) 
0

$$$$
PV-002957561600
     RDKit          3D

 31 33  0  0  0  0  0  0  0  0999 V2000
   -8.3280    3.9010  -19.1260 C   0  0  0  0  0  0  0  0  0  0  0  0
   -8.0120    4.8390  -17.9710 C   0  0  0  0  0  0  0  0  0  0  0  0
   -9.0110    4.7900  -16.8690 C   0  0  0  0  0  0  0  0  0  0  0  0
   -8.7620    5.6630  -15.7730 C   0  0  0  0  0  0  0  0  0  0  0  0
   -7.6700    6.4640  -15.7830 C   0  0  0  0  0  0  0  0  0  0  0  0
   -7.4690    7.3630  -14.6340 C   0  0  0  0  0  0  0  0  0  0  0  0
   -8.1700    7.1930  -13.4570 C   0  0  0  0  0  0  0  0  0  0  0  0
   -9.0250    7.9890  -12.8490 N   0  0  0  0  0  0  0  0  0  0  0  0
   -9.4450    7.3870  -11.6830 N   0  0  0  0  0  0  0  0  0  0  0  0
   -8.7680    6.2180  -11.6990 C   0  0  0  0  0  0  0  0  0  0  0  0
   -8.8830    5.1930  -10.6260 C   0  0  0  0  0  0  0  0  0  0  0  0
   -8.9490    5.4700   -9.3220 N   0  0  0  0  0  0  0  0  0  0  0  0
   -9.0580    4.3640   -8.5220 C   0  0  0  0  0  0  0  0  0  0  0  0
   -9.0990    3.0660   -8.9860 C   0  0  0  0  0  0  0  0  0  0  0  0
   -9.0180    2.9380  -10.3080 C   0  0  0  0  0  0  0  0  0  0  0  0
   -8.9110    3.9580  -11.1530 N   0  0  0  0  0  0  0  0  0  0  0  0
   -7.9620    6.0330  -12.7700 O   0  0  0  0  0  0  0  0  0  0  0  0
   -6.7440    6.4880  -16.8200 C   0  0  0  0  0  0  0  0  0  0  0  0
   -6.9110    5.6770  -17.9210 C   0  0  0  0  0  0  0  0  0  0  0  0
   -5.6200    5.7710  -19.3090 Br  0  0  0  0  0  0  0  0  0  0  0  0
   -8.7930    2.9740  -18.7810 H   0  0  0  0  0  0  0  0  0  0  0  0
   -7.4290    3.6420  -19.6930 H   0  0  0  0  0  0  0  0  0  0  0  0
   -9.0250    4.3860  -19.8160 H   0  0  0  0  0  0  0  0  0  0  0  0
   -9.9050    4.2060  -16.7530 H   0  0  0  0  0  0  0  0  0  0  0  0
   -9.4660    5.6690  -14.9440 H   0  0  0  0  0  0  0  0  0  0  0  0
   -7.3490    8.4040  -14.9020 H   0  0  0  0  0  0  0  0  0  0  0  0
   -6.4430    7.1400  -14.3180 H   0  0  0  0  0  0  0  0  0  0  0  0
   -9.1220    4.4660   -7.4330 H   0  0  0  0  0  0  0  0  0  0  0  0
   -9.1890    2.2260   -8.2960 H   0  0  0  0  0  0  0  0  0  0  0  0
   -9.0380    1.9560  -10.7660 H   0  0  0  0  0  0  0  0  0  0  0  0
   -5.8830    7.1590  -16.7640 H   0  0  0  0  0  0  0  0  0  0  0  0
  1  2  1  0
  2  3  2  0
  3  4  1  0
  4  5  2  0
  5  6  1  0
  6  7  1  0
  7  8  2  0
  8  9  1  0
  9 10  2  0
 10 11  1  0
 11 12  2  0
 12 13  1  0
 13 14  2  0
 14 15  1  0
 15 16  2  0
 10 17  1  0
  5 18  1  0
 18 19  2  0
 19 20  1  0
 19  2  1  0
 17  7  1  0
 16 11  1  0
  1 21  1  0
  1 22  1  0
  1 23  1  0
  3 24  1  0
  4 25  1  0
  6 26  1  0
  6 27  1  0
 13 28  1  0
 14 29  1  0
 15 30  1  0
 18 31  1  0
A    1
 C1 
A    2
 C2 
A    3
 C3 
A    4
 C4 
A    5
 C5 
A    6
 C6 
A    7
 C7 
A    8
 N1 
A    9
 N2 
A   10
 C8 
A   11
 C9 
A   12
 N3 
A   13
 C10
A   14
 C11
A   15
 C12
A   16
 N4 
A   17
 O1 
A   18
 C13
A   19
 C14
A   20
BR1 
A   21
 H1 
A   22
 H2 
A   23
 H3 
A   24
 H4 
A   25
 H5 
A   26
 H6 
A   27
 H7 
A   28
 H8 
A   29
 H9 
A   30
 H10
A   31
 H11
M  END
>  <ref_pdb>  (100) 
x0051_0B

>  <ref_mols>  (100) 
x0404_0B,x0969_0B

>  <original SMILES>  (100) 
[H]c1nc(-c2nnc(C([H])([H])c3c([H])c([H])c(C([H])([H])[H])c(Br)c3[H])o2)nc([H])c1[H]

>  <index>  (100) 
4247

>  <∆∆G>  (100) 
-7.314695

>  <comRMSD>  (100) 
0.354666

>  <N_constrained_atoms>  (100) 
19.0

>  <N_unconstrained_atoms>  (100) 
1.0

>  <LE>  (100) 
0.365735

>  <percent_hybrid>  (100) 
0.0

>  <max_hit_Tanimoto>  (100) 
0.382803

>  <largest_ring>  (100) 
6

>  <N_interactions_kept>  (100) 
0.0

>  <N_interactions_lost>  (100) 
0.0

>  <interaction_uniqueness_metric>  (100) 
0.142571

>  <N_HA>  (100) 
20

>  <N_rotatable_bonds>  (100) 
4

>  <N_interactions>  (100) 
5

>  <N_PAINS>  (100) 
0

>  <UFF_Gibbs>  (100) 
62.038411

>  <strain_per_HA>  (100) 
3.101905

>  <ad_hoc_penalty>  (100) 
-38.376397

>  <cluster>  (100) 
54

>  <merger_rank>  (100) 
4

>  <pication:ARG:29>  (100) 
0

>  <hbond:HIS:51>  (100) 
0

>  <pistack:HIS:51>  (100) 
1

>  <hydroph_interaction:TYR:161>  (100) 
1

>  <pication:HIS:51>  (100) 
0

>  <hydroph_interaction:ALA:132>  (100) 
1

>  <hydroph_interaction:TYR:150>  (100) 
1

>  <hydroph_interaction:LYS:54>  (100) 
0

>  <hbond:SER:135>  (100) 
0

>  <hydroph_interaction:HIS:51>  (100) 
0

>  <hbond:ASP:83>  (100) 
0

>  <hbond:ALA:132>  (100) 
0

>  <halogenbond:SER:81>  (100) 
0

>  <hbond:GLY:82>  (100) 
0

>  <saltbridge:HIS:51>  (100) 
0

>  <pistack:TYR:161>  (100) 
1

>  <hbond:SER:81>  (100) 
0

>  <hbond:ASN:152>  (100) 
0

>  <hbond:GLY:151>  (100) 
0

>  <hydroph_interaction:ASN:152>  (100) 
0

>  <hbond:TYR:161>  (100) 
0

>  <halogenbond:TYR:150>  (100) 
0

>  <hbond:ASP:75>  (100) 
0

>  <hbond:GLY:153>  (100) 
0

>  <hbond:VAL:36>  (100) 
0

>  <hbond:PRO:131>  (100) 
0

>  <hbond:VAL:52>  (100) 
0

>  <hydroph_interaction:ASP:83>  (100) 
0

>  <hydroph_interaction:MET:49>  (100) 
0

>  <hydroph_interaction:VAL:52>  (100) 
0

>  <saltbridge:ASP:83>  (100) 
0

>  <saltbridge:ASP:75>  (100) 
0

>  <hydroph_interaction:TRP:50>  (100) 
0

>  <hydroph_interaction:VAL:72>  (100) 
0

>  <hydroph_interaction:ASP:75>  (100) 
0

>  <halogenbond:ASN:152>  (100) 
0

>  <halogenbond:GLY:153>  (100) 
0

>  <halogenbond:TYR:130>  (100) 
0

>  <hbond:TYR:130>  (100) 
0

>  <halogenbond:ASP:75>  (100) 
0

>  <halogenbond:GLY:151>  (100) 
0

>  <hbond:TYR:150>  (100) 
0

>  <halogenbond:TYR:161>  (100) 
0

>  <hydroph_interaction:ASP:129>  (100) 
0

>  <hbond:ASP:129>  (100) 
0

>  <halogenbond:ALA:132>  (100) 
0

$$$$
Z1135020622
     RDKit          3D

 32 34  0  0  0  0  0  0  0  0999 V2000
  -10.8340    5.0360  -18.6220 C   0  0  0  0  0  0  0  0  0  0  0  0
   -9.6310    4.6300  -18.1390 C   0  0  0  0  0  0  0  0  0  0  0  0
   -8.9550    3.5950  -18.8320 O   0  0  0  0  0  0  0  0  0  0  0  0
   -8.9580    5.2310  -16.9570 C   0  0  0  0  0  0  0  0  0  0  0  0
   -7.5400    5.5770  -16.9020 C   0  0  0  0  0  0  0  0  0  0  0  0
   -6.8910    6.2820  -15.5110 S   0  0  0  0  0  0  0  0  0  0  0  0
   -8.5300    6.1760  -14.8340 C   0  0  0  0  0  0  0  0  0  0  0  0
   -8.9320    6.6480  -13.4300 C   0  0  0  0  0  0  0  0  0  0  0  0
   -9.6060    7.9480  -13.2300 C   0  0  0  0  0  0  0  0  0  0  0  0
   -9.9220    8.1890  -11.5690 S   0  0  0  0  0  0  0  0  0  0  0  0
   -9.1980    6.6490  -11.2510 C   0  0  0  0  0  0  0  0  0  0  0  0
   -9.0310    6.0100  -10.1230 N   0  0  0  0  0  0  0  0  0  0  0  0
   -8.7800    4.6870  -10.1000 C   0  0  0  0  0  0  0  0  0  0  0  0
   -7.9860    3.9840  -10.9980 C   0  0  0  0  0  0  0  0  0  0  0  0
   -8.0050    2.7080  -10.6490 N   0  0  0  0  0  0  0  0  0  0  0  0
   -7.2980    1.6450  -11.3310 C   0  0  0  0  0  0  0  0  0  0  0  0
   -8.7850    2.4690   -9.5250 N   0  0  0  0  0  0  0  0  0  0  0  0
   -9.2430    3.6900   -9.2050 C   0  0  0  0  0  0  0  0  0  0  0  0
   -8.7260    5.9730  -12.3360 N   0  0  0  0  0  0  0  0  0  0  0  0
   -9.4900    5.6030  -15.6900 C   0  0  0  0  0  0  0  0  0  0  0  0
  -11.3370    5.8430  -18.1650 H   0  0  0  0  0  0  0  0  0  0  0  0
  -10.6890    5.3260  -19.6690 H   0  0  0  0  0  0  0  0  0  0  0  0
  -11.5230    4.2020  -18.5520 H   0  0  0  0  0  0  0  0  0  0  0  0
   -6.8720    5.3940  -17.7550 H   0  0  0  0  0  0  0  0  0  0  0  0
   -9.8220    8.5840  -14.0930 H   0  0  0  0  0  0  0  0  0  0  0  0
   -8.4770    6.5760   -9.4870 H   0  0  0  0  0  0  0  0  0  0  0  0
   -7.4240    4.3310  -11.8540 H   0  0  0  0  0  0  0  0  0  0  0  0
   -7.6140    1.6460  -12.3560 H   0  0  0  0  0  0  0  0  0  0  0  0
   -6.2320    1.8890  -11.2870 H   0  0  0  0  0  0  0  0  0  0  0  0
   -7.4360    0.6700  -10.9080 H   0  0  0  0  0  0  0  0  0  0  0  0
   -9.8910    3.7900   -8.3450 H   0  0  0  0  0  0  0  0  0  0  0  0
  -10.5100    5.4780  -15.3930 H   0  0  0  0  0  0  0  0  0  0  0  0
  1  2  1  0
  2  3  2  0
  2  4  1  0
  4  5  2  0
  5  6  1  0
  6  7  1  0
  7  8  1  0
  8  9  2  0
  9 10  1  0
 10 11  1  0
 11 12  1  0
 12 13  1  0
 13 14  2  0
 14 15  1  0
 15 16  1  0
 15 17  1  0
 17 18  2  0
 11 19  2  0
  7 20  2  0
 20  4  1  0
 19  8  1  0
 18 13  1  0
  1 21  1  0
  1 22  1  0
  1 23  1  0
  5 24  1  0
  9 25  1  0
 12 26  1  0
 14 27  1  0
 16 28  1  0
 16 29  1  0
 16 30  1  0
 18 31  1  0
 20 32  1  0
A    1
 C1 
A    2
 C2 
A    3
 O1 
A    4
 C3 
A    5
 C4 
A    6
 S1 
A    7
 C5 
A    8
 C6 
A    9
 C7 
A   10
 S2 
A   11
 C8 
A   12
 N1 
A   13
 C9 
A   14
 C10
A   15
 N2 
A   16
 C11
A   17
 N3 
A   18
 C12
A   19
 N4 
A   20
 C13
A   21
 H1 
A   22
 H2 
A   23
 H3 
A   24
 H4 
A   25
 H5 
A   26
 H6 
A   27
 H7 
A   28
 H8 
A   29
 H9 
A   30
 H10
A   31
 H11
A   32
 H12
M  END
>  <ref_pdb>  (101) 
x0051_0B

>  <ref_mols>  (101) 
x0404_0B,x0969_0B

>  <original SMILES>  (101) 
[H]c1nn(C([H])([H])[H])c([H])c1N([H])c1nc(-c2sc([H])c(C(=O)C([H])([H])[H])c2[H])c([H])s1

>  <index>  (101) 
3442

>  <∆∆G>  (101) 
-5.263664

>  <comRMSD>  (101) 
0.364251

>  <N_constrained_atoms>  (101) 
17.0

>  <N_unconstrained_atoms>  (101) 
4.0

>  <LE>  (101) 
0.250651

>  <percent_hybrid>  (101) 
0.0

>  <max_hit_Tanimoto>  (101) 
0.414858

>  <largest_ring>  (101) 
5

>  <N_interactions_kept>  (101) 
0.0

>  <N_interactions_lost>  (101) 
0.0

>  <interaction_uniqueness_metric>  (101) 
0.513423

>  <N_HA>  (101) 
20

>  <N_rotatable_bonds>  (101) 
6

>  <N_interactions>  (101) 
7

>  <N_PAINS>  (101) 
0

>  <UFF_Gibbs>  (101) 
130.044479

>  <strain_per_HA>  (101) 
6.502191

>  <ad_hoc_penalty>  (101) 
-38.372112

>  <cluster>  (101) 
496

>  <merger_rank>  (101) 
1

>  <pication:ARG:29>  (101) 
0

>  <hbond:HIS:51>  (101) 
1

>  <pistack:HIS:51>  (101) 
1

>  <hydroph_interaction:TYR:161>  (101) 
1

>  <pication:HIS:51>  (101) 
1

>  <hydroph_interaction:ALA:132>  (101) 
1

>  <hydroph_interaction:TYR:150>  (101) 
1

>  <hydroph_interaction:LYS:54>  (101) 
0

>  <hbond:SER:135>  (101) 
0

>  <hydroph_interaction:HIS:51>  (101) 
0

>  <hbond:ASP:83>  (101) 
0

>  <hbond:ALA:132>  (101) 
0

>  <halogenbond:SER:81>  (101) 
0

>  <hbond:GLY:82>  (101) 
0

>  <saltbridge:HIS:51>  (101) 
0

>  <pistack:TYR:161>  (101) 
0

>  <hbond:SER:81>  (101) 
0

>  <hbond:ASN:152>  (101) 
0

>  <hbond:GLY:151>  (101) 
0

>  <hydroph_interaction:ASN:152>  (101) 
0

>  <hbond:TYR:161>  (101) 
0

>  <halogenbond:TYR:150>  (101) 
0

>  <hbond:ASP:75>  (101) 
0

>  <hbond:GLY:153>  (101) 
0

>  <hbond:VAL:36>  (101) 
0

>  <hbond:PRO:131>  (101) 
0

>  <hbond:VAL:52>  (101) 
0

>  <hydroph_interaction:ASP:83>  (101) 
0

>  <hydroph_interaction:MET:49>  (101) 
0

>  <hydroph_interaction:VAL:52>  (101) 
0

>  <saltbridge:ASP:83>  (101) 
0

>  <saltbridge:ASP:75>  (101) 
0

>  <hydroph_interaction:TRP:50>  (101) 
0

>  <hydroph_interaction:VAL:72>  (101) 
0

>  <hydroph_interaction:ASP:75>  (101) 
0

>  <halogenbond:ASN:152>  (101) 
0

>  <halogenbond:GLY:153>  (101) 
0

>  <halogenbond:TYR:130>  (101) 
0

>  <hbond:TYR:130>  (101) 
0

>  <halogenbond:ASP:75>  (101) 
0

>  <halogenbond:GLY:151>  (101) 
0

>  <hbond:TYR:150>  (101) 
1

>  <halogenbond:TYR:161>  (101) 
0

>  <hydroph_interaction:ASP:129>  (101) 
0

>  <hbond:ASP:129>  (101) 
0

>  <halogenbond:ALA:132>  (101) 
0

$$$$
PV-003366556271
     RDKit          3D

 33 36  0  0  0  0  0  0  0  0999 V2000
  -10.3780    4.6230  -17.9840 C   0  0  0  0  0  0  0  0  0  0  0  0
   -8.9390    4.9720  -17.8830 C   0  0  0  0  0  0  0  0  0  0  0  0
   -8.1370    4.5540  -19.0330 C   0  0  0  0  0  0  0  0  0  0  0  0
   -6.7080    4.8420  -19.1360 C   0  0  0  0  0  0  0  0  0  0  0  0
   -6.0080    5.5990  -18.0280 C   0  0  0  0  0  0  0  0  0  0  0  0
   -6.8280    5.9750  -16.9560 C   0  0  0  0  0  0  0  0  0  0  0  0
   -6.5010    6.6630  -15.8670 N   0  0  0  0  0  0  0  0  0  0  0  0
   -7.6650    6.7820  -15.1510 N   0  0  0  0  0  0  0  0  0  0  0  0
   -7.5980    7.4920  -14.0100 C   0  0  0  0  0  0  0  0  0  0  0  0
   -8.3170    7.0640  -12.7540 C   0  0  0  0  0  0  0  0  0  0  0  0
   -9.2320    7.8230  -12.1110 N   0  0  0  0  0  0  0  0  0  0  0  0
   -9.5810    7.0900  -11.0490 N   0  0  0  0  0  0  0  0  0  0  0  0
   -8.9020    5.9490  -11.0830 C   0  0  0  0  0  0  0  0  0  0  0  0
   -9.0190    4.8940  -10.0730 C   0  0  0  0  0  0  0  0  0  0  0  0
   -9.0670    3.6170  -10.4570 C   0  0  0  0  0  0  0  0  0  0  0  0
   -9.1730    2.8480   -9.3300 C   0  0  0  0  0  0  0  0  0  0  0  0
   -9.1870    3.7160   -8.2300 C   0  0  0  0  0  0  0  0  0  0  0  0
   -9.0920    5.0050   -8.6930 O   0  0  0  0  0  0  0  0  0  0  0  0
   -8.0650    5.8710  -12.1700 O   0  0  0  0  0  0  0  0  0  0  0  0
   -8.7330    6.1620  -15.7380 C   0  0  0  0  0  0  0  0  0  0  0  0
   -8.2290    5.6520  -16.9100 C   0  0  0  0  0  0  0  0  0  0  0  0
  -10.9720    5.4590  -18.3700 H   0  0  0  0  0  0  0  0  0  0  0  0
  -10.7480    4.3770  -16.9950 H   0  0  0  0  0  0  0  0  0  0  0  0
  -10.5170    3.7880  -18.6630 H   0  0  0  0  0  0  0  0  0  0  0  0
   -8.6350    4.0190  -19.8300 H   0  0  0  0  0  0  0  0  0  0  0  0
   -6.1480    4.5100  -20.0190 H   0  0  0  0  0  0  0  0  0  0  0  0
   -4.9360    5.7990  -18.1480 H   0  0  0  0  0  0  0  0  0  0  0  0
   -7.6300    8.5720  -14.1010 H   0  0  0  0  0  0  0  0  0  0  0  0
   -6.5480    7.3280  -13.7460 H   0  0  0  0  0  0  0  0  0  0  0  0
   -9.0280    3.2660  -11.4790 H   0  0  0  0  0  0  0  0  0  0  0  0
   -9.2300    1.7730   -9.3050 H   0  0  0  0  0  0  0  0  0  0  0  0
   -9.2550    3.5300   -7.1650 H   0  0  0  0  0  0  0  0  0  0  0  0
   -9.7210    6.1620  -15.2880 H   0  0  0  0  0  0  0  0  0  0  0  0
  1  2  1  0
  2  3  2  0
  3  4  1  0
  4  5  2  0
  5  6  1  0
  6  7  2  0
  7  8  1  0
  8  9  1  0
  9 10  1  0
 10 11  2  0
 11 12  1  0
 12 13  2  0
 13 14  1  0
 14 15  2  0
 15 16  1  0
 16 17  2  0
 17 18  1  0
 13 19  1  0
  8 20  1  0
 20 21  2  0
 21  2  1  0
 21  6  1  0
 19 10  1  0
 18 14  1  0
  1 22  1  0
  1 23  1  0
  1 24  1  0
  3 25  1  0
  4 26  1  0
  5 27  1  0
  9 28  1  0
  9 29  1  0
 15 30  1  0
 16 31  1  0
 17 32  1  0
 20 33  1  0
A    1
 C1 
A    2
 C2 
A    3
 C3 
A    4
 C4 
A    5
 C5 
A    6
 C6 
A    7
 N1 
A    8
 N2 
A    9
 C7 
A   10
 C8 
A   11
 N3 
A   12
 N4 
A   13
 C9 
A   14
 C10
A   15
 C11
A   16
 C12
A   17
 C13
A   18
 O1 
A   19
 O2 
A   20
 C14
A   21
 C15
A   22
 H1 
A   23
 H2 
A   24
 H3 
A   25
 H4 
A   26
 H5 
A   27
 H6 
A   28
 H7 
A   29
 H8 
A   30
 H9 
A   31
 H10
A   32
 H11
A   33
 H12
M  END
>  <ref_pdb>  (102) 
x0051_0B

>  <ref_mols>  (102) 
x0404_0B,x0969_0B

>  <original SMILES>  (102) 
[H]c1oc(-c2nnc(C([H])([H])n3nc4c([H])c([H])c([H])c(C([H])([H])[H])c4c3[H])o2)c([H])c1[H]

>  <index>  (102) 
2455

>  <∆∆G>  (102) 
-7.321789

>  <comRMSD>  (102) 
0.713455

>  <N_constrained_atoms>  (102) 
20.0

>  <N_unconstrained_atoms>  (102) 
1.0

>  <LE>  (102) 
0.348657

>  <percent_hybrid>  (102) 
0.0

>  <max_hit_Tanimoto>  (102) 
0.424169

>  <largest_ring>  (102) 
6

>  <N_interactions_kept>  (102) 
0.0

>  <N_interactions_lost>  (102) 
0.0

>  <interaction_uniqueness_metric>  (102) 
0.142571

>  <N_HA>  (102) 
21

>  <N_rotatable_bonds>  (102) 
4

>  <N_interactions>  (102) 
5

>  <N_PAINS>  (102) 
0

>  <UFF_Gibbs>  (102) 
70.828587

>  <strain_per_HA>  (102) 
3.372774

>  <ad_hoc_penalty>  (102) 
-38.368177

>  <cluster>  (102) 
3041

>  <merger_rank>  (102) 
2

>  <pication:ARG:29>  (102) 
0

>  <hbond:HIS:51>  (102) 
0

>  <pistack:HIS:51>  (102) 
1

>  <hydroph_interaction:TYR:161>  (102) 
1

>  <pication:HIS:51>  (102) 
0

>  <hydroph_interaction:ALA:132>  (102) 
1

>  <hydroph_interaction:TYR:150>  (102) 
1

>  <hydroph_interaction:LYS:54>  (102) 
0

>  <hbond:SER:135>  (102) 
0

>  <hydroph_interaction:HIS:51>  (102) 
0

>  <hbond:ASP:83>  (102) 
0

>  <hbond:ALA:132>  (102) 
0

>  <halogenbond:SER:81>  (102) 
0

>  <hbond:GLY:82>  (102) 
0

>  <saltbridge:HIS:51>  (102) 
0

>  <pistack:TYR:161>  (102) 
1

>  <hbond:SER:81>  (102) 
0

>  <hbond:ASN:152>  (102) 
0

>  <hbond:GLY:151>  (102) 
0

>  <hydroph_interaction:ASN:152>  (102) 
0

>  <hbond:TYR:161>  (102) 
0

>  <halogenbond:TYR:150>  (102) 
0

>  <hbond:ASP:75>  (102) 
0

>  <hbond:GLY:153>  (102) 
0

>  <hbond:VAL:36>  (102) 
0

>  <hbond:PRO:131>  (102) 
0

>  <hbond:VAL:52>  (102) 
0

>  <hydroph_interaction:ASP:83>  (102) 
0

>  <hydroph_interaction:MET:49>  (102) 
0

>  <hydroph_interaction:VAL:52>  (102) 
0

>  <saltbridge:ASP:83>  (102) 
0

>  <saltbridge:ASP:75>  (102) 
0

>  <hydroph_interaction:TRP:50>  (102) 
0

>  <hydroph_interaction:VAL:72>  (102) 
0

>  <hydroph_interaction:ASP:75>  (102) 
0

>  <halogenbond:ASN:152>  (102) 
0

>  <halogenbond:GLY:153>  (102) 
0

>  <halogenbond:TYR:130>  (102) 
0

>  <hbond:TYR:130>  (102) 
0

>  <halogenbond:ASP:75>  (102) 
0

>  <halogenbond:GLY:151>  (102) 
0

>  <hbond:TYR:150>  (102) 
0

>  <halogenbond:TYR:161>  (102) 
0

>  <hydroph_interaction:ASP:129>  (102) 
0

>  <hbond:ASP:129>  (102) 
0

>  <halogenbond:ALA:132>  (102) 
0

$$$$
Z1231392571
     RDKit          3D

 21 22  0  0  0  0  0  0  0  0999 V2000
   -9.0760    6.8080  -12.7410 O   0  0  0  0  0  0  0  0  0  0  0  0
   -8.6090    5.6810  -12.6360 C   0  0  0  0  0  0  0  0  0  0  0  0
   -7.7970    5.1090  -13.6800 N   0  0  0  0  0  0  0  0  0  0  0  0
   -8.2820    5.0310  -14.9360 C   0  0  0  0  0  0  0  0  0  0  0  0
   -7.4180    4.9980  -16.1440 C   0  0  0  0  0  0  0  0  0  0  0  0
   -7.8660    4.9030  -17.4400 C   0  0  0  0  0  0  0  0  0  0  0  0
   -9.2000    4.8220  -17.7120 C   0  0  0  0  0  0  0  0  0  0  0  0
  -10.0800    4.8570  -16.5560 N   0  0  0  0  0  0  0  0  0  0  0  0
   -9.6330    4.9590  -15.2540 N   0  0  0  0  0  0  0  0  0  0  0  0
   -8.8090    4.8820  -11.4930 C   0  0  0  0  0  0  0  0  0  0  0  0
   -8.8750    5.2560  -10.1560 C   0  0  0  0  0  0  0  0  0  0  0  0
   -9.0980    4.1030   -9.2980 C   0  0  0  0  0  0  0  0  0  0  0  0
   -9.1980    2.8740   -9.9870 C   0  0  0  0  0  0  0  0  0  0  0  0
   -9.0190    3.1640  -11.6670 S   0  0  0  0  0  0  0  0  0  0  0  0
   -6.8000    5.2410  -13.6730 H   0  0  0  0  0  0  0  0  0  0  0  0
   -6.3430    5.0520  -15.9910 H   0  0  0  0  0  0  0  0  0  0  0  0
   -7.0730    4.8910  -18.1980 H   0  0  0  0  0  0  0  0  0  0  0  0
   -9.6210    4.7410  -18.7190 H   0  0  0  0  0  0  0  0  0  0  0  0
   -8.7800    6.2540   -9.7520 H   0  0  0  0  0  0  0  0  0  0  0  0
   -9.1760    4.1920   -8.2230 H   0  0  0  0  0  0  0  0  0  0  0  0
   -9.3590    1.8910   -9.5860 H   0  0  0  0  0  0  0  0  0  0  0  0
  1  2  2  0
  2  3  1  0
  3  4  1  0
  4  5  2  0
  5  6  1  0
  6  7  2  0
  7  8  1  0
  8  9  2  0
  2 10  1  0
 10 11  2  0
 11 12  1  0
 12 13  2  0
 13 14  1  0
  9  4  1  0
 14 10  1  0
  3 15  1  0
  5 16  1  0
  6 17  1  0
  7 18  1  0
 11 19  1  0
 12 20  1  0
 13 21  1  0
A    1
 O1 
A    2
 C1 
A    3
 N1 
A    4
 C2 
A    5
 C3 
A    6
 C4 
A    7
 C5 
A    8
 N2 
A    9
 N3 
A   10
 C6 
A   11
 C7 
A   12
 C8 
A   13
 C9 
A   14
 S1 
A   15
 H1 
A   16
 H2 
A   17
 H3 
A   18
 H4 
A   19
 H5 
A   20
 H6 
A   21
 H7 
M  END
>  <ref_pdb>  (103) 
x0051_0B

>  <ref_mols>  (103) 
x0969_1B,x0553_0B

>  <original SMILES>  (103) 
[H]c1nnc(N([H])C(=O)c2sc([H])c([H])c2[H])c([H])c1[H]

>  <index>  (103) 
2494

>  <∆∆G>  (103) 
-4.090737

>  <comRMSD>  (103) 
0.357228

>  <N_constrained_atoms>  (103) 
14.0

>  <N_unconstrained_atoms>  (103) 
0.0

>  <LE>  (103) 
0.292196

>  <percent_hybrid>  (103) 
0.0

>  <max_hit_Tanimoto>  (103) 
0.222937

>  <largest_ring>  (103) 
6

>  <N_interactions_kept>  (103) 
0.0

>  <N_interactions_lost>  (103) 
0.0

>  <interaction_uniqueness_metric>  (103) 
0.119686

>  <N_HA>  (103) 
14

>  <N_rotatable_bonds>  (103) 
2

>  <N_interactions>  (103) 
6

>  <N_PAINS>  (103) 
0

>  <UFF_Gibbs>  (103) 
46.516684

>  <strain_per_HA>  (103) 
3.322597

>  <ad_hoc_penalty>  (103) 
-38.366267

>  <cluster>  (103) 
3013

>  <merger_rank>  (103) 
3

>  <pication:ARG:29>  (103) 
0

>  <hbond:HIS:51>  (103) 
0

>  <pistack:HIS:51>  (103) 
1

>  <hydroph_interaction:TYR:161>  (103) 
1

>  <pication:HIS:51>  (103) 
0

>  <hydroph_interaction:ALA:132>  (103) 
0

>  <hydroph_interaction:TYR:150>  (103) 
0

>  <hydroph_interaction:LYS:54>  (103) 
0

>  <hbond:SER:135>  (103) 
2

>  <hydroph_interaction:HIS:51>  (103) 
1

>  <hbond:ASP:83>  (103) 
0

>  <hbond:ALA:132>  (103) 
0

>  <halogenbond:SER:81>  (103) 
0

>  <hbond:GLY:82>  (103) 
0

>  <saltbridge:HIS:51>  (103) 
0

>  <pistack:TYR:161>  (103) 
0

>  <hbond:SER:81>  (103) 
0

>  <hbond:ASN:152>  (103) 
0

>  <hbond:GLY:151>  (103) 
0

>  <hydroph_interaction:ASN:152>  (103) 
0

>  <hbond:TYR:161>  (103) 
1

>  <halogenbond:TYR:150>  (103) 
0

>  <hbond:ASP:75>  (103) 
0

>  <hbond:GLY:153>  (103) 
0

>  <hbond:VAL:36>  (103) 
0

>  <hbond:PRO:131>  (103) 
0

>  <hbond:VAL:52>  (103) 
0

>  <hydroph_interaction:ASP:83>  (103) 
0

>  <hydroph_interaction:MET:49>  (103) 
0

>  <hydroph_interaction:VAL:52>  (103) 
0

>  <saltbridge:ASP:83>  (103) 
0

>  <saltbridge:ASP:75>  (103) 
0

>  <hydroph_interaction:TRP:50>  (103) 
0

>  <hydroph_interaction:VAL:72>  (103) 
0

>  <hydroph_interaction:ASP:75>  (103) 
0

>  <halogenbond:ASN:152>  (103) 
0

>  <halogenbond:GLY:153>  (103) 
0

>  <halogenbond:TYR:130>  (103) 
0

>  <hbond:TYR:130>  (103) 
0

>  <halogenbond:ASP:75>  (103) 
0

>  <halogenbond:GLY:151>  (103) 
0

>  <hbond:TYR:150>  (103) 
0

>  <halogenbond:TYR:161>  (103) 
0

>  <hydroph_interaction:ASP:129>  (103) 
0

>  <hbond:ASP:129>  (103) 
0

>  <halogenbond:ALA:132>  (103) 
0

$$$$
Z3484613996
     RDKit          3D

 29 31  0  0  0  0  0  0  0  0999 V2000
   -9.0890    4.3880   -8.5210 C   0  0  0  0  0  0  0  0  0  0  0  0
   -9.1420    5.5920   -9.1510 O   0  0  0  0  0  0  0  0  0  0  0  0
   -8.9400    5.4920  -10.5030 C   0  0  0  0  0  0  0  0  0  0  0  0
   -9.3830    6.5860  -11.2120 C   0  0  0  0  0  0  0  0  0  0  0  0
   -9.2610    6.6550  -12.6070 C   0  0  0  0  0  0  0  0  0  0  0  0
   -8.6460    5.5480  -13.3840 C   0  0  0  0  0  0  0  0  0  0  0  0
   -8.4670    5.4840  -14.7490 C   0  0  0  0  0  0  0  0  0  0  0  0
   -9.7800    5.1530  -15.4480 C   0  0  0  0  0  0  0  0  0  0  0  0
   -9.5520    5.0800  -16.9180 C   0  0  0  0  0  0  0  0  0  0  0  0
   -8.3050    5.2960  -17.4200 C   0  0  0  0  0  0  0  0  0  0  0  0
   -7.9510    5.2550  -18.7790 C   0  0  0  0  0  0  0  0  0  0  0  0
   -6.6050    5.5320  -18.8030 C   0  0  0  0  0  0  0  0  0  0  0  0
   -6.1610    5.7350  -17.5010 N   0  0  0  0  0  0  0  0  0  0  0  0
   -7.2210    5.5870  -16.6350 C   0  0  0  0  0  0  0  0  0  0  0  0
   -7.2120    5.7030  -15.2910 N   0  0  0  0  0  0  0  0  0  0  0  0
   -8.2100    4.4500  -12.5980 C   0  0  0  0  0  0  0  0  0  0  0  0
   -8.3560    4.4240  -11.1960 C   0  0  0  0  0  0  0  0  0  0  0  0
   -9.5650    3.5600   -9.0590 H   0  0  0  0  0  0  0  0  0  0  0  0
   -9.5750    4.4540   -7.5420 H   0  0  0  0  0  0  0  0  0  0  0  0
   -8.0470    4.1160   -8.3380 H   0  0  0  0  0  0  0  0  0  0  0  0
   -9.8400    7.4170  -10.6820 H   0  0  0  0  0  0  0  0  0  0  0  0
   -9.5960    7.4970  -13.2270 H   0  0  0  0  0  0  0  0  0  0  0  0
  -10.7520    4.9820  -15.0160 H   0  0  0  0  0  0  0  0  0  0  0  0
  -10.3760    4.8520  -17.5900 H   0  0  0  0  0  0  0  0  0  0  0  0
   -8.5860    5.0520  -19.6320 H   0  0  0  0  0  0  0  0  0  0  0  0
   -5.9710    5.5890  -19.6800 H   0  0  0  0  0  0  0  0  0  0  0  0
   -5.2220    5.9550  -17.2070 H   0  0  0  0  0  0  0  0  0  0  0  0
   -7.7630    3.6370  -13.1570 H   0  0  0  0  0  0  0  0  0  0  0  0
   -8.0130    3.5700  -10.6230 H   0  0  0  0  0  0  0  0  0  0  0  0
  1  2  1  0
  2  3  1  0
  3  4  2  0
  4  5  1  0
  5  6  2  0
  6  7  1  0
  7  8  2  0
  8  9  1  0
  9 10  2  0
 10 11  1  0
 11 12  2  0
 12 13  1  0
 13 14  1  0
 14 15  2  0
  6 16  1  0
 16 17  2  0
 17  3  1  0
 15  7  1  0
 14 10  1  0
  1 18  1  0
  1 19  1  0
  1 20  1  0
  4 21  1  0
  5 22  1  0
  8 23  1  0
  9 24  1  0
 11 25  1  0
 12 26  1  0
 13 27  1  0
 16 28  1  0
 17 29  1  0
A    1
 C1 
A    2
 O1 
A    3
 C2 
A    4
 C3 
A    5
 C4 
A    6
 C5 
A    7
 C6 
A    8
 C7 
A    9
 C8 
A   10
 C9 
A   11
 C10
A   12
 C11
A   13
 N1 
A   14
 C12
A   15
 N2 
A   16
 C13
A   17
 C14
A   18
 H1 
A   19
 H2 
A   20
 H3 
A   21
 H4 
A   22
 H5 
A   23
 H6 
A   24
 H7 
A   25
 H8 
A   26
 H9 
A   27
 H10
A   28
 H11
A   29
 H12
M  END
>  <ref_pdb>  (104) 
x0051_0B

>  <ref_mols>  (104) 
x0404_0B,x0969_0B

>  <original SMILES>  (104) 
[H]c1c([H])c(-c2nc3c(c([H])c2[H])c([H])c([H])n3[H])c([H])c([H])c1OC([H])([H])[H]

>  <index>  (104) 
3236

>  <∆∆G>  (104) 
-6.790087

>  <comRMSD>  (104) 
0.154547

>  <N_constrained_atoms>  (104) 
17.0

>  <N_unconstrained_atoms>  (104) 
0.0

>  <LE>  (104) 
0.399417

>  <percent_hybrid>  (104) 
0.0

>  <max_hit_Tanimoto>  (104) 
0.335045

>  <largest_ring>  (104) 
6

>  <N_interactions_kept>  (104) 
0.0

>  <N_interactions_lost>  (104) 
0.0

>  <interaction_uniqueness_metric>  (104) 
0.095691

>  <N_HA>  (104) 
17

>  <N_rotatable_bonds>  (104) 
3

>  <N_interactions>  (104) 
5

>  <N_PAINS>  (104) 
0

>  <UFF_Gibbs>  (104) 
63.882354

>  <strain_per_HA>  (104) 
3.757763

>  <ad_hoc_penalty>  (104) 
-38.261355

>  <cluster>  (104) 
2562

>  <merger_rank>  (104) 
2

>  <pication:ARG:29>  (104) 
0

>  <hbond:HIS:51>  (104) 
0

>  <pistack:HIS:51>  (104) 
1

>  <hydroph_interaction:TYR:161>  (104) 
1

>  <pication:HIS:51>  (104) 
0

>  <hydroph_interaction:ALA:132>  (104) 
1

>  <hydroph_interaction:TYR:150>  (104) 
0

>  <hydroph_interaction:LYS:54>  (104) 
0

>  <hbond:SER:135>  (104) 
0

>  <hydroph_interaction:HIS:51>  (104) 
1

>  <hbond:ASP:83>  (104) 
0

>  <hbond:ALA:132>  (104) 
0

>  <halogenbond:SER:81>  (104) 
0

>  <hbond:GLY:82>  (104) 
0

>  <saltbridge:HIS:51>  (104) 
0

>  <pistack:TYR:161>  (104) 
1

>  <hbond:SER:81>  (104) 
0

>  <hbond:ASN:152>  (104) 
0

>  <hbond:GLY:151>  (104) 
0

>  <hydroph_interaction:ASN:152>  (104) 
0

>  <hbond:TYR:161>  (104) 
0

>  <halogenbond:TYR:150>  (104) 
0

>  <hbond:ASP:75>  (104) 
0

>  <hbond:GLY:153>  (104) 
0

>  <hbond:VAL:36>  (104) 
0

>  <hbond:PRO:131>  (104) 
0

>  <hbond:VAL:52>  (104) 
0

>  <hydroph_interaction:ASP:83>  (104) 
0

>  <hydroph_interaction:MET:49>  (104) 
0

>  <hydroph_interaction:VAL:52>  (104) 
0

>  <saltbridge:ASP:83>  (104) 
0

>  <saltbridge:ASP:75>  (104) 
0

>  <hydroph_interaction:TRP:50>  (104) 
0

>  <hydroph_interaction:VAL:72>  (104) 
0

>  <hydroph_interaction:ASP:75>  (104) 
0

>  <halogenbond:ASN:152>  (104) 
0

>  <halogenbond:GLY:153>  (104) 
0

>  <halogenbond:TYR:130>  (104) 
0

>  <hbond:TYR:130>  (104) 
0

>  <halogenbond:ASP:75>  (104) 
0

>  <halogenbond:GLY:151>  (104) 
0

>  <hbond:TYR:150>  (104) 
0

>  <halogenbond:TYR:161>  (104) 
0

>  <hydroph_interaction:ASP:129>  (104) 
0

>  <hbond:ASP:129>  (104) 
0

>  <halogenbond:ALA:132>  (104) 
0

$$$$
Z3484601777
     RDKit          3D

 28 30  0  0  0  0  0  0  0  0999 V2000
  -10.6240    3.5630   -6.3410 F   0  0  0  0  0  0  0  0  0  0  0  0
   -9.8410    4.4250   -5.6890 C   0  0  0  0  0  0  0  0  0  0  0  0
   -9.9240    4.3810   -4.2960 C   0  0  0  0  0  0  0  0  0  0  0  0
   -9.0940    5.3040   -3.5490 C   0  0  0  0  0  0  0  0  0  0  0  0
   -8.3080    6.1290   -4.3340 C   0  0  0  0  0  0  0  0  0  0  0  0
   -8.2750    6.1180   -5.7020 C   0  0  0  0  0  0  0  0  0  0  0  0
   -9.0050    5.3010   -6.4760 C   0  0  0  0  0  0  0  0  0  0  0  0
   -8.8880    5.3780   -7.9630 C   0  0  0  0  0  0  0  0  0  0  0  0
   -8.6480    6.6260   -8.5220 C   0  0  0  0  0  0  0  0  0  0  0  0
   -8.5080    6.7680  -10.0790 C   0  0  0  0  0  0  0  0  0  0  0  0
   -8.6520    5.5620  -10.7120 C   0  0  0  0  0  0  0  0  0  0  0  0
   -8.5290    5.6230  -12.0910 C   0  0  0  0  0  0  0  0  0  0  0  0
   -7.7860    6.4820  -12.7690 N   0  0  0  0  0  0  0  0  0  0  0  0
   -7.9760    6.1790  -14.0950 C   0  0  0  0  0  0  0  0  0  0  0  0
   -8.8360    5.1280  -14.2290 C   0  0  0  0  0  0  0  0  0  0  0  0
   -9.1810    4.7800  -12.9510 N   0  0  0  0  0  0  0  0  0  0  0  0
   -8.8890    4.3530  -10.1700 N   0  0  0  0  0  0  0  0  0  0  0  0
   -9.0010    4.2860   -8.8230 C   0  0  0  0  0  0  0  0  0  0  0  0
  -10.5810    3.6860   -3.8060 H   0  0  0  0  0  0  0  0  0  0  0  0
   -9.0810    5.3540   -2.4700 H   0  0  0  0  0  0  0  0  0  0  0  0
   -7.6730    6.8350   -3.8190 H   0  0  0  0  0  0  0  0  0  0  0  0
   -7.6020    6.8310   -6.1950 H   0  0  0  0  0  0  0  0  0  0  0  0
   -8.5570    7.4890   -7.8800 H   0  0  0  0  0  0  0  0  0  0  0  0
   -8.3210    7.6950  -10.6020 H   0  0  0  0  0  0  0  0  0  0  0  0
   -7.4800    6.7390  -14.8780 H   0  0  0  0  0  0  0  0  0  0  0  0
   -9.2220    4.6140  -15.0940 H   0  0  0  0  0  0  0  0  0  0  0  0
   -9.8040    4.0410  -12.6510 H   0  0  0  0  0  0  0  0  0  0  0  0
   -9.1890    3.2820   -8.4400 H   0  0  0  0  0  0  0  0  0  0  0  0
  1  2  1  0
  2  3  2  0
  3  4  1  0
  4  5  2  0
  5  6  1  0
  6  7  2  0
  7  8  1  0
  8  9  2  0
  9 10  1  0
 10 11  2  0
 11 12  1  0
 12 13  2  0
 13 14  1  0
 14 15  2  0
 15 16  1  0
 11 17  1  0
 17 18  2  0
  7  2  1  0
 18  8  1  0
 16 12  1  0
  3 19  1  0
  4 20  1  0
  5 21  1  0
  6 22  1  0
  9 23  1  0
 10 24  1  0
 14 25  1  0
 15 26  1  0
 16 27  1  0
 18 28  1  0
A    1
 F1 
A    2
 C1 
A    3
 C2 
A    4
 C3 
A    5
 C4 
A    6
 C5 
A    7
 C6 
A    8
 C7 
A    9
 C8 
A   10
 C9 
A   11
 C10
A   12
 C11
A   13
 N1 
A   14
 C12
A   15
 C13
A   16
 N2 
A   17
 N3 
A   18
 C14
A   19
 H1 
A   20
 H2 
A   21
 H3 
A   22
 H4 
A   23
 H5 
A   24
 H6 
A   25
 H7 
A   26
 H8 
A   27
 H9 
A   28
 H10
M  END
>  <ref_pdb>  (105) 
x0051_0B

>  <ref_mols>  (105) 
x0404_0B,x0969_0B

>  <original SMILES>  (105) 
[H]c1nc(-c2nc([H])c([H])n2[H])c([H])c([H])c1-c1c([H])c([H])c([H])c([H])c1F

>  <index>  (105) 
3828

>  <∆∆G>  (105) 
-2.028144

>  <comRMSD>  (105) 
0.591483

>  <N_constrained_atoms>  (105) 
12.0

>  <N_unconstrained_atoms>  (105) 
8.0

>  <LE>  (105) 
0.101407

>  <percent_hybrid>  (105) 
0.0

>  <max_hit_Tanimoto>  (105) 
0.278718

>  <largest_ring>  (105) 
6

>  <N_interactions_kept>  (105) 
0.0

>  <N_interactions_lost>  (105) 
0.0

>  <interaction_uniqueness_metric>  (105) 
0.880406

>  <N_HA>  (105) 
18

>  <N_rotatable_bonds>  (105) 
2

>  <N_interactions>  (105) 
5

>  <N_PAINS>  (105) 
0

>  <UFF_Gibbs>  (105) 
56.16014

>  <strain_per_HA>  (105) 
3.11999

>  <ad_hoc_penalty>  (105) 
-38.251289

>  <cluster>  (105) 
2178

>  <merger_rank>  (105) 
1

>  <pication:ARG:29>  (105) 
0

>  <hbond:HIS:51>  (105) 
1

>  <pistack:HIS:51>  (105) 
1

>  <hydroph_interaction:TYR:161>  (105) 
0

>  <pication:HIS:51>  (105) 
0

>  <hydroph_interaction:ALA:132>  (105) 
0

>  <hydroph_interaction:TYR:150>  (105) 
0

>  <hydroph_interaction:LYS:54>  (105) 
0

>  <hbond:SER:135>  (105) 
0

>  <hydroph_interaction:HIS:51>  (105) 
1

>  <hbond:ASP:83>  (105) 
0

>  <hbond:ALA:132>  (105) 
0

>  <halogenbond:SER:81>  (105) 
0

>  <hbond:GLY:82>  (105) 
0

>  <saltbridge:HIS:51>  (105) 
0

>  <pistack:TYR:161>  (105) 
0

>  <hbond:SER:81>  (105) 
0

>  <hbond:ASN:152>  (105) 
0

>  <hbond:GLY:151>  (105) 
0

>  <hydroph_interaction:ASN:152>  (105) 
0

>  <hbond:TYR:161>  (105) 
0

>  <halogenbond:TYR:150>  (105) 
0

>  <hbond:ASP:75>  (105) 
0

>  <hbond:GLY:153>  (105) 
0

>  <hbond:VAL:36>  (105) 
0

>  <hbond:PRO:131>  (105) 
0

>  <hbond:VAL:52>  (105) 
0

>  <hydroph_interaction:ASP:83>  (105) 
0

>  <hydroph_interaction:MET:49>  (105) 
0

>  <hydroph_interaction:VAL:52>  (105) 
0

>  <saltbridge:ASP:83>  (105) 
0

>  <saltbridge:ASP:75>  (105) 
0

>  <hydroph_interaction:TRP:50>  (105) 
1

>  <hydroph_interaction:VAL:72>  (105) 
0

>  <hydroph_interaction:ASP:75>  (105) 
0

>  <halogenbond:ASN:152>  (105) 
0

>  <halogenbond:GLY:153>  (105) 
0

>  <halogenbond:TYR:130>  (105) 
0

>  <hbond:TYR:130>  (105) 
0

>  <halogenbond:ASP:75>  (105) 
1

>  <halogenbond:GLY:151>  (105) 
0

>  <hbond:TYR:150>  (105) 
0

>  <halogenbond:TYR:161>  (105) 
0

>  <hydroph_interaction:ASP:129>  (105) 
0

>  <hbond:ASP:129>  (105) 
0

>  <halogenbond:ALA:132>  (105) 
0

$$$$
PV-003713088550
     RDKit          3D

 27 30  0  0  0  0  0  0  0  0999 V2000
   -9.8270    4.4130  -18.4670 F   0  0  0  0  0  0  0  0  0  0  0  0
   -8.7530    4.9080  -17.8380 C   0  0  0  0  0  0  0  0  0  0  0  0
   -7.3820    4.7610  -18.4970 C   0  0  0  0  0  0  0  0  0  0  0  0
   -6.2090    5.3610  -17.6820 C   0  0  0  0  0  0  0  0  0  0  0  0
   -6.4870    6.0230  -16.3680 C   0  0  0  0  0  0  0  0  0  0  0  0
   -7.7930    6.0830  -15.9200 C   0  0  0  0  0  0  0  0  0  0  0  0
   -8.8800    5.5560  -16.6040 C   0  0  0  0  0  0  0  0  0  0  0  0
   -9.9570    5.8620  -15.7660 N   0  0  0  0  0  0  0  0  0  0  0  0
   -9.5800    6.5190  -14.6790 C   0  0  0  0  0  0  0  0  0  0  0  0
  -10.5860    7.0820  -13.4170 S   0  0  0  0  0  0  0  0  0  0  0  0
   -9.9320    5.9950  -12.2960 C   0  0  0  0  0  0  0  0  0  0  0  0
   -8.8030    6.2450  -11.6700 N   0  0  0  0  0  0  0  0  0  0  0  0
   -8.4830    5.1980  -10.8570 C   0  0  0  0  0  0  0  0  0  0  0  0
   -7.3560    5.2290  -10.1200 N   0  0  0  0  0  0  0  0  0  0  0  0
   -7.1470    4.1400   -9.3680 C   0  0  0  0  0  0  0  0  0  0  0  0
   -8.0430    3.0080   -9.3300 C   0  0  0  0  0  0  0  0  0  0  0  0
   -9.1800    2.9940  -10.0830 C   0  0  0  0  0  0  0  0  0  0  0  0
   -9.3880    4.1280  -10.8590 C   0  0  0  0  0  0  0  0  0  0  0  0
  -10.6810    4.4920  -11.9290 S   0  0  0  0  0  0  0  0  0  0  0  0
   -8.2510    6.6600  -14.7550 N   0  0  0  0  0  0  0  0  0  0  0  0
   -7.2800    4.2700  -19.4510 H   0  0  0  0  0  0  0  0  0  0  0  0
   -5.2080    5.2720  -18.1140 H   0  0  0  0  0  0  0  0  0  0  0  0
   -5.6660    6.4460  -15.7990 H   0  0  0  0  0  0  0  0  0  0  0  0
   -6.2370    4.1470   -8.7670 H   0  0  0  0  0  0  0  0  0  0  0  0
   -7.8130    2.1520   -8.6970 H   0  0  0  0  0  0  0  0  0  0  0  0
   -9.8830    2.1760  -10.0900 H   0  0  0  0  0  0  0  0  0  0  0  0
   -7.6920    7.1280  -14.0500 H   0  0  0  0  0  0  0  0  0  0  0  0
  1  2  1  0
  2  3  2  0
  3  4  1  0
  4  5  2  0
  5  6  1  0
  6  7  2  0
  7  8  1  0
  8  9  2  0
  9 10  1  0
 10 11  1  0
 11 12  2  0
 12 13  1  0
 13 14  2  0
 14 15  1  0
 15 16  2  0
 16 17  1  0
 17 18  2  0
 18 19  1  0
  9 20  1  0
  7  2  1  0
 20  6  1  0
 19 11  1  0
 18 13  1  0
  3 21  1  0
  4 22  1  0
  5 23  1  0
 15 24  1  0
 16 25  1  0
 17 26  1  0
 20 27  1  0
A    1
 F1 
A    2
 C1 
A    3
 C2 
A    4
 C3 
A    5
 C4 
A    6
 C5 
A    7
 C6 
A    8
 N1 
A    9
 C7 
A   10
 S1 
A   11
 C8 
A   12
 N2 
A   13
 C9 
A   14
 N3 
A   15
 C10
A   16
 C11
A   17
 C12
A   18
 C13
A   19
 S2 
A   20
 N4 
A   21
 H1 
A   22
 H2 
A   23
 H3 
A   24
 H4 
A   25
 H5 
A   26
 H6 
A   27
 H7 
M  END
>  <ref_pdb>  (106) 
x0051_0B

>  <ref_mols>  (106) 
x0404_0B,x0969_0B

>  <original SMILES>  (106) 
[H]c1nc2nc(Sc3nc4c(F)c([H])c([H])c([H])c4n3[H])sc2c([H])c1[H]

>  <index>  (106) 
4066

>  <∆∆G>  (106) 
-6.063274

>  <comRMSD>  (106) 
0.261458

>  <N_constrained_atoms>  (106) 
19.0

>  <N_unconstrained_atoms>  (106) 
1.0

>  <LE>  (106) 
0.303164

>  <percent_hybrid>  (106) 
0.0

>  <max_hit_Tanimoto>  (106) 
0.722603

>  <largest_ring>  (106) 
6

>  <N_interactions_kept>  (106) 
0.0

>  <N_interactions_lost>  (106) 
0.0

>  <interaction_uniqueness_metric>  (106) 
0.236677

>  <N_HA>  (106) 
20

>  <N_rotatable_bonds>  (106) 
2

>  <N_interactions>  (106) 
4

>  <N_PAINS>  (106) 
0

>  <UFF_Gibbs>  (106) 
55.661201

>  <strain_per_HA>  (106) 
2.783046

>  <ad_hoc_penalty>  (106) 
-38.162919

>  <cluster>  (106) 
2005

>  <merger_rank>  (106) 
3

>  <pication:ARG:29>  (106) 
0

>  <hbond:HIS:51>  (106) 
0

>  <pistack:HIS:51>  (106) 
0

>  <hydroph_interaction:TYR:161>  (106) 
0

>  <pication:HIS:51>  (106) 
1

>  <hydroph_interaction:ALA:132>  (106) 
0

>  <hydroph_interaction:TYR:150>  (106) 
0

>  <hydroph_interaction:LYS:54>  (106) 
0

>  <hbond:SER:135>  (106) 
1

>  <hydroph_interaction:HIS:51>  (106) 
0

>  <hbond:ASP:83>  (106) 
0

>  <hbond:ALA:132>  (106) 
0

>  <halogenbond:SER:81>  (106) 
0

>  <hbond:GLY:82>  (106) 
0

>  <saltbridge:HIS:51>  (106) 
0

>  <pistack:TYR:161>  (106) 
1

>  <hbond:SER:81>  (106) 
0

>  <hbond:ASN:152>  (106) 
0

>  <hbond:GLY:151>  (106) 
0

>  <hydroph_interaction:ASN:152>  (106) 
0

>  <hbond:TYR:161>  (106) 
0

>  <halogenbond:TYR:150>  (106) 
0

>  <hbond:ASP:75>  (106) 
0

>  <hbond:GLY:153>  (106) 
0

>  <hbond:VAL:36>  (106) 
0

>  <hbond:PRO:131>  (106) 
0

>  <hbond:VAL:52>  (106) 
0

>  <hydroph_interaction:ASP:83>  (106) 
1

>  <hydroph_interaction:MET:49>  (106) 
0

>  <hydroph_interaction:VAL:52>  (106) 
0

>  <saltbridge:ASP:83>  (106) 
0

>  <saltbridge:ASP:75>  (106) 
0

>  <hydroph_interaction:TRP:50>  (106) 
0

>  <hydroph_interaction:VAL:72>  (106) 
0

>  <hydroph_interaction:ASP:75>  (106) 
0

>  <halogenbond:ASN:152>  (106) 
0

>  <halogenbond:GLY:153>  (106) 
0

>  <halogenbond:TYR:130>  (106) 
0

>  <hbond:TYR:130>  (106) 
0

>  <halogenbond:ASP:75>  (106) 
0

>  <halogenbond:GLY:151>  (106) 
0

>  <hbond:TYR:150>  (106) 
0

>  <halogenbond:TYR:161>  (106) 
0

>  <hydroph_interaction:ASP:129>  (106) 
0

>  <hbond:ASP:129>  (106) 
0

>  <halogenbond:ALA:132>  (106) 
0

$$$$
Z605671988
     RDKit          3D

 29 31  0  0  0  0  0  0  0  0999 V2000
   -7.6610    7.1190  -15.0920 O   0  0  0  0  0  0  0  0  0  0  0  0
   -7.9570    5.9780  -15.4330 C   0  0  0  0  0  0  0  0  0  0  0  0
   -8.3840    5.0210  -14.5600 N   0  0  0  0  0  0  0  0  0  0  0  0
   -8.6090    5.4190  -13.2900 C   0  0  0  0  0  0  0  0  0  0  0  0
   -8.7760    6.8530  -13.0170 C   0  0  0  0  0  0  0  0  0  0  0  0
   -8.9990    7.5180  -11.8370 C   0  0  0  0  0  0  0  0  0  0  0  0
   -9.0820    6.6660  -10.6880 C   0  0  0  0  0  0  0  0  0  0  0  0
   -8.9310    5.2840  -10.9280 C   0  0  0  0  0  0  0  0  0  0  0  0
   -9.0590    4.5450   -9.5930 C   0  0  0  0  0  0  0  0  0  0  0  0
   -9.4020    3.1040   -9.5590 C   0  0  0  0  0  0  0  0  0  0  0  0
   -9.4490    2.7640   -8.2830 N   0  0  0  0  0  0  0  0  0  0  0  0
   -9.1470    3.9240   -7.6330 C   0  0  0  0  0  0  0  0  0  0  0  0
   -8.9010    5.0580   -8.3500 O   0  0  0  0  0  0  0  0  0  0  0  0
   -8.7060    4.6500  -12.1460 C   0  0  0  0  0  0  0  0  0  0  0  0
   -7.8430    5.6420  -16.8280 C   0  0  0  0  0  0  0  0  0  0  0  0
   -8.7500    4.9210  -17.5400 C   0  0  0  0  0  0  0  0  0  0  0  0
   -8.3960    4.7640  -18.8320 O   0  0  0  0  0  0  0  0  0  0  0  0
   -7.2090    5.4100  -18.9680 C   0  0  0  0  0  0  0  0  0  0  0  0
   -6.8240    5.9640  -17.7710 C   0  0  0  0  0  0  0  0  0  0  0  0
   -8.9500    4.2190  -14.8390 H   0  0  0  0  0  0  0  0  0  0  0  0
   -8.7140    7.5030  -13.8780 H   0  0  0  0  0  0  0  0  0  0  0  0
   -9.1000    8.5940  -11.7930 H   0  0  0  0  0  0  0  0  0  0  0  0
   -9.2540    7.0480   -9.6930 H   0  0  0  0  0  0  0  0  0  0  0  0
   -9.6010    2.3730  -10.3270 H   0  0  0  0  0  0  0  0  0  0  0  0
   -9.1040    3.9430   -6.5510 H   0  0  0  0  0  0  0  0  0  0  0  0
   -8.6070    3.5730  -12.1890 H   0  0  0  0  0  0  0  0  0  0  0  0
   -9.6760    4.4950  -17.1620 H   0  0  0  0  0  0  0  0  0  0  0  0
   -6.7750    5.3830  -19.9630 H   0  0  0  0  0  0  0  0  0  0  0  0
   -5.9170    6.5290  -17.6210 H   0  0  0  0  0  0  0  0  0  0  0  0
  1  2  2  0
  2  3  1  0
  3  4  1  0
  4  5  2  0
  5  6  1  0
  6  7  2  0
  7  8  1  0
  8  9  1  0
  9 10  2  0
 10 11  1  0
 11 12  2  0
 12 13  1  0
  8 14  2  0
  2 15  1  0
 15 16  2  0
 16 17  1  0
 17 18  1  0
 18 19  2  0
 14  4  1  0
 13  9  1  0
 19 15  1  0
  3 20  1  0
  5 21  1  0
  6 22  1  0
  7 23  1  0
 10 24  1  0
 12 25  1  0
 14 26  1  0
 16 27  1  0
 18 28  1  0
 19 29  1  0
A    1
 O1 
A    2
 C1 
A    3
 N1 
A    4
 C2 
A    5
 C3 
A    6
 C4 
A    7
 C5 
A    8
 C6 
A    9
 C7 
A   10
 C8 
A   11
 N2 
A   12
 C9 
A   13
 O2 
A   14
 C10
A   15
 C11
A   16
 C12
A   17
 O3 
A   18
 C13
A   19
 C14
A   20
 H1 
A   21
 H2 
A   22
 H3 
A   23
 H4 
A   24
 H5 
A   25
 H6 
A   26
 H7 
A   27
 H8 
A   28
 H9 
A   29
 H10
M  END
>  <ref_pdb>  (107) 
x0051_0B

>  <ref_mols>  (107) 
x0404_0B,x0969_0B

>  <original SMILES>  (107) 
[H]c1nc([H])c(-c2c([H])c([H])c([H])c(N([H])C(=O)c3c([H])oc([H])c3[H])c2[H])o1

>  <index>  (107) 
2715

>  <∆∆G>  (107) 
-5.166413

>  <comRMSD>  (107) 
0.382674

>  <N_constrained_atoms>  (107) 
19.0

>  <N_unconstrained_atoms>  (107) 
0.0

>  <LE>  (107) 
0.271916

>  <percent_hybrid>  (107) 
0.0

>  <max_hit_Tanimoto>  (107) 
0.267112

>  <largest_ring>  (107) 
6

>  <N_interactions_kept>  (107) 
0.0

>  <N_interactions_lost>  (107) 
0.0

>  <interaction_uniqueness_metric>  (107) 
0.192187

>  <N_HA>  (107) 
19

>  <N_rotatable_bonds>  (107) 
3

>  <N_interactions>  (107) 
7

>  <N_PAINS>  (107) 
0

>  <UFF_Gibbs>  (107) 
216.928779

>  <strain_per_HA>  (107) 
11.417244

>  <ad_hoc_penalty>  (107) 
-37.992837

>  <cluster>  (107) 
2868

>  <merger_rank>  (107) 
2

>  <pication:ARG:29>  (107) 
0

>  <hbond:HIS:51>  (107) 
1

>  <pistack:HIS:51>  (107) 
1

>  <hydroph_interaction:TYR:161>  (107) 
1

>  <pication:HIS:51>  (107) 
0

>  <hydroph_interaction:ALA:132>  (107) 
1

>  <hydroph_interaction:TYR:150>  (107) 
0

>  <hydroph_interaction:LYS:54>  (107) 
0

>  <hbond:SER:135>  (107) 
0

>  <hydroph_interaction:HIS:51>  (107) 
1

>  <hbond:ASP:83>  (107) 
0

>  <hbond:ALA:132>  (107) 
0

>  <halogenbond:SER:81>  (107) 
0

>  <hbond:GLY:82>  (107) 
0

>  <saltbridge:HIS:51>  (107) 
0

>  <pistack:TYR:161>  (107) 
0

>  <hbond:SER:81>  (107) 
0

>  <hbond:ASN:152>  (107) 
0

>  <hbond:GLY:151>  (107) 
1

>  <hydroph_interaction:ASN:152>  (107) 
0

>  <hbond:TYR:161>  (107) 
1

>  <halogenbond:TYR:150>  (107) 
0

>  <hbond:ASP:75>  (107) 
0

>  <hbond:GLY:153>  (107) 
0

>  <hbond:VAL:36>  (107) 
0

>  <hbond:PRO:131>  (107) 
0

>  <hbond:VAL:52>  (107) 
0

>  <hydroph_interaction:ASP:83>  (107) 
0

>  <hydroph_interaction:MET:49>  (107) 
0

>  <hydroph_interaction:VAL:52>  (107) 
0

>  <saltbridge:ASP:83>  (107) 
0

>  <saltbridge:ASP:75>  (107) 
0

>  <hydroph_interaction:TRP:50>  (107) 
0

>  <hydroph_interaction:VAL:72>  (107) 
0

>  <hydroph_interaction:ASP:75>  (107) 
0

>  <halogenbond:ASN:152>  (107) 
0

>  <halogenbond:GLY:153>  (107) 
0

>  <halogenbond:TYR:130>  (107) 
0

>  <hbond:TYR:130>  (107) 
0

>  <halogenbond:ASP:75>  (107) 
0

>  <halogenbond:GLY:151>  (107) 
0

>  <hbond:TYR:150>  (107) 
0

>  <halogenbond:TYR:161>  (107) 
0

>  <hydroph_interaction:ASP:129>  (107) 
0

>  <hbond:ASP:129>  (107) 
0

>  <halogenbond:ALA:132>  (107) 
0

$$$$
Z2903065650
     RDKit          3D

 31 33  0  0  0  0  0  0  0  0999 V2000
  -12.0310    7.6050  -11.8250 C   0  0  0  0  0  0  0  0  0  0  0  0
  -10.3200    7.5940  -11.2050 S   0  0  0  0  0  0  0  0  0  0  0  0
   -9.6690    6.0530  -11.9700 C   0  0  0  0  0  0  0  0  0  0  0  0
   -8.8000    5.2170  -11.0860 C   0  0  0  0  0  0  0  0  0  0  0  0
   -9.3650    4.1070  -10.4480 C   0  0  0  0  0  0  0  0  0  0  0  0
   -8.5880    3.2220   -9.5740 C   0  0  0  0  0  0  0  0  0  0  0  0
   -7.2430    3.5180   -9.3820 C   0  0  0  0  0  0  0  0  0  0  0  0
   -6.7110    4.6290  -10.0320 C   0  0  0  0  0  0  0  0  0  0  0  0
   -7.4540    5.4430  -10.8500 C   0  0  0  0  0  0  0  0  0  0  0  0
   -8.9510    6.3250  -13.1720 C   0  0  0  0  0  0  0  0  0  0  0  0
   -8.8920    5.5320  -14.3940 N   0  0  0  0  0  0  0  0  0  0  0  0
   -8.0570    6.3050  -15.1470 C   0  0  0  0  0  0  0  0  0  0  0  0
   -7.6750    5.9540  -16.4650 C   0  0  0  0  0  0  0  0  0  0  0  0
   -8.5810    5.1930  -17.1430 C   0  0  0  0  0  0  0  0  0  0  0  0
   -7.9970    4.9860  -18.4200 C   0  0  0  0  0  0  0  0  0  0  0  0
   -6.7790    5.6410  -18.4020 C   0  0  0  0  0  0  0  0  0  0  0  0
   -6.5720    6.2430  -17.1990 O   0  0  0  0  0  0  0  0  0  0  0  0
   -7.6160    7.4360  -14.5420 N   0  0  0  0  0  0  0  0  0  0  0  0
   -8.1960    7.4560  -13.2640 O   0  0  0  0  0  0  0  0  0  0  0  0
  -12.0020    7.6840  -12.9150 H   0  0  0  0  0  0  0  0  0  0  0  0
  -12.5840    8.4640  -11.4360 H   0  0  0  0  0  0  0  0  0  0  0  0
  -12.5840    6.6950  -11.5640 H   0  0  0  0  0  0  0  0  0  0  0  0
  -10.5400    5.4630  -12.2760 H   0  0  0  0  0  0  0  0  0  0  0  0
  -10.4150    3.7950  -10.5330 H   0  0  0  0  0  0  0  0  0  0  0  0
   -9.0540    2.3670   -9.0960 H   0  0  0  0  0  0  0  0  0  0  0  0
   -6.5870    2.9330   -8.7550 H   0  0  0  0  0  0  0  0  0  0  0  0
   -5.6630    4.8560   -9.8870 H   0  0  0  0  0  0  0  0  0  0  0  0
   -6.8890    6.2710  -11.2860 H   0  0  0  0  0  0  0  0  0  0  0  0
   -9.5330    4.8330  -16.7730 H   0  0  0  0  0  0  0  0  0  0  0  0
   -8.4110    4.4300  -19.2520 H   0  0  0  0  0  0  0  0  0  0  0  0
   -5.9870    5.7630  -19.1280 H   0  0  0  0  0  0  0  0  0  0  0  0
  1  2  1  0
  2  3  1  0
  3  4  1  0
  4  5  2  0
  5  6  1  0
  6  7  2  0
  7  8  1  0
  8  9  2  0
  3 10  1  0
 10 11  2  0
 11 12  1  0
 12 13  1  0
 13 14  2  0
 14 15  1  0
 15 16  2  0
 16 17  1  0
 12 18  2  0
 18 19  1  0
  9  4  1  0
 19 10  1  0
 17 13  1  0
  1 20  1  0
  1 21  1  0
  1 22  1  0
  3 23  1  0
  5 24  1  0
  6 25  1  0
  7 26  1  0
  8 27  1  0
  9 28  1  0
 14 29  1  0
 15 30  1  0
 16 31  1  0
A    1
 C1 
A    2
 S1 
A    3
 C2 
A    4
 C3 
A    5
 C4 
A    6
 C5 
A    7
 C6 
A    8
 C7 
A    9
 C8 
A   10
 C9 
A   11
 N1 
A   12
 C10
A   13
 C11
A   14
 C12
A   15
 C13
A   16
 C14
A   17
 O1 
A   18
 N2 
A   19
 O2 
A   20
 H1 
A   21
 H2 
A   22
 H3 
A   23
 H4 
A   24
 H5 
A   25
 H6 
A   26
 H7 
A   27
 H8 
A   28
 H9 
A   29
 H10
A   30
 H11
A   31
 H12
M  END
>  <ref_pdb>  (108) 
x0051_0B

>  <ref_mols>  (108) 
x0404_0B,x0969_0B

>  <original SMILES>  (108) 
[H]c1oc(-c2noc(C([H])(SC([H])([H])[H])c3c([H])c([H])c([H])c([H])c3[H])n2)c([H])c1[H]

>  <index>  (108) 
2236

>  <∆∆G>  (108) 
-5.953651

>  <comRMSD>  (108) 
0.33496

>  <N_constrained_atoms>  (108) 
18.0

>  <N_unconstrained_atoms>  (108) 
1.0

>  <LE>  (108) 
0.31335

>  <percent_hybrid>  (108) 
0.0

>  <max_hit_Tanimoto>  (108) 
0.327209

>  <largest_ring>  (108) 
6

>  <N_interactions_kept>  (108) 
0.0

>  <N_interactions_lost>  (108) 
0.0

>  <interaction_uniqueness_metric>  (108) 
0.222992

>  <N_HA>  (108) 
19

>  <N_rotatable_bonds>  (108) 
5

>  <N_interactions>  (108) 
6

>  <N_PAINS>  (108) 
0

>  <UFF_Gibbs>  (108) 
55.975631

>  <strain_per_HA>  (108) 
2.94607

>  <ad_hoc_penalty>  (108) 
-37.801934

>  <cluster>  (108) 
3188

>  <merger_rank>  (108) 
1

>  <pication:ARG:29>  (108) 
0

>  <hbond:HIS:51>  (108) 
0

>  <pistack:HIS:51>  (108) 
0

>  <hydroph_interaction:TYR:161>  (108) 
2

>  <pication:HIS:51>  (108) 
0

>  <hydroph_interaction:ALA:132>  (108) 
1

>  <hydroph_interaction:TYR:150>  (108) 
0

>  <hydroph_interaction:LYS:54>  (108) 
0

>  <hbond:SER:135>  (108) 
1

>  <hydroph_interaction:HIS:51>  (108) 
1

>  <hbond:ASP:83>  (108) 
0

>  <hbond:ALA:132>  (108) 
0

>  <halogenbond:SER:81>  (108) 
0

>  <hbond:GLY:82>  (108) 
0

>  <saltbridge:HIS:51>  (108) 
0

>  <pistack:TYR:161>  (108) 
0

>  <hbond:SER:81>  (108) 
0

>  <hbond:ASN:152>  (108) 
0

>  <hbond:GLY:151>  (108) 
0

>  <hydroph_interaction:ASN:152>  (108) 
0

>  <hbond:TYR:161>  (108) 
0

>  <halogenbond:TYR:150>  (108) 
0

>  <hbond:ASP:75>  (108) 
0

>  <hbond:GLY:153>  (108) 
0

>  <hbond:VAL:36>  (108) 
0

>  <hbond:PRO:131>  (108) 
0

>  <hbond:VAL:52>  (108) 
0

>  <hydroph_interaction:ASP:83>  (108) 
1

>  <hydroph_interaction:MET:49>  (108) 
0

>  <hydroph_interaction:VAL:52>  (108) 
0

>  <saltbridge:ASP:83>  (108) 
0

>  <saltbridge:ASP:75>  (108) 
0

>  <hydroph_interaction:TRP:50>  (108) 
0

>  <hydroph_interaction:VAL:72>  (108) 
0

>  <hydroph_interaction:ASP:75>  (108) 
0

>  <halogenbond:ASN:152>  (108) 
0

>  <halogenbond:GLY:153>  (108) 
0

>  <halogenbond:TYR:130>  (108) 
0

>  <hbond:TYR:130>  (108) 
0

>  <halogenbond:ASP:75>  (108) 
0

>  <halogenbond:GLY:151>  (108) 
0

>  <hbond:TYR:150>  (108) 
0

>  <halogenbond:TYR:161>  (108) 
0

>  <hydroph_interaction:ASP:129>  (108) 
0

>  <hbond:ASP:129>  (108) 
0

>  <halogenbond:ALA:132>  (108) 
0

$$$$
Z1618990609
     RDKit          3D

 29 31  0  0  0  0  0  0  0  0999 V2000
   -9.0440    2.5180   -9.7150 C   0  0  0  0  0  0  0  0  0  0  0  0
   -9.0610    3.8270  -10.4660 C   0  0  0  0  0  0  0  0  0  0  0  0
   -8.8140    5.0960   -9.7820 C   0  0  0  0  0  0  0  0  0  0  0  0
   -8.9030    6.2130  -10.5620 C   0  0  0  0  0  0  0  0  0  0  0  0
   -9.2290    5.7980  -11.8950 C   0  0  0  0  0  0  0  0  0  0  0  0
   -9.4090    6.8330  -12.8710 C   0  0  0  0  0  0  0  0  0  0  0  0
  -10.6230    7.0820  -13.4350 O   0  0  0  0  0  0  0  0  0  0  0  0
   -8.2050    7.5250  -13.1250 N   0  0  0  0  0  0  0  0  0  0  0  0
   -7.5060    7.2040  -14.2390 C   0  0  0  0  0  0  0  0  0  0  0  0
   -6.2270    7.6890  -14.3680 C   0  0  0  0  0  0  0  0  0  0  0  0
   -5.4390    7.2320  -15.8020 S   0  0  0  0  0  0  0  0  0  0  0  0
   -6.8330    6.3520  -16.3030 C   0  0  0  0  0  0  0  0  0  0  0  0
   -6.8240    5.6890  -17.5250 C   0  0  0  0  0  0  0  0  0  0  0  0
   -8.0470    4.9950  -17.8350 C   0  0  0  0  0  0  0  0  0  0  0  0
   -9.0830    5.0330  -16.9330 C   0  0  0  0  0  0  0  0  0  0  0  0
   -9.1630    5.6670  -15.7010 C   0  0  0  0  0  0  0  0  0  0  0  0
   -7.8920    6.4040  -15.3710 C   0  0  0  0  0  0  0  0  0  0  0  0
   -9.3680    4.0760  -12.1240 S   0  0  0  0  0  0  0  0  0  0  0  0
   -8.7360    2.6530   -8.6750 H   0  0  0  0  0  0  0  0  0  0  0  0
  -10.0510    2.1020   -9.6920 H   0  0  0  0  0  0  0  0  0  0  0  0
   -8.3820    1.7950  -10.1990 H   0  0  0  0  0  0  0  0  0  0  0  0
   -8.5850    5.1610   -8.7220 H   0  0  0  0  0  0  0  0  0  0  0  0
   -8.7540    7.2220  -10.1830 H   0  0  0  0  0  0  0  0  0  0  0  0
   -7.6470    7.7760  -12.3160 H   0  0  0  0  0  0  0  0  0  0  0  0
   -5.7280    8.3150  -13.6350 H   0  0  0  0  0  0  0  0  0  0  0  0
   -6.0230    5.6410  -18.2500 H   0  0  0  0  0  0  0  0  0  0  0  0
   -8.1710    4.4430  -18.7610 H   0  0  0  0  0  0  0  0  0  0  0  0
   -9.9840    4.4830  -17.2240 H   0  0  0  0  0  0  0  0  0  0  0  0
  -10.0900    5.5760  -15.1260 H   0  0  0  0  0  0  0  0  0  0  0  0
  1  2  1  0
  2  3  2  0
  3  4  1  0
  4  5  2  0
  5  6  1  0
  6  7  2  0
  6  8  1  0
  8  9  1  0
  9 10  2  0
 10 11  1  0
 11 12  1  0
 12 13  2  0
 13 14  1  0
 14 15  2  0
 15 16  1  0
 16 17  2  0
  5 18  1  0
 18  2  1  0
 17  9  1  0
 17 12  1  0
  1 19  1  0
  1 20  1  0
  1 21  1  0
  3 22  1  0
  4 23  1  0
  8 24  1  0
 10 25  1  0
 13 26  1  0
 14 27  1  0
 15 28  1  0
 16 29  1  0
A    1
 C1 
A    2
 C2 
A    3
 C3 
A    4
 C4 
A    5
 C5 
A    6
 C6 
A    7
 O1 
A    8
 N1 
A    9
 C7 
A   10
 C8 
A   11
 S1 
A   12
 C9 
A   13
 C10
A   14
 C11
A   15
 C12
A   16
 C13
A   17
 C14
A   18
 S2 
A   19
 H1 
A   20
 H2 
A   21
 H3 
A   22
 H4 
A   23
 H5 
A   24
 H6 
A   25
 H7 
A   26
 H8 
A   27
 H9 
A   28
 H10
A   29
 H11
M  END
>  <ref_pdb>  (109) 
x0051_0B

>  <ref_mols>  (109) 
x0404_0B,x0969_0B

>  <original SMILES>  (109) 
[H]c1sc2c([H])c([H])c([H])c([H])c2c1N([H])C(=O)c1sc(C([H])([H])[H])c([H])c1[H]

>  <index>  (109) 
5837

>  <∆∆G>  (109) 
-6.634667

>  <comRMSD>  (109) 
0.427642

>  <N_constrained_atoms>  (109) 
18.0

>  <N_unconstrained_atoms>  (109) 
0.0

>  <LE>  (109) 
0.368593

>  <percent_hybrid>  (109) 
0.0

>  <max_hit_Tanimoto>  (109) 
0.253076

>  <largest_ring>  (109) 
6

>  <N_interactions_kept>  (109) 
0.0

>  <N_interactions_lost>  (109) 
0.0

>  <interaction_uniqueness_metric>  (109) 
0.101301

>  <N_HA>  (109) 
18

>  <N_rotatable_bonds>  (109) 
3

>  <N_interactions>  (109) 
5

>  <N_PAINS>  (109) 
0

>  <UFF_Gibbs>  (109) 
72.22461

>  <strain_per_HA>  (109) 
4.012456

>  <ad_hoc_penalty>  (109) 
-37.77064

>  <cluster>  (109) 
862

>  <merger_rank>  (109) 
2

>  <pication:ARG:29>  (109) 
0

>  <hbond:HIS:51>  (109) 
0

>  <pistack:HIS:51>  (109) 
1

>  <hydroph_interaction:TYR:161>  (109) 
1

>  <pication:HIS:51>  (109) 
0

>  <hydroph_interaction:ALA:132>  (109) 
1

>  <hydroph_interaction:TYR:150>  (109) 
0

>  <hydroph_interaction:LYS:54>  (109) 
0

>  <hbond:SER:135>  (109) 
1

>  <hydroph_interaction:HIS:51>  (109) 
1

>  <hbond:ASP:83>  (109) 
0

>  <hbond:ALA:132>  (109) 
0

>  <halogenbond:SER:81>  (109) 
0

>  <hbond:GLY:82>  (109) 
0

>  <saltbridge:HIS:51>  (109) 
0

>  <pistack:TYR:161>  (109) 
0

>  <hbond:SER:81>  (109) 
0

>  <hbond:ASN:152>  (109) 
0

>  <hbond:GLY:151>  (109) 
0

>  <hydroph_interaction:ASN:152>  (109) 
0

>  <hbond:TYR:161>  (109) 
0

>  <halogenbond:TYR:150>  (109) 
0

>  <hbond:ASP:75>  (109) 
0

>  <hbond:GLY:153>  (109) 
0

>  <hbond:VAL:36>  (109) 
0

>  <hbond:PRO:131>  (109) 
0

>  <hbond:VAL:52>  (109) 
0

>  <hydroph_interaction:ASP:83>  (109) 
0

>  <hydroph_interaction:MET:49>  (109) 
0

>  <hydroph_interaction:VAL:52>  (109) 
0

>  <saltbridge:ASP:83>  (109) 
0

>  <saltbridge:ASP:75>  (109) 
0

>  <hydroph_interaction:TRP:50>  (109) 
0

>  <hydroph_interaction:VAL:72>  (109) 
0

>  <hydroph_interaction:ASP:75>  (109) 
0

>  <halogenbond:ASN:152>  (109) 
0

>  <halogenbond:GLY:153>  (109) 
0

>  <halogenbond:TYR:130>  (109) 
0

>  <hbond:TYR:130>  (109) 
0

>  <halogenbond:ASP:75>  (109) 
0

>  <halogenbond:GLY:151>  (109) 
0

>  <hbond:TYR:150>  (109) 
0

>  <halogenbond:TYR:161>  (109) 
0

>  <hydroph_interaction:ASP:129>  (109) 
0

>  <hbond:ASP:129>  (109) 
0

>  <halogenbond:ALA:132>  (109) 
0

$$$$
Z648992060
     RDKit          3D

 26 28  0  0  0  0  0  0  0  0999 V2000
   -9.9450    5.3060  -15.2780 O   0  0  0  0  0  0  0  0  0  0  0  0
   -8.8640    5.7920  -15.5910 C   0  0  0  0  0  0  0  0  0  0  0  0
   -8.1820    6.5930  -14.8200 N   0  0  0  0  0  0  0  0  0  0  0  0
   -8.4850    6.6040  -13.5070 C   0  0  0  0  0  0  0  0  0  0  0  0
   -8.8240    7.6460  -12.7300 N   0  0  0  0  0  0  0  0  0  0  0  0
   -9.0320    7.1830  -11.4810 N   0  0  0  0  0  0  0  0  0  0  0  0
   -8.8280    5.8770  -11.4710 C   0  0  0  0  0  0  0  0  0  0  0  0
   -8.9420    4.9850  -10.3560 C   0  0  0  0  0  0  0  0  0  0  0  0
   -9.1960    3.6190  -10.2530 C   0  0  0  0  0  0  0  0  0  0  0  0
   -9.2280    3.1510   -8.8400 C   0  0  0  0  0  0  0  0  0  0  0  0
   -8.9890    4.2120   -7.9620 C   0  0  0  0  0  0  0  0  0  0  0  0
   -8.7250    5.7680   -8.8600 S   0  0  0  0  0  0  0  0  0  0  0  0
   -8.4810    5.4780  -12.7300 N   0  0  0  0  0  0  0  0  0  0  0  0
   -8.3430    5.4990  -16.8330 C   0  0  0  0  0  0  0  0  0  0  0  0
   -7.0060    5.7070  -17.2070 C   0  0  0  0  0  0  0  0  0  0  0  0
   -6.9250    5.2790  -18.5670 C   0  0  0  0  0  0  0  0  0  0  0  0
   -8.1980    4.8740  -18.8260 C   0  0  0  0  0  0  0  0  0  0  0  0
   -9.1070    4.9690  -17.8450 O   0  0  0  0  0  0  0  0  0  0  0  0
   -7.9010    7.4670  -15.2520 H   0  0  0  0  0  0  0  0  0  0  0  0
   -9.3610    2.9360  -11.0700 H   0  0  0  0  0  0  0  0  0  0  0  0
   -9.4120    2.1240   -8.5510 H   0  0  0  0  0  0  0  0  0  0  0  0
   -8.9380    4.2420   -6.8860 H   0  0  0  0  0  0  0  0  0  0  0  0
   -8.2680    4.5410  -13.0190 H   0  0  0  0  0  0  0  0  0  0  0  0
   -6.1610    6.1020  -16.6590 H   0  0  0  0  0  0  0  0  0  0  0  0
   -6.0610    5.2810  -19.2190 H   0  0  0  0  0  0  0  0  0  0  0  0
   -8.5590    4.4750  -19.7670 H   0  0  0  0  0  0  0  0  0  0  0  0
  1  2  2  0
  2  3  1  0
  3  4  1  0
  4  5  2  0
  5  6  1  0
  6  7  2  0
  7  8  1  0
  8  9  2  0
  9 10  1  0
 10 11  2  0
 11 12  1  0
  7 13  1  0
  2 14  1  0
 14 15  2  0
 15 16  1  0
 16 17  2  0
 17 18  1  0
 13  4  1  0
 12  8  1  0
 18 14  1  0
  3 19  1  0
  9 20  1  0
 10 21  1  0
 11 22  1  0
 13 23  1  0
 15 24  1  0
 16 25  1  0
 17 26  1  0
A    1
 O1 
A    2
 C1 
A    3
 N1 
A    4
 C2 
A    5
 N2 
A    6
 N3 
A    7
 C3 
A    8
 C4 
A    9
 C5 
A   10
 C6 
A   11
 C7 
A   12
 S1 
A   13
 N4 
A   14
 C8 
A   15
 C9 
A   16
 C10
A   17
 C11
A   18
 O2 
A   19
 H1 
A   20
 H2 
A   21
 H3 
A   22
 H4 
A   23
 H5 
A   24
 H6 
A   25
 H7 
A   26
 H8 
M  END
>  <ref_pdb>  (110) 
x0051_0B

>  <ref_mols>  (110) 
x0404_0B,x0969_0B

>  <original SMILES>  (110) 
[H]c1oc(C(=O)N([H])c2nnc(-c3sc([H])c([H])c3[H])n2[H])c([H])c1[H]

>  <index>  (110) 
5394

>  <∆∆G>  (110) 
-4.757965

>  <comRMSD>  (110) 
0.280915

>  <N_constrained_atoms>  (110) 
19.0

>  <N_unconstrained_atoms>  (110) 
0.0

>  <LE>  (110) 
0.250419

>  <percent_hybrid>  (110) 
0.0

>  <max_hit_Tanimoto>  (110) 
0.333901

>  <largest_ring>  (110) 
5

>  <N_interactions_kept>  (110) 
0.0

>  <N_interactions_lost>  (110) 
0.0

>  <interaction_uniqueness_metric>  (110) 
0.10789

>  <N_HA>  (110) 
18

>  <N_rotatable_bonds>  (110) 
3

>  <N_interactions>  (110) 
6

>  <N_PAINS>  (110) 
0

>  <UFF_Gibbs>  (110) 
68.67017

>  <strain_per_HA>  (110) 
3.814988

>  <ad_hoc_penalty>  (110) 
-37.750606

>  <cluster>  (110) 
1123

>  <merger_rank>  (110) 
2

>  <pication:ARG:29>  (110) 
0

>  <hbond:HIS:51>  (110) 
0

>  <pistack:HIS:51>  (110) 
1

>  <hydroph_interaction:TYR:161>  (110) 
2

>  <pication:HIS:51>  (110) 
0

>  <hydroph_interaction:ALA:132>  (110) 
1

>  <hydroph_interaction:TYR:150>  (110) 
0

>  <hydroph_interaction:LYS:54>  (110) 
0

>  <hbond:SER:135>  (110) 
1

>  <hydroph_interaction:HIS:51>  (110) 
1

>  <hbond:ASP:83>  (110) 
0

>  <hbond:ALA:132>  (110) 
0

>  <halogenbond:SER:81>  (110) 
0

>  <hbond:GLY:82>  (110) 
0

>  <saltbridge:HIS:51>  (110) 
0

>  <pistack:TYR:161>  (110) 
0

>  <hbond:SER:81>  (110) 
0

>  <hbond:ASN:152>  (110) 
0

>  <hbond:GLY:151>  (110) 
0

>  <hydroph_interaction:ASN:152>  (110) 
0

>  <hbond:TYR:161>  (110) 
0

>  <halogenbond:TYR:150>  (110) 
0

>  <hbond:ASP:75>  (110) 
0

>  <hbond:GLY:153>  (110) 
0

>  <hbond:VAL:36>  (110) 
0

>  <hbond:PRO:131>  (110) 
0

>  <hbond:VAL:52>  (110) 
0

>  <hydroph_interaction:ASP:83>  (110) 
0

>  <hydroph_interaction:MET:49>  (110) 
0

>  <hydroph_interaction:VAL:52>  (110) 
0

>  <saltbridge:ASP:83>  (110) 
0

>  <saltbridge:ASP:75>  (110) 
0

>  <hydroph_interaction:TRP:50>  (110) 
0

>  <hydroph_interaction:VAL:72>  (110) 
0

>  <hydroph_interaction:ASP:75>  (110) 
0

>  <halogenbond:ASN:152>  (110) 
0

>  <halogenbond:GLY:153>  (110) 
0

>  <halogenbond:TYR:130>  (110) 
0

>  <hbond:TYR:130>  (110) 
0

>  <halogenbond:ASP:75>  (110) 
0

>  <halogenbond:GLY:151>  (110) 
0

>  <hbond:TYR:150>  (110) 
0

>  <halogenbond:TYR:161>  (110) 
0

>  <hydroph_interaction:ASP:129>  (110) 
0

>  <hbond:ASP:129>  (110) 
0

>  <halogenbond:ALA:132>  (110) 
0

$$$$
PV-003463626914
     RDKit          3D

 30 32  0  0  0  0  0  0  0  0999 V2000
   -9.0440    4.7030  -19.5050 C   0  0  0  0  0  0  0  0  0  0  0  0
   -9.7510    4.7900  -18.1690 C   0  0  0  0  0  0  0  0  0  0  0  0
  -11.0700    4.5130  -18.1060 O   0  0  0  0  0  0  0  0  0  0  0  0
   -8.9020    5.2220  -17.0210 C   0  0  0  0  0  0  0  0  0  0  0  0
   -7.5310    5.2270  -16.9370 C   0  0  0  0  0  0  0  0  0  0  0  0
   -6.9200    5.8050  -15.4810 S   0  0  0  0  0  0  0  0  0  0  0  0
   -8.4970    6.1040  -14.8260 C   0  0  0  0  0  0  0  0  0  0  0  0
   -8.9270    6.6590  -13.5240 C   0  0  0  0  0  0  0  0  0  0  0  0
   -9.7310    7.7510  -13.2460 C   0  0  0  0  0  0  0  0  0  0  0  0
   -9.9480    8.0430  -11.5760 S   0  0  0  0  0  0  0  0  0  0  0  0
   -8.9570    6.6810  -11.2690 C   0  0  0  0  0  0  0  0  0  0  0  0
   -8.6780    6.3140   -9.9590 C   0  0  0  0  0  0  0  0  0  0  0  0
   -8.4830    4.8750   -9.8670 N   0  0  0  0  0  0  0  0  0  0  0  0
   -7.7790    4.0500  -10.7330 C   0  0  0  0  0  0  0  0  0  0  0  0
   -7.8840    2.8270  -10.2170 C   0  0  0  0  0  0  0  0  0  0  0  0
   -8.6230    2.7860   -9.0480 N   0  0  0  0  0  0  0  0  0  0  0  0
   -8.9630    4.0460   -8.8810 C   0  0  0  0  0  0  0  0  0  0  0  0
   -8.4940    6.0530  -12.3810 N   0  0  0  0  0  0  0  0  0  0  0  0
   -9.4340    5.7370  -15.7720 C   0  0  0  0  0  0  0  0  0  0  0  0
   -8.7800    3.6730  -19.7480 H   0  0  0  0  0  0  0  0  0  0  0  0
   -9.6990    5.0810  -20.2950 H   0  0  0  0  0  0  0  0  0  0  0  0
   -8.1250    5.2990  -19.5150 H   0  0  0  0  0  0  0  0  0  0  0  0
   -6.8850    4.8860  -17.7530 H   0  0  0  0  0  0  0  0  0  0  0  0
  -10.1750    8.3620  -14.0300 H   0  0  0  0  0  0  0  0  0  0  0  0
   -9.3840    6.5130   -9.1740 H   0  0  0  0  0  0  0  0  0  0  0  0
   -7.7610    6.7290   -9.5490 H   0  0  0  0  0  0  0  0  0  0  0  0
   -7.2450    4.3050  -11.6410 H   0  0  0  0  0  0  0  0  0  0  0  0
   -7.4240    1.9330  -10.6800 H   0  0  0  0  0  0  0  0  0  0  0  0
   -9.5500    4.4830   -8.0870 H   0  0  0  0  0  0  0  0  0  0  0  0
  -10.4760    5.8350  -15.5880 H   0  0  0  0  0  0  0  0  0  0  0  0
  1  2  1  0
  2  3  2  0
  2  4  1  0
  4  5  2  0
  5  6  1  0
  6  7  1  0
  7  8  1  0
  8  9  2  0
  9 10  1  0
 10 11  1  0
 11 12  1  0
 12 13  1  0
 13 14  1  0
 14 15  2  0
 15 16  1  0
 16 17  2  0
 11 18  2  0
  7 19  2  0
 19  4  1  0
 18  8  1  0
 17 13  1  0
  1 20  1  0
  1 21  1  0
  1 22  1  0
  5 23  1  0
  9 24  1  0
 12 25  1  0
 12 26  1  0
 14 27  1  0
 15 28  1  0
 17 29  1  0
 19 30  1  0
A    1
 C1 
A    2
 C2 
A    3
 O1 
A    4
 C3 
A    5
 C4 
A    6
 S1 
A    7
 C5 
A    8
 C6 
A    9
 C7 
A   10
 S2 
A   11
 C8 
A   12
 C9 
A   13
 N1 
A   14
 C10
A   15
 C11
A   16
 N2 
A   17
 C12
A   18
 N3 
A   19
 C13
A   20
 H1 
A   21
 H2 
A   22
 H3 
A   23
 H4 
A   24
 H5 
A   25
 H6 
A   26
 H7 
A   27
 H8 
A   28
 H9 
A   29
 H10
A   30
 H11
M  END
>  <ref_pdb>  (111) 
x0051_0B

>  <ref_mols>  (111) 
x0404_0B,x0969_0B

>  <original SMILES>  (111) 
[H]c1nc([H])n(C([H])([H])c2nc(-c3sc([H])c(C(=O)C([H])([H])[H])c3[H])c([H])s2)c1[H]

>  <index>  (111) 
3480

>  <∆∆G>  (111) 
-6.515733

>  <comRMSD>  (111) 
0.458898

>  <N_constrained_atoms>  (111) 
18.0

>  <N_unconstrained_atoms>  (111) 
3.0

>  <LE>  (111) 
0.310273

>  <percent_hybrid>  (111) 
0.0

>  <max_hit_Tanimoto>  (111) 
0.427948

>  <largest_ring>  (111) 
5

>  <N_interactions_kept>  (111) 
0.0

>  <N_interactions_lost>  (111) 
0.0

>  <interaction_uniqueness_metric>  (111) 
0.184511

>  <N_HA>  (111) 
19

>  <N_rotatable_bonds>  (111) 
5

>  <N_interactions>  (111) 
6

>  <N_PAINS>  (111) 
0

>  <UFF_Gibbs>  (111) 
57.345137

>  <strain_per_HA>  (111) 
3.018149

>  <ad_hoc_penalty>  (111) 
-37.747212

>  <cluster>  (111) 
2410

>  <merger_rank>  (111) 
2

>  <pication:ARG:29>  (111) 
0

>  <hbond:HIS:51>  (111) 
0

>  <pistack:HIS:51>  (111) 
0

>  <hydroph_interaction:TYR:161>  (111) 
2

>  <pication:HIS:51>  (111) 
2

>  <hydroph_interaction:ALA:132>  (111) 
1

>  <hydroph_interaction:TYR:150>  (111) 
1

>  <hydroph_interaction:LYS:54>  (111) 
0

>  <hbond:SER:135>  (111) 
0

>  <hydroph_interaction:HIS:51>  (111) 
0

>  <hbond:ASP:83>  (111) 
0

>  <hbond:ALA:132>  (111) 
0

>  <halogenbond:SER:81>  (111) 
0

>  <hbond:GLY:82>  (111) 
0

>  <saltbridge:HIS:51>  (111) 
0

>  <pistack:TYR:161>  (111) 
0

>  <hbond:SER:81>  (111) 
0

>  <hbond:ASN:152>  (111) 
0

>  <hbond:GLY:151>  (111) 
0

>  <hydroph_interaction:ASN:152>  (111) 
0

>  <hbond:TYR:161>  (111) 
0

>  <halogenbond:TYR:150>  (111) 
0

>  <hbond:ASP:75>  (111) 
0

>  <hbond:GLY:153>  (111) 
0

>  <hbond:VAL:36>  (111) 
0

>  <hbond:PRO:131>  (111) 
0

>  <hbond:VAL:52>  (111) 
0

>  <hydroph_interaction:ASP:83>  (111) 
0

>  <hydroph_interaction:MET:49>  (111) 
0

>  <hydroph_interaction:VAL:52>  (111) 
0

>  <saltbridge:ASP:83>  (111) 
0

>  <saltbridge:ASP:75>  (111) 
0

>  <hydroph_interaction:TRP:50>  (111) 
0

>  <hydroph_interaction:VAL:72>  (111) 
0

>  <hydroph_interaction:ASP:75>  (111) 
0

>  <halogenbond:ASN:152>  (111) 
0

>  <halogenbond:GLY:153>  (111) 
0

>  <halogenbond:TYR:130>  (111) 
0

>  <hbond:TYR:130>  (111) 
0

>  <halogenbond:ASP:75>  (111) 
0

>  <halogenbond:GLY:151>  (111) 
0

>  <hbond:TYR:150>  (111) 
0

>  <halogenbond:TYR:161>  (111) 
0

>  <hydroph_interaction:ASP:129>  (111) 
0

>  <hbond:ASP:129>  (111) 
0

>  <halogenbond:ALA:132>  (111) 
0

$$$$
PV-007062286729
     RDKit          3D

 22 23  0  0  0  0  0  0  0  0999 V2000
   -9.9660    5.0050  -17.2510 N   0  0  0  0  0  0  0  0  0  0  0  0
   -8.6150    5.3790  -16.8440 C   0  0  0  0  0  0  0  0  0  0  0  0
   -7.7020    5.8720  -17.7180 O   0  0  0  0  0  0  0  0  0  0  0  0
   -8.3020    5.1410  -15.4280 C   0  0  0  0  0  0  0  0  0  0  0  0
   -7.0790    4.8950  -14.8900 C   0  0  0  0  0  0  0  0  0  0  0  0
   -7.0950    4.6680  -13.4660 C   0  0  0  0  0  0  0  0  0  0  0  0
   -8.2930    4.7290  -12.8610 C   0  0  0  0  0  0  0  0  0  0  0  0
   -8.6440    4.5170  -11.4360 C   0  0  0  0  0  0  0  0  0  0  0  0
   -8.5770    5.3880  -10.3700 C   0  0  0  0  0  0  0  0  0  0  0  0
   -8.9770    4.8310   -9.1620 C   0  0  0  0  0  0  0  0  0  0  0  0
   -9.3780    3.4620   -9.2940 C   0  0  0  0  0  0  0  0  0  0  0  0
   -9.8190    2.6300   -8.3290 N   0  0  0  0  0  0  0  0  0  0  0  0
   -9.2240    2.9740  -10.9210 S   0  0  0  0  0  0  0  0  0  0  0  0
   -9.4470    5.1120  -14.1240 S   0  0  0  0  0  0  0  0  0  0  0  0
  -10.0930    5.1980  -18.2440 H   0  0  0  0  0  0  0  0  0  0  0  0
  -10.6270    5.5980  -16.7540 H   0  0  0  0  0  0  0  0  0  0  0  0
   -6.2220    4.8810  -15.5480 H   0  0  0  0  0  0  0  0  0  0  0  0
   -6.0940    4.4640  -13.0660 H   0  0  0  0  0  0  0  0  0  0  0  0
   -8.2420    6.4120  -10.4560 H   0  0  0  0  0  0  0  0  0  0  0  0
   -8.9900    5.3570   -8.2190 H   0  0  0  0  0  0  0  0  0  0  0  0
   -9.4110    2.7090   -7.4110 H   0  0  0  0  0  0  0  0  0  0  0  0
  -10.7820    2.2970   -8.3310 H   0  0  0  0  0  0  0  0  0  0  0  0
  1  2  1  0
  2  3  2  0
  2  4  1  0
  4  5  2  0
  5  6  1  0
  6  7  2  0
  7  8  1  0
  8  9  2  0
  9 10  1  0
 10 11  2  0
 11 12  1  0
 11 13  1  0
  7 14  1  0
 14  4  1  0
 13  8  1  0
  1 15  1  0
  1 16  1  0
  5 17  1  0
  6 18  1  0
  9 19  1  0
 10 20  1  0
 12 21  1  0
 12 22  1  0
A    1
 N1 
A    2
 C1 
A    3
 O1 
A    4
 C2 
A    5
 C3 
A    6
 C4 
A    7
 C5 
A    8
 C6 
A    9
 C7 
A   10
 C8 
A   11
 C9 
A   12
 N2 
A   13
 S1 
A   14
 S2 
A   15
 H1 
A   16
 H2 
A   17
 H3 
A   18
 H4 
A   19
 H5 
A   20
 H6 
A   21
 H7 
A   22
 H8 
M  END
>  <ref_pdb>  (112) 
x0051_0B

>  <ref_mols>  (112) 
x0969_1B,x0553_0B

>  <original SMILES>  (112) 
[H]c1c(C(=O)N([H])[H])sc(-c2sc(N([H])[H])c([H])c2[H])c1[H]

>  <index>  (112) 
2615

>  <∆∆G>  (112) 
-3.705315

>  <comRMSD>  (112) 
0.21562

>  <N_constrained_atoms>  (112) 
13.0

>  <N_unconstrained_atoms>  (112) 
1.0

>  <LE>  (112) 
0.264665

>  <percent_hybrid>  (112) 
0.0

>  <max_hit_Tanimoto>  (112) 
0.36829

>  <largest_ring>  (112) 
5

>  <N_interactions_kept>  (112) 
0.0

>  <N_interactions_lost>  (112) 
0.0

>  <interaction_uniqueness_metric>  (112) 
0.363856

>  <N_HA>  (112) 
14

>  <N_rotatable_bonds>  (112) 
3

>  <N_interactions>  (112) 
6

>  <N_PAINS>  (112) 
0

>  <UFF_Gibbs>  (112) 
58.045004

>  <strain_per_HA>  (112) 
4.146042

>  <ad_hoc_penalty>  (112) 
-37.71532

>  <cluster>  (112) 
2919

>  <merger_rank>  (112) 
1

>  <pication:ARG:29>  (112) 
0

>  <hbond:HIS:51>  (112) 
1

>  <pistack:HIS:51>  (112) 
1

>  <hydroph_interaction:TYR:161>  (112) 
1

>  <pication:HIS:51>  (112) 
0

>  <hydroph_interaction:ALA:132>  (112) 
0

>  <hydroph_interaction:TYR:150>  (112) 
0

>  <hydroph_interaction:LYS:54>  (112) 
0

>  <hbond:SER:135>  (112) 
0

>  <hydroph_interaction:HIS:51>  (112) 
1

>  <hbond:ASP:83>  (112) 
0

>  <hbond:ALA:132>  (112) 
0

>  <halogenbond:SER:81>  (112) 
0

>  <hbond:GLY:82>  (112) 
0

>  <saltbridge:HIS:51>  (112) 
0

>  <pistack:TYR:161>  (112) 
0

>  <hbond:SER:81>  (112) 
1

>  <hbond:ASN:152>  (112) 
0

>  <hbond:GLY:151>  (112) 
1

>  <hydroph_interaction:ASN:152>  (112) 
0

>  <hbond:TYR:161>  (112) 
0

>  <halogenbond:TYR:150>  (112) 
0

>  <hbond:ASP:75>  (112) 
0

>  <hbond:GLY:153>  (112) 
0

>  <hbond:VAL:36>  (112) 
0

>  <hbond:PRO:131>  (112) 
0

>  <hbond:VAL:52>  (112) 
0

>  <hydroph_interaction:ASP:83>  (112) 
0

>  <hydroph_interaction:MET:49>  (112) 
0

>  <hydroph_interaction:VAL:52>  (112) 
0

>  <saltbridge:ASP:83>  (112) 
0

>  <saltbridge:ASP:75>  (112) 
0

>  <hydroph_interaction:TRP:50>  (112) 
0

>  <hydroph_interaction:VAL:72>  (112) 
0

>  <hydroph_interaction:ASP:75>  (112) 
0

>  <halogenbond:ASN:152>  (112) 
0

>  <halogenbond:GLY:153>  (112) 
0

>  <halogenbond:TYR:130>  (112) 
0

>  <hbond:TYR:130>  (112) 
0

>  <halogenbond:ASP:75>  (112) 
0

>  <halogenbond:GLY:151>  (112) 
0

>  <hbond:TYR:150>  (112) 
0

>  <halogenbond:TYR:161>  (112) 
0

>  <hydroph_interaction:ASP:129>  (112) 
0

>  <hbond:ASP:129>  (112) 
0

>  <halogenbond:ALA:132>  (112) 
0

$$$$
PV-002949243588
     RDKit          3D

 35 38  0  0  0  0  0  0  0  0999 V2000
   -9.4400    3.6480   -6.9440 C   0  0  0  0  0  0  0  0  0  0  0  0
   -9.2730    3.7560   -8.3080 C   0  0  0  0  0  0  0  0  0  0  0  0
   -9.1940    2.7210   -9.2440 C   0  0  0  0  0  0  0  0  0  0  0  0
   -9.0250    3.3980  -10.5300 C   0  0  0  0  0  0  0  0  0  0  0  0
   -9.0250    4.8570  -10.1680 C   0  0  0  0  0  0  0  0  0  0  0  0
   -8.8880    6.0010  -11.1110 C   0  0  0  0  0  0  0  0  0  0  0  0
   -9.5760    7.1250  -10.9950 N   0  0  0  0  0  0  0  0  0  0  0  0
   -9.2170    7.9420  -12.0010 N   0  0  0  0  0  0  0  0  0  0  0  0
   -8.2820    7.2560  -12.7060 C   0  0  0  0  0  0  0  0  0  0  0  0
   -7.4840    7.7200  -13.9610 C   0  0  0  0  0  0  0  0  0  0  0  0
   -7.5910    6.8730  -15.0450 C   0  0  0  0  0  0  0  0  0  0  0  0
   -6.7270    6.8920  -16.2070 C   0  0  0  0  0  0  0  0  0  0  0  0
   -7.1510    5.9080  -17.1870 C   0  0  0  0  0  0  0  0  0  0  0  0
   -6.6380    5.6170  -18.4260 C   0  0  0  0  0  0  0  0  0  0  0  0
   -7.2700    4.6190  -19.1550 C   0  0  0  0  0  0  0  0  0  0  0  0
   -8.3840    3.9530  -18.6270 C   0  0  0  0  0  0  0  0  0  0  0  0
   -8.8760    4.2760  -17.3630 C   0  0  0  0  0  0  0  0  0  0  0  0
   -8.2600    5.2540  -16.6410 C   0  0  0  0  0  0  0  0  0  0  0  0
   -8.6240    5.7780  -15.2480 C   0  0  0  0  0  0  0  0  0  0  0  0
   -8.0380    6.0180  -12.1950 O   0  0  0  0  0  0  0  0  0  0  0  0
   -9.1820    4.9160   -8.7940 O   0  0  0  0  0  0  0  0  0  0  0  0
   -8.6370    3.3660   -6.2760 H   0  0  0  0  0  0  0  0  0  0  0  0
  -10.2380    2.9170   -6.7720 H   0  0  0  0  0  0  0  0  0  0  0  0
   -9.8210    4.5990   -6.5630 H   0  0  0  0  0  0  0  0  0  0  0  0
   -9.2390    1.6580   -9.1100 H   0  0  0  0  0  0  0  0  0  0  0  0
   -8.9240    2.9690  -11.5180 H   0  0  0  0  0  0  0  0  0  0  0  0
   -6.4510    7.9070  -13.6950 H   0  0  0  0  0  0  0  0  0  0  0  0
   -7.6560    8.6600  -14.4640 H   0  0  0  0  0  0  0  0  0  0  0  0
   -5.8750    7.5310  -16.4200 H   0  0  0  0  0  0  0  0  0  0  0  0
   -5.7780    6.1420  -18.8250 H   0  0  0  0  0  0  0  0  0  0  0  0
   -6.9010    4.3520  -20.1460 H   0  0  0  0  0  0  0  0  0  0  0  0
   -8.8690    3.1750  -19.2110 H   0  0  0  0  0  0  0  0  0  0  0  0
   -9.7240    3.7730  -16.9610 H   0  0  0  0  0  0  0  0  0  0  0  0
   -9.6390    6.1890  -15.2440 H   0  0  0  0  0  0  0  0  0  0  0  0
   -8.5260    4.9820  -14.5030 H   0  0  0  0  0  0  0  0  0  0  0  0
  1  2  1  0
  2  3  2  0
  3  4  1  0
  4  5  2  0
  5  6  1  0
  6  7  2  0
  7  8  1  0
  8  9  2  0
  9 10  1  0
 10 11  1  0
 11 12  2  0
 12 13  1  0
 13 14  2  0
 14 15  1  0
 15 16  2  0
 16 17  1  0
 17 18  2  0
 18 19  1  0
  9 20  1  0
  5 21  1  0
 21  2  1  0
 20  6  1  0
 19 11  1  0
 18 13  1  0
  1 22  1  0
  1 23  1  0
  1 24  1  0
  3 25  1  0
  4 26  1  0
 10 27  1  0
 10 28  1  0
 12 29  1  0
 14 30  1  0
 15 31  1  0
 16 32  1  0
 17 33  1  0
 19 34  1  0
 19 35  1  0
A    1
 C1 
A    2
 C2 
A    3
 C3 
A    4
 C4 
A    5
 C5 
A    6
 C6 
A    7
 N1 
A    8
 N2 
A    9
 C7 
A   10
 C8 
A   11
 C9 
A   12
 C10
A   13
 C11
A   14
 C12
A   15
 C13
A   16
 C14
A   17
 C15
A   18
 C16
A   19
 C17
A   20
 O1 
A   21
 O2 
A   22
 H1 
A   23
 H2 
A   24
 H3 
A   25
 H4 
A   26
 H5 
A   27
 H6 
A   28
 H7 
A   29
 H8 
A   30
 H9 
A   31
 H10
A   32
 H11
A   33
 H12
A   34
 H13
A   35
 H14
M  END
>  <ref_pdb>  (113) 
x0051_0B

>  <ref_mols>  (113) 
x0404_0B,x0969_0B

>  <original SMILES>  (113) 
[H]C1=C(C([H])([H])c2nnc(-c3oc(C([H])([H])[H])c([H])c3[H])o2)C([H])([H])c2c([H])c([H])c([H])c([H])c21

>  <index>  (113) 
2444

>  <∆∆G>  (113) 
-7.414388

>  <comRMSD>  (113) 
0.45658

>  <N_constrained_atoms>  (113) 
20.0

>  <N_unconstrained_atoms>  (113) 
1.0

>  <LE>  (113) 
0.353066

>  <percent_hybrid>  (113) 
0.0

>  <max_hit_Tanimoto>  (113) 
0.41946

>  <largest_ring>  (113) 
6

>  <N_interactions_kept>  (113) 
0.0

>  <N_interactions_lost>  (113) 
0.0

>  <interaction_uniqueness_metric>  (113) 
0.095691

>  <N_HA>  (113) 
21

>  <N_rotatable_bonds>  (113) 
4

>  <N_interactions>  (113) 
5

>  <N_PAINS>  (113) 
0

>  <UFF_Gibbs>  (113) 
70.679508

>  <strain_per_HA>  (113) 
3.365675

>  <ad_hoc_penalty>  (113) 
-37.710762

>  <cluster>  (113) 
554

>  <merger_rank>  (113) 
3

>  <pication:ARG:29>  (113) 
0

>  <hbond:HIS:51>  (113) 
0

>  <pistack:HIS:51>  (113) 
1

>  <hydroph_interaction:TYR:161>  (113) 
1

>  <pication:HIS:51>  (113) 
0

>  <hydroph_interaction:ALA:132>  (113) 
1

>  <hydroph_interaction:TYR:150>  (113) 
0

>  <hydroph_interaction:LYS:54>  (113) 
0

>  <hbond:SER:135>  (113) 
0

>  <hydroph_interaction:HIS:51>  (113) 
1

>  <hbond:ASP:83>  (113) 
0

>  <hbond:ALA:132>  (113) 
0

>  <halogenbond:SER:81>  (113) 
0

>  <hbond:GLY:82>  (113) 
0

>  <saltbridge:HIS:51>  (113) 
0

>  <pistack:TYR:161>  (113) 
1

>  <hbond:SER:81>  (113) 
0

>  <hbond:ASN:152>  (113) 
0

>  <hbond:GLY:151>  (113) 
0

>  <hydroph_interaction:ASN:152>  (113) 
0

>  <hbond:TYR:161>  (113) 
0

>  <halogenbond:TYR:150>  (113) 
0

>  <hbond:ASP:75>  (113) 
0

>  <hbond:GLY:153>  (113) 
0

>  <hbond:VAL:36>  (113) 
0

>  <hbond:PRO:131>  (113) 
0

>  <hbond:VAL:52>  (113) 
0

>  <hydroph_interaction:ASP:83>  (113) 
0

>  <hydroph_interaction:MET:49>  (113) 
0

>  <hydroph_interaction:VAL:52>  (113) 
0

>  <saltbridge:ASP:83>  (113) 
0

>  <saltbridge:ASP:75>  (113) 
0

>  <hydroph_interaction:TRP:50>  (113) 
0

>  <hydroph_interaction:VAL:72>  (113) 
0

>  <hydroph_interaction:ASP:75>  (113) 
0

>  <halogenbond:ASN:152>  (113) 
0

>  <halogenbond:GLY:153>  (113) 
0

>  <halogenbond:TYR:130>  (113) 
0

>  <hbond:TYR:130>  (113) 
0

>  <halogenbond:ASP:75>  (113) 
0

>  <halogenbond:GLY:151>  (113) 
0

>  <hbond:TYR:150>  (113) 
0

>  <halogenbond:TYR:161>  (113) 
0

>  <hydroph_interaction:ASP:129>  (113) 
0

>  <hbond:ASP:129>  (113) 
0

>  <halogenbond:ALA:132>  (113) 
0

$$$$
PV-006799042752
     RDKit          3D

 26 29  0  0  0  0  0  0  0  0999 V2000
   -4.6420    5.4400  -18.4250 Cl  0  0  0  0  0  0  0  0  0  0  0  0
   -6.2140    5.5110  -17.7240 C   0  0  0  0  0  0  0  0  0  0  0  0
   -7.4380    4.9590  -18.4340 C   0  0  0  0  0  0  0  0  0  0  0  0
   -8.7480    5.0450  -17.7760 C   0  0  0  0  0  0  0  0  0  0  0  0
   -8.8980    5.6300  -16.5500 C   0  0  0  0  0  0  0  0  0  0  0  0
   -9.9620    5.8350  -15.7860 N   0  0  0  0  0  0  0  0  0  0  0  0
   -9.6680    6.4720  -14.6550 C   0  0  0  0  0  0  0  0  0  0  0  0
  -10.7330    6.9430  -13.4120 S   0  0  0  0  0  0  0  0  0  0  0  0
   -9.9710    5.8990  -12.2510 C   0  0  0  0  0  0  0  0  0  0  0  0
   -8.8390    6.2720  -11.6820 N   0  0  0  0  0  0  0  0  0  0  0  0
   -8.4820    5.2330  -10.8570 C   0  0  0  0  0  0  0  0  0  0  0  0
   -7.3590    5.2640  -10.1180 N   0  0  0  0  0  0  0  0  0  0  0  0
   -7.1560    4.1890   -9.3870 C   0  0  0  0  0  0  0  0  0  0  0  0
   -8.0310    3.0670   -9.3530 C   0  0  0  0  0  0  0  0  0  0  0  0
   -9.1690    2.9930  -10.0730 N   0  0  0  0  0  0  0  0  0  0  0  0
   -9.3490    4.1240  -10.8240 C   0  0  0  0  0  0  0  0  0  0  0  0
  -10.6590    4.3800  -11.8560 S   0  0  0  0  0  0  0  0  0  0  0  0
   -8.3040    6.6740  -14.6940 N   0  0  0  0  0  0  0  0  0  0  0  0
   -7.8080    6.1670  -15.8490 C   0  0  0  0  0  0  0  0  0  0  0  0
   -6.4120    6.1320  -16.3860 C   0  0  0  0  0  0  0  0  0  0  0  0
   -7.3220    4.5010  -19.4230 H   0  0  0  0  0  0  0  0  0  0  0  0
   -9.6170    4.6450  -18.2770 H   0  0  0  0  0  0  0  0  0  0  0  0
   -6.2490    4.1990   -8.7870 H   0  0  0  0  0  0  0  0  0  0  0  0
   -7.8180    2.2040   -8.7320 H   0  0  0  0  0  0  0  0  0  0  0  0
   -7.7760    7.1350  -13.9640 H   0  0  0  0  0  0  0  0  0  0  0  0
   -5.5810    6.5470  -15.8250 H   0  0  0  0  0  0  0  0  0  0  0  0
  1  2  1  0
  2  3  2  0
  3  4  1  0
  4  5  2  0
  5  6  1  0
  6  7  2  0
  7  8  1  0
  8  9  1  0
  9 10  2  0
 10 11  1  0
 11 12  2  0
 12 13  1  0
 13 14  2  0
 14 15  1  0
 15 16  2  0
 16 17  1  0
  7 18  1  0
 18 19  1  0
 19 20  2  0
 20  2  1  0
 19  5  1  0
 17  9  1  0
 16 11  1  0
  3 21  1  0
  4 22  1  0
 13 23  1  0
 14 24  1  0
 18 25  1  0
 20 26  1  0
A    1
CL1 
A    2
 C1 
A    3
 C2 
A    4
 C3 
A    5
 C4 
A    6
 N1 
A    7
 C5 
A    8
 S1 
A    9
 C6 
A   10
 N2 
A   11
 C7 
A   12
 N3 
A   13
 C8 
A   14
 C9 
A   15
 N4 
A   16
 C10
A   17
 S2 
A   18
 N5 
A   19
 C11
A   20
 C12
A   21
 H1 
A   22
 H2 
A   23
 H3 
A   24
 H4 
A   25
 H5 
A   26
 H6 
M  END
>  <ref_pdb>  (114) 
x0051_0B

>  <ref_mols>  (114) 
x0404_0B,x0969_0B

>  <original SMILES>  (114) 
[H]c1nc2nc(Sc3nc4c([H])c([H])c(Cl)c([H])c4n3[H])sc2nc1[H]

>  <index>  (114) 
4071

>  <∆∆G>  (114) 
-5.072703

>  <comRMSD>  (114) 
0.278259

>  <N_constrained_atoms>  (114) 
19.0

>  <N_unconstrained_atoms>  (114) 
1.0

>  <LE>  (114) 
0.253635

>  <percent_hybrid>  (114) 
0.0

>  <max_hit_Tanimoto>  (114) 
0.530955

>  <largest_ring>  (114) 
6

>  <N_interactions_kept>  (114) 
0.0

>  <N_interactions_lost>  (114) 
0.0

>  <interaction_uniqueness_metric>  (114) 
0.117884

>  <N_HA>  (114) 
20

>  <N_rotatable_bonds>  (114) 
2

>  <N_interactions>  (114) 
5

>  <N_PAINS>  (114) 
0

>  <UFF_Gibbs>  (114) 
54.79481

>  <strain_per_HA>  (114) 
2.739727

>  <ad_hoc_penalty>  (114) 
-37.667012

>  <cluster>  (114) 
2000

>  <merger_rank>  (114) 
4

>  <pication:ARG:29>  (114) 
0

>  <hbond:HIS:51>  (114) 
0

>  <pistack:HIS:51>  (114) 
0

>  <hydroph_interaction:TYR:161>  (114) 
2

>  <pication:HIS:51>  (114) 
1

>  <hydroph_interaction:ALA:132>  (114) 
0

>  <hydroph_interaction:TYR:150>  (114) 
0

>  <hydroph_interaction:LYS:54>  (114) 
0

>  <hbond:SER:135>  (114) 
2

>  <hydroph_interaction:HIS:51>  (114) 
0

>  <hbond:ASP:83>  (114) 
0

>  <hbond:ALA:132>  (114) 
0

>  <halogenbond:SER:81>  (114) 
0

>  <hbond:GLY:82>  (114) 
0

>  <saltbridge:HIS:51>  (114) 
0

>  <pistack:TYR:161>  (114) 
0

>  <hbond:SER:81>  (114) 
0

>  <hbond:ASN:152>  (114) 
0

>  <hbond:GLY:151>  (114) 
0

>  <hydroph_interaction:ASN:152>  (114) 
0

>  <hbond:TYR:161>  (114) 
0

>  <halogenbond:TYR:150>  (114) 
0

>  <hbond:ASP:75>  (114) 
0

>  <hbond:GLY:153>  (114) 
0

>  <hbond:VAL:36>  (114) 
0

>  <hbond:PRO:131>  (114) 
0

>  <hbond:VAL:52>  (114) 
0

>  <hydroph_interaction:ASP:83>  (114) 
0

>  <hydroph_interaction:MET:49>  (114) 
0

>  <hydroph_interaction:VAL:52>  (114) 
0

>  <saltbridge:ASP:83>  (114) 
0

>  <saltbridge:ASP:75>  (114) 
0

>  <hydroph_interaction:TRP:50>  (114) 
0

>  <hydroph_interaction:VAL:72>  (114) 
0

>  <hydroph_interaction:ASP:75>  (114) 
0

>  <halogenbond:ASN:152>  (114) 
0

>  <halogenbond:GLY:153>  (114) 
0

>  <halogenbond:TYR:130>  (114) 
0

>  <hbond:TYR:130>  (114) 
0

>  <halogenbond:ASP:75>  (114) 
0

>  <halogenbond:GLY:151>  (114) 
0

>  <hbond:TYR:150>  (114) 
0

>  <halogenbond:TYR:161>  (114) 
0

>  <hydroph_interaction:ASP:129>  (114) 
0

>  <hbond:ASP:129>  (114) 
0

>  <halogenbond:ALA:132>  (114) 
0

$$$$
Z4919096059
     RDKit          3D

 22 24  0  0  0  0  0  0  0  0999 V2000
   -8.1100    5.5320  -17.0450 C   0  0  0  0  0  0  0  0  0  0  0  0
   -6.9950    5.5910  -16.0620 C   0  0  0  0  0  0  0  0  0  0  0  0
   -7.1600    5.3880  -14.7620 N   0  0  0  0  0  0  0  0  0  0  0  0
   -8.4180    5.1100  -14.3050 C   0  0  0  0  0  0  0  0  0  0  0  0
   -8.6110    4.8720  -12.9590 C   0  0  0  0  0  0  0  0  0  0  0  0
   -8.5250    5.7960  -11.8400 C   0  0  0  0  0  0  0  0  0  0  0  0
   -8.7730    5.1340  -10.5520 C   0  0  0  0  0  0  0  0  0  0  0  0
   -8.7510    5.7730   -9.2460 C   0  0  0  0  0  0  0  0  0  0  0  0
   -9.0080    4.9600   -8.1290 C   0  0  0  0  0  0  0  0  0  0  0  0
   -9.2700    3.5790   -8.4530 C   0  0  0  0  0  0  0  0  0  0  0  0
   -9.2920    2.9950   -9.6780 N   0  0  0  0  0  0  0  0  0  0  0  0
   -9.0340    3.8150  -10.6900 C   0  0  0  0  0  0  0  0  0  0  0  0
   -8.9950    3.3090  -12.3200 S   0  0  0  0  0  0  0  0  0  0  0  0
   -9.4780    5.0540  -15.1720 N   0  0  0  0  0  0  0  0  0  0  0  0
   -9.3170    5.2590  -16.5010 C   0  0  0  0  0  0  0  0  0  0  0  0
   -7.8630    5.7140  -18.0960 H   0  0  0  0  0  0  0  0  0  0  0  0
   -5.9840    5.8100  -16.4220 H   0  0  0  0  0  0  0  0  0  0  0  0
   -8.2980    6.8500  -11.9590 H   0  0  0  0  0  0  0  0  0  0  0  0
   -8.5430    6.8280   -9.1290 H   0  0  0  0  0  0  0  0  0  0  0  0
   -9.0080    5.3480   -7.1190 H   0  0  0  0  0  0  0  0  0  0  0  0
   -9.4840    2.8330   -7.7000 H   0  0  0  0  0  0  0  0  0  0  0  0
  -10.2180    5.1910  -17.1060 H   0  0  0  0  0  0  0  0  0  0  0  0
  1  2  2  0
  2  3  1  0
  3  4  2  0
  4  5  1  0
  5  6  2  0
  6  7  1  0
  7  8  2  0
  8  9  1  0
  9 10  2  0
 10 11  1  0
 11 12  2  0
 12 13  1  0
  4 14  1  0
 14 15  2  0
 15  1  1  0
 13  5  1  0
 12  7  1  0
  1 16  1  0
  2 17  1  0
  6 18  1  0
  8 19  1  0
  9 20  1  0
 10 21  1  0
 15 22  1  0
A    1
 C1 
A    2
 C2 
A    3
 N1 
A    4
 C3 
A    5
 C4 
A    6
 C5 
A    7
 C6 
A    8
 C7 
A    9
 C8 
A   10
 C9 
A   11
 N2 
A   12
 C10
A   13
 S1 
A   14
 N3 
A   15
 C11
A   16
 H1 
A   17
 H2 
A   18
 H3 
A   19
 H4 
A   20
 H5 
A   21
 H6 
A   22
 H7 
M  END
>  <ref_pdb>  (115) 
x0051_0B

>  <ref_mols>  (115) 
x0969_1B,x0553_0B

>  <original SMILES>  (115) 
[H]c1nc(-c2sc3nc([H])c([H])c([H])c3c2[H])nc([H])c1[H]

>  <index>  (115) 
1598

>  <∆∆G>  (115) 
-2.828718

>  <comRMSD>  (115) 
0.38984

>  <N_constrained_atoms>  (115) 
14.0

>  <N_unconstrained_atoms>  (115) 
1.0

>  <LE>  (115) 
0.188581

>  <percent_hybrid>  (115) 
0.0

>  <max_hit_Tanimoto>  (115) 
0.312871

>  <largest_ring>  (115) 
6

>  <N_interactions_kept>  (115) 
0.0

>  <N_interactions_lost>  (115) 
0.0

>  <interaction_uniqueness_metric>  (115) 
0.10558

>  <N_HA>  (115) 
15

>  <N_rotatable_bonds>  (115) 
1

>  <N_interactions>  (115) 
6

>  <N_PAINS>  (115) 
0

>  <UFF_Gibbs>  (115) 
38.184134

>  <strain_per_HA>  (115) 
2.545592

>  <ad_hoc_penalty>  (115) 
-37.665023

>  <cluster>  (115) 
3678

>  <merger_rank>  (115) 
3

>  <pication:ARG:29>  (115) 
0

>  <hbond:HIS:51>  (115) 
0

>  <pistack:HIS:51>  (115) 
2

>  <hydroph_interaction:TYR:161>  (115) 
1

>  <pication:HIS:51>  (115) 
0

>  <hydroph_interaction:ALA:132>  (115) 
1

>  <hydroph_interaction:TYR:150>  (115) 
0

>  <hydroph_interaction:LYS:54>  (115) 
0

>  <hbond:SER:135>  (115) 
0

>  <hydroph_interaction:HIS:51>  (115) 
1

>  <hbond:ASP:83>  (115) 
0

>  <hbond:ALA:132>  (115) 
0

>  <halogenbond:SER:81>  (115) 
0

>  <hbond:GLY:82>  (115) 
0

>  <saltbridge:HIS:51>  (115) 
0

>  <pistack:TYR:161>  (115) 
0

>  <hbond:SER:81>  (115) 
0

>  <hbond:ASN:152>  (115) 
0

>  <hbond:GLY:151>  (115) 
0

>  <hydroph_interaction:ASN:152>  (115) 
0

>  <hbond:TYR:161>  (115) 
1

>  <halogenbond:TYR:150>  (115) 
0

>  <hbond:ASP:75>  (115) 
0

>  <hbond:GLY:153>  (115) 
0

>  <hbond:VAL:36>  (115) 
0

>  <hbond:PRO:131>  (115) 
0

>  <hbond:VAL:52>  (115) 
0

>  <hydroph_interaction:ASP:83>  (115) 
0

>  <hydroph_interaction:MET:49>  (115) 
0

>  <hydroph_interaction:VAL:52>  (115) 
0

>  <saltbridge:ASP:83>  (115) 
0

>  <saltbridge:ASP:75>  (115) 
0

>  <hydroph_interaction:TRP:50>  (115) 
0

>  <hydroph_interaction:VAL:72>  (115) 
0

>  <hydroph_interaction:ASP:75>  (115) 
0

>  <halogenbond:ASN:152>  (115) 
0

>  <halogenbond:GLY:153>  (115) 
0

>  <halogenbond:TYR:130>  (115) 
0

>  <hbond:TYR:130>  (115) 
0

>  <halogenbond:ASP:75>  (115) 
0

>  <halogenbond:GLY:151>  (115) 
0

>  <hbond:TYR:150>  (115) 
0

>  <halogenbond:TYR:161>  (115) 
0

>  <hydroph_interaction:ASP:129>  (115) 
0

>  <hbond:ASP:129>  (115) 
0

>  <halogenbond:ALA:132>  (115) 
0

$$$$
Z1664506059
     RDKit          3D

 31 33  0  0  0  0  0  0  0  0999 V2000
   -8.3660    2.0710  -10.8370 C   0  0  0  0  0  0  0  0  0  0  0  0
   -8.4300    3.0380   -9.6820 C   0  0  0  0  0  0  0  0  0  0  0  0
   -8.7980    4.3970  -10.0440 C   0  0  0  0  0  0  0  0  0  0  0  0
   -9.1100    4.8090  -11.3050 C   0  0  0  0  0  0  0  0  0  0  0  0
   -8.8990    6.1440  -11.6870 C   0  0  0  0  0  0  0  0  0  0  0  0
   -9.3190    6.4290  -12.9530 C   0  0  0  0  0  0  0  0  0  0  0  0
  -10.0030    7.5150  -13.3460 N   0  0  0  0  0  0  0  0  0  0  0  0
  -10.2550    7.3650  -14.6730 N   0  0  0  0  0  0  0  0  0  0  0  0
   -9.6860    6.1810  -14.9820 C   0  0  0  0  0  0  0  0  0  0  0  0
   -9.6630    5.5110  -16.2050 C   0  0  0  0  0  0  0  0  0  0  0  0
   -8.2020    5.4410  -16.7630 C   0  0  0  0  0  0  0  0  0  0  0  0
   -7.0400    5.4410  -16.0450 C   0  0  0  0  0  0  0  0  0  0  0  0
   -5.6500    5.3490  -17.0300 S   0  0  0  0  0  0  0  0  0  0  0  0
   -6.6000    5.3070  -18.4470 C   0  0  0  0  0  0  0  0  0  0  0  0
   -7.9430    5.3610  -18.1640 C   0  0  0  0  0  0  0  0  0  0  0  0
   -9.0990    5.6240  -13.8820 O   0  0  0  0  0  0  0  0  0  0  0  0
   -8.7970    5.3620   -8.6260 S   0  0  0  0  0  0  0  0  0  0  0  0
   -8.3660    4.0490   -7.6080 C   0  0  0  0  0  0  0  0  0  0  0  0
   -8.2040    2.8680   -8.2960 C   0  0  0  0  0  0  0  0  0  0  0  0
   -9.3530    1.9580  -11.2890 H   0  0  0  0  0  0  0  0  0  0  0  0
   -7.6710    2.4280  -11.6040 H   0  0  0  0  0  0  0  0  0  0  0  0
   -8.0090    1.0980  -10.5010 H   0  0  0  0  0  0  0  0  0  0  0  0
   -9.5470    4.1270  -12.0250 H   0  0  0  0  0  0  0  0  0  0  0  0
   -8.4680    6.9070  -11.0290 H   0  0  0  0  0  0  0  0  0  0  0  0
   -9.9140    4.4650  -16.2150 H   0  0  0  0  0  0  0  0  0  0  0  0
  -10.3490    5.8130  -16.9770 H   0  0  0  0  0  0  0  0  0  0  0  0
   -6.9800    5.4920  -14.9660 H   0  0  0  0  0  0  0  0  0  0  0  0
   -6.1310    5.2440  -19.4190 H   0  0  0  0  0  0  0  0  0  0  0  0
   -8.7050    5.3430  -18.9360 H   0  0  0  0  0  0  0  0  0  0  0  0
   -8.2530    4.2070   -6.5440 H   0  0  0  0  0  0  0  0  0  0  0  0
   -7.9390    1.9440   -7.8240 H   0  0  0  0  0  0  0  0  0  0  0  0
  1  2  1  0
  2  3  2  0
  3  4  1  0
  4  5  2  3
  5  6  1  0
  6  7  2  0
  7  8  1  0
  8  9  2  0
  9 10  1  0
 10 11  1  0
 11 12  2  0
 12 13  1  0
 13 14  1  0
 14 15  2  0
  9 16  1  0
  3 17  1  0
 17 18  1  0
 18 19  2  0
 19  2  1  0
 16  6  1  0
 15 11  1  0
  1 20  1  0
  1 21  1  0
  1 22  1  0
  4 23  1  0
  5 24  1  0
 10 25  1  0
 10 26  1  0
 12 27  1  0
 14 28  1  0
 15 29  1  0
 18 30  1  0
 19 31  1  0
A    1
 C1 
A    2
 C2 
A    3
 C3 
A    4
 C4 
A    5
 C5 
A    6
 C6 
A    7
 N1 
A    8
 N2 
A    9
 C7 
A   10
 C8 
A   11
 C9 
A   12
 C10
A   13
 S1 
A   14
 C11
A   15
 C12
A   16
 O1 
A   17
 S2 
A   18
 C13
A   19
 C14
A   20
 H1 
A   21
 H2 
A   22
 H3 
A   23
 H4 
A   24
 H5 
A   25
 H6 
A   26
 H7 
A   27
 H8 
A   28
 H9 
A   29
 H10
A   30
 H11
A   31
 H12
M  END
>  <ref_pdb>  (116) 
x0051_0B

>  <ref_mols>  (116) 
x0404_0B,x0969_0B

>  <original SMILES>  (116) 
[H]C(=C([H])c1sc([H])c([H])c1C([H])([H])[H])c1nnc(C([H])([H])c2c([H])sc([H])c2[H])o1

>  <index>  (116) 
1941

>  <∆∆G>  (116) 
-6.938125

>  <comRMSD>  (116) 
0.304559

>  <N_constrained_atoms>  (116) 
18.0

>  <N_unconstrained_atoms>  (116) 
1.0

>  <LE>  (116) 
0.365164

>  <percent_hybrid>  (116) 
0.0

>  <max_hit_Tanimoto>  (116) 
0.281646

>  <largest_ring>  (116) 
5

>  <N_interactions_kept>  (116) 
0.0

>  <N_interactions_lost>  (116) 
0.0

>  <interaction_uniqueness_metric>  (116) 
0.333055

>  <N_HA>  (116) 
19

>  <N_rotatable_bonds>  (116) 
5

>  <N_interactions>  (116) 
5

>  <N_PAINS>  (116) 
0

>  <UFF_Gibbs>  (116) 
60.74162

>  <strain_per_HA>  (116) 
3.196911

>  <ad_hoc_penalty>  (116) 
-37.660206

>  <cluster>  (116) 
582

>  <merger_rank>  (116) 
1

>  <pication:ARG:29>  (116) 
0

>  <hbond:HIS:51>  (116) 
0

>  <pistack:HIS:51>  (116) 
0

>  <hydroph_interaction:TYR:161>  (116) 
0

>  <pication:HIS:51>  (116) 
1

>  <hydroph_interaction:ALA:132>  (116) 
1

>  <hydroph_interaction:TYR:150>  (116) 
0

>  <hydroph_interaction:LYS:54>  (116) 
0

>  <hbond:SER:135>  (116) 
0

>  <hydroph_interaction:HIS:51>  (116) 
0

>  <hbond:ASP:83>  (116) 
0

>  <hbond:ALA:132>  (116) 
0

>  <halogenbond:SER:81>  (116) 
0

>  <hbond:GLY:82>  (116) 
0

>  <saltbridge:HIS:51>  (116) 
0

>  <pistack:TYR:161>  (116) 
1

>  <hbond:SER:81>  (116) 
0

>  <hbond:ASN:152>  (116) 
0

>  <hbond:GLY:151>  (116) 
0

>  <hydroph_interaction:ASN:152>  (116) 
1

>  <hbond:TYR:161>  (116) 
0

>  <halogenbond:TYR:150>  (116) 
0

>  <hbond:ASP:75>  (116) 
0

>  <hbond:GLY:153>  (116) 
0

>  <hbond:VAL:36>  (116) 
0

>  <hbond:PRO:131>  (116) 
0

>  <hbond:VAL:52>  (116) 
0

>  <hydroph_interaction:ASP:83>  (116) 
1

>  <hydroph_interaction:MET:49>  (116) 
0

>  <hydroph_interaction:VAL:52>  (116) 
0

>  <saltbridge:ASP:83>  (116) 
0

>  <saltbridge:ASP:75>  (116) 
0

>  <hydroph_interaction:TRP:50>  (116) 
0

>  <hydroph_interaction:VAL:72>  (116) 
0

>  <hydroph_interaction:ASP:75>  (116) 
0

>  <halogenbond:ASN:152>  (116) 
0

>  <halogenbond:GLY:153>  (116) 
0

>  <halogenbond:TYR:130>  (116) 
0

>  <hbond:TYR:130>  (116) 
0

>  <halogenbond:ASP:75>  (116) 
0

>  <halogenbond:GLY:151>  (116) 
0

>  <hbond:TYR:150>  (116) 
0

>  <halogenbond:TYR:161>  (116) 
0

>  <hydroph_interaction:ASP:129>  (116) 
0

>  <hbond:ASP:129>  (116) 
0

>  <halogenbond:ALA:132>  (116) 
0

$$$$
PV-007058287313
     RDKit          3D

 24 26  0  0  0  0  0  0  0  0999 V2000
   -8.0550    5.0640  -18.1560 C   0  0  0  0  0  0  0  0  0  0  0  0
   -9.3710    4.6890  -18.2730 C   0  0  0  0  0  0  0  0  0  0  0  0
   -9.9380    4.7560  -17.0330 N   0  0  0  0  0  0  0  0  0  0  0  0
   -9.0080    5.1710  -16.1150 C   0  0  0  0  0  0  0  0  0  0  0  0
   -9.3540    5.3370  -14.6790 C   0  0  0  0  0  0  0  0  0  0  0  0
   -8.3370    4.7940  -13.8070 N   0  0  0  0  0  0  0  0  0  0  0  0
   -8.5470    4.6190  -12.4740 C   0  0  0  0  0  0  0  0  0  0  0  0
   -8.4600    5.5750  -11.5790 N   0  0  0  0  0  0  0  0  0  0  0  0
   -8.7310    4.9800  -10.3920 N   0  0  0  0  0  0  0  0  0  0  0  0
   -8.7820    5.4530   -9.1200 C   0  0  0  0  0  0  0  0  0  0  0  0
   -9.1450    4.2120   -8.3180 C   0  0  0  0  0  0  0  0  0  0  0  0
   -9.2760    3.1400   -9.1590 N   0  0  0  0  0  0  0  0  0  0  0  0
   -9.0220    3.6440  -10.3390 C   0  0  0  0  0  0  0  0  0  0  0  0
   -8.9650    2.9930  -11.8970 S   0  0  0  0  0  0  0  0  0  0  0  0
   -7.8260    5.3660  -16.7900 C   0  0  0  0  0  0  0  0  0  0  0  0
   -7.3370    5.1150  -18.9640 H   0  0  0  0  0  0  0  0  0  0  0  0
   -9.9490    4.3810  -19.1320 H   0  0  0  0  0  0  0  0  0  0  0  0
  -10.8990    4.5350  -16.8110 H   0  0  0  0  0  0  0  0  0  0  0  0
  -10.3190    4.8420  -14.4990 H   0  0  0  0  0  0  0  0  0  0  0  0
   -9.4860    6.4030  -14.4660 H   0  0  0  0  0  0  0  0  0  0  0  0
   -7.9390    3.9240  -14.2020 H   0  0  0  0  0  0  0  0  0  0  0  0
   -8.5910    6.4820   -8.8610 H   0  0  0  0  0  0  0  0  0  0  0  0
   -9.2930    4.1190   -7.2470 H   0  0  0  0  0  0  0  0  0  0  0  0
   -6.8910    5.6940  -16.3560 H   0  0  0  0  0  0  0  0  0  0  0  0
  1  2  2  0
  2  3  1  0
  3  4  1  0
  4  5  1  0
  5  6  1  0
  6  7  1  0
  7  8  2  0
  8  9  1  0
  9 10  1  0
 10 11  2  0
 11 12  1  0
 12 13  2  0
 13 14  1  0
  4 15  2  0
 15  1  1  0
 14  7  1  0
 13  9  1  0
  1 16  1  0
  2 17  1  0
  3 18  1  0
  5 19  1  0
  5 20  1  0
  6 21  1  0
 10 22  1  0
 11 23  1  0
 15 24  1  0
A    1
 C1 
A    2
 C2 
A    3
 N1 
A    4
 C3 
A    5
 C4 
A    6
 N2 
A    7
 C5 
A    8
 N3 
A    9
 N4 
A   10
 C6 
A   11
 C7 
A   12
 N5 
A   13
 C8 
A   14
 S1 
A   15
 C9 
A   16
 H1 
A   17
 H2 
A   18
 H3 
A   19
 H4 
A   20
 H5 
A   21
 H6 
A   22
 H7 
A   23
 H8 
A   24
 H9 
M  END
>  <ref_pdb>  (117) 
x0051_0B

>  <ref_mols>  (117) 
x0969_1B,x0553_0B

>  <original SMILES>  (117) 
[H]c1nc2sc(N([H])C([H])([H])c3c([H])c([H])c([H])n3[H])nn2c1[H]

>  <index>  (117) 
175

>  <∆∆G>  (117) 
-3.69613

>  <comRMSD>  (117) 
0.383601

>  <N_constrained_atoms>  (117) 
15.0

>  <N_unconstrained_atoms>  (117) 
0.0

>  <LE>  (117) 
0.246409

>  <percent_hybrid>  (117) 
0.0

>  <max_hit_Tanimoto>  (117) 
0.171674

>  <largest_ring>  (117) 
5

>  <N_interactions_kept>  (117) 
0.0

>  <N_interactions_lost>  (117) 
0.0

>  <interaction_uniqueness_metric>  (117) 
0.099597

>  <N_HA>  (117) 
15

>  <N_rotatable_bonds>  (117) 
2

>  <N_interactions>  (117) 
6

>  <N_PAINS>  (117) 
0

>  <UFF_Gibbs>  (117) 
39.388842

>  <strain_per_HA>  (117) 
2.625905

>  <ad_hoc_penalty>  (117) 
-37.626089

>  <cluster>  (117) 
4777

>  <merger_rank>  (117) 
2

>  <pication:ARG:29>  (117) 
0

>  <hbond:HIS:51>  (117) 
0

>  <pistack:HIS:51>  (117) 
2

>  <hydroph_interaction:TYR:161>  (117) 
1

>  <pication:HIS:51>  (117) 
0

>  <hydroph_interaction:ALA:132>  (117) 
1

>  <hydroph_interaction:TYR:150>  (117) 
0

>  <hydroph_interaction:LYS:54>  (117) 
0

>  <hbond:SER:135>  (117) 
0

>  <hydroph_interaction:HIS:51>  (117) 
0

>  <hbond:ASP:83>  (117) 
0

>  <hbond:ALA:132>  (117) 
0

>  <halogenbond:SER:81>  (117) 
0

>  <hbond:GLY:82>  (117) 
0

>  <saltbridge:HIS:51>  (117) 
0

>  <pistack:TYR:161>  (117) 
0

>  <hbond:SER:81>  (117) 
0

>  <hbond:ASN:152>  (117) 
0

>  <hbond:GLY:151>  (117) 
0

>  <hydroph_interaction:ASN:152>  (117) 
0

>  <hbond:TYR:161>  (117) 
2

>  <halogenbond:TYR:150>  (117) 
0

>  <hbond:ASP:75>  (117) 
0

>  <hbond:GLY:153>  (117) 
0

>  <hbond:VAL:36>  (117) 
0

>  <hbond:PRO:131>  (117) 
0

>  <hbond:VAL:52>  (117) 
0

>  <hydroph_interaction:ASP:83>  (117) 
0

>  <hydroph_interaction:MET:49>  (117) 
0

>  <hydroph_interaction:VAL:52>  (117) 
0

>  <saltbridge:ASP:83>  (117) 
0

>  <saltbridge:ASP:75>  (117) 
0

>  <hydroph_interaction:TRP:50>  (117) 
0

>  <hydroph_interaction:VAL:72>  (117) 
0

>  <hydroph_interaction:ASP:75>  (117) 
0

>  <halogenbond:ASN:152>  (117) 
0

>  <halogenbond:GLY:153>  (117) 
0

>  <halogenbond:TYR:130>  (117) 
0

>  <hbond:TYR:130>  (117) 
0

>  <halogenbond:ASP:75>  (117) 
0

>  <halogenbond:GLY:151>  (117) 
0

>  <hbond:TYR:150>  (117) 
0

>  <halogenbond:TYR:161>  (117) 
0

>  <hydroph_interaction:ASP:129>  (117) 
0

>  <hbond:ASP:129>  (117) 
0

>  <halogenbond:ALA:132>  (117) 
0

$$$$
Z1420736992
     RDKit          3D

 29 31  0  0  0  0  0  0  0  0999 V2000
   -5.0150    5.3070  -18.8500 C   0  0  0  0  0  0  0  0  0  0  0  0
   -6.2440    5.4380  -17.9530 C   0  0  0  0  0  0  0  0  0  0  0  0
   -7.6080    5.0130  -18.5390 C   0  0  0  0  0  0  0  0  0  0  0  0
   -8.5380    5.2670  -17.4390 C   0  0  0  0  0  0  0  0  0  0  0  0
   -8.0330    5.7770  -16.2830 C   0  0  0  0  0  0  0  0  0  0  0  0
   -8.9150    6.0550  -15.2290 C   0  0  0  0  0  0  0  0  0  0  0  0
  -10.0560    5.6540  -15.0670 O   0  0  0  0  0  0  0  0  0  0  0  0
   -8.3350    6.9820  -14.2560 N   0  0  0  0  0  0  0  0  0  0  0  0
   -8.9500    7.2840  -13.0900 C   0  0  0  0  0  0  0  0  0  0  0  0
   -8.9640    6.2870  -12.1570 C   0  0  0  0  0  0  0  0  0  0  0  0
   -8.8300    6.5750  -10.7580 C   0  0  0  0  0  0  0  0  0  0  0  0
   -8.9010    5.2210  -10.0320 C   0  0  0  0  0  0  0  0  0  0  0  0
   -9.0640    4.1980  -10.9040 C   0  0  0  0  0  0  0  0  0  0  0  0
   -9.1380    2.9240  -10.1650 C   0  0  0  0  0  0  0  0  0  0  0  0
   -9.0140    3.2000   -8.7960 C   0  0  0  0  0  0  0  0  0  0  0  0
   -8.8080    4.8750   -8.3530 S   0  0  0  0  0  0  0  0  0  0  0  0
   -9.1430    4.6060  -12.5570 S   0  0  0  0  0  0  0  0  0  0  0  0
   -6.3290    6.0170  -16.3260 S   0  0  0  0  0  0  0  0  0  0  0  0
   -4.2520    4.6690  -18.3920 H   0  0  0  0  0  0  0  0  0  0  0  0
   -5.2760    4.8710  -19.8180 H   0  0  0  0  0  0  0  0  0  0  0  0
   -4.5570    6.2840  -19.0320 H   0  0  0  0  0  0  0  0  0  0  0  0
   -7.8140    4.6220  -19.5290 H   0  0  0  0  0  0  0  0  0  0  0  0
   -9.6090    5.1320  -17.3560 H   0  0  0  0  0  0  0  0  0  0  0  0
   -7.3270    7.0120  -14.2590 H   0  0  0  0  0  0  0  0  0  0  0  0
   -9.9270    7.6000  -13.4360 H   0  0  0  0  0  0  0  0  0  0  0  0
   -8.5090    8.2660  -12.9030 H   0  0  0  0  0  0  0  0  0  0  0  0
   -8.7040    7.4940  -10.2000 H   0  0  0  0  0  0  0  0  0  0  0  0
   -9.2640    1.9150  -10.5130 H   0  0  0  0  0  0  0  0  0  0  0  0
   -9.0320    2.4660   -7.9940 H   0  0  0  0  0  0  0  0  0  0  0  0
  1  2  1  0
  2  3  2  0
  3  4  1  0
  4  5  2  0
  5  6  1  0
  6  7  2  0
  6  8  1  0
  8  9  1  0
  9 10  1  0
 10 11  2  0
 11 12  1  0
 12 13  2  0
 13 14  1  0
 14 15  2  0
 15 16  1  0
 13 17  1  0
  5 18  1  0
 18  2  1  0
 17 10  1  0
 16 12  1  0
  1 19  1  0
  1 20  1  0
  1 21  1  0
  3 22  1  0
  4 23  1  0
  8 24  1  0
  9 25  1  0
  9 26  1  0
 11 27  1  0
 14 28  1  0
 15 29  1  0
A    1
 C1 
A    2
 C2 
A    3
 C3 
A    4
 C4 
A    5
 C5 
A    6
 C6 
A    7
 O1 
A    8
 N1 
A    9
 C7 
A   10
 C8 
A   11
 C9 
A   12
 C10
A   13
 C11
A   14
 C12
A   15
 C13
A   16
 S1 
A   17
 S2 
A   18
 S3 
A   19
 H1 
A   20
 H2 
A   21
 H3 
A   22
 H4 
A   23
 H5 
A   24
 H6 
A   25
 H7 
A   26
 H8 
A   27
 H9 
A   28
 H10
A   29
 H11
M  END
>  <ref_pdb>  (118) 
x0051_0B

>  <ref_mols>  (118) 
x0404_0B,x0969_0B

>  <original SMILES>  (118) 
[H]c1sc2c([H])c(C([H])([H])N([H])C(=O)c3sc(C([H])([H])[H])c([H])c3[H])sc2c1[H]

>  <index>  (118) 
4439

>  <∆∆G>  (118) 
-6.611897

>  <comRMSD>  (118) 
0.351898

>  <N_constrained_atoms>  (118) 
17.0

>  <N_unconstrained_atoms>  (118) 
1.0

>  <LE>  (118) 
0.367328

>  <percent_hybrid>  (118) 
0.0

>  <max_hit_Tanimoto>  (118) 
0.347007

>  <largest_ring>  (118) 
5

>  <N_interactions_kept>  (118) 
0.0

>  <N_interactions_lost>  (118) 
0.0

>  <interaction_uniqueness_metric>  (118) 
0.113935

>  <N_HA>  (118) 
18

>  <N_rotatable_bonds>  (118) 
4

>  <N_interactions>  (118) 
6

>  <N_PAINS>  (118) 
0

>  <UFF_Gibbs>  (118) 
107.104522

>  <strain_per_HA>  (118) 
5.950218

>  <ad_hoc_penalty>  (118) 
-37.41118

>  <cluster>  (118) 
180

>  <merger_rank>  (118) 
4

>  <pication:ARG:29>  (118) 
0

>  <hbond:HIS:51>  (118) 
0

>  <pistack:HIS:51>  (118) 
2

>  <hydroph_interaction:TYR:161>  (118) 
1

>  <pication:HIS:51>  (118) 
0

>  <hydroph_interaction:ALA:132>  (118) 
1

>  <hydroph_interaction:TYR:150>  (118) 
0

>  <hydroph_interaction:LYS:54>  (118) 
0

>  <hbond:SER:135>  (118) 
1

>  <hydroph_interaction:HIS:51>  (118) 
0

>  <hbond:ASP:83>  (118) 
0

>  <hbond:ALA:132>  (118) 
0

>  <halogenbond:SER:81>  (118) 
0

>  <hbond:GLY:82>  (118) 
0

>  <saltbridge:HIS:51>  (118) 
0

>  <pistack:TYR:161>  (118) 
1

>  <hbond:SER:81>  (118) 
0

>  <hbond:ASN:152>  (118) 
0

>  <hbond:GLY:151>  (118) 
0

>  <hydroph_interaction:ASN:152>  (118) 
0

>  <hbond:TYR:161>  (118) 
0

>  <halogenbond:TYR:150>  (118) 
0

>  <hbond:ASP:75>  (118) 
0

>  <hbond:GLY:153>  (118) 
0

>  <hbond:VAL:36>  (118) 
0

>  <hbond:PRO:131>  (118) 
0

>  <hbond:VAL:52>  (118) 
0

>  <hydroph_interaction:ASP:83>  (118) 
0

>  <hydroph_interaction:MET:49>  (118) 
0

>  <hydroph_interaction:VAL:52>  (118) 
0

>  <saltbridge:ASP:83>  (118) 
0

>  <saltbridge:ASP:75>  (118) 
0

>  <hydroph_interaction:TRP:50>  (118) 
0

>  <hydroph_interaction:VAL:72>  (118) 
0

>  <hydroph_interaction:ASP:75>  (118) 
0

>  <halogenbond:ASN:152>  (118) 
0

>  <halogenbond:GLY:153>  (118) 
0

>  <halogenbond:TYR:130>  (118) 
0

>  <hbond:TYR:130>  (118) 
0

>  <halogenbond:ASP:75>  (118) 
0

>  <halogenbond:GLY:151>  (118) 
0

>  <hbond:TYR:150>  (118) 
0

>  <halogenbond:TYR:161>  (118) 
0

>  <hydroph_interaction:ASP:129>  (118) 
0

>  <hbond:ASP:129>  (118) 
0

>  <halogenbond:ALA:132>  (118) 
0

$$$$
Z53861163
     RDKit          3D

 21 22  0  0  0  0  0  0  0  0999 V2000
   -7.3330    2.0110  -12.0070 Cl  0  0  0  0  0  0  0  0  0  0  0  0
   -8.0020    3.4210  -11.3050 C   0  0  0  0  0  0  0  0  0  0  0  0
   -8.8080    3.1990  -10.0540 C   0  0  0  0  0  0  0  0  0  0  0  0
   -9.3250    4.4130   -9.4290 C   0  0  0  0  0  0  0  0  0  0  0  0
   -9.0750    5.7460  -10.0310 C   0  0  0  0  0  0  0  0  0  0  0  0
   -8.3340    5.8390  -11.2060 C   0  0  0  0  0  0  0  0  0  0  0  0
   -7.8030    4.7090  -11.8350 C   0  0  0  0  0  0  0  0  0  0  0  0
   -7.0630    4.9380  -12.9830 O   0  0  0  0  0  0  0  0  0  0  0  0
   -7.6820    5.0290  -14.2340 C   0  0  0  0  0  0  0  0  0  0  0  0
   -9.0070    5.1130  -14.2090 N   0  0  0  0  0  0  0  0  0  0  0  0
   -9.6070    5.1880  -15.3980 C   0  0  0  0  0  0  0  0  0  0  0  0
   -8.9030    5.1860  -16.6980 C   0  0  0  0  0  0  0  0  0  0  0  0
   -7.5460    5.1030  -16.5500 C   0  0  0  0  0  0  0  0  0  0  0  0
   -6.9220    5.0260  -15.3530 N   0  0  0  0  0  0  0  0  0  0  0  0
   -8.9840    2.2130   -9.6260 H   0  0  0  0  0  0  0  0  0  0  0  0
   -9.8940    4.3200   -8.5160 H   0  0  0  0  0  0  0  0  0  0  0  0
   -9.4240    6.7050   -9.6350 H   0  0  0  0  0  0  0  0  0  0  0  0
   -8.1550    6.8130  -11.6460 H   0  0  0  0  0  0  0  0  0  0  0  0
  -10.6690    5.2480  -15.3290 H   0  0  0  0  0  0  0  0  0  0  0  0
   -9.4050    5.2430  -17.6510 H   0  0  0  0  0  0  0  0  0  0  0  0
   -6.8880    5.0940  -17.4140 H   0  0  0  0  0  0  0  0  0  0  0  0
  1  2  1  0
  2  3  2  0
  3  4  1  0
  4  5  2  0
  5  6  1  0
  6  7  2  0
  7  8  1  0
  8  9  1  0
  9 10  2  0
 10 11  1  0
 11 12  2  0
 12 13  1  0
 13 14  2  0
  7  2  1  0
 14  9  1  0
  3 15  1  0
  4 16  1  0
  5 17  1  0
  6 18  1  0
 11 19  1  0
 12 20  1  0
 13 21  1  0
A    1
CL1 
A    2
 C1 
A    3
 C2 
A    4
 C3 
A    5
 C4 
A    6
 C5 
A    7
 C6 
A    8
 O1 
A    9
 C7 
A   10
 N1 
A   11
 C8 
A   12
 C9 
A   13
 C10
A   14
 N2 
A   15
 H1 
A   16
 H2 
A   17
 H3 
A   18
 H4 
A   19
 H5 
A   20
 H6 
A   21
 H7 
M  END
>  <ref_pdb>  (119) 
x0051_0B

>  <ref_mols>  (119) 
x0969_1B,x0553_0B

>  <original SMILES>  (119) 
[H]c1nc(Oc2c([H])c([H])c([H])c([H])c2Cl)nc([H])c1[H]

>  <index>  (119) 
881

>  <∆∆G>  (119) 
-1.554182

>  <comRMSD>  (119) 
0.533589

>  <N_constrained_atoms>  (119) 
13.0

>  <N_unconstrained_atoms>  (119) 
1.0

>  <LE>  (119) 
0.111013

>  <percent_hybrid>  (119) 
0.0

>  <max_hit_Tanimoto>  (119) 
0.324397

>  <largest_ring>  (119) 
6

>  <N_interactions_kept>  (119) 
0.0

>  <N_interactions_lost>  (119) 
0.0

>  <interaction_uniqueness_metric>  (119) 
0.692479

>  <N_HA>  (119) 
14

>  <N_rotatable_bonds>  (119) 
2

>  <N_interactions>  (119) 
5

>  <N_PAINS>  (119) 
0

>  <UFF_Gibbs>  (119) 
35.503826

>  <strain_per_HA>  (119) 
2.535969

>  <ad_hoc_penalty>  (119) 
-37.400562

>  <cluster>  (119) 
4233

>  <merger_rank>  (119) 
1

>  <pication:ARG:29>  (119) 
0

>  <hbond:HIS:51>  (119) 
0

>  <pistack:HIS:51>  (119) 
0

>  <hydroph_interaction:TYR:161>  (119) 
1

>  <pication:HIS:51>  (119) 
1

>  <hydroph_interaction:ALA:132>  (119) 
0

>  <hydroph_interaction:TYR:150>  (119) 
0

>  <hydroph_interaction:LYS:54>  (119) 
0

>  <hbond:SER:135>  (119) 
0

>  <hydroph_interaction:HIS:51>  (119) 
1

>  <hbond:ASP:83>  (119) 
0

>  <hbond:ALA:132>  (119) 
0

>  <halogenbond:SER:81>  (119) 
0

>  <hbond:GLY:82>  (119) 
0

>  <saltbridge:HIS:51>  (119) 
0

>  <pistack:TYR:161>  (119) 
0

>  <hbond:SER:81>  (119) 
0

>  <hbond:ASN:152>  (119) 
0

>  <hbond:GLY:151>  (119) 
0

>  <hydroph_interaction:ASN:152>  (119) 
0

>  <hbond:TYR:161>  (119) 
1

>  <halogenbond:TYR:150>  (119) 
0

>  <hbond:ASP:75>  (119) 
0

>  <hbond:GLY:153>  (119) 
0

>  <hbond:VAL:36>  (119) 
0

>  <hbond:PRO:131>  (119) 
0

>  <hbond:VAL:52>  (119) 
0

>  <hydroph_interaction:ASP:83>  (119) 
0

>  <hydroph_interaction:MET:49>  (119) 
0

>  <hydroph_interaction:VAL:52>  (119) 
0

>  <saltbridge:ASP:83>  (119) 
0

>  <saltbridge:ASP:75>  (119) 
0

>  <hydroph_interaction:TRP:50>  (119) 
0

>  <hydroph_interaction:VAL:72>  (119) 
0

>  <hydroph_interaction:ASP:75>  (119) 
0

>  <halogenbond:ASN:152>  (119) 
0

>  <halogenbond:GLY:153>  (119) 
1

>  <halogenbond:TYR:130>  (119) 
0

>  <hbond:TYR:130>  (119) 
0

>  <halogenbond:ASP:75>  (119) 
0

>  <halogenbond:GLY:151>  (119) 
0

>  <hbond:TYR:150>  (119) 
0

>  <halogenbond:TYR:161>  (119) 
0

>  <hydroph_interaction:ASP:129>  (119) 
0

>  <hbond:ASP:129>  (119) 
0

>  <halogenbond:ALA:132>  (119) 
0

$$$$
Z666677236
     RDKit          3D

 27 30  0  0  0  0  0  0  0  0999 V2000
  -10.3060    4.8550  -14.6450 O   0  0  0  0  0  0  0  0  0  0  0  0
   -9.3000    5.0760  -14.0150 C   0  0  0  0  0  0  0  0  0  0  0  0
   -9.0660    4.7870  -12.7030 N   0  0  0  0  0  0  0  0  0  0  0  0
   -8.2850    5.6240  -11.9850 C   0  0  0  0  0  0  0  0  0  0  0  0
   -8.5200    5.4510  -10.6200 C   0  0  0  0  0  0  0  0  0  0  0  0
   -8.4200    6.3470   -9.4220 C   0  0  0  0  0  0  0  0  0  0  0  0
   -8.8170    5.4410   -8.3090 C   0  0  0  0  0  0  0  0  0  0  0  0
   -9.1110    4.1750   -8.8350 C   0  0  0  0  0  0  0  0  0  0  0  0
   -8.9420    4.1650  -10.2090 O   0  0  0  0  0  0  0  0  0  0  0  0
   -7.3970    6.4830  -12.4720 N   0  0  0  0  0  0  0  0  0  0  0  0
   -7.3300    6.3770  -13.8520 C   0  0  0  0  0  0  0  0  0  0  0  0
   -8.1920    5.7150  -14.6560 C   0  0  0  0  0  0  0  0  0  0  0  0
   -8.0000    5.6610  -15.9790 C   0  0  0  0  0  0  0  0  0  0  0  0
   -8.9140    4.9570  -16.7430 C   0  0  0  0  0  0  0  0  0  0  0  0
   -8.6360    4.9400  -18.0810 C   0  0  0  0  0  0  0  0  0  0  0  0
   -7.4780    5.6180  -18.6170 C   0  0  0  0  0  0  0  0  0  0  0  0
   -6.6260    6.3060  -17.7390 C   0  0  0  0  0  0  0  0  0  0  0  0
   -6.9020    6.3210  -16.3810 C   0  0  0  0  0  0  0  0  0  0  0  0
   -6.1300    7.0230  -14.9700 S   0  0  0  0  0  0  0  0  0  0  0  0
   -9.7210    4.2230  -12.1860 H   0  0  0  0  0  0  0  0  0  0  0  0
   -8.1180    7.3900   -9.4470 H   0  0  0  0  0  0  0  0  0  0  0  0
   -8.8900    5.6470   -7.2460 H   0  0  0  0  0  0  0  0  0  0  0  0
   -9.4260    3.3420   -8.1990 H   0  0  0  0  0  0  0  0  0  0  0  0
   -9.7800    4.4510  -16.3300 H   0  0  0  0  0  0  0  0  0  0  0  0
   -9.3000    4.4060  -18.7540 H   0  0  0  0  0  0  0  0  0  0  0  0
   -7.2700    5.5960  -19.6850 H   0  0  0  0  0  0  0  0  0  0  0  0
   -5.7500    6.8200  -18.1260 H   0  0  0  0  0  0  0  0  0  0  0  0
  1  2  2  0
  2  3  1  0
  3  4  1  0
  4  5  1  0
  5  6  2  0
  6  7  1  0
  7  8  2  0
  8  9  1  0
  4 10  2  0
 10 11  1  0
 11 12  2  0
 12 13  1  0
 13 14  2  0
 14 15  1  0
 15 16  2  0
 16 17  1  0
 17 18  2  0
 18 19  1  0
 12  2  1  0
  9  5  1  0
 19 11  1  0
 18 13  1  0
  3 20  1  0
  6 21  1  0
  7 22  1  0
  8 23  1  0
 14 24  1  0
 15 25  1  0
 16 26  1  0
 17 27  1  0
A    1
 O1 
A    2
 C1 
A    3
 N1 
A    4
 C2 
A    5
 C3 
A    6
 C4 
A    7
 C5 
A    8
 C6 
A    9
 O2 
A   10
 N2 
A   11
 C7 
A   12
 C8 
A   13
 C9 
A   14
 C10
A   15
 C11
A   16
 C12
A   17
 C13
A   18
 C14
A   19
 S1 
A   20
 H1 
A   21
 H2 
A   22
 H3 
A   23
 H4 
A   24
 H5 
A   25
 H6 
A   26
 H7 
A   27
 H8 
M  END
>  <ref_pdb>  (120) 
x0051_0B

>  <ref_mols>  (120) 
x0404_0B,x0969_0B

>  <original SMILES>  (120) 
[H]c1oc(-c2nc3sc4c([H])c([H])c([H])c([H])c4c3c(=O)n2[H])c([H])c1[H]

>  <index>  (120) 
3797

>  <∆∆G>  (120) 
-4.25112

>  <comRMSD>  (120) 
0.545107

>  <N_constrained_atoms>  (120) 
18.0

>  <N_unconstrained_atoms>  (120) 
1.0

>  <LE>  (120) 
0.223743

>  <percent_hybrid>  (120) 
0.0

>  <max_hit_Tanimoto>  (120) 
0.342349

>  <largest_ring>  (120) 
6

>  <N_interactions_kept>  (120) 
0.0

>  <N_interactions_lost>  (120) 
0.0

>  <interaction_uniqueness_metric>  (120) 
0.10789

>  <N_HA>  (120) 
19

>  <N_rotatable_bonds>  (120) 
1

>  <N_interactions>  (120) 
6

>  <N_PAINS>  (120) 
0

>  <UFF_Gibbs>  (120) 
151.318325

>  <strain_per_HA>  (120) 
7.96408

>  <ad_hoc_penalty>  (120) 
-37.389426

>  <cluster>  (120) 
2207

>  <merger_rank>  (120) 
2

>  <pication:ARG:29>  (120) 
0

>  <hbond:HIS:51>  (120) 
0

>  <pistack:HIS:51>  (120) 
1

>  <hydroph_interaction:TYR:161>  (120) 
2

>  <pication:HIS:51>  (120) 
0

>  <hydroph_interaction:ALA:132>  (120) 
1

>  <hydroph_interaction:TYR:150>  (120) 
0

>  <hydroph_interaction:LYS:54>  (120) 
0

>  <hbond:SER:135>  (120) 
1

>  <hydroph_interaction:HIS:51>  (120) 
1

>  <hbond:ASP:83>  (120) 
0

>  <hbond:ALA:132>  (120) 
0

>  <halogenbond:SER:81>  (120) 
0

>  <hbond:GLY:82>  (120) 
0

>  <saltbridge:HIS:51>  (120) 
0

>  <pistack:TYR:161>  (120) 
0

>  <hbond:SER:81>  (120) 
0

>  <hbond:ASN:152>  (120) 
0

>  <hbond:GLY:151>  (120) 
0

>  <hydroph_interaction:ASN:152>  (120) 
0

>  <hbond:TYR:161>  (120) 
0

>  <halogenbond:TYR:150>  (120) 
0

>  <hbond:ASP:75>  (120) 
0

>  <hbond:GLY:153>  (120) 
0

>  <hbond:VAL:36>  (120) 
0

>  <hbond:PRO:131>  (120) 
0

>  <hbond:VAL:52>  (120) 
0

>  <hydroph_interaction:ASP:83>  (120) 
0

>  <hydroph_interaction:MET:49>  (120) 
0

>  <hydroph_interaction:VAL:52>  (120) 
0

>  <saltbridge:ASP:83>  (120) 
0

>  <saltbridge:ASP:75>  (120) 
0

>  <hydroph_interaction:TRP:50>  (120) 
0

>  <hydroph_interaction:VAL:72>  (120) 
0

>  <hydroph_interaction:ASP:75>  (120) 
0

>  <halogenbond:ASN:152>  (120) 
0

>  <halogenbond:GLY:153>  (120) 
0

>  <halogenbond:TYR:130>  (120) 
0

>  <hbond:TYR:130>  (120) 
0

>  <halogenbond:ASP:75>  (120) 
0

>  <halogenbond:GLY:151>  (120) 
0

>  <hbond:TYR:150>  (120) 
0

>  <halogenbond:TYR:161>  (120) 
0

>  <hydroph_interaction:ASP:129>  (120) 
0

>  <hbond:ASP:129>  (120) 
0

>  <halogenbond:ALA:132>  (120) 
0

$$$$
PV-003539386243
     RDKit          3D

 23 25  0  0  0  0  0  0  0  0999 V2000
   -8.0130    5.5680  -17.0790 C   0  0  0  0  0  0  0  0  0  0  0  0
   -6.8630    5.5300  -16.1500 C   0  0  0  0  0  0  0  0  0  0  0  0
   -7.1370    5.2570  -14.8490 C   0  0  0  0  0  0  0  0  0  0  0  0
   -8.5410    5.0170  -14.4110 C   0  0  0  0  0  0  0  0  0  0  0  0
   -8.7200    4.6970  -12.9290 C   0  0  0  0  0  0  0  0  0  0  0  0
   -8.5870    5.7390  -11.8510 C   0  0  0  0  0  0  0  0  0  0  0  0
   -8.7700    5.2310  -10.5600 C   0  0  0  0  0  0  0  0  0  0  0  0
   -8.7330    5.8660   -9.1340 C   0  0  0  0  0  0  0  0  0  0  0  0
   -8.9730    4.9950   -8.0690 C   0  0  0  0  0  0  0  0  0  0  0  0
   -9.2290    3.6220   -8.4010 C   0  0  0  0  0  0  0  0  0  0  0  0
   -9.2700    3.0480   -9.6090 N   0  0  0  0  0  0  0  0  0  0  0  0
   -9.0400    3.8610  -10.6370 C   0  0  0  0  0  0  0  0  0  0  0  0
   -9.0680    3.1990  -12.2160 S   0  0  0  0  0  0  0  0  0  0  0  0
   -9.5470    5.0710  -15.2760 N   0  0  0  0  0  0  0  0  0  0  0  0
   -9.2850    5.3350  -16.5810 C   0  0  0  0  0  0  0  0  0  0  0  0
   -7.7670    5.7870  -18.1230 H   0  0  0  0  0  0  0  0  0  0  0  0
   -5.7860    5.6790  -16.2850 H   0  0  0  0  0  0  0  0  0  0  0  0
   -6.3170    5.2160  -14.1430 H   0  0  0  0  0  0  0  0  0  0  0  0
   -8.3720    6.8130  -11.8760 H   0  0  0  0  0  0  0  0  0  0  0  0
   -8.5340    6.9210   -8.9760 H   0  0  0  0  0  0  0  0  0  0  0  0
   -8.9640    5.3620   -7.0310 H   0  0  0  0  0  0  0  0  0  0  0  0
   -9.4180    2.9210   -7.5990 H   0  0  0  0  0  0  0  0  0  0  0  0
  -10.1550    5.3560  -17.2310 H   0  0  0  0  0  0  0  0  0  0  0  0
  1  2  2  0
  2  3  1  0
  3  4  2  0
  4  5  1  0
  5  6  2  0
  6  7  1  0
  7  8  2  0
  8  9  1  0
  9 10  2  0
 10 11  1  0
 11 12  2  0
 12 13  1  0
  4 14  1  0
 14 15  2  0
 15  1  1  0
 13  5  1  0
 12  7  1  0
  1 16  1  0
  2 17  1  0
  3 18  1  0
  6 19  1  0
  8 20  1  0
  9 21  1  0
 10 22  1  0
 15 23  1  0
A    1
 C1 
A    2
 C2 
A    3
 C3 
A    4
 C4 
A    5
 C5 
A    6
 C6 
A    7
 C7 
A    8
 C8 
A    9
 C9 
A   10
 C10
A   11
 N1 
A   12
 C11
A   13
 S1 
A   14
 N2 
A   15
 C12
A   16
 H1 
A   17
 H2 
A   18
 H3 
A   19
 H4 
A   20
 H5 
A   21
 H6 
A   22
 H7 
A   23
 H8 
M  END
>  <ref_pdb>  (121) 
x0051_0B

>  <ref_mols>  (121) 
x0969_1B,x0553_0B

>  <original SMILES>  (121) 
[H]c1nc(-c2sc3nc([H])c([H])c([H])c3c2[H])c([H])c([H])c1[H]

>  <index>  (121) 
1595

>  <∆∆G>  (121) 
-3.222189

>  <comRMSD>  (121) 
0.427451

>  <N_constrained_atoms>  (121) 
14.0

>  <N_unconstrained_atoms>  (121) 
1.0

>  <LE>  (121) 
0.214813

>  <percent_hybrid>  (121) 
0.0

>  <max_hit_Tanimoto>  (121) 
0.447314

>  <largest_ring>  (121) 
6

>  <N_interactions_kept>  (121) 
0.0

>  <N_interactions_lost>  (121) 
0.0

>  <interaction_uniqueness_metric>  (121) 
0.107099

>  <N_HA>  (121) 
15

>  <N_rotatable_bonds>  (121) 
1

>  <N_interactions>  (121) 
6

>  <N_PAINS>  (121) 
0

>  <UFF_Gibbs>  (121) 
63.77642

>  <strain_per_HA>  (121) 
4.251733

>  <ad_hoc_penalty>  (121) 
-37.304125

>  <cluster>  (121) 
3681

>  <merger_rank>  (121) 
4

>  <pication:ARG:29>  (121) 
0

>  <hbond:HIS:51>  (121) 
0

>  <pistack:HIS:51>  (121) 
2

>  <hydroph_interaction:TYR:161>  (121) 
1

>  <pication:HIS:51>  (121) 
0

>  <hydroph_interaction:ALA:132>  (121) 
1

>  <hydroph_interaction:TYR:150>  (121) 
0

>  <hydroph_interaction:LYS:54>  (121) 
0

>  <hbond:SER:135>  (121) 
1

>  <hydroph_interaction:HIS:51>  (121) 
1

>  <hbond:ASP:83>  (121) 
0

>  <hbond:ALA:132>  (121) 
0

>  <halogenbond:SER:81>  (121) 
0

>  <hbond:GLY:82>  (121) 
0

>  <saltbridge:HIS:51>  (121) 
0

>  <pistack:TYR:161>  (121) 
0

>  <hbond:SER:81>  (121) 
0

>  <hbond:ASN:152>  (121) 
0

>  <hbond:GLY:151>  (121) 
0

>  <hydroph_interaction:ASN:152>  (121) 
0

>  <hbond:TYR:161>  (121) 
0

>  <halogenbond:TYR:150>  (121) 
0

>  <hbond:ASP:75>  (121) 
0

>  <hbond:GLY:153>  (121) 
0

>  <hbond:VAL:36>  (121) 
0

>  <hbond:PRO:131>  (121) 
0

>  <hbond:VAL:52>  (121) 
0

>  <hydroph_interaction:ASP:83>  (121) 
0

>  <hydroph_interaction:MET:49>  (121) 
0

>  <hydroph_interaction:VAL:52>  (121) 
0

>  <saltbridge:ASP:83>  (121) 
0

>  <saltbridge:ASP:75>  (121) 
0

>  <hydroph_interaction:TRP:50>  (121) 
0

>  <hydroph_interaction:VAL:72>  (121) 
0

>  <hydroph_interaction:ASP:75>  (121) 
0

>  <halogenbond:ASN:152>  (121) 
0

>  <halogenbond:GLY:153>  (121) 
0

>  <halogenbond:TYR:130>  (121) 
0

>  <hbond:TYR:130>  (121) 
0

>  <halogenbond:ASP:75>  (121) 
0

>  <halogenbond:GLY:151>  (121) 
0

>  <hbond:TYR:150>  (121) 
0

>  <halogenbond:TYR:161>  (121) 
0

>  <hydroph_interaction:ASP:129>  (121) 
0

>  <hbond:ASP:129>  (121) 
0

>  <halogenbond:ALA:132>  (121) 
0

$$$$
Z1763889538
     RDKit          3D

 28 29  0  0  0  0  0  0  0  0999 V2000
   -8.9060    4.5320   -7.8940 C   0  0  0  0  0  0  0  0  0  0  0  0
   -8.9220    4.7420   -9.2540 C   0  0  0  0  0  0  0  0  0  0  0  0
   -8.9840    6.0080   -9.8080 C   0  0  0  0  0  0  0  0  0  0  0  0
   -9.0030    6.2210  -11.2700 C   0  0  0  0  0  0  0  0  0  0  0  0
   -8.9580    5.0160  -12.2100 C   0  0  0  0  0  0  0  0  0  0  0  0
   -8.9780    5.0780  -13.6100 N   0  0  0  0  0  0  0  0  0  0  0  0
   -8.5370    6.0440  -14.4480 C   0  0  0  0  0  0  0  0  0  0  0  0
   -8.3180    7.2180  -14.1320 O   0  0  0  0  0  0  0  0  0  0  0  0
   -8.3310    5.6700  -15.7520 C   0  0  0  0  0  0  0  0  0  0  0  0
   -9.1780    4.7500  -16.6050 C   0  0  0  0  0  0  0  0  0  0  0  0
   -8.6290    4.6290  -17.8410 O   0  0  0  0  0  0  0  0  0  0  0  0
   -7.4710    5.4380  -17.8140 C   0  0  0  0  0  0  0  0  0  0  0  0
   -6.7090    5.5120  -18.9540 C   0  0  0  0  0  0  0  0  0  0  0  0
   -7.2940    6.0580  -16.5650 C   0  0  0  0  0  0  0  0  0  0  0  0
   -8.8960    3.8510  -11.5780 N   0  0  0  0  0  0  0  0  0  0  0  0
   -8.8820    3.7090  -10.2210 C   0  0  0  0  0  0  0  0  0  0  0  0
   -7.9870    4.4070   -7.3340 H   0  0  0  0  0  0  0  0  0  0  0  0
   -9.4990    3.6360   -7.6790 H   0  0  0  0  0  0  0  0  0  0  0  0
   -9.4340    5.3600   -7.4100 H   0  0  0  0  0  0  0  0  0  0  0  0
   -9.0190    6.8790   -9.1580 H   0  0  0  0  0  0  0  0  0  0  0  0
   -9.0550    7.2420  -11.6670 H   0  0  0  0  0  0  0  0  0  0  0  0
   -9.3060    4.2090  -14.0600 H   0  0  0  0  0  0  0  0  0  0  0  0
  -10.0880    4.2440  -16.3210 H   0  0  0  0  0  0  0  0  0  0  0  0
   -7.0780    4.7350  -19.6110 H   0  0  0  0  0  0  0  0  0  0  0  0
   -6.8280    6.4300  -19.5270 H   0  0  0  0  0  0  0  0  0  0  0  0
   -5.6390    5.3660  -18.9390 H   0  0  0  0  0  0  0  0  0  0  0  0
   -6.5410    6.7330  -16.1790 H   0  0  0  0  0  0  0  0  0  0  0  0
   -8.8310    2.6690   -9.9010 H   0  0  0  0  0  0  0  0  0  0  0  0
  1  2  1  0
  2  3  2  0
  3  4  1  0
  4  5  2  0
  5  6  1  0
  6  7  1  0
  7  8  2  0
  7  9  1  0
  9 10  2  0
 10 11  1  0
 11 12  1  0
 12 13  1  0
 12 14  2  0
  5 15  1  0
 15 16  2  0
 16  2  1  0
 14  9  1  0
  1 17  1  0
  1 18  1  0
  1 19  1  0
  3 20  1  0
  4 21  1  0
  6 22  1  0
 10 23  1  0
 13 24  1  0
 13 25  1  0
 13 26  1  0
 14 27  1  0
 16 28  1  0
A    1
 C1 
A    2
 C2 
A    3
 C3 
A    4
 C4 
A    5
 C5 
A    6
 N1 
A    7
 C6 
A    8
 O1 
A    9
 C7 
A   10
 C8 
A   11
 O2 
A   12
 C9 
A   13
 C10
A   14
 C11
A   15
 N2 
A   16
 C12
A   17
 H1 
A   18
 H2 
A   19
 H3 
A   20
 H4 
A   21
 H5 
A   22
 H6 
A   23
 H7 
A   24
 H8 
A   25
 H9 
A   26
 H10
A   27
 H11
A   28
 H12
M  END
>  <ref_pdb>  (122) 
x0051_0B

>  <ref_mols>  (122) 
x0404_0B,x0969_0B

>  <original SMILES>  (122) 
[H]c1nc(N([H])C(=O)c2c([H])oc(C([H])([H])[H])c2[H])c([H])c([H])c1C([H])([H])[H]

>  <index>  (122) 
4298

>  <∆∆G>  (122) 
-5.909349

>  <comRMSD>  (122) 
0.354396

>  <N_constrained_atoms>  (122) 
16.0

>  <N_unconstrained_atoms>  (122) 
0.0

>  <LE>  (122) 
0.369334

>  <percent_hybrid>  (122) 
0.0

>  <max_hit_Tanimoto>  (122) 
0.330233

>  <largest_ring>  (122) 
6

>  <N_interactions_kept>  (122) 
0.0

>  <N_interactions_lost>  (122) 
0.0

>  <interaction_uniqueness_metric>  (122) 
0.150484

>  <N_HA>  (122) 
16

>  <N_rotatable_bonds>  (122) 
4

>  <N_interactions>  (122) 
6

>  <N_PAINS>  (122) 
0

>  <UFF_Gibbs>  (122) 
79.986153

>  <strain_per_HA>  (122) 
4.999103

>  <ad_hoc_penalty>  (122) 
-37.268849

>  <cluster>  (122) 
1875

>  <merger_rank>  (122) 
3

>  <pication:ARG:29>  (122) 
0

>  <hbond:HIS:51>  (122) 
0

>  <pistack:HIS:51>  (122) 
1

>  <hydroph_interaction:TYR:161>  (122) 
1

>  <pication:HIS:51>  (122) 
0

>  <hydroph_interaction:ALA:132>  (122) 
1

>  <hydroph_interaction:TYR:150>  (122) 
0

>  <hydroph_interaction:LYS:54>  (122) 
0

>  <hbond:SER:135>  (122) 
0

>  <hydroph_interaction:HIS:51>  (122) 
1

>  <hbond:ASP:83>  (122) 
0

>  <hbond:ALA:132>  (122) 
0

>  <halogenbond:SER:81>  (122) 
0

>  <hbond:GLY:82>  (122) 
0

>  <saltbridge:HIS:51>  (122) 
0

>  <pistack:TYR:161>  (122) 
0

>  <hbond:SER:81>  (122) 
0

>  <hbond:ASN:152>  (122) 
0

>  <hbond:GLY:151>  (122) 
1

>  <hydroph_interaction:ASN:152>  (122) 
0

>  <hbond:TYR:161>  (122) 
1

>  <halogenbond:TYR:150>  (122) 
0

>  <hbond:ASP:75>  (122) 
0

>  <hbond:GLY:153>  (122) 
0

>  <hbond:VAL:36>  (122) 
0

>  <hbond:PRO:131>  (122) 
0

>  <hbond:VAL:52>  (122) 
0

>  <hydroph_interaction:ASP:83>  (122) 
0

>  <hydroph_interaction:MET:49>  (122) 
0

>  <hydroph_interaction:VAL:52>  (122) 
0

>  <saltbridge:ASP:83>  (122) 
0

>  <saltbridge:ASP:75>  (122) 
0

>  <hydroph_interaction:TRP:50>  (122) 
0

>  <hydroph_interaction:VAL:72>  (122) 
0

>  <hydroph_interaction:ASP:75>  (122) 
0

>  <halogenbond:ASN:152>  (122) 
0

>  <halogenbond:GLY:153>  (122) 
0

>  <halogenbond:TYR:130>  (122) 
0

>  <hbond:TYR:130>  (122) 
0

>  <halogenbond:ASP:75>  (122) 
0

>  <halogenbond:GLY:151>  (122) 
0

>  <hbond:TYR:150>  (122) 
0

>  <halogenbond:TYR:161>  (122) 
0

>  <hydroph_interaction:ASP:129>  (122) 
0

>  <hbond:ASP:129>  (122) 
0

>  <halogenbond:ALA:132>  (122) 
0

$$$$
Z28133223
     RDKit          3D

 28 29  0  0  0  0  0  0  0  0999 V2000
   -9.0000    4.3500   -7.9380 C   0  0  0  0  0  0  0  0  0  0  0  0
   -8.9850    4.7400   -9.4100 C   0  0  0  0  0  0  0  0  0  0  0  0
   -9.0010    3.5520  -10.3050 C   0  0  0  0  0  0  0  0  0  0  0  0
   -8.9960    3.7430  -11.6710 C   0  0  0  0  0  0  0  0  0  0  0  0
   -8.9790    5.0350  -12.2330 C   0  0  0  0  0  0  0  0  0  0  0  0
   -8.9800    5.0570  -13.6170 N   0  0  0  0  0  0  0  0  0  0  0  0
   -8.5730    6.0710  -14.4160 C   0  0  0  0  0  0  0  0  0  0  0  0
   -8.4480    7.3700  -14.0300 O   0  0  0  0  0  0  0  0  0  0  0  0
   -8.2880    5.6720  -15.7050 C   0  0  0  0  0  0  0  0  0  0  0  0
   -8.9570    4.6850  -16.3100 N   0  0  0  0  0  0  0  0  0  0  0  0
   -8.4400    4.5340  -17.5780 O   0  0  0  0  0  0  0  0  0  0  0  0
   -7.4470    5.4330  -17.7650 C   0  0  0  0  0  0  0  0  0  0  0  0
   -6.8230    5.4180  -18.9940 C   0  0  0  0  0  0  0  0  0  0  0  0
   -7.3140    6.1640  -16.6190 C   0  0  0  0  0  0  0  0  0  0  0  0
   -8.9670    6.1610  -11.3950 C   0  0  0  0  0  0  0  0  0  0  0  0
   -8.9670    6.0230  -10.0070 C   0  0  0  0  0  0  0  0  0  0  0  0
   -9.6110    5.0340   -7.3420 H   0  0  0  0  0  0  0  0  0  0  0  0
   -9.4090    3.3390   -7.8180 H   0  0  0  0  0  0  0  0  0  0  0  0
   -7.9920    4.3560   -7.5150 H   0  0  0  0  0  0  0  0  0  0  0  0
   -9.0130    2.5580   -9.8750 H   0  0  0  0  0  0  0  0  0  0  0  0
   -9.0070    2.8640  -12.3230 H   0  0  0  0  0  0  0  0  0  0  0  0
   -9.3020    4.2120  -14.0960 H   0  0  0  0  0  0  0  0  0  0  0  0
   -6.8750    4.4930  -19.5570 H   0  0  0  0  0  0  0  0  0  0  0  0
   -7.3530    6.1330  -19.6090 H   0  0  0  0  0  0  0  0  0  0  0  0
   -5.7790    5.6950  -19.0540 H   0  0  0  0  0  0  0  0  0  0  0  0
   -6.5740    6.9480  -16.5450 H   0  0  0  0  0  0  0  0  0  0  0  0
   -8.9570    7.1790  -11.7970 H   0  0  0  0  0  0  0  0  0  0  0  0
   -8.9540    6.9180   -9.3880 H   0  0  0  0  0  0  0  0  0  0  0  0
  1  2  1  0
  2  3  2  0
  3  4  1  0
  4  5  2  0
  5  6  1  0
  6  7  1  0
  7  8  2  0
  7  9  1  0
  9 10  2  0
 10 11  1  0
 11 12  1  0
 12 13  1  0
 12 14  2  0
  5 15  1  0
 15 16  2  0
 16  2  1  0
 14  9  1  0
  1 17  1  0
  1 18  1  0
  1 19  1  0
  3 20  1  0
  4 21  1  0
  6 22  1  0
 13 23  1  0
 13 24  1  0
 13 25  1  0
 14 26  1  0
 15 27  1  0
 16 28  1  0
A    1
 C1 
A    2
 C2 
A    3
 C3 
A    4
 C4 
A    5
 C5 
A    6
 N1 
A    7
 C6 
A    8
 O1 
A    9
 C7 
A   10
 N2 
A   11
 O2 
A   12
 C8 
A   13
 C9 
A   14
 C10
A   15
 C11
A   16
 C12
A   17
 H1 
A   18
 H2 
A   19
 H3 
A   20
 H4 
A   21
 H5 
A   22
 H6 
A   23
 H7 
A   24
 H8 
A   25
 H9 
A   26
 H10
A   27
 H11
A   28
 H12
M  END
>  <ref_pdb>  (123) 
x0051_0B

>  <ref_mols>  (123) 
x0404_0B,x0969_0B

>  <original SMILES>  (123) 
[H]c1c(C(=O)N([H])c2c([H])c([H])c(C([H])([H])[H])c([H])c2[H])noc1C([H])([H])[H]

>  <index>  (123) 
4301

>  <∆∆G>  (123) 
-5.501125

>  <comRMSD>  (123) 
0.230741

>  <N_constrained_atoms>  (123) 
16.0

>  <N_unconstrained_atoms>  (123) 
0.0

>  <LE>  (123) 
0.34382

>  <percent_hybrid>  (123) 
0.0

>  <max_hit_Tanimoto>  (123) 
0.566568

>  <largest_ring>  (123) 
6

>  <N_interactions_kept>  (123) 
0.0

>  <N_interactions_lost>  (123) 
0.0

>  <interaction_uniqueness_metric>  (123) 
0.150484

>  <N_HA>  (123) 
16

>  <N_rotatable_bonds>  (123) 
4

>  <N_interactions>  (123) 
6

>  <N_PAINS>  (123) 
0

>  <UFF_Gibbs>  (123) 
65.050164

>  <strain_per_HA>  (123) 
4.06561

>  <ad_hoc_penalty>  (123) 
-37.214007

>  <cluster>  (123) 
1873

>  <merger_rank>  (123) 
4

>  <pication:ARG:29>  (123) 
0

>  <hbond:HIS:51>  (123) 
0

>  <pistack:HIS:51>  (123) 
1

>  <hydroph_interaction:TYR:161>  (123) 
1

>  <pication:HIS:51>  (123) 
0

>  <hydroph_interaction:ALA:132>  (123) 
1

>  <hydroph_interaction:TYR:150>  (123) 
0

>  <hydroph_interaction:LYS:54>  (123) 
0

>  <hbond:SER:135>  (123) 
0

>  <hydroph_interaction:HIS:51>  (123) 
1

>  <hbond:ASP:83>  (123) 
0

>  <hbond:ALA:132>  (123) 
0

>  <halogenbond:SER:81>  (123) 
0

>  <hbond:GLY:82>  (123) 
0

>  <saltbridge:HIS:51>  (123) 
0

>  <pistack:TYR:161>  (123) 
0

>  <hbond:SER:81>  (123) 
0

>  <hbond:ASN:152>  (123) 
0

>  <hbond:GLY:151>  (123) 
1

>  <hydroph_interaction:ASN:152>  (123) 
0

>  <hbond:TYR:161>  (123) 
1

>  <halogenbond:TYR:150>  (123) 
0

>  <hbond:ASP:75>  (123) 
0

>  <hbond:GLY:153>  (123) 
0

>  <hbond:VAL:36>  (123) 
0

>  <hbond:PRO:131>  (123) 
0

>  <hbond:VAL:52>  (123) 
0

>  <hydroph_interaction:ASP:83>  (123) 
0

>  <hydroph_interaction:MET:49>  (123) 
0

>  <hydroph_interaction:VAL:52>  (123) 
0

>  <saltbridge:ASP:83>  (123) 
0

>  <saltbridge:ASP:75>  (123) 
0

>  <hydroph_interaction:TRP:50>  (123) 
0

>  <hydroph_interaction:VAL:72>  (123) 
0

>  <hydroph_interaction:ASP:75>  (123) 
0

>  <halogenbond:ASN:152>  (123) 
0

>  <halogenbond:GLY:153>  (123) 
0

>  <halogenbond:TYR:130>  (123) 
0

>  <hbond:TYR:130>  (123) 
0

>  <halogenbond:ASP:75>  (123) 
0

>  <halogenbond:GLY:151>  (123) 
0

>  <hbond:TYR:150>  (123) 
0

>  <halogenbond:TYR:161>  (123) 
0

>  <hydroph_interaction:ASP:129>  (123) 
0

>  <hbond:ASP:129>  (123) 
0

>  <halogenbond:ALA:132>  (123) 
0

$$$$
Z1708110379
     RDKit          3D

 27 29  0  0  0  0  0  0  0  0999 V2000
   -9.8440    7.3520  -11.2610 F   0  0  0  0  0  0  0  0  0  0  0  0
   -9.6190    6.1590  -11.8740 C   0  0  0  0  0  0  0  0  0  0  0  0
   -8.7810    5.2220  -11.0240 C   0  0  0  0  0  0  0  0  0  0  0  0
   -9.3970    4.0520  -10.4110 C   0  0  0  0  0  0  0  0  0  0  0  0
   -8.6440    3.2020   -9.6500 C   0  0  0  0  0  0  0  0  0  0  0  0
   -7.2940    3.4320   -9.4470 C   0  0  0  0  0  0  0  0  0  0  0  0
   -6.6740    4.5450  -10.0240 C   0  0  0  0  0  0  0  0  0  0  0  0
   -7.3330    5.4870  -10.8210 C   0  0  0  0  0  0  0  0  0  0  0  0
   -8.9190    6.3420  -13.1760 C   0  0  0  0  0  0  0  0  0  0  0  0
   -8.9540    5.5630  -14.2400 N   0  0  0  0  0  0  0  0  0  0  0  0
   -8.1280    6.2310  -15.0780 C   0  0  0  0  0  0  0  0  0  0  0  0
   -7.7810    5.8710  -16.3770 C   0  0  0  0  0  0  0  0  0  0  0  0
   -8.6520    5.1280  -17.2180 C   0  0  0  0  0  0  0  0  0  0  0  0
   -8.0050    4.9600  -18.4220 C   0  0  0  0  0  0  0  0  0  0  0  0
   -6.7430    5.5110  -18.5240 C   0  0  0  0  0  0  0  0  0  0  0  0
   -6.2840    6.2970  -17.0680 S   0  0  0  0  0  0  0  0  0  0  0  0
   -7.6160    7.3410  -14.5760 N   0  0  0  0  0  0  0  0  0  0  0  0
   -8.1930    7.3530  -13.2960 O   0  0  0  0  0  0  0  0  0  0  0  0
  -10.6010    5.7100  -12.0710 H   0  0  0  0  0  0  0  0  0  0  0  0
  -10.4510    3.8490  -10.5570 H   0  0  0  0  0  0  0  0  0  0  0  0
   -8.9840    2.3060   -9.1460 H   0  0  0  0  0  0  0  0  0  0  0  0
   -6.8060    2.7040   -8.8340 H   0  0  0  0  0  0  0  0  0  0  0  0
   -5.6110    4.6870   -9.8380 H   0  0  0  0  0  0  0  0  0  0  0  0
   -6.9400    6.3680  -11.3030 H   0  0  0  0  0  0  0  0  0  0  0  0
   -9.6330    4.7840  -16.9250 H   0  0  0  0  0  0  0  0  0  0  0  0
   -8.4760    4.4220  -19.2370 H   0  0  0  0  0  0  0  0  0  0  0  0
   -6.0710    5.4910  -19.3740 H   0  0  0  0  0  0  0  0  0  0  0  0
  1  2  1  0
  2  3  1  0
  3  4  2  0
  4  5  1  0
  5  6  2  0
  6  7  1  0
  7  8  2  0
  2  9  1  0
  9 10  2  0
 10 11  1  0
 11 12  1  0
 12 13  2  0
 13 14  1  0
 14 15  2  0
 15 16  1  0
 11 17  2  0
 17 18  1  0
  8  3  1  0
 18  9  1  0
 16 12  1  0
  2 19  1  0
  4 20  1  0
  5 21  1  0
  6 22  1  0
  7 23  1  0
  8 24  1  0
 13 25  1  0
 14 26  1  0
 15 27  1  0
A    1
 F1 
A    2
 C1 
A    3
 C2 
A    4
 C3 
A    5
 C4 
A    6
 C5 
A    7
 C6 
A    8
 C7 
A    9
 C8 
A   10
 N1 
A   11
 C9 
A   12
 C10
A   13
 C11
A   14
 C12
A   15
 C13
A   16
 S1 
A   17
 N2 
A   18
 O1 
A   19
 H1 
A   20
 H2 
A   21
 H3 
A   22
 H4 
A   23
 H5 
A   24
 H6 
A   25
 H7 
A   26
 H8 
A   27
 H9 
M  END
>  <ref_pdb>  (124) 
x0051_0B

>  <ref_mols>  (124) 
x0404_0B,x0969_0B

>  <original SMILES>  (124) 
[H]c1sc(-c2noc(C([H])(F)c3c([H])c([H])c([H])c([H])c3[H])n2)c([H])c1[H]

>  <index>  (124) 
2263

>  <∆∆G>  (124) 
-5.251202

>  <comRMSD>  (124) 
0.336268

>  <N_constrained_atoms>  (124) 
18.0

>  <N_unconstrained_atoms>  (124) 
0.0

>  <LE>  (124) 
0.291733

>  <percent_hybrid>  (124) 
0.0

>  <max_hit_Tanimoto>  (124) 
0.29038

>  <largest_ring>  (124) 
6

>  <N_interactions_kept>  (124) 
0.0

>  <N_interactions_lost>  (124) 
0.0

>  <interaction_uniqueness_metric>  (124) 
0.199923

>  <N_HA>  (124) 
18

>  <N_rotatable_bonds>  (124) 
3

>  <N_interactions>  (124) 
5

>  <N_PAINS>  (124) 
0

>  <UFF_Gibbs>  (124) 
44.929793

>  <strain_per_HA>  (124) 
2.496086

>  <ad_hoc_penalty>  (124) 
-37.146353

>  <cluster>  (124) 
3184

>  <merger_rank>  (124) 
2

>  <pication:ARG:29>  (124) 
0

>  <hbond:HIS:51>  (124) 
0

>  <pistack:HIS:51>  (124) 
0

>  <hydroph_interaction:TYR:161>  (124) 
2

>  <pication:HIS:51>  (124) 
0

>  <hydroph_interaction:ALA:132>  (124) 
0

>  <hydroph_interaction:TYR:150>  (124) 
0

>  <hydroph_interaction:LYS:54>  (124) 
0

>  <hbond:SER:135>  (124) 
1

>  <hydroph_interaction:HIS:51>  (124) 
1

>  <hbond:ASP:83>  (124) 
0

>  <hbond:ALA:132>  (124) 
0

>  <halogenbond:SER:81>  (124) 
0

>  <hbond:GLY:82>  (124) 
0

>  <saltbridge:HIS:51>  (124) 
0

>  <pistack:TYR:161>  (124) 
0

>  <hbond:SER:81>  (124) 
0

>  <hbond:ASN:152>  (124) 
0

>  <hbond:GLY:151>  (124) 
0

>  <hydroph_interaction:ASN:152>  (124) 
0

>  <hbond:TYR:161>  (124) 
0

>  <halogenbond:TYR:150>  (124) 
0

>  <hbond:ASP:75>  (124) 
0

>  <hbond:GLY:153>  (124) 
0

>  <hbond:VAL:36>  (124) 
0

>  <hbond:PRO:131>  (124) 
0

>  <hbond:VAL:52>  (124) 
0

>  <hydroph_interaction:ASP:83>  (124) 
1

>  <hydroph_interaction:MET:49>  (124) 
0

>  <hydroph_interaction:VAL:52>  (124) 
0

>  <saltbridge:ASP:83>  (124) 
0

>  <saltbridge:ASP:75>  (124) 
0

>  <hydroph_interaction:TRP:50>  (124) 
0

>  <hydroph_interaction:VAL:72>  (124) 
0

>  <hydroph_interaction:ASP:75>  (124) 
0

>  <halogenbond:ASN:152>  (124) 
0

>  <halogenbond:GLY:153>  (124) 
0

>  <halogenbond:TYR:130>  (124) 
0

>  <hbond:TYR:130>  (124) 
0

>  <halogenbond:ASP:75>  (124) 
0

>  <halogenbond:GLY:151>  (124) 
0

>  <hbond:TYR:150>  (124) 
0

>  <halogenbond:TYR:161>  (124) 
0

>  <hydroph_interaction:ASP:129>  (124) 
0

>  <hbond:ASP:129>  (124) 
0

>  <halogenbond:ALA:132>  (124) 
0

$$$$
PV-002998443645
     RDKit          3D

 24 26  0  0  0  0  0  0  0  0999 V2000
  -10.5110    4.8240  -18.1890 C   0  0  0  0  0  0  0  0  0  0  0  0
   -9.6230    4.9780  -16.9430 C   0  0  0  0  0  0  0  0  0  0  0  0
   -8.1640    5.0260  -17.0350 C   0  0  0  0  0  0  0  0  0  0  0  0
   -7.6720    5.1510  -15.7940 C   0  0  0  0  0  0  0  0  0  0  0  0
   -8.8000    5.1910  -14.8560 C   0  0  0  0  0  0  0  0  0  0  0  0
   -8.7410    5.3200  -13.3630 C   0  0  0  0  0  0  0  0  0  0  0  0
   -9.0510    4.1630  -12.5220 C   0  0  0  0  0  0  0  0  0  0  0  0
   -8.9840    4.3130  -11.1400 C   0  0  0  0  0  0  0  0  0  0  0  0
   -8.6120    5.6090  -10.7570 C   0  0  0  0  0  0  0  0  0  0  0  0
   -8.3250    6.6780  -11.5310 N   0  0  0  0  0  0  0  0  0  0  0  0
   -8.3920    6.5240  -12.8510 N   0  0  0  0  0  0  0  0  0  0  0  0
   -8.5920    5.5960   -9.4180 N   0  0  0  0  0  0  0  0  0  0  0  0
   -8.9340    4.3500   -8.9280 C   0  0  0  0  0  0  0  0  0  0  0  0
   -9.1820    3.5360   -9.9810 C   0  0  0  0  0  0  0  0  0  0  0  0
   -9.9960    5.0880  -15.6030 O   0  0  0  0  0  0  0  0  0  0  0  0
  -10.8170    5.7680  -18.6280 H   0  0  0  0  0  0  0  0  0  0  0  0
   -9.9890    4.2510  -18.9630 H   0  0  0  0  0  0  0  0  0  0  0  0
  -11.4310    4.3040  -17.9470 H   0  0  0  0  0  0  0  0  0  0  0  0
   -7.5460    4.9700  -17.9270 H   0  0  0  0  0  0  0  0  0  0  0  0
   -6.6300    5.2130  -15.5090 H   0  0  0  0  0  0  0  0  0  0  0  0
   -9.3270    3.2130  -12.9540 H   0  0  0  0  0  0  0  0  0  0  0  0
   -8.3550    6.4000   -8.8610 H   0  0  0  0  0  0  0  0  0  0  0  0
   -8.9640    4.1660   -7.8580 H   0  0  0  0  0  0  0  0  0  0  0  0
   -9.4750    2.4940   -9.9290 H   0  0  0  0  0  0  0  0  0  0  0  0
  1  2  1  0
  2  3  2  0
  3  4  1  0
  4  5  2  0
  5  6  1  0
  6  7  2  0
  7  8  1  0
  8  9  2  0
  9 10  1  0
 10 11  2  0
  9 12  1  0
 12 13  1  0
 13 14  2  0
  5 15  1  0
 15  2  1  0
 11  6  1  0
 14  8  1  0
  1 16  1  0
  1 17  1  0
  1 18  1  0
  3 19  1  0
  4 20  1  0
  7 21  1  0
 12 22  1  0
 13 23  1  0
 14 24  1  0
A    1
 C1 
A    2
 C2 
A    3
 C3 
A    4
 C4 
A    5
 C5 
A    6
 C6 
A    7
 C7 
A    8
 C8 
A    9
 C9 
A   10
 N1 
A   11
 N2 
A   12
 N3 
A   13
 C10
A   14
 C11
A   15
 O1 
A   16
 H1 
A   17
 H2 
A   18
 H3 
A   19
 H4 
A   20
 H5 
A   21
 H6 
A   22
 H7 
A   23
 H8 
A   24
 H9 
M  END
>  <ref_pdb>  (125) 
x0051_0B

>  <ref_mols>  (125) 
x0969_1B,x0553_0B

>  <original SMILES>  (125) 
[H]c1c(-c2nnc3c(c2[H])c([H])c([H])n3[H])oc(C([H])([H])[H])c1[H]

>  <index>  (125) 
1122

>  <∆∆G>  (125) 
-5.385129

>  <comRMSD>  (125) 
0.998764

>  <N_constrained_atoms>  (125) 
14.0

>  <N_unconstrained_atoms>  (125) 
1.0

>  <LE>  (125) 
0.359009

>  <percent_hybrid>  (125) 
0.0

>  <max_hit_Tanimoto>  (125) 
0.390164

>  <largest_ring>  (125) 
6

>  <N_interactions_kept>  (125) 
0.0

>  <N_interactions_lost>  (125) 
0.0

>  <interaction_uniqueness_metric>  (125) 
0.118463

>  <N_HA>  (125) 
15

>  <N_rotatable_bonds>  (125) 
2

>  <N_interactions>  (125) 
5

>  <N_PAINS>  (125) 
0

>  <UFF_Gibbs>  (125) 
49.235714

>  <strain_per_HA>  (125) 
3.282359

>  <ad_hoc_penalty>  (125) 
-36.932451

>  <cluster>  (125) 
283

>  <merger_rank>  (125) 
1

>  <pication:ARG:29>  (125) 
0

>  <hbond:HIS:51>  (125) 
0

>  <pistack:HIS:51>  (125) 
2

>  <hydroph_interaction:TYR:161>  (125) 
1

>  <pication:HIS:51>  (125) 
0

>  <hydroph_interaction:ALA:132>  (125) 
0

>  <hydroph_interaction:TYR:150>  (125) 
1

>  <hydroph_interaction:LYS:54>  (125) 
0

>  <hbond:SER:135>  (125) 
0

>  <hydroph_interaction:HIS:51>  (125) 
1

>  <hbond:ASP:83>  (125) 
0

>  <hbond:ALA:132>  (125) 
0

>  <halogenbond:SER:81>  (125) 
0

>  <hbond:GLY:82>  (125) 
0

>  <saltbridge:HIS:51>  (125) 
0

>  <pistack:TYR:161>  (125) 
0

>  <hbond:SER:81>  (125) 
0

>  <hbond:ASN:152>  (125) 
0

>  <hbond:GLY:151>  (125) 
0

>  <hydroph_interaction:ASN:152>  (125) 
0

>  <hbond:TYR:161>  (125) 
0

>  <halogenbond:TYR:150>  (125) 
0

>  <hbond:ASP:75>  (125) 
0

>  <hbond:GLY:153>  (125) 
0

>  <hbond:VAL:36>  (125) 
0

>  <hbond:PRO:131>  (125) 
0

>  <hbond:VAL:52>  (125) 
0

>  <hydroph_interaction:ASP:83>  (125) 
0

>  <hydroph_interaction:MET:49>  (125) 
0

>  <hydroph_interaction:VAL:52>  (125) 
0

>  <saltbridge:ASP:83>  (125) 
0

>  <saltbridge:ASP:75>  (125) 
0

>  <hydroph_interaction:TRP:50>  (125) 
0

>  <hydroph_interaction:VAL:72>  (125) 
0

>  <hydroph_interaction:ASP:75>  (125) 
0

>  <halogenbond:ASN:152>  (125) 
0

>  <halogenbond:GLY:153>  (125) 
0

>  <halogenbond:TYR:130>  (125) 
0

>  <hbond:TYR:130>  (125) 
0

>  <halogenbond:ASP:75>  (125) 
0

>  <halogenbond:GLY:151>  (125) 
0

>  <hbond:TYR:150>  (125) 
0

>  <halogenbond:TYR:161>  (125) 
0

>  <hydroph_interaction:ASP:129>  (125) 
0

>  <hbond:ASP:129>  (125) 
0

>  <halogenbond:ALA:132>  (125) 
0

$$$$
Z737274914
     RDKit          3D

 28 30  0  0  0  0  0  0  0  0999 V2000
   -9.6460    7.0020  -10.5110 O   0  0  0  0  0  0  0  0  0  0  0  0
   -8.9900    5.9740  -10.6210 C   0  0  0  0  0  0  0  0  0  0  0  0
   -8.1420    5.6970  -11.6420 N   0  0  0  0  0  0  0  0  0  0  0  0
   -8.4420    5.8700  -12.9560 C   0  0  0  0  0  0  0  0  0  0  0  0
   -7.7800    5.4560  -13.9790 N   0  0  0  0  0  0  0  0  0  0  0  0
   -8.4490    5.8540  -15.1050 C   0  0  0  0  0  0  0  0  0  0  0  0
   -7.9050    5.5290  -16.3570 C   0  0  0  0  0  0  0  0  0  0  0  0
   -6.5460    5.5130  -16.5470 C   0  0  0  0  0  0  0  0  0  0  0  0
   -6.1610    5.1780  -17.9090 C   0  0  0  0  0  0  0  0  0  0  0  0
   -6.9610    4.8780  -19.0100 C   0  0  0  0  0  0  0  0  0  0  0  0
   -8.3230    4.9210  -18.6750 C   0  0  0  0  0  0  0  0  0  0  0  0
   -8.7670    5.2360  -17.3900 C   0  0  0  0  0  0  0  0  0  0  0  0
   -9.6110    6.5610  -14.9750 N   0  0  0  0  0  0  0  0  0  0  0  0
   -9.8620    6.7400  -13.3330 S   0  0  0  0  0  0  0  0  0  0  0  0
   -9.0460    4.9520   -9.6310 C   0  0  0  0  0  0  0  0  0  0  0  0
   -9.2050    3.5250   -9.7140 C   0  0  0  0  0  0  0  0  0  0  0  0
   -9.1860    3.1060   -8.4210 C   0  0  0  0  0  0  0  0  0  0  0  0
   -9.0230    4.2160   -7.5660 C   0  0  0  0  0  0  0  0  0  0  0  0
   -8.9400    5.3420   -8.3170 O   0  0  0  0  0  0  0  0  0  0  0  0
   -7.2920    5.1930  -11.4580 H   0  0  0  0  0  0  0  0  0  0  0  0
   -5.8350    5.7320  -15.7640 H   0  0  0  0  0  0  0  0  0  0  0  0
   -5.0990    5.1520  -18.1090 H   0  0  0  0  0  0  0  0  0  0  0  0
   -6.6390    4.6330  -20.0130 H   0  0  0  0  0  0  0  0  0  0  0  0
   -9.0660    4.7060  -19.4290 H   0  0  0  0  0  0  0  0  0  0  0  0
   -9.8280    5.2650  -17.1630 H   0  0  0  0  0  0  0  0  0  0  0  0
   -9.3170    2.8740  -10.5670 H   0  0  0  0  0  0  0  0  0  0  0  0
   -9.2820    2.0820   -8.0840 H   0  0  0  0  0  0  0  0  0  0  0  0
   -8.9530    4.3400   -6.4940 H   0  0  0  0  0  0  0  0  0  0  0  0
  1  2  2  0
  2  3  1  0
  3  4  1  0
  4  5  2  0
  5  6  1  0
  6  7  1  0
  7  8  2  0
  8  9  1  0
  9 10  2  0
 10 11  1  0
 11 12  2  0
  6 13  2  0
 13 14  1  0
  2 15  1  0
 15 16  2  0
 16 17  1  0
 17 18  2  0
 18 19  1  0
 14  4  1  0
 12  7  1  0
 19 15  1  0
  3 20  1  0
  8 21  1  0
  9 22  1  0
 10 23  1  0
 11 24  1  0
 12 25  1  0
 16 26  1  0
 17 27  1  0
 18 28  1  0
A    1
 O1 
A    2
 C1 
A    3
 N1 
A    4
 C2 
A    5
 N2 
A    6
 C3 
A    7
 C4 
A    8
 C5 
A    9
 C6 
A   10
 C7 
A   11
 C8 
A   12
 C9 
A   13
 N3 
A   14
 S1 
A   15
 C10
A   16
 C11
A   17
 C12
A   18
 C13
A   19
 O2 
A   20
 H1 
A   21
 H2 
A   22
 H3 
A   23
 H4 
A   24
 H5 
A   25
 H6 
A   26
 H7 
A   27
 H8 
A   28
 H9 
M  END
>  <ref_pdb>  (126) 
x0051_0B

>  <ref_mols>  (126) 
x0404_0B,x0969_0B

>  <original SMILES>  (126) 
[H]c1oc(C(=O)N([H])c2nc(-c3c([H])c([H])c([H])c([H])c3[H])ns2)c([H])c1[H]

>  <index>  (126) 
3628

>  <∆∆G>  (126) 
-5.860602

>  <comRMSD>  (126) 
0.464769

>  <N_constrained_atoms>  (126) 
18.0

>  <N_unconstrained_atoms>  (126) 
1.0

>  <LE>  (126) 
0.308453

>  <percent_hybrid>  (126) 
0.0

>  <max_hit_Tanimoto>  (126) 
0.258002

>  <largest_ring>  (126) 
6

>  <N_interactions_kept>  (126) 
0.0

>  <N_interactions_lost>  (126) 
0.0

>  <interaction_uniqueness_metric>  (126) 
0.165908

>  <N_HA>  (126) 
19

>  <N_rotatable_bonds>  (126) 
3

>  <N_interactions>  (126) 
5

>  <N_PAINS>  (126) 
0

>  <UFF_Gibbs>  (126) 
63.250506

>  <strain_per_HA>  (126) 
3.328956

>  <ad_hoc_penalty>  (126) 
-36.92902

>  <cluster>  (126) 
2326

>  <merger_rank>  (126) 
1

>  <pication:ARG:29>  (126) 
0

>  <hbond:HIS:51>  (126) 
0

>  <pistack:HIS:51>  (126) 
0

>  <hydroph_interaction:TYR:161>  (126) 
1

>  <pication:HIS:51>  (126) 
0

>  <hydroph_interaction:ALA:132>  (126) 
1

>  <hydroph_interaction:TYR:150>  (126) 
0

>  <hydroph_interaction:LYS:54>  (126) 
0

>  <hbond:SER:135>  (126) 
0

>  <hydroph_interaction:HIS:51>  (126) 
1

>  <hbond:ASP:83>  (126) 
0

>  <hbond:ALA:132>  (126) 
1

>  <halogenbond:SER:81>  (126) 
0

>  <hbond:GLY:82>  (126) 
0

>  <saltbridge:HIS:51>  (126) 
0

>  <pistack:TYR:161>  (126) 
1

>  <hbond:SER:81>  (126) 
0

>  <hbond:ASN:152>  (126) 
0

>  <hbond:GLY:151>  (126) 
0

>  <hydroph_interaction:ASN:152>  (126) 
0

>  <hbond:TYR:161>  (126) 
0

>  <halogenbond:TYR:150>  (126) 
0

>  <hbond:ASP:75>  (126) 
0

>  <hbond:GLY:153>  (126) 
0

>  <hbond:VAL:36>  (126) 
0

>  <hbond:PRO:131>  (126) 
0

>  <hbond:VAL:52>  (126) 
0

>  <hydroph_interaction:ASP:83>  (126) 
0

>  <hydroph_interaction:MET:49>  (126) 
0

>  <hydroph_interaction:VAL:52>  (126) 
0

>  <saltbridge:ASP:83>  (126) 
0

>  <saltbridge:ASP:75>  (126) 
0

>  <hydroph_interaction:TRP:50>  (126) 
0

>  <hydroph_interaction:VAL:72>  (126) 
0

>  <hydroph_interaction:ASP:75>  (126) 
0

>  <halogenbond:ASN:152>  (126) 
0

>  <halogenbond:GLY:153>  (126) 
0

>  <halogenbond:TYR:130>  (126) 
0

>  <hbond:TYR:130>  (126) 
0

>  <halogenbond:ASP:75>  (126) 
0

>  <halogenbond:GLY:151>  (126) 
0

>  <hbond:TYR:150>  (126) 
0

>  <halogenbond:TYR:161>  (126) 
0

>  <hydroph_interaction:ASP:129>  (126) 
0

>  <hbond:ASP:129>  (126) 
0

>  <halogenbond:ALA:132>  (126) 
0

$$$$
Z1724217231
     RDKit          3D

 26 28  0  0  0  0  0  0  0  0999 V2000
   -9.1850    2.4720   -9.2760 C   0  0  0  0  0  0  0  0  0  0  0  0
   -8.9900    3.9230   -9.6660 C   0  0  0  0  0  0  0  0  0  0  0  0
   -8.9410    4.8800   -8.6000 N   0  0  0  0  0  0  0  0  0  0  0  0
   -8.7720    6.1250   -9.1320 N   0  0  0  0  0  0  0  0  0  0  0  0
   -8.6930    6.1280  -10.5140 C   0  0  0  0  0  0  0  0  0  0  0  0
   -8.4720    7.6240  -11.3080 S   0  0  0  0  0  0  0  0  0  0  0  0
   -8.9050    7.0870  -12.8890 C   0  0  0  0  0  0  0  0  0  0  0  0
   -8.0470    6.5510  -13.8070 N   0  0  0  0  0  0  0  0  0  0  0  0
   -8.6900    6.2850  -14.9120 C   0  0  0  0  0  0  0  0  0  0  0  0
   -8.0280    5.7750  -16.0770 C   0  0  0  0  0  0  0  0  0  0  0  0
   -6.6380    5.7860  -16.2300 C   0  0  0  0  0  0  0  0  0  0  0  0
   -6.2640    5.2740  -17.4940 C   0  0  0  0  0  0  0  0  0  0  0  0
   -7.1720    4.7840  -18.5320 C   0  0  0  0  0  0  0  0  0  0  0  0
   -8.5060    4.8000  -18.2700 C   0  0  0  0  0  0  0  0  0  0  0  0
   -8.9330    5.2890  -17.0550 C   0  0  0  0  0  0  0  0  0  0  0  0
  -10.0340    6.5250  -15.0080 N   0  0  0  0  0  0  0  0  0  0  0  0
  -10.4870    7.1930  -13.5590 S   0  0  0  0  0  0  0  0  0  0  0  0
   -8.8280    4.5700  -11.2540 S   0  0  0  0  0  0  0  0  0  0  0  0
   -8.9120    2.3020   -8.2300 H   0  0  0  0  0  0  0  0  0  0  0  0
  -10.2260    2.1780   -9.3940 H   0  0  0  0  0  0  0  0  0  0  0  0
   -8.5700    1.8210   -9.9050 H   0  0  0  0  0  0  0  0  0  0  0  0
   -5.9030    6.1370  -15.5190 H   0  0  0  0  0  0  0  0  0  0  0  0
   -5.2180    5.2240  -17.7660 H   0  0  0  0  0  0  0  0  0  0  0  0
   -6.7890    4.4210  -19.4740 H   0  0  0  0  0  0  0  0  0  0  0  0
   -9.1910    4.4330  -19.0270 H   0  0  0  0  0  0  0  0  0  0  0  0
   -9.9820    5.3350  -16.7920 H   0  0  0  0  0  0  0  0  0  0  0  0
  1  2  1  0
  2  3  2  0
  3  4  1  0
  4  5  2  0
  5  6  1  0
  6  7  1  0
  7  8  2  0
  8  9  1  0
  9 10  1  0
 10 11  2  0
 11 12  1  0
 12 13  2  0
 13 14  1  0
 14 15  2  0
  9 16  2  0
 16 17  1  0
  5 18  1  0
 18  2  1  0
 17  7  1  0
 15 10  1  0
  1 19  1  0
  1 20  1  0
  1 21  1  0
 11 22  1  0
 12 23  1  0
 13 24  1  0
 14 25  1  0
 15 26  1  0
A    1
 C1 
A    2
 C2 
A    3
 N1 
A    4
 N2 
A    5
 C3 
A    6
 S1 
A    7
 C4 
A    8
 N3 
A    9
 C5 
A   10
 C6 
A   11
 C7 
A   12
 C8 
A   13
 C9 
A   14
 C10
A   15
 C11
A   16
 N4 
A   17
 S2 
A   18
 S3 
A   19
 H1 
A   20
 H2 
A   21
 H3 
A   22
 H4 
A   23
 H5 
A   24
 H6 
A   25
 H7 
A   26
 H8 
M  END
>  <ref_pdb>  (127) 
x0051_0B

>  <ref_mols>  (127) 
x0404_0B,x0969_0B

>  <original SMILES>  (127) 
[H]c1c([H])c([H])c(-c2nsc(Sc3nnc(C([H])([H])[H])s3)n2)c([H])c1[H]

>  <index>  (127) 
4383

>  <∆∆G>  (127) 
-6.567003

>  <comRMSD>  (127) 
0.309671

>  <N_constrained_atoms>  (127) 
18.0

>  <N_unconstrained_atoms>  (127) 
0.0

>  <LE>  (127) 
0.364833

>  <percent_hybrid>  (127) 
0.0

>  <max_hit_Tanimoto>  (127) 
0.335046

>  <largest_ring>  (127) 
6

>  <N_interactions_kept>  (127) 
0.0

>  <N_interactions_lost>  (127) 
0.0

>  <interaction_uniqueness_metric>  (127) 
0.176445

>  <N_HA>  (127) 
18

>  <N_rotatable_bonds>  (127) 
4

>  <N_interactions>  (127) 
5

>  <N_PAINS>  (127) 
0

>  <UFF_Gibbs>  (127) 
58.302171

>  <strain_per_HA>  (127) 
3.238992

>  <ad_hoc_penalty>  (127) 
-36.925968

>  <cluster>  (127) 
1797

>  <merger_rank>  (127) 
3

>  <pication:ARG:29>  (127) 
0

>  <hbond:HIS:51>  (127) 
0

>  <pistack:HIS:51>  (127) 
1

>  <hydroph_interaction:TYR:161>  (127) 
0

>  <pication:HIS:51>  (127) 
0

>  <hydroph_interaction:ALA:132>  (127) 
1

>  <hydroph_interaction:TYR:150>  (127) 
0

>  <hydroph_interaction:LYS:54>  (127) 
0

>  <hbond:SER:135>  (127) 
1

>  <hydroph_interaction:HIS:51>  (127) 
0

>  <hbond:ASP:83>  (127) 
0

>  <hbond:ALA:132>  (127) 
1

>  <halogenbond:SER:81>  (127) 
0

>  <hbond:GLY:82>  (127) 
0

>  <saltbridge:HIS:51>  (127) 
0

>  <pistack:TYR:161>  (127) 
1

>  <hbond:SER:81>  (127) 
0

>  <hbond:ASN:152>  (127) 
0

>  <hbond:GLY:151>  (127) 
0

>  <hydroph_interaction:ASN:152>  (127) 
0

>  <hbond:TYR:161>  (127) 
0

>  <halogenbond:TYR:150>  (127) 
0

>  <hbond:ASP:75>  (127) 
0

>  <hbond:GLY:153>  (127) 
0

>  <hbond:VAL:36>  (127) 
0

>  <hbond:PRO:131>  (127) 
0

>  <hbond:VAL:52>  (127) 
0

>  <hydroph_interaction:ASP:83>  (127) 
0

>  <hydroph_interaction:MET:49>  (127) 
0

>  <hydroph_interaction:VAL:52>  (127) 
0

>  <saltbridge:ASP:83>  (127) 
0

>  <saltbridge:ASP:75>  (127) 
0

>  <hydroph_interaction:TRP:50>  (127) 
0

>  <hydroph_interaction:VAL:72>  (127) 
0

>  <hydroph_interaction:ASP:75>  (127) 
0

>  <halogenbond:ASN:152>  (127) 
0

>  <halogenbond:GLY:153>  (127) 
0

>  <halogenbond:TYR:130>  (127) 
0

>  <hbond:TYR:130>  (127) 
0

>  <halogenbond:ASP:75>  (127) 
0

>  <halogenbond:GLY:151>  (127) 
0

>  <hbond:TYR:150>  (127) 
0

>  <halogenbond:TYR:161>  (127) 
0

>  <hydroph_interaction:ASP:129>  (127) 
0

>  <hbond:ASP:129>  (127) 
0

>  <halogenbond:ALA:132>  (127) 
0

$$$$
PV-005194482004
     RDKit          3D

 22 23  0  0  0  0  0  0  0  0999 V2000
   -9.7340    4.6620  -18.7860 N   0  0  0  0  0  0  0  0  0  0  0  0
   -9.7500    4.9700  -17.4380 N   0  0  0  0  0  0  0  0  0  0  0  0
   -8.5850    5.4210  -16.8180 C   0  0  0  0  0  0  0  0  0  0  0  0
   -7.6560    5.9900  -17.3800 O   0  0  0  0  0  0  0  0  0  0  0  0
   -8.4140    5.1600  -15.3330 C   0  0  0  0  0  0  0  0  0  0  0  0
   -7.0030    4.8590  -14.8050 C   0  0  0  0  0  0  0  0  0  0  0  0
   -7.2560    4.6190  -13.3750 C   0  0  0  0  0  0  0  0  0  0  0  0
   -8.5200    4.7010  -12.8630 C   0  0  0  0  0  0  0  0  0  0  0  0
   -8.7580    4.4270  -11.4950 C   0  0  0  0  0  0  0  0  0  0  0  0
   -8.6060    5.3670  -10.5220 C   0  0  0  0  0  0  0  0  0  0  0  0
   -8.8680    4.9540   -9.2460 C   0  0  0  0  0  0  0  0  0  0  0  0
   -9.2560    3.5770   -9.2470 C   0  0  0  0  0  0  0  0  0  0  0  0
   -9.2640    2.9090  -10.8250 S   0  0  0  0  0  0  0  0  0  0  0  0
   -9.6360    5.1320  -14.1140 S   0  0  0  0  0  0  0  0  0  0  0  0
   -8.7870    4.4080  -19.0180 H   0  0  0  0  0  0  0  0  0  0  0  0
  -10.1130    5.4650  -19.2810 H   0  0  0  0  0  0  0  0  0  0  0  0
  -10.6430    5.0370  -16.9610 H   0  0  0  0  0  0  0  0  0  0  0  0
   -6.0640    4.8190  -15.3490 H   0  0  0  0  0  0  0  0  0  0  0  0
   -6.4360    4.3620  -12.7150 H   0  0  0  0  0  0  0  0  0  0  0  0
   -8.3020    6.3870  -10.6810 H   0  0  0  0  0  0  0  0  0  0  0  0
   -8.7940    5.5730   -8.3660 H   0  0  0  0  0  0  0  0  0  0  0  0
   -9.5150    3.0180   -8.3560 H   0  0  0  0  0  0  0  0  0  0  0  0
  1  2  1  0
  2  3  1  0
  3  4  2  0
  3  5  1  0
  5  6  2  0
  6  7  1  0
  7  8  2  0
  8  9  1  0
  9 10  2  0
 10 11  1  0
 11 12  2  0
 12 13  1  0
  8 14  1  0
 14  5  1  0
 13  9  1  0
  1 15  1  0
  1 16  1  0
  2 17  1  0
  6 18  1  0
  7 19  1  0
 10 20  1  0
 11 21  1  0
 12 22  1  0
A    1
 N1 
A    2
 N2 
A    3
 C1 
A    4
 O1 
A    5
 C2 
A    6
 C3 
A    7
 C4 
A    8
 C5 
A    9
 C6 
A   10
 C7 
A   11
 C8 
A   12
 C9 
A   13
 S1 
A   14
 S2 
A   15
 H1 
A   16
 H2 
A   17
 H3 
A   18
 H4 
A   19
 H5 
A   20
 H6 
A   21
 H7 
A   22
 H8 
M  END
>  <ref_pdb>  (128) 
x0051_0B

>  <ref_mols>  (128) 
x0969_1B,x0553_0B

>  <original SMILES>  (128) 
[H]c1sc(-c2sc(C(=O)N([H])N([H])[H])c([H])c2[H])c([H])c1[H]

>  <index>  (128) 
2609

>  <∆∆G>  (128) 
-4.784973

>  <comRMSD>  (128) 
0.268172

>  <N_constrained_atoms>  (128) 
13.0

>  <N_unconstrained_atoms>  (128) 
1.0

>  <LE>  (128) 
0.341784

>  <percent_hybrid>  (128) 
0.0

>  <max_hit_Tanimoto>  (128) 
0.377113

>  <largest_ring>  (128) 
5

>  <N_interactions_kept>  (128) 
0.0

>  <N_interactions_lost>  (128) 
0.0

>  <interaction_uniqueness_metric>  (128) 
0.400058

>  <N_HA>  (128) 
14

>  <N_rotatable_bonds>  (128) 
3

>  <N_interactions>  (128) 
5

>  <N_PAINS>  (128) 
0

>  <UFF_Gibbs>  (128) 
55.644339

>  <strain_per_HA>  (128) 
3.974567

>  <ad_hoc_penalty>  (128) 
-36.858626

>  <cluster>  (128) 
249

>  <merger_rank>  (128) 
2

>  <pication:ARG:29>  (128) 
0

>  <hbond:HIS:51>  (128) 
0

>  <pistack:HIS:51>  (128) 
1

>  <hydroph_interaction:TYR:161>  (128) 
1

>  <pication:HIS:51>  (128) 
0

>  <hydroph_interaction:ALA:132>  (128) 
0

>  <hydroph_interaction:TYR:150>  (128) 
0

>  <hydroph_interaction:LYS:54>  (128) 
0

>  <hbond:SER:135>  (128) 
0

>  <hydroph_interaction:HIS:51>  (128) 
1

>  <hbond:ASP:83>  (128) 
0

>  <hbond:ALA:132>  (128) 
0

>  <halogenbond:SER:81>  (128) 
0

>  <hbond:GLY:82>  (128) 
0

>  <saltbridge:HIS:51>  (128) 
0

>  <pistack:TYR:161>  (128) 
0

>  <hbond:SER:81>  (128) 
0

>  <hbond:ASN:152>  (128) 
0

>  <hbond:GLY:151>  (128) 
1

>  <hydroph_interaction:ASN:152>  (128) 
0

>  <hbond:TYR:161>  (128) 
0

>  <halogenbond:TYR:150>  (128) 
0

>  <hbond:ASP:75>  (128) 
0

>  <hbond:GLY:153>  (128) 
0

>  <hbond:VAL:36>  (128) 
0

>  <hbond:PRO:131>  (128) 
0

>  <hbond:VAL:52>  (128) 
0

>  <hydroph_interaction:ASP:83>  (128) 
0

>  <hydroph_interaction:MET:49>  (128) 
0

>  <hydroph_interaction:VAL:52>  (128) 
0

>  <saltbridge:ASP:83>  (128) 
0

>  <saltbridge:ASP:75>  (128) 
0

>  <hydroph_interaction:TRP:50>  (128) 
0

>  <hydroph_interaction:VAL:72>  (128) 
0

>  <hydroph_interaction:ASP:75>  (128) 
0

>  <halogenbond:ASN:152>  (128) 
0

>  <halogenbond:GLY:153>  (128) 
0

>  <halogenbond:TYR:130>  (128) 
0

>  <hbond:TYR:130>  (128) 
0

>  <halogenbond:ASP:75>  (128) 
0

>  <halogenbond:GLY:151>  (128) 
0

>  <hbond:TYR:150>  (128) 
1

>  <halogenbond:TYR:161>  (128) 
0

>  <hydroph_interaction:ASP:129>  (128) 
0

>  <hbond:ASP:129>  (128) 
0

>  <halogenbond:ALA:132>  (128) 
0

$$$$
PV-002879565727
     RDKit          3D

 30 32  0  0  0  0  0  0  0  0999 V2000
   -9.2860    3.5100  -12.2480 C   0  0  0  0  0  0  0  0  0  0  0  0
   -9.0680    4.6310  -11.2400 C   0  0  0  0  0  0  0  0  0  0  0  0
   -8.8600    5.9510  -11.8800 C   0  0  0  0  0  0  0  0  0  0  0  0
   -8.9120    5.9880  -13.3540 C   0  0  0  0  0  0  0  0  0  0  0  0
  -10.1290    6.3010  -13.9960 N   0  0  0  0  0  0  0  0  0  0  0  0
   -9.8950    6.2290  -15.3670 N   0  0  0  0  0  0  0  0  0  0  0  0
   -8.4980    5.8640  -15.4990 C   0  0  0  0  0  0  0  0  0  0  0  0
   -7.9590    5.6930  -16.8150 C   0  0  0  0  0  0  0  0  0  0  0  0
   -8.6360    5.0570  -17.8620 C   0  0  0  0  0  0  0  0  0  0  0  0
   -7.9760    4.9780  -19.1110 C   0  0  0  0  0  0  0  0  0  0  0  0
   -6.7200    5.5240  -19.2150 C   0  0  0  0  0  0  0  0  0  0  0  0
   -6.0430    6.1310  -18.2450 N   0  0  0  0  0  0  0  0  0  0  0  0
   -6.6830    6.2010  -17.0690 C   0  0  0  0  0  0  0  0  0  0  0  0
   -7.9450    5.7410  -14.2760 O   0  0  0  0  0  0  0  0  0  0  0  0
   -9.0850    4.3780   -9.8370 C   0  0  0  0  0  0  0  0  0  0  0  0
   -9.1710    3.1840   -9.2050 C   0  0  0  0  0  0  0  0  0  0  0  0
   -9.1660    3.2930   -7.8010 C   0  0  0  0  0  0  0  0  0  0  0  0
   -9.0680    4.6540   -7.6130 C   0  0  0  0  0  0  0  0  0  0  0  0
   -9.0200    5.3190   -8.8190 O   0  0  0  0  0  0  0  0  0  0  0  0
   -9.7840    2.6490  -11.7910 H   0  0  0  0  0  0  0  0  0  0  0  0
   -9.9160    3.8640  -13.0690 H   0  0  0  0  0  0  0  0  0  0  0  0
   -8.3380    3.1610  -12.6730 H   0  0  0  0  0  0  0  0  0  0  0  0
   -8.7050    6.7510  -11.1460 H   0  0  0  0  0  0  0  0  0  0  0  0
   -9.6320    4.6420  -17.7220 H   0  0  0  0  0  0  0  0  0  0  0  0
   -8.4510    4.4980  -19.9630 H   0  0  0  0  0  0  0  0  0  0  0  0
   -6.1890    5.4770  -20.1620 H   0  0  0  0  0  0  0  0  0  0  0  0
   -6.1160    6.7010  -16.2950 H   0  0  0  0  0  0  0  0  0  0  0  0
   -9.2390    2.2460   -9.7370 H   0  0  0  0  0  0  0  0  0  0  0  0
   -9.2210    2.5160   -7.0500 H   0  0  0  0  0  0  0  0  0  0  0  0
   -9.0220    5.2830   -6.7360 H   0  0  0  0  0  0  0  0  0  0  0  0
  1  2  1  0
  2  3  2  3
  3  4  1  0
  4  5  2  0
  5  6  1  0
  6  7  2  0
  7  8  1  0
  8  9  2  0
  9 10  1  0
 10 11  2  0
 11 12  1  0
 12 13  2  0
  7 14  1  0
  2 15  1  0
 15 16  2  0
 16 17  1  0
 17 18  2  0
 18 19  1  0
 14  4  1  0
 13  8  1  0
 19 15  1  0
  1 20  1  0
  1 21  1  0
  1 22  1  0
  3 23  1  0
  9 24  1  0
 10 25  1  0
 11 26  1  0
 13 27  1  0
 16 28  1  0
 17 29  1  0
 18 30  1  0
A    1
 C1 
A    2
 C2 
A    3
 C3 
A    4
 C4 
A    5
 N1 
A    6
 N2 
A    7
 C5 
A    8
 C6 
A    9
 C7 
A   10
 C8 
A   11
 C9 
A   12
 N3 
A   13
 C10
A   14
 O1 
A   15
 C11
A   16
 C12
A   17
 C13
A   18
 C14
A   19
 O2 
A   20
 H1 
A   21
 H2 
A   22
 H3 
A   23
 H4 
A   24
 H5 
A   25
 H6 
A   26
 H7 
A   27
 H8 
A   28
 H9 
A   29
 H10
A   30
 H11
M  END
>  <ref_pdb>  (129) 
x0051_0B

>  <ref_mols>  (129) 
x0404_0B,x0969_0B

>  <original SMILES>  (129) 
[H]C(=C(c1oc([H])c([H])c1[H])C([H])([H])[H])c1nnc(-c2c([H])nc([H])c([H])c2[H])o1

>  <index>  (129) 
4867

>  <∆∆G>  (129) 
-7.601183

>  <comRMSD>  (129) 
0.309179

>  <N_constrained_atoms>  (129) 
18.0

>  <N_unconstrained_atoms>  (129) 
1.0

>  <LE>  (129) 
0.400062

>  <percent_hybrid>  (129) 
0.0

>  <max_hit_Tanimoto>  (129) 
0.323827

>  <largest_ring>  (129) 
6

>  <N_interactions_kept>  (129) 
0.0

>  <N_interactions_lost>  (129) 
0.0

>  <interaction_uniqueness_metric>  (129) 
0.093893

>  <N_HA>  (129) 
19

>  <N_rotatable_bonds>  (129) 
4

>  <N_interactions>  (129) 
5

>  <N_PAINS>  (129) 
0

>  <UFF_Gibbs>  (129) 
80.906921

>  <strain_per_HA>  (129) 
4.258237

>  <ad_hoc_penalty>  (129) 
-36.846992

>  <cluster>  (129) 
1477

>  <merger_rank>  (129) 
1

>  <pication:ARG:29>  (129) 
0

>  <hbond:HIS:51>  (129) 
0

>  <pistack:HIS:51>  (129) 
0

>  <hydroph_interaction:TYR:161>  (129) 
2

>  <pication:HIS:51>  (129) 
0

>  <hydroph_interaction:ALA:132>  (129) 
1

>  <hydroph_interaction:TYR:150>  (129) 
0

>  <hydroph_interaction:LYS:54>  (129) 
0

>  <hbond:SER:135>  (129) 
1

>  <hydroph_interaction:HIS:51>  (129) 
1

>  <hbond:ASP:83>  (129) 
0

>  <hbond:ALA:132>  (129) 
0

>  <halogenbond:SER:81>  (129) 
0

>  <hbond:GLY:82>  (129) 
0

>  <saltbridge:HIS:51>  (129) 
0

>  <pistack:TYR:161>  (129) 
0

>  <hbond:SER:81>  (129) 
0

>  <hbond:ASN:152>  (129) 
0

>  <hbond:GLY:151>  (129) 
0

>  <hydroph_interaction:ASN:152>  (129) 
0

>  <hbond:TYR:161>  (129) 
0

>  <halogenbond:TYR:150>  (129) 
0

>  <hbond:ASP:75>  (129) 
0

>  <hbond:GLY:153>  (129) 
0

>  <hbond:VAL:36>  (129) 
0

>  <hbond:PRO:131>  (129) 
0

>  <hbond:VAL:52>  (129) 
0

>  <hydroph_interaction:ASP:83>  (129) 
0

>  <hydroph_interaction:MET:49>  (129) 
0

>  <hydroph_interaction:VAL:52>  (129) 
0

>  <saltbridge:ASP:83>  (129) 
0

>  <saltbridge:ASP:75>  (129) 
0

>  <hydroph_interaction:TRP:50>  (129) 
0

>  <hydroph_interaction:VAL:72>  (129) 
0

>  <hydroph_interaction:ASP:75>  (129) 
0

>  <halogenbond:ASN:152>  (129) 
0

>  <halogenbond:GLY:153>  (129) 
0

>  <halogenbond:TYR:130>  (129) 
0

>  <hbond:TYR:130>  (129) 
0

>  <halogenbond:ASP:75>  (129) 
0

>  <halogenbond:GLY:151>  (129) 
0

>  <hbond:TYR:150>  (129) 
0

>  <halogenbond:TYR:161>  (129) 
0

>  <hydroph_interaction:ASP:129>  (129) 
0

>  <hbond:ASP:129>  (129) 
0

>  <halogenbond:ALA:132>  (129) 
0

$$$$
Z29325061
     RDKit          3D

 27 29  0  0  0  0  0  0  0  0999 V2000
   -9.2170    3.5240   -8.4250 C   0  0  0  0  0  0  0  0  0  0  0  0
   -9.1140    4.3890   -9.6740 C   0  0  0  0  0  0  0  0  0  0  0  0
   -9.1930    3.7860  -11.0080 C   0  0  0  0  0  0  0  0  0  0  0  0
   -9.1280    4.5990  -12.0400 N   0  0  0  0  0  0  0  0  0  0  0  0
   -8.9960    5.8870  -11.5320 C   0  0  0  0  0  0  0  0  0  0  0  0
   -8.9320    7.0250  -12.2840 N   0  0  0  0  0  0  0  0  0  0  0  0
   -7.9210    7.4640  -13.0570 C   0  0  0  0  0  0  0  0  0  0  0  0
   -7.1030    8.3120  -12.7270 O   0  0  0  0  0  0  0  0  0  0  0  0
   -7.8570    6.8590  -14.3760 C   0  0  0  0  0  0  0  0  0  0  0  0
   -8.9320    6.1380  -14.8380 N   0  0  0  0  0  0  0  0  0  0  0  0
   -8.5780    5.7430  -16.0670 C   0  0  0  0  0  0  0  0  0  0  0  0
   -9.4230    4.9800  -16.8910 C   0  0  0  0  0  0  0  0  0  0  0  0
   -8.9790    4.5880  -18.2590 C   0  0  0  0  0  0  0  0  0  0  0  0
   -7.6950    5.0240  -18.6230 C   0  0  0  0  0  0  0  0  0  0  0  0
   -6.8820    5.7640  -17.7830 C   0  0  0  0  0  0  0  0  0  0  0  0
   -7.3200    6.1150  -16.5400 C   0  0  0  0  0  0  0  0  0  0  0  0
   -6.4420    7.0300  -15.4100 S   0  0  0  0  0  0  0  0  0  0  0  0
   -8.9210    6.0910   -9.8140 S   0  0  0  0  0  0  0  0  0  0  0  0
   -8.7500    2.6160   -8.0380 H   0  0  0  0  0  0  0  0  0  0  0  0
   -8.2310    3.9240   -8.1750 H   0  0  0  0  0  0  0  0  0  0  0  0
   -9.4550    2.7690   -9.1810 H   0  0  0  0  0  0  0  0  0  0  0  0
   -9.3080    2.7320  -11.2080 H   0  0  0  0  0  0  0  0  0  0  0  0
   -9.5770    7.7460  -11.9760 H   0  0  0  0  0  0  0  0  0  0  0  0
  -10.3970    4.6790  -16.5340 H   0  0  0  0  0  0  0  0  0  0  0  0
   -9.6250    4.0080  -18.8970 H   0  0  0  0  0  0  0  0  0  0  0  0
   -7.2770    4.7930  -19.5920 H   0  0  0  0  0  0  0  0  0  0  0  0
   -5.8950    6.0700  -18.1200 H   0  0  0  0  0  0  0  0  0  0  0  0
  1  2  1  0
  2  3  2  0
  3  4  1  0
  4  5  2  0
  5  6  1  0
  6  7  1  0
  7  8  2  0
  7  9  1  0
  9 10  2  0
 10 11  1  0
 11 12  2  0
 12 13  1  0
 13 14  2  0
 14 15  1  0
 15 16  2  0
 16 17  1  0
  5 18  1  0
 18  2  1  0
 17  9  1  0
 16 11  1  0
  1 19  1  0
  1 20  1  0
  1 21  1  0
  3 22  1  0
  6 23  1  0
 12 24  1  0
 13 25  1  0
 14 26  1  0
 15 27  1  0
A    1
 C1 
A    2
 C2 
A    3
 C3 
A    4
 N1 
A    5
 C4 
A    6
 N2 
A    7
 C5 
A    8
 O1 
A    9
 C6 
A   10
 N3 
A   11
 C7 
A   12
 C8 
A   13
 C9 
A   14
 C10
A   15
 C11
A   16
 C12
A   17
 S1 
A   18
 S2 
A   19
 H1 
A   20
 H2 
A   21
 H3 
A   22
 H4 
A   23
 H5 
A   24
 H6 
A   25
 H7 
A   26
 H8 
A   27
 H9 
M  END
>  <ref_pdb>  (130) 
x0051_0B

>  <ref_mols>  (130) 
x0404_0B,x0969_0B

>  <original SMILES>  (130) 
[H]c1nc(N([H])C(=O)c2nc3c([H])c([H])c([H])c([H])c3s2)sc1C([H])([H])[H]

>  <index>  (130) 
3934

>  <∆∆G>  (130) 
-5.61463

>  <comRMSD>  (130) 
0.367283

>  <N_constrained_atoms>  (130) 
18.0

>  <N_unconstrained_atoms>  (130) 
0.0

>  <LE>  (130) 
0.311924

>  <percent_hybrid>  (130) 
0.0

>  <max_hit_Tanimoto>  (130) 
0.430403

>  <largest_ring>  (130) 
6

>  <N_interactions_kept>  (130) 
0.0

>  <N_interactions_lost>  (130) 
0.0

>  <interaction_uniqueness_metric>  (130) 
0.119206

>  <N_HA>  (130) 
18

>  <N_rotatable_bonds>  (130) 
3

>  <N_interactions>  (130) 
6

>  <N_PAINS>  (130) 
0

>  <UFF_Gibbs>  (130) 
135.276392

>  <strain_per_HA>  (130) 
7.515313

>  <ad_hoc_penalty>  (130) 
-36.743097

>  <cluster>  (130) 
2097

>  <merger_rank>  (130) 
1

>  <pication:ARG:29>  (130) 
0

>  <hbond:HIS:51>  (130) 
1

>  <pistack:HIS:51>  (130) 
1

>  <hydroph_interaction:TYR:161>  (130) 
2

>  <pication:HIS:51>  (130) 
0

>  <hydroph_interaction:ALA:132>  (130) 
1

>  <hydroph_interaction:TYR:150>  (130) 
0

>  <hydroph_interaction:LYS:54>  (130) 
0

>  <hbond:SER:135>  (130) 
0

>  <hydroph_interaction:HIS:51>  (130) 
1

>  <hbond:ASP:83>  (130) 
0

>  <hbond:ALA:132>  (130) 
0

>  <halogenbond:SER:81>  (130) 
0

>  <hbond:GLY:82>  (130) 
0

>  <saltbridge:HIS:51>  (130) 
0

>  <pistack:TYR:161>  (130) 
0

>  <hbond:SER:81>  (130) 
0

>  <hbond:ASN:152>  (130) 
0

>  <hbond:GLY:151>  (130) 
0

>  <hydroph_interaction:ASN:152>  (130) 
0

>  <hbond:TYR:161>  (130) 
0

>  <halogenbond:TYR:150>  (130) 
0

>  <hbond:ASP:75>  (130) 
0

>  <hbond:GLY:153>  (130) 
0

>  <hbond:VAL:36>  (130) 
0

>  <hbond:PRO:131>  (130) 
0

>  <hbond:VAL:52>  (130) 
0

>  <hydroph_interaction:ASP:83>  (130) 
0

>  <hydroph_interaction:MET:49>  (130) 
0

>  <hydroph_interaction:VAL:52>  (130) 
0

>  <saltbridge:ASP:83>  (130) 
0

>  <saltbridge:ASP:75>  (130) 
0

>  <hydroph_interaction:TRP:50>  (130) 
0

>  <hydroph_interaction:VAL:72>  (130) 
0

>  <hydroph_interaction:ASP:75>  (130) 
0

>  <halogenbond:ASN:152>  (130) 
0

>  <halogenbond:GLY:153>  (130) 
0

>  <halogenbond:TYR:130>  (130) 
0

>  <hbond:TYR:130>  (130) 
0

>  <halogenbond:ASP:75>  (130) 
0

>  <halogenbond:GLY:151>  (130) 
0

>  <hbond:TYR:150>  (130) 
0

>  <halogenbond:TYR:161>  (130) 
0

>  <hydroph_interaction:ASP:129>  (130) 
0

>  <hbond:ASP:129>  (130) 
0

>  <halogenbond:ALA:132>  (130) 
0

$$$$
PV-003825904635
     RDKit          3D

 28 30  0  0  0  0  0  0  0  0999 V2000
   -9.5790    4.4920  -18.1120 C   0  0  0  0  0  0  0  0  0  0  0  0
   -8.7900    5.1960  -17.0150 C   0  0  0  0  0  0  0  0  0  0  0  0
   -9.4510    5.7680  -15.8630 C   0  0  0  0  0  0  0  0  0  0  0  0
   -8.6140    6.3380  -15.0560 N   0  0  0  0  0  0  0  0  0  0  0  0
   -8.9180    7.0230  -13.8240 C   0  0  0  0  0  0  0  0  0  0  0  0
   -8.8700    6.2410  -12.5660 C   0  0  0  0  0  0  0  0  0  0  0  0
   -9.1890    4.9310  -12.5950 N   0  0  0  0  0  0  0  0  0  0  0  0
   -9.0430    4.5260  -11.2830 N   0  0  0  0  0  0  0  0  0  0  0  0
   -9.2350    3.2840  -10.6950 C   0  0  0  0  0  0  0  0  0  0  0  0
   -9.0700    2.9650   -9.3440 C   0  0  0  0  0  0  0  0  0  0  0  0
   -8.6530    4.1100   -8.5840 C   0  0  0  0  0  0  0  0  0  0  0  0
   -8.4620    5.3530   -9.1990 C   0  0  0  0  0  0  0  0  0  0  0  0
   -8.6660    5.5220  -10.5350 C   0  0  0  0  0  0  0  0  0  0  0  0
   -8.5240    6.6810  -11.2620 C   0  0  0  0  0  0  0  0  0  0  0  0
   -7.3370    6.2120  -15.5500 N   0  0  0  0  0  0  0  0  0  0  0  0
   -7.4480    5.5210  -16.7290 C   0  0  0  0  0  0  0  0  0  0  0  0
   -9.3490    4.9350  -19.0860 H   0  0  0  0  0  0  0  0  0  0  0  0
   -9.3410    3.4320  -18.1700 H   0  0  0  0  0  0  0  0  0  0  0  0
  -10.6600    4.5870  -17.9470 H   0  0  0  0  0  0  0  0  0  0  0  0
  -10.4820    5.7850  -15.6060 H   0  0  0  0  0  0  0  0  0  0  0  0
   -9.9160    7.4520  -13.9490 H   0  0  0  0  0  0  0  0  0  0  0  0
   -8.1990    7.8210  -13.7280 H   0  0  0  0  0  0  0  0  0  0  0  0
   -9.5530    2.4380  -11.3140 H   0  0  0  0  0  0  0  0  0  0  0  0
   -9.2290    1.9880   -8.9150 H   0  0  0  0  0  0  0  0  0  0  0  0
   -8.4620    4.0790   -7.5210 H   0  0  0  0  0  0  0  0  0  0  0  0
   -8.1430    6.1510   -8.5220 H   0  0  0  0  0  0  0  0  0  0  0  0
   -8.2220    7.6790  -10.9230 H   0  0  0  0  0  0  0  0  0  0  0  0
   -6.5580    5.3010  -17.3060 H   0  0  0  0  0  0  0  0  0  0  0  0
  1  2  1  0
  2  3  2  0
  3  4  1  0
  4  5  1  0
  5  6  1  0
  6  7  2  0
  7  8  1  0
  8  9  1  0
  9 10  2  0
 10 11  1  0
 11 12  2  0
 12 13  1  0
 13 14  2  0
  4 15  1  0
 15 16  2  0
 16  2  1  0
 14  6  1  0
 13  8  1  0
  1 17  1  0
  1 18  1  0
  1 19  1  0
  3 20  1  0
  5 21  1  0
  5 22  1  0
  9 23  1  0
 10 24  1  0
 11 25  1  0
 12 26  1  0
 14 27  1  0
 16 28  1  0
A    1
 C1 
A    2
 C2 
A    3
 C3 
A    4
 N1 
A    5
 C4 
A    6
 C5 
A    7
 N2 
A    8
 N3 
A    9
 C6 
A   10
 C7 
A   11
 C8 
A   12
 C9 
A   13
 C10
A   14
 C11
A   15
 N4 
A   16
 C12
A   17
 H1 
A   18
 H2 
A   19
 H3 
A   20
 H4 
A   21
 H5 
A   22
 H6 
A   23
 H7 
A   24
 H8 
A   25
 H9 
A   26
 H10
A   27
 H11
A   28
 H12
M  END
>  <ref_pdb>  (131) 
x0051_0B

>  <ref_mols>  (131) 
x0404_0B,x0969_0B

>  <original SMILES>  (131) 
[H]c1nn(C([H])([H])c2nn3c([H])c([H])c([H])c([H])c3c2[H])c([H])c1C([H])([H])[H]

>  <index>  (131) 
2906

>  <∆∆G>  (131) 
-4.125061

>  <comRMSD>  (131) 
0.252873

>  <N_constrained_atoms>  (131) 
16.0

>  <N_unconstrained_atoms>  (131) 
1.0

>  <LE>  (131) 
0.242651

>  <percent_hybrid>  (131) 
0.0

>  <max_hit_Tanimoto>  (131) 
0.45

>  <largest_ring>  (131) 
6

>  <N_interactions_kept>  (131) 
0.0

>  <N_interactions_lost>  (131) 
0.0

>  <interaction_uniqueness_metric>  (131) 
0.141532

>  <N_HA>  (131) 
16

>  <N_rotatable_bonds>  (131) 
3

>  <N_interactions>  (131) 
6

>  <N_PAINS>  (131) 
0

>  <UFF_Gibbs>  (131) 
42.588494

>  <strain_per_HA>  (131) 
2.661764

>  <ad_hoc_penalty>  (131) 
-36.694067

>  <cluster>  (131) 
241

>  <merger_rank>  (131) 
1

>  <pication:ARG:29>  (131) 
0

>  <hbond:HIS:51>  (131) 
0

>  <pistack:HIS:51>  (131) 
2

>  <hydroph_interaction:TYR:161>  (131) 
1

>  <pication:HIS:51>  (131) 
0

>  <hydroph_interaction:ALA:132>  (131) 
1

>  <hydroph_interaction:TYR:150>  (131) 
1

>  <hydroph_interaction:LYS:54>  (131) 
0

>  <hbond:SER:135>  (131) 
0

>  <hydroph_interaction:HIS:51>  (131) 
1

>  <hbond:ASP:83>  (131) 
0

>  <hbond:ALA:132>  (131) 
0

>  <halogenbond:SER:81>  (131) 
0

>  <hbond:GLY:82>  (131) 
0

>  <saltbridge:HIS:51>  (131) 
0

>  <pistack:TYR:161>  (131) 
0

>  <hbond:SER:81>  (131) 
0

>  <hbond:ASN:152>  (131) 
0

>  <hbond:GLY:151>  (131) 
0

>  <hydroph_interaction:ASN:152>  (131) 
0

>  <hbond:TYR:161>  (131) 
0

>  <halogenbond:TYR:150>  (131) 
0

>  <hbond:ASP:75>  (131) 
0

>  <hbond:GLY:153>  (131) 
0

>  <hbond:VAL:36>  (131) 
0

>  <hbond:PRO:131>  (131) 
0

>  <hbond:VAL:52>  (131) 
0

>  <hydroph_interaction:ASP:83>  (131) 
0

>  <hydroph_interaction:MET:49>  (131) 
0

>  <hydroph_interaction:VAL:52>  (131) 
0

>  <saltbridge:ASP:83>  (131) 
0

>  <saltbridge:ASP:75>  (131) 
0

>  <hydroph_interaction:TRP:50>  (131) 
0

>  <hydroph_interaction:VAL:72>  (131) 
0

>  <hydroph_interaction:ASP:75>  (131) 
0

>  <halogenbond:ASN:152>  (131) 
0

>  <halogenbond:GLY:153>  (131) 
0

>  <halogenbond:TYR:130>  (131) 
0

>  <hbond:TYR:130>  (131) 
0

>  <halogenbond:ASP:75>  (131) 
0

>  <halogenbond:GLY:151>  (131) 
0

>  <hbond:TYR:150>  (131) 
0

>  <halogenbond:TYR:161>  (131) 
0

>  <hydroph_interaction:ASP:129>  (131) 
0

>  <hbond:ASP:129>  (131) 
0

>  <halogenbond:ALA:132>  (131) 
0

$$$$
PV-002715589735
     RDKit          3D

 32 34  0  0  0  0  0  0  0  0999 V2000
   -9.1700    2.5180   -9.4680 C   0  0  0  0  0  0  0  0  0  0  0  0
   -9.0850    3.6940  -10.1490 C   0  0  0  0  0  0  0  0  0  0  0  0
   -8.8160    4.9990   -9.5290 C   0  0  0  0  0  0  0  0  0  0  0  0
   -8.8240    5.9510  -10.5230 C   0  0  0  0  0  0  0  0  0  0  0  0
   -9.0620    5.5380  -11.8040 C   0  0  0  0  0  0  0  0  0  0  0  0
   -9.0610    6.5230  -12.7920 C   0  0  0  0  0  0  0  0  0  0  0  0
  -10.0930    6.8790  -13.3600 O   0  0  0  0  0  0  0  0  0  0  0  0
   -7.8330    7.0440  -13.0420 O   0  0  0  0  0  0  0  0  0  0  0  0
   -7.8680    7.5360  -14.2780 C   0  0  0  0  0  0  0  0  0  0  0  0
   -6.5510    8.1040  -14.7370 C   0  0  0  0  0  0  0  0  0  0  0  0
   -5.9070    7.2700  -15.6350 C   0  0  0  0  0  0  0  0  0  0  0  0
   -6.9250    6.4020  -16.1020 C   0  0  0  0  0  0  0  0  0  0  0  0
   -6.6770    5.6010  -17.1910 C   0  0  0  0  0  0  0  0  0  0  0  0
   -7.7450    4.7890  -17.5760 C   0  0  0  0  0  0  0  0  0  0  0  0
   -8.9500    4.8700  -16.8180 C   0  0  0  0  0  0  0  0  0  0  0  0
   -9.1390    5.7060  -15.7180 C   0  0  0  0  0  0  0  0  0  0  0  0
   -8.0720    6.4990  -15.3640 C   0  0  0  0  0  0  0  0  0  0  0  0
   -9.2930    3.8140  -11.8600 S   0  0  0  0  0  0  0  0  0  0  0  0
   -8.8930    2.4080   -8.4290 H   0  0  0  0  0  0  0  0  0  0  0  0
  -10.2060    2.1870   -9.4980 H   0  0  0  0  0  0  0  0  0  0  0  0
   -8.5900    1.7600  -10.0050 H   0  0  0  0  0  0  0  0  0  0  0  0
   -8.6450    5.1860   -8.4710 H   0  0  0  0  0  0  0  0  0  0  0  0
   -8.6450    7.0050  -10.2790 H   0  0  0  0  0  0  0  0  0  0  0  0
   -8.6510    8.2980  -14.3600 H   0  0  0  0  0  0  0  0  0  0  0  0
   -5.9200    8.2210  -13.8580 H   0  0  0  0  0  0  0  0  0  0  0  0
   -6.5120    9.1340  -15.0710 H   0  0  0  0  0  0  0  0  0  0  0  0
   -4.9600    7.0170  -15.1750 H   0  0  0  0  0  0  0  0  0  0  0  0
   -5.6140    7.8760  -16.5000 H   0  0  0  0  0  0  0  0  0  0  0  0
   -5.7280    5.5930  -17.7190 H   0  0  0  0  0  0  0  0  0  0  0  0
   -7.6640    4.1220  -18.4180 H   0  0  0  0  0  0  0  0  0  0  0  0
   -9.7780    4.2360  -17.1190 H   0  0  0  0  0  0  0  0  0  0  0  0
  -10.0790    5.7310  -15.1760 H   0  0  0  0  0  0  0  0  0  0  0  0
  1  2  1  0
  2  3  2  0
  3  4  1  0
  4  5  2  0
  5  6  1  0
  6  7  2  0
  6  8  1  0
  8  9  1  0
  9 10  1  0
 10 11  1  0
 11 12  1  0
 12 13  2  0
 13 14  1  0
 14 15  2  0
 15 16  1  0
 16 17  2  0
  5 18  1  0
 18  2  1  0
 17  9  1  0
 17 12  1  0
  1 19  1  0
  1 20  1  0
  1 21  1  0
  3 22  1  0
  4 23  1  0
  9 24  1  0
 10 25  1  0
 10 26  1  0
 11 27  1  0
 11 28  1  0
 13 29  1  0
 14 30  1  0
 15 31  1  0
 16 32  1  0
A    1
 C1 
A    2
 C2 
A    3
 C3 
A    4
 C4 
A    5
 C5 
A    6
 C6 
A    7
 O1 
A    8
 O2 
A    9
 C7 
A   10
 C8 
A   11
 C9 
A   12
 C10
A   13
 C11
A   14
 C12
A   15
 C13
A   16
 C14
A   17
 C15
A   18
 S1 
A   19
 H1 
A   20
 H2 
A   21
 H3 
A   22
 H4 
A   23
 H5 
A   24
 H6 
A   25
 H7 
A   26
 H8 
A   27
 H9 
A   28
 H10
A   29
 H11
A   30
 H12
A   31
 H13
A   32
 H14
M  END
>  <ref_pdb>  (132) 
x0051_0B

>  <ref_mols>  (132) 
x0404_0B,x0969_0B

>  <original SMILES>  (132) 
[H]c1c(C(=O)OC2([H])c3c([H])c([H])c([H])c([H])c3C([H])([H])C2([H])[H])sc(C([H])([H])[H])c1[H]

>  <index>  (132) 
5819

>  <∆∆G>  (132) 
-6.551212

>  <comRMSD>  (132) 
0.515158

>  <N_constrained_atoms>  (132) 
18.0

>  <N_unconstrained_atoms>  (132) 
0.0

>  <LE>  (132) 
0.363956

>  <percent_hybrid>  (132) 
0.0

>  <max_hit_Tanimoto>  (132) 
0.246087

>  <largest_ring>  (132) 
6

>  <N_interactions_kept>  (132) 
0.0

>  <N_interactions_lost>  (132) 
0.0

>  <interaction_uniqueness_metric>  (132) 
0.153706

>  <N_HA>  (132) 
18

>  <N_rotatable_bonds>  (132) 
3

>  <N_interactions>  (132) 
5

>  <N_PAINS>  (132) 
0

>  <UFF_Gibbs>  (132) 
106.798796

>  <strain_per_HA>  (132) 
5.933233

>  <ad_hoc_penalty>  (132) 
-36.640603

>  <cluster>  (132) 
129

>  <merger_rank>  (132) 
3

>  <pication:ARG:29>  (132) 
0

>  <hbond:HIS:51>  (132) 
0

>  <pistack:HIS:51>  (132) 
1

>  <hydroph_interaction:TYR:161>  (132) 
0

>  <pication:HIS:51>  (132) 
0

>  <hydroph_interaction:ALA:132>  (132) 
1

>  <hydroph_interaction:TYR:150>  (132) 
0

>  <hydroph_interaction:LYS:54>  (132) 
0

>  <hbond:SER:135>  (132) 
0

>  <hydroph_interaction:HIS:51>  (132) 
1

>  <hbond:ASP:83>  (132) 
0

>  <hbond:ALA:132>  (132) 
0

>  <halogenbond:SER:81>  (132) 
0

>  <hbond:GLY:82>  (132) 
0

>  <saltbridge:HIS:51>  (132) 
1

>  <pistack:TYR:161>  (132) 
1

>  <hbond:SER:81>  (132) 
0

>  <hbond:ASN:152>  (132) 
0

>  <hbond:GLY:151>  (132) 
0

>  <hydroph_interaction:ASN:152>  (132) 
0

>  <hbond:TYR:161>  (132) 
0

>  <halogenbond:TYR:150>  (132) 
0

>  <hbond:ASP:75>  (132) 
0

>  <hbond:GLY:153>  (132) 
0

>  <hbond:VAL:36>  (132) 
0

>  <hbond:PRO:131>  (132) 
0

>  <hbond:VAL:52>  (132) 
0

>  <hydroph_interaction:ASP:83>  (132) 
0

>  <hydroph_interaction:MET:49>  (132) 
0

>  <hydroph_interaction:VAL:52>  (132) 
0

>  <saltbridge:ASP:83>  (132) 
0

>  <saltbridge:ASP:75>  (132) 
0

>  <hydroph_interaction:TRP:50>  (132) 
0

>  <hydroph_interaction:VAL:72>  (132) 
0

>  <hydroph_interaction:ASP:75>  (132) 
0

>  <halogenbond:ASN:152>  (132) 
0

>  <halogenbond:GLY:153>  (132) 
0

>  <halogenbond:TYR:130>  (132) 
0

>  <hbond:TYR:130>  (132) 
0

>  <halogenbond:ASP:75>  (132) 
0

>  <halogenbond:GLY:151>  (132) 
0

>  <hbond:TYR:150>  (132) 
0

>  <halogenbond:TYR:161>  (132) 
0

>  <hydroph_interaction:ASP:129>  (132) 
0

>  <hbond:ASP:129>  (132) 
0

>  <halogenbond:ALA:132>  (132) 
0

$$$$
Z29672960
     RDKit          3D

 25 26  0  0  0  0  0  0  0  0999 V2000
   -9.0130    4.1750   -8.3880 C   0  0  0  0  0  0  0  0  0  0  0  0
   -8.9700    4.8030   -9.7690 C   0  0  0  0  0  0  0  0  0  0  0  0
   -8.8930    6.2230   -9.8560 N   0  0  0  0  0  0  0  0  0  0  0  0
   -8.8620    6.7560  -11.0980 C   0  0  0  0  0  0  0  0  0  0  0  0
   -8.9000    6.0180  -12.2770 C   0  0  0  0  0  0  0  0  0  0  0  0
   -8.8640    6.6370  -13.6550 C   0  0  0  0  0  0  0  0  0  0  0  0
   -8.2670    7.6690  -13.9350 O   0  0  0  0  0  0  0  0  0  0  0  0
   -9.6600    5.8210  -14.5820 N   0  0  0  0  0  0  0  0  0  0  0  0
   -8.9920    5.5280  -15.8760 C   0  0  0  0  0  0  0  0  0  0  0  0
   -9.5970    4.8630  -16.8550 N   0  0  0  0  0  0  0  0  0  0  0  0
   -8.7690    4.7340  -17.9300 N   0  0  0  0  0  0  0  0  0  0  0  0
   -7.5860    5.2930  -17.7460 C   0  0  0  0  0  0  0  0  0  0  0  0
   -6.5060    5.3100  -18.7400 C   0  0  0  0  0  0  0  0  0  0  0  0
   -7.4010    6.0260  -16.2130 S   0  0  0  0  0  0  0  0  0  0  0  0
   -8.9730    4.6320  -12.2650 N   0  0  0  0  0  0  0  0  0  0  0  0
   -9.0090    4.0110  -11.0460 C   0  0  0  0  0  0  0  0  0  0  0  0
   -9.5530    4.8210   -7.6920 H   0  0  0  0  0  0  0  0  0  0  0  0
   -8.0070    4.0230   -7.9900 H   0  0  0  0  0  0  0  0  0  0  0  0
   -9.5140    3.2000   -8.4140 H   0  0  0  0  0  0  0  0  0  0  0  0
   -8.8050    7.8410  -11.1130 H   0  0  0  0  0  0  0  0  0  0  0  0
  -10.2300    5.0850  -14.1860 H   0  0  0  0  0  0  0  0  0  0  0  0
   -6.6200    4.5950  -19.5430 H   0  0  0  0  0  0  0  0  0  0  0  0
   -6.2780    6.2470  -19.2350 H   0  0  0  0  0  0  0  0  0  0  0  0
   -5.5830    5.0230  -18.2270 H   0  0  0  0  0  0  0  0  0  0  0  0
   -9.0680    2.9300  -11.0520 H   0  0  0  0  0  0  0  0  0  0  0  0
  1  2  1  0
  2  3  2  0
  3  4  1  0
  4  5  2  0
  5  6  1  0
  6  7  2  0
  6  8  1  0
  8  9  1  0
  9 10  2  0
 10 11  1  0
 11 12  2  0
 12 13  1  0
 12 14  1  0
  5 15  1  0
 15 16  2  0
 16  2  1  0
 14  9  1  0
  1 17  1  0
  1 18  1  0
  1 19  1  0
  4 20  1  0
  8 21  1  0
 13 22  1  0
 13 23  1  0
 13 24  1  0
 16 25  1  0
A    1
 C1 
A    2
 C2 
A    3
 N1 
A    4
 C3 
A    5
 C4 
A    6
 C5 
A    7
 O1 
A    8
 N2 
A    9
 C6 
A   10
 N3 
A   11
 N4 
A   12
 C7 
A   13
 C8 
A   14
 S1 
A   15
 N5 
A   16
 C9 
A   17
 H1 
A   18
 H2 
A   19
 H3 
A   20
 H4 
A   21
 H5 
A   22
 H6 
A   23
 H7 
A   24
 H8 
A   25
 H9 
M  END
>  <ref_pdb>  (133) 
x0051_0B

>  <ref_mols>  (133) 
x0404_0B,x0969_0B

>  <original SMILES>  (133) 
[H]c1nc(C([H])([H])[H])c([H])nc1C(=O)N([H])c1nnc(C([H])([H])[H])s1

>  <index>  (133) 
5711

>  <∆∆G>  (133) 
-5.17539

>  <comRMSD>  (133) 
0.11586

>  <N_constrained_atoms>  (133) 
16.0

>  <N_unconstrained_atoms>  (133) 
0.0

>  <LE>  (133) 
0.323462

>  <percent_hybrid>  (133) 
0.0

>  <max_hit_Tanimoto>  (133) 
0.517568

>  <largest_ring>  (133) 
6

>  <N_interactions_kept>  (133) 
0.0

>  <N_interactions_lost>  (133) 
0.0

>  <interaction_uniqueness_metric>  (133) 
0.115595

>  <N_HA>  (133) 
16

>  <N_rotatable_bonds>  (133) 
4

>  <N_interactions>  (133) 
6

>  <N_PAINS>  (133) 
0

>  <UFF_Gibbs>  (133) 
47.145399

>  <strain_per_HA>  (133) 
2.946569

>  <ad_hoc_penalty>  (133) 
-36.609061

>  <cluster>  (133) 
934

>  <merger_rank>  (133) 
3

>  <pication:ARG:29>  (133) 
0

>  <hbond:HIS:51>  (133) 
0

>  <pistack:HIS:51>  (133) 
1

>  <hydroph_interaction:TYR:161>  (133) 
1

>  <pication:HIS:51>  (133) 
0

>  <hydroph_interaction:ALA:132>  (133) 
0

>  <hydroph_interaction:TYR:150>  (133) 
0

>  <hydroph_interaction:LYS:54>  (133) 
0

>  <hbond:SER:135>  (133) 
2

>  <hydroph_interaction:HIS:51>  (133) 
1

>  <hbond:ASP:83>  (133) 
0

>  <hbond:ALA:132>  (133) 
0

>  <halogenbond:SER:81>  (133) 
0

>  <hbond:GLY:82>  (133) 
0

>  <saltbridge:HIS:51>  (133) 
0

>  <pistack:TYR:161>  (133) 
1

>  <hbond:SER:81>  (133) 
0

>  <hbond:ASN:152>  (133) 
0

>  <hbond:GLY:151>  (133) 
0

>  <hydroph_interaction:ASN:152>  (133) 
0

>  <hbond:TYR:161>  (133) 
0

>  <halogenbond:TYR:150>  (133) 
0

>  <hbond:ASP:75>  (133) 
0

>  <hbond:GLY:153>  (133) 
0

>  <hbond:VAL:36>  (133) 
0

>  <hbond:PRO:131>  (133) 
0

>  <hbond:VAL:52>  (133) 
0

>  <hydroph_interaction:ASP:83>  (133) 
0

>  <hydroph_interaction:MET:49>  (133) 
0

>  <hydroph_interaction:VAL:52>  (133) 
0

>  <saltbridge:ASP:83>  (133) 
0

>  <saltbridge:ASP:75>  (133) 
0

>  <hydroph_interaction:TRP:50>  (133) 
0

>  <hydroph_interaction:VAL:72>  (133) 
0

>  <hydroph_interaction:ASP:75>  (133) 
0

>  <halogenbond:ASN:152>  (133) 
0

>  <halogenbond:GLY:153>  (133) 
0

>  <halogenbond:TYR:130>  (133) 
0

>  <hbond:TYR:130>  (133) 
0

>  <halogenbond:ASP:75>  (133) 
0

>  <halogenbond:GLY:151>  (133) 
0

>  <hbond:TYR:150>  (133) 
0

>  <halogenbond:TYR:161>  (133) 
0

>  <hydroph_interaction:ASP:129>  (133) 
0

>  <hbond:ASP:129>  (133) 
0

>  <halogenbond:ALA:132>  (133) 
0

$$$$
PV-003018559080
     RDKit          3D

 29 31  0  0  0  0  0  0  0  0999 V2000
   -6.9540    4.3710  -20.0820 C   0  0  0  0  0  0  0  0  0  0  0  0
   -7.4940    4.7950  -18.7360 C   0  0  0  0  0  0  0  0  0  0  0  0
   -6.6420    5.4780  -17.7440 C   0  0  0  0  0  0  0  0  0  0  0  0
   -7.4630    5.8060  -16.5380 C   0  0  0  0  0  0  0  0  0  0  0  0
   -8.7620    5.3720  -16.6890 C   0  0  0  0  0  0  0  0  0  0  0  0
   -9.4290    5.7570  -15.4990 C   0  0  0  0  0  0  0  0  0  0  0  0
   -8.7330    6.4190  -14.5490 C   0  0  0  0  0  0  0  0  0  0  0  0
   -9.3590    6.8630  -13.3470 C   0  0  0  0  0  0  0  0  0  0  0  0
  -10.2300    7.7310  -13.2960 O   0  0  0  0  0  0  0  0  0  0  0  0
   -8.8960    6.2490  -12.2670 N   0  0  0  0  0  0  0  0  0  0  0  0
   -8.6440    4.8330  -12.3000 C   0  0  0  0  0  0  0  0  0  0  0  0
   -8.8210    4.4180  -11.0050 C   0  0  0  0  0  0  0  0  0  0  0  0
   -8.7030    5.1630   -9.8310 C   0  0  0  0  0  0  0  0  0  0  0  0
   -8.9360    4.4810   -8.6850 C   0  0  0  0  0  0  0  0  0  0  0  0
   -9.2270    3.1800   -9.2220 C   0  0  0  0  0  0  0  0  0  0  0  0
   -9.1580    3.1490  -10.6200 O   0  0  0  0  0  0  0  0  0  0  0  0
   -7.0960    6.6170  -15.0340 S   0  0  0  0  0  0  0  0  0  0  0  0
   -9.1190    4.5760  -18.1630 S   0  0  0  0  0  0  0  0  0  0  0  0
   -7.2910    5.0490  -20.8670 H   0  0  0  0  0  0  0  0  0  0  0  0
   -5.8620    4.3840  -20.0960 H   0  0  0  0  0  0  0  0  0  0  0  0
   -7.3080    3.3690  -20.3380 H   0  0  0  0  0  0  0  0  0  0  0  0
   -5.5820    5.7580  -17.7900 H   0  0  0  0  0  0  0  0  0  0  0  0
  -10.4720    5.5340  -15.3600 H   0  0  0  0  0  0  0  0  0  0  0  0
   -8.3580    6.7790  -11.5980 H   0  0  0  0  0  0  0  0  0  0  0  0
   -9.2930    4.3990  -13.0550 H   0  0  0  0  0  0  0  0  0  0  0  0
   -7.6460    4.7440  -12.7140 H   0  0  0  0  0  0  0  0  0  0  0  0
   -8.4400    6.2090   -9.9050 H   0  0  0  0  0  0  0  0  0  0  0  0
   -8.9040    4.8340   -7.6620 H   0  0  0  0  0  0  0  0  0  0  0  0
   -9.4810    2.2620   -8.7110 H   0  0  0  0  0  0  0  0  0  0  0  0
  1  2  1  0
  2  3  2  0
  3  4  1  0
  4  5  2  0
  5  6  1  0
  6  7  2  0
  7  8  1  0
  8  9  2  0
  8 10  1  0
 10 11  1  0
 11 12  1  0
 12 13  2  0
 13 14  1  0
 14 15  2  0
 15 16  1  0
  7 17  1  0
  5 18  1  0
 18  2  1  0
 17  4  1  0
 16 12  1  0
  1 19  1  0
  1 20  1  0
  1 21  1  0
  3 22  1  0
  6 23  1  0
 10 24  1  0
 11 25  1  0
 11 26  1  0
 13 27  1  0
 14 28  1  0
 15 29  1  0
A    1
 C1 
A    2
 C2 
A    3
 C3 
A    4
 C4 
A    5
 C5 
A    6
 C6 
A    7
 C7 
A    8
 C8 
A    9
 O1 
A   10
 N1 
A   11
 C9 
A   12
 C10
A   13
 C11
A   14
 C12
A   15
 C13
A   16
 O2 
A   17
 S1 
A   18
 S2 
A   19
 H1 
A   20
 H2 
A   21
 H3 
A   22
 H4 
A   23
 H5 
A   24
 H6 
A   25
 H7 
A   26
 H8 
A   27
 H9 
A   28
 H10
A   29
 H11
M  END
>  <ref_pdb>  (134) 
x0051_0B

>  <ref_mols>  (134) 
x0404_0B,x0969_0B

>  <original SMILES>  (134) 
[H]c1oc(C([H])([H])N([H])C(=O)c2sc3c([H])c(C([H])([H])[H])sc3c2[H])c([H])c1[H]

>  <index>  (134) 
4504

>  <∆∆G>  (134) 
-7.922584

>  <comRMSD>  (134) 
0.438649

>  <N_constrained_atoms>  (134) 
17.0

>  <N_unconstrained_atoms>  (134) 
1.0

>  <LE>  (134) 
0.440144

>  <percent_hybrid>  (134) 
0.0

>  <max_hit_Tanimoto>  (134) 
0.324918

>  <largest_ring>  (134) 
5

>  <N_interactions_kept>  (134) 
0.0

>  <N_interactions_lost>  (134) 
0.0

>  <interaction_uniqueness_metric>  (134) 
0.095691

>  <N_HA>  (134) 
18

>  <N_rotatable_bonds>  (134) 
4

>  <N_interactions>  (134) 
5

>  <N_PAINS>  (134) 
0

>  <UFF_Gibbs>  (134) 
96.237808

>  <strain_per_HA>  (134) 
5.346515

>  <ad_hoc_penalty>  (134) 
-36.559966

>  <cluster>  (134) 
1722

>  <merger_rank>  (134) 
1

>  <pication:ARG:29>  (134) 
0

>  <hbond:HIS:51>  (134) 
0

>  <pistack:HIS:51>  (134) 
1

>  <hydroph_interaction:TYR:161>  (134) 
1

>  <pication:HIS:51>  (134) 
0

>  <hydroph_interaction:ALA:132>  (134) 
1

>  <hydroph_interaction:TYR:150>  (134) 
0

>  <hydroph_interaction:LYS:54>  (134) 
0

>  <hbond:SER:135>  (134) 
0

>  <hydroph_interaction:HIS:51>  (134) 
1

>  <hbond:ASP:83>  (134) 
0

>  <hbond:ALA:132>  (134) 
0

>  <halogenbond:SER:81>  (134) 
0

>  <hbond:GLY:82>  (134) 
0

>  <saltbridge:HIS:51>  (134) 
0

>  <pistack:TYR:161>  (134) 
1

>  <hbond:SER:81>  (134) 
0

>  <hbond:ASN:152>  (134) 
0

>  <hbond:GLY:151>  (134) 
0

>  <hydroph_interaction:ASN:152>  (134) 
0

>  <hbond:TYR:161>  (134) 
0

>  <halogenbond:TYR:150>  (134) 
0

>  <hbond:ASP:75>  (134) 
0

>  <hbond:GLY:153>  (134) 
0

>  <hbond:VAL:36>  (134) 
0

>  <hbond:PRO:131>  (134) 
0

>  <hbond:VAL:52>  (134) 
0

>  <hydroph_interaction:ASP:83>  (134) 
0

>  <hydroph_interaction:MET:49>  (134) 
0

>  <hydroph_interaction:VAL:52>  (134) 
0

>  <saltbridge:ASP:83>  (134) 
0

>  <saltbridge:ASP:75>  (134) 
0

>  <hydroph_interaction:TRP:50>  (134) 
0

>  <hydroph_interaction:VAL:72>  (134) 
0

>  <hydroph_interaction:ASP:75>  (134) 
0

>  <halogenbond:ASN:152>  (134) 
0

>  <halogenbond:GLY:153>  (134) 
0

>  <halogenbond:TYR:130>  (134) 
0

>  <hbond:TYR:130>  (134) 
0

>  <halogenbond:ASP:75>  (134) 
0

>  <halogenbond:GLY:151>  (134) 
0

>  <hbond:TYR:150>  (134) 
0

>  <halogenbond:TYR:161>  (134) 
0

>  <hydroph_interaction:ASP:129>  (134) 
0

>  <hbond:ASP:129>  (134) 
0

>  <halogenbond:ALA:132>  (134) 
0

$$$$
Z1481720401
     RDKit          3D

 30 32  0  0  0  0  0  0  0  0999 V2000
   -8.9830    2.5590   -9.6510 C   0  0  0  0  0  0  0  0  0  0  0  0
   -9.0260    3.8350  -10.4610 C   0  0  0  0  0  0  0  0  0  0  0  0
   -8.7920    5.1450   -9.8240 C   0  0  0  0  0  0  0  0  0  0  0  0
   -8.9060    6.1850  -10.6620 C   0  0  0  0  0  0  0  0  0  0  0  0
   -9.2370    5.7960  -12.0240 C   0  0  0  0  0  0  0  0  0  0  0  0
   -9.4260    6.8520  -13.0110 C   0  0  0  0  0  0  0  0  0  0  0  0
  -10.6540    7.1610  -13.5470 O   0  0  0  0  0  0  0  0  0  0  0  0
   -8.3800    7.5980  -13.4430 O   0  0  0  0  0  0  0  0  0  0  0  0
   -7.4070    6.8670  -14.0060 C   0  0  0  0  0  0  0  0  0  0  0  0
   -6.3440    7.6690  -14.4750 C   0  0  0  0  0  0  0  0  0  0  0  0
   -5.7360    6.9690  -15.5850 O   0  0  0  0  0  0  0  0  0  0  0  0
   -6.7970    6.3170  -16.1460 C   0  0  0  0  0  0  0  0  0  0  0  0
   -6.7870    5.8220  -17.4650 C   0  0  0  0  0  0  0  0  0  0  0  0
   -7.9700    5.1990  -17.8350 C   0  0  0  0  0  0  0  0  0  0  0  0
   -9.0400    5.1010  -16.9220 C   0  0  0  0  0  0  0  0  0  0  0  0
   -9.0250    5.6040  -15.6000 C   0  0  0  0  0  0  0  0  0  0  0  0
   -7.8390    6.2140  -15.2780 C   0  0  0  0  0  0  0  0  0  0  0  0
   -9.3530    4.0070  -12.1560 S   0  0  0  0  0  0  0  0  0  0  0  0
   -9.9840    2.1360   -9.5610 H   0  0  0  0  0  0  0  0  0  0  0  0
   -8.6330    2.7660   -8.6370 H   0  0  0  0  0  0  0  0  0  0  0  0
   -8.3310    1.8040  -10.1070 H   0  0  0  0  0  0  0  0  0  0  0  0
   -8.5660    5.0950   -8.7520 H   0  0  0  0  0  0  0  0  0  0  0  0
   -8.7760    7.2180  -10.3530 H   0  0  0  0  0  0  0  0  0  0  0  0
   -7.0220    6.0980  -13.3190 H   0  0  0  0  0  0  0  0  0  0  0  0
   -6.7770    8.5890  -14.8860 H   0  0  0  0  0  0  0  0  0  0  0  0
   -5.5190    7.9920  -13.8520 H   0  0  0  0  0  0  0  0  0  0  0  0
   -5.9160    5.9420  -18.0940 H   0  0  0  0  0  0  0  0  0  0  0  0
   -8.0630    4.7870  -18.8300 H   0  0  0  0  0  0  0  0  0  0  0  0
   -9.9490    4.6070  -17.2400 H   0  0  0  0  0  0  0  0  0  0  0  0
   -9.7920    5.5720  -14.8370 H   0  0  0  0  0  0  0  0  0  0  0  0
  1  2  1  0
  2  3  2  0
  3  4  1  0
  4  5  2  0
  5  6  1  0
  6  7  2  0
  6  8  1  0
  8  9  1  0
  9 10  1  0
 10 11  1  0
 11 12  1  0
 12 13  2  0
 13 14  1  0
 14 15  2  0
 15 16  1  0
 16 17  2  0
  5 18  1  0
 18  2  1  0
 17  9  1  0
 17 12  1  0
  1 19  1  0
  1 20  1  0
  1 21  1  0
  3 22  1  0
  4 23  1  0
  9 24  1  0
 10 25  1  0
 10 26  1  0
 13 27  1  0
 14 28  1  0
 15 29  1  0
 16 30  1  0
A    1
 C1 
A    2
 C2 
A    3
 C3 
A    4
 C4 
A    5
 C5 
A    6
 C6 
A    7
 O1 
A    8
 O2 
A    9
 C7 
A   10
 C8 
A   11
 O3 
A   12
 C9 
A   13
 C10
A   14
 C11
A   15
 C12
A   16
 C13
A   17
 C14
A   18
 S1 
A   19
 H1 
A   20
 H2 
A   21
 H3 
A   22
 H4 
A   23
 H5 
A   24
 H6 
A   25
 H7 
A   26
 H8 
A   27
 H9 
A   28
 H10
A   29
 H11
A   30
 H12
M  END
>  <ref_pdb>  (135) 
x0051_0B

>  <ref_mols>  (135) 
x0404_0B,x0969_0B

>  <original SMILES>  (135) 
[H]c1c(C(=O)OC2([H])c3c([H])c([H])c([H])c([H])c3OC2([H])[H])sc(C([H])([H])[H])c1[H]

>  <index>  (135) 
5820

>  <∆∆G>  (135) 
-6.156932

>  <comRMSD>  (135) 
0.412631

>  <N_constrained_atoms>  (135) 
18.0

>  <N_unconstrained_atoms>  (135) 
0.0

>  <LE>  (135) 
0.342052

>  <percent_hybrid>  (135) 
0.0

>  <max_hit_Tanimoto>  (135) 
0.259882

>  <largest_ring>  (135) 
6

>  <N_interactions_kept>  (135) 
0.0

>  <N_interactions_lost>  (135) 
0.0

>  <interaction_uniqueness_metric>  (135) 
0.152154

>  <N_HA>  (135) 
18

>  <N_rotatable_bonds>  (135) 
3

>  <N_interactions>  (135) 
5

>  <N_PAINS>  (135) 
0

>  <UFF_Gibbs>  (135) 
88.12214

>  <strain_per_HA>  (135) 
4.895647

>  <ad_hoc_penalty>  (135) 
-36.478106

>  <cluster>  (135) 
877

>  <merger_rank>  (135) 
4

>  <pication:ARG:29>  (135) 
0

>  <hbond:HIS:51>  (135) 
0

>  <pistack:HIS:51>  (135) 
1

>  <hydroph_interaction:TYR:161>  (135) 
1

>  <pication:HIS:51>  (135) 
0

>  <hydroph_interaction:ALA:132>  (135) 
0

>  <hydroph_interaction:TYR:150>  (135) 
0

>  <hydroph_interaction:LYS:54>  (135) 
0

>  <hbond:SER:135>  (135) 
1

>  <hydroph_interaction:HIS:51>  (135) 
1

>  <hbond:ASP:83>  (135) 
0

>  <hbond:ALA:132>  (135) 
0

>  <halogenbond:SER:81>  (135) 
0

>  <hbond:GLY:82>  (135) 
0

>  <saltbridge:HIS:51>  (135) 
1

>  <pistack:TYR:161>  (135) 
0

>  <hbond:SER:81>  (135) 
0

>  <hbond:ASN:152>  (135) 
0

>  <hbond:GLY:151>  (135) 
0

>  <hydroph_interaction:ASN:152>  (135) 
0

>  <hbond:TYR:161>  (135) 
0

>  <halogenbond:TYR:150>  (135) 
0

>  <hbond:ASP:75>  (135) 
0

>  <hbond:GLY:153>  (135) 
0

>  <hbond:VAL:36>  (135) 
0

>  <hbond:PRO:131>  (135) 
0

>  <hbond:VAL:52>  (135) 
0

>  <hydroph_interaction:ASP:83>  (135) 
0

>  <hydroph_interaction:MET:49>  (135) 
0

>  <hydroph_interaction:VAL:52>  (135) 
0

>  <saltbridge:ASP:83>  (135) 
0

>  <saltbridge:ASP:75>  (135) 
0

>  <hydroph_interaction:TRP:50>  (135) 
0

>  <hydroph_interaction:VAL:72>  (135) 
0

>  <hydroph_interaction:ASP:75>  (135) 
0

>  <halogenbond:ASN:152>  (135) 
0

>  <halogenbond:GLY:153>  (135) 
0

>  <halogenbond:TYR:130>  (135) 
0

>  <hbond:TYR:130>  (135) 
0

>  <halogenbond:ASP:75>  (135) 
0

>  <halogenbond:GLY:151>  (135) 
0

>  <hbond:TYR:150>  (135) 
0

>  <halogenbond:TYR:161>  (135) 
0

>  <hydroph_interaction:ASP:129>  (135) 
0

>  <hbond:ASP:129>  (135) 
0

>  <halogenbond:ALA:132>  (135) 
0

$$$$
Z243677640
     RDKit          3D

 25 26  0  0  0  0  0  0  0  0999 V2000
   -6.4720    5.3190  -18.8250 C   0  0  0  0  0  0  0  0  0  0  0  0
   -7.6190    5.2930  -17.8320 C   0  0  0  0  0  0  0  0  0  0  0  0
   -8.8300    4.7800  -17.9920 N   0  0  0  0  0  0  0  0  0  0  0  0
   -9.6530    4.9300  -16.8690 N   0  0  0  0  0  0  0  0  0  0  0  0
   -9.0170    5.5890  -15.8320 C   0  0  0  0  0  0  0  0  0  0  0  0
   -9.5960    5.8590  -14.6550 N   0  0  0  0  0  0  0  0  0  0  0  0
   -9.0410    6.4480  -13.6180 C   0  0  0  0  0  0  0  0  0  0  0  0
   -8.4870    7.6640  -13.7210 O   0  0  0  0  0  0  0  0  0  0  0  0
   -8.9870    5.8380  -12.3290 C   0  0  0  0  0  0  0  0  0  0  0  0
   -8.8970    6.7500  -11.2900 C   0  0  0  0  0  0  0  0  0  0  0  0
   -8.8390    6.1460  -10.0420 C   0  0  0  0  0  0  0  0  0  0  0  0
   -8.8660    4.7760   -9.7950 C   0  0  0  0  0  0  0  0  0  0  0  0
   -8.8000    4.2120   -8.5570 O   0  0  0  0  0  0  0  0  0  0  0  0
   -8.9630    3.9030  -10.8800 C   0  0  0  0  0  0  0  0  0  0  0  0
   -9.0220    4.4670  -12.1440 C   0  0  0  0  0  0  0  0  0  0  0  0
   -7.3370    6.0090  -16.3170 S   0  0  0  0  0  0  0  0  0  0  0  0
   -5.5870    4.8410  -18.3950 H   0  0  0  0  0  0  0  0  0  0  0  0
   -6.7430    4.7740  -19.7340 H   0  0  0  0  0  0  0  0  0  0  0  0
   -6.2070    6.3460  -19.0900 H   0  0  0  0  0  0  0  0  0  0  0  0
  -10.4370    5.3120  -14.5180 H   0  0  0  0  0  0  0  0  0  0  0  0
   -8.8680    7.8270  -11.3770 H   0  0  0  0  0  0  0  0  0  0  0  0
   -8.7650    6.8050   -9.1800 H   0  0  0  0  0  0  0  0  0  0  0  0
   -8.0140    3.6020   -8.5300 H   0  0  0  0  0  0  0  0  0  0  0  0
   -8.9890    2.8290  -10.7300 H   0  0  0  0  0  0  0  0  0  0  0  0
   -9.0960    3.8430  -13.0280 H   0  0  0  0  0  0  0  0  0  0  0  0
  1  2  1  0
  2  3  2  0
  3  4  1  0
  4  5  2  0
  5  6  1  0
  6  7  1  0
  7  8  2  0
  7  9  1  0
  9 10  2  0
 10 11  1  0
 11 12  2  0
 12 13  1  0
 12 14  1  0
 14 15  2  0
  5 16  1  0
 16  2  1  0
 15  9  1  0
  1 17  1  0
  1 18  1  0
  1 19  1  0
  6 20  1  0
 10 21  1  0
 11 22  1  0
 13 23  1  0
 14 24  1  0
 15 25  1  0
A    1
 C1 
A    2
 C2 
A    3
 N1 
A    4
 N2 
A    5
 C3 
A    6
 N3 
A    7
 C4 
A    8
 O1 
A    9
 C5 
A   10
 C6 
A   11
 C7 
A   12
 C8 
A   13
 O2 
A   14
 C9 
A   15
 C10
A   16
 S1 
A   17
 H1 
A   18
 H2 
A   19
 H3 
A   20
 H4 
A   21
 H5 
A   22
 H6 
A   23
 H7 
A   24
 H8 
A   25
 H9 
M  END
>  <ref_pdb>  (136) 
x0051_0B

>  <ref_mols>  (136) 
x0404_0B,x0969_0B

>  <original SMILES>  (136) 
[H]Oc1c([H])c([H])c(C(=O)N([H])c2nnc(C([H])([H])[H])s2)c([H])c1[H]

>  <index>  (136) 
5754

>  <∆∆G>  (136) 
-6.602716

>  <comRMSD>  (136) 
0.142836

>  <N_constrained_atoms>  (136) 
16.0

>  <N_unconstrained_atoms>  (136) 
0.0

>  <LE>  (136) 
0.41267

>  <percent_hybrid>  (136) 
0.0

>  <max_hit_Tanimoto>  (136) 
0.609449

>  <largest_ring>  (136) 
6

>  <N_interactions_kept>  (136) 
0.0

>  <N_interactions_lost>  (136) 
0.0

>  <interaction_uniqueness_metric>  (136) 
0.180457

>  <N_HA>  (136) 
16

>  <N_rotatable_bonds>  (136) 
4

>  <N_interactions>  (136) 
5

>  <N_PAINS>  (136) 
0

>  <UFF_Gibbs>  (136) 
60.482048

>  <strain_per_HA>  (136) 
3.780104

>  <ad_hoc_penalty>  (136) 
-36.446626

>  <cluster>  (136) 
9

>  <merger_rank>  (136) 
4

>  <pication:ARG:29>  (136) 
0

>  <hbond:HIS:51>  (136) 
1

>  <pistack:HIS:51>  (136) 
1

>  <hydroph_interaction:TYR:161>  (136) 
1

>  <pication:HIS:51>  (136) 
0

>  <hydroph_interaction:ALA:132>  (136) 
0

>  <hydroph_interaction:TYR:150>  (136) 
0

>  <hydroph_interaction:LYS:54>  (136) 
0

>  <hbond:SER:135>  (136) 
0

>  <hydroph_interaction:HIS:51>  (136) 
1

>  <hbond:ASP:83>  (136) 
1

>  <hbond:ALA:132>  (136) 
0

>  <halogenbond:SER:81>  (136) 
0

>  <hbond:GLY:82>  (136) 
0

>  <saltbridge:HIS:51>  (136) 
0

>  <pistack:TYR:161>  (136) 
0

>  <hbond:SER:81>  (136) 
0

>  <hbond:ASN:152>  (136) 
0

>  <hbond:GLY:151>  (136) 
0

>  <hydroph_interaction:ASN:152>  (136) 
0

>  <hbond:TYR:161>  (136) 
0

>  <halogenbond:TYR:150>  (136) 
0

>  <hbond:ASP:75>  (136) 
0

>  <hbond:GLY:153>  (136) 
0

>  <hbond:VAL:36>  (136) 
0

>  <hbond:PRO:131>  (136) 
0

>  <hbond:VAL:52>  (136) 
0

>  <hydroph_interaction:ASP:83>  (136) 
0

>  <hydroph_interaction:MET:49>  (136) 
0

>  <hydroph_interaction:VAL:52>  (136) 
0

>  <saltbridge:ASP:83>  (136) 
0

>  <saltbridge:ASP:75>  (136) 
0

>  <hydroph_interaction:TRP:50>  (136) 
0

>  <hydroph_interaction:VAL:72>  (136) 
0

>  <hydroph_interaction:ASP:75>  (136) 
0

>  <halogenbond:ASN:152>  (136) 
0

>  <halogenbond:GLY:153>  (136) 
0

>  <halogenbond:TYR:130>  (136) 
0

>  <hbond:TYR:130>  (136) 
0

>  <halogenbond:ASP:75>  (136) 
0

>  <halogenbond:GLY:151>  (136) 
0

>  <hbond:TYR:150>  (136) 
0

>  <halogenbond:TYR:161>  (136) 
0

>  <hydroph_interaction:ASP:129>  (136) 
0

>  <hbond:ASP:129>  (136) 
0

>  <halogenbond:ALA:132>  (136) 
0

$$$$
PV-002928631191
     RDKit          3D

 17 18  0  0  0  0  0  0  0  0999 V2000
   -9.4810    3.2690   -9.6540 F   0  0  0  0  0  0  0  0  0  0  0  0
   -9.0180    4.5430   -9.7770 C   0  0  0  0  0  0  0  0  0  0  0  0
   -7.9150    4.6870   -9.0120 F   0  0  0  0  0  0  0  0  0  0  0  0
   -8.7810    4.9460  -11.2140 C   0  0  0  0  0  0  0  0  0  0  0  0
   -8.3470    6.2790  -11.5810 N   0  0  0  0  0  0  0  0  0  0  0  0
   -8.2340    6.3390  -12.9390 N   0  0  0  0  0  0  0  0  0  0  0  0
   -8.5310    5.2140  -13.6290 C   0  0  0  0  0  0  0  0  0  0  0  0
   -8.4590    5.1720  -15.0130 C   0  0  0  0  0  0  0  0  0  0  0  0
   -9.4610    4.9700  -15.9420 C   0  0  0  0  0  0  0  0  0  0  0  0
   -8.7880    5.0380  -17.1320 C   0  0  0  0  0  0  0  0  0  0  0  0
   -7.3850    5.2820  -16.9310 C   0  0  0  0  0  0  0  0  0  0  0  0
   -7.2160    5.3600  -15.5830 O   0  0  0  0  0  0  0  0  0  0  0  0
   -9.0060    3.8710  -12.6110 S   0  0  0  0  0  0  0  0  0  0  0  0
   -9.7440    5.1950   -9.3330 H   0  0  0  0  0  0  0  0  0  0  0  0
  -10.5020    4.7980  -15.7580 H   0  0  0  0  0  0  0  0  0  0  0  0
   -9.2640    4.9220  -18.0960 H   0  0  0  0  0  0  0  0  0  0  0  0
   -6.5500    5.3980  -17.6060 H   0  0  0  0  0  0  0  0  0  0  0  0
  1  2  1  0
  2  3  1  0
  2  4  1  0
  4  5  2  0
  5  6  1  0
  6  7  2  0
  7  8  1  0
  8  9  2  0
  9 10  1  0
 10 11  2  0
 11 12  1  0
  7 13  1  0
 13  4  1  0
 12  8  1  0
  2 14  1  0
  9 15  1  0
 10 16  1  0
 11 17  1  0
A    1
 F1 
A    2
 C1 
A    3
 F2 
A    4
 C2 
A    5
 N1 
A    6
 N2 
A    7
 C3 
A    8
 C4 
A    9
 C5 
A   10
 C6 
A   11
 C7 
A   12
 O1 
A   13
 S1 
A   14
 H1 
A   15
 H2 
A   16
 H3 
A   17
 H4 
M  END
>  <ref_pdb>  (137) 
x0051_0B

>  <ref_mols>  (137) 
x0969_1B,x0553_0B

>  <original SMILES>  (137) 
[H]c1oc(-c2nnc(C([H])(F)F)s2)c([H])c1[H]

>  <index>  (137) 
1373

>  <∆∆G>  (137) 
-1.580912

>  <comRMSD>  (137) 
0.363651

>  <N_constrained_atoms>  (137) 
13.0

>  <N_unconstrained_atoms>  (137) 
0.0

>  <LE>  (137) 
0.121609

>  <percent_hybrid>  (137) 
0.0

>  <max_hit_Tanimoto>  (137) 
0.676077

>  <largest_ring>  (137) 
5

>  <N_interactions_kept>  (137) 
0.0

>  <N_interactions_lost>  (137) 
0.0

>  <interaction_uniqueness_metric>  (137) 
0.865454

>  <N_HA>  (137) 
13

>  <N_rotatable_bonds>  (137) 
2

>  <N_interactions>  (137) 
4

>  <N_PAINS>  (137) 
0

>  <UFF_Gibbs>  (137) 
37.664102

>  <strain_per_HA>  (137) 
2.897216

>  <ad_hoc_penalty>  (137) 
-36.430669

>  <cluster>  (137) 
3841

>  <merger_rank>  (137) 
1

>  <pication:ARG:29>  (137) 
0

>  <hbond:HIS:51>  (137) 
0

>  <pistack:HIS:51>  (137) 
1

>  <hydroph_interaction:TYR:161>  (137) 
1

>  <pication:HIS:51>  (137) 
0

>  <hydroph_interaction:ALA:132>  (137) 
0

>  <hydroph_interaction:TYR:150>  (137) 
0

>  <hydroph_interaction:LYS:54>  (137) 
0

>  <hbond:SER:135>  (137) 
0

>  <hydroph_interaction:HIS:51>  (137) 
0

>  <hbond:ASP:83>  (137) 
0

>  <hbond:ALA:132>  (137) 
0

>  <halogenbond:SER:81>  (137) 
0

>  <hbond:GLY:82>  (137) 
0

>  <saltbridge:HIS:51>  (137) 
0

>  <pistack:TYR:161>  (137) 
0

>  <hbond:SER:81>  (137) 
0

>  <hbond:ASN:152>  (137) 
0

>  <hbond:GLY:151>  (137) 
0

>  <hydroph_interaction:ASN:152>  (137) 
0

>  <hbond:TYR:161>  (137) 
0

>  <halogenbond:TYR:150>  (137) 
0

>  <hbond:ASP:75>  (137) 
0

>  <hbond:GLY:153>  (137) 
0

>  <hbond:VAL:36>  (137) 
0

>  <hbond:PRO:131>  (137) 
0

>  <hbond:VAL:52>  (137) 
0

>  <hydroph_interaction:ASP:83>  (137) 
0

>  <hydroph_interaction:MET:49>  (137) 
0

>  <hydroph_interaction:VAL:52>  (137) 
0

>  <saltbridge:ASP:83>  (137) 
0

>  <saltbridge:ASP:75>  (137) 
0

>  <hydroph_interaction:TRP:50>  (137) 
0

>  <hydroph_interaction:VAL:72>  (137) 
0

>  <hydroph_interaction:ASP:75>  (137) 
0

>  <halogenbond:ASN:152>  (137) 
1

>  <halogenbond:GLY:153>  (137) 
0

>  <halogenbond:TYR:130>  (137) 
0

>  <hbond:TYR:130>  (137) 
0

>  <halogenbond:ASP:75>  (137) 
1

>  <halogenbond:GLY:151>  (137) 
0

>  <hbond:TYR:150>  (137) 
0

>  <halogenbond:TYR:161>  (137) 
0

>  <hydroph_interaction:ASP:129>  (137) 
0

>  <hbond:ASP:129>  (137) 
0

>  <halogenbond:ALA:132>  (137) 
0

$$$$
Z1673605349
     RDKit          3D

 29 31  0  0  0  0  0  0  0  0999 V2000
   -9.6300    2.2800   -8.2070 Cl  0  0  0  0  0  0  0  0  0  0  0  0
   -9.2510    3.6590   -9.1470 C   0  0  0  0  0  0  0  0  0  0  0  0
   -8.9750    4.8230   -8.4950 C   0  0  0  0  0  0  0  0  0  0  0  0
   -8.6470    6.0900   -9.1740 C   0  0  0  0  0  0  0  0  0  0  0  0
   -8.6480    5.9640  -10.6560 C   0  0  0  0  0  0  0  0  0  0  0  0
   -8.3090    7.2660  -11.3880 C   0  0  0  0  0  0  0  0  0  0  0  0
   -9.2940    7.5270  -12.4270 N   0  0  0  0  0  0  0  0  0  0  0  0
   -9.3090    6.8050  -13.5640 C   0  0  0  0  0  0  0  0  0  0  0  0
  -10.2250    6.0180  -14.0570 N   0  0  0  0  0  0  0  0  0  0  0  0
   -9.7450    5.5320  -15.2500 N   0  0  0  0  0  0  0  0  0  0  0  0
   -8.5540    6.0510  -15.4250 C   0  0  0  0  0  0  0  0  0  0  0  0
   -7.7030    5.7430  -16.6740 C   0  0  0  0  0  0  0  0  0  0  0  0
   -8.1350    5.2640  -17.8690 C   0  0  0  0  0  0  0  0  0  0  0  0
   -7.2130    5.0620  -18.8970 C   0  0  0  0  0  0  0  0  0  0  0  0
   -5.9660    5.4350  -18.3780 C   0  0  0  0  0  0  0  0  0  0  0  0
   -6.0180    5.9840  -16.7500 S   0  0  0  0  0  0  0  0  0  0  0  0
   -8.1950    6.8850  -14.3780 O   0  0  0  0  0  0  0  0  0  0  0  0
   -8.9320    4.7440  -11.3050 C   0  0  0  0  0  0  0  0  0  0  0  0
   -9.2320    3.5950  -10.5510 C   0  0  0  0  0  0  0  0  0  0  0  0
   -9.0020    4.8240   -7.3970 H   0  0  0  0  0  0  0  0  0  0  0  0
   -8.4330    7.0070   -8.6430 H   0  0  0  0  0  0  0  0  0  0  0  0
   -7.3120    7.2480  -11.8300 H   0  0  0  0  0  0  0  0  0  0  0  0
   -8.2760    8.1690  -10.7860 H   0  0  0  0  0  0  0  0  0  0  0  0
  -10.2090    7.8060  -12.0460 H   0  0  0  0  0  0  0  0  0  0  0  0
   -9.1870    5.0420  -18.0140 H   0  0  0  0  0  0  0  0  0  0  0  0
   -7.3990    4.6920  -19.8990 H   0  0  0  0  0  0  0  0  0  0  0  0
   -5.0160    5.4060  -18.8940 H   0  0  0  0  0  0  0  0  0  0  0  0
   -8.9040    4.7560  -12.3850 H   0  0  0  0  0  0  0  0  0  0  0  0
   -9.4620    2.6290  -10.9920 H   0  0  0  0  0  0  0  0  0  0  0  0
  1  2  1  0
  2  3  2  0
  3  4  1  0
  4  5  2  0
  5  6  1  0
  6  7  1  0
  7  8  1  0
  8  9  2  0
  9 10  1  0
 10 11  2  0
 11 12  1  0
 12 13  2  0
 13 14  1  0
 14 15  2  0
 15 16  1  0
 11 17  1  0
  5 18  1  0
 18 19  2  0
 19  2  1  0
 17  8  1  0
 16 12  1  0
  3 20  1  0
  4 21  1  0
  6 22  1  0
  6 23  1  0
  7 24  1  0
 13 25  1  0
 14 26  1  0
 15 27  1  0
 18 28  1  0
 19 29  1  0
A    1
CL1 
A    2
 C1 
A    3
 C2 
A    4
 C3 
A    5
 C4 
A    6
 C5 
A    7
 N1 
A    8
 C6 
A    9
 N2 
A   10
 N3 
A   11
 C7 
A   12
 C8 
A   13
 C9 
A   14
 C10
A   15
 C11
A   16
 S1 
A   17
 O1 
A   18
 C12
A   19
 C13
A   20
 H1 
A   21
 H2 
A   22
 H3 
A   23
 H4 
A   24
 H5 
A   25
 H6 
A   26
 H7 
A   27
 H8 
A   28
 H9 
A   29
 H10
M  END
>  <ref_pdb>  (138) 
x0051_0B

>  <ref_mols>  (138) 
x0404_0B,x0969_0B

>  <original SMILES>  (138) 
[H]c1sc(-c2nnc(N([H])C([H])([H])c3c([H])c([H])c(Cl)c([H])c3[H])o2)c([H])c1[H]

>  <index>  (138) 
5793

>  <∆∆G>  (138) 
-4.635451

>  <comRMSD>  (138) 
0.261073

>  <N_constrained_atoms>  (138) 
18.0

>  <N_unconstrained_atoms>  (138) 
1.0

>  <LE>  (138) 
0.243971

>  <percent_hybrid>  (138) 
0.0

>  <max_hit_Tanimoto>  (138) 
0.269011

>  <largest_ring>  (138) 
6

>  <N_interactions_kept>  (138) 
0.0

>  <N_interactions_lost>  (138) 
0.0

>  <interaction_uniqueness_metric>  (138) 
0.211186

>  <N_HA>  (138) 
19

>  <N_rotatable_bonds>  (138) 
4

>  <N_interactions>  (138) 
6

>  <N_PAINS>  (138) 
0

>  <UFF_Gibbs>  (138) 
59.671291

>  <strain_per_HA>  (138) 
3.140578

>  <ad_hoc_penalty>  (138) 
-36.358499

>  <cluster>  (138) 
20

>  <merger_rank>  (138) 
1

>  <pication:ARG:29>  (138) 
0

>  <hbond:HIS:51>  (138) 
0

>  <pistack:HIS:51>  (138) 
1

>  <hydroph_interaction:TYR:161>  (138) 
0

>  <pication:HIS:51>  (138) 
0

>  <hydroph_interaction:ALA:132>  (138) 
1

>  <hydroph_interaction:TYR:150>  (138) 
0

>  <hydroph_interaction:LYS:54>  (138) 
0

>  <hbond:SER:135>  (138) 
1

>  <hydroph_interaction:HIS:51>  (138) 
1

>  <hbond:ASP:83>  (138) 
0

>  <hbond:ALA:132>  (138) 
0

>  <halogenbond:SER:81>  (138) 
1

>  <hbond:GLY:82>  (138) 
0

>  <saltbridge:HIS:51>  (138) 
0

>  <pistack:TYR:161>  (138) 
1

>  <hbond:SER:81>  (138) 
0

>  <hbond:ASN:152>  (138) 
0

>  <hbond:GLY:151>  (138) 
0

>  <hydroph_interaction:ASN:152>  (138) 
0

>  <hbond:TYR:161>  (138) 
0

>  <halogenbond:TYR:150>  (138) 
0

>  <hbond:ASP:75>  (138) 
0

>  <hbond:GLY:153>  (138) 
0

>  <hbond:VAL:36>  (138) 
0

>  <hbond:PRO:131>  (138) 
0

>  <hbond:VAL:52>  (138) 
0

>  <hydroph_interaction:ASP:83>  (138) 
0

>  <hydroph_interaction:MET:49>  (138) 
0

>  <hydroph_interaction:VAL:52>  (138) 
0

>  <saltbridge:ASP:83>  (138) 
0

>  <saltbridge:ASP:75>  (138) 
0

>  <hydroph_interaction:TRP:50>  (138) 
0

>  <hydroph_interaction:VAL:72>  (138) 
0

>  <hydroph_interaction:ASP:75>  (138) 
0

>  <halogenbond:ASN:152>  (138) 
0

>  <halogenbond:GLY:153>  (138) 
0

>  <halogenbond:TYR:130>  (138) 
0

>  <hbond:TYR:130>  (138) 
0

>  <halogenbond:ASP:75>  (138) 
0

>  <halogenbond:GLY:151>  (138) 
0

>  <hbond:TYR:150>  (138) 
0

>  <halogenbond:TYR:161>  (138) 
0

>  <hydroph_interaction:ASP:129>  (138) 
0

>  <hbond:ASP:129>  (138) 
0

>  <halogenbond:ALA:132>  (138) 
0

$$$$
Z5089173139
     RDKit          3D

 21 23  0  0  0  0  0  0  0  0999 V2000
   -9.2650    3.4720   -7.8080 C   0  0  0  0  0  0  0  0  0  0  0  0
   -9.0790    4.0280   -9.1880 C   0  0  0  0  0  0  0  0  0  0  0  0
   -9.1980    3.3370  -10.3710 C   0  0  0  0  0  0  0  0  0  0  0  0
   -8.9610    4.1850  -11.3340 N   0  0  0  0  0  0  0  0  0  0  0  0
   -8.9900    3.8500  -12.6190 N   0  0  0  0  0  0  0  0  0  0  0  0
   -8.6830    5.0180  -13.1700 C   0  0  0  0  0  0  0  0  0  0  0  0
   -8.5780    5.1080  -14.5730 N   0  0  0  0  0  0  0  0  0  0  0  0
   -7.4040    5.2350  -15.3140 C   0  0  0  0  0  0  0  0  0  0  0  0
   -7.9350    5.2730  -16.7210 C   0  0  0  0  0  0  0  0  0  0  0  0
   -9.3010    5.1680  -16.6650 C   0  0  0  0  0  0  0  0  0  0  0  0
   -9.7090    5.0720  -15.4010 N   0  0  0  0  0  0  0  0  0  0  0  0
   -8.4030    6.4120  -12.1660 S   0  0  0  0  0  0  0  0  0  0  0  0
   -8.6960    5.3830  -10.8220 C   0  0  0  0  0  0  0  0  0  0  0  0
   -8.7460    5.3820   -9.4890 N   0  0  0  0  0  0  0  0  0  0  0  0
  -10.3220    3.4320   -7.5380 H   0  0  0  0  0  0  0  0  0  0  0  0
   -8.8730    2.4520   -7.7380 H   0  0  0  0  0  0  0  0  0  0  0  0
   -8.7340    4.0850   -7.0720 H   0  0  0  0  0  0  0  0  0  0  0  0
   -9.4330    2.3090  -10.6100 H   0  0  0  0  0  0  0  0  0  0  0  0
   -6.4210    5.2820  -14.8680 H   0  0  0  0  0  0  0  0  0  0  0  0
   -7.3510    5.3640  -17.6330 H   0  0  0  0  0  0  0  0  0  0  0  0
   -9.9730    5.1620  -17.5180 H   0  0  0  0  0  0  0  0  0  0  0  0
  1  2  1  0
  2  3  2  0
  3  4  1  0
  4  5  1  0
  5  6  2  0
  6  7  1  0
  7  8  1  0
  8  9  2  0
  9 10  1  0
 10 11  2  0
  6 12  1  0
 12 13  1  0
 13 14  2  0
 14  2  1  0
 13  4  1  0
 11  7  1  0
  1 15  1  0
  1 16  1  0
  1 17  1  0
  3 18  1  0
  8 19  1  0
  9 20  1  0
 10 21  1  0
A    1
 C1 
A    2
 C2 
A    3
 C3 
A    4
 N1 
A    5
 N2 
A    6
 C4 
A    7
 N3 
A    8
 C5 
A    9
 C6 
A   10
 C7 
A   11
 N4 
A   12
 S1 
A   13
 C8 
A   14
 N5 
A   15
 H1 
A   16
 H2 
A   17
 H3 
A   18
 H4 
A   19
 H5 
A   20
 H6 
A   21
 H7 
M  END
>  <ref_pdb>  (139) 
x0051_0B

>  <ref_mols>  (139) 
x0969_1B,x0553_0B

>  <original SMILES>  (139) 
[H]c1nn(-c2nn3c([H])c(C([H])([H])[H])nc3s2)c([H])c1[H]

>  <index>  (139) 
1157

>  <∆∆G>  (139) 
-2.887723

>  <comRMSD>  (139) 
0.148709

>  <N_constrained_atoms>  (139) 
13.0

>  <N_unconstrained_atoms>  (139) 
1.0

>  <LE>  (139) 
0.206266

>  <percent_hybrid>  (139) 
0.0

>  <max_hit_Tanimoto>  (139) 
0.260456

>  <largest_ring>  (139) 
5

>  <N_interactions_kept>  (139) 
0.0

>  <N_interactions_lost>  (139) 
0.0

>  <interaction_uniqueness_metric>  (139) 
0.112897

>  <N_HA>  (139) 
14

>  <N_rotatable_bonds>  (139) 
1

>  <N_interactions>  (139) 
6

>  <N_PAINS>  (139) 
0

>  <UFF_Gibbs>  (139) 
54.992067

>  <strain_per_HA>  (139) 
3.927977

>  <ad_hoc_penalty>  (139) 
-36.353589

>  <cluster>  (139) 
4016

>  <merger_rank>  (139) 
4

>  <pication:ARG:29>  (139) 
0

>  <hbond:HIS:51>  (139) 
0

>  <pistack:HIS:51>  (139) 
2

>  <hydroph_interaction:TYR:161>  (139) 
1

>  <pication:HIS:51>  (139) 
0

>  <hydroph_interaction:ALA:132>  (139) 
0

>  <hydroph_interaction:TYR:150>  (139) 
0

>  <hydroph_interaction:LYS:54>  (139) 
0

>  <hbond:SER:135>  (139) 
1

>  <hydroph_interaction:HIS:51>  (139) 
1

>  <hbond:ASP:83>  (139) 
0

>  <hbond:ALA:132>  (139) 
0

>  <halogenbond:SER:81>  (139) 
0

>  <hbond:GLY:82>  (139) 
0

>  <saltbridge:HIS:51>  (139) 
0

>  <pistack:TYR:161>  (139) 
0

>  <hbond:SER:81>  (139) 
0

>  <hbond:ASN:152>  (139) 
0

>  <hbond:GLY:151>  (139) 
0

>  <hydroph_interaction:ASN:152>  (139) 
0

>  <hbond:TYR:161>  (139) 
1

>  <halogenbond:TYR:150>  (139) 
0

>  <hbond:ASP:75>  (139) 
0

>  <hbond:GLY:153>  (139) 
0

>  <hbond:VAL:36>  (139) 
0

>  <hbond:PRO:131>  (139) 
0

>  <hbond:VAL:52>  (139) 
0

>  <hydroph_interaction:ASP:83>  (139) 
0

>  <hydroph_interaction:MET:49>  (139) 
0

>  <hydroph_interaction:VAL:52>  (139) 
0

>  <saltbridge:ASP:83>  (139) 
0

>  <saltbridge:ASP:75>  (139) 
0

>  <hydroph_interaction:TRP:50>  (139) 
0

>  <hydroph_interaction:VAL:72>  (139) 
0

>  <hydroph_interaction:ASP:75>  (139) 
0

>  <halogenbond:ASN:152>  (139) 
0

>  <halogenbond:GLY:153>  (139) 
0

>  <halogenbond:TYR:130>  (139) 
0

>  <hbond:TYR:130>  (139) 
0

>  <halogenbond:ASP:75>  (139) 
0

>  <halogenbond:GLY:151>  (139) 
0

>  <hbond:TYR:150>  (139) 
0

>  <halogenbond:TYR:161>  (139) 
0

>  <hydroph_interaction:ASP:129>  (139) 
0

>  <hbond:ASP:129>  (139) 
0

>  <halogenbond:ALA:132>  (139) 
0

$$$$
PV-006806941919
     RDKit          3D

 19 20  0  0  0  0  0  0  0  0999 V2000
   -9.3520    5.0210  -17.1510 C   0  0  0  0  0  0  0  0  0  0  0  0
   -8.5920    5.1860  -15.8520 C   0  0  0  0  0  0  0  0  0  0  0  0
   -7.2980    5.5390  -15.8540 N   0  0  0  0  0  0  0  0  0  0  0  0
   -6.7870    5.6020  -14.2750 S   0  0  0  0  0  0  0  0  0  0  0  0
   -8.3150    5.1570  -13.6500 C   0  0  0  0  0  0  0  0  0  0  0  0
   -8.4990    5.0190  -12.1840 C   0  0  0  0  0  0  0  0  0  0  0  0
   -8.0900    6.0630  -11.4590 N   0  0  0  0  0  0  0  0  0  0  0  0
   -8.2260    5.9830  -10.1070 C   0  0  0  0  0  0  0  0  0  0  0  0
   -8.7830    4.8240   -9.4800 C   0  0  0  0  0  0  0  0  0  0  0  0
   -9.2110    3.7330  -10.2180 C   0  0  0  0  0  0  0  0  0  0  0  0
   -9.0620    3.8440  -11.5980 C   0  0  0  0  0  0  0  0  0  0  0  0
   -9.4600    2.8210  -12.3280 F   0  0  0  0  0  0  0  0  0  0  0  0
   -9.1820    4.9800  -14.6220 N   0  0  0  0  0  0  0  0  0  0  0  0
   -8.7440    5.3250  -18.0090 H   0  0  0  0  0  0  0  0  0  0  0  0
  -10.2710    5.6080  -17.1560 H   0  0  0  0  0  0  0  0  0  0  0  0
   -9.6200    3.9780  -17.2910 H   0  0  0  0  0  0  0  0  0  0  0  0
   -7.9110    6.8050   -9.4810 H   0  0  0  0  0  0  0  0  0  0  0  0
   -8.8920    4.7540   -8.4070 H   0  0  0  0  0  0  0  0  0  0  0  0
   -9.6350    2.8460   -9.7620 H   0  0  0  0  0  0  0  0  0  0  0  0
  1  2  1  0
  2  3  2  0
  3  4  1  0
  4  5  1  0
  5  6  1  0
  6  7  2  0
  7  8  1  0
  8  9  2  0
  9 10  1  0
 10 11  2  0
 11 12  1  0
  5 13  2  0
 13  2  1  0
 11  6  1  0
  1 14  1  0
  1 15  1  0
  1 16  1  0
  8 17  1  0
  9 18  1  0
 10 19  1  0
A    1
 C1 
A    2
 C2 
A    3
 N1 
A    4
 S1 
A    5
 C3 
A    6
 C4 
A    7
 N2 
A    8
 C5 
A    9
 C6 
A   10
 C7 
A   11
 C8 
A   12
 F1 
A   13
 N3 
A   14
 H1 
A   15
 H2 
A   16
 H3 
A   17
 H4 
A   18
 H5 
A   19
 H6 
M  END
>  <ref_pdb>  (140) 
x0051_0B

>  <ref_mols>  (140) 
x0969_1B,x0553_0B

>  <original SMILES>  (140) 
[H]c1nc(-c2nc(C([H])([H])[H])ns2)c(F)c([H])c1[H]

>  <index>  (140) 
3079

>  <∆∆G>  (140) 
-2.605831

>  <comRMSD>  (140) 
0.32225

>  <N_constrained_atoms>  (140) 
12.0

>  <N_unconstrained_atoms>  (140) 
1.0

>  <LE>  (140) 
0.200449

>  <percent_hybrid>  (140) 
0.0

>  <max_hit_Tanimoto>  (140) 
0.3044

>  <largest_ring>  (140) 
6

>  <N_interactions_kept>  (140) 
0.0

>  <N_interactions_lost>  (140) 
0.0

>  <interaction_uniqueness_metric>  (140) 
0.430266

>  <N_HA>  (140) 
13

>  <N_rotatable_bonds>  (140) 
2

>  <N_interactions>  (140) 
5

>  <N_PAINS>  (140) 
0

>  <UFF_Gibbs>  (140) 
16.921781

>  <strain_per_HA>  (140) 
1.301665

>  <ad_hoc_penalty>  (140) 
-36.325541

>  <cluster>  (140) 
2630

>  <merger_rank>  (140) 
1

>  <pication:ARG:29>  (140) 
0

>  <hbond:HIS:51>  (140) 
0

>  <pistack:HIS:51>  (140) 
1

>  <hydroph_interaction:TYR:161>  (140) 
1

>  <pication:HIS:51>  (140) 
0

>  <hydroph_interaction:ALA:132>  (140) 
0

>  <hydroph_interaction:TYR:150>  (140) 
0

>  <hydroph_interaction:LYS:54>  (140) 
0

>  <hbond:SER:135>  (140) 
0

>  <hydroph_interaction:HIS:51>  (140) 
1

>  <hbond:ASP:83>  (140) 
0

>  <hbond:ALA:132>  (140) 
0

>  <halogenbond:SER:81>  (140) 
0

>  <hbond:GLY:82>  (140) 
0

>  <saltbridge:HIS:51>  (140) 
0

>  <pistack:TYR:161>  (140) 
0

>  <hbond:SER:81>  (140) 
0

>  <hbond:ASN:152>  (140) 
0

>  <hbond:GLY:151>  (140) 
0

>  <hydroph_interaction:ASN:152>  (140) 
0

>  <hbond:TYR:161>  (140) 
1

>  <halogenbond:TYR:150>  (140) 
0

>  <hbond:ASP:75>  (140) 
0

>  <hbond:GLY:153>  (140) 
0

>  <hbond:VAL:36>  (140) 
0

>  <hbond:PRO:131>  (140) 
0

>  <hbond:VAL:52>  (140) 
0

>  <hydroph_interaction:ASP:83>  (140) 
0

>  <hydroph_interaction:MET:49>  (140) 
0

>  <hydroph_interaction:VAL:52>  (140) 
0

>  <saltbridge:ASP:83>  (140) 
0

>  <saltbridge:ASP:75>  (140) 
0

>  <hydroph_interaction:TRP:50>  (140) 
0

>  <hydroph_interaction:VAL:72>  (140) 
0

>  <hydroph_interaction:ASP:75>  (140) 
0

>  <halogenbond:ASN:152>  (140) 
0

>  <halogenbond:GLY:153>  (140) 
0

>  <halogenbond:TYR:130>  (140) 
0

>  <hbond:TYR:130>  (140) 
0

>  <halogenbond:ASP:75>  (140) 
0

>  <halogenbond:GLY:151>  (140) 
1

>  <hbond:TYR:150>  (140) 
0

>  <halogenbond:TYR:161>  (140) 
0

>  <hydroph_interaction:ASP:129>  (140) 
0

>  <hbond:ASP:129>  (140) 
0

>  <halogenbond:ALA:132>  (140) 
0

$$$$
Z193705736
     RDKit          3D

 28 30  0  0  0  0  0  0  0  0999 V2000
   -9.2410    3.4040   -9.2820 C   0  0  0  0  0  0  0  0  0  0  0  0
   -9.2220    3.4640  -10.7540 C   0  0  0  0  0  0  0  0  0  0  0  0
   -8.9290    4.7070  -11.2650 C   0  0  0  0  0  0  0  0  0  0  0  0
   -8.6570    5.8710  -10.4950 C   0  0  0  0  0  0  0  0  0  0  0  0
   -8.3430    7.1650  -11.1710 C   0  0  0  0  0  0  0  0  0  0  0  0
   -9.6250    7.7390  -12.1600 S   0  0  0  0  0  0  0  0  0  0  0  0
   -9.3430    6.9100  -13.6270 C   0  0  0  0  0  0  0  0  0  0  0  0
  -10.3450    6.1060  -14.1480 N   0  0  0  0  0  0  0  0  0  0  0  0
   -9.7240    5.6650  -15.2810 N   0  0  0  0  0  0  0  0  0  0  0  0
   -8.4820    6.1010  -15.5060 C   0  0  0  0  0  0  0  0  0  0  0  0
   -7.6990    5.7010  -16.7150 C   0  0  0  0  0  0  0  0  0  0  0  0
   -8.1980    5.0740  -17.8470 C   0  0  0  0  0  0  0  0  0  0  0  0
   -7.1900    4.8490  -18.8140 C   0  0  0  0  0  0  0  0  0  0  0  0
   -5.9620    5.2930  -18.4140 C   0  0  0  0  0  0  0  0  0  0  0  0
   -6.0090    5.9930  -16.8570 S   0  0  0  0  0  0  0  0  0  0  0  0
   -8.2440    6.9000  -14.4340 N   0  0  0  0  0  0  0  0  0  0  0  0
   -8.6850    5.7740   -9.1170 N   0  0  0  0  0  0  0  0  0  0  0  0
   -8.9700    4.5570   -8.5570 C   0  0  0  0  0  0  0  0  0  0  0  0
   -9.4720    2.4220   -8.8540 H   0  0  0  0  0  0  0  0  0  0  0  0
   -9.4240    2.5980  -11.3640 H   0  0  0  0  0  0  0  0  0  0  0  0
   -8.9090    4.7740  -12.3570 H   0  0  0  0  0  0  0  0  0  0  0  0
   -7.3850    7.1240  -11.6810 H   0  0  0  0  0  0  0  0  0  0  0  0
   -8.1540    8.0230  -10.5400 H   0  0  0  0  0  0  0  0  0  0  0  0
   -9.2230    4.7750  -18.0230 H   0  0  0  0  0  0  0  0  0  0  0  0
   -7.3720    4.3710  -19.7730 H   0  0  0  0  0  0  0  0  0  0  0  0
   -5.0750    5.2020  -19.0270 H   0  0  0  0  0  0  0  0  0  0  0  0
   -7.3870    7.4110  -14.2630 H   0  0  0  0  0  0  0  0  0  0  0  0
   -8.9750    4.5340   -7.4740 H   0  0  0  0  0  0  0  0  0  0  0  0
  1  2  2  0
  2  3  1  0
  3  4  2  0
  4  5  1  0
  5  6  1  0
  6  7  1  0
  7  8  2  0
  8  9  1  0
  9 10  2  0
 10 11  1  0
 11 12  2  0
 12 13  1  0
 13 14  2  0
 14 15  1  0
 10 16  1  0
  4 17  1  0
 17 18  2  0
 18  1  1  0
 16  7  1  0
 15 11  1  0
  1 19  1  0
  2 20  1  0
  3 21  1  0
  5 22  1  0
  5 23  1  0
 12 24  1  0
 13 25  1  0
 14 26  1  0
 16 27  1  0
 18 28  1  0
A    1
 C1 
A    2
 C2 
A    3
 C3 
A    4
 C4 
A    5
 C5 
A    6
 S1 
A    7
 C6 
A    8
 N1 
A    9
 N2 
A   10
 C7 
A   11
 C8 
A   12
 C9 
A   13
 C10
A   14
 C11
A   15
 S2 
A   16
 N3 
A   17
 N4 
A   18
 C12
A   19
 H1 
A   20
 H2 
A   21
 H3 
A   22
 H4 
A   23
 H5 
A   24
 H6 
A   25
 H7 
A   26
 H8 
A   27
 H9 
A   28
 H10
M  END
>  <ref_pdb>  (141) 
x0051_0B

>  <ref_mols>  (141) 
x0404_0B,x0969_0B

>  <original SMILES>  (141) 
[H]c1nc(C([H])([H])Sc2nnc(-c3sc([H])c([H])c3[H])n2[H])c([H])c([H])c1[H]

>  <index>  (141) 
5768

>  <∆∆G>  (141) 
-6.517141

>  <comRMSD>  (141) 
0.224452

>  <N_constrained_atoms>  (141) 
18.0

>  <N_unconstrained_atoms>  (141) 
0.0

>  <LE>  (141) 
0.362063

>  <percent_hybrid>  (141) 
0.0

>  <max_hit_Tanimoto>  (141) 
0.299306

>  <largest_ring>  (141) 
6

>  <N_interactions_kept>  (141) 
0.0

>  <N_interactions_lost>  (141) 
0.0

>  <interaction_uniqueness_metric>  (141) 
0.137803

>  <N_HA>  (141) 
18

>  <N_rotatable_bonds>  (141) 
4

>  <N_interactions>  (141) 
5

>  <N_PAINS>  (141) 
0

>  <UFF_Gibbs>  (141) 
52.554075

>  <strain_per_HA>  (141) 
2.919655

>  <ad_hoc_penalty>  (141) 
-36.287135

>  <cluster>  (141) 
898

>  <merger_rank>  (141) 
2

>  <pication:ARG:29>  (141) 
0

>  <hbond:HIS:51>  (141) 
0

>  <pistack:HIS:51>  (141) 
1

>  <hydroph_interaction:TYR:161>  (141) 
0

>  <pication:HIS:51>  (141) 
0

>  <hydroph_interaction:ALA:132>  (141) 
0

>  <hydroph_interaction:TYR:150>  (141) 
0

>  <hydroph_interaction:LYS:54>  (141) 
0

>  <hbond:SER:135>  (141) 
1

>  <hydroph_interaction:HIS:51>  (141) 
1

>  <hbond:ASP:83>  (141) 
0

>  <hbond:ALA:132>  (141) 
0

>  <halogenbond:SER:81>  (141) 
0

>  <hbond:GLY:82>  (141) 
0

>  <saltbridge:HIS:51>  (141) 
0

>  <pistack:TYR:161>  (141) 
1

>  <hbond:SER:81>  (141) 
0

>  <hbond:ASN:152>  (141) 
0

>  <hbond:GLY:151>  (141) 
1

>  <hydroph_interaction:ASN:152>  (141) 
0

>  <hbond:TYR:161>  (141) 
0

>  <halogenbond:TYR:150>  (141) 
0

>  <hbond:ASP:75>  (141) 
0

>  <hbond:GLY:153>  (141) 
0

>  <hbond:VAL:36>  (141) 
0

>  <hbond:PRO:131>  (141) 
0

>  <hbond:VAL:52>  (141) 
0

>  <hydroph_interaction:ASP:83>  (141) 
0

>  <hydroph_interaction:MET:49>  (141) 
0

>  <hydroph_interaction:VAL:52>  (141) 
0

>  <saltbridge:ASP:83>  (141) 
0

>  <saltbridge:ASP:75>  (141) 
0

>  <hydroph_interaction:TRP:50>  (141) 
0

>  <hydroph_interaction:VAL:72>  (141) 
0

>  <hydroph_interaction:ASP:75>  (141) 
0

>  <halogenbond:ASN:152>  (141) 
0

>  <halogenbond:GLY:153>  (141) 
0

>  <halogenbond:TYR:130>  (141) 
0

>  <hbond:TYR:130>  (141) 
0

>  <halogenbond:ASP:75>  (141) 
0

>  <halogenbond:GLY:151>  (141) 
0

>  <hbond:TYR:150>  (141) 
0

>  <halogenbond:TYR:161>  (141) 
0

>  <hydroph_interaction:ASP:129>  (141) 
0

>  <hbond:ASP:129>  (141) 
0

>  <halogenbond:ALA:132>  (141) 
0

$$$$
Z46040266
     RDKit          3D

 27 28  0  0  0  0  0  0  0  0999 V2000
  -10.8350    5.8420  -12.7260 O   0  0  0  0  0  0  0  0  0  0  0  0
   -9.6370    5.5470  -12.6270 C   0  0  0  0  0  0  0  0  0  0  0  0
   -8.8610    5.6730  -13.7430 C   0  0  0  0  0  0  0  0  0  0  0  0
   -9.2970    5.3400  -15.0080 C   0  0  0  0  0  0  0  0  0  0  0  0
   -8.3130    5.5340  -16.0950 C   0  0  0  0  0  0  0  0  0  0  0  0
   -8.8080    5.0250  -17.4300 C   0  0  0  0  0  0  0  0  0  0  0  0
   -7.8680    5.2040  -18.5400 C   0  0  0  0  0  0  0  0  0  0  0  0
   -6.6400    5.7900  -18.3540 C   0  0  0  0  0  0  0  0  0  0  0  0
   -5.5880    5.9700  -19.7020 Cl  0  0  0  0  0  0  0  0  0  0  0  0
   -6.2260    6.2440  -17.0890 C   0  0  0  0  0  0  0  0  0  0  0  0
   -7.0430    6.1220  -15.9700 C   0  0  0  0  0  0  0  0  0  0  0  0
   -9.1280    5.1350  -11.4020 C   0  0  0  0  0  0  0  0  0  0  0  0
   -8.0100    5.8230  -10.7290 C   0  0  0  0  0  0  0  0  0  0  0  0
   -7.5720    5.3910   -9.5120 C   0  0  0  0  0  0  0  0  0  0  0  0
   -8.1430    4.3380   -8.9020 N   0  0  0  0  0  0  0  0  0  0  0  0
   -9.1620    3.6830   -9.5220 C   0  0  0  0  0  0  0  0  0  0  0  0
   -9.6860    4.0320  -10.7540 C   0  0  0  0  0  0  0  0  0  0  0  0
   -7.8570    6.0470  -13.6180 H   0  0  0  0  0  0  0  0  0  0  0  0
  -10.2900    4.9560  -15.2170 H   0  0  0  0  0  0  0  0  0  0  0  0
   -9.7530    4.5580  -17.6570 H   0  0  0  0  0  0  0  0  0  0  0  0
   -8.1700    4.8580  -19.5240 H   0  0  0  0  0  0  0  0  0  0  0  0
   -5.2520    6.7010  -16.9620 H   0  0  0  0  0  0  0  0  0  0  0  0
   -6.7630    6.4590  -14.9830 H   0  0  0  0  0  0  0  0  0  0  0  0
   -7.5210    6.6820  -11.1740 H   0  0  0  0  0  0  0  0  0  0  0  0
   -6.7580    5.8670   -8.9750 H   0  0  0  0  0  0  0  0  0  0  0  0
   -9.5620    2.8360   -8.9730 H   0  0  0  0  0  0  0  0  0  0  0  0
  -10.5050    3.4660  -11.1870 H   0  0  0  0  0  0  0  0  0  0  0  0
  1  2  2  0
  2  3  1  0
  3  4  2  3
  4  5  1  0
  5  6  2  0
  6  7  1  0
  7  8  2  0
  8  9  1  0
  8 10  1  0
 10 11  2  0
  2 12  1  0
 12 13  2  0
 13 14  1  0
 14 15  2  0
 15 16  1  0
 16 17  2  0
 11  5  1  0
 17 12  1  0
  3 18  1  0
  4 19  1  0
  6 20  1  0
  7 21  1  0
 10 22  1  0
 11 23  1  0
 13 24  1  0
 14 25  1  0
 16 26  1  0
 17 27  1  0
A    1
 O1 
A    2
 C1 
A    3
 C2 
A    4
 C3 
A    5
 C4 
A    6
 C5 
A    7
 C6 
A    8
 C7 
A    9
CL1 
A   10
 C8 
A   11
 C9 
A   12
 C10
A   13
 C11
A   14
 C12
A   15
 N1 
A   16
 C13
A   17
 C14
A   18
 H1 
A   19
 H2 
A   20
 H3 
A   21
 H4 
A   22
 H5 
A   23
 H6 
A   24
 H7 
A   25
 H8 
A   26
 H9 
A   27
 H10
M  END
>  <ref_pdb>  (142) 
x0051_0B

>  <ref_mols>  (142) 
x0404_0B,x0969_0B

>  <original SMILES>  (142) 
[H]C(C(=O)c1c([H])c([H])nc([H])c1[H])=C([H])c1c([H])c([H])c(Cl)c([H])c1[H]

>  <index>  (142) 
3352

>  <∆∆G>  (142) 
-4.198258

>  <comRMSD>  (142) 
0.356689

>  <N_constrained_atoms>  (142) 
16.0

>  <N_unconstrained_atoms>  (142) 
1.0

>  <LE>  (142) 
0.246956

>  <percent_hybrid>  (142) 
0.0

>  <max_hit_Tanimoto>  (142) 
0.65097

>  <largest_ring>  (142) 
6

>  <N_interactions_kept>  (142) 
0.0

>  <N_interactions_lost>  (142) 
0.0

>  <interaction_uniqueness_metric>  (142) 
0.10789

>  <N_HA>  (142) 
17

>  <N_rotatable_bonds>  (142) 
3

>  <N_interactions>  (142) 
6

>  <N_PAINS>  (142) 
0

>  <UFF_Gibbs>  (142) 
48.269691

>  <strain_per_HA>  (142) 
2.839377

>  <ad_hoc_penalty>  (142) 
-36.264165

>  <cluster>  (142) 
56

>  <merger_rank>  (142) 
4

>  <pication:ARG:29>  (142) 
0

>  <hbond:HIS:51>  (142) 
0

>  <pistack:HIS:51>  (142) 
1

>  <hydroph_interaction:TYR:161>  (142) 
2

>  <pication:HIS:51>  (142) 
0

>  <hydroph_interaction:ALA:132>  (142) 
1

>  <hydroph_interaction:TYR:150>  (142) 
0

>  <hydroph_interaction:LYS:54>  (142) 
0

>  <hbond:SER:135>  (142) 
1

>  <hydroph_interaction:HIS:51>  (142) 
1

>  <hbond:ASP:83>  (142) 
0

>  <hbond:ALA:132>  (142) 
0

>  <halogenbond:SER:81>  (142) 
0

>  <hbond:GLY:82>  (142) 
0

>  <saltbridge:HIS:51>  (142) 
0

>  <pistack:TYR:161>  (142) 
0

>  <hbond:SER:81>  (142) 
0

>  <hbond:ASN:152>  (142) 
0

>  <hbond:GLY:151>  (142) 
0

>  <hydroph_interaction:ASN:152>  (142) 
0

>  <hbond:TYR:161>  (142) 
0

>  <halogenbond:TYR:150>  (142) 
0

>  <hbond:ASP:75>  (142) 
0

>  <hbond:GLY:153>  (142) 
0

>  <hbond:VAL:36>  (142) 
0

>  <hbond:PRO:131>  (142) 
0

>  <hbond:VAL:52>  (142) 
0

>  <hydroph_interaction:ASP:83>  (142) 
0

>  <hydroph_interaction:MET:49>  (142) 
0

>  <hydroph_interaction:VAL:52>  (142) 
0

>  <saltbridge:ASP:83>  (142) 
0

>  <saltbridge:ASP:75>  (142) 
0

>  <hydroph_interaction:TRP:50>  (142) 
0

>  <hydroph_interaction:VAL:72>  (142) 
0

>  <hydroph_interaction:ASP:75>  (142) 
0

>  <halogenbond:ASN:152>  (142) 
0

>  <halogenbond:GLY:153>  (142) 
0

>  <halogenbond:TYR:130>  (142) 
0

>  <hbond:TYR:130>  (142) 
0

>  <halogenbond:ASP:75>  (142) 
0

>  <halogenbond:GLY:151>  (142) 
0

>  <hbond:TYR:150>  (142) 
0

>  <halogenbond:TYR:161>  (142) 
0

>  <hydroph_interaction:ASP:129>  (142) 
0

>  <hbond:ASP:129>  (142) 
0

>  <halogenbond:ALA:132>  (142) 
0

$$$$
PV-002520444610
     RDKit          3D

 30 32  0  0  0  0  0  0  0  0999 V2000
   -9.5470    2.5930  -11.3970 C   0  0  0  0  0  0  0  0  0  0  0  0
   -9.1150    3.8200  -10.6640 C   0  0  0  0  0  0  0  0  0  0  0  0
   -9.2480    3.7450   -9.2010 C   0  0  0  0  0  0  0  0  0  0  0  0
   -8.7770    5.0490   -8.6690 C   0  0  0  0  0  0  0  0  0  0  0  0
   -8.3070    6.1390   -9.2580 N   0  0  0  0  0  0  0  0  0  0  0  0
   -8.2390    6.0460  -10.6140 C   0  0  0  0  0  0  0  0  0  0  0  0
   -7.6140    7.3840  -11.5110 S   0  0  0  0  0  0  0  0  0  0  0  0
   -9.1070    7.5670  -12.3030 C   0  0  0  0  0  0  0  0  0  0  0  0
   -9.0930    6.7950  -13.6070 C   0  0  0  0  0  0  0  0  0  0  0  0
  -10.1080    6.0500  -14.0660 N   0  0  0  0  0  0  0  0  0  0  0  0
   -9.6280    5.5850  -15.2430 N   0  0  0  0  0  0  0  0  0  0  0  0
   -8.3480    6.0870  -15.4140 C   0  0  0  0  0  0  0  0  0  0  0  0
   -7.5680    5.8180  -16.5320 C   0  0  0  0  0  0  0  0  0  0  0  0
   -8.2440    5.2910  -17.6390 C   0  0  0  0  0  0  0  0  0  0  0  0
   -7.3320    5.1020  -18.6730 C   0  0  0  0  0  0  0  0  0  0  0  0
   -6.0710    5.4480  -18.3700 C   0  0  0  0  0  0  0  0  0  0  0  0
   -5.9010    6.0450  -16.7700 S   0  0  0  0  0  0  0  0  0  0  0  0
   -7.9770    6.8810  -14.3510 O   0  0  0  0  0  0  0  0  0  0  0  0
   -8.6280    4.9320  -11.3360 C   0  0  0  0  0  0  0  0  0  0  0  0
   -9.7740    2.8200  -12.4420 H   0  0  0  0  0  0  0  0  0  0  0  0
   -8.7670    1.8270  -11.3720 H   0  0  0  0  0  0  0  0  0  0  0  0
  -10.4490    2.1920  -10.9340 H   0  0  0  0  0  0  0  0  0  0  0  0
   -9.6180    2.9010   -8.6300 H   0  0  0  0  0  0  0  0  0  0  0  0
   -8.8500    5.0670   -7.5720 H   0  0  0  0  0  0  0  0  0  0  0  0
   -9.7580    7.1860  -11.5520 H   0  0  0  0  0  0  0  0  0  0  0  0
   -9.4740    8.5740  -12.4280 H   0  0  0  0  0  0  0  0  0  0  0  0
   -9.3080    5.0750  -17.6750 H   0  0  0  0  0  0  0  0  0  0  0  0
   -7.6210    4.7050  -19.6450 H   0  0  0  0  0  0  0  0  0  0  0  0
   -5.2430    5.3570  -19.0710 H   0  0  0  0  0  0  0  0  0  0  0  0
   -8.5480    4.9280  -12.4190 H   0  0  0  0  0  0  0  0  0  0  0  0
  1  2  1  0
  2  3  2  0
  3  4  1  0
  4  5  2  0
  5  6  1  0
  6  7  1  0
  7  8  1  0
  8  9  1  0
  9 10  2  0
 10 11  1  0
 11 12  2  0
 12 13  1  0
 13 14  2  0
 14 15  1  0
 15 16  2  0
 16 17  1  0
 12 18  1  0
  6 19  2  0
 19  2  1  0
 18  9  1  0
 17 13  1  0
  1 20  1  0
  1 21  1  0
  1 22  1  0
  3 23  1  0
  4 24  1  0
  8 25  1  0
  8 26  1  0
 14 27  1  0
 15 28  1  0
 16 29  1  0
 19 30  1  0
A    1
 C1 
A    2
 C2 
A    3
 C3 
A    4
 C4 
A    5
 N1 
A    6
 C5 
A    7
 S1 
A    8
 C6 
A    9
 C7 
A   10
 N2 
A   11
 N3 
A   12
 C8 
A   13
 C9 
A   14
 C10
A   15
 C11
A   16
 C12
A   17
 S2 
A   18
 O1 
A   19
 C13
A   20
 H1 
A   21
 H2 
A   22
 H3 
A   23
 H4 
A   24
 H5 
A   25
 H6 
A   26
 H7 
A   27
 H8 
A   28
 H9 
A   29
 H10
A   30
 H11
M  END
>  <ref_pdb>  (143) 
x0051_0B

>  <ref_mols>  (143) 
x0404_0B,x0969_0B

>  <original SMILES>  (143) 
[H]c1nc(SC([H])([H])c2nnc(-c3sc([H])c([H])c3[H])o2)c([H])c(C([H])([H])[H])c1[H]

>  <index>  (143) 
5778

>  <∆∆G>  (143) 
-6.136171

>  <comRMSD>  (143) 
0.444194

>  <N_constrained_atoms>  (143) 
18.0

>  <N_unconstrained_atoms>  (143) 
1.0

>  <LE>  (143) 
0.322956

>  <percent_hybrid>  (143) 
0.0

>  <max_hit_Tanimoto>  (143) 
0.291093

>  <largest_ring>  (143) 
6

>  <N_interactions_kept>  (143) 
0.0

>  <N_interactions_lost>  (143) 
0.0

>  <interaction_uniqueness_metric>  (143) 
0.213866

>  <N_HA>  (143) 
19

>  <N_rotatable_bonds>  (143) 
5

>  <N_interactions>  (143) 
6

>  <N_PAINS>  (143) 
0

>  <UFF_Gibbs>  (143) 
92.222868

>  <strain_per_HA>  (143) 
4.85381

>  <ad_hoc_penalty>  (143) 
-36.223107

>  <cluster>  (143) 
893

>  <merger_rank>  (143) 
3

>  <pication:ARG:29>  (143) 
0

>  <hbond:HIS:51>  (143) 
0

>  <pistack:HIS:51>  (143) 
1

>  <hydroph_interaction:TYR:161>  (143) 
0

>  <pication:HIS:51>  (143) 
0

>  <hydroph_interaction:ALA:132>  (143) 
1

>  <hydroph_interaction:TYR:150>  (143) 
0

>  <hydroph_interaction:LYS:54>  (143) 
0

>  <hbond:SER:135>  (143) 
1

>  <hydroph_interaction:HIS:51>  (143) 
1

>  <hbond:ASP:83>  (143) 
0

>  <hbond:ALA:132>  (143) 
0

>  <halogenbond:SER:81>  (143) 
0

>  <hbond:GLY:82>  (143) 
0

>  <saltbridge:HIS:51>  (143) 
0

>  <pistack:TYR:161>  (143) 
1

>  <hbond:SER:81>  (143) 
0

>  <hbond:ASN:152>  (143) 
0

>  <hbond:GLY:151>  (143) 
0

>  <hydroph_interaction:ASN:152>  (143) 
1

>  <hbond:TYR:161>  (143) 
0

>  <halogenbond:TYR:150>  (143) 
0

>  <hbond:ASP:75>  (143) 
0

>  <hbond:GLY:153>  (143) 
0

>  <hbond:VAL:36>  (143) 
0

>  <hbond:PRO:131>  (143) 
0

>  <hbond:VAL:52>  (143) 
0

>  <hydroph_interaction:ASP:83>  (143) 
0

>  <hydroph_interaction:MET:49>  (143) 
0

>  <hydroph_interaction:VAL:52>  (143) 
0

>  <saltbridge:ASP:83>  (143) 
0

>  <saltbridge:ASP:75>  (143) 
0

>  <hydroph_interaction:TRP:50>  (143) 
0

>  <hydroph_interaction:VAL:72>  (143) 
0

>  <hydroph_interaction:ASP:75>  (143) 
0

>  <halogenbond:ASN:152>  (143) 
0

>  <halogenbond:GLY:153>  (143) 
0

>  <halogenbond:TYR:130>  (143) 
0

>  <hbond:TYR:130>  (143) 
0

>  <halogenbond:ASP:75>  (143) 
0

>  <halogenbond:GLY:151>  (143) 
0

>  <hbond:TYR:150>  (143) 
0

>  <halogenbond:TYR:161>  (143) 
0

>  <hydroph_interaction:ASP:129>  (143) 
0

>  <hbond:ASP:129>  (143) 
0

>  <halogenbond:ALA:132>  (143) 
0

$$$$
PV-002953053120
     RDKit          3D

 30 32  0  0  0  0  0  0  0  0999 V2000
   -9.2030    3.1110  -11.9920 C   0  0  0  0  0  0  0  0  0  0  0  0
   -9.0620    4.3460  -11.3900 C   0  0  0  0  0  0  0  0  0  0  0  0
   -8.9620    5.6820  -12.0420 C   0  0  0  0  0  0  0  0  0  0  0  0
   -9.0190    5.8780  -13.4050 C   0  0  0  0  0  0  0  0  0  0  0  0
  -10.1550    6.3320  -14.0410 N   0  0  0  0  0  0  0  0  0  0  0  0
   -9.8590    6.3530  -15.3650 N   0  0  0  0  0  0  0  0  0  0  0  0
   -8.5840    5.9220  -15.4330 C   0  0  0  0  0  0  0  0  0  0  0  0
   -7.9060    5.7860  -16.6250 C   0  0  0  0  0  0  0  0  0  0  0  0
   -8.6380    5.0970  -17.5540 C   0  0  0  0  0  0  0  0  0  0  0  0
   -8.0000    4.9180  -18.8650 C   0  0  0  0  0  0  0  0  0  0  0  0
   -6.7600    5.3940  -19.1530 C   0  0  0  0  0  0  0  0  0  0  0  0
   -6.0210    6.0850  -18.2120 N   0  0  0  0  0  0  0  0  0  0  0  0
   -6.6220    6.2580  -16.9740 C   0  0  0  0  0  0  0  0  0  0  0  0
   -8.0720    5.6410  -14.1850 O   0  0  0  0  0  0  0  0  0  0  0  0
   -9.0320    4.3030   -9.9560 C   0  0  0  0  0  0  0  0  0  0  0  0
   -9.2260    3.1690   -9.1830 C   0  0  0  0  0  0  0  0  0  0  0  0
   -9.1490    3.4440   -7.7900 C   0  0  0  0  0  0  0  0  0  0  0  0
   -8.8990    4.7870   -7.5690 C   0  0  0  0  0  0  0  0  0  0  0  0
   -8.7550    5.6900   -9.0050 S   0  0  0  0  0  0  0  0  0  0  0  0
   -8.3660    2.5010  -12.3500 H   0  0  0  0  0  0  0  0  0  0  0  0
   -9.8690    3.2390  -12.8460 H   0  0  0  0  0  0  0  0  0  0  0  0
   -9.7750    2.4610  -11.3210 H   0  0  0  0  0  0  0  0  0  0  0  0
   -8.8620    6.4320  -11.2470 H   0  0  0  0  0  0  0  0  0  0  0  0
   -9.6430    4.6750  -17.4200 H   0  0  0  0  0  0  0  0  0  0  0  0
   -8.5420    4.3790  -19.6390 H   0  0  0  0  0  0  0  0  0  0  0  0
   -6.3760    5.2050  -20.1620 H   0  0  0  0  0  0  0  0  0  0  0  0
   -6.0150    6.8110  -16.2590 H   0  0  0  0  0  0  0  0  0  0  0  0
   -9.4130    2.1870   -9.6060 H   0  0  0  0  0  0  0  0  0  0  0  0
   -9.2650    2.7160   -7.0020 H   0  0  0  0  0  0  0  0  0  0  0  0
   -8.7820    5.3280   -6.6420 H   0  0  0  0  0  0  0  0  0  0  0  0
  1  2  1  0
  2  3  2  3
  3  4  1  0
  4  5  2  0
  5  6  1  0
  6  7  2  0
  7  8  1  0
  8  9  2  0
  9 10  1  0
 10 11  2  0
 11 12  1  0
 12 13  2  0
  7 14  1  0
  2 15  1  0
 15 16  2  0
 16 17  1  0
 17 18  2  0
 18 19  1  0
 14  4  1  0
 13  8  1  0
 19 15  1  0
  1 20  1  0
  1 21  1  0
  1 22  1  0
  3 23  1  0
  9 24  1  0
 10 25  1  0
 11 26  1  0
 13 27  1  0
 16 28  1  0
 17 29  1  0
 18 30  1  0
A    1
 C1 
A    2
 C2 
A    3
 C3 
A    4
 C4 
A    5
 N1 
A    6
 N2 
A    7
 C5 
A    8
 C6 
A    9
 C7 
A   10
 C8 
A   11
 C9 
A   12
 N3 
A   13
 C10
A   14
 O1 
A   15
 C11
A   16
 C12
A   17
 C13
A   18
 C14
A   19
 S1 
A   20
 H1 
A   21
 H2 
A   22
 H3 
A   23
 H4 
A   24
 H5 
A   25
 H6 
A   26
 H7 
A   27
 H8 
A   28
 H9 
A   29
 H10
A   30
 H11
M  END
>  <ref_pdb>  (144) 
x0051_0B

>  <ref_mols>  (144) 
x0404_0B,x0969_0B

>  <original SMILES>  (144) 
[H]C(=C(c1sc([H])c([H])c1[H])C([H])([H])[H])c1nnc(-c2c([H])nc([H])c([H])c2[H])o1

>  <index>  (144) 
4896

>  <∆∆G>  (144) 
-7.051895

>  <comRMSD>  (144) 
0.413728

>  <N_constrained_atoms>  (144) 
18.0

>  <N_unconstrained_atoms>  (144) 
1.0

>  <LE>  (144) 
0.371152

>  <percent_hybrid>  (144) 
0.0

>  <max_hit_Tanimoto>  (144) 
0.291815

>  <largest_ring>  (144) 
6

>  <N_interactions_kept>  (144) 
0.0

>  <N_interactions_lost>  (144) 
0.0

>  <interaction_uniqueness_metric>  (144) 
0.199868

>  <N_HA>  (144) 
19

>  <N_rotatable_bonds>  (144) 
4

>  <N_interactions>  (144) 
5

>  <N_PAINS>  (144) 
0

>  <UFF_Gibbs>  (144) 
102.11266

>  <strain_per_HA>  (144) 
5.374322

>  <ad_hoc_penalty>  (144) 
-36.170542

>  <cluster>  (144) 
1454

>  <merger_rank>  (144) 
2

>  <pication:ARG:29>  (144) 
0

>  <hbond:HIS:51>  (144) 
0

>  <pistack:HIS:51>  (144) 
0

>  <hydroph_interaction:TYR:161>  (144) 
0

>  <pication:HIS:51>  (144) 
0

>  <hydroph_interaction:ALA:132>  (144) 
1

>  <hydroph_interaction:TYR:150>  (144) 
0

>  <hydroph_interaction:LYS:54>  (144) 
0

>  <hbond:SER:135>  (144) 
1

>  <hydroph_interaction:HIS:51>  (144) 
1

>  <hbond:ASP:83>  (144) 
0

>  <hbond:ALA:132>  (144) 
0

>  <halogenbond:SER:81>  (144) 
0

>  <hbond:GLY:82>  (144) 
0

>  <saltbridge:HIS:51>  (144) 
0

>  <pistack:TYR:161>  (144) 
1

>  <hbond:SER:81>  (144) 
0

>  <hbond:ASN:152>  (144) 
0

>  <hbond:GLY:151>  (144) 
0

>  <hydroph_interaction:ASN:152>  (144) 
1

>  <hbond:TYR:161>  (144) 
0

>  <halogenbond:TYR:150>  (144) 
0

>  <hbond:ASP:75>  (144) 
0

>  <hbond:GLY:153>  (144) 
0

>  <hbond:VAL:36>  (144) 
0

>  <hbond:PRO:131>  (144) 
0

>  <hbond:VAL:52>  (144) 
0

>  <hydroph_interaction:ASP:83>  (144) 
0

>  <hydroph_interaction:MET:49>  (144) 
0

>  <hydroph_interaction:VAL:52>  (144) 
0

>  <saltbridge:ASP:83>  (144) 
0

>  <saltbridge:ASP:75>  (144) 
0

>  <hydroph_interaction:TRP:50>  (144) 
0

>  <hydroph_interaction:VAL:72>  (144) 
0

>  <hydroph_interaction:ASP:75>  (144) 
0

>  <halogenbond:ASN:152>  (144) 
0

>  <halogenbond:GLY:153>  (144) 
0

>  <halogenbond:TYR:130>  (144) 
0

>  <hbond:TYR:130>  (144) 
0

>  <halogenbond:ASP:75>  (144) 
0

>  <halogenbond:GLY:151>  (144) 
0

>  <hbond:TYR:150>  (144) 
0

>  <halogenbond:TYR:161>  (144) 
0

>  <hydroph_interaction:ASP:129>  (144) 
0

>  <hbond:ASP:129>  (144) 
0

>  <halogenbond:ALA:132>  (144) 
0

$$$$
PV-003859602927
     RDKit          3D

 23 25  0  0  0  0  0  0  0  0999 V2000
   -9.3300    4.0280   -9.8480 C   0  0  0  0  0  0  0  0  0  0  0  0
   -8.6610    5.2290   -9.9350 C   0  0  0  0  0  0  0  0  0  0  0  0
   -8.0640    5.6100  -11.2140 C   0  0  0  0  0  0  0  0  0  0  0  0
   -8.1990    4.7000  -12.3600 C   0  0  0  0  0  0  0  0  0  0  0  0
   -7.6300    4.9070  -13.6960 C   0  0  0  0  0  0  0  0  0  0  0  0
   -6.1580    4.9200  -13.8350 C   0  0  0  0  0  0  0  0  0  0  0  0
   -5.4940    5.0730  -14.9890 N   0  0  0  0  0  0  0  0  0  0  0  0
   -6.2050    5.2160  -16.1190 C   0  0  0  0  0  0  0  0  0  0  0  0
   -7.5720    5.2230  -16.1350 C   0  0  0  0  0  0  0  0  0  0  0  0
   -8.2910    5.0850  -14.9310 C   0  0  0  0  0  0  0  0  0  0  0  0
   -9.9800    5.1610  -15.2400 S   0  0  0  0  0  0  0  0  0  0  0  0
   -9.7830    5.3240  -16.9170 C   0  0  0  0  0  0  0  0  0  0  0  0
   -8.4270    5.3530  -17.2670 C   0  0  0  0  0  0  0  0  0  0  0  0
   -8.8820    3.5380  -12.2000 N   0  0  0  0  0  0  0  0  0  0  0  0
   -9.4120    3.2360  -10.9890 C   0  0  0  0  0  0  0  0  0  0  0  0
   -9.7970    3.6660   -8.9440 H   0  0  0  0  0  0  0  0  0  0  0  0
   -8.5110    5.9550   -9.1520 H   0  0  0  0  0  0  0  0  0  0  0  0
   -7.5260    6.5480  -11.3040 H   0  0  0  0  0  0  0  0  0  0  0  0
   -5.5230    4.7960  -12.9580 H   0  0  0  0  0  0  0  0  0  0  0  0
   -5.6210    5.3250  -17.0290 H   0  0  0  0  0  0  0  0  0  0  0  0
  -10.6360    5.4000  -17.5780 H   0  0  0  0  0  0  0  0  0  0  0  0
   -8.0750    5.4610  -18.2890 H   0  0  0  0  0  0  0  0  0  0  0  0
   -9.9370    2.2870  -10.9520 H   0  0  0  0  0  0  0  0  0  0  0  0
  1  2  2  0
  2  3  1  0
  3  4  2  0
  4  5  1  0
  5  6  2  0
  6  7  1  0
  7  8  2  0
  8  9  1  0
  9 10  2  0
 10 11  1  0
 11 12  1  0
 12 13  2  0
  4 14  1  0
 14 15  2  0
 15  1  1  0
 10  5  1  0
 13  9  1  0
  1 16  1  0
  2 17  1  0
  3 18  1  0
  6 19  1  0
  8 20  1  0
 12 21  1  0
 13 22  1  0
 15 23  1  0
A    1
 C1 
A    2
 C2 
A    3
 C3 
A    4
 C4 
A    5
 C5 
A    6
 C6 
A    7
 N1 
A    8
 C7 
A    9
 C8 
A   10
 C9 
A   11
 S1 
A   12
 C10
A   13
 C11
A   14
 N2 
A   15
 C12
A   16
 H1 
A   17
 H2 
A   18
 H3 
A   19
 H4 
A   20
 H5 
A   21
 H6 
A   22
 H7 
A   23
 H8 
M  END
>  <ref_pdb>  (145) 
x0051_0B

>  <ref_mols>  (145) 
x0969_1B,x0553_0B

>  <original SMILES>  (145) 
[H]c1nc(-c2c([H])nc([H])c3c([H])c([H])sc23)c([H])c([H])c1[H]

>  <index>  (145) 
313

>  <∆∆G>  (145) 
-3.266172

>  <comRMSD>  (145) 
0.418998

>  <N_constrained_atoms>  (145) 
15.0

>  <N_unconstrained_atoms>  (145) 
0.0

>  <LE>  (145) 
0.217745

>  <percent_hybrid>  (145) 
0.0

>  <max_hit_Tanimoto>  (145) 
0.271505

>  <largest_ring>  (145) 
6

>  <N_interactions_kept>  (145) 
0.0

>  <N_interactions_lost>  (145) 
0.0

>  <interaction_uniqueness_metric>  (145) 
0.138199

>  <N_HA>  (145) 
15

>  <N_rotatable_bonds>  (145) 
1

>  <N_interactions>  (145) 
5

>  <N_PAINS>  (145) 
0

>  <UFF_Gibbs>  (145) 
25.520126

>  <strain_per_HA>  (145) 
1.70133

>  <ad_hoc_penalty>  (145) 
-36.132663

>  <cluster>  (145) 
4672

>  <merger_rank>  (145) 
3

>  <pication:ARG:29>  (145) 
0

>  <hbond:HIS:51>  (145) 
0

>  <pistack:HIS:51>  (145) 
0

>  <hydroph_interaction:TYR:161>  (145) 
1

>  <pication:HIS:51>  (145) 
1

>  <hydroph_interaction:ALA:132>  (145) 
1

>  <hydroph_interaction:TYR:150>  (145) 
0

>  <hydroph_interaction:LYS:54>  (145) 
0

>  <hbond:SER:135>  (145) 
0

>  <hydroph_interaction:HIS:51>  (145) 
1

>  <hbond:ASP:83>  (145) 
0

>  <hbond:ALA:132>  (145) 
0

>  <halogenbond:SER:81>  (145) 
0

>  <hbond:GLY:82>  (145) 
0

>  <saltbridge:HIS:51>  (145) 
0

>  <pistack:TYR:161>  (145) 
0

>  <hbond:SER:81>  (145) 
0

>  <hbond:ASN:152>  (145) 
0

>  <hbond:GLY:151>  (145) 
0

>  <hydroph_interaction:ASN:152>  (145) 
0

>  <hbond:TYR:161>  (145) 
1

>  <halogenbond:TYR:150>  (145) 
0

>  <hbond:ASP:75>  (145) 
0

>  <hbond:GLY:153>  (145) 
0

>  <hbond:VAL:36>  (145) 
0

>  <hbond:PRO:131>  (145) 
0

>  <hbond:VAL:52>  (145) 
0

>  <hydroph_interaction:ASP:83>  (145) 
0

>  <hydroph_interaction:MET:49>  (145) 
0

>  <hydroph_interaction:VAL:52>  (145) 
0

>  <saltbridge:ASP:83>  (145) 
0

>  <saltbridge:ASP:75>  (145) 
0

>  <hydroph_interaction:TRP:50>  (145) 
0

>  <hydroph_interaction:VAL:72>  (145) 
0

>  <hydroph_interaction:ASP:75>  (145) 
0

>  <halogenbond:ASN:152>  (145) 
0

>  <halogenbond:GLY:153>  (145) 
0

>  <halogenbond:TYR:130>  (145) 
0

>  <hbond:TYR:130>  (145) 
0

>  <halogenbond:ASP:75>  (145) 
0

>  <halogenbond:GLY:151>  (145) 
0

>  <hbond:TYR:150>  (145) 
0

>  <halogenbond:TYR:161>  (145) 
0

>  <hydroph_interaction:ASP:129>  (145) 
0

>  <hbond:ASP:129>  (145) 
0

>  <halogenbond:ALA:132>  (145) 
0

$$$$
Z109131800
     RDKit          3D

 30 32  0  0  0  0  0  0  0  0999 V2000
   -9.0920    3.3770   -8.6010 C   0  0  0  0  0  0  0  0  0  0  0  0
   -9.0550    4.1680   -9.7300 C   0  0  0  0  0  0  0  0  0  0  0  0
   -9.2290    3.5140  -11.0890 C   0  0  0  0  0  0  0  0  0  0  0  0
   -9.1600    4.5810  -12.0340 N   0  0  0  0  0  0  0  0  0  0  0  0
   -8.9680    5.8360  -11.5080 C   0  0  0  0  0  0  0  0  0  0  0  0
   -8.8970    6.9070  -12.2580 N   0  0  0  0  0  0  0  0  0  0  0  0
   -7.8580    7.2890  -13.0520 C   0  0  0  0  0  0  0  0  0  0  0  0
   -6.8310    7.8070  -12.6200 O   0  0  0  0  0  0  0  0  0  0  0  0
   -7.9340    7.1430  -14.4410 C   0  0  0  0  0  0  0  0  0  0  0  0
   -8.8990    6.1450  -14.6670 C   0  0  0  0  0  0  0  0  0  0  0  0
   -8.6640    5.6700  -15.9930 C   0  0  0  0  0  0  0  0  0  0  0  0
   -9.4260    5.0320  -16.9250 C   0  0  0  0  0  0  0  0  0  0  0  0
   -8.7430    4.7710  -18.1600 C   0  0  0  0  0  0  0  0  0  0  0  0
   -7.4000    5.1650  -18.3050 C   0  0  0  0  0  0  0  0  0  0  0  0
   -6.6430    5.8070  -17.3270 C   0  0  0  0  0  0  0  0  0  0  0  0
   -7.3980    6.0070  -16.2030 C   0  0  0  0  0  0  0  0  0  0  0  0
   -6.8260    6.6290  -15.1330 O   0  0  0  0  0  0  0  0  0  0  0  0
   -8.8240    5.8660   -9.7040 S   0  0  0  0  0  0  0  0  0  0  0  0
   -8.8830    2.3150   -8.6550 H   0  0  0  0  0  0  0  0  0  0  0  0
   -8.4110    3.7880   -7.8490 H   0  0  0  0  0  0  0  0  0  0  0  0
  -10.0900    3.4320   -8.1660 H   0  0  0  0  0  0  0  0  0  0  0  0
   -9.3770    2.4530  -11.2910 H   0  0  0  0  0  0  0  0  0  0  0  0
   -9.5190    7.6600  -11.9840 H   0  0  0  0  0  0  0  0  0  0  0  0
   -7.9840    8.0620  -14.9590 H   0  0  0  0  0  0  0  0  0  0  0  0
   -9.9350    6.4360  -14.5540 H   0  0  0  0  0  0  0  0  0  0  0  0
   -8.9730    5.3190  -13.9540 H   0  0  0  0  0  0  0  0  0  0  0  0
  -10.4470    4.7730  -16.7130 H   0  0  0  0  0  0  0  0  0  0  0  0
   -9.3070    4.2690  -18.9420 H   0  0  0  0  0  0  0  0  0  0  0  0
   -6.9060    4.9590  -19.2440 H   0  0  0  0  0  0  0  0  0  0  0  0
   -5.6150    6.1400  -17.3470 H   0  0  0  0  0  0  0  0  0  0  0  0
  1  2  1  0
  2  3  2  0
  3  4  1  0
  4  5  2  0
  5  6  1  0
  6  7  1  0
  7  8  2  0
  7  9  1  0
  9 10  1  0
 10 11  1  0
 11 12  2  0
 12 13  1  0
 13 14  2  0
 14 15  1  0
 15 16  2  0
 16 17  1  0
  5 18  1  0
 18  2  1  0
 17  9  1  0
 16 11  1  0
  1 19  1  0
  1 20  1  0
  1 21  1  0
  3 22  1  0
  6 23  1  0
  9 24  1  0
 10 25  1  0
 10 26  1  0
 12 27  1  0
 13 28  1  0
 14 29  1  0
 15 30  1  0
A    1
 C1 
A    2
 C2 
A    3
 C3 
A    4
 N1 
A    5
 C4 
A    6
 N2 
A    7
 C5 
A    8
 O1 
A    9
 C6 
A   10
 C7 
A   11
 C8 
A   12
 C9 
A   13
 C10
A   14
 C11
A   15
 C12
A   16
 C13
A   17
 O2 
A   18
 S1 
A   19
 H1 
A   20
 H2 
A   21
 H3 
A   22
 H4 
A   23
 H5 
A   24
 H6 
A   25
 H7 
A   26
 H8 
A   27
 H9 
A   28
 H10
A   29
 H11
A   30
 H12
M  END
>  <ref_pdb>  (146) 
x0051_0B

>  <ref_mols>  (146) 
x0404_0B,x0969_0B

>  <original SMILES>  (146) 
[H]c1nc(N([H])C(=O)C2([H])Oc3c([H])c([H])c([H])c([H])c3C2([H])[H])sc1C([H])([H])[H]

>  <index>  (146) 
3956

>  <∆∆G>  (146) 
-5.591655

>  <comRMSD>  (146) 
0.368166

>  <N_constrained_atoms>  (146) 
18.0

>  <N_unconstrained_atoms>  (146) 
0.0

>  <LE>  (146) 
0.310648

>  <percent_hybrid>  (146) 
0.0

>  <max_hit_Tanimoto>  (146) 
0.320267

>  <largest_ring>  (146) 
6

>  <N_interactions_kept>  (146) 
0.0

>  <N_interactions_lost>  (146) 
0.0

>  <interaction_uniqueness_metric>  (146) 
0.119206

>  <N_HA>  (146) 
18

>  <N_rotatable_bonds>  (146) 
3

>  <N_interactions>  (146) 
6

>  <N_PAINS>  (146) 
0

>  <UFF_Gibbs>  (146) 
143.53172

>  <strain_per_HA>  (146) 
7.97394

>  <ad_hoc_penalty>  (146) 
-36.105411

>  <cluster>  (146) 
2082

>  <merger_rank>  (146) 
2

>  <pication:ARG:29>  (146) 
0

>  <hbond:HIS:51>  (146) 
1

>  <pistack:HIS:51>  (146) 
1

>  <hydroph_interaction:TYR:161>  (146) 
2

>  <pication:HIS:51>  (146) 
0

>  <hydroph_interaction:ALA:132>  (146) 
1

>  <hydroph_interaction:TYR:150>  (146) 
0

>  <hydroph_interaction:LYS:54>  (146) 
0

>  <hbond:SER:135>  (146) 
0

>  <hydroph_interaction:HIS:51>  (146) 
1

>  <hbond:ASP:83>  (146) 
0

>  <hbond:ALA:132>  (146) 
0

>  <halogenbond:SER:81>  (146) 
0

>  <hbond:GLY:82>  (146) 
0

>  <saltbridge:HIS:51>  (146) 
0

>  <pistack:TYR:161>  (146) 
0

>  <hbond:SER:81>  (146) 
0

>  <hbond:ASN:152>  (146) 
0

>  <hbond:GLY:151>  (146) 
0

>  <hydroph_interaction:ASN:152>  (146) 
0

>  <hbond:TYR:161>  (146) 
0

>  <halogenbond:TYR:150>  (146) 
0

>  <hbond:ASP:75>  (146) 
0

>  <hbond:GLY:153>  (146) 
0

>  <hbond:VAL:36>  (146) 
0

>  <hbond:PRO:131>  (146) 
0

>  <hbond:VAL:52>  (146) 
0

>  <hydroph_interaction:ASP:83>  (146) 
0

>  <hydroph_interaction:MET:49>  (146) 
0

>  <hydroph_interaction:VAL:52>  (146) 
0

>  <saltbridge:ASP:83>  (146) 
0

>  <saltbridge:ASP:75>  (146) 
0

>  <hydroph_interaction:TRP:50>  (146) 
0

>  <hydroph_interaction:VAL:72>  (146) 
0

>  <hydroph_interaction:ASP:75>  (146) 
0

>  <halogenbond:ASN:152>  (146) 
0

>  <halogenbond:GLY:153>  (146) 
0

>  <halogenbond:TYR:130>  (146) 
0

>  <hbond:TYR:130>  (146) 
0

>  <halogenbond:ASP:75>  (146) 
0

>  <halogenbond:GLY:151>  (146) 
0

>  <hbond:TYR:150>  (146) 
0

>  <halogenbond:TYR:161>  (146) 
0

>  <hydroph_interaction:ASP:129>  (146) 
0

>  <hbond:ASP:129>  (146) 
0

>  <halogenbond:ALA:132>  (146) 
0

$$$$
PV-002775785539
     RDKit          3D

 26 28  0  0  0  0  0  0  0  0999 V2000
   -6.9250    6.1170   -7.1040 Cl  0  0  0  0  0  0  0  0  0  0  0  0
   -7.7440    5.3300   -8.3930 C   0  0  0  0  0  0  0  0  0  0  0  0
   -7.8200    3.8960   -8.6920 C   0  0  0  0  0  0  0  0  0  0  0  0
   -8.5610    3.6240   -9.7970 C   0  0  0  0  0  0  0  0  0  0  0  0
   -9.1480    4.7110  -10.4970 C   0  0  0  0  0  0  0  0  0  0  0  0
   -9.9600    4.7360  -11.6280 C   0  0  0  0  0  0  0  0  0  0  0  0
   -9.2480    5.4310  -12.7340 C   0  0  0  0  0  0  0  0  0  0  0  0
   -8.8270    6.7500  -12.5210 N   0  0  0  0  0  0  0  0  0  0  0  0
   -8.2220    7.1310  -13.7570 O   0  0  0  0  0  0  0  0  0  0  0  0
   -8.3430    6.0390  -14.5430 C   0  0  0  0  0  0  0  0  0  0  0  0
   -7.9050    5.8500  -15.9500 C   0  0  0  0  0  0  0  0  0  0  0  0
   -6.6990    6.2530  -16.4870 C   0  0  0  0  0  0  0  0  0  0  0  0
   -6.4500    5.9920  -17.8720 C   0  0  0  0  0  0  0  0  0  0  0  0
   -7.3980    5.3440  -18.6600 C   0  0  0  0  0  0  0  0  0  0  0  0
   -8.5520    4.9950  -18.0000 C   0  0  0  0  0  0  0  0  0  0  0  0
   -8.8220    5.2250  -16.7180 N   0  0  0  0  0  0  0  0  0  0  0  0
   -8.9800    4.8900  -13.9800 N   0  0  0  0  0  0  0  0  0  0  0  0
   -8.6350    6.1950   -9.5730 S   0  0  0  0  0  0  0  0  0  0  0  0
   -7.3350    3.1330   -8.0920 H   0  0  0  0  0  0  0  0  0  0  0  0
   -8.7190    2.6060  -10.1580 H   0  0  0  0  0  0  0  0  0  0  0  0
  -10.2570    3.7320  -11.9310 H   0  0  0  0  0  0  0  0  0  0  0  0
  -10.9310    5.2070  -11.6160 H   0  0  0  0  0  0  0  0  0  0  0  0
   -5.9570    6.7600  -15.8750 H   0  0  0  0  0  0  0  0  0  0  0  0
   -5.5780    6.2310  -18.4660 H   0  0  0  0  0  0  0  0  0  0  0  0
   -7.1830    5.1590  -19.7030 H   0  0  0  0  0  0  0  0  0  0  0  0
   -9.3500    4.4870  -18.5270 H   0  0  0  0  0  0  0  0  0  0  0  0
  1  2  1  0
  2  3  2  0
  3  4  1  0
  4  5  2  0
  5  6  1  0
  6  7  1  0
  7  8  2  0
  8  9  1  0
  9 10  1  0
 10 11  1  0
 11 12  2  0
 12 13  1  0
 13 14  2  0
 14 15  1  0
 15 16  2  0
 10 17  2  0
  5 18  1  0
 18  2  1  0
 17  7  1  0
 16 11  1  0
  3 19  1  0
  4 20  1  0
  6 21  1  0
  6 22  1  0
 12 23  1  0
 13 24  1  0
 14 25  1  0
 15 26  1  0
A    1
CL1 
A    2
 C1 
A    3
 C2 
A    4
 C3 
A    5
 C4 
A    6
 C5 
A    7
 C6 
A    8
 N1 
A    9
 O1 
A   10
 C7 
A   11
 C8 
A   12
 C9 
A   13
 C10
A   14
 C11
A   15
 C12
A   16
 N2 
A   17
 N3 
A   18
 S1 
A   19
 H1 
A   20
 H2 
A   21
 H3 
A   22
 H4 
A   23
 H5 
A   24
 H6 
A   25
 H7 
A   26
 H8 
M  END
>  <ref_pdb>  (147) 
x0051_0B

>  <ref_mols>  (147) 
x0404_0B,x0969_0B

>  <original SMILES>  (147) 
[H]c1nc(-c2nc(C([H])([H])c3sc(Cl)c([H])c3[H])no2)c([H])c([H])c1[H]

>  <index>  (147) 
4832

>  <∆∆G>  (147) 
-4.532578

>  <comRMSD>  (147) 
0.550047

>  <N_constrained_atoms>  (147) 
17.0

>  <N_unconstrained_atoms>  (147) 
1.0

>  <LE>  (147) 
0.25181

>  <percent_hybrid>  (147) 
0.0

>  <max_hit_Tanimoto>  (147) 
0.265306

>  <largest_ring>  (147) 
6

>  <N_interactions_kept>  (147) 
0.0

>  <N_interactions_lost>  (147) 
0.0

>  <interaction_uniqueness_metric>  (147) 
0.130169

>  <N_HA>  (147) 
18

>  <N_rotatable_bonds>  (147) 
3

>  <N_interactions>  (147) 
6

>  <N_PAINS>  (147) 
0

>  <UFF_Gibbs>  (147) 
77.312268

>  <strain_per_HA>  (147) 
4.295102

>  <ad_hoc_penalty>  (147) 
-36.071308

>  <cluster>  (147) 
406

>  <merger_rank>  (147) 
3

>  <pication:ARG:29>  (147) 
0

>  <hbond:HIS:51>  (147) 
0

>  <pistack:HIS:51>  (147) 
1

>  <hydroph_interaction:TYR:161>  (147) 
1

>  <pication:HIS:51>  (147) 
0

>  <hydroph_interaction:ALA:132>  (147) 
1

>  <hydroph_interaction:TYR:150>  (147) 
0

>  <hydroph_interaction:LYS:54>  (147) 
0

>  <hbond:SER:135>  (147) 
1

>  <hydroph_interaction:HIS:51>  (147) 
1

>  <hbond:ASP:83>  (147) 
0

>  <hbond:ALA:132>  (147) 
0

>  <halogenbond:SER:81>  (147) 
0

>  <hbond:GLY:82>  (147) 
0

>  <saltbridge:HIS:51>  (147) 
0

>  <pistack:TYR:161>  (147) 
0

>  <hbond:SER:81>  (147) 
0

>  <hbond:ASN:152>  (147) 
0

>  <hbond:GLY:151>  (147) 
0

>  <hydroph_interaction:ASN:152>  (147) 
0

>  <hbond:TYR:161>  (147) 
1

>  <halogenbond:TYR:150>  (147) 
0

>  <hbond:ASP:75>  (147) 
0

>  <hbond:GLY:153>  (147) 
0

>  <hbond:VAL:36>  (147) 
0

>  <hbond:PRO:131>  (147) 
0

>  <hbond:VAL:52>  (147) 
0

>  <hydroph_interaction:ASP:83>  (147) 
0

>  <hydroph_interaction:MET:49>  (147) 
0

>  <hydroph_interaction:VAL:52>  (147) 
0

>  <saltbridge:ASP:83>  (147) 
0

>  <saltbridge:ASP:75>  (147) 
0

>  <hydroph_interaction:TRP:50>  (147) 
0

>  <hydroph_interaction:VAL:72>  (147) 
0

>  <hydroph_interaction:ASP:75>  (147) 
0

>  <halogenbond:ASN:152>  (147) 
0

>  <halogenbond:GLY:153>  (147) 
0

>  <halogenbond:TYR:130>  (147) 
0

>  <hbond:TYR:130>  (147) 
0

>  <halogenbond:ASP:75>  (147) 
0

>  <halogenbond:GLY:151>  (147) 
0

>  <hbond:TYR:150>  (147) 
0

>  <halogenbond:TYR:161>  (147) 
0

>  <hydroph_interaction:ASP:129>  (147) 
0

>  <hbond:ASP:129>  (147) 
0

>  <halogenbond:ALA:132>  (147) 
0

$$$$
PV-002303890497
     RDKit          3D

 30 32  0  0  0  0  0  0  0  0999 V2000
   -4.1180    5.3260  -17.7200 C   0  0  0  0  0  0  0  0  0  0  0  0
   -5.5630    5.4450  -17.2700 C   0  0  0  0  0  0  0  0  0  0  0  0
   -6.6640    5.1970  -18.0740 C   0  0  0  0  0  0  0  0  0  0  0  0
   -7.9580    5.3420  -17.4790 C   0  0  0  0  0  0  0  0  0  0  0  0
   -8.0500    5.7200  -16.1540 C   0  0  0  0  0  0  0  0  0  0  0  0
   -9.4140    5.8230  -15.6640 C   0  0  0  0  0  0  0  0  0  0  0  0
  -10.1520    5.0270  -16.2040 O   0  0  0  0  0  0  0  0  0  0  0  0
   -9.7880    6.6900  -14.7490 N   0  0  0  0  0  0  0  0  0  0  0  0
   -9.3860    6.6290  -13.4340 C   0  0  0  0  0  0  0  0  0  0  0  0
   -8.8640    7.6130  -12.7190 N   0  0  0  0  0  0  0  0  0  0  0  0
   -8.6290    7.1070  -11.4680 N   0  0  0  0  0  0  0  0  0  0  0  0
   -9.0350    5.7960  -11.4880 C   0  0  0  0  0  0  0  0  0  0  0  0
   -8.9980    4.8320  -10.3430 C   0  0  0  0  0  0  0  0  0  0  0  0
   -8.7270    5.0520   -9.0140 C   0  0  0  0  0  0  0  0  0  0  0  0
   -8.8310    3.8400   -8.3060 C   0  0  0  0  0  0  0  0  0  0  0  0
   -9.1650    2.8910   -9.2450 C   0  0  0  0  0  0  0  0  0  0  0  0
   -9.2690    3.4830  -10.4810 O   0  0  0  0  0  0  0  0  0  0  0  0
   -9.4930    5.4910  -12.6810 N   0  0  0  0  0  0  0  0  0  0  0  0
   -6.9210    5.9580  -15.4300 N   0  0  0  0  0  0  0  0  0  0  0  0
   -5.7020    5.8180  -15.9870 N   0  0  0  0  0  0  0  0  0  0  0  0
   -4.0700    4.9920  -18.7620 H   0  0  0  0  0  0  0  0  0  0  0  0
   -3.5650    4.6040  -17.1120 H   0  0  0  0  0  0  0  0  0  0  0  0
   -3.5970    6.2870  -17.6460 H   0  0  0  0  0  0  0  0  0  0  0  0
   -6.5380    4.9020  -19.1100 H   0  0  0  0  0  0  0  0  0  0  0  0
   -8.8350    5.1480  -18.0890 H   0  0  0  0  0  0  0  0  0  0  0  0
  -10.5160    7.3420  -15.0420 H   0  0  0  0  0  0  0  0  0  0  0  0
   -8.4750    6.0180   -8.5950 H   0  0  0  0  0  0  0  0  0  0  0  0
   -8.6800    3.6690   -7.2490 H   0  0  0  0  0  0  0  0  0  0  0  0
   -9.3500    1.8320   -9.2030 H   0  0  0  0  0  0  0  0  0  0  0  0
   -9.8570    4.6000  -12.9780 H   0  0  0  0  0  0  0  0  0  0  0  0
  1  2  1  0
  2  3  2  0
  3  4  1  0
  4  5  2  0
  5  6  1  0
  6  7  2  0
  6  8  1  0
  8  9  1  0
  9 10  2  0
 10 11  1  0
 11 12  2  0
 12 13  1  0
 13 14  2  0
 14 15  1  0
 15 16  2  0
 16 17  1  0
 12 18  1  0
  5 19  1  0
 19 20  2  0
 20  2  1  0
 18  9  1  0
 17 13  1  0
  1 21  1  0
  1 22  1  0
  1 23  1  0
  3 24  1  0
  4 25  1  0
  8 26  1  0
 14 27  1  0
 15 28  1  0
 16 29  1  0
 18 30  1  0
A    1
 C1 
A    2
 C2 
A    3
 C3 
A    4
 C4 
A    5
 C5 
A    6
 C6 
A    7
 O1 
A    8
 N1 
A    9
 C7 
A   10
 N2 
A   11
 N3 
A   12
 C8 
A   13
 C9 
A   14
 C10
A   15
 C11
A   16
 C12
A   17
 O2 
A   18
 N4 
A   19
 N5 
A   20
 N6 
A   21
 H1 
A   22
 H2 
A   23
 H3 
A   24
 H4 
A   25
 H5 
A   26
 H6 
A   27
 H7 
A   28
 H8 
A   29
 H9 
A   30
 H10
M  END
>  <ref_pdb>  (148) 
x0051_0B

>  <ref_mols>  (148) 
x0404_0B,x0969_0B

>  <original SMILES>  (148) 
[H]c1oc(-c2nnc(N([H])C(=O)c3nnc(C([H])([H])[H])c([H])c3[H])n2[H])c([H])c1[H]

>  <index>  (148) 
2987

>  <∆∆G>  (148) 
-4.464024

>  <comRMSD>  (148) 
0.322974

>  <N_constrained_atoms>  (148) 
19.0

>  <N_unconstrained_atoms>  (148) 
1.0

>  <LE>  (148) 
0.223201

>  <percent_hybrid>  (148) 
0.0

>  <max_hit_Tanimoto>  (148) 
0.474265

>  <largest_ring>  (148) 
6

>  <N_interactions_kept>  (148) 
0.0

>  <N_interactions_lost>  (148) 
0.0

>  <interaction_uniqueness_metric>  (148) 
0.179906

>  <N_HA>  (148) 
20

>  <N_rotatable_bonds>  (148) 
4

>  <N_interactions>  (148) 
6

>  <N_PAINS>  (148) 
0

>  <UFF_Gibbs>  (148) 
54.23003

>  <strain_per_HA>  (148) 
2.711488

>  <ad_hoc_penalty>  (148) 
-36.052965

>  <cluster>  (148) 
106

>  <merger_rank>  (148) 
2

>  <pication:ARG:29>  (148) 
0

>  <hbond:HIS:51>  (148) 
0

>  <pistack:HIS:51>  (148) 
1

>  <hydroph_interaction:TYR:161>  (148) 
1

>  <pication:HIS:51>  (148) 
0

>  <hydroph_interaction:ALA:132>  (148) 
1

>  <hydroph_interaction:TYR:150>  (148) 
0

>  <hydroph_interaction:LYS:54>  (148) 
0

>  <hbond:SER:135>  (148) 
0

>  <hydroph_interaction:HIS:51>  (148) 
1

>  <hbond:ASP:83>  (148) 
0

>  <hbond:ALA:132>  (148) 
1

>  <halogenbond:SER:81>  (148) 
0

>  <hbond:GLY:82>  (148) 
0

>  <saltbridge:HIS:51>  (148) 
0

>  <pistack:TYR:161>  (148) 
1

>  <hbond:SER:81>  (148) 
0

>  <hbond:ASN:152>  (148) 
0

>  <hbond:GLY:151>  (148) 
0

>  <hydroph_interaction:ASN:152>  (148) 
0

>  <hbond:TYR:161>  (148) 
0

>  <halogenbond:TYR:150>  (148) 
0

>  <hbond:ASP:75>  (148) 
0

>  <hbond:GLY:153>  (148) 
0

>  <hbond:VAL:36>  (148) 
0

>  <hbond:PRO:131>  (148) 
0

>  <hbond:VAL:52>  (148) 
0

>  <hydroph_interaction:ASP:83>  (148) 
0

>  <hydroph_interaction:MET:49>  (148) 
0

>  <hydroph_interaction:VAL:52>  (148) 
0

>  <saltbridge:ASP:83>  (148) 
0

>  <saltbridge:ASP:75>  (148) 
0

>  <hydroph_interaction:TRP:50>  (148) 
0

>  <hydroph_interaction:VAL:72>  (148) 
0

>  <hydroph_interaction:ASP:75>  (148) 
0

>  <halogenbond:ASN:152>  (148) 
0

>  <halogenbond:GLY:153>  (148) 
0

>  <halogenbond:TYR:130>  (148) 
0

>  <hbond:TYR:130>  (148) 
0

>  <halogenbond:ASP:75>  (148) 
0

>  <halogenbond:GLY:151>  (148) 
0

>  <hbond:TYR:150>  (148) 
0

>  <halogenbond:TYR:161>  (148) 
0

>  <hydroph_interaction:ASP:129>  (148) 
0

>  <hbond:ASP:129>  (148) 
0

>  <halogenbond:ALA:132>  (148) 
0

$$$$
PV-003089881834
     RDKit          3D

 27 29  0  0  0  0  0  0  0  0999 V2000
   -7.3140    4.7860  -19.4360 C   0  0  0  0  0  0  0  0  0  0  0  0
   -7.6660    5.1230  -17.9990 C   0  0  0  0  0  0  0  0  0  0  0  0
   -8.6130    4.5040  -17.3280 N   0  0  0  0  0  0  0  0  0  0  0  0
   -8.6500    5.0730  -16.0660 O   0  0  0  0  0  0  0  0  0  0  0  0
   -7.6620    6.0870  -16.0010 C   0  0  0  0  0  0  0  0  0  0  0  0
   -7.5220    6.7980  -14.8180 C   0  0  0  0  0  0  0  0  0  0  0  0
   -8.1930    6.0380  -13.8100 O   0  0  0  0  0  0  0  0  0  0  0  0
   -8.7210    6.7610  -12.7840 C   0  0  0  0  0  0  0  0  0  0  0  0
   -9.0660    7.9360  -12.8730 O   0  0  0  0  0  0  0  0  0  0  0  0
   -8.8180    6.0110  -11.6400 C   0  0  0  0  0  0  0  0  0  0  0  0
   -8.7110    6.4200  -10.2560 C   0  0  0  0  0  0  0  0  0  0  0  0
   -8.8820    5.3350   -9.4230 C   0  0  0  0  0  0  0  0  0  0  0  0
   -9.1330    4.0420  -10.1650 C   0  0  0  0  0  0  0  0  0  0  0  0
   -9.3480    2.7840   -9.1180 S   0  0  0  0  0  0  0  0  0  0  0  0
   -9.1230    3.8170   -7.7660 C   0  0  0  0  0  0  0  0  0  0  0  0
   -8.8760    5.1840   -8.0360 C   0  0  0  0  0  0  0  0  0  0  0  0
   -9.1120    4.3130  -11.8260 S   0  0  0  0  0  0  0  0  0  0  0  0
   -7.0300    6.1310  -17.2170 C   0  0  0  0  0  0  0  0  0  0  0  0
   -6.2470    4.5740  -19.5400 H   0  0  0  0  0  0  0  0  0  0  0  0
   -7.5730    5.6130  -20.1010 H   0  0  0  0  0  0  0  0  0  0  0  0
   -7.8690    3.9000  -19.7690 H   0  0  0  0  0  0  0  0  0  0  0  0
   -7.9910    7.7720  -14.7510 H   0  0  0  0  0  0  0  0  0  0  0  0
   -6.5080    6.9970  -14.4810 H   0  0  0  0  0  0  0  0  0  0  0  0
   -8.5250    7.4290   -9.9180 H   0  0  0  0  0  0  0  0  0  0  0  0
   -9.1770    3.3960   -6.7690 H   0  0  0  0  0  0  0  0  0  0  0  0
   -8.7090    6.0040   -7.3570 H   0  0  0  0  0  0  0  0  0  0  0  0
   -6.2230    6.7900  -17.5160 H   0  0  0  0  0  0  0  0  0  0  0  0
  1  2  1  0
  2  3  2  0
  3  4  1  0
  4  5  1  0
  5  6  1  0
  6  7  1  0
  7  8  1  0
  8  9  2  0
  8 10  1  0
 10 11  2  0
 11 12  1  0
 12 13  2  0
 13 14  1  0
 14 15  1  0
 15 16  2  0
 13 17  1  0
  5 18  2  0
 18  2  1  0
 17 10  1  0
 16 12  1  0
  1 19  1  0
  1 20  1  0
  1 21  1  0
  6 22  1  0
  6 23  1  0
 11 24  1  0
 15 25  1  0
 16 26  1  0
 18 27  1  0
A    1
 C1 
A    2
 C2 
A    3
 N1 
A    4
 O1 
A    5
 C3 
A    6
 C4 
A    7
 O2 
A    8
 C5 
A    9
 O3 
A   10
 C6 
A   11
 C7 
A   12
 C8 
A   13
 C9 
A   14
 S1 
A   15
 C10
A   16
 C11
A   17
 S2 
A   18
 C12
A   19
 H1 
A   20
 H2 
A   21
 H3 
A   22
 H4 
A   23
 H5 
A   24
 H6 
A   25
 H7 
A   26
 H8 
A   27
 H9 
M  END
>  <ref_pdb>  (149) 
x0051_0B

>  <ref_mols>  (149) 
x0404_0B,x0969_0B

>  <original SMILES>  (149) 
[H]c1sc2sc(C(=O)OC([H])([H])c3onc(C([H])([H])[H])c3[H])c([H])c2c1[H]

>  <index>  (149) 
3707

>  <∆∆G>  (149) 
-5.172721

>  <comRMSD>  (149) 
0.371571

>  <N_constrained_atoms>  (149) 
17.0

>  <N_unconstrained_atoms>  (149) 
1.0

>  <LE>  (149) 
0.287373

>  <percent_hybrid>  (149) 
0.0

>  <max_hit_Tanimoto>  (149) 
0.224729

>  <largest_ring>  (149) 
5

>  <N_interactions_kept>  (149) 
0.0

>  <N_interactions_lost>  (149) 
0.0

>  <interaction_uniqueness_metric>  (149) 
0.169613

>  <N_HA>  (149) 
18

>  <N_rotatable_bonds>  (149) 
4

>  <N_interactions>  (149) 
6

>  <N_PAINS>  (149) 
0

>  <UFF_Gibbs>  (149) 
73.764005

>  <strain_per_HA>  (149) 
4.097978

>  <ad_hoc_penalty>  (149) 
-35.937169

>  <cluster>  (149) 
2281

>  <merger_rank>  (149) 
3

>  <pication:ARG:29>  (149) 
0

>  <hbond:HIS:51>  (149) 
0

>  <pistack:HIS:51>  (149) 
1

>  <hydroph_interaction:TYR:161>  (149) 
1

>  <pication:HIS:51>  (149) 
0

>  <hydroph_interaction:ALA:132>  (149) 
1

>  <hydroph_interaction:TYR:150>  (149) 
0

>  <hydroph_interaction:LYS:54>  (149) 
0

>  <hbond:SER:135>  (149) 
0

>  <hydroph_interaction:HIS:51>  (149) 
1

>  <hbond:ASP:83>  (149) 
0

>  <hbond:ALA:132>  (149) 
0

>  <halogenbond:SER:81>  (149) 
0

>  <hbond:GLY:82>  (149) 
0

>  <saltbridge:HIS:51>  (149) 
1

>  <pistack:TYR:161>  (149) 
1

>  <hbond:SER:81>  (149) 
0

>  <hbond:ASN:152>  (149) 
0

>  <hbond:GLY:151>  (149) 
0

>  <hydroph_interaction:ASN:152>  (149) 
0

>  <hbond:TYR:161>  (149) 
0

>  <halogenbond:TYR:150>  (149) 
0

>  <hbond:ASP:75>  (149) 
0

>  <hbond:GLY:153>  (149) 
0

>  <hbond:VAL:36>  (149) 
0

>  <hbond:PRO:131>  (149) 
0

>  <hbond:VAL:52>  (149) 
0

>  <hydroph_interaction:ASP:83>  (149) 
0

>  <hydroph_interaction:MET:49>  (149) 
0

>  <hydroph_interaction:VAL:52>  (149) 
0

>  <saltbridge:ASP:83>  (149) 
0

>  <saltbridge:ASP:75>  (149) 
0

>  <hydroph_interaction:TRP:50>  (149) 
0

>  <hydroph_interaction:VAL:72>  (149) 
0

>  <hydroph_interaction:ASP:75>  (149) 
0

>  <halogenbond:ASN:152>  (149) 
0

>  <halogenbond:GLY:153>  (149) 
0

>  <halogenbond:TYR:130>  (149) 
0

>  <hbond:TYR:130>  (149) 
0

>  <halogenbond:ASP:75>  (149) 
0

>  <halogenbond:GLY:151>  (149) 
0

>  <hbond:TYR:150>  (149) 
0

>  <halogenbond:TYR:161>  (149) 
0

>  <hydroph_interaction:ASP:129>  (149) 
0

>  <hbond:ASP:129>  (149) 
0

>  <halogenbond:ALA:132>  (149) 
0

$$$$
PV-002829994058
     RDKit          3D

 29 31  0  0  0  0  0  0  0  0999 V2000
   -6.9920    3.8420   -7.0910 C   0  0  0  0  0  0  0  0  0  0  0  0
   -7.7390    4.3630   -8.3050 C   0  0  0  0  0  0  0  0  0  0  0  0
   -7.9640    5.7860   -8.3720 C   0  0  0  0  0  0  0  0  0  0  0  0
   -8.7880    6.4360   -9.7010 S   0  0  0  0  0  0  0  0  0  0  0  0
   -8.9220    4.8300  -10.3090 C   0  0  0  0  0  0  0  0  0  0  0  0
   -9.6060    4.6070  -11.5720 C   0  0  0  0  0  0  0  0  0  0  0  0
   -9.0490    5.4690  -12.6190 C   0  0  0  0  0  0  0  0  0  0  0  0
   -8.8760    5.0140  -13.8640 N   0  0  0  0  0  0  0  0  0  0  0  0
   -8.3600    5.9720  -14.6150 C   0  0  0  0  0  0  0  0  0  0  0  0
   -8.0610    5.7490  -16.0450 C   0  0  0  0  0  0  0  0  0  0  0  0
   -6.8410    6.2330  -16.4450 C   0  0  0  0  0  0  0  0  0  0  0  0
   -6.3910    6.0970  -17.8160 C   0  0  0  0  0  0  0  0  0  0  0  0
   -7.3120    5.4430  -18.6300 C   0  0  0  0  0  0  0  0  0  0  0  0
   -8.5340    4.9810  -18.1340 C   0  0  0  0  0  0  0  0  0  0  0  0
   -8.9210    5.1290  -16.8470 N   0  0  0  0  0  0  0  0  0  0  0  0
   -8.1770    7.1040  -13.8680 N   0  0  0  0  0  0  0  0  0  0  0  0
   -8.6310    6.7860  -12.5550 O   0  0  0  0  0  0  0  0  0  0  0  0
   -8.3300    3.8220   -9.4880 C   0  0  0  0  0  0  0  0  0  0  0  0
   -7.4550    2.9310   -6.7010 H   0  0  0  0  0  0  0  0  0  0  0  0
   -6.9930    4.5770   -6.2790 H   0  0  0  0  0  0  0  0  0  0  0  0
   -5.9500    3.6320   -7.3470 H   0  0  0  0  0  0  0  0  0  0  0  0
   -7.5600    6.3380   -7.5140 H   0  0  0  0  0  0  0  0  0  0  0  0
   -9.8150    3.5740  -11.8080 H   0  0  0  0  0  0  0  0  0  0  0  0
  -10.6430    4.9640  -11.5390 H   0  0  0  0  0  0  0  0  0  0  0  0
   -6.1520    6.7350  -15.7760 H   0  0  0  0  0  0  0  0  0  0  0  0
   -5.4360    6.4640  -18.1830 H   0  0  0  0  0  0  0  0  0  0  0  0
   -7.0830    5.2850  -19.6780 H   0  0  0  0  0  0  0  0  0  0  0  0
   -9.2450    4.4720  -18.7720 H   0  0  0  0  0  0  0  0  0  0  0  0
   -8.3520    2.7780   -9.7720 H   0  0  0  0  0  0  0  0  0  0  0  0
  1  2  1  0
  2  3  2  0
  3  4  1  0
  4  5  1  0
  5  6  1  0
  6  7  1  0
  7  8  2  0
  8  9  1  0
  9 10  1  0
 10 11  2  0
 11 12  1  0
 12 13  2  0
 13 14  1  0
 14 15  2  0
  9 16  2  0
 16 17  1  0
  5 18  2  0
 18  2  1  0
 17  7  1  0
 15 10  1  0
  1 19  1  0
  1 20  1  0
  1 21  1  0
  3 22  1  0
  6 23  1  0
  6 24  1  0
 11 25  1  0
 12 26  1  0
 13 27  1  0
 14 28  1  0
 18 29  1  0
A    1
 C1 
A    2
 C2 
A    3
 C3 
A    4
 S1 
A    5
 C4 
A    6
 C5 
A    7
 C6 
A    8
 N1 
A    9
 C7 
A   10
 C8 
A   11
 C9 
A   12
 C10
A   13
 C11
A   14
 C12
A   15
 N2 
A   16
 N3 
A   17
 O1 
A   18
 C13
A   19
 H1 
A   20
 H2 
A   21
 H3 
A   22
 H4 
A   23
 H5 
A   24
 H6 
A   25
 H7 
A   26
 H8 
A   27
 H9 
A   28
 H10
A   29
 H11
M  END
>  <ref_pdb>  (150) 
x0051_0B

>  <ref_mols>  (150) 
x0404_0B,x0969_0B

>  <original SMILES>  (150) 
[H]c1nc(-c2noc(C([H])([H])c3sc([H])c(C([H])([H])[H])c3[H])n2)c([H])c([H])c1[H]

>  <index>  (150) 
4816

>  <∆∆G>  (150) 
-4.65066

>  <comRMSD>  (150) 
0.546452

>  <N_constrained_atoms>  (150) 
17.0

>  <N_unconstrained_atoms>  (150) 
1.0

>  <LE>  (150) 
0.25837

>  <percent_hybrid>  (150) 
0.0

>  <max_hit_Tanimoto>  (150) 
0.27646

>  <largest_ring>  (150) 
6

>  <N_interactions_kept>  (150) 
0.0

>  <N_interactions_lost>  (150) 
0.0

>  <interaction_uniqueness_metric>  (150) 
0.241328

>  <N_HA>  (150) 
18

>  <N_rotatable_bonds>  (150) 
4

>  <N_interactions>  (150) 
6

>  <N_PAINS>  (150) 
0

>  <UFF_Gibbs>  (150) 
73.857651

>  <strain_per_HA>  (150) 
4.10318

>  <ad_hoc_penalty>  (150) 
-35.851812

>  <cluster>  (150) 
164

>  <merger_rank>  (150) 
4

>  <pication:ARG:29>  (150) 
0

>  <hbond:HIS:51>  (150) 
0

>  <pistack:HIS:51>  (150) 
1

>  <hydroph_interaction:TYR:161>  (150) 
1

>  <pication:HIS:51>  (150) 
0

>  <hydroph_interaction:ALA:132>  (150) 
1

>  <hydroph_interaction:TYR:150>  (150) 
0

>  <hydroph_interaction:LYS:54>  (150) 
0

>  <hbond:SER:135>  (150) 
1

>  <hydroph_interaction:HIS:51>  (150) 
0

>  <hbond:ASP:83>  (150) 
0

>  <hbond:ALA:132>  (150) 
0

>  <halogenbond:SER:81>  (150) 
0

>  <hbond:GLY:82>  (150) 
0

>  <saltbridge:HIS:51>  (150) 
0

>  <pistack:TYR:161>  (150) 
0

>  <hbond:SER:81>  (150) 
0

>  <hbond:ASN:152>  (150) 
0

>  <hbond:GLY:151>  (150) 
0

>  <hydroph_interaction:ASN:152>  (150) 
0

>  <hbond:TYR:161>  (150) 
1

>  <halogenbond:TYR:150>  (150) 
0

>  <hbond:ASP:75>  (150) 
0

>  <hbond:GLY:153>  (150) 
0

>  <hbond:VAL:36>  (150) 
0

>  <hbond:PRO:131>  (150) 
0

>  <hbond:VAL:52>  (150) 
0

>  <hydroph_interaction:ASP:83>  (150) 
1

>  <hydroph_interaction:MET:49>  (150) 
0

>  <hydroph_interaction:VAL:52>  (150) 
0

>  <saltbridge:ASP:83>  (150) 
0

>  <saltbridge:ASP:75>  (150) 
0

>  <hydroph_interaction:TRP:50>  (150) 
0

>  <hydroph_interaction:VAL:72>  (150) 
0

>  <hydroph_interaction:ASP:75>  (150) 
0

>  <halogenbond:ASN:152>  (150) 
0

>  <halogenbond:GLY:153>  (150) 
0

>  <halogenbond:TYR:130>  (150) 
0

>  <hbond:TYR:130>  (150) 
0

>  <halogenbond:ASP:75>  (150) 
0

>  <halogenbond:GLY:151>  (150) 
0

>  <hbond:TYR:150>  (150) 
0

>  <halogenbond:TYR:161>  (150) 
0

>  <hydroph_interaction:ASP:129>  (150) 
0

>  <hbond:ASP:129>  (150) 
0

>  <halogenbond:ALA:132>  (150) 
0

$$$$
PV-003379604423
     RDKit          3D

 23 24  0  0  0  0  0  0  0  0999 V2000
   -9.5740    2.4400  -10.0740 C   0  0  0  0  0  0  0  0  0  0  0  0
   -9.1000    3.7490  -10.4780 C   0  0  0  0  0  0  0  0  0  0  0  0
   -8.8280    4.8160   -9.6370 C   0  0  0  0  0  0  0  0  0  0  0  0
   -8.3740    5.9910  -10.2950 C   0  0  0  0  0  0  0  0  0  0  0  0
   -8.1760    6.1880  -11.5990 N   0  0  0  0  0  0  0  0  0  0  0  0
   -8.4390    5.1440  -12.4020 C   0  0  0  0  0  0  0  0  0  0  0  0
   -8.2470    5.2320  -13.8170 C   0  0  0  0  0  0  0  0  0  0  0  0
   -9.1940    4.9740  -14.7090 N   0  0  0  0  0  0  0  0  0  0  0  0
   -8.6330    5.1690  -15.8880 C   0  0  0  0  0  0  0  0  0  0  0  0
   -9.4240    4.9660  -17.1380 C   0  0  0  0  0  0  0  0  0  0  0  0
   -7.3280    5.5530  -15.7280 C   0  0  0  0  0  0  0  0  0  0  0  0
   -7.0620    5.6010  -14.3990 O   0  0  0  0  0  0  0  0  0  0  0  0
   -8.8920    3.9480  -11.8870 C   0  0  0  0  0  0  0  0  0  0  0  0
  -10.0160    2.4620   -9.0730 H   0  0  0  0  0  0  0  0  0  0  0  0
  -10.3370    2.1030  -10.7730 H   0  0  0  0  0  0  0  0  0  0  0  0
   -8.7490    1.7210  -10.0720 H   0  0  0  0  0  0  0  0  0  0  0  0
   -8.9580    4.7420   -8.5680 H   0  0  0  0  0  0  0  0  0  0  0  0
   -8.1330    6.8890   -9.7440 H   0  0  0  0  0  0  0  0  0  0  0  0
  -10.3900    5.3910  -17.3420 H   0  0  0  0  0  0  0  0  0  0  0  0
   -8.8690    5.1790  -18.0610 H   0  0  0  0  0  0  0  0  0  0  0  0
   -9.5950    3.8950  -17.1960 H   0  0  0  0  0  0  0  0  0  0  0  0
   -6.4990    5.8150  -16.4000 H   0  0  0  0  0  0  0  0  0  0  0  0
   -9.0940    3.1290  -12.5750 H   0  0  0  0  0  0  0  0  0  0  0  0
  1  2  1  0
  2  3  2  0
  3  4  1  0
  4  5  2  0
  5  6  1  0
  6  7  1  0
  7  8  2  0
  8  9  1  0
  9 10  1  0
  9 11  2  0
 11 12  1  0
  6 13  2  0
 13  2  1  0
 12  7  1  0
  1 14  1  0
  1 15  1  0
  1 16  1  0
  3 17  1  0
  4 18  1  0
 10 19  1  0
 10 20  1  0
 10 21  1  0
 11 22  1  0
 13 23  1  0
A    1
 C1 
A    2
 C2 
A    3
 C3 
A    4
 C4 
A    5
 N1 
A    6
 C5 
A    7
 C6 
A    8
 N2 
A    9
 C7 
A   10
 C8 
A   11
 C9 
A   12
 O1 
A   13
 C10
A   14
 H1 
A   15
 H2 
A   16
 H3 
A   17
 H4 
A   18
 H5 
A   19
 H6 
A   20
 H7 
A   21
 H8 
A   22
 H9 
A   23
 H10
M  END
>  <ref_pdb>  (151) 
x0051_0B

>  <ref_mols>  (151) 
x0969_1B,x0553_0B

>  <original SMILES>  (151) 
[H]c1nc(-c2nc(C([H])([H])[H])c([H])o2)c([H])c(C([H])([H])[H])c1[H]

>  <index>  (151) 
3100

>  <∆∆G>  (151) 
-5.568538

>  <comRMSD>  (151) 
0.330418

>  <N_constrained_atoms>  (151) 
12.0

>  <N_unconstrained_atoms>  (151) 
1.0

>  <LE>  (151) 
0.428349

>  <percent_hybrid>  (151) 
0.0

>  <max_hit_Tanimoto>  (151) 
0.400277

>  <largest_ring>  (151) 
6

>  <N_interactions_kept>  (151) 
0.0

>  <N_interactions_lost>  (151) 
0.0

>  <interaction_uniqueness_metric>  (151) 
0.180407

>  <N_HA>  (151) 
13

>  <N_rotatable_bonds>  (151) 
3

>  <N_interactions>  (151) 
5

>  <N_PAINS>  (151) 
0

>  <UFF_Gibbs>  (151) 
37.040473

>  <strain_per_HA>  (151) 
2.849245

>  <ad_hoc_penalty>  (151) 
-35.764794

>  <cluster>  (151) 
2617

>  <merger_rank>  (151) 
2

>  <pication:ARG:29>  (151) 
0

>  <hbond:HIS:51>  (151) 
0

>  <pistack:HIS:51>  (151) 
1

>  <hydroph_interaction:TYR:161>  (151) 
1

>  <pication:HIS:51>  (151) 
0

>  <hydroph_interaction:ALA:132>  (151) 
0

>  <hydroph_interaction:TYR:150>  (151) 
0

>  <hydroph_interaction:LYS:54>  (151) 
0

>  <hbond:SER:135>  (151) 
0

>  <hydroph_interaction:HIS:51>  (151) 
1

>  <hbond:ASP:83>  (151) 
0

>  <hbond:ALA:132>  (151) 
0

>  <halogenbond:SER:81>  (151) 
0

>  <hbond:GLY:82>  (151) 
0

>  <saltbridge:HIS:51>  (151) 
0

>  <pistack:TYR:161>  (151) 
0

>  <hbond:SER:81>  (151) 
0

>  <hbond:ASN:152>  (151) 
0

>  <hbond:GLY:151>  (151) 
0

>  <hydroph_interaction:ASN:152>  (151) 
1

>  <hbond:TYR:161>  (151) 
1

>  <halogenbond:TYR:150>  (151) 
0

>  <hbond:ASP:75>  (151) 
0

>  <hbond:GLY:153>  (151) 
0

>  <hbond:VAL:36>  (151) 
0

>  <hbond:PRO:131>  (151) 
0

>  <hbond:VAL:52>  (151) 
0

>  <hydroph_interaction:ASP:83>  (151) 
0

>  <hydroph_interaction:MET:49>  (151) 
0

>  <hydroph_interaction:VAL:52>  (151) 
0

>  <saltbridge:ASP:83>  (151) 
0

>  <saltbridge:ASP:75>  (151) 
0

>  <hydroph_interaction:TRP:50>  (151) 
0

>  <hydroph_interaction:VAL:72>  (151) 
0

>  <hydroph_interaction:ASP:75>  (151) 
0

>  <halogenbond:ASN:152>  (151) 
0

>  <halogenbond:GLY:153>  (151) 
0

>  <halogenbond:TYR:130>  (151) 
0

>  <hbond:TYR:130>  (151) 
0

>  <halogenbond:ASP:75>  (151) 
0

>  <halogenbond:GLY:151>  (151) 
0

>  <hbond:TYR:150>  (151) 
0

>  <halogenbond:TYR:161>  (151) 
0

>  <hydroph_interaction:ASP:129>  (151) 
0

>  <hbond:ASP:129>  (151) 
0

>  <halogenbond:ALA:132>  (151) 
0

$$$$
Z1274037643
     RDKit          3D

 31 33  0  0  0  0  0  0  0  0999 V2000
   -6.5820    4.9500  -19.6110 C   0  0  0  0  0  0  0  0  0  0  0  0
   -6.8730    5.2740  -18.1560 C   0  0  0  0  0  0  0  0  0  0  0  0
   -5.7120    5.5790  -17.2830 C   0  0  0  0  0  0  0  0  0  0  0  0
   -5.7870    5.8920  -15.9880 N   0  0  0  0  0  0  0  0  0  0  0  0
   -7.1210    5.9160  -15.4940 C   0  0  0  0  0  0  0  0  0  0  0  0
   -8.2240    5.6360  -16.2810 C   0  0  0  0  0  0  0  0  0  0  0  0
   -9.4750    5.7210  -15.5900 C   0  0  0  0  0  0  0  0  0  0  0  0
  -10.2650    4.8690  -15.9050 O   0  0  0  0  0  0  0  0  0  0  0  0
   -9.6280    6.7670  -14.6950 N   0  0  0  0  0  0  0  0  0  0  0  0
   -9.3180    6.6590  -13.4200 C   0  0  0  0  0  0  0  0  0  0  0  0
   -8.8950    7.5670  -12.5600 N   0  0  0  0  0  0  0  0  0  0  0  0
   -8.7200    6.9770  -11.3610 N   0  0  0  0  0  0  0  0  0  0  0  0
   -9.0390    5.7070  -11.4860 C   0  0  0  0  0  0  0  0  0  0  0  0
   -9.0230    4.6800  -10.4290 C   0  0  0  0  0  0  0  0  0  0  0  0
   -8.7340    5.0510   -9.0940 C   0  0  0  0  0  0  0  0  0  0  0  0
   -8.8130    3.9160   -8.3590 C   0  0  0  0  0  0  0  0  0  0  0  0
   -9.1490    2.8460   -9.2550 C   0  0  0  0  0  0  0  0  0  0  0  0
   -9.2720    3.3340  -10.5220 O   0  0  0  0  0  0  0  0  0  0  0  0
   -9.4130    5.4700  -12.7720 N   0  0  0  0  0  0  0  0  0  0  0  0
   -8.1290    5.3070  -17.6110 C   0  0  0  0  0  0  0  0  0  0  0  0
   -6.8430    5.7950  -20.2570 H   0  0  0  0  0  0  0  0  0  0  0  0
   -5.5230    4.7270  -19.7700 H   0  0  0  0  0  0  0  0  0  0  0  0
   -7.1690    4.0860  -19.9380 H   0  0  0  0  0  0  0  0  0  0  0  0
   -4.6840    5.5780  -17.6120 H   0  0  0  0  0  0  0  0  0  0  0  0
   -7.1860    6.1790  -14.4320 H   0  0  0  0  0  0  0  0  0  0  0  0
  -10.4450    7.3530  -14.8170 H   0  0  0  0  0  0  0  0  0  0  0  0
   -8.4990    6.0390   -8.7270 H   0  0  0  0  0  0  0  0  0  0  0  0
   -8.6530    3.8100   -7.2950 H   0  0  0  0  0  0  0  0  0  0  0  0
   -9.3130    1.7890   -9.1300 H   0  0  0  0  0  0  0  0  0  0  0  0
   -9.7080    4.5890  -13.1640 H   0  0  0  0  0  0  0  0  0  0  0  0
   -9.0180    5.0900  -18.2040 H   0  0  0  0  0  0  0  0  0  0  0  0
  1  2  1  0
  2  3  2  0
  3  4  1  0
  4  5  2  0
  5  6  1  0
  6  7  1  0
  7  8  2  0
  7  9  1  0
  9 10  1  0
 10 11  2  0
 11 12  1  0
 12 13  2  0
 13 14  1  0
 14 15  2  0
 15 16  1  0
 16 17  2  0
 17 18  1  0
 13 19  1  0
  6 20  2  0
 20  2  1  0
 19 10  1  0
 18 14  1  0
  1 21  1  0
  1 22  1  0
  1 23  1  0
  3 24  1  0
  5 25  1  0
  9 26  1  0
 15 27  1  0
 16 28  1  0
 17 29  1  0
 19 30  1  0
 20 31  1  0
A    1
 C1 
A    2
 C2 
A    3
 C3 
A    4
 N1 
A    5
 C4 
A    6
 C5 
A    7
 C6 
A    8
 O1 
A    9
 N2 
A   10
 C7 
A   11
 N3 
A   12
 N4 
A   13
 C8 
A   14
 C9 
A   15
 C10
A   16
 C11
A   17
 C12
A   18
 O2 
A   19
 N5 
A   20
 C13
A   21
 H1 
A   22
 H2 
A   23
 H3 
A   24
 H4 
A   25
 H5 
A   26
 H6 
A   27
 H7 
A   28
 H8 
A   29
 H9 
A   30
 H10
A   31
 H11
M  END
>  <ref_pdb>  (152) 
x0051_0B

>  <ref_mols>  (152) 
x0404_0B,x0969_0B

>  <original SMILES>  (152) 
[H]c1nc([H])c(C([H])([H])[H])c([H])c1C(=O)N([H])c1nnc(-c2oc([H])c([H])c2[H])n1[H]

>  <index>  (152) 
3023

>  <∆∆G>  (152) 
-4.760193

>  <comRMSD>  (152) 
0.292326

>  <N_constrained_atoms>  (152) 
19.0

>  <N_unconstrained_atoms>  (152) 
1.0

>  <LE>  (152) 
0.23801

>  <percent_hybrid>  (152) 
0.0

>  <max_hit_Tanimoto>  (152) 
0.36497

>  <largest_ring>  (152) 
6

>  <N_interactions_kept>  (152) 
0.0

>  <N_interactions_lost>  (152) 
0.0

>  <interaction_uniqueness_metric>  (152) 
0.179906

>  <N_HA>  (152) 
20

>  <N_rotatable_bonds>  (152) 
4

>  <N_interactions>  (152) 
6

>  <N_PAINS>  (152) 
0

>  <UFF_Gibbs>  (152) 
75.923265

>  <strain_per_HA>  (152) 
3.796144

>  <ad_hoc_penalty>  (152) 
-35.747519

>  <cluster>  (152) 
57

>  <merger_rank>  (152) 
3

>  <pication:ARG:29>  (152) 
0

>  <hbond:HIS:51>  (152) 
0

>  <pistack:HIS:51>  (152) 
1

>  <hydroph_interaction:TYR:161>  (152) 
1

>  <pication:HIS:51>  (152) 
0

>  <hydroph_interaction:ALA:132>  (152) 
1

>  <hydroph_interaction:TYR:150>  (152) 
0

>  <hydroph_interaction:LYS:54>  (152) 
0

>  <hbond:SER:135>  (152) 
0

>  <hydroph_interaction:HIS:51>  (152) 
1

>  <hbond:ASP:83>  (152) 
0

>  <hbond:ALA:132>  (152) 
1

>  <halogenbond:SER:81>  (152) 
0

>  <hbond:GLY:82>  (152) 
0

>  <saltbridge:HIS:51>  (152) 
0

>  <pistack:TYR:161>  (152) 
1

>  <hbond:SER:81>  (152) 
0

>  <hbond:ASN:152>  (152) 
0

>  <hbond:GLY:151>  (152) 
0

>  <hydroph_interaction:ASN:152>  (152) 
0

>  <hbond:TYR:161>  (152) 
0

>  <halogenbond:TYR:150>  (152) 
0

>  <hbond:ASP:75>  (152) 
0

>  <hbond:GLY:153>  (152) 
0

>  <hbond:VAL:36>  (152) 
0

>  <hbond:PRO:131>  (152) 
0

>  <hbond:VAL:52>  (152) 
0

>  <hydroph_interaction:ASP:83>  (152) 
0

>  <hydroph_interaction:MET:49>  (152) 
0

>  <hydroph_interaction:VAL:52>  (152) 
0

>  <saltbridge:ASP:83>  (152) 
0

>  <saltbridge:ASP:75>  (152) 
0

>  <hydroph_interaction:TRP:50>  (152) 
0

>  <hydroph_interaction:VAL:72>  (152) 
0

>  <hydroph_interaction:ASP:75>  (152) 
0

>  <halogenbond:ASN:152>  (152) 
0

>  <halogenbond:GLY:153>  (152) 
0

>  <halogenbond:TYR:130>  (152) 
0

>  <hbond:TYR:130>  (152) 
0

>  <halogenbond:ASP:75>  (152) 
0

>  <halogenbond:GLY:151>  (152) 
0

>  <hbond:TYR:150>  (152) 
0

>  <halogenbond:TYR:161>  (152) 
0

>  <hydroph_interaction:ASP:129>  (152) 
0

>  <hbond:ASP:129>  (152) 
0

>  <halogenbond:ALA:132>  (152) 
0

$$$$
Z5342140177
     RDKit          3D

 29 31  0  0  0  0  0  0  0  0999 V2000
   -7.9650    4.9080  -19.0140 C   0  0  0  0  0  0  0  0  0  0  0  0
   -7.7260    5.4880  -17.6810 C   0  0  0  0  0  0  0  0  0  0  0  0
   -6.7220    6.4090  -17.5260 N   0  0  0  0  0  0  0  0  0  0  0  0
   -6.5410    6.9440  -16.3040 C   0  0  0  0  0  0  0  0  0  0  0  0
   -7.4320    6.4510  -15.3680 C   0  0  0  0  0  0  0  0  0  0  0  0
   -7.3820    6.9080  -14.0860 C   0  0  0  0  0  0  0  0  0  0  0  0
   -8.4460    6.2690  -13.4170 N   0  0  0  0  0  0  0  0  0  0  0  0
   -8.7050    6.4720  -12.0700 C   0  0  0  0  0  0  0  0  0  0  0  0
   -8.7920    7.6030  -11.5990 O   0  0  0  0  0  0  0  0  0  0  0  0
   -8.8970    5.2410  -11.1730 C   0  0  0  0  0  0  0  0  0  0  0  0
   -9.0890    4.0160  -11.5970 N   0  0  0  0  0  0  0  0  0  0  0  0
   -9.2500    3.1310  -10.5900 N   0  0  0  0  0  0  0  0  0  0  0  0
   -9.1760    3.6950   -9.4030 C   0  0  0  0  0  0  0  0  0  0  0  0
   -9.3300    3.0100   -8.1920 C   0  0  0  0  0  0  0  0  0  0  0  0
   -8.8800    5.3900   -9.4610 S   0  0  0  0  0  0  0  0  0  0  0  0
   -9.1160    5.2710  -14.3330 C   0  0  0  0  0  0  0  0  0  0  0  0
   -8.3980    5.5630  -15.4640 C   0  0  0  0  0  0  0  0  0  0  0  0
   -8.5790    5.0260  -16.6980 N   0  0  0  0  0  0  0  0  0  0  0  0
   -8.4190    5.6480  -19.6800 H   0  0  0  0  0  0  0  0  0  0  0  0
   -7.0280    4.5810  -19.4750 H   0  0  0  0  0  0  0  0  0  0  0  0
   -8.6500    4.0580  -18.9440 H   0  0  0  0  0  0  0  0  0  0  0  0
   -5.7530    7.6750  -16.1860 H   0  0  0  0  0  0  0  0  0  0  0  0
   -7.6020    7.9800  -14.0870 H   0  0  0  0  0  0  0  0  0  0  0  0
   -6.3680    6.8050  -13.7260 H   0  0  0  0  0  0  0  0  0  0  0  0
  -10.2580    2.8420   -7.6600 H   0  0  0  0  0  0  0  0  0  0  0  0
   -8.6820    3.2960   -7.3740 H   0  0  0  0  0  0  0  0  0  0  0  0
   -9.0060    2.0040   -8.4180 H   0  0  0  0  0  0  0  0  0  0  0  0
   -8.8710    4.2660  -13.9830 H   0  0  0  0  0  0  0  0  0  0  0  0
  -10.1900    5.4370  -14.3220 H   0  0  0  0  0  0  0  0  0  0  0  0
  1  2  1  0
  2  3  2  0
  3  4  1  0
  4  5  2  0
  5  6  1  0
  6  7  1  0
  7  8  1  0
  8  9  2  0
  8 10  1  0
 10 11  2  0
 11 12  1  0
 12 13  2  0
 13 14  1  0
 13 15  1  0
  7 16  1  0
 16 17  1  0
 17 18  2  0
 18  2  1  0
 17  5  1  0
 15 10  1  0
  1 19  1  0
  1 20  1  0
  1 21  1  0
  4 22  1  0
  6 23  1  0
  6 24  1  0
 14 25  1  0
 14 26  1  0
 14 27  1  0
 16 28  1  0
 16 29  1  0
A    1
 C1 
A    2
 C2 
A    3
 N1 
A    4
 C3 
A    5
 C4 
A    6
 C5 
A    7
 N2 
A    8
 C6 
A    9
 O1 
A   10
 C7 
A   11
 N3 
A   12
 N4 
A   13
 C8 
A   14
 C9 
A   15
 S1 
A   16
 C10
A   17
 C11
A   18
 N5 
A   19
 H1 
A   20
 H2 
A   21
 H3 
A   22
 H4 
A   23
 H5 
A   24
 H6 
A   25
 H7 
A   26
 H8 
A   27
 H9 
A   28
 H10
A   29
 H11
M  END
>  <ref_pdb>  (153) 
x0051_0B

>  <ref_mols>  (153) 
x0404_0B,x0969_0B

>  <original SMILES>  (153) 
[H]c1nc(C([H])([H])[H])nc2c1C([H])([H])N(C(=O)c1nnc(C([H])([H])[H])s1)C2([H])[H]

>  <index>  (153) 
3975

>  <∆∆G>  (153) 
-6.002518

>  <comRMSD>  (153) 
0.349411

>  <N_constrained_atoms>  (153) 
17.0

>  <N_unconstrained_atoms>  (153) 
1.0

>  <LE>  (153) 
0.333473

>  <percent_hybrid>  (153) 
0.0

>  <max_hit_Tanimoto>  (153) 
0.292742

>  <largest_ring>  (153) 
6

>  <N_interactions_kept>  (153) 
0.0

>  <N_interactions_lost>  (153) 
0.0

>  <interaction_uniqueness_metric>  (153) 
0.121616

>  <N_HA>  (153) 
18

>  <N_rotatable_bonds>  (153) 
3

>  <N_interactions>  (153) 
5

>  <N_PAINS>  (153) 
0

>  <UFF_Gibbs>  (153) 
72.441006

>  <strain_per_HA>  (153) 
4.024478

>  <ad_hoc_penalty>  (153) 
-35.608141

>  <cluster>  (153) 
195

>  <merger_rank>  (153) 
2

>  <pication:ARG:29>  (153) 
0

>  <hbond:HIS:51>  (153) 
0

>  <pistack:HIS:51>  (153) 
1

>  <hydroph_interaction:TYR:161>  (153) 
1

>  <pication:HIS:51>  (153) 
0

>  <hydroph_interaction:ALA:132>  (153) 
1

>  <hydroph_interaction:TYR:150>  (153) 
0

>  <hydroph_interaction:LYS:54>  (153) 
0

>  <hbond:SER:135>  (153) 
0

>  <hydroph_interaction:HIS:51>  (153) 
1

>  <hbond:ASP:83>  (153) 
0

>  <hbond:ALA:132>  (153) 
0

>  <halogenbond:SER:81>  (153) 
0

>  <hbond:GLY:82>  (153) 
0

>  <saltbridge:HIS:51>  (153) 
0

>  <pistack:TYR:161>  (153) 
0

>  <hbond:SER:81>  (153) 
0

>  <hbond:ASN:152>  (153) 
0

>  <hbond:GLY:151>  (153) 
1

>  <hydroph_interaction:ASN:152>  (153) 
0

>  <hbond:TYR:161>  (153) 
0

>  <halogenbond:TYR:150>  (153) 
0

>  <hbond:ASP:75>  (153) 
0

>  <hbond:GLY:153>  (153) 
0

>  <hbond:VAL:36>  (153) 
0

>  <hbond:PRO:131>  (153) 
0

>  <hbond:VAL:52>  (153) 
0

>  <hydroph_interaction:ASP:83>  (153) 
0

>  <hydroph_interaction:MET:49>  (153) 
0

>  <hydroph_interaction:VAL:52>  (153) 
0

>  <saltbridge:ASP:83>  (153) 
0

>  <saltbridge:ASP:75>  (153) 
0

>  <hydroph_interaction:TRP:50>  (153) 
0

>  <hydroph_interaction:VAL:72>  (153) 
0

>  <hydroph_interaction:ASP:75>  (153) 
0

>  <halogenbond:ASN:152>  (153) 
0

>  <halogenbond:GLY:153>  (153) 
0

>  <halogenbond:TYR:130>  (153) 
0

>  <hbond:TYR:130>  (153) 
0

>  <halogenbond:ASP:75>  (153) 
0

>  <halogenbond:GLY:151>  (153) 
0

>  <hbond:TYR:150>  (153) 
0

>  <halogenbond:TYR:161>  (153) 
0

>  <hydroph_interaction:ASP:129>  (153) 
0

>  <hbond:ASP:129>  (153) 
0

>  <halogenbond:ALA:132>  (153) 
0

$$$$
Z165137408
     RDKit          3D

 28 30  0  0  0  0  0  0  0  0999 V2000
  -10.2350    5.0310  -16.2320 O   0  0  0  0  0  0  0  0  0  0  0  0
   -9.4230    5.8230  -15.8050 C   0  0  0  0  0  0  0  0  0  0  0  0
   -9.6900    6.8790  -14.8710 N   0  0  0  0  0  0  0  0  0  0  0  0
   -9.3970    6.6250  -13.4990 C   0  0  0  0  0  0  0  0  0  0  0  0
   -9.0890    7.5090  -12.5300 N   0  0  0  0  0  0  0  0  0  0  0  0
   -8.9080    6.8590  -11.3300 N   0  0  0  0  0  0  0  0  0  0  0  0
   -9.0820    5.5540  -11.4480 C   0  0  0  0  0  0  0  0  0  0  0  0
   -9.0120    4.6000  -10.3180 C   0  0  0  0  0  0  0  0  0  0  0  0
   -8.6810    5.0600   -8.9160 C   0  0  0  0  0  0  0  0  0  0  0  0
   -8.7470    3.9000   -8.1870 C   0  0  0  0  0  0  0  0  0  0  0  0
   -9.0760    2.8360   -9.0260 C   0  0  0  0  0  0  0  0  0  0  0  0
   -9.2380    3.2420  -10.3230 O   0  0  0  0  0  0  0  0  0  0  0  0
   -9.4410    5.0080  -13.0150 S   0  0  0  0  0  0  0  0  0  0  0  0
   -8.0330    5.6950  -16.2810 C   0  0  0  0  0  0  0  0  0  0  0  0
   -7.9110    5.3270  -17.5830 C   0  0  0  0  0  0  0  0  0  0  0  0
   -6.6250    5.2070  -18.0460 C   0  0  0  0  0  0  0  0  0  0  0  0
   -5.4700    5.4230  -17.3000 C   0  0  0  0  0  0  0  0  0  0  0  0
   -5.6800    5.7950  -15.9710 C   0  0  0  0  0  0  0  0  0  0  0  0
   -6.9580    5.9360  -15.4490 C   0  0  0  0  0  0  0  0  0  0  0  0
  -10.5290    7.4250  -15.0500 H   0  0  0  0  0  0  0  0  0  0  0  0
   -8.4560    6.0660   -8.5870 H   0  0  0  0  0  0  0  0  0  0  0  0
   -8.5730    3.8060   -7.1240 H   0  0  0  0  0  0  0  0  0  0  0  0
   -9.2050    1.7940   -8.7580 H   0  0  0  0  0  0  0  0  0  0  0  0
   -8.7660    5.1370  -18.2290 H   0  0  0  0  0  0  0  0  0  0  0  0
   -6.4990    4.9140  -19.0950 H   0  0  0  0  0  0  0  0  0  0  0  0
   -4.4760    5.3110  -17.7120 H   0  0  0  0  0  0  0  0  0  0  0  0
   -4.8360    5.9820  -15.3200 H   0  0  0  0  0  0  0  0  0  0  0  0
   -7.2110    6.2190  -14.4380 H   0  0  0  0  0  0  0  0  0  0  0  0
  1  2  2  0
  2  3  1  0
  3  4  1  0
  4  5  2  0
  5  6  1  0
  6  7  2  0
  7  8  1  0
  8  9  2  0
  9 10  1  0
 10 11  2  0
 11 12  1  0
  7 13  1  0
  2 14  1  0
 14 15  2  0
 15 16  1  0
 16 17  2  0
 17 18  1  0
 18 19  2  0
 13  4  1  0
 12  8  1  0
 19 14  1  0
  3 20  1  0
  9 21  1  0
 10 22  1  0
 11 23  1  0
 15 24  1  0
 16 25  1  0
 17 26  1  0
 18 27  1  0
 19 28  1  0
A    1
 O1 
A    2
 C1 
A    3
 N1 
A    4
 C2 
A    5
 N2 
A    6
 N3 
A    7
 C3 
A    8
 C4 
A    9
 C5 
A   10
 C6 
A   11
 C7 
A   12
 O2 
A   13
 S1 
A   14
 C8 
A   15
 C9 
A   16
 C10
A   17
 C11
A   18
 C12
A   19
 C13
A   20
 H1 
A   21
 H2 
A   22
 H3 
A   23
 H4 
A   24
 H5 
A   25
 H6 
A   26
 H7 
A   27
 H8 
A   28
 H9 
M  END
>  <ref_pdb>  (154) 
x0051_0B

>  <ref_mols>  (154) 
x0404_0B,x0969_0B

>  <original SMILES>  (154) 
[H]c1oc(-c2nnc(N([H])C(=O)c3c([H])c([H])c([H])c([H])c3[H])s2)c([H])c1[H]

>  <index>  (154) 
3030

>  <∆∆G>  (154) 
-5.010321

>  <comRMSD>  (154) 
0.39096

>  <N_constrained_atoms>  (154) 
19.0

>  <N_unconstrained_atoms>  (154) 
0.0

>  <LE>  (154) 
0.263701

>  <percent_hybrid>  (154) 
0.0

>  <max_hit_Tanimoto>  (154) 
0.356189

>  <largest_ring>  (154) 
6

>  <N_interactions_kept>  (154) 
0.0

>  <N_interactions_lost>  (154) 
0.0

>  <interaction_uniqueness_metric>  (154) 
0.163999

>  <N_HA>  (154) 
19

>  <N_rotatable_bonds>  (154) 
3

>  <N_interactions>  (154) 
5

>  <N_PAINS>  (154) 
0

>  <UFF_Gibbs>  (154) 
55.311064

>  <strain_per_HA>  (154) 
2.911093

>  <ad_hoc_penalty>  (154) 
-35.556032

>  <cluster>  (154) 
524

>  <merger_rank>  (154) 
4

>  <pication:ARG:29>  (154) 
0

>  <hbond:HIS:51>  (154) 
0

>  <pistack:HIS:51>  (154) 
1

>  <hydroph_interaction:TYR:161>  (154) 
0

>  <pication:HIS:51>  (154) 
0

>  <hydroph_interaction:ALA:132>  (154) 
1

>  <hydroph_interaction:TYR:150>  (154) 
0

>  <hydroph_interaction:LYS:54>  (154) 
0

>  <hbond:SER:135>  (154) 
0

>  <hydroph_interaction:HIS:51>  (154) 
1

>  <hbond:ASP:83>  (154) 
0

>  <hbond:ALA:132>  (154) 
1

>  <halogenbond:SER:81>  (154) 
0

>  <hbond:GLY:82>  (154) 
0

>  <saltbridge:HIS:51>  (154) 
0

>  <pistack:TYR:161>  (154) 
1

>  <hbond:SER:81>  (154) 
0

>  <hbond:ASN:152>  (154) 
0

>  <hbond:GLY:151>  (154) 
0

>  <hydroph_interaction:ASN:152>  (154) 
0

>  <hbond:TYR:161>  (154) 
0

>  <halogenbond:TYR:150>  (154) 
0

>  <hbond:ASP:75>  (154) 
0

>  <hbond:GLY:153>  (154) 
0

>  <hbond:VAL:36>  (154) 
0

>  <hbond:PRO:131>  (154) 
0

>  <hbond:VAL:52>  (154) 
0

>  <hydroph_interaction:ASP:83>  (154) 
0

>  <hydroph_interaction:MET:49>  (154) 
0

>  <hydroph_interaction:VAL:52>  (154) 
0

>  <saltbridge:ASP:83>  (154) 
0

>  <saltbridge:ASP:75>  (154) 
0

>  <hydroph_interaction:TRP:50>  (154) 
0

>  <hydroph_interaction:VAL:72>  (154) 
0

>  <hydroph_interaction:ASP:75>  (154) 
0

>  <halogenbond:ASN:152>  (154) 
0

>  <halogenbond:GLY:153>  (154) 
0

>  <halogenbond:TYR:130>  (154) 
0

>  <hbond:TYR:130>  (154) 
0

>  <halogenbond:ASP:75>  (154) 
0

>  <halogenbond:GLY:151>  (154) 
0

>  <hbond:TYR:150>  (154) 
0

>  <halogenbond:TYR:161>  (154) 
0

>  <hydroph_interaction:ASP:129>  (154) 
0

>  <hbond:ASP:129>  (154) 
0

>  <halogenbond:ALA:132>  (154) 
0

$$$$
Z1309625534
     RDKit          3D

 31 33  0  0  0  0  0  0  0  0999 V2000
   -9.4780    2.3620   -8.3340 C   0  0  0  0  0  0  0  0  0  0  0  0
   -9.1710    3.6200   -9.1310 C   0  0  0  0  0  0  0  0  0  0  0  0
   -9.1910    3.5300  -10.5980 C   0  0  0  0  0  0  0  0  0  0  0  0
   -8.9150    4.6570  -11.3380 C   0  0  0  0  0  0  0  0  0  0  0  0
   -8.6010    5.9450  -10.6610 C   0  0  0  0  0  0  0  0  0  0  0  0
   -8.3060    7.1130  -11.3410 O   0  0  0  0  0  0  0  0  0  0  0  0
   -9.2010    7.5430  -12.2680 C   0  0  0  0  0  0  0  0  0  0  0  0
   -9.1570    6.7810  -13.5300 C   0  0  0  0  0  0  0  0  0  0  0  0
  -10.0550    5.9070  -14.0840 N   0  0  0  0  0  0  0  0  0  0  0  0
   -9.5640    5.4640  -15.2660 C   0  0  0  0  0  0  0  0  0  0  0  0
   -8.3320    6.1050  -15.4060 C   0  0  0  0  0  0  0  0  0  0  0  0
   -7.6390    5.8110  -16.5610 C   0  0  0  0  0  0  0  0  0  0  0  0
   -8.2170    5.2880  -17.7110 C   0  0  0  0  0  0  0  0  0  0  0  0
   -7.3320    5.0920  -18.7510 C   0  0  0  0  0  0  0  0  0  0  0  0
   -6.0350    5.4590  -18.4110 C   0  0  0  0  0  0  0  0  0  0  0  0
   -5.9490    6.0440  -16.8010 S   0  0  0  0  0  0  0  0  0  0  0  0
   -8.0430    6.9320  -14.3460 O   0  0  0  0  0  0  0  0  0  0  0  0
   -8.6020    5.9590   -9.3170 N   0  0  0  0  0  0  0  0  0  0  0  0
   -8.8730    4.8400   -8.5870 C   0  0  0  0  0  0  0  0  0  0  0  0
   -9.1430    2.4560   -7.2950 H   0  0  0  0  0  0  0  0  0  0  0  0
  -10.5460    2.1470   -8.3210 H   0  0  0  0  0  0  0  0  0  0  0  0
   -8.9630    1.5070   -8.7760 H   0  0  0  0  0  0  0  0  0  0  0  0
   -9.4160    2.6080  -11.1280 H   0  0  0  0  0  0  0  0  0  0  0  0
   -8.9220    4.6230  -12.4170 H   0  0  0  0  0  0  0  0  0  0  0  0
  -10.1950    7.4760  -11.8440 H   0  0  0  0  0  0  0  0  0  0  0  0
   -9.0540    8.6120  -12.3300 H   0  0  0  0  0  0  0  0  0  0  0  0
  -10.0730    4.7650  -15.9160 H   0  0  0  0  0  0  0  0  0  0  0  0
   -9.2620    5.0390  -17.8440 H   0  0  0  0  0  0  0  0  0  0  0  0
   -7.7480    4.6900  -19.6630 H   0  0  0  0  0  0  0  0  0  0  0  0
   -5.1580    5.4020  -19.0430 H   0  0  0  0  0  0  0  0  0  0  0  0
   -8.8370    4.9800   -7.5080 H   0  0  0  0  0  0  0  0  0  0  0  0
  1  2  1  0
  2  3  2  0
  3  4  1  0
  4  5  2  0
  5  6  1  0
  6  7  1  0
  7  8  1  0
  8  9  2  0
  9 10  1  0
 10 11  2  0
 11 12  1  0
 12 13  2  0
 13 14  1  0
 14 15  2  0
 15 16  1  0
 11 17  1  0
  5 18  1  0
 18 19  2  0
 19  2  1  0
 17  8  1  0
 16 12  1  0
  1 20  1  0
  1 21  1  0
  1 22  1  0
  3 23  1  0
  4 24  1  0
  7 25  1  0
  7 26  1  0
 10 27  1  0
 13 28  1  0
 14 29  1  0
 15 30  1  0
 19 31  1  0
A    1
 C1 
A    2
 C2 
A    3
 C3 
A    4
 C4 
A    5
 C5 
A    6
 O1 
A    7
 C6 
A    8
 C7 
A    9
 N1 
A   10
 C8 
A   11
 C9 
A   12
 C10
A   13
 C11
A   14
 C12
A   15
 C13
A   16
 S1 
A   17
 O2 
A   18
 N2 
A   19
 C14
A   20
 H1 
A   21
 H2 
A   22
 H3 
A   23
 H4 
A   24
 H5 
A   25
 H6 
A   26
 H7 
A   27
 H8 
A   28
 H9 
A   29
 H10
A   30
 H11
A   31
 H12
M  END
>  <ref_pdb>  (155) 
x0051_0B

>  <ref_mols>  (155) 
x0404_0B,x0969_0B

>  <original SMILES>  (155) 
[H]c1nc(C([H])([H])Oc2nc([H])c(C([H])([H])[H])c([H])c2[H])oc1-c1sc([H])c([H])c1[H]

>  <index>  (155) 
5789

>  <∆∆G>  (155) 
-7.686967

>  <comRMSD>  (155) 
0.273176

>  <N_constrained_atoms>  (155) 
18.0

>  <N_unconstrained_atoms>  (155) 
1.0

>  <LE>  (155) 
0.404577

>  <percent_hybrid>  (155) 
0.0

>  <max_hit_Tanimoto>  (155) 
0.247331

>  <largest_ring>  (155) 
6

>  <N_interactions_kept>  (155) 
0.0

>  <N_interactions_lost>  (155) 
0.0

>  <interaction_uniqueness_metric>  (155) 
0.11017

>  <N_HA>  (155) 
19

>  <N_rotatable_bonds>  (155) 
5

>  <N_interactions>  (155) 
5

>  <N_PAINS>  (155) 
0

>  <UFF_Gibbs>  (155) 
58.454151

>  <strain_per_HA>  (155) 
3.076518

>  <ad_hoc_penalty>  (155) 
-35.53512

>  <cluster>  (155) 
889

>  <merger_rank>  (155) 
4

>  <pication:ARG:29>  (155) 
0

>  <hbond:HIS:51>  (155) 
0

>  <pistack:HIS:51>  (155) 
1

>  <hydroph_interaction:TYR:161>  (155) 
0

>  <pication:HIS:51>  (155) 
0

>  <hydroph_interaction:ALA:132>  (155) 
1

>  <hydroph_interaction:TYR:150>  (155) 
0

>  <hydroph_interaction:LYS:54>  (155) 
0

>  <hbond:SER:135>  (155) 
1

>  <hydroph_interaction:HIS:51>  (155) 
1

>  <hbond:ASP:83>  (155) 
0

>  <hbond:ALA:132>  (155) 
0

>  <halogenbond:SER:81>  (155) 
0

>  <hbond:GLY:82>  (155) 
0

>  <saltbridge:HIS:51>  (155) 
0

>  <pistack:TYR:161>  (155) 
1

>  <hbond:SER:81>  (155) 
0

>  <hbond:ASN:152>  (155) 
0

>  <hbond:GLY:151>  (155) 
0

>  <hydroph_interaction:ASN:152>  (155) 
0

>  <hbond:TYR:161>  (155) 
0

>  <halogenbond:TYR:150>  (155) 
0

>  <hbond:ASP:75>  (155) 
0

>  <hbond:GLY:153>  (155) 
0

>  <hbond:VAL:36>  (155) 
0

>  <hbond:PRO:131>  (155) 
0

>  <hbond:VAL:52>  (155) 
0

>  <hydroph_interaction:ASP:83>  (155) 
0

>  <hydroph_interaction:MET:49>  (155) 
0

>  <hydroph_interaction:VAL:52>  (155) 
0

>  <saltbridge:ASP:83>  (155) 
0

>  <saltbridge:ASP:75>  (155) 
0

>  <hydroph_interaction:TRP:50>  (155) 
0

>  <hydroph_interaction:VAL:72>  (155) 
0

>  <hydroph_interaction:ASP:75>  (155) 
0

>  <halogenbond:ASN:152>  (155) 
0

>  <halogenbond:GLY:153>  (155) 
0

>  <halogenbond:TYR:130>  (155) 
0

>  <hbond:TYR:130>  (155) 
0

>  <halogenbond:ASP:75>  (155) 
0

>  <halogenbond:GLY:151>  (155) 
0

>  <hbond:TYR:150>  (155) 
0

>  <halogenbond:TYR:161>  (155) 
0

>  <hydroph_interaction:ASP:129>  (155) 
0

>  <hbond:ASP:129>  (155) 
0

>  <halogenbond:ALA:132>  (155) 
0

$$$$
Z1185786397
     RDKit          3D

 29 30  0  0  0  0  0  0  0  0999 V2000
   -6.3350    5.2490  -18.0480 C   0  0  0  0  0  0  0  0  0  0  0  0
   -7.8470    5.1770  -17.9810 C   0  0  0  0  0  0  0  0  0  0  0  0
   -8.3590    5.5180  -16.6240 C   0  0  0  0  0  0  0  0  0  0  0  0
   -9.5450    5.1590  -16.2380 N   0  0  0  0  0  0  0  0  0  0  0  0
   -9.6080    5.6680  -14.9530 N   0  0  0  0  0  0  0  0  0  0  0  0
   -8.5030    6.3120  -14.5790 C   0  0  0  0  0  0  0  0  0  0  0  0
   -8.3690    6.9460  -13.2150 C   0  0  0  0  0  0  0  0  0  0  0  0
   -9.1510    6.4240  -12.2330 N   0  0  0  0  0  0  0  0  0  0  0  0
   -8.7480    6.3640  -10.8930 C   0  0  0  0  0  0  0  0  0  0  0  0
   -8.2240    7.4680  -10.2630 O   0  0  0  0  0  0  0  0  0  0  0  0
   -8.9090    5.1640  -10.2060 C   0  0  0  0  0  0  0  0  0  0  0  0
   -8.8340    4.9160   -8.7600 C   0  0  0  0  0  0  0  0  0  0  0  0
   -9.0670    3.5620   -8.4890 C   0  0  0  0  0  0  0  0  0  0  0  0
   -9.2700    3.0160   -9.7430 C   0  0  0  0  0  0  0  0  0  0  0  0
   -9.1820    3.9670  -10.8180 O   0  0  0  0  0  0  0  0  0  0  0  0
   -7.6280    6.2420  -15.6650 C   0  0  0  0  0  0  0  0  0  0  0  0
   -5.9550    4.7880  -18.9660 H   0  0  0  0  0  0  0  0  0  0  0  0
   -6.0110    6.2950  -18.0360 H   0  0  0  0  0  0  0  0  0  0  0  0
   -5.8730    4.7390  -17.1950 H   0  0  0  0  0  0  0  0  0  0  0  0
   -8.2490    5.8610  -18.7240 H   0  0  0  0  0  0  0  0  0  0  0  0
   -8.1930    4.1840  -18.2800 H   0  0  0  0  0  0  0  0  0  0  0  0
  -10.4050    5.5740  -14.3390 H   0  0  0  0  0  0  0  0  0  0  0  0
   -8.5990    8.0070  -13.3120 H   0  0  0  0  0  0  0  0  0  0  0  0
   -7.3280    6.8830  -12.8710 H   0  0  0  0  0  0  0  0  0  0  0  0
   -9.9790    5.9160  -12.5140 H   0  0  0  0  0  0  0  0  0  0  0  0
   -8.6280    5.6780   -8.0040 H   0  0  0  0  0  0  0  0  0  0  0  0
   -9.0950    3.0010   -7.5580 H   0  0  0  0  0  0  0  0  0  0  0  0
   -9.4770    1.9780   -9.9240 H   0  0  0  0  0  0  0  0  0  0  0  0
   -6.6300    6.6500  -15.7460 H   0  0  0  0  0  0  0  0  0  0  0  0
  1  2  1  0
  2  3  1  0
  3  4  2  0
  4  5  1  0
  5  6  1  0
  6  7  1  0
  7  8  1  0
  8  9  1  0
  9 10  2  0
  9 11  1  0
 11 12  2  0
 12 13  1  0
 13 14  2  0
 14 15  1  0
  6 16  2  0
 16  3  1  0
 15 11  1  0
  1 17  1  0
  1 18  1  0
  1 19  1  0
  2 20  1  0
  2 21  1  0
  5 22  1  0
  7 23  1  0
  7 24  1  0
  8 25  1  0
 12 26  1  0
 13 27  1  0
 14 28  1  0
 16 29  1  0
A    1
 C1 
A    2
 C2 
A    3
 C3 
A    4
 N1 
A    5
 N2 
A    6
 C4 
A    7
 C5 
A    8
 N3 
A    9
 C6 
A   10
 O1 
A   11
 C7 
A   12
 C8 
A   13
 C9 
A   14
 C10
A   15
 O2 
A   16
 C11
A   17
 H1 
A   18
 H2 
A   19
 H3 
A   20
 H4 
A   21
 H5 
A   22
 H6 
A   23
 H7 
A   24
 H8 
A   25
 H9 
A   26
 H10
A   27
 H11
A   28
 H12
A   29
 H13
M  END
>  <ref_pdb>  (156) 
x0051_0B

>  <ref_mols>  (156) 
x0404_0B,x0969_0B

>  <original SMILES>  (156) 
[H]c1oc(C(=O)N([H])C([H])([H])c2c([H])c(C([H])([H])C([H])([H])[H])nn2[H])c([H])c1[H]

>  <index>  (156) 
5118

>  <∆∆G>  (156) 
-4.30104

>  <comRMSD>  (156) 
0.244251

>  <N_constrained_atoms>  (156) 
17.0

>  <N_unconstrained_atoms>  (156) 
0.0

>  <LE>  (156) 
0.253002

>  <percent_hybrid>  (156) 
0.0

>  <max_hit_Tanimoto>  (156) 
0.439516

>  <largest_ring>  (156) 
5

>  <N_interactions_kept>  (156) 
0.0

>  <N_interactions_lost>  (156) 
0.0

>  <interaction_uniqueness_metric>  (156) 
0.149593

>  <N_HA>  (156) 
16

>  <N_rotatable_bonds>  (156) 
5

>  <N_interactions>  (156) 
7

>  <N_PAINS>  (156) 
0

>  <UFF_Gibbs>  (156) 
68.291358

>  <strain_per_HA>  (156) 
4.268183

>  <ad_hoc_penalty>  (156) 
-35.466309

>  <cluster>  (156) 
1308

>  <merger_rank>  (156) 
1

>  <pication:ARG:29>  (156) 
0

>  <hbond:HIS:51>  (156) 
1

>  <pistack:HIS:51>  (156) 
1

>  <hydroph_interaction:TYR:161>  (156) 
2

>  <pication:HIS:51>  (156) 
0

>  <hydroph_interaction:ALA:132>  (156) 
1

>  <hydroph_interaction:TYR:150>  (156) 
0

>  <hydroph_interaction:LYS:54>  (156) 
0

>  <hbond:SER:135>  (156) 
1

>  <hydroph_interaction:HIS:51>  (156) 
1

>  <hbond:ASP:83>  (156) 
0

>  <hbond:ALA:132>  (156) 
0

>  <halogenbond:SER:81>  (156) 
0

>  <hbond:GLY:82>  (156) 
0

>  <saltbridge:HIS:51>  (156) 
0

>  <pistack:TYR:161>  (156) 
0

>  <hbond:SER:81>  (156) 
0

>  <hbond:ASN:152>  (156) 
0

>  <hbond:GLY:151>  (156) 
0

>  <hydroph_interaction:ASN:152>  (156) 
0

>  <hbond:TYR:161>  (156) 
0

>  <halogenbond:TYR:150>  (156) 
0

>  <hbond:ASP:75>  (156) 
0

>  <hbond:GLY:153>  (156) 
0

>  <hbond:VAL:36>  (156) 
0

>  <hbond:PRO:131>  (156) 
0

>  <hbond:VAL:52>  (156) 
0

>  <hydroph_interaction:ASP:83>  (156) 
0

>  <hydroph_interaction:MET:49>  (156) 
0

>  <hydroph_interaction:VAL:52>  (156) 
0

>  <saltbridge:ASP:83>  (156) 
0

>  <saltbridge:ASP:75>  (156) 
0

>  <hydroph_interaction:TRP:50>  (156) 
0

>  <hydroph_interaction:VAL:72>  (156) 
0

>  <hydroph_interaction:ASP:75>  (156) 
0

>  <halogenbond:ASN:152>  (156) 
0

>  <halogenbond:GLY:153>  (156) 
0

>  <halogenbond:TYR:130>  (156) 
0

>  <hbond:TYR:130>  (156) 
0

>  <halogenbond:ASP:75>  (156) 
0

>  <halogenbond:GLY:151>  (156) 
0

>  <hbond:TYR:150>  (156) 
0

>  <halogenbond:TYR:161>  (156) 
0

>  <hydroph_interaction:ASP:129>  (156) 
0

>  <hbond:ASP:129>  (156) 
0

>  <halogenbond:ALA:132>  (156) 
0

$$$$
PV-002809798037
     RDKit          3D

 20 21  0  0  0  0  0  0  0  0999 V2000
   -9.3350    4.9490  -17.2380 C   0  0  0  0  0  0  0  0  0  0  0  0
   -8.8500    5.0670  -15.7900 C   0  0  0  0  0  0  0  0  0  0  0  0
   -7.4390    5.5410  -15.5020 C   0  0  0  0  0  0  0  0  0  0  0  0
   -7.2440    5.5610  -14.3040 O   0  0  0  0  0  0  0  0  0  0  0  0
   -8.3940    5.1370  -13.6640 C   0  0  0  0  0  0  0  0  0  0  0  0
   -8.5170    5.0310  -12.2870 C   0  0  0  0  0  0  0  0  0  0  0  0
   -8.1100    6.0320  -11.4830 N   0  0  0  0  0  0  0  0  0  0  0  0
   -8.2440    5.8800  -10.1610 C   0  0  0  0  0  0  0  0  0  0  0  0
   -8.7720    4.7620   -9.5570 C   0  0  0  0  0  0  0  0  0  0  0  0
   -9.2040    3.7100  -10.3450 C   0  0  0  0  0  0  0  0  0  0  0  0
   -9.0640    3.8740  -11.7320 C   0  0  0  0  0  0  0  0  0  0  0  0
   -9.4770    2.8760  -12.4840 F   0  0  0  0  0  0  0  0  0  0  0  0
   -9.4220    4.8250  -14.5540 N   0  0  0  0  0  0  0  0  0  0  0  0
   -9.5110    3.9120  -17.5210 H   0  0  0  0  0  0  0  0  0  0  0  0
  -10.2770    5.4860  -17.3900 H   0  0  0  0  0  0  0  0  0  0  0  0
   -8.5910    5.3540  -17.9300 H   0  0  0  0  0  0  0  0  0  0  0  0
   -6.6740    5.8300  -16.2110 H   0  0  0  0  0  0  0  0  0  0  0  0
   -7.9070    6.7010   -9.5380 H   0  0  0  0  0  0  0  0  0  0  0  0
   -8.8300    4.7500   -8.4710 H   0  0  0  0  0  0  0  0  0  0  0  0
   -9.6300    2.8050   -9.9270 H   0  0  0  0  0  0  0  0  0  0  0  0
  1  2  1  0
  2  3  2  0
  3  4  1  0
  4  5  1  0
  5  6  1  0
  6  7  2  0
  7  8  1  0
  8  9  2  0
  9 10  1  0
 10 11  2  0
 11 12  1  0
  5 13  2  0
 13  2  1  0
 11  6  1  0
  1 14  1  0
  1 15  1  0
  1 16  1  0
  3 17  1  0
  8 18  1  0
  9 19  1  0
 10 20  1  0
A    1
 C1 
A    2
 C2 
A    3
 C3 
A    4
 O1 
A    5
 C4 
A    6
 C5 
A    7
 N1 
A    8
 C6 
A    9
 C7 
A   10
 C8 
A   11
 C9 
A   12
 F1 
A   13
 N2 
A   14
 H1 
A   15
 H2 
A   16
 H3 
A   17
 H4 
A   18
 H5 
A   19
 H6 
A   20
 H7 
M  END
>  <ref_pdb>  (157) 
x0051_0B

>  <ref_mols>  (157) 
x0969_1B,x0553_0B

>  <original SMILES>  (157) 
[H]c1nc(-c2nc(C([H])([H])[H])c([H])o2)c(F)c([H])c1[H]

>  <index>  (157) 
3097

>  <∆∆G>  (157) 
-2.89087

>  <comRMSD>  (157) 
0.21532

>  <N_constrained_atoms>  (157) 
12.0

>  <N_unconstrained_atoms>  (157) 
1.0

>  <LE>  (157) 
0.222375

>  <percent_hybrid>  (157) 
0.0

>  <max_hit_Tanimoto>  (157) 
0.367217

>  <largest_ring>  (157) 
6

>  <N_interactions_kept>  (157) 
0.0

>  <N_interactions_lost>  (157) 
0.0

>  <interaction_uniqueness_metric>  (157) 
0.430266

>  <N_HA>  (157) 
13

>  <N_rotatable_bonds>  (157) 
2

>  <N_interactions>  (157) 
5

>  <N_PAINS>  (157) 
0

>  <UFF_Gibbs>  (157) 
40.261047

>  <strain_per_HA>  (157) 
3.09698

>  <ad_hoc_penalty>  (157) 
-35.44816

>  <cluster>  (157) 
2620

>  <merger_rank>  (157) 
3

>  <pication:ARG:29>  (157) 
0

>  <hbond:HIS:51>  (157) 
0

>  <pistack:HIS:51>  (157) 
1

>  <hydroph_interaction:TYR:161>  (157) 
1

>  <pication:HIS:51>  (157) 
0

>  <hydroph_interaction:ALA:132>  (157) 
0

>  <hydroph_interaction:TYR:150>  (157) 
0

>  <hydroph_interaction:LYS:54>  (157) 
0

>  <hbond:SER:135>  (157) 
0

>  <hydroph_interaction:HIS:51>  (157) 
1

>  <hbond:ASP:83>  (157) 
0

>  <hbond:ALA:132>  (157) 
0

>  <halogenbond:SER:81>  (157) 
0

>  <hbond:GLY:82>  (157) 
0

>  <saltbridge:HIS:51>  (157) 
0

>  <pistack:TYR:161>  (157) 
0

>  <hbond:SER:81>  (157) 
0

>  <hbond:ASN:152>  (157) 
0

>  <hbond:GLY:151>  (157) 
0

>  <hydroph_interaction:ASN:152>  (157) 
0

>  <hbond:TYR:161>  (157) 
1

>  <halogenbond:TYR:150>  (157) 
0

>  <hbond:ASP:75>  (157) 
0

>  <hbond:GLY:153>  (157) 
0

>  <hbond:VAL:36>  (157) 
0

>  <hbond:PRO:131>  (157) 
0

>  <hbond:VAL:52>  (157) 
0

>  <hydroph_interaction:ASP:83>  (157) 
0

>  <hydroph_interaction:MET:49>  (157) 
0

>  <hydroph_interaction:VAL:52>  (157) 
0

>  <saltbridge:ASP:83>  (157) 
0

>  <saltbridge:ASP:75>  (157) 
0

>  <hydroph_interaction:TRP:50>  (157) 
0

>  <hydroph_interaction:VAL:72>  (157) 
0

>  <hydroph_interaction:ASP:75>  (157) 
0

>  <halogenbond:ASN:152>  (157) 
0

>  <halogenbond:GLY:153>  (157) 
0

>  <halogenbond:TYR:130>  (157) 
0

>  <hbond:TYR:130>  (157) 
0

>  <halogenbond:ASP:75>  (157) 
0

>  <halogenbond:GLY:151>  (157) 
1

>  <hbond:TYR:150>  (157) 
0

>  <halogenbond:TYR:161>  (157) 
0

>  <hydroph_interaction:ASP:129>  (157) 
0

>  <hbond:ASP:129>  (157) 
0

>  <halogenbond:ALA:132>  (157) 
0

$$$$
Z4918759356
     RDKit          3D

 25 27  0  0  0  0  0  0  0  0999 V2000
   -9.7790    3.3050   -8.7180 N   0  0  0  0  0  0  0  0  0  0  0  0
   -9.2740    3.7830   -9.9320 C   0  0  0  0  0  0  0  0  0  0  0  0
   -8.5800    4.9840   -9.9580 C   0  0  0  0  0  0  0  0  0  0  0  0
   -8.0560    5.3870  -11.3090 C   0  0  0  0  0  0  0  0  0  0  0  0
   -8.3260    4.4840  -12.4600 C   0  0  0  0  0  0  0  0  0  0  0  0
   -7.7290    4.8530  -13.8300 C   0  0  0  0  0  0  0  0  0  0  0  0
   -6.3360    4.9700  -13.8770 C   0  0  0  0  0  0  0  0  0  0  0  0
   -5.6890    5.2660  -15.0530 C   0  0  0  0  0  0  0  0  0  0  0  0
   -6.2950    5.4580  -16.2220 N   0  0  0  0  0  0  0  0  0  0  0  0
   -7.6210    5.3370  -16.1310 C   0  0  0  0  0  0  0  0  0  0  0  0
   -8.4490    5.0620  -15.0570 C   0  0  0  0  0  0  0  0  0  0  0  0
   -9.7760    5.0370  -15.3720 C   0  0  0  0  0  0  0  0  0  0  0  0
   -9.7860    5.2960  -16.7770 C   0  0  0  0  0  0  0  0  0  0  0  0
   -8.4750    5.4710  -17.1880 N   0  0  0  0  0  0  0  0  0  0  0  0
   -9.0310    3.3680  -12.2910 N   0  0  0  0  0  0  0  0  0  0  0  0
   -9.4900    3.0320  -11.0340 N   0  0  0  0  0  0  0  0  0  0  0  0
  -10.1640    3.9350   -8.0430 H   0  0  0  0  0  0  0  0  0  0  0  0
  -10.4390    2.5480   -8.8830 H   0  0  0  0  0  0  0  0  0  0  0  0
   -8.4130    5.5880   -9.0730 H   0  0  0  0  0  0  0  0  0  0  0  0
   -7.4880    6.3030  -11.4250 H   0  0  0  0  0  0  0  0  0  0  0  0
   -5.7410    4.8220  -12.9810 H   0  0  0  0  0  0  0  0  0  0  0  0
   -4.6060    5.3540  -15.0760 H   0  0  0  0  0  0  0  0  0  0  0  0
  -10.6250    4.8530  -14.7200 H   0  0  0  0  0  0  0  0  0  0  0  0
  -10.5950    5.3670  -17.4890 H   0  0  0  0  0  0  0  0  0  0  0  0
   -8.1640    5.6720  -18.1290 H   0  0  0  0  0  0  0  0  0  0  0  0
  1  2  1  0
  2  3  2  0
  3  4  1  0
  4  5  2  0
  5  6  1  0
  6  7  2  0
  7  8  1  0
  8  9  2  0
  9 10  1  0
 10 11  2  0
 11 12  1  0
 12 13  2  0
 13 14  1  0
  5 15  1  0
 15 16  2  0
 16  2  1  0
 11  6  1  0
 14 10  1  0
  1 17  1  0
  1 18  1  0
  3 19  1  0
  4 20  1  0
  7 21  1  0
  8 22  1  0
 12 23  1  0
 13 24  1  0
 14 25  1  0
A    1
 N1 
A    2
 C1 
A    3
 C2 
A    4
 C3 
A    5
 C4 
A    6
 C5 
A    7
 C6 
A    8
 C7 
A    9
 N2 
A   10
 C8 
A   11
 C9 
A   12
 C10
A   13
 C11
A   14
 N3 
A   15
 N4 
A   16
 N5 
A   17
 H1 
A   18
 H2 
A   19
 H3 
A   20
 H4 
A   21
 H5 
A   22
 H6 
A   23
 H7 
A   24
 H8 
A   25
 H9 
M  END
>  <ref_pdb>  (158) 
x0051_0B

>  <ref_mols>  (158) 
x0969_1B,x0553_0B

>  <original SMILES>  (158) 
[H]c1nc2c(c([H])c([H])n2[H])c(-c2nnc(N([H])[H])c([H])c2[H])c1[H]

>  <index>  (158) 
341

>  <∆∆G>  (158) 
-1.919758

>  <comRMSD>  (158) 
0.378702

>  <N_constrained_atoms>  (158) 
15.0

>  <N_unconstrained_atoms>  (158) 
1.0

>  <LE>  (158) 
0.119985

>  <percent_hybrid>  (158) 
0.0

>  <max_hit_Tanimoto>  (158) 
0.300294

>  <largest_ring>  (158) 
6

>  <N_interactions_kept>  (158) 
0.0

>  <N_interactions_lost>  (158) 
0.0

>  <interaction_uniqueness_metric>  (158) 
0.307123

>  <N_HA>  (158) 
16

>  <N_rotatable_bonds>  (158) 
2

>  <N_interactions>  (158) 
6

>  <N_PAINS>  (158) 
0

>  <UFF_Gibbs>  (158) 
52.247174

>  <strain_per_HA>  (158) 
3.265428

>  <ad_hoc_penalty>  (158) 
-35.436596

>  <cluster>  (158) 
668

>  <merger_rank>  (158) 
4

>  <pication:ARG:29>  (158) 
0

>  <hbond:HIS:51>  (158) 
1

>  <pistack:HIS:51>  (158) 
0

>  <hydroph_interaction:TYR:161>  (158) 
0

>  <pication:HIS:51>  (158) 
1

>  <hydroph_interaction:ALA:132>  (158) 
0

>  <hydroph_interaction:TYR:150>  (158) 
0

>  <hydroph_interaction:LYS:54>  (158) 
0

>  <hbond:SER:135>  (158) 
0

>  <hydroph_interaction:HIS:51>  (158) 
1

>  <hbond:ASP:83>  (158) 
0

>  <hbond:ALA:132>  (158) 
0

>  <halogenbond:SER:81>  (158) 
0

>  <hbond:GLY:82>  (158) 
0

>  <saltbridge:HIS:51>  (158) 
0

>  <pistack:TYR:161>  (158) 
1

>  <hbond:SER:81>  (158) 
0

>  <hbond:ASN:152>  (158) 
0

>  <hbond:GLY:151>  (158) 
0

>  <hydroph_interaction:ASN:152>  (158) 
0

>  <hbond:TYR:161>  (158) 
1

>  <halogenbond:TYR:150>  (158) 
0

>  <hbond:ASP:75>  (158) 
1

>  <hbond:GLY:153>  (158) 
0

>  <hbond:VAL:36>  (158) 
0

>  <hbond:PRO:131>  (158) 
0

>  <hbond:VAL:52>  (158) 
0

>  <hydroph_interaction:ASP:83>  (158) 
0

>  <hydroph_interaction:MET:49>  (158) 
0

>  <hydroph_interaction:VAL:52>  (158) 
0

>  <saltbridge:ASP:83>  (158) 
0

>  <saltbridge:ASP:75>  (158) 
0

>  <hydroph_interaction:TRP:50>  (158) 
0

>  <hydroph_interaction:VAL:72>  (158) 
0

>  <hydroph_interaction:ASP:75>  (158) 
0

>  <halogenbond:ASN:152>  (158) 
0

>  <halogenbond:GLY:153>  (158) 
0

>  <halogenbond:TYR:130>  (158) 
0

>  <hbond:TYR:130>  (158) 
0

>  <halogenbond:ASP:75>  (158) 
0

>  <halogenbond:GLY:151>  (158) 
0

>  <hbond:TYR:150>  (158) 
0

>  <halogenbond:TYR:161>  (158) 
0

>  <hydroph_interaction:ASP:129>  (158) 
0

>  <hbond:ASP:129>  (158) 
0

>  <halogenbond:ALA:132>  (158) 
0

$$$$
Z1541777957
     RDKit          3D

 28 31  0  0  0  0  0  0  0  0999 V2000
  -10.3610    4.8860  -14.6480 O   0  0  0  0  0  0  0  0  0  0  0  0
   -9.3300    5.0560  -14.0330 C   0  0  0  0  0  0  0  0  0  0  0  0
   -9.1020    4.6270  -12.6820 N   0  0  0  0  0  0  0  0  0  0  0  0
   -8.3040    5.5940  -11.9050 C   0  0  0  0  0  0  0  0  0  0  0  0
   -8.5440    5.4330  -10.4480 C   0  0  0  0  0  0  0  0  0  0  0  0
   -8.5060    6.3150   -9.3730 C   0  0  0  0  0  0  0  0  0  0  0  0
   -8.8220    5.5860   -8.1960 C   0  0  0  0  0  0  0  0  0  0  0  0
   -9.0360    4.3120   -8.6190 C   0  0  0  0  0  0  0  0  0  0  0  0
   -8.8700    4.2390   -9.9370 N   0  0  0  0  0  0  0  0  0  0  0  0
   -7.4200    6.5070  -12.5650 N   0  0  0  0  0  0  0  0  0  0  0  0
   -7.3510    6.3940  -13.9250 C   0  0  0  0  0  0  0  0  0  0  0  0
   -8.2320    5.7080  -14.6570 C   0  0  0  0  0  0  0  0  0  0  0  0
   -7.9920    5.6790  -16.0100 C   0  0  0  0  0  0  0  0  0  0  0  0
   -8.8270    4.9910  -16.8860 C   0  0  0  0  0  0  0  0  0  0  0  0
   -8.6130    4.9350  -18.2420 C   0  0  0  0  0  0  0  0  0  0  0  0
   -7.4490    5.6450  -18.7200 C   0  0  0  0  0  0  0  0  0  0  0  0
   -6.6310    6.3320  -17.7920 C   0  0  0  0  0  0  0  0  0  0  0  0
   -6.9150    6.3430  -16.4170 C   0  0  0  0  0  0  0  0  0  0  0  0
   -6.1550    7.0550  -15.0120 S   0  0  0  0  0  0  0  0  0  0  0  0
   -9.8470    4.1290  -12.2110 H   0  0  0  0  0  0  0  0  0  0  0  0
   -8.2730    7.3700   -9.4370 H   0  0  0  0  0  0  0  0  0  0  0  0
   -8.8860    5.9440   -7.1760 H   0  0  0  0  0  0  0  0  0  0  0  0
   -9.2980    3.5030   -7.9450 H   0  0  0  0  0  0  0  0  0  0  0  0
   -8.9790    3.3840  -10.4620 H   0  0  0  0  0  0  0  0  0  0  0  0
   -9.6900    4.4700  -16.4890 H   0  0  0  0  0  0  0  0  0  0  0  0
   -9.2790    4.3880  -18.9100 H   0  0  0  0  0  0  0  0  0  0  0  0
   -7.2050    5.6520  -19.7810 H   0  0  0  0  0  0  0  0  0  0  0  0
   -5.7600    6.8650  -18.1570 H   0  0  0  0  0  0  0  0  0  0  0  0
  1  2  2  0
  2  3  1  0
  3  4  1  0
  4  5  1  0
  5  6  2  0
  6  7  1  0
  7  8  2  0
  8  9  1  0
  4 10  2  0
 10 11  1  0
 11 12  2  0
 12 13  1  0
 13 14  2  0
 14 15  1  0
 15 16  2  0
 16 17  1  0
 17 18  2  0
 18 19  1  0
 12  2  1  0
  9  5  1  0
 19 11  1  0
 18 13  1  0
  3 20  1  0
  6 21  1  0
  7 22  1  0
  8 23  1  0
  9 24  1  0
 14 25  1  0
 15 26  1  0
 16 27  1  0
 17 28  1  0
A    1
 O1 
A    2
 C1 
A    3
 N1 
A    4
 C2 
A    5
 C3 
A    6
 C4 
A    7
 C5 
A    8
 C6 
A    9
 N2 
A   10
 N3 
A   11
 C7 
A   12
 C8 
A   13
 C9 
A   14
 C10
A   15
 C11
A   16
 C12
A   17
 C13
A   18
 C14
A   19
 S1 
A   20
 H1 
A   21
 H2 
A   22
 H3 
A   23
 H4 
A   24
 H5 
A   25
 H6 
A   26
 H7 
A   27
 H8 
A   28
 H9 
M  END
>  <ref_pdb>  (159) 
x0051_0B

>  <ref_mols>  (159) 
x0404_0B,x0969_0B

>  <original SMILES>  (159) 
[H]c1c([H])c([H])c2c(sc3nc(-c4c([H])c([H])c([H])n4[H])n([H])c(=O)c32)c1[H]

>  <index>  (159) 
3781

>  <∆∆G>  (159) 
-4.304129

>  <comRMSD>  (159) 
0.581273

>  <N_constrained_atoms>  (159) 
18.0

>  <N_unconstrained_atoms>  (159) 
1.0

>  <LE>  (159) 
0.226533

>  <percent_hybrid>  (159) 
0.0

>  <max_hit_Tanimoto>  (159) 
0.369853

>  <largest_ring>  (159) 
6

>  <N_interactions_kept>  (159) 
0.0

>  <N_interactions_lost>  (159) 
0.0

>  <interaction_uniqueness_metric>  (159) 
0.084821

>  <N_HA>  (159) 
19

>  <N_rotatable_bonds>  (159) 
1

>  <N_interactions>  (159) 
5

>  <N_PAINS>  (159) 
0

>  <UFF_Gibbs>  (159) 
88.724065

>  <strain_per_HA>  (159) 
4.669663

>  <ad_hoc_penalty>  (159) 
-35.408987

>  <cluster>  (159) 
2220

>  <merger_rank>  (159) 
3

>  <pication:ARG:29>  (159) 
0

>  <hbond:HIS:51>  (159) 
0

>  <pistack:HIS:51>  (159) 
1

>  <hydroph_interaction:TYR:161>  (159) 
2

>  <pication:HIS:51>  (159) 
0

>  <hydroph_interaction:ALA:132>  (159) 
0

>  <hydroph_interaction:TYR:150>  (159) 
0

>  <hydroph_interaction:LYS:54>  (159) 
0

>  <hbond:SER:135>  (159) 
1

>  <hydroph_interaction:HIS:51>  (159) 
1

>  <hbond:ASP:83>  (159) 
0

>  <hbond:ALA:132>  (159) 
0

>  <halogenbond:SER:81>  (159) 
0

>  <hbond:GLY:82>  (159) 
0

>  <saltbridge:HIS:51>  (159) 
0

>  <pistack:TYR:161>  (159) 
0

>  <hbond:SER:81>  (159) 
0

>  <hbond:ASN:152>  (159) 
0

>  <hbond:GLY:151>  (159) 
0

>  <hydroph_interaction:ASN:152>  (159) 
0

>  <hbond:TYR:161>  (159) 
0

>  <halogenbond:TYR:150>  (159) 
0

>  <hbond:ASP:75>  (159) 
0

>  <hbond:GLY:153>  (159) 
0

>  <hbond:VAL:36>  (159) 
0

>  <hbond:PRO:131>  (159) 
0

>  <hbond:VAL:52>  (159) 
0

>  <hydroph_interaction:ASP:83>  (159) 
0

>  <hydroph_interaction:MET:49>  (159) 
0

>  <hydroph_interaction:VAL:52>  (159) 
0

>  <saltbridge:ASP:83>  (159) 
0

>  <saltbridge:ASP:75>  (159) 
0

>  <hydroph_interaction:TRP:50>  (159) 
0

>  <hydroph_interaction:VAL:72>  (159) 
0

>  <hydroph_interaction:ASP:75>  (159) 
0

>  <halogenbond:ASN:152>  (159) 
0

>  <halogenbond:GLY:153>  (159) 
0

>  <halogenbond:TYR:130>  (159) 
0

>  <hbond:TYR:130>  (159) 
0

>  <halogenbond:ASP:75>  (159) 
0

>  <halogenbond:GLY:151>  (159) 
0

>  <hbond:TYR:150>  (159) 
0

>  <halogenbond:TYR:161>  (159) 
0

>  <hydroph_interaction:ASP:129>  (159) 
0

>  <hbond:ASP:129>  (159) 
0

>  <halogenbond:ALA:132>  (159) 
0

$$$$
Z2001041419
     RDKit          3D

 27 29  0  0  0  0  0  0  0  0999 V2000
   -9.2020    4.6570  -19.6870 Br  0  0  0  0  0  0  0  0  0  0  0  0
   -8.0180    5.0300  -18.3400 C   0  0  0  0  0  0  0  0  0  0  0  0
   -6.5440    5.0640  -18.6580 C   0  0  0  0  0  0  0  0  0  0  0  0
   -5.6260    5.3710  -17.5390 C   0  0  0  0  0  0  0  0  0  0  0  0
   -6.2740    5.5990  -16.3010 C   0  0  0  0  0  0  0  0  0  0  0  0
   -7.6230    5.5470  -16.1160 C   0  0  0  0  0  0  0  0  0  0  0  0
   -7.9990    5.8350  -14.7520 C   0  0  0  0  0  0  0  0  0  0  0  0
   -9.1780    6.4250  -14.3490 C   0  0  0  0  0  0  0  0  0  0  0  0
   -9.1540    6.5490  -12.9540 C   0  0  0  0  0  0  0  0  0  0  0  0
   -9.1240    5.4560  -12.2380 N   0  0  0  0  0  0  0  0  0  0  0  0
   -9.1040    5.7590  -10.9510 C   0  0  0  0  0  0  0  0  0  0  0  0
   -9.0930    4.7050  -10.0440 C   0  0  0  0  0  0  0  0  0  0  0  0
   -8.8850    5.1810   -8.7640 N   0  0  0  0  0  0  0  0  0  0  0  0
   -8.9040    4.1140   -7.8820 C   0  0  0  0  0  0  0  0  0  0  0  0
   -9.1140    2.9360   -8.5050 C   0  0  0  0  0  0  0  0  0  0  0  0
   -9.3000    2.9640  -10.1920 S   0  0  0  0  0  0  0  0  0  0  0  0
   -9.1130    7.1330  -10.8220 N   0  0  0  0  0  0  0  0  0  0  0  0
   -9.1520    7.5530  -12.1980 O   0  0  0  0  0  0  0  0  0  0  0  0
   -8.5090    5.2650  -17.1010 C   0  0  0  0  0  0  0  0  0  0  0  0
   -6.1880    4.8710  -19.6610 H   0  0  0  0  0  0  0  0  0  0  0  0
   -4.5430    5.4220  -17.6380 H   0  0  0  0  0  0  0  0  0  0  0  0
   -5.6230    5.8290  -15.4670 H   0  0  0  0  0  0  0  0  0  0  0  0
   -7.2830    5.5690  -13.9770 H   0  0  0  0  0  0  0  0  0  0  0  0
   -9.9900    6.7470  -15.0000 H   0  0  0  0  0  0  0  0  0  0  0  0
   -8.7610    4.2660   -6.8150 H   0  0  0  0  0  0  0  0  0  0  0  0
   -9.1610    1.9930   -7.9710 H   0  0  0  0  0  0  0  0  0  0  0  0
   -9.5720    5.2330  -16.9040 H   0  0  0  0  0  0  0  0  0  0  0  0
  1  2  1  0
  2  3  2  0
  3  4  1  0
  4  5  2  0
  5  6  1  0
  6  7  1  0
  7  8  2  3
  8  9  1  0
  9 10  2  0
 10 11  1  0
 11 12  1  0
 12 13  2  0
 13 14  1  0
 14 15  2  0
 15 16  1  0
 11 17  2  0
 17 18  1  0
  6 19  2  0
 19  2  1  0
 18  9  1  0
 16 12  1  0
  3 20  1  0
  4 21  1  0
  5 22  1  0
  7 23  1  0
  8 24  1  0
 14 25  1  0
 15 26  1  0
 19 27  1  0
A    1
BR1 
A    2
 C1 
A    3
 C2 
A    4
 C3 
A    5
 C4 
A    6
 C5 
A    7
 C6 
A    8
 C7 
A    9
 C8 
A   10
 N1 
A   11
 C9 
A   12
 C10
A   13
 N2 
A   14
 C11
A   15
 C12
A   16
 S1 
A   17
 N3 
A   18
 O1 
A   19
 C13
A   20
 H1 
A   21
 H2 
A   22
 H3 
A   23
 H4 
A   24
 H5 
A   25
 H6 
A   26
 H7 
A   27
 H8 
M  END
>  <ref_pdb>  (160) 
x0051_0B

>  <ref_mols>  (160) 
x0404_0B,x0969_0B

>  <original SMILES>  (160) 
[H]C(=C([H])c1c([H])c([H])c([H])c(Br)c1[H])c1nc(-c2nc([H])c([H])s2)no1

>  <index>  (160) 
5647

>  <∆∆G>  (160) 
-5.921547

>  <comRMSD>  (160) 
0.357415

>  <N_constrained_atoms>  (160) 
18.0

>  <N_unconstrained_atoms>  (160) 
1.0

>  <LE>  (160) 
0.31166

>  <percent_hybrid>  (160) 
0.0

>  <max_hit_Tanimoto>  (160) 
0.294421

>  <largest_ring>  (160) 
6

>  <N_interactions_kept>  (160) 
0.0

>  <N_interactions_lost>  (160) 
0.0

>  <interaction_uniqueness_metric>  (160) 
0.1702

>  <N_HA>  (160) 
19

>  <N_rotatable_bonds>  (160) 
3

>  <N_interactions>  (160) 
5

>  <N_PAINS>  (160) 
0

>  <UFF_Gibbs>  (160) 
98.851137

>  <strain_per_HA>  (160) 
5.202664

>  <ad_hoc_penalty>  (160) 
-35.360404

>  <cluster>  (160) 
47

>  <merger_rank>  (160) 
2

>  <pication:ARG:29>  (160) 
0

>  <hbond:HIS:51>  (160) 
0

>  <pistack:HIS:51>  (160) 
1

>  <hydroph_interaction:TYR:161>  (160) 
1

>  <pication:HIS:51>  (160) 
0

>  <hydroph_interaction:ALA:132>  (160) 
1

>  <hydroph_interaction:TYR:150>  (160) 
0

>  <hydroph_interaction:LYS:54>  (160) 
0

>  <hbond:SER:135>  (160) 
0

>  <hydroph_interaction:HIS:51>  (160) 
0

>  <hbond:ASP:83>  (160) 
0

>  <hbond:ALA:132>  (160) 
0

>  <halogenbond:SER:81>  (160) 
0

>  <hbond:GLY:82>  (160) 
0

>  <saltbridge:HIS:51>  (160) 
0

>  <pistack:TYR:161>  (160) 
1

>  <hbond:SER:81>  (160) 
0

>  <hbond:ASN:152>  (160) 
0

>  <hbond:GLY:151>  (160) 
0

>  <hydroph_interaction:ASN:152>  (160) 
0

>  <hbond:TYR:161>  (160) 
0

>  <halogenbond:TYR:150>  (160) 
1

>  <hbond:ASP:75>  (160) 
0

>  <hbond:GLY:153>  (160) 
0

>  <hbond:VAL:36>  (160) 
0

>  <hbond:PRO:131>  (160) 
0

>  <hbond:VAL:52>  (160) 
0

>  <hydroph_interaction:ASP:83>  (160) 
0

>  <hydroph_interaction:MET:49>  (160) 
0

>  <hydroph_interaction:VAL:52>  (160) 
0

>  <saltbridge:ASP:83>  (160) 
0

>  <saltbridge:ASP:75>  (160) 
0

>  <hydroph_interaction:TRP:50>  (160) 
0

>  <hydroph_interaction:VAL:72>  (160) 
0

>  <hydroph_interaction:ASP:75>  (160) 
0

>  <halogenbond:ASN:152>  (160) 
0

>  <halogenbond:GLY:153>  (160) 
0

>  <halogenbond:TYR:130>  (160) 
0

>  <hbond:TYR:130>  (160) 
0

>  <halogenbond:ASP:75>  (160) 
0

>  <halogenbond:GLY:151>  (160) 
0

>  <hbond:TYR:150>  (160) 
0

>  <halogenbond:TYR:161>  (160) 
0

>  <hydroph_interaction:ASP:129>  (160) 
0

>  <hbond:ASP:129>  (160) 
0

>  <halogenbond:ALA:132>  (160) 
0

$$$$
Z666676036
     RDKit          3D

 27 30  0  0  0  0  0  0  0  0999 V2000
  -10.3710    4.8210  -14.6010 O   0  0  0  0  0  0  0  0  0  0  0  0
   -9.3510    5.0510  -13.9890 C   0  0  0  0  0  0  0  0  0  0  0  0
   -9.0830    4.7800  -12.6930 N   0  0  0  0  0  0  0  0  0  0  0  0
   -8.2760    5.6210  -12.0110 C   0  0  0  0  0  0  0  0  0  0  0  0
   -8.5280    5.4120  -10.5690 C   0  0  0  0  0  0  0  0  0  0  0  0
   -8.4610    6.1970   -9.3400 C   0  0  0  0  0  0  0  0  0  0  0  0
   -8.7880    5.5720   -8.1660 C   0  0  0  0  0  0  0  0  0  0  0  0
   -9.1570    4.1780   -8.4200 C   0  0  0  0  0  0  0  0  0  0  0  0
   -9.0490    3.8240  -10.1020 S   0  0  0  0  0  0  0  0  0  0  0  0
   -7.3930    6.4700  -12.5330 N   0  0  0  0  0  0  0  0  0  0  0  0
   -7.3430    6.3650  -13.8970 C   0  0  0  0  0  0  0  0  0  0  0  0
   -8.2560    5.6800  -14.6400 C   0  0  0  0  0  0  0  0  0  0  0  0
   -7.9860    5.6750  -15.9910 C   0  0  0  0  0  0  0  0  0  0  0  0
   -8.8190    5.0090  -16.8370 C   0  0  0  0  0  0  0  0  0  0  0  0
   -8.6140    4.9380  -18.2690 C   0  0  0  0  0  0  0  0  0  0  0  0
   -7.4190    5.6450  -18.8290 C   0  0  0  0  0  0  0  0  0  0  0  0
   -6.5980    6.3190  -17.8970 C   0  0  0  0  0  0  0  0  0  0  0  0
   -6.8820    6.3480  -16.3640 C   0  0  0  0  0  0  0  0  0  0  0  0
   -6.1230    7.0390  -14.9590 S   0  0  0  0  0  0  0  0  0  0  0  0
   -9.7330    4.2460  -12.1400 H   0  0  0  0  0  0  0  0  0  0  0  0
   -8.1630    7.2370   -9.3350 H   0  0  0  0  0  0  0  0  0  0  0  0
   -8.7750    6.0420   -7.1920 H   0  0  0  0  0  0  0  0  0  0  0  0
   -9.4630    3.4110   -7.7210 H   0  0  0  0  0  0  0  0  0  0  0  0
   -9.6860    4.4970  -16.4230 H   0  0  0  0  0  0  0  0  0  0  0  0
   -9.3040    4.3940  -18.9080 H   0  0  0  0  0  0  0  0  0  0  0  0
   -7.1940    5.6410  -19.9010 H   0  0  0  0  0  0  0  0  0  0  0  0
   -5.7160    6.8470  -18.2680 H   0  0  0  0  0  0  0  0  0  0  0  0
  1  2  2  0
  2  3  1  0
  3  4  1  0
  4  5  1  0
  5  6  2  0
  6  7  1  0
  7  8  2  0
  8  9  1  0
  4 10  2  0
 10 11  1  0
 11 12  2  0
 12 13  1  0
 13 14  2  0
 14 15  1  0
 15 16  2  0
 16 17  1  0
 17 18  2  0
 18 19  1  0
 12  2  1  0
  9  5  1  0
 19 11  1  0
 18 13  1  0
  3 20  1  0
  6 21  1  0
  7 22  1  0
  8 23  1  0
 14 24  1  0
 15 25  1  0
 16 26  1  0
 17 27  1  0
A    1
 O1 
A    2
 C1 
A    3
 N1 
A    4
 C2 
A    5
 C3 
A    6
 C4 
A    7
 C5 
A    8
 C6 
A    9
 S1 
A   10
 N2 
A   11
 C7 
A   12
 C8 
A   13
 C9 
A   14
 C10
A   15
 C11
A   16
 C12
A   17
 C13
A   18
 C14
A   19
 S2 
A   20
 H1 
A   21
 H2 
A   22
 H3 
A   23
 H4 
A   24
 H5 
A   25
 H6 
A   26
 H7 
A   27
 H8 
M  END
>  <ref_pdb>  (161) 
x0051_0B

>  <ref_mols>  (161) 
x0404_0B,x0969_0B

>  <original SMILES>  (161) 
[H]c1sc(-c2nc3sc4c([H])c([H])c([H])c([H])c4c3c(=O)n2[H])c([H])c1[H]

>  <index>  (161) 
3798

>  <∆∆G>  (161) 
-5.023743

>  <comRMSD>  (161) 
0.584843

>  <N_constrained_atoms>  (161) 
18.0

>  <N_unconstrained_atoms>  (161) 
1.0

>  <LE>  (161) 
0.264408

>  <percent_hybrid>  (161) 
0.0

>  <max_hit_Tanimoto>  (161) 
0.329545

>  <largest_ring>  (161) 
6

>  <N_interactions_kept>  (161) 
0.0

>  <N_interactions_lost>  (161) 
0.0

>  <interaction_uniqueness_metric>  (161) 
0.084821

>  <N_HA>  (161) 
19

>  <N_rotatable_bonds>  (161) 
1

>  <N_interactions>  (161) 
5

>  <N_PAINS>  (161) 
0

>  <UFF_Gibbs>  (161) 
133.236465

>  <strain_per_HA>  (161) 
7.012409

>  <ad_hoc_penalty>  (161) 
-35.184777

>  <cluster>  (161) 
2206

>  <merger_rank>  (161) 
4

>  <pication:ARG:29>  (161) 
0

>  <hbond:HIS:51>  (161) 
0

>  <pistack:HIS:51>  (161) 
1

>  <hydroph_interaction:TYR:161>  (161) 
2

>  <pication:HIS:51>  (161) 
0

>  <hydroph_interaction:ALA:132>  (161) 
0

>  <hydroph_interaction:TYR:150>  (161) 
0

>  <hydroph_interaction:LYS:54>  (161) 
0

>  <hbond:SER:135>  (161) 
1

>  <hydroph_interaction:HIS:51>  (161) 
1

>  <hbond:ASP:83>  (161) 
0

>  <hbond:ALA:132>  (161) 
0

>  <halogenbond:SER:81>  (161) 
0

>  <hbond:GLY:82>  (161) 
0

>  <saltbridge:HIS:51>  (161) 
0

>  <pistack:TYR:161>  (161) 
0

>  <hbond:SER:81>  (161) 
0

>  <hbond:ASN:152>  (161) 
0

>  <hbond:GLY:151>  (161) 
0

>  <hydroph_interaction:ASN:152>  (161) 
0

>  <hbond:TYR:161>  (161) 
0

>  <halogenbond:TYR:150>  (161) 
0

>  <hbond:ASP:75>  (161) 
0

>  <hbond:GLY:153>  (161) 
0

>  <hbond:VAL:36>  (161) 
0

>  <hbond:PRO:131>  (161) 
0

>  <hbond:VAL:52>  (161) 
0

>  <hydroph_interaction:ASP:83>  (161) 
0

>  <hydroph_interaction:MET:49>  (161) 
0

>  <hydroph_interaction:VAL:52>  (161) 
0

>  <saltbridge:ASP:83>  (161) 
0

>  <saltbridge:ASP:75>  (161) 
0

>  <hydroph_interaction:TRP:50>  (161) 
0

>  <hydroph_interaction:VAL:72>  (161) 
0

>  <hydroph_interaction:ASP:75>  (161) 
0

>  <halogenbond:ASN:152>  (161) 
0

>  <halogenbond:GLY:153>  (161) 
0

>  <halogenbond:TYR:130>  (161) 
0

>  <hbond:TYR:130>  (161) 
0

>  <halogenbond:ASP:75>  (161) 
0

>  <halogenbond:GLY:151>  (161) 
0

>  <hbond:TYR:150>  (161) 
0

>  <halogenbond:TYR:161>  (161) 
0

>  <hydroph_interaction:ASP:129>  (161) 
0

>  <hbond:ASP:129>  (161) 
0

>  <halogenbond:ALA:132>  (161) 
0

$$$$
Z1231394730
     RDKit          3D

 21 22  0  0  0  0  0  0  0  0999 V2000
   -9.0730    6.8200  -12.6900 O   0  0  0  0  0  0  0  0  0  0  0  0
   -8.6430    5.6690  -12.6120 C   0  0  0  0  0  0  0  0  0  0  0  0
   -7.9090    5.0640  -13.6830 N   0  0  0  0  0  0  0  0  0  0  0  0
   -8.2290    5.0140  -15.0470 C   0  0  0  0  0  0  0  0  0  0  0  0
   -7.2700    5.0390  -16.1740 C   0  0  0  0  0  0  0  0  0  0  0  0
   -7.8650    4.9530  -17.4620 C   0  0  0  0  0  0  0  0  0  0  0  0
   -9.3370    4.8480  -17.6340 C   0  0  0  0  0  0  0  0  0  0  0  0
  -10.0930    4.8430  -16.5280 N   0  0  0  0  0  0  0  0  0  0  0  0
   -9.5660    4.9270  -15.2510 N   0  0  0  0  0  0  0  0  0  0  0  0
   -8.8320    4.8450  -11.4110 C   0  0  0  0  0  0  0  0  0  0  0  0
   -8.9000    5.1770  -10.0600 C   0  0  0  0  0  0  0  0  0  0  0  0
   -9.0920    3.9650   -9.3960 C   0  0  0  0  0  0  0  0  0  0  0  0
   -9.1310    2.9920  -10.3260 C   0  0  0  0  0  0  0  0  0  0  0  0
   -8.9660    3.5940  -11.5490 O   0  0  0  0  0  0  0  0  0  0  0  0
   -7.0720    4.5300  -13.4940 H   0  0  0  0  0  0  0  0  0  0  0  0
   -6.1890    5.1110  -16.0530 H   0  0  0  0  0  0  0  0  0  0  0  0
   -7.1370    4.9700  -18.2800 H   0  0  0  0  0  0  0  0  0  0  0  0
   -9.8470    4.7780  -18.5900 H   0  0  0  0  0  0  0  0  0  0  0  0
   -8.8180    6.1690   -9.6380 H   0  0  0  0  0  0  0  0  0  0  0  0
   -9.1910    3.8140   -8.3300 H   0  0  0  0  0  0  0  0  0  0  0  0
   -9.2540    1.9230  -10.3110 H   0  0  0  0  0  0  0  0  0  0  0  0
  1  2  2  0
  2  3  1  0
  3  4  1  0
  4  5  2  0
  5  6  1  0
  6  7  2  0
  7  8  1  0
  8  9  2  0
  2 10  1  0
 10 11  2  0
 11 12  1  0
 12 13  2  0
 13 14  1  0
  9  4  1  0
 14 10  1  0
  3 15  1  0
  5 16  1  0
  6 17  1  0
  7 18  1  0
 11 19  1  0
 12 20  1  0
 13 21  1  0
A    1
 O1 
A    2
 C1 
A    3
 N1 
A    4
 C2 
A    5
 C3 
A    6
 C4 
A    7
 C5 
A    8
 N2 
A    9
 N3 
A   10
 C6 
A   11
 C7 
A   12
 C8 
A   13
 C9 
A   14
 O2 
A   15
 H1 
A   16
 H2 
A   17
 H3 
A   18
 H4 
A   19
 H5 
A   20
 H6 
A   21
 H7 
M  END
>  <ref_pdb>  (162) 
x0051_0B

>  <ref_mols>  (162) 
x0969_1B,x0553_0B

>  <original SMILES>  (162) 
[H]c1nnc(N([H])C(=O)c2oc([H])c([H])c2[H])c([H])c1[H]

>  <index>  (162) 
2462

>  <∆∆G>  (162) 
-2.965634

>  <comRMSD>  (162) 
0.379159

>  <N_constrained_atoms>  (162) 
14.0

>  <N_unconstrained_atoms>  (162) 
0.0

>  <LE>  (162) 
0.211831

>  <percent_hybrid>  (162) 
0.0

>  <max_hit_Tanimoto>  (162) 
0.309112

>  <largest_ring>  (162) 
6

>  <N_interactions_kept>  (162) 
0.0

>  <N_interactions_lost>  (162) 
0.0

>  <interaction_uniqueness_metric>  (162) 
0.113688

>  <N_HA>  (162) 
14

>  <N_rotatable_bonds>  (162) 
2

>  <N_interactions>  (162) 
6

>  <N_PAINS>  (162) 
0

>  <UFF_Gibbs>  (162) 
43.452267

>  <strain_per_HA>  (162) 
3.103711

>  <ad_hoc_penalty>  (162) 
-35.176063

>  <cluster>  (162) 
3035

>  <merger_rank>  (162) 
4

>  <pication:ARG:29>  (162) 
0

>  <hbond:HIS:51>  (162) 
0

>  <pistack:HIS:51>  (162) 
1

>  <hydroph_interaction:TYR:161>  (162) 
2

>  <pication:HIS:51>  (162) 
0

>  <hydroph_interaction:ALA:132>  (162) 
0

>  <hydroph_interaction:TYR:150>  (162) 
0

>  <hydroph_interaction:LYS:54>  (162) 
0

>  <hbond:SER:135>  (162) 
1

>  <hydroph_interaction:HIS:51>  (162) 
1

>  <hbond:ASP:83>  (162) 
0

>  <hbond:ALA:132>  (162) 
0

>  <halogenbond:SER:81>  (162) 
0

>  <hbond:GLY:82>  (162) 
0

>  <saltbridge:HIS:51>  (162) 
0

>  <pistack:TYR:161>  (162) 
0

>  <hbond:SER:81>  (162) 
0

>  <hbond:ASN:152>  (162) 
0

>  <hbond:GLY:151>  (162) 
0

>  <hydroph_interaction:ASN:152>  (162) 
0

>  <hbond:TYR:161>  (162) 
1

>  <halogenbond:TYR:150>  (162) 
0

>  <hbond:ASP:75>  (162) 
0

>  <hbond:GLY:153>  (162) 
0

>  <hbond:VAL:36>  (162) 
0

>  <hbond:PRO:131>  (162) 
0

>  <hbond:VAL:52>  (162) 
0

>  <hydroph_interaction:ASP:83>  (162) 
0

>  <hydroph_interaction:MET:49>  (162) 
0

>  <hydroph_interaction:VAL:52>  (162) 
0

>  <saltbridge:ASP:83>  (162) 
0

>  <saltbridge:ASP:75>  (162) 
0

>  <hydroph_interaction:TRP:50>  (162) 
0

>  <hydroph_interaction:VAL:72>  (162) 
0

>  <hydroph_interaction:ASP:75>  (162) 
0

>  <halogenbond:ASN:152>  (162) 
0

>  <halogenbond:GLY:153>  (162) 
0

>  <halogenbond:TYR:130>  (162) 
0

>  <hbond:TYR:130>  (162) 
0

>  <halogenbond:ASP:75>  (162) 
0

>  <halogenbond:GLY:151>  (162) 
0

>  <hbond:TYR:150>  (162) 
0

>  <halogenbond:TYR:161>  (162) 
0

>  <hydroph_interaction:ASP:129>  (162) 
0

>  <hbond:ASP:129>  (162) 
0

>  <halogenbond:ALA:132>  (162) 
0

$$$$
Z3228741569
     RDKit          3D

 21 22  0  0  0  0  0  0  0  0999 V2000
   -9.0250    4.6510  -18.9020 Br  0  0  0  0  0  0  0  0  0  0  0  0
   -8.5350    4.8910  -17.0920 C   0  0  0  0  0  0  0  0  0  0  0  0
   -7.2250    5.0050  -16.7560 C   0  0  0  0  0  0  0  0  0  0  0  0
   -6.8810    5.1710  -15.3990 C   0  0  0  0  0  0  0  0  0  0  0  0
   -7.8880    5.2260  -14.3300 C   0  0  0  0  0  0  0  0  0  0  0  0
   -7.4870    5.3970  -13.0200 O   0  0  0  0  0  0  0  0  0  0  0  0
   -8.1270    4.8700  -11.8860 C   0  0  0  0  0  0  0  0  0  0  0  0
   -8.2500    5.8640  -10.8060 C   0  0  0  0  0  0  0  0  0  0  0  0
   -8.9310    5.2770   -9.5500 C   0  0  0  0  0  0  0  0  0  0  0  0
   -9.3400    4.0000   -9.5280 N   0  0  0  0  0  0  0  0  0  0  0  0
   -9.1400    3.2430  -10.6230 C   0  0  0  0  0  0  0  0  0  0  0  0
   -8.5560    3.6110  -11.7980 N   0  0  0  0  0  0  0  0  0  0  0  0
   -9.2300    5.1090  -14.7070 C   0  0  0  0  0  0  0  0  0  0  0  0
   -9.5390    4.9430  -16.0790 C   0  0  0  0  0  0  0  0  0  0  0  0
   -6.4480    4.9670  -17.5120 H   0  0  0  0  0  0  0  0  0  0  0  0
   -5.8280    5.2610  -15.1420 H   0  0  0  0  0  0  0  0  0  0  0  0
   -7.9040    6.8840  -10.8710 H   0  0  0  0  0  0  0  0  0  0  0  0
   -9.1530    5.7590   -8.6120 H   0  0  0  0  0  0  0  0  0  0  0  0
   -9.4840    2.2210  -10.5600 H   0  0  0  0  0  0  0  0  0  0  0  0
  -10.0250    5.1410  -13.9640 H   0  0  0  0  0  0  0  0  0  0  0  0
  -10.5510    4.8450  -16.3750 H   0  0  0  0  0  0  0  0  0  0  0  0
  1  2  1  0
  2  3  2  0
  3  4  1  0
  4  5  2  0
  5  6  1  0
  6  7  1  0
  7  8  2  0
  8  9  1  0
  9 10  2  0
 10 11  1  0
 11 12  2  0
  5 13  1  0
 13 14  2  0
 14  2  1  0
 12  7  1  0
  3 15  1  0
  4 16  1  0
  8 17  1  0
  9 18  1  0
 11 19  1  0
 13 20  1  0
 14 21  1  0
A    1
BR1 
A    2
 C1 
A    3
 C2 
A    4
 C3 
A    5
 C4 
A    6
 O1 
A    7
 C5 
A    8
 C6 
A    9
 C7 
A   10
 N1 
A   11
 C8 
A   12
 N2 
A   13
 C9 
A   14
 C10
A   15
 H1 
A   16
 H2 
A   17
 H3 
A   18
 H4 
A   19
 H5 
A   20
 H6 
A   21
 H7 
M  END
>  <ref_pdb>  (163) 
x0051_0B

>  <ref_mols>  (163) 
x0969_1B,x0553_0B

>  <original SMILES>  (163) 
[H]c1nc([H])c([H])c(Oc2c([H])c([H])c(Br)c([H])c2[H])n1

>  <index>  (163) 
885

>  <∆∆G>  (163) 
-3.20623

>  <comRMSD>  (163) 
0.40912

>  <N_constrained_atoms>  (163) 
13.0

>  <N_unconstrained_atoms>  (163) 
1.0

>  <LE>  (163) 
0.229016

>  <percent_hybrid>  (163) 
0.0

>  <max_hit_Tanimoto>  (163) 
0.370572

>  <largest_ring>  (163) 
6

>  <N_interactions_kept>  (163) 
0.0

>  <N_interactions_lost>  (163) 
0.0

>  <interaction_uniqueness_metric>  (163) 
0.337458

>  <N_HA>  (163) 
14

>  <N_rotatable_bonds>  (163) 
2

>  <N_interactions>  (163) 
5

>  <N_PAINS>  (163) 
0

>  <UFF_Gibbs>  (163) 
37.406397

>  <strain_per_HA>  (163) 
2.671866

>  <ad_hoc_penalty>  (163) 
-35.166552

>  <cluster>  (163) 
4229

>  <merger_rank>  (163) 
2

>  <pication:ARG:29>  (163) 
0

>  <hbond:HIS:51>  (163) 
0

>  <pistack:HIS:51>  (163) 
1

>  <hydroph_interaction:TYR:161>  (163) 
2

>  <pication:HIS:51>  (163) 
0

>  <hydroph_interaction:ALA:132>  (163) 
0

>  <hydroph_interaction:TYR:150>  (163) 
0

>  <hydroph_interaction:LYS:54>  (163) 
0

>  <hbond:SER:135>  (163) 
0

>  <hydroph_interaction:HIS:51>  (163) 
0

>  <hbond:ASP:83>  (163) 
0

>  <hbond:ALA:132>  (163) 
0

>  <halogenbond:SER:81>  (163) 
0

>  <hbond:GLY:82>  (163) 
0

>  <saltbridge:HIS:51>  (163) 
0

>  <pistack:TYR:161>  (163) 
0

>  <hbond:SER:81>  (163) 
0

>  <hbond:ASN:152>  (163) 
0

>  <hbond:GLY:151>  (163) 
0

>  <hydroph_interaction:ASN:152>  (163) 
0

>  <hbond:TYR:161>  (163) 
0

>  <halogenbond:TYR:150>  (163) 
1

>  <hbond:ASP:75>  (163) 
0

>  <hbond:GLY:153>  (163) 
0

>  <hbond:VAL:36>  (163) 
0

>  <hbond:PRO:131>  (163) 
0

>  <hbond:VAL:52>  (163) 
0

>  <hydroph_interaction:ASP:83>  (163) 
0

>  <hydroph_interaction:MET:49>  (163) 
0

>  <hydroph_interaction:VAL:52>  (163) 
0

>  <saltbridge:ASP:83>  (163) 
0

>  <saltbridge:ASP:75>  (163) 
0

>  <hydroph_interaction:TRP:50>  (163) 
0

>  <hydroph_interaction:VAL:72>  (163) 
0

>  <hydroph_interaction:ASP:75>  (163) 
0

>  <halogenbond:ASN:152>  (163) 
0

>  <halogenbond:GLY:153>  (163) 
0

>  <halogenbond:TYR:130>  (163) 
1

>  <hbond:TYR:130>  (163) 
0

>  <halogenbond:ASP:75>  (163) 
0

>  <halogenbond:GLY:151>  (163) 
0

>  <hbond:TYR:150>  (163) 
0

>  <halogenbond:TYR:161>  (163) 
0

>  <hydroph_interaction:ASP:129>  (163) 
0

>  <hbond:ASP:129>  (163) 
0

>  <halogenbond:ALA:132>  (163) 
0

$$$$
Z1177413849
     RDKit          3D

 27 28  0  0  0  0  0  0  0  0999 V2000
   -9.0590    3.4070   -9.0860 C   0  0  0  0  0  0  0  0  0  0  0  0
   -8.9440    4.2860  -10.3230 C   0  0  0  0  0  0  0  0  0  0  0  0
   -9.1160    5.6070  -10.4120 N   0  0  0  0  0  0  0  0  0  0  0  0
   -8.9540    5.9970  -11.6730 C   0  0  0  0  0  0  0  0  0  0  0  0
   -9.0940    7.4140  -12.1390 C   0  0  0  0  0  0  0  0  0  0  0  0
   -9.1170    8.3860  -11.3870 O   0  0  0  0  0  0  0  0  0  0  0  0
   -9.1910    7.5140  -13.5110 N   0  0  0  0  0  0  0  0  0  0  0  0
   -8.3380    6.7330  -14.2730 N   0  0  0  0  0  0  0  0  0  0  0  0
   -8.8130    6.1650  -15.3600 C   0  0  0  0  0  0  0  0  0  0  0  0
  -10.0100    6.0620  -15.5690 O   0  0  0  0  0  0  0  0  0  0  0  0
   -7.7830    5.7050  -16.2750 C   0  0  0  0  0  0  0  0  0  0  0  0
   -8.2190    5.2370  -17.6310 C   0  0  0  0  0  0  0  0  0  0  0  0
   -7.0160    4.9080  -18.1950 C   0  0  0  0  0  0  0  0  0  0  0  0
   -5.9780    5.1420  -17.2840 C   0  0  0  0  0  0  0  0  0  0  0  0
   -6.4420    5.6320  -16.0960 O   0  0  0  0  0  0  0  0  0  0  0  0
   -8.6430    4.8730  -12.4310 C   0  0  0  0  0  0  0  0  0  0  0  0
   -8.6380    3.8100  -11.5700 N   0  0  0  0  0  0  0  0  0  0  0  0
  -10.0890    3.3810   -8.7300 H   0  0  0  0  0  0  0  0  0  0  0  0
   -8.4280    3.7710   -8.2710 H   0  0  0  0  0  0  0  0  0  0  0  0
   -8.7660    2.3770   -9.3110 H   0  0  0  0  0  0  0  0  0  0  0  0
  -10.1060    7.7410  -13.9050 H   0  0  0  0  0  0  0  0  0  0  0  0
   -7.5660    6.2830  -13.7760 H   0  0  0  0  0  0  0  0  0  0  0  0
   -9.2230    5.1830  -18.0360 H   0  0  0  0  0  0  0  0  0  0  0  0
   -7.0350    4.5250  -19.2190 H   0  0  0  0  0  0  0  0  0  0  0  0
   -4.9060    5.0130  -17.3370 H   0  0  0  0  0  0  0  0  0  0  0  0
   -8.4340    4.7550  -13.4850 H   0  0  0  0  0  0  0  0  0  0  0  0
   -8.4460    2.8480  -11.8080 H   0  0  0  0  0  0  0  0  0  0  0  0
  1  2  1  0
  2  3  2  0
  3  4  1  0
  4  5  1  0
  5  6  2  0
  5  7  1  0
  7  8  1  0
  8  9  1  0
  9 10  2  0
  9 11  1  0
 11 12  2  0
 12 13  1  0
 13 14  2  0
 14 15  1  0
  4 16  2  0
 16 17  1  0
 17  2  1  0
 15 11  1  0
  1 18  1  0
  1 19  1  0
  1 20  1  0
  7 21  1  0
  8 22  1  0
 12 23  1  0
 13 24  1  0
 14 25  1  0
 16 26  1  0
 17 27  1  0
A    1
 C1 
A    2
 C2 
A    3
 N1 
A    4
 C3 
A    5
 C4 
A    6
 O1 
A    7
 N2 
A    8
 N3 
A    9
 C5 
A   10
 O2 
A   11
 C6 
A   12
 C7 
A   13
 C8 
A   14
 C9 
A   15
 O3 
A   16
 C10
A   17
 N4 
A   18
 H1 
A   19
 H2 
A   20
 H3 
A   21
 H4 
A   22
 H5 
A   23
 H6 
A   24
 H7 
A   25
 H8 
A   26
 H9 
A   27
 H10
M  END
>  <ref_pdb>  (164) 
x0051_0B

>  <ref_mols>  (164) 
x0404_0B,x0969_0B

>  <original SMILES>  (164) 
[H]c1oc(C(=O)N([H])N([H])C(=O)c2nc(C([H])([H])[H])n([H])c2[H])c([H])c1[H]

>  <index>  (164) 
1417

>  <∆∆G>  (164) 
-4.497877

>  <comRMSD>  (164) 
0.311769

>  <N_constrained_atoms>  (164) 
16.0

>  <N_unconstrained_atoms>  (164) 
1.0

>  <LE>  (164) 
0.264581

>  <percent_hybrid>  (164) 
0.0

>  <max_hit_Tanimoto>  (164) 
0.341772

>  <largest_ring>  (164) 
5

>  <N_interactions_kept>  (164) 
0.0

>  <N_interactions_lost>  (164) 
0.0

>  <interaction_uniqueness_metric>  (164) 
0.160872

>  <N_HA>  (164) 
17

>  <N_rotatable_bonds>  (164) 
3

>  <N_interactions>  (164) 
6

>  <N_PAINS>  (164) 
0

>  <UFF_Gibbs>  (164) 
95.01323

>  <strain_per_HA>  (164) 
5.588981

>  <ad_hoc_penalty>  (164) 
-35.163869

>  <cluster>  (164) 
3803

>  <merger_rank>  (164) 
1

>  <pication:ARG:29>  (164) 
0

>  <hbond:HIS:51>  (164) 
0

>  <pistack:HIS:51>  (164) 
1

>  <hydroph_interaction:TYR:161>  (164) 
0

>  <pication:HIS:51>  (164) 
0

>  <hydroph_interaction:ALA:132>  (164) 
1

>  <hydroph_interaction:TYR:150>  (164) 
0

>  <hydroph_interaction:LYS:54>  (164) 
0

>  <hbond:SER:135>  (164) 
1

>  <hydroph_interaction:HIS:51>  (164) 
1

>  <hbond:ASP:83>  (164) 
0

>  <hbond:ALA:132>  (164) 
0

>  <halogenbond:SER:81>  (164) 
0

>  <hbond:GLY:82>  (164) 
0

>  <saltbridge:HIS:51>  (164) 
0

>  <pistack:TYR:161>  (164) 
1

>  <hbond:SER:81>  (164) 
0

>  <hbond:ASN:152>  (164) 
0

>  <hbond:GLY:151>  (164) 
1

>  <hydroph_interaction:ASN:152>  (164) 
0

>  <hbond:TYR:161>  (164) 
0

>  <halogenbond:TYR:150>  (164) 
0

>  <hbond:ASP:75>  (164) 
0

>  <hbond:GLY:153>  (164) 
0

>  <hbond:VAL:36>  (164) 
0

>  <hbond:PRO:131>  (164) 
0

>  <hbond:VAL:52>  (164) 
0

>  <hydroph_interaction:ASP:83>  (164) 
0

>  <hydroph_interaction:MET:49>  (164) 
0

>  <hydroph_interaction:VAL:52>  (164) 
0

>  <saltbridge:ASP:83>  (164) 
0

>  <saltbridge:ASP:75>  (164) 
0

>  <hydroph_interaction:TRP:50>  (164) 
0

>  <hydroph_interaction:VAL:72>  (164) 
0

>  <hydroph_interaction:ASP:75>  (164) 
0

>  <halogenbond:ASN:152>  (164) 
0

>  <halogenbond:GLY:153>  (164) 
0

>  <halogenbond:TYR:130>  (164) 
0

>  <hbond:TYR:130>  (164) 
0

>  <halogenbond:ASP:75>  (164) 
0

>  <halogenbond:GLY:151>  (164) 
0

>  <hbond:TYR:150>  (164) 
0

>  <halogenbond:TYR:161>  (164) 
0

>  <hydroph_interaction:ASP:129>  (164) 
0

>  <hbond:ASP:129>  (164) 
0

>  <halogenbond:ALA:132>  (164) 
0

$$$$
Z1679672312
     RDKit          3D

 31 33  0  0  0  0  0  0  0  0999 V2000
  -10.6140    3.8980  -12.0440 C   0  0  0  0  0  0  0  0  0  0  0  0
   -9.3060    4.3420  -11.5120 C   0  0  0  0  0  0  0  0  0  0  0  0
   -8.9500    5.5970  -11.8690 N   0  0  0  0  0  0  0  0  0  0  0  0
   -8.9810    5.7370  -13.2110 C   0  0  0  0  0  0  0  0  0  0  0  0
  -10.0240    6.0360  -13.9610 N   0  0  0  0  0  0  0  0  0  0  0  0
   -9.7170    6.0640  -15.2750 N   0  0  0  0  0  0  0  0  0  0  0  0
   -8.4230    5.7830  -15.4870 C   0  0  0  0  0  0  0  0  0  0  0  0
   -7.8590    5.7340  -16.7510 C   0  0  0  0  0  0  0  0  0  0  0  0
   -6.5510    6.2340  -17.1290 C   0  0  0  0  0  0  0  0  0  0  0  0
   -6.1180    6.1030  -18.4790 C   0  0  0  0  0  0  0  0  0  0  0  0
   -6.9910    5.4980  -19.3400 C   0  0  0  0  0  0  0  0  0  0  0  0
   -8.2680    5.0130  -18.9520 C   0  0  0  0  0  0  0  0  0  0  0  0
   -8.6920    5.1350  -17.6570 N   0  0  0  0  0  0  0  0  0  0  0  0
   -7.5180    5.4840  -14.0740 S   0  0  0  0  0  0  0  0  0  0  0  0
   -9.1540    4.1310  -10.1520 C   0  0  0  0  0  0  0  0  0  0  0  0
   -9.5450    3.0610   -9.2550 C   0  0  0  0  0  0  0  0  0  0  0  0
   -9.2120    3.2250   -7.9590 C   0  0  0  0  0  0  0  0  0  0  0  0
   -8.5550    4.4930   -8.0270 C   0  0  0  0  0  0  0  0  0  0  0  0
   -8.5260    5.0260   -9.3240 O   0  0  0  0  0  0  0  0  0  0  0  0
  -10.5750    3.8070  -13.1320 H   0  0  0  0  0  0  0  0  0  0  0  0
  -10.8990    2.9250  -11.6310 H   0  0  0  0  0  0  0  0  0  0  0  0
  -11.3970    4.6200  -11.7900 H   0  0  0  0  0  0  0  0  0  0  0  0
   -8.6460    3.5420  -11.8770 H   0  0  0  0  0  0  0  0  0  0  0  0
   -8.0720    5.9020  -11.4600 H   0  0  0  0  0  0  0  0  0  0  0  0
   -5.8570    6.7110  -16.4540 H   0  0  0  0  0  0  0  0  0  0  0  0
   -5.1380    6.4890  -18.7160 H   0  0  0  0  0  0  0  0  0  0  0  0
   -6.8360    5.3140  -20.3930 H   0  0  0  0  0  0  0  0  0  0  0  0
   -8.9740    4.5330  -19.6170 H   0  0  0  0  0  0  0  0  0  0  0  0
  -10.0740    2.1720   -9.5650 H   0  0  0  0  0  0  0  0  0  0  0  0
   -9.3580    2.6280   -7.0690 H   0  0  0  0  0  0  0  0  0  0  0  0
   -8.0850    5.1100   -7.2740 H   0  0  0  0  0  0  0  0  0  0  0  0
  1  2  1  0
  2  3  1  0
  3  4  1  0
  4  5  2  0
  5  6  1  0
  6  7  2  0
  7  8  1  0
  8  9  2  0
  9 10  1  0
 10 11  2  0
 11 12  1  0
 12 13  2  0
  7 14  1  0
  2 15  1  0
 15 16  2  0
 16 17  1  0
 17 18  2  0
 18 19  1  0
 14  4  1  0
 13  8  1  0
 19 15  1  0
  1 20  1  0
  1 21  1  0
  1 22  1  0
  2 23  1  0
  3 24  1  0
  9 25  1  0
 10 26  1  0
 11 27  1  0
 12 28  1  0
 16 29  1  0
 17 30  1  0
 18 31  1  0
A    1
 C1 
A    2
 C2 
A    3
 N1 
A    4
 C3 
A    5
 N2 
A    6
 N3 
A    7
 C4 
A    8
 C5 
A    9
 C6 
A   10
 C7 
A   11
 C8 
A   12
 C9 
A   13
 N4 
A   14
 S1 
A   15
 C10
A   16
 C11
A   17
 C12
A   18
 C13
A   19
 O1 
A   20
 H1 
A   21
 H2 
A   22
 H3 
A   23
 H4 
A   24
 H5 
A   25
 H6 
A   26
 H7 
A   27
 H8 
A   28
 H9 
A   29
 H10
A   30
 H11
A   31
 H12
M  END
>  <ref_pdb>  (165) 
x0051_0B

>  <ref_mols>  (165) 
x0404_0B,x0969_0B

>  <original SMILES>  (165) 
[H]c1nc(-c2nnc(N([H])C([H])(c3oc([H])c([H])c3[H])C([H])([H])[H])s2)c([H])c([H])c1[H]

>  <index>  (165) 
4899

>  <∆∆G>  (165) 
-6.23327

>  <comRMSD>  (165) 
0.4872

>  <N_constrained_atoms>  (165) 
18.0

>  <N_unconstrained_atoms>  (165) 
1.0

>  <LE>  (165) 
0.328067

>  <percent_hybrid>  (165) 
0.0

>  <max_hit_Tanimoto>  (165) 
0.362306

>  <largest_ring>  (165) 
6

>  <N_interactions_kept>  (165) 
0.0

>  <N_interactions_lost>  (165) 
0.0

>  <interaction_uniqueness_metric>  (165) 
0.143004

>  <N_HA>  (165) 
19

>  <N_rotatable_bonds>  (165) 
5

>  <N_interactions>  (165) 
6

>  <N_PAINS>  (165) 
0

>  <UFF_Gibbs>  (165) 
93.806714

>  <strain_per_HA>  (165) 
4.937169

>  <ad_hoc_penalty>  (165) 
-35.085025

>  <cluster>  (165) 
394

>  <merger_rank>  (165) 
3

>  <pication:ARG:29>  (165) 
0

>  <hbond:HIS:51>  (165) 
1

>  <pistack:HIS:51>  (165) 
1

>  <hydroph_interaction:TYR:161>  (165) 
1

>  <pication:HIS:51>  (165) 
0

>  <hydroph_interaction:ALA:132>  (165) 
1

>  <hydroph_interaction:TYR:150>  (165) 
0

>  <hydroph_interaction:LYS:54>  (165) 
0

>  <hbond:SER:135>  (165) 
1

>  <hydroph_interaction:HIS:51>  (165) 
1

>  <hbond:ASP:83>  (165) 
0

>  <hbond:ALA:132>  (165) 
0

>  <halogenbond:SER:81>  (165) 
0

>  <hbond:GLY:82>  (165) 
0

>  <saltbridge:HIS:51>  (165) 
0

>  <pistack:TYR:161>  (165) 
0

>  <hbond:SER:81>  (165) 
0

>  <hbond:ASN:152>  (165) 
0

>  <hbond:GLY:151>  (165) 
0

>  <hydroph_interaction:ASN:152>  (165) 
0

>  <hbond:TYR:161>  (165) 
0

>  <halogenbond:TYR:150>  (165) 
0

>  <hbond:ASP:75>  (165) 
0

>  <hbond:GLY:153>  (165) 
0

>  <hbond:VAL:36>  (165) 
0

>  <hbond:PRO:131>  (165) 
0

>  <hbond:VAL:52>  (165) 
0

>  <hydroph_interaction:ASP:83>  (165) 
0

>  <hydroph_interaction:MET:49>  (165) 
0

>  <hydroph_interaction:VAL:52>  (165) 
0

>  <saltbridge:ASP:83>  (165) 
0

>  <saltbridge:ASP:75>  (165) 
0

>  <hydroph_interaction:TRP:50>  (165) 
0

>  <hydroph_interaction:VAL:72>  (165) 
0

>  <hydroph_interaction:ASP:75>  (165) 
0

>  <halogenbond:ASN:152>  (165) 
0

>  <halogenbond:GLY:153>  (165) 
0

>  <halogenbond:TYR:130>  (165) 
0

>  <hbond:TYR:130>  (165) 
0

>  <halogenbond:ASP:75>  (165) 
0

>  <halogenbond:GLY:151>  (165) 
0

>  <hbond:TYR:150>  (165) 
0

>  <halogenbond:TYR:161>  (165) 
0

>  <hydroph_interaction:ASP:129>  (165) 
0

>  <hbond:ASP:129>  (165) 
0

>  <halogenbond:ALA:132>  (165) 
0

$$$$
Z1897416018
     RDKit          3D

 30 32  0  0  0  0  0  0  0  0999 V2000
   -9.3270    3.6390   -6.7310 C   0  0  0  0  0  0  0  0  0  0  0  0
   -9.0340    4.6640   -7.7560 C   0  0  0  0  0  0  0  0  0  0  0  0
   -8.6750    5.9850   -7.6730 C   0  0  0  0  0  0  0  0  0  0  0  0
   -8.5280    6.4530   -8.9880 C   0  0  0  0  0  0  0  0  0  0  0  0
   -8.8070    5.3920   -9.8190 C   0  0  0  0  0  0  0  0  0  0  0  0
   -8.7830    5.4150  -11.2340 C   0  0  0  0  0  0  0  0  0  0  0  0
   -9.0840    4.3880  -11.9240 N   0  0  0  0  0  0  0  0  0  0  0  0
   -8.9570    4.7390  -13.2320 N   0  0  0  0  0  0  0  0  0  0  0  0
   -8.5720    5.9960  -13.3690 C   0  0  0  0  0  0  0  0  0  0  0  0
   -8.3900    6.5160  -14.5940 N   0  0  0  0  0  0  0  0  0  0  0  0
   -9.0630    5.6970  -15.5880 C   0  0  0  0  0  0  0  0  0  0  0  0
  -10.1340    5.1620  -15.4250 O   0  0  0  0  0  0  0  0  0  0  0  0
   -8.3680    5.4750  -16.9270 C   0  0  0  0  0  0  0  0  0  0  0  0
   -6.9490    5.7360  -17.2120 C   0  0  0  0  0  0  0  0  0  0  0  0
   -6.6730    5.4330  -18.5020 C   0  0  0  0  0  0  0  0  0  0  0  0
   -7.9390    4.9820  -19.0070 C   0  0  0  0  0  0  0  0  0  0  0  0
   -8.9630    4.9950  -18.0810 O   0  0  0  0  0  0  0  0  0  0  0  0
   -8.4490    6.4930  -12.0640 C   0  0  0  0  0  0  0  0  0  0  0  0
   -9.1200    4.2870   -9.0630 O   0  0  0  0  0  0  0  0  0  0  0  0
  -10.3620    3.7080   -6.3780 H   0  0  0  0  0  0  0  0  0  0  0  0
   -9.1740    2.6330   -7.1390 H   0  0  0  0  0  0  0  0  0  0  0  0
   -8.6640    3.7580   -5.8670 H   0  0  0  0  0  0  0  0  0  0  0  0
   -8.5340    6.5470   -6.7590 H   0  0  0  0  0  0  0  0  0  0  0  0
   -8.2510    7.4490   -9.3030 H   0  0  0  0  0  0  0  0  0  0  0  0
   -9.1640    4.0270  -13.9480 H   0  0  0  0  0  0  0  0  0  0  0  0
   -7.4800    6.8850  -14.8220 H   0  0  0  0  0  0  0  0  0  0  0  0
   -6.2170    6.1140  -16.5060 H   0  0  0  0  0  0  0  0  0  0  0  0
   -5.7310    5.5100  -19.0280 H   0  0  0  0  0  0  0  0  0  0  0  0
   -8.0310    4.6620  -20.0530 H   0  0  0  0  0  0  0  0  0  0  0  0
   -8.1520    7.4990  -11.7500 H   0  0  0  0  0  0  0  0  0  0  0  0
  1  2  1  0
  2  3  2  0
  3  4  1  0
  4  5  2  0
  5  6  1  0
  6  7  2  0
  7  8  1  0
  8  9  1  0
  9 10  1  0
 10 11  1  0
 11 12  2  0
 11 13  1  0
 13 14  2  0
 14 15  1  0
 15 16  2  0
 16 17  1  0
  9 18  2  0
  5 19  1  0
 19  2  1  0
 18  6  1  0
 17 13  1  0
  1 20  1  0
  1 21  1  0
  1 22  1  0
  3 23  1  0
  4 24  1  0
  8 25  1  0
 10 26  1  0
 14 27  1  0
 15 28  1  0
 16 29  1  0
 18 30  1  0
A    1
 C1 
A    2
 C2 
A    3
 C3 
A    4
 C4 
A    5
 C5 
A    6
 C6 
A    7
 N1 
A    8
 N2 
A    9
 C7 
A   10
 N3 
A   11
 C8 
A   12
 O1 
A   13
 C9 
A   14
 C10
A   15
 C11
A   16
 C12
A   17
 O2 
A   18
 C13
A   19
 O3 
A   20
 H1 
A   21
 H2 
A   22
 H3 
A   23
 H4 
A   24
 H5 
A   25
 H6 
A   26
 H7 
A   27
 H8 
A   28
 H9 
A   29
 H10
A   30
 H11
M  END
>  <ref_pdb>  (166) 
x0051_0B

>  <ref_mols>  (166) 
x0404_0B,x0969_0B

>  <original SMILES>  (166) 
[H]c1oc(C(=O)N([H])c2c([H])c(-c3oc(C([H])([H])[H])c([H])c3[H])nn2[H])c([H])c1[H]

>  <index>  (166) 
5387

>  <∆∆G>  (166) 
-4.853771

>  <comRMSD>  (166) 
0.931027

>  <N_constrained_atoms>  (166) 
19.0

>  <N_unconstrained_atoms>  (166) 
1.0

>  <LE>  (166) 
0.242689

>  <percent_hybrid>  (166) 
0.0

>  <max_hit_Tanimoto>  (166) 
0.388085

>  <largest_ring>  (166) 
5

>  <N_interactions_kept>  (166) 
0.0

>  <N_interactions_lost>  (166) 
0.0

>  <interaction_uniqueness_metric>  (166) 
0.139038

>  <N_HA>  (166) 
19

>  <N_rotatable_bonds>  (166) 
4

>  <N_interactions>  (166) 
6

>  <N_PAINS>  (166) 
0

>  <UFF_Gibbs>  (166) 
75.49059

>  <strain_per_HA>  (166) 
3.973168

>  <ad_hoc_penalty>  (166) 
-35.056987

>  <cluster>  (166) 
143

>  <merger_rank>  (166) 
3

>  <pication:ARG:29>  (166) 
0

>  <hbond:HIS:51>  (166) 
0

>  <pistack:HIS:51>  (166) 
1

>  <hydroph_interaction:TYR:161>  (166) 
0

>  <pication:HIS:51>  (166) 
0

>  <hydroph_interaction:ALA:132>  (166) 
1

>  <hydroph_interaction:TYR:150>  (166) 
0

>  <hydroph_interaction:LYS:54>  (166) 
0

>  <hbond:SER:135>  (166) 
1

>  <hydroph_interaction:HIS:51>  (166) 
1

>  <hbond:ASP:83>  (166) 
0

>  <hbond:ALA:132>  (166) 
0

>  <halogenbond:SER:81>  (166) 
0

>  <hbond:GLY:82>  (166) 
0

>  <saltbridge:HIS:51>  (166) 
0

>  <pistack:TYR:161>  (166) 
1

>  <hbond:SER:81>  (166) 
0

>  <hbond:ASN:152>  (166) 
0

>  <hbond:GLY:151>  (166) 
0

>  <hydroph_interaction:ASN:152>  (166) 
0

>  <hbond:TYR:161>  (166) 
1

>  <halogenbond:TYR:150>  (166) 
0

>  <hbond:ASP:75>  (166) 
0

>  <hbond:GLY:153>  (166) 
0

>  <hbond:VAL:36>  (166) 
0

>  <hbond:PRO:131>  (166) 
0

>  <hbond:VAL:52>  (166) 
0

>  <hydroph_interaction:ASP:83>  (166) 
0

>  <hydroph_interaction:MET:49>  (166) 
0

>  <hydroph_interaction:VAL:52>  (166) 
0

>  <saltbridge:ASP:83>  (166) 
0

>  <saltbridge:ASP:75>  (166) 
0

>  <hydroph_interaction:TRP:50>  (166) 
0

>  <hydroph_interaction:VAL:72>  (166) 
0

>  <hydroph_interaction:ASP:75>  (166) 
0

>  <halogenbond:ASN:152>  (166) 
0

>  <halogenbond:GLY:153>  (166) 
0

>  <halogenbond:TYR:130>  (166) 
0

>  <hbond:TYR:130>  (166) 
0

>  <halogenbond:ASP:75>  (166) 
0

>  <halogenbond:GLY:151>  (166) 
0

>  <hbond:TYR:150>  (166) 
0

>  <halogenbond:TYR:161>  (166) 
0

>  <hydroph_interaction:ASP:129>  (166) 
0

>  <hbond:ASP:129>  (166) 
0

>  <halogenbond:ALA:132>  (166) 
0

$$$$
PV-002900650091
     RDKit          3D

 21 22  0  0  0  0  0  0  0  0999 V2000
   -8.7110    5.2680   -8.9750 C   0  0  0  0  0  0  0  0  0  0  0  0
   -8.8380    4.7610  -10.4000 C   0  0  0  0  0  0  0  0  0  0  0  0
   -8.4540    5.5790  -11.5320 C   0  0  0  0  0  0  0  0  0  0  0  0
   -8.7360    4.7050  -12.6350 C   0  0  0  0  0  0  0  0  0  0  0  0
   -8.5580    4.9090  -14.1220 C   0  0  0  0  0  0  0  0  0  0  0  0
   -7.2820    4.8040  -14.5010 N   0  0  0  0  0  0  0  0  0  0  0  0
   -7.2320    4.9380  -15.9270 C   0  0  0  0  0  0  0  0  0  0  0  0
   -8.4380    5.1330  -16.5410 C   0  0  0  0  0  0  0  0  0  0  0  0
   -8.4580    5.2230  -17.9600 C   0  0  0  0  0  0  0  0  0  0  0  0
   -9.7140    5.2170  -15.3810 S   0  0  0  0  0  0  0  0  0  0  0  0
   -9.2620    3.4460  -12.1600 N   0  0  0  0  0  0  0  0  0  0  0  0
   -9.2830    3.5810  -10.7760 N   0  0  0  0  0  0  0  0  0  0  0  0
   -9.3450    4.6850   -8.2930 H   0  0  0  0  0  0  0  0  0  0  0  0
   -7.6810    5.1860   -8.6230 H   0  0  0  0  0  0  0  0  0  0  0  0
   -9.0150    6.3160   -8.9100 H   0  0  0  0  0  0  0  0  0  0  0  0
   -8.0560    6.5830  -11.5350 H   0  0  0  0  0  0  0  0  0  0  0  0
   -6.2920    4.8740  -16.4920 H   0  0  0  0  0  0  0  0  0  0  0  0
   -8.1040    4.4320  -18.5950 H   0  0  0  0  0  0  0  0  0  0  0  0
   -7.9690    6.0980  -18.3720 H   0  0  0  0  0  0  0  0  0  0  0  0
   -9.4970    5.3130  -18.2470 H   0  0  0  0  0  0  0  0  0  0  0  0
   -9.6170    2.8080  -10.2060 H   0  0  0  0  0  0  0  0  0  0  0  0
  1  2  1  0
  2  3  2  0
  3  4  1  0
  4  5  1  0
  5  6  2  0
  6  7  1  0
  7  8  2  0
  8  9  1  0
  8 10  1  0
  4 11  2  0
 11 12  1  0
 12  2  1  0
 10  5  1  0
  1 13  1  0
  1 14  1  0
  1 15  1  0
  3 16  1  0
  7 17  1  0
  9 18  1  0
  9 19  1  0
  9 20  1  0
 12 21  1  0
A    1
 C1 
A    2
 C2 
A    3
 C3 
A    4
 C4 
A    5
 C5 
A    6
 N1 
A    7
 C6 
A    8
 C7 
A    9
 C8 
A   10
 S1 
A   11
 N2 
A   12
 N3 
A   13
 H1 
A   14
 H2 
A   15
 H3 
A   16
 H4 
A   17
 H5 
A   18
 H6 
A   19
 H7 
A   20
 H8 
A   21
 H9 
M  END
>  <ref_pdb>  (167) 
x0051_0B

>  <ref_mols>  (167) 
x0969_1B,x0553_0B

>  <original SMILES>  (167) 
[H]c1nc(-c2nn([H])c(C([H])([H])[H])c2[H])sc1C([H])([H])[H]

>  <index>  (167) 
1827

>  <∆∆G>  (167) 
-3.639091

>  <comRMSD>  (167) 
0.286451

>  <N_constrained_atoms>  (167) 
12.0

>  <N_unconstrained_atoms>  (167) 
0.0

>  <LE>  (167) 
0.303258

>  <percent_hybrid>  (167) 
0.0

>  <max_hit_Tanimoto>  (167) 
0.267539

>  <largest_ring>  (167) 
5

>  <N_interactions_kept>  (167) 
0.0

>  <N_interactions_lost>  (167) 
0.0

>  <interaction_uniqueness_metric>  (167) 
0.241203

>  <N_HA>  (167) 
12

>  <N_rotatable_bonds>  (167) 
3

>  <N_interactions>  (167) 
6

>  <N_PAINS>  (167) 
0

>  <UFF_Gibbs>  (167) 
54.038796

>  <strain_per_HA>  (167) 
4.503195

>  <ad_hoc_penalty>  (167) 
-34.905676

>  <cluster>  (167) 
3486

>  <merger_rank>  (167) 
1

>  <pication:ARG:29>  (167) 
0

>  <hbond:HIS:51>  (167) 
0

>  <pistack:HIS:51>  (167) 
1

>  <hydroph_interaction:TYR:161>  (167) 
1

>  <pication:HIS:51>  (167) 
0

>  <hydroph_interaction:ALA:132>  (167) 
1

>  <hydroph_interaction:TYR:150>  (167) 
0

>  <hydroph_interaction:LYS:54>  (167) 
0

>  <hbond:SER:135>  (167) 
0

>  <hydroph_interaction:HIS:51>  (167) 
1

>  <hbond:ASP:83>  (167) 
0

>  <hbond:ALA:132>  (167) 
0

>  <halogenbond:SER:81>  (167) 
0

>  <hbond:GLY:82>  (167) 
0

>  <saltbridge:HIS:51>  (167) 
0

>  <pistack:TYR:161>  (167) 
0

>  <hbond:SER:81>  (167) 
0

>  <hbond:ASN:152>  (167) 
0

>  <hbond:GLY:151>  (167) 
0

>  <hydroph_interaction:ASN:152>  (167) 
0

>  <hbond:TYR:161>  (167) 
1

>  <halogenbond:TYR:150>  (167) 
0

>  <hbond:ASP:75>  (167) 
1

>  <hbond:GLY:153>  (167) 
0

>  <hbond:VAL:36>  (167) 
0

>  <hbond:PRO:131>  (167) 
0

>  <hbond:VAL:52>  (167) 
0

>  <hydroph_interaction:ASP:83>  (167) 
0

>  <hydroph_interaction:MET:49>  (167) 
0

>  <hydroph_interaction:VAL:52>  (167) 
0

>  <saltbridge:ASP:83>  (167) 
0

>  <saltbridge:ASP:75>  (167) 
0

>  <hydroph_interaction:TRP:50>  (167) 
0

>  <hydroph_interaction:VAL:72>  (167) 
0

>  <hydroph_interaction:ASP:75>  (167) 
0

>  <halogenbond:ASN:152>  (167) 
0

>  <halogenbond:GLY:153>  (167) 
0

>  <halogenbond:TYR:130>  (167) 
0

>  <hbond:TYR:130>  (167) 
0

>  <halogenbond:ASP:75>  (167) 
0

>  <halogenbond:GLY:151>  (167) 
0

>  <hbond:TYR:150>  (167) 
0

>  <halogenbond:TYR:161>  (167) 
0

>  <hydroph_interaction:ASP:129>  (167) 
0

>  <hbond:ASP:129>  (167) 
0

>  <halogenbond:ALA:132>  (167) 
0

$$$$
PV-007005379928
     RDKit          3D

 30 32  0  0  0  0  0  0  0  0999 V2000
   -8.2990    7.4740  -10.6020 O   0  0  0  0  0  0  0  0  0  0  0  0
   -8.6510    6.4700  -11.2230 C   0  0  0  0  0  0  0  0  0  0  0  0
   -8.8440    5.1360  -10.5380 C   0  0  0  0  0  0  0  0  0  0  0  0
   -8.8700    5.0280   -9.0780 C   0  0  0  0  0  0  0  0  0  0  0  0
   -9.0560    3.7800   -8.5890 C   0  0  0  0  0  0  0  0  0  0  0  0
   -9.1790    2.8710   -9.6520 C   0  0  0  0  0  0  0  0  0  0  0  0
   -9.0630    3.5670  -11.2390 S   0  0  0  0  0  0  0  0  0  0  0  0
   -8.8980    6.5210  -12.5790 N   0  0  0  0  0  0  0  0  0  0  0  0
   -9.8270    7.4060  -13.2530 C   0  0  0  0  0  0  0  0  0  0  0  0
   -9.7290    7.0270  -14.5600 C   0  0  0  0  0  0  0  0  0  0  0  0
   -8.5830    6.2090  -14.7550 C   0  0  0  0  0  0  0  0  0  0  0  0
   -8.1380    5.6790  -16.0600 C   0  0  0  0  0  0  0  0  0  0  0  0
   -6.7490    5.7360  -16.3380 C   0  0  0  0  0  0  0  0  0  0  0  0
   -6.3570    5.2620  -17.5750 C   0  0  0  0  0  0  0  0  0  0  0  0
   -7.3500    4.7440  -18.5100 C   0  0  0  0  0  0  0  0  0  0  0  0
   -8.6980    4.7450  -18.0880 C   0  0  0  0  0  0  0  0  0  0  0  0
   -9.1470    5.1820  -16.9160 N   0  0  0  0  0  0  0  0  0  0  0  0
   -7.9290    5.9970  -13.5380 C   0  0  0  0  0  0  0  0  0  0  0  0
   -8.7490    5.9020   -8.4470 H   0  0  0  0  0  0  0  0  0  0  0  0
   -9.1020    3.5190   -7.5230 H   0  0  0  0  0  0  0  0  0  0  0  0
   -9.3300    1.8220   -9.3970 H   0  0  0  0  0  0  0  0  0  0  0  0
   -9.4320    8.4040  -13.0440 H   0  0  0  0  0  0  0  0  0  0  0  0
  -10.8060    7.4200  -12.8370 H   0  0  0  0  0  0  0  0  0  0  0  0
  -10.4160    7.3340  -15.3360 H   0  0  0  0  0  0  0  0  0  0  0  0
   -6.0340    6.1290  -15.6300 H   0  0  0  0  0  0  0  0  0  0  0  0
   -5.3170    5.2690  -17.8700 H   0  0  0  0  0  0  0  0  0  0  0  0
   -7.1900    4.3490  -19.5030 H   0  0  0  0  0  0  0  0  0  0  0  0
   -9.4730    4.3640  -18.7470 H   0  0  0  0  0  0  0  0  0  0  0  0
   -7.7550    4.9330  -13.3410 H   0  0  0  0  0  0  0  0  0  0  0  0
   -6.9950    6.5630  -13.4480 H   0  0  0  0  0  0  0  0  0  0  0  0
  1  2  2  0
  2  3  1  0
  3  4  2  0
  4  5  1  0
  5  6  2  0
  6  7  1  0
  2  8  1  0
  8  9  1  0
  9 10  1  0
 10 11  2  0
 11 12  1  0
 12 13  2  0
 13 14  1  0
 14 15  2  0
 15 16  1  0
 16 17  2  0
 11 18  1  0
  7  3  1  0
 18  8  1  0
 17 12  1  0
  4 19  1  0
  5 20  1  0
  6 21  1  0
  9 22  1  0
  9 23  1  0
 10 24  1  0
 13 25  1  0
 14 26  1  0
 15 27  1  0
 16 28  1  0
 18 29  1  0
 18 30  1  0
A    1
 O1 
A    2
 C1 
A    3
 C2 
A    4
 C3 
A    5
 C4 
A    6
 C5 
A    7
 S1 
A    8
 N1 
A    9
 C6 
A   10
 C7 
A   11
 C8 
A   12
 C9 
A   13
 C10
A   14
 C11
A   15
 C12
A   16
 C13
A   17
 N2 
A   18
 C14
A   19
 H1 
A   20
 H2 
A   21
 H3 
A   22
 H4 
A   23
 H5 
A   24
 H6 
A   25
 H7 
A   26
 H8 
A   27
 H9 
A   28
 H10
A   29
 H11
A   30
 H12
M  END
>  <ref_pdb>  (168) 
x0051_0B

>  <ref_mols>  (168) 
x0404_0B,x0969_0B

>  <original SMILES>  (168) 
[H]C1=C(c2nc([H])c([H])c([H])c2[H])C([H])([H])N(C(=O)c2sc([H])c([H])c2[H])C1([H])[H]

>  <index>  (168) 
5350

>  <∆∆G>  (168) 
-6.201881

>  <comRMSD>  (168) 
0.227898

>  <N_constrained_atoms>  (168) 
18.0

>  <N_unconstrained_atoms>  (168) 
0.0

>  <LE>  (168) 
0.344549

>  <percent_hybrid>  (168) 
0.0

>  <max_hit_Tanimoto>  (168) 
0.279968

>  <largest_ring>  (168) 
6

>  <N_interactions_kept>  (168) 
0.0

>  <N_interactions_lost>  (168) 
0.0

>  <interaction_uniqueness_metric>  (168) 
0.079783

>  <N_HA>  (168) 
18

>  <N_rotatable_bonds>  (168) 
2

>  <N_interactions>  (168) 
4

>  <N_PAINS>  (168) 
0

>  <UFF_Gibbs>  (168) 
57.366314

>  <strain_per_HA>  (168) 
3.187

>  <ad_hoc_penalty>  (168) 
-34.89428

>  <cluster>  (168) 
1151

>  <merger_rank>  (168) 
1

>  <pication:ARG:29>  (168) 
0

>  <hbond:HIS:51>  (168) 
0

>  <pistack:HIS:51>  (168) 
1

>  <hydroph_interaction:TYR:161>  (168) 
0

>  <pication:HIS:51>  (168) 
0

>  <hydroph_interaction:ALA:132>  (168) 
1

>  <hydroph_interaction:TYR:150>  (168) 
0

>  <hydroph_interaction:LYS:54>  (168) 
0

>  <hbond:SER:135>  (168) 
0

>  <hydroph_interaction:HIS:51>  (168) 
1

>  <hbond:ASP:83>  (168) 
0

>  <hbond:ALA:132>  (168) 
0

>  <halogenbond:SER:81>  (168) 
0

>  <hbond:GLY:82>  (168) 
0

>  <saltbridge:HIS:51>  (168) 
0

>  <pistack:TYR:161>  (168) 
1

>  <hbond:SER:81>  (168) 
0

>  <hbond:ASN:152>  (168) 
0

>  <hbond:GLY:151>  (168) 
0

>  <hydroph_interaction:ASN:152>  (168) 
0

>  <hbond:TYR:161>  (168) 
0

>  <halogenbond:TYR:150>  (168) 
0

>  <hbond:ASP:75>  (168) 
0

>  <hbond:GLY:153>  (168) 
0

>  <hbond:VAL:36>  (168) 
0

>  <hbond:PRO:131>  (168) 
0

>  <hbond:VAL:52>  (168) 
0

>  <hydroph_interaction:ASP:83>  (168) 
0

>  <hydroph_interaction:MET:49>  (168) 
0

>  <hydroph_interaction:VAL:52>  (168) 
0

>  <saltbridge:ASP:83>  (168) 
0

>  <saltbridge:ASP:75>  (168) 
0

>  <hydroph_interaction:TRP:50>  (168) 
0

>  <hydroph_interaction:VAL:72>  (168) 
0

>  <hydroph_interaction:ASP:75>  (168) 
0

>  <halogenbond:ASN:152>  (168) 
0

>  <halogenbond:GLY:153>  (168) 
0

>  <halogenbond:TYR:130>  (168) 
0

>  <hbond:TYR:130>  (168) 
0

>  <halogenbond:ASP:75>  (168) 
0

>  <halogenbond:GLY:151>  (168) 
0

>  <hbond:TYR:150>  (168) 
0

>  <halogenbond:TYR:161>  (168) 
0

>  <hydroph_interaction:ASP:129>  (168) 
0

>  <hbond:ASP:129>  (168) 
0

>  <halogenbond:ALA:132>  (168) 
0

$$$$
Z1888656970
     RDKit          3D

 22 23  0  0  0  0  0  0  0  0999 V2000
   -8.2620    2.7720  -12.8650 O   0  0  0  0  0  0  0  0  0  0  0  0
   -8.7220    3.8690  -12.6210 C   0  0  0  0  0  0  0  0  0  0  0  0
   -9.1260    4.7430  -13.6410 N   0  0  0  0  0  0  0  0  0  0  0  0
   -8.1460    5.2930  -14.4500 C   0  0  0  0  0  0  0  0  0  0  0  0
   -8.3540    5.1920  -15.8340 C   0  0  0  0  0  0  0  0  0  0  0  0
   -7.2670    5.5900  -16.6560 C   0  0  0  0  0  0  0  0  0  0  0  0
   -7.5220    5.4710  -18.3430 S   0  0  0  0  0  0  0  0  0  0  0  0
   -9.1000    4.8740  -18.0300 C   0  0  0  0  0  0  0  0  0  0  0  0
   -9.4230    4.7760  -16.6880 C   0  0  0  0  0  0  0  0  0  0  0  0
   -8.8380    4.3360  -11.2370 C   0  0  0  0  0  0  0  0  0  0  0  0
   -8.6370    5.6040  -10.8600 N   0  0  0  0  0  0  0  0  0  0  0  0
   -8.7950    5.6940   -9.4950 C   0  0  0  0  0  0  0  0  0  0  0  0
   -9.1360    4.4030   -8.8330 C   0  0  0  0  0  0  0  0  0  0  0  0
   -9.2350    3.1790  -10.0120 S   0  0  0  0  0  0  0  0  0  0  0  0
  -10.0420    4.6240  -14.0380 H   0  0  0  0  0  0  0  0  0  0  0  0
   -7.2270    4.8190  -14.1350 H   0  0  0  0  0  0  0  0  0  0  0  0
   -8.0460    6.3500  -14.1920 H   0  0  0  0  0  0  0  0  0  0  0  0
   -6.3610    5.9410  -16.1450 H   0  0  0  0  0  0  0  0  0  0  0  0
   -9.8610    4.5740  -18.7590 H   0  0  0  0  0  0  0  0  0  0  0  0
  -10.4250    4.4040  -16.4530 H   0  0  0  0  0  0  0  0  0  0  0  0
   -8.6790    6.6260   -8.9530 H   0  0  0  0  0  0  0  0  0  0  0  0
   -9.2950    4.2750   -7.7670 H   0  0  0  0  0  0  0  0  0  0  0  0
  1  2  2  0
  2  3  1  0
  3  4  1  0
  4  5  1  0
  5  6  2  0
  6  7  1  0
  7  8  1  0
  8  9  2  0
  2 10  1  0
 10 11  2  0
 11 12  1  0
 12 13  2  0
 13 14  1  0
  9  5  1  0
 14 10  1  0
  3 15  1  0
  4 16  1  0
  4 17  1  0
  6 18  1  0
  8 19  1  0
  9 20  1  0
 12 21  1  0
 13 22  1  0
A    1
 O1 
A    2
 C1 
A    3
 N1 
A    4
 C2 
A    5
 C3 
A    6
 C4 
A    7
 S1 
A    8
 C5 
A    9
 C6 
A   10
 C7 
A   11
 N2 
A   12
 C8 
A   13
 C9 
A   14
 S2 
A   15
 H1 
A   16
 H2 
A   17
 H3 
A   18
 H4 
A   19
 H5 
A   20
 H6 
A   21
 H7 
A   22
 H8 
M  END
>  <ref_pdb>  (169) 
x0051_0B

>  <ref_mols>  (169) 
x0969_1B,x0553_0B

>  <original SMILES>  (169) 
[H]c1nc(C(=O)N([H])C([H])([H])c2c([H])sc([H])c2[H])sc1[H]

>  <index>  (169) 
837

>  <∆∆G>  (169) 
-4.426461

>  <comRMSD>  (169) 
0.526945

>  <N_constrained_atoms>  (169) 
14.0

>  <N_unconstrained_atoms>  (169) 
0.0

>  <LE>  (169) 
0.316176

>  <percent_hybrid>  (169) 
0.0

>  <max_hit_Tanimoto>  (169) 
0.218069

>  <largest_ring>  (169) 
5

>  <N_interactions_kept>  (169) 
0.0

>  <N_interactions_lost>  (169) 
0.0

>  <interaction_uniqueness_metric>  (169) 
0.332951

>  <N_HA>  (169) 
14

>  <N_rotatable_bonds>  (169) 
3

>  <N_interactions>  (169) 
5

>  <N_PAINS>  (169) 
0

>  <UFF_Gibbs>  (169) 
56.882528

>  <strain_per_HA>  (169) 
4.063009

>  <ad_hoc_penalty>  (169) 
-34.893463

>  <cluster>  (169) 
4277

>  <merger_rank>  (169) 
2

>  <pication:ARG:29>  (169) 
0

>  <hbond:HIS:51>  (169) 
1

>  <pistack:HIS:51>  (169) 
1

>  <hydroph_interaction:TYR:161>  (169) 
0

>  <pication:HIS:51>  (169) 
0

>  <hydroph_interaction:ALA:132>  (169) 
0

>  <hydroph_interaction:TYR:150>  (169) 
0

>  <hydroph_interaction:LYS:54>  (169) 
0

>  <hbond:SER:135>  (169) 
0

>  <hydroph_interaction:HIS:51>  (169) 
0

>  <hbond:ASP:83>  (169) 
0

>  <hbond:ALA:132>  (169) 
0

>  <halogenbond:SER:81>  (169) 
0

>  <hbond:GLY:82>  (169) 
0

>  <saltbridge:HIS:51>  (169) 
0

>  <pistack:TYR:161>  (169) 
1

>  <hbond:SER:81>  (169) 
0

>  <hbond:ASN:152>  (169) 
0

>  <hbond:GLY:151>  (169) 
0

>  <hydroph_interaction:ASN:152>  (169) 
0

>  <hbond:TYR:161>  (169) 
1

>  <halogenbond:TYR:150>  (169) 
0

>  <hbond:ASP:75>  (169) 
0

>  <hbond:GLY:153>  (169) 
1

>  <hbond:VAL:36>  (169) 
0

>  <hbond:PRO:131>  (169) 
0

>  <hbond:VAL:52>  (169) 
0

>  <hydroph_interaction:ASP:83>  (169) 
0

>  <hydroph_interaction:MET:49>  (169) 
0

>  <hydroph_interaction:VAL:52>  (169) 
0

>  <saltbridge:ASP:83>  (169) 
0

>  <saltbridge:ASP:75>  (169) 
0

>  <hydroph_interaction:TRP:50>  (169) 
0

>  <hydroph_interaction:VAL:72>  (169) 
0

>  <hydroph_interaction:ASP:75>  (169) 
0

>  <halogenbond:ASN:152>  (169) 
0

>  <halogenbond:GLY:153>  (169) 
0

>  <halogenbond:TYR:130>  (169) 
0

>  <hbond:TYR:130>  (169) 
0

>  <halogenbond:ASP:75>  (169) 
0

>  <halogenbond:GLY:151>  (169) 
0

>  <hbond:TYR:150>  (169) 
0

>  <halogenbond:TYR:161>  (169) 
0

>  <hydroph_interaction:ASP:129>  (169) 
0

>  <hbond:ASP:129>  (169) 
0

>  <halogenbond:ALA:132>  (169) 
0

$$$$
Z95510330
     RDKit          3D

 20 21  0  0  0  0  0  0  0  0999 V2000
   -8.0210    6.3220  -13.0880 O   0  0  0  0  0  0  0  0  0  0  0  0
   -8.4840    5.3020  -13.5940 C   0  0  0  0  0  0  0  0  0  0  0  0
   -8.9600    4.2240  -12.8980 N   0  0  0  0  0  0  0  0  0  0  0  0
   -8.9890    4.0940  -11.5240 C   0  0  0  0  0  0  0  0  0  0  0  0
   -8.7920    5.1550  -10.7490 N   0  0  0  0  0  0  0  0  0  0  0  0
   -8.8840    4.7000   -9.4600 C   0  0  0  0  0  0  0  0  0  0  0  0
   -9.1320    3.3890   -9.1980 C   0  0  0  0  0  0  0  0  0  0  0  0
   -9.2670    2.6100  -10.7090 S   0  0  0  0  0  0  0  0  0  0  0  0
   -8.5450    5.1870  -15.0520 C   0  0  0  0  0  0  0  0  0  0  0  0
   -7.5750    5.1550  -16.0570 C   0  0  0  0  0  0  0  0  0  0  0  0
   -8.1950    5.0260  -17.4220 C   0  0  0  0  0  0  0  0  0  0  0  0
   -9.5810    4.9860  -17.1170 C   0  0  0  0  0  0  0  0  0  0  0  0
   -9.7550    5.0830  -15.7480 N   0  0  0  0  0  0  0  0  0  0  0  0
   -9.3450    3.4390  -13.4190 H   0  0  0  0  0  0  0  0  0  0  0  0
   -8.7720    5.3060   -8.5520 H   0  0  0  0  0  0  0  0  0  0  0  0
   -9.2290    2.8980   -8.2340 H   0  0  0  0  0  0  0  0  0  0  0  0
   -6.5100    5.2160  -15.8630 H   0  0  0  0  0  0  0  0  0  0  0  0
   -7.7050    4.9780  -18.3900 H   0  0  0  0  0  0  0  0  0  0  0  0
  -10.3750    4.8960  -17.8550 H   0  0  0  0  0  0  0  0  0  0  0  0
  -10.6470    5.0780  -15.2650 H   0  0  0  0  0  0  0  0  0  0  0  0
  1  2  2  0
  2  3  1  0
  3  4  1  0
  4  5  2  0
  5  6  1  0
  6  7  2  0
  7  8  1  0
  2  9  1  0
  9 10  2  0
 10 11  1  0
 11 12  2  0
 12 13  1  0
  8  4  1  0
 13  9  1  0
  3 14  1  0
  6 15  1  0
  7 16  1  0
 10 17  1  0
 11 18  1  0
 12 19  1  0
 13 20  1  0
A    1
 O1 
A    2
 C1 
A    3
 N1 
A    4
 C2 
A    5
 N2 
A    6
 C3 
A    7
 C4 
A    8
 S1 
A    9
 C5 
A   10
 C6 
A   11
 C7 
A   12
 C8 
A   13
 N3 
A   14
 H1 
A   15
 H2 
A   16
 H3 
A   17
 H4 
A   18
 H5 
A   19
 H6 
A   20
 H7 
M  END
>  <ref_pdb>  (170) 
x0051_0B

>  <ref_mols>  (170) 
x0969_1B,x0553_0B

>  <original SMILES>  (170) 
[H]c1nc(N([H])C(=O)c2c([H])c([H])c([H])n2[H])sc1[H]

>  <index>  (170) 
3258

>  <∆∆G>  (170) 
-4.459158

>  <comRMSD>  (170) 
0.331937

>  <N_constrained_atoms>  (170) 
13.0

>  <N_unconstrained_atoms>  (170) 
0.0

>  <LE>  (170) 
0.343012

>  <percent_hybrid>  (170) 
0.0

>  <max_hit_Tanimoto>  (170) 
0.220762

>  <largest_ring>  (170) 
5

>  <N_interactions_kept>  (170) 
0.0

>  <N_interactions_lost>  (170) 
0.0

>  <interaction_uniqueness_metric>  (170) 
0.139861

>  <N_HA>  (170) 
13

>  <N_rotatable_bonds>  (170) 
2

>  <N_interactions>  (170) 
5

>  <N_PAINS>  (170) 
0

>  <UFF_Gibbs>  (170) 
40.527961

>  <strain_per_HA>  (170) 
3.117511

>  <ad_hoc_penalty>  (170) 
-34.87794

>  <cluster>  (170) 
2549

>  <merger_rank>  (170) 
1

>  <pication:ARG:29>  (170) 
0

>  <hbond:HIS:51>  (170) 
0

>  <pistack:HIS:51>  (170) 
1

>  <hydroph_interaction:TYR:161>  (170) 
1

>  <pication:HIS:51>  (170) 
0

>  <hydroph_interaction:ALA:132>  (170) 
0

>  <hydroph_interaction:TYR:150>  (170) 
0

>  <hydroph_interaction:LYS:54>  (170) 
0

>  <hbond:SER:135>  (170) 
1

>  <hydroph_interaction:HIS:51>  (170) 
0

>  <hbond:ASP:83>  (170) 
0

>  <hbond:ALA:132>  (170) 
0

>  <halogenbond:SER:81>  (170) 
0

>  <hbond:GLY:82>  (170) 
0

>  <saltbridge:HIS:51>  (170) 
0

>  <pistack:TYR:161>  (170) 
0

>  <hbond:SER:81>  (170) 
0

>  <hbond:ASN:152>  (170) 
0

>  <hbond:GLY:151>  (170) 
1

>  <hydroph_interaction:ASN:152>  (170) 
0

>  <hbond:TYR:161>  (170) 
1

>  <halogenbond:TYR:150>  (170) 
0

>  <hbond:ASP:75>  (170) 
0

>  <hbond:GLY:153>  (170) 
0

>  <hbond:VAL:36>  (170) 
0

>  <hbond:PRO:131>  (170) 
0

>  <hbond:VAL:52>  (170) 
0

>  <hydroph_interaction:ASP:83>  (170) 
0

>  <hydroph_interaction:MET:49>  (170) 
0

>  <hydroph_interaction:VAL:52>  (170) 
0

>  <saltbridge:ASP:83>  (170) 
0

>  <saltbridge:ASP:75>  (170) 
0

>  <hydroph_interaction:TRP:50>  (170) 
0

>  <hydroph_interaction:VAL:72>  (170) 
0

>  <hydroph_interaction:ASP:75>  (170) 
0

>  <halogenbond:ASN:152>  (170) 
0

>  <halogenbond:GLY:153>  (170) 
0

>  <halogenbond:TYR:130>  (170) 
0

>  <hbond:TYR:130>  (170) 
0

>  <halogenbond:ASP:75>  (170) 
0

>  <halogenbond:GLY:151>  (170) 
0

>  <hbond:TYR:150>  (170) 
0

>  <halogenbond:TYR:161>  (170) 
0

>  <hydroph_interaction:ASP:129>  (170) 
0

>  <hbond:ASP:129>  (170) 
0

>  <halogenbond:ALA:132>  (170) 
0

$$$$
PV-002805860496
     RDKit          3D

 27 29  0  0  0  0  0  0  0  0999 V2000
   -9.0760    3.3900   -8.7090 C   0  0  0  0  0  0  0  0  0  0  0  0
   -9.0410    4.3740   -9.8680 C   0  0  0  0  0  0  0  0  0  0  0  0
   -9.1440    3.8860  -11.2550 C   0  0  0  0  0  0  0  0  0  0  0  0
   -9.1350    4.7690  -12.2190 N   0  0  0  0  0  0  0  0  0  0  0  0
   -9.0260    6.0360  -11.6090 C   0  0  0  0  0  0  0  0  0  0  0  0
   -9.0200    7.2310  -12.2200 N   0  0  0  0  0  0  0  0  0  0  0  0
   -7.9930    7.3240  -13.1200 C   0  0  0  0  0  0  0  0  0  0  0  0
   -6.9880    7.9800  -12.8520 O   0  0  0  0  0  0  0  0  0  0  0  0
   -8.0250    6.7320  -14.3770 C   0  0  0  0  0  0  0  0  0  0  0  0
   -9.1260    6.0710  -14.7920 N   0  0  0  0  0  0  0  0  0  0  0  0
   -8.7940    5.6600  -16.0370 C   0  0  0  0  0  0  0  0  0  0  0  0
   -9.4660    4.9510  -17.0000 C   0  0  0  0  0  0  0  0  0  0  0  0
   -8.8100    4.6990  -18.2260 C   0  0  0  0  0  0  0  0  0  0  0  0
   -7.5050    5.1510  -18.4640 C   0  0  0  0  0  0  0  0  0  0  0  0
   -6.8180    5.8640  -17.4860 C   0  0  0  0  0  0  0  0  0  0  0  0
   -7.5350    6.0760  -16.3100 C   0  0  0  0  0  0  0  0  0  0  0  0
   -6.9820    6.7680  -15.2860 O   0  0  0  0  0  0  0  0  0  0  0  0
   -8.9040    6.0790   -9.8370 S   0  0  0  0  0  0  0  0  0  0  0  0
  -10.0740    3.3300   -8.2660 H   0  0  0  0  0  0  0  0  0  0  0  0
   -8.3800    3.6950   -7.9240 H   0  0  0  0  0  0  0  0  0  0  0  0
   -8.8130    2.3780   -9.0370 H   0  0  0  0  0  0  0  0  0  0  0  0
   -9.2350    2.8520  -11.5770 H   0  0  0  0  0  0  0  0  0  0  0  0
   -9.2810    8.0360  -11.6700 H   0  0  0  0  0  0  0  0  0  0  0  0
  -10.4680    4.5690  -16.8930 H   0  0  0  0  0  0  0  0  0  0  0  0
   -9.3280    4.1420  -19.0030 H   0  0  0  0  0  0  0  0  0  0  0  0
   -7.0240    4.9420  -19.4180 H   0  0  0  0  0  0  0  0  0  0  0  0
   -5.8140    6.1800  -17.7360 H   0  0  0  0  0  0  0  0  0  0  0  0
  1  2  1  0
  2  3  2  0
  3  4  1  0
  4  5  2  0
  5  6  1  0
  6  7  1  0
  7  8  2  0
  7  9  1  0
  9 10  2  0
 10 11  1  0
 11 12  2  0
 12 13  1  0
 13 14  2  0
 14 15  1  0
 15 16  2  0
 16 17  1  0
  5 18  1  0
 18  2  1  0
 17  9  1  0
 16 11  1  0
  1 19  1  0
  1 20  1  0
  1 21  1  0
  3 22  1  0
  6 23  1  0
 12 24  1  0
 13 25  1  0
 14 26  1  0
 15 27  1  0
A    1
 C1 
A    2
 C2 
A    3
 C3 
A    4
 N1 
A    5
 C4 
A    6
 N2 
A    7
 C5 
A    8
 O1 
A    9
 C6 
A   10
 N3 
A   11
 C7 
A   12
 C8 
A   13
 C9 
A   14
 C10
A   15
 C11
A   16
 C12
A   17
 O2 
A   18
 S1 
A   19
 H1 
A   20
 H2 
A   21
 H3 
A   22
 H4 
A   23
 H5 
A   24
 H6 
A   25
 H7 
A   26
 H8 
A   27
 H9 
M  END
>  <ref_pdb>  (171) 
x0051_0B

>  <ref_mols>  (171) 
x0404_0B,x0969_0B

>  <original SMILES>  (171) 
[H]c1nc(N([H])C(=O)c2nc3c([H])c([H])c([H])c([H])c3o2)sc1C([H])([H])[H]

>  <index>  (171) 
3926

>  <∆∆G>  (171) 
-5.34523

>  <comRMSD>  (171) 
0.284682

>  <N_constrained_atoms>  (171) 
18.0

>  <N_unconstrained_atoms>  (171) 
0.0

>  <LE>  (171) 
0.296957

>  <percent_hybrid>  (171) 
0.0

>  <max_hit_Tanimoto>  (171) 
0.797511

>  <largest_ring>  (171) 
6

>  <N_interactions_kept>  (171) 
0.0

>  <N_interactions_lost>  (171) 
0.0

>  <interaction_uniqueness_metric>  (171) 
0.077503

>  <N_HA>  (171) 
18

>  <N_rotatable_bonds>  (171) 
3

>  <N_interactions>  (171) 
5

>  <N_PAINS>  (171) 
0

>  <UFF_Gibbs>  (171) 
56.631322

>  <strain_per_HA>  (171) 
3.146167

>  <ad_hoc_penalty>  (171) 
-34.837097

>  <cluster>  (171) 
459

>  <merger_rank>  (171) 
3

>  <pication:ARG:29>  (171) 
0

>  <hbond:HIS:51>  (171) 
0

>  <pistack:HIS:51>  (171) 
1

>  <hydroph_interaction:TYR:161>  (171) 
2

>  <pication:HIS:51>  (171) 
0

>  <hydroph_interaction:ALA:132>  (171) 
1

>  <hydroph_interaction:TYR:150>  (171) 
0

>  <hydroph_interaction:LYS:54>  (171) 
0

>  <hbond:SER:135>  (171) 
0

>  <hydroph_interaction:HIS:51>  (171) 
1

>  <hbond:ASP:83>  (171) 
0

>  <hbond:ALA:132>  (171) 
0

>  <halogenbond:SER:81>  (171) 
0

>  <hbond:GLY:82>  (171) 
0

>  <saltbridge:HIS:51>  (171) 
0

>  <pistack:TYR:161>  (171) 
0

>  <hbond:SER:81>  (171) 
0

>  <hbond:ASN:152>  (171) 
0

>  <hbond:GLY:151>  (171) 
0

>  <hydroph_interaction:ASN:152>  (171) 
0

>  <hbond:TYR:161>  (171) 
0

>  <halogenbond:TYR:150>  (171) 
0

>  <hbond:ASP:75>  (171) 
0

>  <hbond:GLY:153>  (171) 
0

>  <hbond:VAL:36>  (171) 
0

>  <hbond:PRO:131>  (171) 
0

>  <hbond:VAL:52>  (171) 
0

>  <hydroph_interaction:ASP:83>  (171) 
0

>  <hydroph_interaction:MET:49>  (171) 
0

>  <hydroph_interaction:VAL:52>  (171) 
0

>  <saltbridge:ASP:83>  (171) 
0

>  <saltbridge:ASP:75>  (171) 
0

>  <hydroph_interaction:TRP:50>  (171) 
0

>  <hydroph_interaction:VAL:72>  (171) 
0

>  <hydroph_interaction:ASP:75>  (171) 
0

>  <halogenbond:ASN:152>  (171) 
0

>  <halogenbond:GLY:153>  (171) 
0

>  <halogenbond:TYR:130>  (171) 
0

>  <hbond:TYR:130>  (171) 
0

>  <halogenbond:ASP:75>  (171) 
0

>  <halogenbond:GLY:151>  (171) 
0

>  <hbond:TYR:150>  (171) 
0

>  <halogenbond:TYR:161>  (171) 
0

>  <hydroph_interaction:ASP:129>  (171) 
0

>  <hbond:ASP:129>  (171) 
0

>  <halogenbond:ALA:132>  (171) 
0

$$$$
Z1169966274
     RDKit          3D

 28 30  0  0  0  0  0  0  0  0999 V2000
   -8.9490    6.2060  -11.5040 C   0  0  0  0  0  0  0  0  0  0  0  0
   -9.0990    4.8150  -10.9650 C   0  0  0  0  0  0  0  0  0  0  0  0
   -8.8320    4.3580   -9.7290 C   0  0  0  0  0  0  0  0  0  0  0  0
   -8.7750    2.9780   -9.4900 C   0  0  0  0  0  0  0  0  0  0  0  0
   -8.4950    2.6280   -8.0920 C   0  0  0  0  0  0  0  0  0  0  0  0
   -8.3510    3.8910   -7.3430 C   0  0  0  0  0  0  0  0  0  0  0  0
   -8.5550    5.2930   -8.3160 S   0  0  0  0  0  0  0  0  0  0  0  0
   -9.3480    6.4080  -12.8180 C   0  0  0  0  0  0  0  0  0  0  0  0
   -8.9810    5.5680  -13.9170 N   0  0  0  0  0  0  0  0  0  0  0  0
   -9.6940    6.1730  -14.9820 C   0  0  0  0  0  0  0  0  0  0  0  0
   -9.5250    5.4730  -16.2950 C   0  0  0  0  0  0  0  0  0  0  0  0
   -8.3320    5.3580  -16.9810 C   0  0  0  0  0  0  0  0  0  0  0  0
   -7.0950    5.4260  -16.2900 C   0  0  0  0  0  0  0  0  0  0  0  0
   -6.0410    5.2850  -17.1750 C   0  0  0  0  0  0  0  0  0  0  0  0
   -6.4570    5.1190  -18.4880 C   0  0  0  0  0  0  0  0  0  0  0  0
   -8.1790    5.1260  -18.6560 S   0  0  0  0  0  0  0  0  0  0  0  0
  -10.4130    7.2560  -14.6370 N   0  0  0  0  0  0  0  0  0  0  0  0
  -10.1890    7.4190  -13.2600 O   0  0  0  0  0  0  0  0  0  0  0  0
   -8.5560    6.9900  -10.8480 H   0  0  0  0  0  0  0  0  0  0  0  0
   -9.4910    4.0660  -11.6540 H   0  0  0  0  0  0  0  0  0  0  0  0
   -8.9270    2.2300  -10.2570 H   0  0  0  0  0  0  0  0  0  0  0  0
   -8.4120    1.6450   -7.6780 H   0  0  0  0  0  0  0  0  0  0  0  0
   -8.1410    3.9980   -6.2880 H   0  0  0  0  0  0  0  0  0  0  0  0
   -9.9040    4.4600  -16.2960 H   0  0  0  0  0  0  0  0  0  0  0  0
  -10.2310    5.9520  -16.9700 H   0  0  0  0  0  0  0  0  0  0  0  0
   -6.9980    5.5680  -15.2220 H   0  0  0  0  0  0  0  0  0  0  0  0
   -4.9980    5.3030  -16.8870 H   0  0  0  0  0  0  0  0  0  0  0  0
   -5.8320    4.9900  -19.3620 H   0  0  0  0  0  0  0  0  0  0  0  0
  1  2  2  3
  2  3  1  0
  3  4  2  0
  4  5  1  0
  5  6  2  0
  6  7  1  0
  1  8  1  0
  8  9  2  0
  9 10  1  0
 10 11  1  0
 11 12  1  0
 12 13  2  0
 13 14  1  0
 14 15  2  0
 15 16  1  0
 10 17  2  0
 17 18  1  0
  7  3  1  0
 18  8  1  0
 16 12  1  0
  1 19  1  0
  2 20  1  0
  4 21  1  0
  5 22  1  0
  6 23  1  0
 11 24  1  0
 11 25  1  0
 13 26  1  0
 14 27  1  0
 15 28  1  0
A    1
 C1 
A    2
 C2 
A    3
 C3 
A    4
 C4 
A    5
 C5 
A    6
 C6 
A    7
 S1 
A    8
 C7 
A    9
 N1 
A   10
 C8 
A   11
 C9 
A   12
 C10
A   13
 C11
A   14
 C12
A   15
 C13
A   16
 S2 
A   17
 N2 
A   18
 O1 
A   19
 H1 
A   20
 H2 
A   21
 H3 
A   22
 H4 
A   23
 H5 
A   24
 H6 
A   25
 H7 
A   26
 H8 
A   27
 H9 
A   28
 H10
M  END
>  <ref_pdb>  (172) 
x0051_0B

>  <ref_mols>  (172) 
x0404_0B,x0969_0B

>  <original SMILES>  (172) 
[H]C(=C([H])c1sc([H])c([H])c1[H])c1nc(C([H])([H])c2sc([H])c([H])c2[H])no1

>  <index>  (172) 
1944

>  <∆∆G>  (172) 
-6.107888

>  <comRMSD>  (172) 
0.383248

>  <N_constrained_atoms>  (172) 
18.0

>  <N_unconstrained_atoms>  (172) 
0.0

>  <LE>  (172) 
0.339327

>  <percent_hybrid>  (172) 
0.0

>  <max_hit_Tanimoto>  (172) 
0.211873

>  <largest_ring>  (172) 
5

>  <N_interactions_kept>  (172) 
0.0

>  <N_interactions_lost>  (172) 
0.0

>  <interaction_uniqueness_metric>  (172) 
0.2473

>  <N_HA>  (172) 
18

>  <N_rotatable_bonds>  (172) 
4

>  <N_interactions>  (172) 
5

>  <N_PAINS>  (172) 
0

>  <UFF_Gibbs>  (172) 
95.488502

>  <strain_per_HA>  (172) 
5.304887

>  <ad_hoc_penalty>  (172) 
-34.776648

>  <cluster>  (172) 
3423

>  <merger_rank>  (172) 
2

>  <pication:ARG:29>  (172) 
0

>  <hbond:HIS:51>  (172) 
0

>  <pistack:HIS:51>  (172) 
0

>  <hydroph_interaction:TYR:161>  (172) 
0

>  <pication:HIS:51>  (172) 
1

>  <hydroph_interaction:ALA:132>  (172) 
1

>  <hydroph_interaction:TYR:150>  (172) 
0

>  <hydroph_interaction:LYS:54>  (172) 
0

>  <hbond:SER:135>  (172) 
0

>  <hydroph_interaction:HIS:51>  (172) 
1

>  <hbond:ASP:83>  (172) 
0

>  <hbond:ALA:132>  (172) 
0

>  <halogenbond:SER:81>  (172) 
0

>  <hbond:GLY:82>  (172) 
0

>  <saltbridge:HIS:51>  (172) 
0

>  <pistack:TYR:161>  (172) 
1

>  <hbond:SER:81>  (172) 
0

>  <hbond:ASN:152>  (172) 
0

>  <hbond:GLY:151>  (172) 
0

>  <hydroph_interaction:ASN:152>  (172) 
0

>  <hbond:TYR:161>  (172) 
0

>  <halogenbond:TYR:150>  (172) 
0

>  <hbond:ASP:75>  (172) 
0

>  <hbond:GLY:153>  (172) 
0

>  <hbond:VAL:36>  (172) 
0

>  <hbond:PRO:131>  (172) 
0

>  <hbond:VAL:52>  (172) 
0

>  <hydroph_interaction:ASP:83>  (172) 
1

>  <hydroph_interaction:MET:49>  (172) 
0

>  <hydroph_interaction:VAL:52>  (172) 
0

>  <saltbridge:ASP:83>  (172) 
0

>  <saltbridge:ASP:75>  (172) 
0

>  <hydroph_interaction:TRP:50>  (172) 
0

>  <hydroph_interaction:VAL:72>  (172) 
0

>  <hydroph_interaction:ASP:75>  (172) 
0

>  <halogenbond:ASN:152>  (172) 
0

>  <halogenbond:GLY:153>  (172) 
0

>  <halogenbond:TYR:130>  (172) 
0

>  <hbond:TYR:130>  (172) 
0

>  <halogenbond:ASP:75>  (172) 
0

>  <halogenbond:GLY:151>  (172) 
0

>  <hbond:TYR:150>  (172) 
0

>  <halogenbond:TYR:161>  (172) 
0

>  <hydroph_interaction:ASP:129>  (172) 
0

>  <hbond:ASP:129>  (172) 
0

>  <halogenbond:ALA:132>  (172) 
0

$$$$
Z3392950039
     RDKit          3D

 28 30  0  0  0  0  0  0  0  0999 V2000
  -10.0760    2.4150   -7.7810 C   0  0  0  0  0  0  0  0  0  0  0  0
   -8.7010    2.9240   -8.1910 C   0  0  0  0  0  0  0  0  0  0  0  0
   -8.8000    3.8260   -9.4430 C   0  0  0  0  0  0  0  0  0  0  0  0
   -8.9770    3.3570  -10.6990 N   0  0  0  0  0  0  0  0  0  0  0  0
   -9.0190    4.4040  -11.6270 N   0  0  0  0  0  0  0  0  0  0  0  0
   -8.8700    5.5880  -10.9870 C   0  0  0  0  0  0  0  0  0  0  0  0
   -8.8860    7.0730  -11.8540 S   0  0  0  0  0  0  0  0  0  0  0  0
   -8.5710    6.4980  -13.4460 C   0  0  0  0  0  0  0  0  0  0  0  0
   -7.5690    7.0030  -14.1820 N   0  0  0  0  0  0  0  0  0  0  0  0
   -7.5830    6.4050  -15.3560 C   0  0  0  0  0  0  0  0  0  0  0  0
   -6.6480    6.7910  -16.2270 C   0  0  0  0  0  0  0  0  0  0  0  0
   -6.6240    6.2080  -17.4840 C   0  0  0  0  0  0  0  0  0  0  0  0
   -7.6480    5.2180  -17.6970 C   0  0  0  0  0  0  0  0  0  0  0  0
   -7.6510    4.5580  -19.1170 C   0  0  0  0  0  0  0  0  0  0  0  0
   -8.5960    4.8140  -16.8060 N   0  0  0  0  0  0  0  0  0  0  0  0
   -8.5060    5.4610  -15.6340 C   0  0  0  0  0  0  0  0  0  0  0  0
   -9.4960    5.2720  -14.2490 S   0  0  0  0  0  0  0  0  0  0  0  0
   -8.6780    5.5260   -9.2950 S   0  0  0  0  0  0  0  0  0  0  0  0
  -10.1060    1.3230   -7.7360 H   0  0  0  0  0  0  0  0  0  0  0  0
  -10.8250    2.7310   -8.5060 H   0  0  0  0  0  0  0  0  0  0  0  0
  -10.3680    2.7960   -6.7960 H   0  0  0  0  0  0  0  0  0  0  0  0
   -8.2650    3.5020   -7.3670 H   0  0  0  0  0  0  0  0  0  0  0  0
   -8.0550    2.0690   -8.4150 H   0  0  0  0  0  0  0  0  0  0  0  0
   -5.9010    7.5390  -16.0230 H   0  0  0  0  0  0  0  0  0  0  0  0
   -5.9030    6.4730  -18.2390 H   0  0  0  0  0  0  0  0  0  0  0  0
   -8.1220    3.6150  -19.3600 H   0  0  0  0  0  0  0  0  0  0  0  0
   -8.1400    5.2620  -19.8010 H   0  0  0  0  0  0  0  0  0  0  0  0
   -6.6100    4.4590  -19.4400 H   0  0  0  0  0  0  0  0  0  0  0  0
  1  2  1  0
  2  3  1  0
  3  4  2  0
  4  5  1  0
  5  6  2  0
  6  7  1  0
  7  8  1  0
  8  9  2  0
  9 10  1  0
 10 11  2  0
 11 12  1  0
 12 13  2  0
 13 14  1  0
 13 15  1  0
 15 16  2  0
 16 17  1  0
  6 18  1  0
 18  3  1  0
 17  8  1  0
 16 10  1  0
  1 19  1  0
  1 20  1  0
  1 21  1  0
  2 22  1  0
  2 23  1  0
 11 24  1  0
 12 25  1  0
 14 26  1  0
 14 27  1  0
 14 28  1  0
A    1
 C1 
A    2
 C2 
A    3
 C3 
A    4
 N1 
A    5
 N2 
A    6
 C4 
A    7
 S1 
A    8
 C5 
A    9
 N3 
A   10
 C6 
A   11
 C7 
A   12
 C8 
A   13
 C9 
A   14
 C10
A   15
 N4 
A   16
 C11
A   17
 S2 
A   18
 S3 
A   19
 H1 
A   20
 H2 
A   21
 H3 
A   22
 H4 
A   23
 H5 
A   24
 H6 
A   25
 H7 
A   26
 H8 
A   27
 H9 
A   28
 H10
M  END
>  <ref_pdb>  (173) 
x0051_0B

>  <ref_mols>  (173) 
x0404_0B,x0969_0B

>  <original SMILES>  (173) 
[H]c1c(C([H])([H])[H])nc2sc(Sc3nnc(C([H])([H])C([H])([H])[H])s3)nc2c1[H]

>  <index>  (173) 
3974

>  <∆∆G>  (173) 
-7.683812

>  <comRMSD>  (173) 
0.870853

>  <N_constrained_atoms>  (173) 
17.0

>  <N_unconstrained_atoms>  (173) 
1.0

>  <LE>  (173) 
0.426878

>  <percent_hybrid>  (173) 
0.0

>  <max_hit_Tanimoto>  (173) 
0.332792

>  <largest_ring>  (173) 
6

>  <N_interactions_kept>  (173) 
0.0

>  <N_interactions_lost>  (173) 
0.0

>  <interaction_uniqueness_metric>  (173) 
0.095691

>  <N_HA>  (173) 
18

>  <N_rotatable_bonds>  (173) 
5

>  <N_interactions>  (173) 
5

>  <N_PAINS>  (173) 
0

>  <UFF_Gibbs>  (173) 
61.602074

>  <strain_per_HA>  (173) 
3.422318

>  <ad_hoc_penalty>  (173) 
-34.775721

>  <cluster>  (173) 
2068

>  <merger_rank>  (173) 
3

>  <pication:ARG:29>  (173) 
0

>  <hbond:HIS:51>  (173) 
0

>  <pistack:HIS:51>  (173) 
1

>  <hydroph_interaction:TYR:161>  (173) 
1

>  <pication:HIS:51>  (173) 
0

>  <hydroph_interaction:ALA:132>  (173) 
1

>  <hydroph_interaction:TYR:150>  (173) 
0

>  <hydroph_interaction:LYS:54>  (173) 
0

>  <hbond:SER:135>  (173) 
0

>  <hydroph_interaction:HIS:51>  (173) 
1

>  <hbond:ASP:83>  (173) 
0

>  <hbond:ALA:132>  (173) 
0

>  <halogenbond:SER:81>  (173) 
0

>  <hbond:GLY:82>  (173) 
0

>  <saltbridge:HIS:51>  (173) 
0

>  <pistack:TYR:161>  (173) 
1

>  <hbond:SER:81>  (173) 
0

>  <hbond:ASN:152>  (173) 
0

>  <hbond:GLY:151>  (173) 
0

>  <hydroph_interaction:ASN:152>  (173) 
0

>  <hbond:TYR:161>  (173) 
0

>  <halogenbond:TYR:150>  (173) 
0

>  <hbond:ASP:75>  (173) 
0

>  <hbond:GLY:153>  (173) 
0

>  <hbond:VAL:36>  (173) 
0

>  <hbond:PRO:131>  (173) 
0

>  <hbond:VAL:52>  (173) 
0

>  <hydroph_interaction:ASP:83>  (173) 
0

>  <hydroph_interaction:MET:49>  (173) 
0

>  <hydroph_interaction:VAL:52>  (173) 
0

>  <saltbridge:ASP:83>  (173) 
0

>  <saltbridge:ASP:75>  (173) 
0

>  <hydroph_interaction:TRP:50>  (173) 
0

>  <hydroph_interaction:VAL:72>  (173) 
0

>  <hydroph_interaction:ASP:75>  (173) 
0

>  <halogenbond:ASN:152>  (173) 
0

>  <halogenbond:GLY:153>  (173) 
0

>  <halogenbond:TYR:130>  (173) 
0

>  <hbond:TYR:130>  (173) 
0

>  <halogenbond:ASP:75>  (173) 
0

>  <halogenbond:GLY:151>  (173) 
0

>  <hbond:TYR:150>  (173) 
0

>  <halogenbond:TYR:161>  (173) 
0

>  <hydroph_interaction:ASP:129>  (173) 
0

>  <hbond:ASP:129>  (173) 
0

>  <halogenbond:ALA:132>  (173) 
0

$$$$
Z1664932182
     RDKit          3D

 33 36  0  0  0  0  0  0  0  0999 V2000
   -9.5750    3.2160   -6.9700 C   0  0  0  0  0  0  0  0  0  0  0  0
   -9.3300    3.6670   -8.3980 C   0  0  0  0  0  0  0  0  0  0  0  0
   -9.1640    2.6980   -9.4760 C   0  0  0  0  0  0  0  0  0  0  0  0
   -8.9680    3.4470  -10.6790 C   0  0  0  0  0  0  0  0  0  0  0  0
   -9.0190    4.9130  -10.2980 C   0  0  0  0  0  0  0  0  0  0  0  0
   -8.8790    6.0150  -11.2090 C   0  0  0  0  0  0  0  0  0  0  0  0
   -9.5830    7.1320  -11.1910 N   0  0  0  0  0  0  0  0  0  0  0  0
   -9.1290    7.9090  -12.2320 N   0  0  0  0  0  0  0  0  0  0  0  0
   -8.1520    7.1830  -12.8040 C   0  0  0  0  0  0  0  0  0  0  0  0
   -7.3690    7.6060  -13.8940 C   0  0  0  0  0  0  0  0  0  0  0  0
   -7.5810    6.7870  -15.0840 N   0  0  0  0  0  0  0  0  0  0  0  0
   -6.7400    6.8120  -16.1420 C   0  0  0  0  0  0  0  0  0  0  0  0
   -7.3070    5.9510  -17.0320 C   0  0  0  0  0  0  0  0  0  0  0  0
   -6.6320    5.7700  -18.3120 C   0  0  0  0  0  0  0  0  0  0  0  0
   -7.3950    4.8800  -19.0390 C   0  0  0  0  0  0  0  0  0  0  0  0
   -8.6160    4.2980  -18.5150 C   0  0  0  0  0  0  0  0  0  0  0  0
   -9.1900    4.5370  -17.2370 C   0  0  0  0  0  0  0  0  0  0  0  0
   -8.4720    5.4240  -16.4740 C   0  0  0  0  0  0  0  0  0  0  0  0
   -8.6390    5.9460  -15.2350 N   0  0  0  0  0  0  0  0  0  0  0  0
   -7.9500    5.9690  -12.2110 O   0  0  0  0  0  0  0  0  0  0  0  0
   -9.2360    4.9770   -8.8980 O   0  0  0  0  0  0  0  0  0  0  0  0
  -10.1280    3.9670   -6.3990 H   0  0  0  0  0  0  0  0  0  0  0  0
  -10.1690    2.2950   -6.9720 H   0  0  0  0  0  0  0  0  0  0  0  0
   -8.6380    3.0130   -6.4420 H   0  0  0  0  0  0  0  0  0  0  0  0
   -9.2140    1.6430   -9.1990 H   0  0  0  0  0  0  0  0  0  0  0  0
   -8.8140    3.0320  -11.6840 H   0  0  0  0  0  0  0  0  0  0  0  0
   -6.3040    7.4700  -13.7340 H   0  0  0  0  0  0  0  0  0  0  0  0
   -7.4080    8.6430  -14.1880 H   0  0  0  0  0  0  0  0  0  0  0  0
   -5.8640    7.4400  -16.1210 H   0  0  0  0  0  0  0  0  0  0  0  0
   -5.7150    6.2370  -18.6410 H   0  0  0  0  0  0  0  0  0  0  0  0
   -7.1970    4.5160  -20.0400 H   0  0  0  0  0  0  0  0  0  0  0  0
   -9.1430    3.6080  -19.1680 H   0  0  0  0  0  0  0  0  0  0  0  0
  -10.0940    4.0890  -16.8890 H   0  0  0  0  0  0  0  0  0  0  0  0
  1  2  1  0
  2  3  2  0
  3  4  1  0
  4  5  2  0
  5  6  1  0
  6  7  2  0
  7  8  1  0
  8  9  2  0
  9 10  1  0
 10 11  1  0
 11 12  1  0
 12 13  2  0
 13 14  1  0
 14 15  2  0
 15 16  1  0
 16 17  2  0
 17 18  1  0
 18 19  2  0
  9 20  1  0
  5 21  1  0
 21  2  1  0
 20  6  1  0
 19 11  1  0
 18 13  1  0
  1 22  1  0
  1 23  1  0
  1 24  1  0
  3 25  1  0
  4 26  1  0
 10 27  1  0
 10 28  1  0
 12 29  1  0
 14 30  1  0
 15 31  1  0
 16 32  1  0
 17 33  1  0
A    1
 C1 
A    2
 C2 
A    3
 C3 
A    4
 C4 
A    5
 C5 
A    6
 C6 
A    7
 N1 
A    8
 N2 
A    9
 C7 
A   10
 C8 
A   11
 N3 
A   12
 C9 
A   13
 C10
A   14
 C11
A   15
 C12
A   16
 C13
A   17
 C14
A   18
 C15
A   19
 N4 
A   20
 O1 
A   21
 O2 
A   22
 H1 
A   23
 H2 
A   24
 H3 
A   25
 H4 
A   26
 H5 
A   27
 H6 
A   28
 H7 
A   29
 H8 
A   30
 H9 
A   31
 H10
A   32
 H11
A   33
 H12
M  END
>  <ref_pdb>  (174) 
x0051_0B

>  <ref_mols>  (174) 
x0404_0B,x0969_0B

>  <original SMILES>  (174) 
[H]c1c(-c2nnc(C([H])([H])n3nc4c([H])c([H])c([H])c([H])c4c3[H])o2)oc(C([H])([H])[H])c1[H]

>  <index>  (174) 
2446

>  <∆∆G>  (174) 
-6.854632

>  <comRMSD>  (174) 
0.569388

>  <N_constrained_atoms>  (174) 
20.0

>  <N_unconstrained_atoms>  (174) 
1.0

>  <LE>  (174) 
0.326411

>  <percent_hybrid>  (174) 
0.0

>  <max_hit_Tanimoto>  (174) 
0.431307

>  <largest_ring>  (174) 
6

>  <N_interactions_kept>  (174) 
0.0

>  <N_interactions_lost>  (174) 
0.0

>  <interaction_uniqueness_metric>  (174) 
0.077503

>  <N_HA>  (174) 
21

>  <N_rotatable_bonds>  (174) 
4

>  <N_interactions>  (174) 
5

>  <N_PAINS>  (174) 
0

>  <UFF_Gibbs>  (174) 
91.361725

>  <strain_per_HA>  (174) 
4.350538

>  <ad_hoc_penalty>  (174) 
-34.694728

>  <cluster>  (174) 
552

>  <merger_rank>  (174) 
4

>  <pication:ARG:29>  (174) 
0

>  <hbond:HIS:51>  (174) 
0

>  <pistack:HIS:51>  (174) 
1

>  <hydroph_interaction:TYR:161>  (174) 
2

>  <pication:HIS:51>  (174) 
0

>  <hydroph_interaction:ALA:132>  (174) 
1

>  <hydroph_interaction:TYR:150>  (174) 
0

>  <hydroph_interaction:LYS:54>  (174) 
0

>  <hbond:SER:135>  (174) 
0

>  <hydroph_interaction:HIS:51>  (174) 
1

>  <hbond:ASP:83>  (174) 
0

>  <hbond:ALA:132>  (174) 
0

>  <halogenbond:SER:81>  (174) 
0

>  <hbond:GLY:82>  (174) 
0

>  <saltbridge:HIS:51>  (174) 
0

>  <pistack:TYR:161>  (174) 
0

>  <hbond:SER:81>  (174) 
0

>  <hbond:ASN:152>  (174) 
0

>  <hbond:GLY:151>  (174) 
0

>  <hydroph_interaction:ASN:152>  (174) 
0

>  <hbond:TYR:161>  (174) 
0

>  <halogenbond:TYR:150>  (174) 
0

>  <hbond:ASP:75>  (174) 
0

>  <hbond:GLY:153>  (174) 
0

>  <hbond:VAL:36>  (174) 
0

>  <hbond:PRO:131>  (174) 
0

>  <hbond:VAL:52>  (174) 
0

>  <hydroph_interaction:ASP:83>  (174) 
0

>  <hydroph_interaction:MET:49>  (174) 
0

>  <hydroph_interaction:VAL:52>  (174) 
0

>  <saltbridge:ASP:83>  (174) 
0

>  <saltbridge:ASP:75>  (174) 
0

>  <hydroph_interaction:TRP:50>  (174) 
0

>  <hydroph_interaction:VAL:72>  (174) 
0

>  <hydroph_interaction:ASP:75>  (174) 
0

>  <halogenbond:ASN:152>  (174) 
0

>  <halogenbond:GLY:153>  (174) 
0

>  <halogenbond:TYR:130>  (174) 
0

>  <hbond:TYR:130>  (174) 
0

>  <halogenbond:ASP:75>  (174) 
0

>  <halogenbond:GLY:151>  (174) 
0

>  <hbond:TYR:150>  (174) 
0

>  <halogenbond:TYR:161>  (174) 
0

>  <hydroph_interaction:ASP:129>  (174) 
0

>  <hbond:ASP:129>  (174) 
0

>  <halogenbond:ALA:132>  (174) 
0

$$$$
Z772251094
     RDKit          3D

 29 31  0  0  0  0  0  0  0  0999 V2000
   -7.0010    5.0520  -14.7290 O   0  0  0  0  0  0  0  0  0  0  0  0
   -7.7490    5.7910  -15.3650 C   0  0  0  0  0  0  0  0  0  0  0  0
   -8.5760    6.7360  -14.6870 N   0  0  0  0  0  0  0  0  0  0  0  0
   -8.7280    6.3380  -13.3940 C   0  0  0  0  0  0  0  0  0  0  0  0
   -8.7360    4.8820  -13.1880 C   0  0  0  0  0  0  0  0  0  0  0  0
   -8.8710    4.4220  -11.8890 C   0  0  0  0  0  0  0  0  0  0  0  0
   -9.0010    5.3360  -10.7510 C   0  0  0  0  0  0  0  0  0  0  0  0
   -9.1240    4.6130   -9.5210 C   0  0  0  0  0  0  0  0  0  0  0  0
   -9.4470    3.2810   -9.3290 C   0  0  0  0  0  0  0  0  0  0  0  0
   -9.4950    2.9060   -8.1050 N   0  0  0  0  0  0  0  0  0  0  0  0
   -9.1680    4.0960   -7.5120 C   0  0  0  0  0  0  0  0  0  0  0  0
   -8.9500    5.1320   -8.3960 O   0  0  0  0  0  0  0  0  0  0  0  0
   -8.9990    6.7280  -10.9540 C   0  0  0  0  0  0  0  0  0  0  0  0
   -8.8640    7.2610  -12.2680 C   0  0  0  0  0  0  0  0  0  0  0  0
   -7.7990    5.6390  -16.8080 C   0  0  0  0  0  0  0  0  0  0  0  0
   -8.8280    4.9080  -17.4280 C   0  0  0  0  0  0  0  0  0  0  0  0
   -8.6640    4.8540  -19.1230 S   0  0  0  0  0  0  0  0  0  0  0  0
   -7.2400    5.7940  -19.0700 C   0  0  0  0  0  0  0  0  0  0  0  0
   -6.8850    6.1440  -17.7880 C   0  0  0  0  0  0  0  0  0  0  0  0
   -9.4880    6.9750  -15.0520 H   0  0  0  0  0  0  0  0  0  0  0  0
   -8.6380    4.1700  -14.0050 H   0  0  0  0  0  0  0  0  0  0  0  0
   -8.8690    3.3280  -11.8150 H   0  0  0  0  0  0  0  0  0  0  0  0
   -9.6590    2.5680  -10.1160 H   0  0  0  0  0  0  0  0  0  0  0  0
   -9.0810    4.2480   -6.4460 H   0  0  0  0  0  0  0  0  0  0  0  0
   -9.1030    7.3960  -10.1050 H   0  0  0  0  0  0  0  0  0  0  0  0
   -8.8520    8.3160  -12.4990 H   0  0  0  0  0  0  0  0  0  0  0  0
   -9.6570    4.4100  -16.9430 H   0  0  0  0  0  0  0  0  0  0  0  0
   -6.7280    6.0450  -19.9920 H   0  0  0  0  0  0  0  0  0  0  0  0
   -6.0050    6.7370  -17.5840 H   0  0  0  0  0  0  0  0  0  0  0  0
  1  2  2  0
  2  3  1  0
  3  4  1  0
  4  5  2  0
  5  6  1  0
  6  7  2  0
  7  8  1  0
  8  9  2  0
  9 10  1  0
 10 11  2  0
 11 12  1  0
  7 13  1  0
 13 14  2  0
  2 15  1  0
 15 16  2  0
 16 17  1  0
 17 18  1  0
 18 19  2  0
 14  4  1  0
 12  8  1  0
 19 15  1  0
  3 20  1  0
  5 21  1  0
  6 22  1  0
  9 23  1  0
 11 24  1  0
 13 25  1  0
 14 26  1  0
 16 27  1  0
 18 28  1  0
 19 29  1  0
A    1
 O1 
A    2
 C1 
A    3
 N1 
A    4
 C2 
A    5
 C3 
A    6
 C4 
A    7
 C5 
A    8
 C6 
A    9
 C7 
A   10
 N2 
A   11
 C8 
A   12
 O2 
A   13
 C9 
A   14
 C10
A   15
 C11
A   16
 C12
A   17
 S1 
A   18
 C13
A   19
 C14
A   20
 H1 
A   21
 H2 
A   22
 H3 
A   23
 H4 
A   24
 H5 
A   25
 H6 
A   26
 H7 
A   27
 H8 
A   28
 H9 
A   29
 H10
M  END
>  <ref_pdb>  (175) 
x0051_0B

>  <ref_mols>  (175) 
x0404_0B,x0969_0B

>  <original SMILES>  (175) 
[H]c1nc([H])c(-c2c([H])c([H])c(N([H])C(=O)c3c([H])sc([H])c3[H])c([H])c2[H])o1

>  <index>  (175) 
2722

>  <∆∆G>  (175) 
-6.009417

>  <comRMSD>  (175) 
0.504236

>  <N_constrained_atoms>  (175) 
19.0

>  <N_unconstrained_atoms>  (175) 
0.0

>  <LE>  (175) 
0.316285

>  <percent_hybrid>  (175) 
0.0

>  <max_hit_Tanimoto>  (175) 
0.237607

>  <largest_ring>  (175) 
6

>  <N_interactions_kept>  (175) 
0.0

>  <N_interactions_lost>  (175) 
0.0

>  <interaction_uniqueness_metric>  (175) 
0.112617

>  <N_HA>  (175) 
19

>  <N_rotatable_bonds>  (175) 
3

>  <N_interactions>  (175) 
5

>  <N_PAINS>  (175) 
0

>  <UFF_Gibbs>  (175) 
107.10759

>  <strain_per_HA>  (175) 
5.637212

>  <ad_hoc_penalty>  (175) 
-34.680987

>  <cluster>  (175) 
2861

>  <merger_rank>  (175) 
3

>  <pication:ARG:29>  (175) 
0

>  <hbond:HIS:51>  (175) 
1

>  <pistack:HIS:51>  (175) 
1

>  <hydroph_interaction:TYR:161>  (175) 
1

>  <pication:HIS:51>  (175) 
0

>  <hydroph_interaction:ALA:132>  (175) 
1

>  <hydroph_interaction:TYR:150>  (175) 
0

>  <hydroph_interaction:LYS:54>  (175) 
0

>  <hbond:SER:135>  (175) 
0

>  <hydroph_interaction:HIS:51>  (175) 
1

>  <hbond:ASP:83>  (175) 
0

>  <hbond:ALA:132>  (175) 
0

>  <halogenbond:SER:81>  (175) 
0

>  <hbond:GLY:82>  (175) 
0

>  <saltbridge:HIS:51>  (175) 
0

>  <pistack:TYR:161>  (175) 
0

>  <hbond:SER:81>  (175) 
0

>  <hbond:ASN:152>  (175) 
0

>  <hbond:GLY:151>  (175) 
0

>  <hydroph_interaction:ASN:152>  (175) 
0

>  <hbond:TYR:161>  (175) 
0

>  <halogenbond:TYR:150>  (175) 
0

>  <hbond:ASP:75>  (175) 
0

>  <hbond:GLY:153>  (175) 
0

>  <hbond:VAL:36>  (175) 
0

>  <hbond:PRO:131>  (175) 
0

>  <hbond:VAL:52>  (175) 
0

>  <hydroph_interaction:ASP:83>  (175) 
0

>  <hydroph_interaction:MET:49>  (175) 
0

>  <hydroph_interaction:VAL:52>  (175) 
0

>  <saltbridge:ASP:83>  (175) 
0

>  <saltbridge:ASP:75>  (175) 
0

>  <hydroph_interaction:TRP:50>  (175) 
0

>  <hydroph_interaction:VAL:72>  (175) 
0

>  <hydroph_interaction:ASP:75>  (175) 
0

>  <halogenbond:ASN:152>  (175) 
0

>  <halogenbond:GLY:153>  (175) 
0

>  <halogenbond:TYR:130>  (175) 
0

>  <hbond:TYR:130>  (175) 
0

>  <halogenbond:ASP:75>  (175) 
0

>  <halogenbond:GLY:151>  (175) 
0

>  <hbond:TYR:150>  (175) 
0

>  <halogenbond:TYR:161>  (175) 
0

>  <hydroph_interaction:ASP:129>  (175) 
0

>  <hbond:ASP:129>  (175) 
0

>  <halogenbond:ALA:132>  (175) 
0

$$$$
PV-002977168383
     RDKit          3D

 22 23  0  0  0  0  0  0  0  0999 V2000
   -9.2880    4.8780  -19.0750 F   0  0  0  0  0  0  0  0  0  0  0  0
   -8.9890    4.9650  -17.7750 C   0  0  0  0  0  0  0  0  0  0  0  0
   -7.5480    5.0960  -17.3440 C   0  0  0  0  0  0  0  0  0  0  0  0
   -7.4740    5.1590  -15.8840 C   0  0  0  0  0  0  0  0  0  0  0  0
   -8.4900    5.1200  -14.9770 C   0  0  0  0  0  0  0  0  0  0  0  0
   -8.3430    5.1660  -13.5910 N   0  0  0  0  0  0  0  0  0  0  0  0
   -9.1010    4.2850  -12.8310 C   0  0  0  0  0  0  0  0  0  0  0  0
   -9.0000    4.4960  -11.3780 C   0  0  0  0  0  0  0  0  0  0  0  0
   -9.0130    3.2480  -10.5070 C   0  0  0  0  0  0  0  0  0  0  0  0
   -8.9050    3.8670   -9.2100 C   0  0  0  0  0  0  0  0  0  0  0  0
   -8.8350    5.2410   -9.2760 C   0  0  0  0  0  0  0  0  0  0  0  0
   -8.8930    5.6640  -10.5950 O   0  0  0  0  0  0  0  0  0  0  0  0
   -9.7270    5.0190  -15.4960 N   0  0  0  0  0  0  0  0  0  0  0  0
   -9.9750    4.9400  -16.8640 N   0  0  0  0  0  0  0  0  0  0  0  0
   -6.6090    5.1430  -17.8760 H   0  0  0  0  0  0  0  0  0  0  0  0
   -6.4980    5.2440  -15.3910 H   0  0  0  0  0  0  0  0  0  0  0  0
   -7.3620    5.0740  -13.3430 H   0  0  0  0  0  0  0  0  0  0  0  0
  -10.0890    4.0950  -13.2180 H   0  0  0  0  0  0  0  0  0  0  0  0
   -8.5950    3.3340  -13.0220 H   0  0  0  0  0  0  0  0  0  0  0  0
   -9.0830    2.1980  -10.7710 H   0  0  0  0  0  0  0  0  0  0  0  0
   -8.8850    3.2170   -8.3300 H   0  0  0  0  0  0  0  0  0  0  0  0
   -8.7460    5.9390   -8.4510 H   0  0  0  0  0  0  0  0  0  0  0  0
  1  2  1  0
  2  3  2  0
  3  4  1  0
  4  5  2  0
  5  6  1  0
  6  7  1  0
  7  8  1  0
  8  9  2  0
  9 10  1  0
 10 11  2  0
 11 12  1  0
  5 13  1  0
 13 14  2  0
 14  2  1  0
 12  8  1  0
  3 15  1  0
  4 16  1  0
  6 17  1  0
  7 18  1  0
  7 19  1  0
  9 20  1  0
 10 21  1  0
 11 22  1  0
A    1
 F1 
A    2
 C1 
A    3
 C2 
A    4
 C3 
A    5
 C4 
A    6
 N1 
A    7
 C5 
A    8
 C6 
A    9
 C7 
A   10
 C8 
A   11
 C9 
A   12
 O1 
A   13
 N2 
A   14
 N3 
A   15
 H1 
A   16
 H2 
A   17
 H3 
A   18
 H4 
A   19
 H5 
A   20
 H6 
A   21
 H7 
A   22
 H8 
M  END
>  <ref_pdb>  (176) 
x0051_0B

>  <ref_mols>  (176) 
x0969_1B,x0553_0B

>  <original SMILES>  (176) 
[H]c1oc(C([H])([H])N([H])c2nnc(F)c([H])c2[H])c([H])c1[H]

>  <index>  (176) 
4605

>  <∆∆G>  (176) 
-3.097414

>  <comRMSD>  (176) 
0.373444

>  <N_constrained_atoms>  (176) 
13.0

>  <N_unconstrained_atoms>  (176) 
1.0

>  <LE>  (176) 
0.221244

>  <percent_hybrid>  (176) 
0.0

>  <max_hit_Tanimoto>  (176) 
0.205882

>  <largest_ring>  (176) 
6

>  <N_interactions_kept>  (176) 
0.0

>  <N_interactions_lost>  (176) 
0.0

>  <interaction_uniqueness_metric>  (176) 
0.379196

>  <N_HA>  (176) 
14

>  <N_rotatable_bonds>  (176) 
3

>  <N_interactions>  (176) 
6

>  <N_PAINS>  (176) 
0

>  <UFF_Gibbs>  (176) 
77.605726

>  <strain_per_HA>  (176) 
5.543227

>  <ad_hoc_penalty>  (176) 
-34.638819

>  <cluster>  (176) 
1645

>  <merger_rank>  (176) 
2

>  <pication:ARG:29>  (176) 
0

>  <hbond:HIS:51>  (176) 
0

>  <pistack:HIS:51>  (176) 
1

>  <hydroph_interaction:TYR:161>  (176) 
1

>  <pication:HIS:51>  (176) 
0

>  <hydroph_interaction:ALA:132>  (176) 
0

>  <hydroph_interaction:TYR:150>  (176) 
0

>  <hydroph_interaction:LYS:54>  (176) 
0

>  <hbond:SER:135>  (176) 
1

>  <hydroph_interaction:HIS:51>  (176) 
1

>  <hbond:ASP:83>  (176) 
0

>  <hbond:ALA:132>  (176) 
0

>  <halogenbond:SER:81>  (176) 
0

>  <hbond:GLY:82>  (176) 
0

>  <saltbridge:HIS:51>  (176) 
0

>  <pistack:TYR:161>  (176) 
0

>  <hbond:SER:81>  (176) 
0

>  <hbond:ASN:152>  (176) 
0

>  <hbond:GLY:151>  (176) 
0

>  <hydroph_interaction:ASN:152>  (176) 
0

>  <hbond:TYR:161>  (176) 
0

>  <halogenbond:TYR:150>  (176) 
1

>  <hbond:ASP:75>  (176) 
0

>  <hbond:GLY:153>  (176) 
0

>  <hbond:VAL:36>  (176) 
0

>  <hbond:PRO:131>  (176) 
0

>  <hbond:VAL:52>  (176) 
0

>  <hydroph_interaction:ASP:83>  (176) 
0

>  <hydroph_interaction:MET:49>  (176) 
0

>  <hydroph_interaction:VAL:52>  (176) 
0

>  <saltbridge:ASP:83>  (176) 
0

>  <saltbridge:ASP:75>  (176) 
0

>  <hydroph_interaction:TRP:50>  (176) 
0

>  <hydroph_interaction:VAL:72>  (176) 
0

>  <hydroph_interaction:ASP:75>  (176) 
0

>  <halogenbond:ASN:152>  (176) 
0

>  <halogenbond:GLY:153>  (176) 
0

>  <halogenbond:TYR:130>  (176) 
1

>  <hbond:TYR:130>  (176) 
0

>  <halogenbond:ASP:75>  (176) 
0

>  <halogenbond:GLY:151>  (176) 
0

>  <hbond:TYR:150>  (176) 
0

>  <halogenbond:TYR:161>  (176) 
0

>  <hydroph_interaction:ASP:129>  (176) 
0

>  <hbond:ASP:129>  (176) 
0

>  <halogenbond:ALA:132>  (176) 
0

$$$$
Z3300681688
     RDKit          3D

 29 31  0  0  0  0  0  0  0  0999 V2000
  -10.2360    7.3200  -11.4120 N   0  0  0  0  0  0  0  0  0  0  0  0
   -9.6480    6.0990  -11.8920 C   0  0  2  0  0  0  0  0  0  0  0  0
   -8.7140    5.2610  -11.0580 C   0  0  0  0  0  0  0  0  0  0  0  0
   -9.3440    4.0870  -10.4500 C   0  0  0  0  0  0  0  0  0  0  0  0
   -8.6820    3.1890   -9.6620 C   0  0  0  0  0  0  0  0  0  0  0  0
   -7.3080    3.4020   -9.4130 C   0  0  0  0  0  0  0  0  0  0  0  0
   -6.6770    4.5150   -9.9820 C   0  0  0  0  0  0  0  0  0  0  0  0
   -7.3490    5.4350  -10.7890 C   0  0  0  0  0  0  0  0  0  0  0  0
   -8.9100    6.3560  -13.1780 C   0  0  0  0  0  0  0  0  0  0  0  0
   -8.8450    5.6160  -14.2690 N   0  0  0  0  0  0  0  0  0  0  0  0
   -8.0370    6.3380  -15.0720 C   0  0  0  0  0  0  0  0  0  0  0  0
   -7.6730    5.9400  -16.3620 C   0  0  0  0  0  0  0  0  0  0  0  0
   -8.6390    5.1850  -17.0630 C   0  0  0  0  0  0  0  0  0  0  0  0
   -8.1350    4.8880  -18.3190 C   0  0  0  0  0  0  0  0  0  0  0  0
   -6.8610    5.3860  -18.5440 C   0  0  0  0  0  0  0  0  0  0  0  0
   -6.2410    6.2420  -17.2070 S   0  0  0  0  0  0  0  0  0  0  0  0
   -7.6010    7.4890  -14.5280 N   0  0  0  0  0  0  0  0  0  0  0  0
   -8.1830    7.5060  -13.2640 O   0  0  0  0  0  0  0  0  0  0  0  0
  -10.9900    7.7590  -11.9150 H   0  0  0  0  0  0  0  0  0  0  0  0
   -9.5180    7.9140  -11.0230 H   0  0  0  0  0  0  0  0  0  0  0  0
  -10.4790    5.4480  -12.1910 H   0  0  0  0  0  0  0  0  0  0  0  0
  -10.3670    3.7410  -10.5100 H   0  0  0  0  0  0  0  0  0  0  0  0
   -9.1820    2.3170   -9.2210 H   0  0  0  0  0  0  0  0  0  0  0  0
   -6.7300    2.7270   -8.7950 H   0  0  0  0  0  0  0  0  0  0  0  0
   -5.6350    4.7940   -9.8730 H   0  0  0  0  0  0  0  0  0  0  0  0
   -6.6720    6.2270  -11.1300 H   0  0  0  0  0  0  0  0  0  0  0  0
   -9.6100    4.8940  -16.6790 H   0  0  0  0  0  0  0  0  0  0  0  0
   -8.6830    4.3110  -19.0710 H   0  0  0  0  0  0  0  0  0  0  0  0
   -6.2650    5.2810  -19.4410 H   0  0  0  0  0  0  0  0  0  0  0  0
  1  2  1  0
  2  3  1  0
  3  4  2  0
  4  5  1  0
  5  6  2  0
  6  7  1  0
  7  8  2  0
  2  9  1  0
  9 10  2  0
 10 11  1  0
 11 12  1  0
 12 13  2  0
 13 14  1  0
 14 15  2  0
 15 16  1  0
 11 17  2  0
 17 18  1  0
  8  3  1  0
 18  9  1  0
 16 12  1  0
  1 19  1  0
  1 20  1  0
  2 21  1  6
  4 22  1  0
  5 23  1  0
  6 24  1  0
  7 25  1  0
  8 26  1  0
 13 27  1  0
 14 28  1  0
 15 29  1  0
A    1
 N1 
A    2
 C1 
A    3
 C2 
A    4
 C3 
A    5
 C4 
A    6
 C5 
A    7
 C6 
A    8
 C7 
A    9
 C8 
A   10
 N2 
A   11
 C9 
A   12
 C10
A   13
 C11
A   14
 C12
A   15
 C13
A   16
 S1 
A   17
 N3 
A   18
 O1 
A   19
 H1 
A   20
 H2 
A   21
 H3 
A   22
 H4 
A   23
 H5 
A   24
 H6 
A   25
 H7 
A   26
 H8 
A   27
 H9 
A   28
 H10
A   29
 H11
M  END
>  <ref_pdb>  (177) 
x0051_0B

>  <ref_mols>  (177) 
x0404_0B,x0969_0B

>  <original SMILES>  (177) 
[H]c1sc(-c2noc([C@@]([H])(c3c([H])c([H])c([H])c([H])c3[H])N([H])[H])n2)c([H])c1[H]

>  <index>  (177) 
2266

>  <∆∆G>  (177) 
-5.62387

>  <comRMSD>  (177) 
0.347033

>  <N_constrained_atoms>  (177) 
18.0

>  <N_unconstrained_atoms>  (177) 
0.0

>  <LE>  (177) 
0.312437

>  <percent_hybrid>  (177) 
0.0

>  <max_hit_Tanimoto>  (177) 
0.281442

>  <largest_ring>  (177) 
6

>  <N_interactions_kept>  (177) 
0.0

>  <N_interactions_lost>  (177) 
0.0

>  <interaction_uniqueness_metric>  (177) 
0.216403

>  <N_HA>  (177) 
18

>  <N_rotatable_bonds>  (177) 
4

>  <N_interactions>  (177) 
5

>  <N_PAINS>  (177) 
0

>  <UFF_Gibbs>  (177) 
61.983745

>  <strain_per_HA>  (177) 
3.443522

>  <ad_hoc_penalty>  (177) 
-34.637592

>  <cluster>  (177) 
259

>  <merger_rank>  (177) 
3

>  <pication:ARG:29>  (177) 
0

>  <hbond:HIS:51>  (177) 
0

>  <pistack:HIS:51>  (177) 
0

>  <hydroph_interaction:TYR:161>  (177) 
1

>  <pication:HIS:51>  (177) 
0

>  <hydroph_interaction:ALA:132>  (177) 
1

>  <hydroph_interaction:TYR:150>  (177) 
0

>  <hydroph_interaction:LYS:54>  (177) 
0

>  <hbond:SER:135>  (177) 
1

>  <hydroph_interaction:HIS:51>  (177) 
1

>  <hbond:ASP:83>  (177) 
0

>  <hbond:ALA:132>  (177) 
0

>  <halogenbond:SER:81>  (177) 
0

>  <hbond:GLY:82>  (177) 
0

>  <saltbridge:HIS:51>  (177) 
0

>  <pistack:TYR:161>  (177) 
0

>  <hbond:SER:81>  (177) 
0

>  <hbond:ASN:152>  (177) 
0

>  <hbond:GLY:151>  (177) 
0

>  <hydroph_interaction:ASN:152>  (177) 
0

>  <hbond:TYR:161>  (177) 
0

>  <halogenbond:TYR:150>  (177) 
0

>  <hbond:ASP:75>  (177) 
0

>  <hbond:GLY:153>  (177) 
0

>  <hbond:VAL:36>  (177) 
0

>  <hbond:PRO:131>  (177) 
0

>  <hbond:VAL:52>  (177) 
0

>  <hydroph_interaction:ASP:83>  (177) 
1

>  <hydroph_interaction:MET:49>  (177) 
0

>  <hydroph_interaction:VAL:52>  (177) 
0

>  <saltbridge:ASP:83>  (177) 
0

>  <saltbridge:ASP:75>  (177) 
0

>  <hydroph_interaction:TRP:50>  (177) 
0

>  <hydroph_interaction:VAL:72>  (177) 
0

>  <hydroph_interaction:ASP:75>  (177) 
0

>  <halogenbond:ASN:152>  (177) 
0

>  <halogenbond:GLY:153>  (177) 
0

>  <halogenbond:TYR:130>  (177) 
0

>  <hbond:TYR:130>  (177) 
0

>  <halogenbond:ASP:75>  (177) 
0

>  <halogenbond:GLY:151>  (177) 
0

>  <hbond:TYR:150>  (177) 
0

>  <halogenbond:TYR:161>  (177) 
0

>  <hydroph_interaction:ASP:129>  (177) 
0

>  <hbond:ASP:129>  (177) 
0

>  <halogenbond:ALA:132>  (177) 
0

$$$$
Z1724318355
     RDKit          3D

 29 31  0  0  0  0  0  0  0  0999 V2000
   -9.2700    2.6280   -9.5620 C   0  0  0  0  0  0  0  0  0  0  0  0
   -9.0570    3.9890   -9.6670 N   0  0  0  0  0  0  0  0  0  0  0  0
   -8.9440    4.7090  -10.8080 C   0  0  0  0  0  0  0  0  0  0  0  0
   -8.7370    6.0520  -10.5760 C   0  0  0  0  0  0  0  0  0  0  0  0
   -8.5860    7.0240  -11.4970 N   0  0  0  0  0  0  0  0  0  0  0  0
   -8.8560    6.8120  -12.8030 C   0  0  0  0  0  0  0  0  0  0  0  0
   -8.2110    6.2170  -13.7870 N   0  0  0  0  0  0  0  0  0  0  0  0
   -8.9190    6.2800  -14.9480 C   0  0  0  0  0  0  0  0  0  0  0  0
   -8.3290    5.6980  -16.1760 C   0  0  0  0  0  0  0  0  0  0  0  0
   -9.0570    5.0910  -17.1600 C   0  0  0  0  0  0  0  0  0  0  0  0
   -8.3680    4.5390  -18.4480 C   0  0  0  0  0  0  0  0  0  0  0  0
   -7.0290    4.6850  -18.5440 C   0  0  0  0  0  0  0  0  0  0  0  0
   -6.3430    5.2930  -17.5170 C   0  0  0  0  0  0  0  0  0  0  0  0
   -6.9480    5.7900  -16.3640 C   0  0  0  0  0  0  0  0  0  0  0  0
  -10.1040    6.8920  -14.9240 N   0  0  0  0  0  0  0  0  0  0  0  0
  -10.3520    7.4450  -13.3800 S   0  0  0  0  0  0  0  0  0  0  0  0
   -8.7360    6.0590   -9.1560 C   0  0  0  0  0  0  0  0  0  0  0  0
   -8.9310    4.8060   -8.6000 N   0  0  0  0  0  0  0  0  0  0  0  0
   -9.1640    2.3150   -8.5310 H   0  0  0  0  0  0  0  0  0  0  0  0
  -10.2770    2.3870   -9.9090 H   0  0  0  0  0  0  0  0  0  0  0  0
   -8.5470    2.0840  -10.1810 H   0  0  0  0  0  0  0  0  0  0  0  0
   -9.0110    4.2780  -11.8140 H   0  0  0  0  0  0  0  0  0  0  0  0
   -8.7120    7.9670  -11.1790 H   0  0  0  0  0  0  0  0  0  0  0  0
  -10.1270    5.0030  -17.0370 H   0  0  0  0  0  0  0  0  0  0  0  0
   -8.9530    4.0620  -19.2280 H   0  0  0  0  0  0  0  0  0  0  0  0
   -6.5060    4.3210  -19.4230 H   0  0  0  0  0  0  0  0  0  0  0  0
   -5.2630    5.3950  -17.6120 H   0  0  0  0  0  0  0  0  0  0  0  0
   -6.3400    6.2630  -15.6010 H   0  0  0  0  0  0  0  0  0  0  0  0
   -8.6090    6.8830   -8.4700 H   0  0  0  0  0  0  0  0  0  0  0  0
  1  2  1  0
  2  3  1  0
  3  4  2  0
  4  5  1  0
  5  6  1  0
  6  7  2  0
  7  8  1  0
  8  9  1  0
  9 10  2  0
 10 11  1  0
 11 12  2  0
 12 13  1  0
 13 14  2  0
  8 15  2  0
 15 16  1  0
  4 17  1  0
 17 18  2  0
 18  2  1  0
 16  6  1  0
 14  9  1  0
  1 19  1  0
  1 20  1  0
  1 21  1  0
  3 22  1  0
  5 23  1  0
 10 24  1  0
 11 25  1  0
 12 26  1  0
 13 27  1  0
 14 28  1  0
 17 29  1  0
A    1
 C1 
A    2
 N1 
A    3
 C2 
A    4
 C3 
A    5
 N2 
A    6
 C4 
A    7
 N3 
A    8
 C5 
A    9
 C6 
A   10
 C7 
A   11
 C8 
A   12
 C9 
A   13
 C10
A   14
 C11
A   15
 N4 
A   16
 S1 
A   17
 C12
A   18
 N5 
A   19
 H1 
A   20
 H2 
A   21
 H3 
A   22
 H4 
A   23
 H5 
A   24
 H6 
A   25
 H7 
A   26
 H8 
A   27
 H9 
A   28
 H10
A   29
 H11
M  END
>  <ref_pdb>  (178) 
x0051_0B

>  <ref_mols>  (178) 
x0404_0B,x0969_0B

>  <original SMILES>  (178) 
[H]c1nn(C([H])([H])[H])c([H])c1N([H])c1nc(-c2c([H])c([H])c([H])c([H])c2[H])ns1

>  <index>  (178) 
4397

>  <∆∆G>  (178) 
-5.893168

>  <comRMSD>  (178) 
0.302658

>  <N_constrained_atoms>  (178) 
18.0

>  <N_unconstrained_atoms>  (178) 
0.0

>  <LE>  (178) 
0.327398

>  <percent_hybrid>  (178) 
0.0

>  <max_hit_Tanimoto>  (178) 
0.446533

>  <largest_ring>  (178) 
6

>  <N_interactions_kept>  (178) 
0.0

>  <N_interactions_lost>  (178) 
0.0

>  <interaction_uniqueness_metric>  (178) 
0.161966

>  <N_HA>  (178) 
18

>  <N_rotatable_bonds>  (178) 
4

>  <N_interactions>  (178) 
5

>  <N_PAINS>  (178) 
0

>  <UFF_Gibbs>  (178) 
60.032726

>  <strain_per_HA>  (178) 
3.335133

>  <ad_hoc_penalty>  (178) 
-34.630215

>  <cluster>  (178) 
1792

>  <merger_rank>  (178) 
4

>  <pication:ARG:29>  (178) 
0

>  <hbond:HIS:51>  (178) 
0

>  <pistack:HIS:51>  (178) 
1

>  <hydroph_interaction:TYR:161>  (178) 
1

>  <pication:HIS:51>  (178) 
0

>  <hydroph_interaction:ALA:132>  (178) 
1

>  <hydroph_interaction:TYR:150>  (178) 
0

>  <hydroph_interaction:LYS:54>  (178) 
0

>  <hbond:SER:135>  (178) 
0

>  <hydroph_interaction:HIS:51>  (178) 
0

>  <hbond:ASP:83>  (178) 
0

>  <hbond:ALA:132>  (178) 
1

>  <halogenbond:SER:81>  (178) 
0

>  <hbond:GLY:82>  (178) 
0

>  <saltbridge:HIS:51>  (178) 
0

>  <pistack:TYR:161>  (178) 
1

>  <hbond:SER:81>  (178) 
0

>  <hbond:ASN:152>  (178) 
0

>  <hbond:GLY:151>  (178) 
0

>  <hydroph_interaction:ASN:152>  (178) 
0

>  <hbond:TYR:161>  (178) 
0

>  <halogenbond:TYR:150>  (178) 
0

>  <hbond:ASP:75>  (178) 
0

>  <hbond:GLY:153>  (178) 
0

>  <hbond:VAL:36>  (178) 
0

>  <hbond:PRO:131>  (178) 
0

>  <hbond:VAL:52>  (178) 
0

>  <hydroph_interaction:ASP:83>  (178) 
0

>  <hydroph_interaction:MET:49>  (178) 
0

>  <hydroph_interaction:VAL:52>  (178) 
0

>  <saltbridge:ASP:83>  (178) 
0

>  <saltbridge:ASP:75>  (178) 
0

>  <hydroph_interaction:TRP:50>  (178) 
0

>  <hydroph_interaction:VAL:72>  (178) 
0

>  <hydroph_interaction:ASP:75>  (178) 
0

>  <halogenbond:ASN:152>  (178) 
0

>  <halogenbond:GLY:153>  (178) 
0

>  <halogenbond:TYR:130>  (178) 
0

>  <hbond:TYR:130>  (178) 
0

>  <halogenbond:ASP:75>  (178) 
0

>  <halogenbond:GLY:151>  (178) 
0

>  <hbond:TYR:150>  (178) 
0

>  <halogenbond:TYR:161>  (178) 
0

>  <hydroph_interaction:ASP:129>  (178) 
0

>  <hbond:ASP:129>  (178) 
0

>  <halogenbond:ALA:132>  (178) 
0

$$$$
Z1252403699
     RDKit          3D

 24 25  0  0  0  0  0  0  0  0999 V2000
   -7.6740    5.6240  -18.4220 C   0  0  0  0  0  0  0  0  0  0  0  0
   -7.8390    5.6840  -17.0590 C   0  0  0  0  0  0  0  0  0  0  0  0
   -7.1610    6.4560  -16.2130 N   0  0  0  0  0  0  0  0  0  0  0  0
   -7.5420    6.2690  -14.9080 N   0  0  0  0  0  0  0  0  0  0  0  0
   -8.5070    5.3630  -14.7170 C   0  0  0  0  0  0  0  0  0  0  0  0
   -9.1010    4.9160  -13.5710 N   0  0  0  0  0  0  0  0  0  0  0  0
   -9.4080    5.7840  -12.4560 C   0  0  0  0  0  0  0  0  0  0  0  0
  -10.8350    6.2630  -12.3500 C   0  0  0  0  0  0  0  0  0  0  0  0
   -9.0660    5.0820  -11.1730 C   0  0  0  0  0  0  0  0  0  0  0  0
   -9.2110    3.7360  -11.0070 N   0  0  0  0  0  0  0  0  0  0  0  0
   -8.8260    3.4130   -9.8170 C   0  0  0  0  0  0  0  0  0  0  0  0
   -8.3710    4.4870   -9.0190 C   0  0  0  0  0  0  0  0  0  0  0  0
   -8.4590    5.9670   -9.8430 S   0  0  0  0  0  0  0  0  0  0  0  0
   -8.9710    4.7350  -16.2620 S   0  0  0  0  0  0  0  0  0  0  0  0
   -8.5750    5.2380  -18.9170 H   0  0  0  0  0  0  0  0  0  0  0  0
   -6.8580    4.9370  -18.6620 H   0  0  0  0  0  0  0  0  0  0  0  0
   -7.4200    6.5960  -18.8590 H   0  0  0  0  0  0  0  0  0  0  0  0
   -9.7210    4.1190  -13.6760 H   0  0  0  0  0  0  0  0  0  0  0  0
   -8.6940    6.6020  -12.4970 H   0  0  0  0  0  0  0  0  0  0  0  0
  -11.5710    5.5570  -11.9740 H   0  0  0  0  0  0  0  0  0  0  0  0
  -11.2400    6.5660  -13.3270 H   0  0  0  0  0  0  0  0  0  0  0  0
  -10.8900    7.1490  -11.7080 H   0  0  0  0  0  0  0  0  0  0  0  0
   -8.8740    2.3720   -9.5190 H   0  0  0  0  0  0  0  0  0  0  0  0
   -8.0120    4.3590   -8.0010 H   0  0  0  0  0  0  0  0  0  0  0  0
  1  2  1  0
  2  3  2  0
  3  4  1  0
  4  5  2  0
  5  6  1  0
  6  7  1  0
  7  8  1  0
  7  9  1  0
  9 10  2  0
 10 11  1  0
 11 12  2  0
 12 13  1  0
  5 14  1  0
 14  2  1  0
 13  9  1  0
  1 15  1  0
  1 16  1  0
  1 17  1  0
  6 18  1  0
  7 19  1  0
  8 20  1  0
  8 21  1  0
  8 22  1  0
 11 23  1  0
 12 24  1  0
A    1
 C1 
A    2
 C2 
A    3
 N1 
A    4
 N2 
A    5
 C3 
A    6
 N3 
A    7
 C4 
A    8
 C5 
A    9
 C6 
A   10
 N4 
A   11
 C7 
A   12
 C8 
A   13
 S1 
A   14
 S2 
A   15
 H1 
A   16
 H2 
A   17
 H3 
A   18
 H4 
A   19
 H5 
A   20
 H6 
A   21
 H7 
A   22
 H8 
A   23
 H9 
A   24
 H10
M  END
>  <ref_pdb>  (179) 
x0051_0B

>  <ref_mols>  (179) 
x0969_1B,x0553_0B

>  <original SMILES>  (179) 
[H]c1nc(C([H])(N([H])c2nnc(C([H])([H])[H])s2)C([H])([H])[H])sc1[H]

>  <index>  (179) 
2797

>  <∆∆G>  (179) 
-3.652684

>  <comRMSD>  (179) 
0.772255

>  <N_constrained_atoms>  (179) 
13.0

>  <N_unconstrained_atoms>  (179) 
1.0

>  <LE>  (179) 
0.260906

>  <percent_hybrid>  (179) 
0.0

>  <max_hit_Tanimoto>  (179) 
0.271605

>  <largest_ring>  (179) 
5

>  <N_interactions_kept>  (179) 
0.0

>  <N_interactions_lost>  (179) 
0.0

>  <interaction_uniqueness_metric>  (179) 
0.180871

>  <N_HA>  (179) 
14

>  <N_rotatable_bonds>  (179) 
5

>  <N_interactions>  (179) 
7

>  <N_PAINS>  (179) 
0

>  <UFF_Gibbs>  (179) 
32.990406

>  <strain_per_HA>  (179) 
2.356441

>  <ad_hoc_penalty>  (179) 
-34.590626

>  <cluster>  (179) 
2795

>  <merger_rank>  (179) 
1

>  <pication:ARG:29>  (179) 
0

>  <hbond:HIS:51>  (179) 
0

>  <pistack:HIS:51>  (179) 
1

>  <hydroph_interaction:TYR:161>  (179) 
1

>  <pication:HIS:51>  (179) 
0

>  <hydroph_interaction:ALA:132>  (179) 
1

>  <hydroph_interaction:TYR:150>  (179) 
0

>  <hydroph_interaction:LYS:54>  (179) 
0

>  <hbond:SER:135>  (179) 
1

>  <hydroph_interaction:HIS:51>  (179) 
1

>  <hbond:ASP:83>  (179) 
0

>  <hbond:ALA:132>  (179) 
0

>  <halogenbond:SER:81>  (179) 
0

>  <hbond:GLY:82>  (179) 
0

>  <saltbridge:HIS:51>  (179) 
0

>  <pistack:TYR:161>  (179) 
0

>  <hbond:SER:81>  (179) 
0

>  <hbond:ASN:152>  (179) 
0

>  <hbond:GLY:151>  (179) 
1

>  <hydroph_interaction:ASN:152>  (179) 
0

>  <hbond:TYR:161>  (179) 
1

>  <halogenbond:TYR:150>  (179) 
0

>  <hbond:ASP:75>  (179) 
0

>  <hbond:GLY:153>  (179) 
0

>  <hbond:VAL:36>  (179) 
0

>  <hbond:PRO:131>  (179) 
0

>  <hbond:VAL:52>  (179) 
0

>  <hydroph_interaction:ASP:83>  (179) 
0

>  <hydroph_interaction:MET:49>  (179) 
0

>  <hydroph_interaction:VAL:52>  (179) 
0

>  <saltbridge:ASP:83>  (179) 
0

>  <saltbridge:ASP:75>  (179) 
0

>  <hydroph_interaction:TRP:50>  (179) 
0

>  <hydroph_interaction:VAL:72>  (179) 
0

>  <hydroph_interaction:ASP:75>  (179) 
0

>  <halogenbond:ASN:152>  (179) 
0

>  <halogenbond:GLY:153>  (179) 
0

>  <halogenbond:TYR:130>  (179) 
0

>  <hbond:TYR:130>  (179) 
0

>  <halogenbond:ASP:75>  (179) 
0

>  <halogenbond:GLY:151>  (179) 
0

>  <hbond:TYR:150>  (179) 
0

>  <halogenbond:TYR:161>  (179) 
0

>  <hydroph_interaction:ASP:129>  (179) 
0

>  <hbond:ASP:129>  (179) 
0

>  <halogenbond:ALA:132>  (179) 
0

$$$$
Z2143120277
     RDKit          3D

 32 34  0  0  0  0  0  0  0  0999 V2000
   -6.6440    5.4410  -20.2100 C   0  0  0  0  0  0  0  0  0  0  0  0
   -7.1450    5.3580  -18.9380 C   0  0  0  0  0  0  0  0  0  0  0  0
   -6.1570    5.5900  -17.9490 C   0  0  0  0  0  0  0  0  0  0  0  0
   -6.6180    5.5110  -16.5610 N   0  0  0  0  0  0  0  0  0  0  0  0
   -7.9230    5.2290  -16.2870 C   0  0  0  0  0  0  0  0  0  0  0  0
   -8.4710    5.0860  -15.0700 N   0  0  0  0  0  0  0  0  0  0  0  0
   -8.9540    6.2270  -14.6090 C   0  0  0  0  0  0  0  0  0  0  0  0
   -9.0610    6.4270  -13.2380 C   0  0  0  0  0  0  0  0  0  0  0  0
   -8.9730    5.3850  -12.3960 N   0  0  0  0  0  0  0  0  0  0  0  0
   -9.0860    5.6970  -11.1310 C   0  0  0  0  0  0  0  0  0  0  0  0
   -9.0580    4.9190   -9.9930 C   0  0  0  0  0  0  0  0  0  0  0  0
   -8.8630    5.1930   -8.5710 C   0  0  0  0  0  0  0  0  0  0  0  0
   -8.9160    4.1290   -7.7090 C   0  0  0  0  0  0  0  0  0  0  0  0
   -9.1660    2.9630   -8.4950 C   0  0  0  0  0  0  0  0  0  0  0  0
   -9.3080    3.2360  -10.1910 S   0  0  0  0  0  0  0  0  0  0  0  0
   -9.2670    7.0960  -11.1340 C   0  0  0  0  0  0  0  0  0  0  0  0
   -9.2450    7.5040  -12.4970 N   0  0  0  0  0  0  0  0  0  0  0  0
   -8.8790    5.0150  -17.2420 N   0  0  0  0  0  0  0  0  0  0  0  0
   -8.4870    5.0810  -18.5290 C   0  0  0  0  0  0  0  0  0  0  0  0
   -7.2190    4.7980  -20.8880 H   0  0  0  0  0  0  0  0  0  0  0  0
   -5.6000    5.1160  -20.2330 H   0  0  0  0  0  0  0  0  0  0  0  0
   -6.6910    6.4660  -20.5900 H   0  0  0  0  0  0  0  0  0  0  0  0
   -5.1170    5.8090  -18.2080 H   0  0  0  0  0  0  0  0  0  0  0  0
   -9.1180    4.2940  -15.1070 H   0  0  0  0  0  0  0  0  0  0  0  0
   -9.8620    6.3830  -15.1890 H   0  0  0  0  0  0  0  0  0  0  0  0
   -8.2600    6.9690  -14.9790 H   0  0  0  0  0  0  0  0  0  0  0  0
   -8.6910    6.2280   -8.3100 H   0  0  0  0  0  0  0  0  0  0  0  0
   -8.8000    4.1020   -6.6340 H   0  0  0  0  0  0  0  0  0  0  0  0
   -9.2550    1.9720   -8.0570 H   0  0  0  0  0  0  0  0  0  0  0  0
   -9.4090    7.8180  -10.3230 H   0  0  0  0  0  0  0  0  0  0  0  0
   -9.3460    8.4410  -12.8660 H   0  0  0  0  0  0  0  0  0  0  0  0
   -9.2810    4.8990  -19.2620 H   0  0  0  0  0  0  0  0  0  0  0  0
  1  2  1  0
  2  3  2  0
  3  4  1  0
  4  5  2  0
  5  6  1  0
  6  7  1  0
  7  8  1  0
  8  9  2  0
  9 10  1  0
 10 11  1  0
 11 12  2  0
 12 13  1  0
 13 14  2  0
 14 15  1  0
 10 16  2  0
 16 17  1  0
  5 18  1  0
 18 19  2  0
 19  2  1  0
 17  8  1  0
 15 11  1  0
  1 20  1  0
  1 21  1  0
  1 22  1  0
  3 23  1  0
  6 24  1  0
  7 25  1  0
  7 26  1  0
 12 27  1  0
 13 28  1  0
 14 29  1  0
 16 30  1  0
 17 31  1  0
 19 32  1  0
A    1
 C1 
A    2
 C2 
A    3
 C3 
A    4
 N1 
A    5
 C4 
A    6
 N2 
A    7
 C5 
A    8
 C6 
A    9
 N3 
A   10
 C7 
A   11
 C8 
A   12
 C9 
A   13
 C10
A   14
 C11
A   15
 S1 
A   16
 C12
A   17
 N4 
A   18
 N5 
A   19
 C13
A   20
 H1 
A   21
 H2 
A   22
 H3 
A   23
 H4 
A   24
 H5 
A   25
 H6 
A   26
 H7 
A   27
 H8 
A   28
 H9 
A   29
 H10
A   30
 H11
A   31
 H12
A   32
 H13
M  END
>  <ref_pdb>  (180) 
x0051_0B

>  <ref_mols>  (180) 
x0404_0B,x0969_0B

>  <original SMILES>  (180) 
[H]c1nc(N([H])C([H])([H])c2nc(-c3sc([H])c([H])c3[H])c([H])n2[H])nc([H])c1C([H])([H])[H]

>  <index>  (180) 
5627

>  <∆∆G>  (180) 
-6.83281

>  <comRMSD>  (180) 
0.357752

>  <N_constrained_atoms>  (180) 
18.0

>  <N_unconstrained_atoms>  (180) 
1.0

>  <LE>  (180) 
0.359622

>  <percent_hybrid>  (180) 
0.0

>  <max_hit_Tanimoto>  (180) 
0.27253

>  <largest_ring>  (180) 
6

>  <N_interactions_kept>  (180) 
0.0

>  <N_interactions_lost>  (180) 
0.0

>  <interaction_uniqueness_metric>  (180) 
0.113446

>  <N_HA>  (180) 
19

>  <N_rotatable_bonds>  (180) 
5

>  <N_interactions>  (180) 
6

>  <N_PAINS>  (180) 
0

>  <UFF_Gibbs>  (180) 
125.534592

>  <strain_per_HA>  (180) 
6.607049

>  <ad_hoc_penalty>  (180) 
-34.53283

>  <cluster>  (180) 
10

>  <merger_rank>  (180) 
3

>  <pication:ARG:29>  (180) 
0

>  <hbond:HIS:51>  (180) 
0

>  <pistack:HIS:51>  (180) 
1

>  <hydroph_interaction:TYR:161>  (180) 
1

>  <pication:HIS:51>  (180) 
0

>  <hydroph_interaction:ALA:132>  (180) 
0

>  <hydroph_interaction:TYR:150>  (180) 
0

>  <hydroph_interaction:LYS:54>  (180) 
0

>  <hbond:SER:135>  (180) 
0

>  <hydroph_interaction:HIS:51>  (180) 
1

>  <hbond:ASP:83>  (180) 
0

>  <hbond:ALA:132>  (180) 
0

>  <halogenbond:SER:81>  (180) 
0

>  <hbond:GLY:82>  (180) 
0

>  <saltbridge:HIS:51>  (180) 
0

>  <pistack:TYR:161>  (180) 
1

>  <hbond:SER:81>  (180) 
0

>  <hbond:ASN:152>  (180) 
0

>  <hbond:GLY:151>  (180) 
0

>  <hydroph_interaction:ASN:152>  (180) 
0

>  <hbond:TYR:161>  (180) 
2

>  <halogenbond:TYR:150>  (180) 
0

>  <hbond:ASP:75>  (180) 
0

>  <hbond:GLY:153>  (180) 
0

>  <hbond:VAL:36>  (180) 
0

>  <hbond:PRO:131>  (180) 
0

>  <hbond:VAL:52>  (180) 
0

>  <hydroph_interaction:ASP:83>  (180) 
0

>  <hydroph_interaction:MET:49>  (180) 
0

>  <hydroph_interaction:VAL:52>  (180) 
0

>  <saltbridge:ASP:83>  (180) 
0

>  <saltbridge:ASP:75>  (180) 
0

>  <hydroph_interaction:TRP:50>  (180) 
0

>  <hydroph_interaction:VAL:72>  (180) 
0

>  <hydroph_interaction:ASP:75>  (180) 
0

>  <halogenbond:ASN:152>  (180) 
0

>  <halogenbond:GLY:153>  (180) 
0

>  <halogenbond:TYR:130>  (180) 
0

>  <hbond:TYR:130>  (180) 
0

>  <halogenbond:ASP:75>  (180) 
0

>  <halogenbond:GLY:151>  (180) 
0

>  <hbond:TYR:150>  (180) 
0

>  <halogenbond:TYR:161>  (180) 
0

>  <hydroph_interaction:ASP:129>  (180) 
0

>  <hbond:ASP:129>  (180) 
0

>  <halogenbond:ALA:132>  (180) 
0

$$$$
Z1276720017
     RDKit          3D

 25 26  0  0  0  0  0  0  0  0999 V2000
   -9.6190    2.7690   -8.7740 C   0  0  0  0  0  0  0  0  0  0  0  0
   -8.9840    4.1580   -8.7030 C   0  0  0  0  0  0  0  0  0  0  0  0
   -8.8860    4.8040  -10.0400 C   0  0  0  0  0  0  0  0  0  0  0  0
   -8.8790    6.2710  -10.3020 C   0  0  0  0  0  0  0  0  0  0  0  0
   -8.7550    6.5500  -11.9860 S   0  0  0  0  0  0  0  0  0  0  0  0
   -8.7170    4.8470  -12.2830 C   0  0  0  0  0  0  0  0  0  0  0  0
   -8.6190    4.2120  -13.4820 N   0  0  0  0  0  0  0  0  0  0  0  0
   -8.4830    4.7410  -14.7270 C   0  0  0  0  0  0  0  0  0  0  0  0
   -7.0720    5.0960  -15.1670 C   0  0  0  0  0  0  0  0  0  0  0  0
   -6.9260    5.5680  -16.4660 C   0  0  0  0  0  0  0  0  0  0  0  0
   -7.9960    5.7100  -17.3350 C   0  0  0  0  0  0  0  0  0  0  0  0
   -9.3450    5.3370  -16.7640 C   0  0  0  0  0  0  0  0  0  0  0  0
   -9.5320    4.8990  -15.5380 N   0  0  0  0  0  0  0  0  0  0  0  0
   -8.7910    4.0920  -11.1950 N   0  0  0  0  0  0  0  0  0  0  0  0
   -8.9340    2.0100   -8.3800 H   0  0  0  0  0  0  0  0  0  0  0  0
   -9.8710    2.4980   -9.8030 H   0  0  0  0  0  0  0  0  0  0  0  0
  -10.5390    2.7240   -8.1820 H   0  0  0  0  0  0  0  0  0  0  0  0
   -7.9810    4.0780   -8.2760 H   0  0  0  0  0  0  0  0  0  0  0  0
   -9.5500    4.7880   -8.0110 H   0  0  0  0  0  0  0  0  0  0  0  0
   -8.9400    7.0830   -9.5990 H   0  0  0  0  0  0  0  0  0  0  0  0
   -9.2090    3.3880  -13.5620 H   0  0  0  0  0  0  0  0  0  0  0  0
   -6.2990    4.9350  -14.4250 H   0  0  0  0  0  0  0  0  0  0  0  0
   -5.9270    5.8310  -16.8250 H   0  0  0  0  0  0  0  0  0  0  0  0
   -7.8720    6.0670  -18.3510 H   0  0  0  0  0  0  0  0  0  0  0  0
  -10.2520    5.4210  -17.3630 H   0  0  0  0  0  0  0  0  0  0  0  0
  1  2  1  0
  2  3  1  0
  3  4  2  0
  4  5  1  0
  5  6  1  0
  6  7  1  0
  7  8  1  0
  8  9  2  0
  9 10  1  0
 10 11  2  0
 11 12  1  0
 12 13  2  0
  6 14  2  0
 14  3  1  0
 13  8  1  0
  1 15  1  0
  1 16  1  0
  1 17  1  0
  2 18  1  0
  2 19  1  0
  4 20  1  0
  7 21  1  0
  9 22  1  0
 10 23  1  0
 11 24  1  0
 12 25  1  0
A    1
 C1 
A    2
 C2 
A    3
 C3 
A    4
 C4 
A    5
 S1 
A    6
 C5 
A    7
 N1 
A    8
 C6 
A    9
 C7 
A   10
 C8 
A   11
 C9 
A   12
 C10
A   13
 N2 
A   14
 N3 
A   15
 H1 
A   16
 H2 
A   17
 H3 
A   18
 H4 
A   19
 H5 
A   20
 H6 
A   21
 H7 
A   22
 H8 
A   23
 H9 
A   24
 H10
A   25
 H11
M  END
>  <ref_pdb>  (181) 
x0051_0B

>  <ref_mols>  (181) 
x0969_1B,x0553_0B

>  <original SMILES>  (181) 
[H]c1nc(N([H])c2nc(C([H])([H])C([H])([H])[H])c([H])s2)c([H])c([H])c1[H]

>  <index>  (181) 
580

>  <∆∆G>  (181) 
-3.281411

>  <comRMSD>  (181) 
0.640212

>  <N_constrained_atoms>  (181) 
13.0

>  <N_unconstrained_atoms>  (181) 
1.0

>  <LE>  (181) 
0.234386

>  <percent_hybrid>  (181) 
0.0

>  <max_hit_Tanimoto>  (181) 
0.264234

>  <largest_ring>  (181) 
6

>  <N_interactions_kept>  (181) 
0.0

>  <N_interactions_lost>  (181) 
0.0

>  <interaction_uniqueness_metric>  (181) 
0.150995

>  <N_HA>  (181) 
14

>  <N_rotatable_bonds>  (181) 
4

>  <N_interactions>  (181) 
7

>  <N_PAINS>  (181) 
0

>  <UFF_Gibbs>  (181) 
51.989444

>  <strain_per_HA>  (181) 
3.713505

>  <ad_hoc_penalty>  (181) 
-34.514864

>  <cluster>  (181) 
4482

>  <merger_rank>  (181) 
2

>  <pication:ARG:29>  (181) 
0

>  <hbond:HIS:51>  (181) 
0

>  <pistack:HIS:51>  (181) 
1

>  <hydroph_interaction:TYR:161>  (181) 
0

>  <pication:HIS:51>  (181) 
0

>  <hydroph_interaction:ALA:132>  (181) 
1

>  <hydroph_interaction:TYR:150>  (181) 
0

>  <hydroph_interaction:LYS:54>  (181) 
0

>  <hbond:SER:135>  (181) 
1

>  <hydroph_interaction:HIS:51>  (181) 
1

>  <hbond:ASP:83>  (181) 
0

>  <hbond:ALA:132>  (181) 
0

>  <halogenbond:SER:81>  (181) 
0

>  <hbond:GLY:82>  (181) 
0

>  <saltbridge:HIS:51>  (181) 
0

>  <pistack:TYR:161>  (181) 
1

>  <hbond:SER:81>  (181) 
0

>  <hbond:ASN:152>  (181) 
0

>  <hbond:GLY:151>  (181) 
0

>  <hydroph_interaction:ASN:152>  (181) 
0

>  <hbond:TYR:161>  (181) 
2

>  <halogenbond:TYR:150>  (181) 
0

>  <hbond:ASP:75>  (181) 
0

>  <hbond:GLY:153>  (181) 
0

>  <hbond:VAL:36>  (181) 
0

>  <hbond:PRO:131>  (181) 
0

>  <hbond:VAL:52>  (181) 
0

>  <hydroph_interaction:ASP:83>  (181) 
0

>  <hydroph_interaction:MET:49>  (181) 
0

>  <hydroph_interaction:VAL:52>  (181) 
0

>  <saltbridge:ASP:83>  (181) 
0

>  <saltbridge:ASP:75>  (181) 
0

>  <hydroph_interaction:TRP:50>  (181) 
0

>  <hydroph_interaction:VAL:72>  (181) 
0

>  <hydroph_interaction:ASP:75>  (181) 
0

>  <halogenbond:ASN:152>  (181) 
0

>  <halogenbond:GLY:153>  (181) 
0

>  <halogenbond:TYR:130>  (181) 
0

>  <hbond:TYR:130>  (181) 
0

>  <halogenbond:ASP:75>  (181) 
0

>  <halogenbond:GLY:151>  (181) 
0

>  <hbond:TYR:150>  (181) 
0

>  <halogenbond:TYR:161>  (181) 
0

>  <hydroph_interaction:ASP:129>  (181) 
0

>  <hbond:ASP:129>  (181) 
0

>  <halogenbond:ALA:132>  (181) 
0

$$$$
Z742777404
     RDKit          3D

 25 26  0  0  0  0  0  0  0  0999 V2000
   -8.1320    5.2640  -18.1960 C   0  0  0  0  0  0  0  0  0  0  0  0
   -9.0350    5.0950  -16.9840 C   0  0  0  0  0  0  0  0  0  0  0  0
   -8.0450    5.0370  -15.5980 S   0  0  0  0  0  0  0  0  0  0  0  0
   -9.0610    6.0820  -14.7160 C   0  0  0  0  0  0  0  0  0  0  0  0
   -8.9810    5.8090  -13.3730 C   0  0  0  0  0  0  0  0  0  0  0  0
   -8.7210    6.7990  -12.3550 N   0  0  0  0  0  0  0  0  0  0  0  0
   -8.7610    5.9440  -11.1970 C   0  0  0  0  0  0  0  0  0  0  0  0
   -8.5640    6.4360   -9.8840 C   0  0  0  0  0  0  0  0  0  0  0  0
   -8.6700    5.3140   -8.9260 C   0  0  0  0  0  0  0  0  0  0  0  0
   -8.9200    3.9860   -9.2500 C   0  0  0  0  0  0  0  0  0  0  0  0
   -9.1010    3.5950  -10.5940 C   0  0  0  0  0  0  0  0  0  0  0  0
   -9.0100    4.6150  -11.5060 C   0  0  0  0  0  0  0  0  0  0  0  0
   -9.1510    4.5260  -12.8910 N   0  0  0  0  0  0  0  0  0  0  0  0
   -7.2520    4.6260  -18.1210 H   0  0  0  0  0  0  0  0  0  0  0  0
   -8.6570    5.0100  -19.1250 H   0  0  0  0  0  0  0  0  0  0  0  0
   -7.7710    6.2910  -18.2710 H   0  0  0  0  0  0  0  0  0  0  0  0
   -9.6100    4.1710  -17.0590 H   0  0  0  0  0  0  0  0  0  0  0  0
   -9.7580    5.9070  -16.8880 H   0  0  0  0  0  0  0  0  0  0  0  0
  -10.0920    5.9470  -15.0620 H   0  0  0  0  0  0  0  0  0  0  0  0
   -8.7790    7.1200  -14.9120 H   0  0  0  0  0  0  0  0  0  0  0  0
   -8.3680    7.4720   -9.6370 H   0  0  0  0  0  0  0  0  0  0  0  0
   -8.5270    5.6340   -7.8880 H   0  0  0  0  0  0  0  0  0  0  0  0
   -8.9770    3.2400   -8.4610 H   0  0  0  0  0  0  0  0  0  0  0  0
   -9.2970    2.5640  -10.8720 H   0  0  0  0  0  0  0  0  0  0  0  0
   -9.3450    3.6990  -13.4660 H   0  0  0  0  0  0  0  0  0  0  0  0
  1  2  1  0
  2  3  1  0
  3  4  1  0
  4  5  1  0
  5  6  2  0
  6  7  1  0
  7  8  2  0
  8  9  1  0
  9 10  2  0
 10 11  1  0
 11 12  2  0
 12 13  1  0
 13  5  1  0
 12  7  1  0
  1 14  1  0
  1 15  1  0
  1 16  1  0
  2 17  1  0
  2 18  1  0
  4 19  1  0
  4 20  1  0
  8 21  1  0
  9 22  1  0
 10 23  1  0
 11 24  1  0
 13 25  1  0
A    1
 C1 
A    2
 C2 
A    3
 S1 
A    4
 C3 
A    5
 C4 
A    6
 N1 
A    7
 C5 
A    8
 C6 
A    9
 C7 
A   10
 C8 
A   11
 C9 
A   12
 C10
A   13
 N2 
A   14
 H1 
A   15
 H2 
A   16
 H3 
A   17
 H4 
A   18
 H5 
A   19
 H6 
A   20
 H7 
A   21
 H8 
A   22
 H9 
A   23
 H10
A   24
 H11
A   25
 H12
M  END
>  <ref_pdb>  (182) 
x0051_0B

>  <ref_mols>  (182) 
x0404_0B,x0969_0B

>  <original SMILES>  (182) 
[H]c1c([H])c([H])c2c(nc(C([H])([H])SC([H])([H])C([H])([H])[H])n2[H])c1[H]

>  <index>  (182) 
2328

>  <∆∆G>  (182) 
-5.00399

>  <comRMSD>  (182) 
0.591286

>  <N_constrained_atoms>  (182) 
14.0

>  <N_unconstrained_atoms>  (182) 
0.0

>  <LE>  (182) 
0.357428

>  <percent_hybrid>  (182) 
0.0

>  <max_hit_Tanimoto>  (182) 
0.547278

>  <largest_ring>  (182) 
6

>  <N_interactions_kept>  (182) 
0.0

>  <N_interactions_lost>  (182) 
0.0

>  <interaction_uniqueness_metric>  (182) 
0.133212

>  <N_HA>  (182) 
13

>  <N_rotatable_bonds>  (182) 
4

>  <N_interactions>  (182) 
6

>  <N_PAINS>  (182) 
0

>  <UFF_Gibbs>  (182) 
59.201488

>  <strain_per_HA>  (182) 
4.553926

>  <ad_hoc_penalty>  (182) 
-34.469564

>  <cluster>  (182) 
258

>  <merger_rank>  (182) 
2

>  <pication:ARG:29>  (182) 
0

>  <hbond:HIS:51>  (182) 
0

>  <pistack:HIS:51>  (182) 
2

>  <hydroph_interaction:TYR:161>  (182) 
1

>  <pication:HIS:51>  (182) 
0

>  <hydroph_interaction:ALA:132>  (182) 
0

>  <hydroph_interaction:TYR:150>  (182) 
0

>  <hydroph_interaction:LYS:54>  (182) 
0

>  <hbond:SER:135>  (182) 
0

>  <hydroph_interaction:HIS:51>  (182) 
1

>  <hbond:ASP:83>  (182) 
0

>  <hbond:ALA:132>  (182) 
0

>  <halogenbond:SER:81>  (182) 
0

>  <hbond:GLY:82>  (182) 
0

>  <saltbridge:HIS:51>  (182) 
0

>  <pistack:TYR:161>  (182) 
0

>  <hbond:SER:81>  (182) 
0

>  <hbond:ASN:152>  (182) 
0

>  <hbond:GLY:151>  (182) 
1

>  <hydroph_interaction:ASN:152>  (182) 
0

>  <hbond:TYR:161>  (182) 
1

>  <halogenbond:TYR:150>  (182) 
0

>  <hbond:ASP:75>  (182) 
0

>  <hbond:GLY:153>  (182) 
0

>  <hbond:VAL:36>  (182) 
0

>  <hbond:PRO:131>  (182) 
0

>  <hbond:VAL:52>  (182) 
0

>  <hydroph_interaction:ASP:83>  (182) 
0

>  <hydroph_interaction:MET:49>  (182) 
0

>  <hydroph_interaction:VAL:52>  (182) 
0

>  <saltbridge:ASP:83>  (182) 
0

>  <saltbridge:ASP:75>  (182) 
0

>  <hydroph_interaction:TRP:50>  (182) 
0

>  <hydroph_interaction:VAL:72>  (182) 
0

>  <hydroph_interaction:ASP:75>  (182) 
0

>  <halogenbond:ASN:152>  (182) 
0

>  <halogenbond:GLY:153>  (182) 
0

>  <halogenbond:TYR:130>  (182) 
0

>  <hbond:TYR:130>  (182) 
0

>  <halogenbond:ASP:75>  (182) 
0

>  <halogenbond:GLY:151>  (182) 
0

>  <hbond:TYR:150>  (182) 
0

>  <halogenbond:TYR:161>  (182) 
0

>  <hydroph_interaction:ASP:129>  (182) 
0

>  <hbond:ASP:129>  (182) 
0

>  <halogenbond:ALA:132>  (182) 
0

$$$$
Z365142694
     RDKit          3D

 29 30  0  0  0  0  0  0  0  0999 V2000
   -6.5220    5.2630  -18.2310 C   0  0  0  0  0  0  0  0  0  0  0  0
   -7.8390    5.1230  -17.8800 C   0  0  0  0  0  0  0  0  0  0  0  0
   -8.3310    5.5000  -16.6310 C   0  0  0  0  0  0  0  0  0  0  0  0
   -9.5280    5.1260  -16.2040 N   0  0  0  0  0  0  0  0  0  0  0  0
   -9.7050    5.6440  -14.9830 N   0  0  0  0  0  0  0  0  0  0  0  0
   -8.5380    6.4030  -14.6050 C   0  0  0  0  0  0  0  0  0  0  0  0
   -8.5690    7.0750  -13.2240 C   0  0  0  0  0  0  0  0  0  0  0  0
   -8.1260    8.2130  -13.1350 O   0  0  0  0  0  0  0  0  0  0  0  0
   -9.0920    6.3980  -12.1410 N   0  0  0  0  0  0  0  0  0  0  0  0
   -8.6460    6.3420  -10.8630 C   0  0  0  0  0  0  0  0  0  0  0  0
   -8.8440    5.1680  -10.0830 C   0  0  0  0  0  0  0  0  0  0  0  0
   -8.8540    4.8370   -8.7280 C   0  0  0  0  0  0  0  0  0  0  0  0
   -9.1040    3.5320   -8.4840 C   0  0  0  0  0  0  0  0  0  0  0  0
   -9.2540    3.0360   -9.7980 C   0  0  0  0  0  0  0  0  0  0  0  0
   -9.1010    4.0150  -10.7750 O   0  0  0  0  0  0  0  0  0  0  0  0
   -7.6540    6.3100  -15.6620 C   0  0  0  0  0  0  0  0  0  0  0  0
   -6.1260    4.7790  -19.1160 H   0  0  0  0  0  0  0  0  0  0  0  0
   -6.3030    6.3310  -18.3560 H   0  0  0  0  0  0  0  0  0  0  0  0
   -5.8830    4.9190  -17.4070 H   0  0  0  0  0  0  0  0  0  0  0  0
   -8.0770    4.0700  -18.0260 H   0  0  0  0  0  0  0  0  0  0  0  0
   -8.4280    5.6430  -18.6420 H   0  0  0  0  0  0  0  0  0  0  0  0
  -10.5290    5.5280  -14.4080 H   0  0  0  0  0  0  0  0  0  0  0  0
   -9.8820    5.7920  -12.3140 H   0  0  0  0  0  0  0  0  0  0  0  0
   -7.5900    6.5790  -10.8630 H   0  0  0  0  0  0  0  0  0  0  0  0
   -9.1460    7.1710  -10.3550 H   0  0  0  0  0  0  0  0  0  0  0  0
   -8.6760    5.5650   -7.9490 H   0  0  0  0  0  0  0  0  0  0  0  0
   -9.1700    3.0040   -7.5370 H   0  0  0  0  0  0  0  0  0  0  0  0
   -9.4670    2.0110  -10.0690 H   0  0  0  0  0  0  0  0  0  0  0  0
   -6.6740    6.7560  -15.7270 H   0  0  0  0  0  0  0  0  0  0  0  0
  1  2  1  0
  2  3  1  0
  3  4  2  0
  4  5  1  0
  5  6  1  0
  6  7  1  0
  7  8  2  0
  7  9  1  0
  9 10  1  0
 10 11  1  0
 11 12  2  0
 12 13  1  0
 13 14  2  0
 14 15  1  0
  6 16  2  0
 16  3  1  0
 15 11  1  0
  1 17  1  0
  1 18  1  0
  1 19  1  0
  2 20  1  0
  2 21  1  0
  5 22  1  0
  9 23  1  0
 10 24  1  0
 10 25  1  0
 12 26  1  0
 13 27  1  0
 14 28  1  0
 16 29  1  0
A    1
 C1 
A    2
 C2 
A    3
 C3 
A    4
 N1 
A    5
 N2 
A    6
 C4 
A    7
 C5 
A    8
 O1 
A    9
 N3 
A   10
 C6 
A   11
 C7 
A   12
 C8 
A   13
 C9 
A   14
 C10
A   15
 O2 
A   16
 C11
A   17
 H1 
A   18
 H2 
A   19
 H3 
A   20
 H4 
A   21
 H5 
A   22
 H6 
A   23
 H7 
A   24
 H8 
A   25
 H9 
A   26
 H10
A   27
 H11
A   28
 H12
A   29
 H13
M  END
>  <ref_pdb>  (183) 
x0051_0B

>  <ref_mols>  (183) 
x0404_0B,x0969_0B

>  <original SMILES>  (183) 
[H]c1oc(C([H])([H])N([H])C(=O)c2c([H])c(C([H])([H])C([H])([H])[H])nn2[H])c([H])c1[H]

>  <index>  (183) 
5119

>  <∆∆G>  (183) 
-4.331193

>  <comRMSD>  (183) 
0.368379

>  <N_constrained_atoms>  (183) 
17.0

>  <N_unconstrained_atoms>  (183) 
0.0

>  <LE>  (183) 
0.254776

>  <percent_hybrid>  (183) 
0.0

>  <max_hit_Tanimoto>  (183) 
0.396178

>  <largest_ring>  (183) 
5

>  <N_interactions_kept>  (183) 
0.0

>  <N_interactions_lost>  (183) 
0.0

>  <interaction_uniqueness_metric>  (183) 
0.149593

>  <N_HA>  (183) 
16

>  <N_rotatable_bonds>  (183) 
5

>  <N_interactions>  (183) 
7

>  <N_PAINS>  (183) 
0

>  <UFF_Gibbs>  (183) 
85.111488

>  <strain_per_HA>  (183) 
5.319435

>  <ad_hoc_penalty>  (183) 
-34.462178

>  <cluster>  (183) 
1307

>  <merger_rank>  (183) 
2

>  <pication:ARG:29>  (183) 
0

>  <hbond:HIS:51>  (183) 
1

>  <pistack:HIS:51>  (183) 
1

>  <hydroph_interaction:TYR:161>  (183) 
2

>  <pication:HIS:51>  (183) 
0

>  <hydroph_interaction:ALA:132>  (183) 
1

>  <hydroph_interaction:TYR:150>  (183) 
0

>  <hydroph_interaction:LYS:54>  (183) 
0

>  <hbond:SER:135>  (183) 
1

>  <hydroph_interaction:HIS:51>  (183) 
1

>  <hbond:ASP:83>  (183) 
0

>  <hbond:ALA:132>  (183) 
0

>  <halogenbond:SER:81>  (183) 
0

>  <hbond:GLY:82>  (183) 
0

>  <saltbridge:HIS:51>  (183) 
0

>  <pistack:TYR:161>  (183) 
0

>  <hbond:SER:81>  (183) 
0

>  <hbond:ASN:152>  (183) 
0

>  <hbond:GLY:151>  (183) 
0

>  <hydroph_interaction:ASN:152>  (183) 
0

>  <hbond:TYR:161>  (183) 
0

>  <halogenbond:TYR:150>  (183) 
0

>  <hbond:ASP:75>  (183) 
0

>  <hbond:GLY:153>  (183) 
0

>  <hbond:VAL:36>  (183) 
0

>  <hbond:PRO:131>  (183) 
0

>  <hbond:VAL:52>  (183) 
0

>  <hydroph_interaction:ASP:83>  (183) 
0

>  <hydroph_interaction:MET:49>  (183) 
0

>  <hydroph_interaction:VAL:52>  (183) 
0

>  <saltbridge:ASP:83>  (183) 
0

>  <saltbridge:ASP:75>  (183) 
0

>  <hydroph_interaction:TRP:50>  (183) 
0

>  <hydroph_interaction:VAL:72>  (183) 
0

>  <hydroph_interaction:ASP:75>  (183) 
0

>  <halogenbond:ASN:152>  (183) 
0

>  <halogenbond:GLY:153>  (183) 
0

>  <halogenbond:TYR:130>  (183) 
0

>  <hbond:TYR:130>  (183) 
0

>  <halogenbond:ASP:75>  (183) 
0

>  <halogenbond:GLY:151>  (183) 
0

>  <hbond:TYR:150>  (183) 
0

>  <halogenbond:TYR:161>  (183) 
0

>  <hydroph_interaction:ASP:129>  (183) 
0

>  <hbond:ASP:129>  (183) 
0

>  <halogenbond:ALA:132>  (183) 
0

$$$$
Z28173573
     RDKit          3D

 25 27  0  0  0  0  0  0  0  0999 V2000
   -7.1940    8.4180  -12.9420 O   0  0  0  0  0  0  0  0  0  0  0  0
   -8.0670    7.5700  -13.0840 C   0  0  0  0  0  0  0  0  0  0  0  0
   -9.0200    7.1980  -12.0790 N   0  0  0  0  0  0  0  0  0  0  0  0
   -8.9900    6.0530  -11.3420 C   0  0  0  0  0  0  0  0  0  0  0  0
   -9.1980    4.8550  -11.9290 N   0  0  0  0  0  0  0  0  0  0  0  0
   -9.1430    3.8230  -11.0860 C   0  0  0  0  0  0  0  0  0  0  0  0
   -8.8760    4.1910   -9.7390 C   0  0  0  0  0  0  0  0  0  0  0  0
   -8.7010    5.9900   -9.6590 S   0  0  0  0  0  0  0  0  0  0  0  0
   -8.2390    6.8330  -14.3220 C   0  0  0  0  0  0  0  0  0  0  0  0
   -9.3810    6.0490  -14.9060 C   0  0  0  0  0  0  0  0  0  0  0  0
   -8.7890    5.6060  -16.2130 C   0  0  0  0  0  0  0  0  0  0  0  0
   -9.4430    4.7940  -17.2590 C   0  0  0  0  0  0  0  0  0  0  0  0
   -8.7530    4.4790  -18.4120 C   0  0  0  0  0  0  0  0  0  0  0  0
   -7.3970    4.9640  -18.5410 C   0  0  0  0  0  0  0  0  0  0  0  0
   -6.7460    5.7380  -17.5520 C   0  0  0  0  0  0  0  0  0  0  0  0
   -7.5200    6.0670  -16.3210 C   0  0  0  0  0  0  0  0  0  0  0  0
   -7.1650    6.7950  -15.2170 O   0  0  0  0  0  0  0  0  0  0  0  0
   -9.6360    7.8930  -11.6860 H   0  0  0  0  0  0  0  0  0  0  0  0
   -9.2930    2.7810  -11.3990 H   0  0  0  0  0  0  0  0  0  0  0  0
   -8.7920    3.4960   -8.9070 H   0  0  0  0  0  0  0  0  0  0  0  0
  -10.3680    5.8580  -14.4990 H   0  0  0  0  0  0  0  0  0  0  0  0
  -10.4570    4.4630  -17.1040 H   0  0  0  0  0  0  0  0  0  0  0  0
   -9.0940    3.9000  -19.2600 H   0  0  0  0  0  0  0  0  0  0  0  0
   -6.8470    4.7190  -19.4420 H   0  0  0  0  0  0  0  0  0  0  0  0
   -5.7350    6.1040  -17.6390 H   0  0  0  0  0  0  0  0  0  0  0  0
  1  2  2  0
  2  3  1  0
  3  4  1  0
  4  5  2  0
  5  6  1  0
  6  7  2  0
  7  8  1  0
  2  9  1  0
  9 10  2  0
 10 11  1  0
 11 12  2  0
 12 13  1  0
 13 14  2  0
 14 15  1  0
 15 16  2  0
 16 17  1  0
  8  4  1  0
 17  9  1  0
 16 11  1  0
  3 18  1  0
  6 19  1  0
  7 20  1  0
 10 21  1  0
 12 22  1  0
 13 23  1  0
 14 24  1  0
 15 25  1  0
A    1
 O1 
A    2
 C1 
A    3
 N1 
A    4
 C2 
A    5
 N2 
A    6
 C3 
A    7
 C4 
A    8
 S1 
A    9
 C5 
A   10
 C6 
A   11
 C7 
A   12
 C8 
A   13
 C9 
A   14
 C10
A   15
 C11
A   16
 C12
A   17
 O2 
A   18
 H1 
A   19
 H2 
A   20
 H3 
A   21
 H4 
A   22
 H5 
A   23
 H6 
A   24
 H7 
A   25
 H8 
M  END
>  <ref_pdb>  (184) 
x0051_0B

>  <ref_mols>  (184) 
x0404_0B,x0969_0B

>  <original SMILES>  (184) 
[H]c1nc(N([H])C(=O)c2oc3c([H])c([H])c([H])c([H])c3c2[H])sc1[H]

>  <index>  (184) 
3963

>  <∆∆G>  (184) 
-6.34057

>  <comRMSD>  (184) 
0.243095

>  <N_constrained_atoms>  (184) 
18.0

>  <N_unconstrained_atoms>  (184) 
0.0

>  <LE>  (184) 
0.352254

>  <percent_hybrid>  (184) 
0.0

>  <max_hit_Tanimoto>  (184) 
0.39064

>  <largest_ring>  (184) 
6

>  <N_interactions_kept>  (184) 
0.0

>  <N_interactions_lost>  (184) 
0.0

>  <interaction_uniqueness_metric>  (184) 
0.059563

>  <N_HA>  (184) 
17

>  <N_rotatable_bonds>  (184) 
2

>  <N_interactions>  (184) 
4

>  <N_PAINS>  (184) 
0

>  <UFF_Gibbs>  (184) 
63.682415

>  <strain_per_HA>  (184) 
3.746002

>  <ad_hoc_penalty>  (184) 
-34.457605

>  <cluster>  (184) 
2077

>  <merger_rank>  (184) 
4

>  <pication:ARG:29>  (184) 
0

>  <hbond:HIS:51>  (184) 
0

>  <pistack:HIS:51>  (184) 
1

>  <hydroph_interaction:TYR:161>  (184) 
2

>  <pication:HIS:51>  (184) 
0

>  <hydroph_interaction:ALA:132>  (184) 
1

>  <hydroph_interaction:TYR:150>  (184) 
0

>  <hydroph_interaction:LYS:54>  (184) 
0

>  <hbond:SER:135>  (184) 
0

>  <hydroph_interaction:HIS:51>  (184) 
0

>  <hbond:ASP:83>  (184) 
0

>  <hbond:ALA:132>  (184) 
0

>  <halogenbond:SER:81>  (184) 
0

>  <hbond:GLY:82>  (184) 
0

>  <saltbridge:HIS:51>  (184) 
0

>  <pistack:TYR:161>  (184) 
0

>  <hbond:SER:81>  (184) 
0

>  <hbond:ASN:152>  (184) 
0

>  <hbond:GLY:151>  (184) 
0

>  <hydroph_interaction:ASN:152>  (184) 
0

>  <hbond:TYR:161>  (184) 
0

>  <halogenbond:TYR:150>  (184) 
0

>  <hbond:ASP:75>  (184) 
0

>  <hbond:GLY:153>  (184) 
0

>  <hbond:VAL:36>  (184) 
0

>  <hbond:PRO:131>  (184) 
0

>  <hbond:VAL:52>  (184) 
0

>  <hydroph_interaction:ASP:83>  (184) 
0

>  <hydroph_interaction:MET:49>  (184) 
0

>  <hydroph_interaction:VAL:52>  (184) 
0

>  <saltbridge:ASP:83>  (184) 
0

>  <saltbridge:ASP:75>  (184) 
0

>  <hydroph_interaction:TRP:50>  (184) 
0

>  <hydroph_interaction:VAL:72>  (184) 
0

>  <hydroph_interaction:ASP:75>  (184) 
0

>  <halogenbond:ASN:152>  (184) 
0

>  <halogenbond:GLY:153>  (184) 
0

>  <halogenbond:TYR:130>  (184) 
0

>  <hbond:TYR:130>  (184) 
0

>  <halogenbond:ASP:75>  (184) 
0

>  <halogenbond:GLY:151>  (184) 
0

>  <hbond:TYR:150>  (184) 
0

>  <halogenbond:TYR:161>  (184) 
0

>  <hydroph_interaction:ASP:129>  (184) 
0

>  <hbond:ASP:129>  (184) 
0

>  <halogenbond:ALA:132>  (184) 
0

$$$$
Z5052430929
     RDKit          3D

 21 22  0  0  0  0  0  0  0  0999 V2000
   -8.5600    4.8110  -18.8880 Cl  0  0  0  0  0  0  0  0  0  0  0  0
   -8.3810    4.9570  -17.1890 C   0  0  0  0  0  0  0  0  0  0  0  0
   -9.6290    5.0070  -16.3360 C   0  0  0  0  0  0  0  0  0  0  0  0
   -9.3850    5.1290  -14.8780 C   0  0  0  0  0  0  0  0  0  0  0  0
   -7.9990    5.1840  -14.3770 C   0  0  0  0  0  0  0  0  0  0  0  0
   -7.6190    5.2940  -13.0590 O   0  0  0  0  0  0  0  0  0  0  0  0
   -8.1790    4.8630  -11.9230 C   0  0  0  0  0  0  0  0  0  0  0  0
   -8.4030    5.7700  -10.8460 C   0  0  0  0  0  0  0  0  0  0  0  0
   -8.9510    5.3980   -9.6590 C   0  0  0  0  0  0  0  0  0  0  0  0
   -9.3140    4.1210   -9.4530 N   0  0  0  0  0  0  0  0  0  0  0  0
   -9.1030    3.2610  -10.4860 C   0  0  0  0  0  0  0  0  0  0  0  0
   -8.5480    3.5470  -11.7310 N   0  0  0  0  0  0  0  0  0  0  0  0
   -6.8250    5.1280  -15.3040 C   0  0  0  0  0  0  0  0  0  0  0  0
   -7.0730    5.0180  -16.6850 C   0  0  0  0  0  0  0  0  0  0  0  0
  -10.5930    4.9530  -16.7860 H   0  0  0  0  0  0  0  0  0  0  0  0
  -10.2280    5.1730  -14.1940 H   0  0  0  0  0  0  0  0  0  0  0  0
   -8.1220    6.8030  -10.9790 H   0  0  0  0  0  0  0  0  0  0  0  0
   -9.1160    6.0960   -8.8450 H   0  0  0  0  0  0  0  0  0  0  0  0
   -9.4020    2.2350  -10.3120 H   0  0  0  0  0  0  0  0  0  0  0  0
   -5.8320    5.1740  -14.8710 H   0  0  0  0  0  0  0  0  0  0  0  0
   -6.2850    4.9700  -17.4230 H   0  0  0  0  0  0  0  0  0  0  0  0
  1  2  1  0
  2  3  2  0
  3  4  1  0
  4  5  2  0
  5  6  1  0
  6  7  1  0
  7  8  2  0
  8  9  1  0
  9 10  2  0
 10 11  1  0
 11 12  2  0
  5 13  1  0
 13 14  2  0
 14  2  1  0
 12  7  1  0
  3 15  1  0
  4 16  1  0
  8 17  1  0
  9 18  1  0
 11 19  1  0
 13 20  1  0
 14 21  1  0
A    1
CL1 
A    2
 C1 
A    3
 C2 
A    4
 C3 
A    5
 C4 
A    6
 O1 
A    7
 C5 
A    8
 C6 
A    9
 C7 
A   10
 N1 
A   11
 C8 
A   12
 N2 
A   13
 C9 
A   14
 C10
A   15
 H1 
A   16
 H2 
A   17
 H3 
A   18
 H4 
A   19
 H5 
A   20
 H6 
A   21
 H7 
M  END
>  <ref_pdb>  (185) 
x0051_0B

>  <ref_mols>  (185) 
x0969_1B,x0553_0B

>  <original SMILES>  (185) 
[H]c1nc([H])c([H])c(Oc2c([H])c([H])c(Cl)c([H])c2[H])n1

>  <index>  (185) 
891

>  <∆∆G>  (185) 
-3.196819

>  <comRMSD>  (185) 
0.407113

>  <N_constrained_atoms>  (185) 
13.0

>  <N_unconstrained_atoms>  (185) 
1.0

>  <LE>  (185) 
0.228344

>  <percent_hybrid>  (185) 
0.0

>  <max_hit_Tanimoto>  (185) 
0.36413

>  <largest_ring>  (185) 
6

>  <N_interactions_kept>  (185) 
0.0

>  <N_interactions_lost>  (185) 
0.0

>  <interaction_uniqueness_metric>  (185) 
0.337458

>  <N_HA>  (185) 
14

>  <N_rotatable_bonds>  (185) 
2

>  <N_interactions>  (185) 
5

>  <N_PAINS>  (185) 
0

>  <UFF_Gibbs>  (185) 
47.039158

>  <strain_per_HA>  (185) 
3.359916

>  <ad_hoc_penalty>  (185) 
-34.443827

>  <cluster>  (185) 
4223

>  <merger_rank>  (185) 
3

>  <pication:ARG:29>  (185) 
0

>  <hbond:HIS:51>  (185) 
0

>  <pistack:HIS:51>  (185) 
1

>  <hydroph_interaction:TYR:161>  (185) 
2

>  <pication:HIS:51>  (185) 
0

>  <hydroph_interaction:ALA:132>  (185) 
0

>  <hydroph_interaction:TYR:150>  (185) 
0

>  <hydroph_interaction:LYS:54>  (185) 
0

>  <hbond:SER:135>  (185) 
0

>  <hydroph_interaction:HIS:51>  (185) 
0

>  <hbond:ASP:83>  (185) 
0

>  <hbond:ALA:132>  (185) 
0

>  <halogenbond:SER:81>  (185) 
0

>  <hbond:GLY:82>  (185) 
0

>  <saltbridge:HIS:51>  (185) 
0

>  <pistack:TYR:161>  (185) 
0

>  <hbond:SER:81>  (185) 
0

>  <hbond:ASN:152>  (185) 
0

>  <hbond:GLY:151>  (185) 
0

>  <hydroph_interaction:ASN:152>  (185) 
0

>  <hbond:TYR:161>  (185) 
0

>  <halogenbond:TYR:150>  (185) 
1

>  <hbond:ASP:75>  (185) 
0

>  <hbond:GLY:153>  (185) 
0

>  <hbond:VAL:36>  (185) 
0

>  <hbond:PRO:131>  (185) 
0

>  <hbond:VAL:52>  (185) 
0

>  <hydroph_interaction:ASP:83>  (185) 
0

>  <hydroph_interaction:MET:49>  (185) 
0

>  <hydroph_interaction:VAL:52>  (185) 
0

>  <saltbridge:ASP:83>  (185) 
0

>  <saltbridge:ASP:75>  (185) 
0

>  <hydroph_interaction:TRP:50>  (185) 
0

>  <hydroph_interaction:VAL:72>  (185) 
0

>  <hydroph_interaction:ASP:75>  (185) 
0

>  <halogenbond:ASN:152>  (185) 
0

>  <halogenbond:GLY:153>  (185) 
0

>  <halogenbond:TYR:130>  (185) 
1

>  <hbond:TYR:130>  (185) 
0

>  <halogenbond:ASP:75>  (185) 
0

>  <halogenbond:GLY:151>  (185) 
0

>  <hbond:TYR:150>  (185) 
0

>  <halogenbond:TYR:161>  (185) 
0

>  <hydroph_interaction:ASP:129>  (185) 
0

>  <hbond:ASP:129>  (185) 
0

>  <halogenbond:ALA:132>  (185) 
0

$$$$
PV-003215448233
     RDKit          3D

 20 21  0  0  0  0  0  0  0  0999 V2000
   -8.2450    2.7880  -12.8760 O   0  0  0  0  0  0  0  0  0  0  0  0
   -8.7320    3.8730  -12.6400 C   0  0  0  0  0  0  0  0  0  0  0  0
   -9.1630    4.7410  -13.6340 N   0  0  0  0  0  0  0  0  0  0  0  0
   -8.2210    5.3790  -14.4050 C   0  0  0  0  0  0  0  0  0  0  0  0
   -8.3480    5.2510  -15.9030 C   0  0  0  0  0  0  0  0  0  0  0  0
   -7.2630    5.6440  -16.5950 N   0  0  0  0  0  0  0  0  0  0  0  0
   -7.5010    5.4710  -18.2250 S   0  0  0  0  0  0  0  0  0  0  0  0
   -9.0760    4.8580  -18.0340 C   0  0  0  0  0  0  0  0  0  0  0  0
   -9.4480    4.7790  -16.7100 C   0  0  0  0  0  0  0  0  0  0  0  0
   -8.8420    4.3120  -11.2580 C   0  0  0  0  0  0  0  0  0  0  0  0
   -8.6260    5.5400  -10.8260 N   0  0  0  0  0  0  0  0  0  0  0  0
   -8.7750    5.6430   -9.4870 N   0  0  0  0  0  0  0  0  0  0  0  0
   -9.1060    4.4920   -8.9330 C   0  0  0  0  0  0  0  0  0  0  0  0
   -9.2640    3.1890  -10.0330 S   0  0  0  0  0  0  0  0  0  0  0  0
  -10.0640    4.6030  -14.0650 H   0  0  0  0  0  0  0  0  0  0  0  0
   -8.2690    6.4350  -14.1210 H   0  0  0  0  0  0  0  0  0  0  0  0
   -7.2310    5.0160  -14.1070 H   0  0  0  0  0  0  0  0  0  0  0  0
   -9.8040    4.5330  -18.7900 H   0  0  0  0  0  0  0  0  0  0  0  0
  -10.3820    4.4340  -16.3060 H   0  0  0  0  0  0  0  0  0  0  0  0
   -9.2660    4.3750   -7.8700 H   0  0  0  0  0  0  0  0  0  0  0  0
  1  2  2  0
  2  3  1  0
  3  4  1  0
  4  5  1  0
  5  6  2  0
  6  7  1  0
  7  8  1  0
  8  9  2  0
  2 10  1  0
 10 11  2  0
 11 12  1  0
 12 13  2  0
 13 14  1  0
  9  5  1  0
 14 10  1  0
  3 15  1  0
  4 16  1  0
  4 17  1  0
  8 18  1  0
  9 19  1  0
 13 20  1  0
A    1
 O1 
A    2
 C1 
A    3
 N1 
A    4
 C2 
A    5
 C3 
A    6
 N2 
A    7
 S1 
A    8
 C4 
A    9
 C5 
A   10
 C6 
A   11
 N3 
A   12
 N4 
A   13
 C7 
A   14
 S2 
A   15
 H1 
A   16
 H2 
A   17
 H3 
A   18
 H4 
A   19
 H5 
A   20
 H6 
M  END
>  <ref_pdb>  (186) 
x0051_0B

>  <ref_mols>  (186) 
x0969_1B,x0553_0B

>  <original SMILES>  (186) 
[H]c1nnc(C(=O)N([H])C([H])([H])c2nsc([H])c2[H])s1

>  <index>  (186) 
847

>  <∆∆G>  (186) 
-3.964481

>  <comRMSD>  (186) 
0.530679

>  <N_constrained_atoms>  (186) 
14.0

>  <N_unconstrained_atoms>  (186) 
0.0

>  <LE>  (186) 
0.283177

>  <percent_hybrid>  (186) 
0.0

>  <max_hit_Tanimoto>  (186) 
0.177068

>  <largest_ring>  (186) 
5

>  <N_interactions_kept>  (186) 
0.0

>  <N_interactions_lost>  (186) 
0.0

>  <interaction_uniqueness_metric>  (186) 
0.332951

>  <N_HA>  (186) 
14

>  <N_rotatable_bonds>  (186) 
3

>  <N_interactions>  (186) 
5

>  <N_PAINS>  (186) 
0

>  <UFF_Gibbs>  (186) 
43.537813

>  <strain_per_HA>  (186) 
3.109822

>  <ad_hoc_penalty>  (186) 
-34.419708

>  <cluster>  (186) 
4267

>  <merger_rank>  (186) 
3

>  <pication:ARG:29>  (186) 
0

>  <hbond:HIS:51>  (186) 
1

>  <pistack:HIS:51>  (186) 
1

>  <hydroph_interaction:TYR:161>  (186) 
0

>  <pication:HIS:51>  (186) 
0

>  <hydroph_interaction:ALA:132>  (186) 
0

>  <hydroph_interaction:TYR:150>  (186) 
0

>  <hydroph_interaction:LYS:54>  (186) 
0

>  <hbond:SER:135>  (186) 
0

>  <hydroph_interaction:HIS:51>  (186) 
0

>  <hbond:ASP:83>  (186) 
0

>  <hbond:ALA:132>  (186) 
0

>  <halogenbond:SER:81>  (186) 
0

>  <hbond:GLY:82>  (186) 
0

>  <saltbridge:HIS:51>  (186) 
0

>  <pistack:TYR:161>  (186) 
1

>  <hbond:SER:81>  (186) 
0

>  <hbond:ASN:152>  (186) 
0

>  <hbond:GLY:151>  (186) 
0

>  <hydroph_interaction:ASN:152>  (186) 
0

>  <hbond:TYR:161>  (186) 
1

>  <halogenbond:TYR:150>  (186) 
0

>  <hbond:ASP:75>  (186) 
0

>  <hbond:GLY:153>  (186) 
1

>  <hbond:VAL:36>  (186) 
0

>  <hbond:PRO:131>  (186) 
0

>  <hbond:VAL:52>  (186) 
0

>  <hydroph_interaction:ASP:83>  (186) 
0

>  <hydroph_interaction:MET:49>  (186) 
0

>  <hydroph_interaction:VAL:52>  (186) 
0

>  <saltbridge:ASP:83>  (186) 
0

>  <saltbridge:ASP:75>  (186) 
0

>  <hydroph_interaction:TRP:50>  (186) 
0

>  <hydroph_interaction:VAL:72>  (186) 
0

>  <hydroph_interaction:ASP:75>  (186) 
0

>  <halogenbond:ASN:152>  (186) 
0

>  <halogenbond:GLY:153>  (186) 
0

>  <halogenbond:TYR:130>  (186) 
0

>  <hbond:TYR:130>  (186) 
0

>  <halogenbond:ASP:75>  (186) 
0

>  <halogenbond:GLY:151>  (186) 
0

>  <hbond:TYR:150>  (186) 
0

>  <halogenbond:TYR:161>  (186) 
0

>  <hydroph_interaction:ASP:129>  (186) 
0

>  <hbond:ASP:129>  (186) 
0

>  <halogenbond:ALA:132>  (186) 
0

$$$$
Z3388888970
     RDKit          3D

 29 31  0  0  0  0  0  0  0  0999 V2000
   -8.2630    3.2580   -7.1030 C   0  0  0  0  0  0  0  0  0  0  0  0
   -9.1640    3.1040   -8.1310 C   0  0  0  0  0  0  0  0  0  0  0  0
   -9.0640    3.8100   -9.3730 C   0  0  0  0  0  0  0  0  0  0  0  0
   -9.0790    3.2260  -10.5750 N   0  0  0  0  0  0  0  0  0  0  0  0
   -8.9720    4.2070  -11.5300 N   0  0  0  0  0  0  0  0  0  0  0  0
   -8.8940    5.3590  -10.9110 C   0  0  0  0  0  0  0  0  0  0  0  0
   -8.7530    6.9250  -11.6790 S   0  0  0  0  0  0  0  0  0  0  0  0
   -8.4620    6.4310  -13.3690 C   0  0  0  0  0  0  0  0  0  0  0  0
   -7.5190    6.9730  -14.0840 N   0  0  0  0  0  0  0  0  0  0  0  0
   -7.4490    6.5050  -15.2790 C   0  0  0  0  0  0  0  0  0  0  0  0
   -6.5090    6.8700  -16.3790 C   0  0  0  0  0  0  0  0  0  0  0  0
   -6.7010    6.1420  -17.6570 C   0  0  0  0  0  0  0  0  0  0  0  0
   -7.6900    5.2010  -17.7690 C   0  0  0  0  0  0  0  0  0  0  0  0
   -7.8010    4.5610  -19.0400 C   0  0  0  0  0  0  0  0  0  0  0  0
   -8.5460    4.8560  -16.7700 N   0  0  0  0  0  0  0  0  0  0  0  0
   -8.3840    5.5200  -15.5860 C   0  0  0  0  0  0  0  0  0  0  0  0
   -9.3620    5.2370  -14.2050 S   0  0  0  0  0  0  0  0  0  0  0  0
   -8.9430    5.1790   -9.5510 N   0  0  0  0  0  0  0  0  0  0  0  0
   -8.3970    3.9830   -6.3090 H   0  0  0  0  0  0  0  0  0  0  0  0
   -7.2790    3.4740   -7.5320 H   0  0  0  0  0  0  0  0  0  0  0  0
   -8.1710    2.2910   -6.5970 H   0  0  0  0  0  0  0  0  0  0  0  0
   -9.1900    2.0350   -8.3750 H   0  0  0  0  0  0  0  0  0  0  0  0
  -10.1530    3.3120   -7.7160 H   0  0  0  0  0  0  0  0  0  0  0  0
   -5.7270    7.6280  -16.2590 H   0  0  0  0  0  0  0  0  0  0  0  0
   -6.0560    6.3580  -18.5050 H   0  0  0  0  0  0  0  0  0  0  0  0
   -6.8740    4.2800  -19.5210 H   0  0  0  0  0  0  0  0  0  0  0  0
   -8.3300    3.6160  -19.0000 H   0  0  0  0  0  0  0  0  0  0  0  0
   -8.3290    5.0650  -19.8400 H   0  0  0  0  0  0  0  0  0  0  0  0
   -8.9030    5.8960   -8.8430 H   0  0  0  0  0  0  0  0  0  0  0  0
  1  2  1  0
  2  3  1  0
  3  4  2  0
  4  5  1  0
  5  6  2  0
  6  7  1  0
  7  8  1  0
  8  9  2  0
  9 10  1  0
 10 11  2  0
 11 12  1  0
 12 13  2  0
 13 14  1  0
 13 15  1  0
 15 16  2  0
 16 17  1  0
  6 18  1  0
 18  3  1  0
 17  8  1  0
 16 10  1  0
  1 19  1  0
  1 20  1  0
  1 21  1  0
  2 22  1  0
  2 23  1  0
 11 24  1  0
 12 25  1  0
 14 26  1  0
 14 27  1  0
 14 28  1  0
 18 29  1  0
A    1
 C1 
A    2
 C2 
A    3
 C3 
A    4
 N1 
A    5
 N2 
A    6
 C4 
A    7
 S1 
A    8
 C5 
A    9
 N3 
A   10
 C6 
A   11
 C7 
A   12
 C8 
A   13
 C9 
A   14
 C10
A   15
 N4 
A   16
 C11
A   17
 S2 
A   18
 N5 
A   19
 H1 
A   20
 H2 
A   21
 H3 
A   22
 H4 
A   23
 H5 
A   24
 H6 
A   25
 H7 
A   26
 H8 
A   27
 H9 
A   28
 H10
A   29
 H11
M  END
>  <ref_pdb>  (187) 
x0051_0B

>  <ref_mols>  (187) 
x0404_0B,x0969_0B

>  <original SMILES>  (187) 
[H]c1c(C([H])([H])[H])nc2sc(Sc3nnc(C([H])([H])C([H])([H])[H])n3[H])nc2c1[H]

>  <index>  (187) 
3996

>  <∆∆G>  (187) 
-7.067976

>  <comRMSD>  (187) 
0.900691

>  <N_constrained_atoms>  (187) 
17.0

>  <N_unconstrained_atoms>  (187) 
1.0

>  <LE>  (187) 
0.392665

>  <percent_hybrid>  (187) 
0.0

>  <max_hit_Tanimoto>  (187) 
0.336046

>  <largest_ring>  (187) 
6

>  <N_interactions_kept>  (187) 
0.0

>  <N_interactions_lost>  (187) 
0.0

>  <interaction_uniqueness_metric>  (187) 
0.20685

>  <N_HA>  (187) 
18

>  <N_rotatable_bonds>  (187) 
5

>  <N_interactions>  (187) 
5

>  <N_PAINS>  (187) 
0

>  <UFF_Gibbs>  (187) 
76.106876

>  <strain_per_HA>  (187) 
4.228136

>  <ad_hoc_penalty>  (187) 
-34.348833

>  <cluster>  (187) 
2053

>  <merger_rank>  (187) 
4

>  <pication:ARG:29>  (187) 
0

>  <hbond:HIS:51>  (187) 
0

>  <pistack:HIS:51>  (187) 
1

>  <hydroph_interaction:TYR:161>  (187) 
1

>  <pication:HIS:51>  (187) 
0

>  <hydroph_interaction:ALA:132>  (187) 
1

>  <hydroph_interaction:TYR:150>  (187) 
0

>  <hydroph_interaction:LYS:54>  (187) 
0

>  <hbond:SER:135>  (187) 
0

>  <hydroph_interaction:HIS:51>  (187) 
0

>  <hbond:ASP:83>  (187) 
0

>  <hbond:ALA:132>  (187) 
0

>  <halogenbond:SER:81>  (187) 
0

>  <hbond:GLY:82>  (187) 
0

>  <saltbridge:HIS:51>  (187) 
0

>  <pistack:TYR:161>  (187) 
1

>  <hbond:SER:81>  (187) 
0

>  <hbond:ASN:152>  (187) 
0

>  <hbond:GLY:151>  (187) 
0

>  <hydroph_interaction:ASN:152>  (187) 
0

>  <hbond:TYR:161>  (187) 
0

>  <halogenbond:TYR:150>  (187) 
0

>  <hbond:ASP:75>  (187) 
0

>  <hbond:GLY:153>  (187) 
0

>  <hbond:VAL:36>  (187) 
0

>  <hbond:PRO:131>  (187) 
0

>  <hbond:VAL:52>  (187) 
0

>  <hydroph_interaction:ASP:83>  (187) 
1

>  <hydroph_interaction:MET:49>  (187) 
0

>  <hydroph_interaction:VAL:52>  (187) 
0

>  <saltbridge:ASP:83>  (187) 
0

>  <saltbridge:ASP:75>  (187) 
0

>  <hydroph_interaction:TRP:50>  (187) 
0

>  <hydroph_interaction:VAL:72>  (187) 
0

>  <hydroph_interaction:ASP:75>  (187) 
0

>  <halogenbond:ASN:152>  (187) 
0

>  <halogenbond:GLY:153>  (187) 
0

>  <halogenbond:TYR:130>  (187) 
0

>  <hbond:TYR:130>  (187) 
0

>  <halogenbond:ASP:75>  (187) 
0

>  <halogenbond:GLY:151>  (187) 
0

>  <hbond:TYR:150>  (187) 
0

>  <halogenbond:TYR:161>  (187) 
0

>  <hydroph_interaction:ASP:129>  (187) 
0

>  <hbond:ASP:129>  (187) 
0

>  <halogenbond:ALA:132>  (187) 
0

$$$$
PV-002148573913
     RDKit          3D

 21 22  0  0  0  0  0  0  0  0999 V2000
   -8.2100    2.7840  -12.9200 O   0  0  0  0  0  0  0  0  0  0  0  0
   -8.7090    3.8620  -12.6710 C   0  0  0  0  0  0  0  0  0  0  0  0
   -9.1560    4.6890  -13.7080 N   0  0  0  0  0  0  0  0  0  0  0  0
   -8.1810    5.4060  -14.5120 C   0  0  0  0  0  0  0  0  0  0  0  0
   -8.3240    5.2740  -15.8650 C   0  0  0  0  0  0  0  0  0  0  0  0
   -7.2520    5.6540  -16.5890 N   0  0  0  0  0  0  0  0  0  0  0  0
   -7.5340    5.4610  -18.2090 S   0  0  0  0  0  0  0  0  0  0  0  0
   -9.1070    4.8590  -17.9780 C   0  0  0  0  0  0  0  0  0  0  0  0
   -9.4370    4.8020  -16.6450 C   0  0  0  0  0  0  0  0  0  0  0  0
   -8.8290    4.3340  -11.2890 C   0  0  0  0  0  0  0  0  0  0  0  0
   -8.6190    5.5800  -10.8910 N   0  0  0  0  0  0  0  0  0  0  0  0
   -8.7930    5.6410   -9.5210 C   0  0  0  0  0  0  0  0  0  0  0  0
   -9.1300    4.4670   -8.8940 C   0  0  0  0  0  0  0  0  0  0  0  0
   -9.2470    3.2140  -10.0560 S   0  0  0  0  0  0  0  0  0  0  0  0
   -9.9720    4.3220  -14.1900 H   0  0  0  0  0  0  0  0  0  0  0  0
   -8.0460    6.4590  -14.3200 H   0  0  0  0  0  0  0  0  0  0  0  0
   -7.2120    4.9570  -14.2620 H   0  0  0  0  0  0  0  0  0  0  0  0
   -9.8540    4.5320  -18.7110 H   0  0  0  0  0  0  0  0  0  0  0  0
  -10.3820    4.4610  -16.2460 H   0  0  0  0  0  0  0  0  0  0  0  0
   -8.6520    6.6070   -9.0440 H   0  0  0  0  0  0  0  0  0  0  0  0
   -9.3110    4.2850   -7.8470 H   0  0  0  0  0  0  0  0  0  0  0  0
  1  2  2  0
  2  3  1  0
  3  4  1  0
  4  5  1  0
  5  6  2  0
  6  7  1  0
  7  8  1  0
  8  9  2  0
  2 10  1  0
 10 11  2  0
 11 12  1  0
 12 13  2  0
 13 14  1  0
  9  5  1  0
 14 10  1  0
  3 15  1  0
  4 16  1  0
  4 17  1  0
  8 18  1  0
  9 19  1  0
 12 20  1  0
 13 21  1  0
A    1
 O1 
A    2
 C1 
A    3
 N1 
A    4
 C2 
A    5
 C3 
A    6
 N2 
A    7
 S1 
A    8
 C4 
A    9
 C5 
A   10
 C6 
A   11
 N3 
A   12
 C7 
A   13
 C8 
A   14
 S2 
A   15
 H1 
A   16
 H2 
A   17
 H3 
A   18
 H4 
A   19
 H5 
A   20
 H6 
A   21
 H7 
M  END
>  <ref_pdb>  (188) 
x0051_0B

>  <ref_mols>  (188) 
x0969_1B,x0553_0B

>  <original SMILES>  (188) 
[H]c1nc(C(=O)N([H])C([H])([H])c2nsc([H])c2[H])sc1[H]

>  <index>  (188) 
801

>  <∆∆G>  (188) 
-3.99839

>  <comRMSD>  (188) 
0.557153

>  <N_constrained_atoms>  (188) 
14.0

>  <N_unconstrained_atoms>  (188) 
0.0

>  <LE>  (188) 
0.285599

>  <percent_hybrid>  (188) 
0.0

>  <max_hit_Tanimoto>  (188) 
0.250769

>  <largest_ring>  (188) 
5

>  <N_interactions_kept>  (188) 
0.0

>  <N_interactions_lost>  (188) 
0.0

>  <interaction_uniqueness_metric>  (188) 
0.332951

>  <N_HA>  (188) 
14

>  <N_rotatable_bonds>  (188) 
3

>  <N_interactions>  (188) 
5

>  <N_PAINS>  (188) 
0

>  <UFF_Gibbs>  (188) 
48.323587

>  <strain_per_HA>  (188) 
3.45166

>  <ad_hoc_penalty>  (188) 
-34.253298

>  <cluster>  (188) 
4313

>  <merger_rank>  (188) 
4

>  <pication:ARG:29>  (188) 
0

>  <hbond:HIS:51>  (188) 
1

>  <pistack:HIS:51>  (188) 
1

>  <hydroph_interaction:TYR:161>  (188) 
0

>  <pication:HIS:51>  (188) 
0

>  <hydroph_interaction:ALA:132>  (188) 
0

>  <hydroph_interaction:TYR:150>  (188) 
0

>  <hydroph_interaction:LYS:54>  (188) 
0

>  <hbond:SER:135>  (188) 
0

>  <hydroph_interaction:HIS:51>  (188) 
0

>  <hbond:ASP:83>  (188) 
0

>  <hbond:ALA:132>  (188) 
0

>  <halogenbond:SER:81>  (188) 
0

>  <hbond:GLY:82>  (188) 
0

>  <saltbridge:HIS:51>  (188) 
0

>  <pistack:TYR:161>  (188) 
1

>  <hbond:SER:81>  (188) 
0

>  <hbond:ASN:152>  (188) 
0

>  <hbond:GLY:151>  (188) 
0

>  <hydroph_interaction:ASN:152>  (188) 
0

>  <hbond:TYR:161>  (188) 
1

>  <halogenbond:TYR:150>  (188) 
0

>  <hbond:ASP:75>  (188) 
0

>  <hbond:GLY:153>  (188) 
1

>  <hbond:VAL:36>  (188) 
0

>  <hbond:PRO:131>  (188) 
0

>  <hbond:VAL:52>  (188) 
0

>  <hydroph_interaction:ASP:83>  (188) 
0

>  <hydroph_interaction:MET:49>  (188) 
0

>  <hydroph_interaction:VAL:52>  (188) 
0

>  <saltbridge:ASP:83>  (188) 
0

>  <saltbridge:ASP:75>  (188) 
0

>  <hydroph_interaction:TRP:50>  (188) 
0

>  <hydroph_interaction:VAL:72>  (188) 
0

>  <hydroph_interaction:ASP:75>  (188) 
0

>  <halogenbond:ASN:152>  (188) 
0

>  <halogenbond:GLY:153>  (188) 
0

>  <halogenbond:TYR:130>  (188) 
0

>  <hbond:TYR:130>  (188) 
0

>  <halogenbond:ASP:75>  (188) 
0

>  <halogenbond:GLY:151>  (188) 
0

>  <hbond:TYR:150>  (188) 
0

>  <halogenbond:TYR:161>  (188) 
0

>  <hydroph_interaction:ASP:129>  (188) 
0

>  <hbond:ASP:129>  (188) 
0

>  <halogenbond:ALA:132>  (188) 
0

$$$$
Z1661340738
     RDKit          3D

 20 21  0  0  0  0  0  0  0  0999 V2000
   -8.9160    4.8480   -9.0580 C   0  0  0  0  0  0  0  0  0  0  0  0
   -8.6460    4.6940  -10.5380 C   0  0  0  0  0  0  0  0  0  0  0  0
   -8.8500    3.3600  -11.1230 C   0  0  0  0  0  0  0  0  0  0  0  0
   -8.4720    3.4340  -12.7720 S   0  0  0  0  0  0  0  0  0  0  0  0
   -8.0780    5.1040  -12.6930 C   0  0  0  0  0  0  0  0  0  0  0  0
   -7.5260    6.0880  -14.0020 S   0  0  0  0  0  0  0  0  0  0  0  0
   -8.3020    5.5000  -15.4530 C   0  0  0  0  0  0  0  0  0  0  0  0
   -9.5980    5.1640  -15.5440 N   0  0  0  0  0  0  0  0  0  0  0  0
   -9.9250    4.7770  -16.7810 N   0  0  0  0  0  0  0  0  0  0  0  0
   -8.8680    4.8130  -17.6540 C   0  0  0  0  0  0  0  0  0  0  0  0
   -8.9030    4.4580  -19.0850 C   0  0  0  0  0  0  0  0  0  0  0  0
   -7.4180    5.3380  -16.9170 S   0  0  0  0  0  0  0  0  0  0  0  0
   -8.2200    5.6570  -11.4260 N   0  0  0  0  0  0  0  0  0  0  0  0
   -8.0130    4.6410   -8.4720 H   0  0  0  0  0  0  0  0  0  0  0  0
   -9.6880    4.1400   -8.7390 H   0  0  0  0  0  0  0  0  0  0  0  0
   -9.2430    5.8630   -8.8150 H   0  0  0  0  0  0  0  0  0  0  0  0
   -9.1740    2.4310  -10.6760 H   0  0  0  0  0  0  0  0  0  0  0  0
   -9.5500    5.0280  -19.7380 H   0  0  0  0  0  0  0  0  0  0  0  0
   -7.9510    4.4270  -19.6110 H   0  0  0  0  0  0  0  0  0  0  0  0
   -9.3160    3.4460  -19.1040 H   0  0  0  0  0  0  0  0  0  0  0  0
  1  2  1  0
  2  3  2  0
  3  4  1  0
  4  5  1  0
  5  6  1  0
  6  7  1  0
  7  8  2  0
  8  9  1  0
  9 10  2  0
 10 11  1  0
 10 12  1  0
  5 13  2  0
 13  2  1  0
 12  7  1  0
  1 14  1  0
  1 15  1  0
  1 16  1  0
  3 17  1  0
 11 18  1  0
 11 19  1  0
 11 20  1  0
A    1
 C1 
A    2
 C2 
A    3
 C3 
A    4
 S1 
A    5
 C4 
A    6
 S2 
A    7
 C5 
A    8
 N1 
A    9
 N2 
A   10
 C6 
A   11
 C7 
A   12
 S3 
A   13
 N3 
A   14
 H1 
A   15
 H2 
A   16
 H3 
A   17
 H4 
A   18
 H5 
A   19
 H6 
A   20
 H7 
M  END
>  <ref_pdb>  (189) 
x0051_0B

>  <ref_mols>  (189) 
x0969_1B,x0553_0B

>  <original SMILES>  (189) 
[H]c1sc(Sc2nnc(C([H])([H])[H])s2)nc1C([H])([H])[H]

>  <index>  (189) 
4321

>  <∆∆G>  (189) 
-6.33923

>  <comRMSD>  (189) 
0.300177

>  <N_constrained_atoms>  (189) 
12.0

>  <N_unconstrained_atoms>  (189) 
1.0

>  <LE>  (189) 
0.487633

>  <percent_hybrid>  (189) 
0.0

>  <max_hit_Tanimoto>  (189) 
0.181049

>  <largest_ring>  (189) 
5

>  <N_interactions_kept>  (189) 
0.0

>  <N_interactions_lost>  (189) 
0.0

>  <interaction_uniqueness_metric>  (189) 
0.143052

>  <N_HA>  (189) 
13

>  <N_rotatable_bonds>  (189) 
4

>  <N_interactions>  (189) 
5

>  <N_PAINS>  (189) 
0

>  <UFF_Gibbs>  (189) 
35.835188

>  <strain_per_HA>  (189) 
2.756532

>  <ad_hoc_penalty>  (189) 
-34.203247

>  <cluster>  (189) 
1857

>  <merger_rank>  (189) 
1

>  <pication:ARG:29>  (189) 
0

>  <hbond:HIS:51>  (189) 
0

>  <pistack:HIS:51>  (189) 
1

>  <hydroph_interaction:TYR:161>  (189) 
1

>  <pication:HIS:51>  (189) 
0

>  <hydroph_interaction:ALA:132>  (189) 
0

>  <hydroph_interaction:TYR:150>  (189) 
1

>  <hydroph_interaction:LYS:54>  (189) 
0

>  <hbond:SER:135>  (189) 
1

>  <hydroph_interaction:HIS:51>  (189) 
1

>  <hbond:ASP:83>  (189) 
0

>  <hbond:ALA:132>  (189) 
0

>  <halogenbond:SER:81>  (189) 
0

>  <hbond:GLY:82>  (189) 
0

>  <saltbridge:HIS:51>  (189) 
0

>  <pistack:TYR:161>  (189) 
0

>  <hbond:SER:81>  (189) 
0

>  <hbond:ASN:152>  (189) 
0

>  <hbond:GLY:151>  (189) 
0

>  <hydroph_interaction:ASN:152>  (189) 
0

>  <hbond:TYR:161>  (189) 
0

>  <halogenbond:TYR:150>  (189) 
0

>  <hbond:ASP:75>  (189) 
0

>  <hbond:GLY:153>  (189) 
0

>  <hbond:VAL:36>  (189) 
0

>  <hbond:PRO:131>  (189) 
0

>  <hbond:VAL:52>  (189) 
0

>  <hydroph_interaction:ASP:83>  (189) 
0

>  <hydroph_interaction:MET:49>  (189) 
0

>  <hydroph_interaction:VAL:52>  (189) 
0

>  <saltbridge:ASP:83>  (189) 
0

>  <saltbridge:ASP:75>  (189) 
0

>  <hydroph_interaction:TRP:50>  (189) 
0

>  <hydroph_interaction:VAL:72>  (189) 
0

>  <hydroph_interaction:ASP:75>  (189) 
0

>  <halogenbond:ASN:152>  (189) 
0

>  <halogenbond:GLY:153>  (189) 
0

>  <halogenbond:TYR:130>  (189) 
0

>  <hbond:TYR:130>  (189) 
0

>  <halogenbond:ASP:75>  (189) 
0

>  <halogenbond:GLY:151>  (189) 
0

>  <hbond:TYR:150>  (189) 
0

>  <halogenbond:TYR:161>  (189) 
0

>  <hydroph_interaction:ASP:129>  (189) 
0

>  <hbond:ASP:129>  (189) 
0

>  <halogenbond:ALA:132>  (189) 
0

$$$$
Z1576481653
     RDKit          3D

 22 23  0  0  0  0  0  0  0  0999 V2000
   -8.8290    4.4000   -8.6060 C   0  0  0  0  0  0  0  0  0  0  0  0
   -8.7790    4.9360  -10.0250 C   0  0  0  0  0  0  0  0  0  0  0  0
   -8.6770    6.2990  -10.1980 N   0  0  0  0  0  0  0  0  0  0  0  0
   -8.6580    6.5220  -11.8540 S   0  0  0  0  0  0  0  0  0  0  0  0
   -8.7830    4.8270  -12.2220 C   0  0  0  0  0  0  0  0  0  0  0  0
   -8.8260    4.3460  -13.4830 N   0  0  0  0  0  0  0  0  0  0  0  0
   -8.5570    4.8180  -14.7860 C   0  0  0  0  0  0  0  0  0  0  0  0
   -9.5790    4.8690  -15.7170 C   0  0  0  0  0  0  0  0  0  0  0  0
   -9.3750    5.2740  -17.0880 C   0  0  0  0  0  0  0  0  0  0  0  0
   -7.9530    5.6670  -17.4260 C   0  0  0  0  0  0  0  0  0  0  0  0
   -6.9890    5.6200  -16.4590 C   0  0  0  0  0  0  0  0  0  0  0  0
   -5.3840    6.0800  -16.8690 Cl  0  0  0  0  0  0  0  0  0  0  0  0
   -7.2520    5.2030  -15.1470 C   0  0  0  0  0  0  0  0  0  0  0  0
   -8.8340    4.1070  -11.1180 N   0  0  0  0  0  0  0  0  0  0  0  0
   -9.1790    3.3610   -8.5790 H   0  0  0  0  0  0  0  0  0  0  0  0
   -9.5000    5.0010   -7.9910 H   0  0  0  0  0  0  0  0  0  0  0  0
   -7.8420    4.4330   -8.1390 H   0  0  0  0  0  0  0  0  0  0  0  0
   -9.2780    3.4430  -13.5720 H   0  0  0  0  0  0  0  0  0  0  0  0
  -10.5830    4.5790  -15.4350 H   0  0  0  0  0  0  0  0  0  0  0  0
  -10.1860    5.2960  -17.8120 H   0  0  0  0  0  0  0  0  0  0  0  0
   -7.7070    5.9890  -18.4350 H   0  0  0  0  0  0  0  0  0  0  0  0
   -6.3950    5.2010  -14.4910 H   0  0  0  0  0  0  0  0  0  0  0  0
  1  2  1  0
  2  3  2  0
  3  4  1  0
  4  5  1  0
  5  6  1  0
  6  7  1  0
  7  8  2  0
  8  9  1  0
  9 10  2  0
 10 11  1  0
 11 12  1  0
 11 13  2  0
  5 14  2  0
 14  2  1  0
 13  7  1  0
  1 15  1  0
  1 16  1  0
  1 17  1  0
  6 18  1  0
  8 19  1  0
  9 20  1  0
 10 21  1  0
 13 22  1  0
A    1
 C1 
A    2
 C2 
A    3
 N1 
A    4
 S1 
A    5
 C3 
A    6
 N2 
A    7
 C4 
A    8
 C5 
A    9
 C6 
A   10
 C7 
A   11
 C8 
A   12
CL1 
A   13
 C9 
A   14
 N3 
A   15
 H1 
A   16
 H2 
A   17
 H3 
A   18
 H4 
A   19
 H5 
A   20
 H6 
A   21
 H7 
A   22
 H8 
M  END
>  <ref_pdb>  (190) 
x0051_0B

>  <ref_mols>  (190) 
x0969_1B,x0553_0B

>  <original SMILES>  (190) 
[H]c1c([H])c(Cl)c([H])c(N([H])c2nc(C([H])([H])[H])ns2)c1[H]

>  <index>  (190) 
597

>  <∆∆G>  (190) 
-3.330414

>  <comRMSD>  (190) 
0.60094

>  <N_constrained_atoms>  (190) 
13.0

>  <N_unconstrained_atoms>  (190) 
1.0

>  <LE>  (190) 
0.237887

>  <percent_hybrid>  (190) 
0.0

>  <max_hit_Tanimoto>  (190) 
0.309446

>  <largest_ring>  (190) 
6

>  <N_interactions_kept>  (190) 
0.0

>  <N_interactions_lost>  (190) 
0.0

>  <interaction_uniqueness_metric>  (190) 
0.159353

>  <N_HA>  (190) 
14

>  <N_rotatable_bonds>  (190) 
3

>  <N_interactions>  (190) 
6

>  <N_PAINS>  (190) 
0

>  <UFF_Gibbs>  (190) 
33.974579

>  <strain_per_HA>  (190) 
2.426738

>  <ad_hoc_penalty>  (190) 
-34.16101

>  <cluster>  (190) 
4472

>  <merger_rank>  (190) 
3

>  <pication:ARG:29>  (190) 
0

>  <hbond:HIS:51>  (190) 
0

>  <pistack:HIS:51>  (190) 
1

>  <hydroph_interaction:TYR:161>  (190) 
0

>  <pication:HIS:51>  (190) 
0

>  <hydroph_interaction:ALA:132>  (190) 
1

>  <hydroph_interaction:TYR:150>  (190) 
0

>  <hydroph_interaction:LYS:54>  (190) 
0

>  <hbond:SER:135>  (190) 
0

>  <hydroph_interaction:HIS:51>  (190) 
1

>  <hbond:ASP:83>  (190) 
0

>  <hbond:ALA:132>  (190) 
0

>  <halogenbond:SER:81>  (190) 
0

>  <hbond:GLY:82>  (190) 
0

>  <saltbridge:HIS:51>  (190) 
0

>  <pistack:TYR:161>  (190) 
1

>  <hbond:SER:81>  (190) 
0

>  <hbond:ASN:152>  (190) 
0

>  <hbond:GLY:151>  (190) 
1

>  <hydroph_interaction:ASN:152>  (190) 
0

>  <hbond:TYR:161>  (190) 
1

>  <halogenbond:TYR:150>  (190) 
0

>  <hbond:ASP:75>  (190) 
0

>  <hbond:GLY:153>  (190) 
0

>  <hbond:VAL:36>  (190) 
0

>  <hbond:PRO:131>  (190) 
0

>  <hbond:VAL:52>  (190) 
0

>  <hydroph_interaction:ASP:83>  (190) 
0

>  <hydroph_interaction:MET:49>  (190) 
0

>  <hydroph_interaction:VAL:52>  (190) 
0

>  <saltbridge:ASP:83>  (190) 
0

>  <saltbridge:ASP:75>  (190) 
0

>  <hydroph_interaction:TRP:50>  (190) 
0

>  <hydroph_interaction:VAL:72>  (190) 
0

>  <hydroph_interaction:ASP:75>  (190) 
0

>  <halogenbond:ASN:152>  (190) 
0

>  <halogenbond:GLY:153>  (190) 
0

>  <halogenbond:TYR:130>  (190) 
0

>  <hbond:TYR:130>  (190) 
0

>  <halogenbond:ASP:75>  (190) 
0

>  <halogenbond:GLY:151>  (190) 
0

>  <hbond:TYR:150>  (190) 
0

>  <halogenbond:TYR:161>  (190) 
0

>  <hydroph_interaction:ASP:129>  (190) 
0

>  <hbond:ASP:129>  (190) 
0

>  <halogenbond:ALA:132>  (190) 
0

$$$$
Z755050048
     RDKit          3D

 26 28  0  0  0  0  0  0  0  0999 V2000
  -10.2700    7.7890  -13.5150 O   0  0  0  0  0  0  0  0  0  0  0  0
   -9.4080    6.9160  -13.4970 C   0  0  0  0  0  0  0  0  0  0  0  0
   -8.9030    6.3470  -12.3680 N   0  0  0  0  0  0  0  0  0  0  0  0
   -8.5750    5.0290  -12.3560 C   0  0  0  0  0  0  0  0  0  0  0  0
   -8.7900    4.5320  -10.9860 C   0  0  0  0  0  0  0  0  0  0  0  0
   -8.7440    5.1980   -9.7810 C   0  0  0  0  0  0  0  0  0  0  0  0
   -9.0130    4.3800   -8.6150 C   0  0  0  0  0  0  0  0  0  0  0  0
   -9.2710    3.0430   -8.9950 C   0  0  0  0  0  0  0  0  0  0  0  0
   -9.1710    2.8690  -10.6970 S   0  0  0  0  0  0  0  0  0  0  0  0
   -8.7940    6.4020  -14.7120 C   0  0  0  0  0  0  0  0  0  0  0  0
   -9.3810    5.8370  -15.8150 C   0  0  0  0  0  0  0  0  0  0  0  0
   -8.4430    5.4880  -16.8150 C   0  0  0  0  0  0  0  0  0  0  0  0
   -7.1580    5.7900  -16.4230 C   0  0  0  0  0  0  0  0  0  0  0  0
   -6.2660    5.4590  -17.3850 C   0  0  0  0  0  0  0  0  0  0  0  0
   -6.8640    4.9050  -18.5320 C   0  0  0  0  0  0  0  0  0  0  0  0
   -8.5600    4.7780  -18.4020 S   0  0  0  0  0  0  0  0  0  0  0  0
   -7.0860    6.4970  -14.8440 S   0  0  0  0  0  0  0  0  0  0  0  0
   -9.0210    6.7940  -11.4740 H   0  0  0  0  0  0  0  0  0  0  0  0
   -9.2000    4.5090  -13.0950 H   0  0  0  0  0  0  0  0  0  0  0  0
   -7.5280    4.9020  -12.6540 H   0  0  0  0  0  0  0  0  0  0  0  0
   -8.5210    6.2570   -9.7200 H   0  0  0  0  0  0  0  0  0  0  0  0
   -8.9870    4.8670   -7.6350 H   0  0  0  0  0  0  0  0  0  0  0  0
   -9.5030    2.2110   -8.3150 H   0  0  0  0  0  0  0  0  0  0  0  0
  -10.4130    5.6700  -15.9490 H   0  0  0  0  0  0  0  0  0  0  0  0
   -5.2060    5.6220  -17.2590 H   0  0  0  0  0  0  0  0  0  0  0  0
   -6.3710    4.5670  -19.4410 H   0  0  0  0  0  0  0  0  0  0  0  0
  1  2  2  0
  2  3  1  0
  3  4  1  0
  4  5  1  0
  5  6  2  0
  6  7  1  0
  7  8  2  0
  8  9  1  0
  2 10  1  0
 10 11  2  0
 11 12  1  0
 12 13  2  0
 13 14  1  0
 14 15  2  0
 15 16  1  0
 13 17  1  0
  9  5  1  0
 17 10  1  0
 16 12  1  0
  3 18  1  0
  4 19  1  0
  4 20  1  0
  6 21  1  0
  7 22  1  0
  8 23  1  0
 11 24  1  0
 14 25  1  0
 15 26  1  0
A    1
 O1 
A    2
 C1 
A    3
 N1 
A    4
 C2 
A    5
 C3 
A    6
 C4 
A    7
 C5 
A    8
 C6 
A    9
 S1 
A   10
 C7 
A   11
 C8 
A   12
 C9 
A   13
 C10
A   14
 C11
A   15
 C12
A   16
 S2 
A   17
 S3 
A   18
 H1 
A   19
 H2 
A   20
 H3 
A   21
 H4 
A   22
 H5 
A   23
 H6 
A   24
 H7 
A   25
 H8 
A   26
 H9 
M  END
>  <ref_pdb>  (191) 
x0051_0B

>  <ref_mols>  (191) 
x0404_0B,x0969_0B

>  <original SMILES>  (191) 
[H]c1sc(C([H])([H])N([H])C(=O)c2sc3c([H])c([H])sc3c2[H])c([H])c1[H]

>  <index>  (191) 
4516

>  <∆∆G>  (191) 
-7.057149

>  <comRMSD>  (191) 
0.340959

>  <N_constrained_atoms>  (191) 
17.0

>  <N_unconstrained_atoms>  (191) 
0.0

>  <LE>  (191) 
0.415126

>  <percent_hybrid>  (191) 
0.0

>  <max_hit_Tanimoto>  (191) 
0.225771

>  <largest_ring>  (191) 
5

>  <N_interactions_kept>  (191) 
0.0

>  <N_interactions_lost>  (191) 
0.0

>  <interaction_uniqueness_metric>  (191) 
0.079783

>  <N_HA>  (191) 
17

>  <N_rotatable_bonds>  (191) 
3

>  <N_interactions>  (191) 
4

>  <N_PAINS>  (191) 
0

>  <UFF_Gibbs>  (191) 
55.087729

>  <strain_per_HA>  (191) 
3.240436

>  <ad_hoc_penalty>  (191) 
-34.152453

>  <cluster>  (191) 
1719

>  <merger_rank>  (191) 
2

>  <pication:ARG:29>  (191) 
0

>  <hbond:HIS:51>  (191) 
0

>  <pistack:HIS:51>  (191) 
1

>  <hydroph_interaction:TYR:161>  (191) 
0

>  <pication:HIS:51>  (191) 
0

>  <hydroph_interaction:ALA:132>  (191) 
1

>  <hydroph_interaction:TYR:150>  (191) 
0

>  <hydroph_interaction:LYS:54>  (191) 
0

>  <hbond:SER:135>  (191) 
0

>  <hydroph_interaction:HIS:51>  (191) 
1

>  <hbond:ASP:83>  (191) 
0

>  <hbond:ALA:132>  (191) 
0

>  <halogenbond:SER:81>  (191) 
0

>  <hbond:GLY:82>  (191) 
0

>  <saltbridge:HIS:51>  (191) 
0

>  <pistack:TYR:161>  (191) 
1

>  <hbond:SER:81>  (191) 
0

>  <hbond:ASN:152>  (191) 
0

>  <hbond:GLY:151>  (191) 
0

>  <hydroph_interaction:ASN:152>  (191) 
0

>  <hbond:TYR:161>  (191) 
0

>  <halogenbond:TYR:150>  (191) 
0

>  <hbond:ASP:75>  (191) 
0

>  <hbond:GLY:153>  (191) 
0

>  <hbond:VAL:36>  (191) 
0

>  <hbond:PRO:131>  (191) 
0

>  <hbond:VAL:52>  (191) 
0

>  <hydroph_interaction:ASP:83>  (191) 
0

>  <hydroph_interaction:MET:49>  (191) 
0

>  <hydroph_interaction:VAL:52>  (191) 
0

>  <saltbridge:ASP:83>  (191) 
0

>  <saltbridge:ASP:75>  (191) 
0

>  <hydroph_interaction:TRP:50>  (191) 
0

>  <hydroph_interaction:VAL:72>  (191) 
0

>  <hydroph_interaction:ASP:75>  (191) 
0

>  <halogenbond:ASN:152>  (191) 
0

>  <halogenbond:GLY:153>  (191) 
0

>  <halogenbond:TYR:130>  (191) 
0

>  <hbond:TYR:130>  (191) 
0

>  <halogenbond:ASP:75>  (191) 
0

>  <halogenbond:GLY:151>  (191) 
0

>  <hbond:TYR:150>  (191) 
0

>  <halogenbond:TYR:161>  (191) 
0

>  <hydroph_interaction:ASP:129>  (191) 
0

>  <hbond:ASP:129>  (191) 
0

>  <halogenbond:ALA:132>  (191) 
0

$$$$
PV-005688352859
     RDKit          3D

 32 34  0  0  0  0  0  0  0  0999 V2000
   -9.6420    1.8160   -9.3820 C   0  0  0  0  0  0  0  0  0  0  0  0
   -9.2170    3.2300   -9.6330 C   0  0  0  0  0  0  0  0  0  0  0  0
   -8.9800    4.1210   -8.5400 C   0  0  0  0  0  0  0  0  0  0  0  0
   -8.5630    5.4470   -9.0410 C   0  0  0  0  0  0  0  0  0  0  0  0
   -8.5260    5.3390  -10.3710 N   0  0  0  0  0  0  0  0  0  0  0  0
   -8.7860    6.5390  -11.0030 C   0  0  0  0  0  0  0  0  0  0  0  0
   -8.8840    7.5830  -10.3710 O   0  0  0  0  0  0  0  0  0  0  0  0
   -8.9110    6.5060  -12.4560 C   0  0  0  0  0  0  0  0  0  0  0  0
   -9.8740    7.1720  -13.2230 C   0  0  0  0  0  0  0  0  0  0  0  0
   -9.6410    6.8940  -14.5330 N   0  0  0  0  0  0  0  0  0  0  0  0
   -8.5750    6.0730  -14.7510 C   0  0  0  0  0  0  0  0  0  0  0  0
   -8.1140    5.6520  -16.0830 C   0  0  0  0  0  0  0  0  0  0  0  0
   -6.7710    5.6940  -16.4340 C   0  0  0  0  0  0  0  0  0  0  0  0
   -6.3980    5.2860  -17.7530 C   0  0  0  0  0  0  0  0  0  0  0  0
   -7.3990    4.8650  -18.6140 C   0  0  0  0  0  0  0  0  0  0  0  0
   -8.6990    4.8640  -18.1270 C   0  0  0  0  0  0  0  0  0  0  0  0
   -9.0580    5.2430  -16.9030 N   0  0  0  0  0  0  0  0  0  0  0  0
   -7.7970    5.5870  -13.3650 S   0  0  0  0  0  0  0  0  0  0  0  0
   -8.9580    4.0000  -10.9050 C   0  0  0  0  0  0  0  0  0  0  0  0
   -8.8020    1.1290   -9.4720 H   0  0  0  0  0  0  0  0  0  0  0  0
  -10.0810    1.6810   -8.3860 H   0  0  0  0  0  0  0  0  0  0  0  0
  -10.3790    1.5400  -10.1220 H   0  0  0  0  0  0  0  0  0  0  0  0
   -9.0590    3.9300   -7.4670 H   0  0  0  0  0  0  0  0  0  0  0  0
   -9.0970    6.3530   -8.7380 H   0  0  0  0  0  0  0  0  0  0  0  0
   -7.5410    5.5850   -8.7250 H   0  0  0  0  0  0  0  0  0  0  0  0
  -10.6890    7.8170  -12.9400 H   0  0  0  0  0  0  0  0  0  0  0  0
   -6.0190    6.0320  -15.7300 H   0  0  0  0  0  0  0  0  0  0  0  0
   -5.3610    5.3020  -18.0740 H   0  0  0  0  0  0  0  0  0  0  0  0
   -7.1810    4.5470  -19.6280 H   0  0  0  0  0  0  0  0  0  0  0  0
   -9.5230    4.5410  -18.7580 H   0  0  0  0  0  0  0  0  0  0  0  0
   -8.1530    3.5500  -11.4910 H   0  0  0  0  0  0  0  0  0  0  0  0
   -9.8430    4.1190  -11.5260 H   0  0  0  0  0  0  0  0  0  0  0  0
  1  2  1  0
  2  3  2  0
  3  4  1  0
  4  5  1  0
  5  6  1  0
  6  7  2  0
  6  8  1  0
  8  9  2  0
  9 10  1  0
 10 11  2  0
 11 12  1  0
 12 13  2  0
 13 14  1  0
 14 15  2  0
 15 16  1  0
 16 17  2  0
 11 18  1  0
  5 19  1  0
 19  2  1  0
 18  8  1  0
 17 12  1  0
  1 20  1  0
  1 21  1  0
  1 22  1  0
  3 23  1  0
  4 24  1  0
  4 25  1  0
  9 26  1  0
 13 27  1  0
 14 28  1  0
 15 29  1  0
 16 30  1  0
 19 31  1  0
 19 32  1  0
A    1
 C1 
A    2
 C2 
A    3
 C3 
A    4
 C4 
A    5
 N1 
A    6
 C5 
A    7
 O1 
A    8
 C6 
A    9
 C7 
A   10
 N2 
A   11
 C8 
A   12
 C9 
A   13
 C10
A   14
 C11
A   15
 C12
A   16
 C13
A   17
 N3 
A   18
 S1 
A   19
 C14
A   20
 H1 
A   21
 H2 
A   22
 H3 
A   23
 H4 
A   24
 H5 
A   25
 H6 
A   26
 H7 
A   27
 H8 
A   28
 H9 
A   29
 H10
A   30
 H11
A   31
 H12
A   32
 H13
M  END
>  <ref_pdb>  (192) 
x0051_0B

>  <ref_mols>  (192) 
x0404_0B,x0969_0B

>  <original SMILES>  (192) 
[H]C1=C(C([H])([H])[H])C([H])([H])N(C(=O)c2sc(-c3nc([H])c([H])c([H])c3[H])nc2[H])C1([H])[H]

>  <index>  (192) 
5363

>  <∆∆G>  (192) 
-6.702889

>  <comRMSD>  (192) 
0.311495

>  <N_constrained_atoms>  (192) 
18.0

>  <N_unconstrained_atoms>  (192) 
1.0

>  <LE>  (192) 
0.352784

>  <percent_hybrid>  (192) 
0.0

>  <max_hit_Tanimoto>  (192) 
0.343949

>  <largest_ring>  (192) 
6

>  <N_interactions_kept>  (192) 
0.0

>  <N_interactions_lost>  (192) 
0.0

>  <interaction_uniqueness_metric>  (192) 
0.160409

>  <N_HA>  (192) 
19

>  <N_rotatable_bonds>  (192) 
3

>  <N_interactions>  (192) 
4

>  <N_PAINS>  (192) 
0

>  <UFF_Gibbs>  (192) 
68.82903

>  <strain_per_HA>  (192) 
3.622561

>  <ad_hoc_penalty>  (192) 
-34.13824

>  <cluster>  (192) 
145

>  <merger_rank>  (192) 
2

>  <pication:ARG:29>  (192) 
0

>  <hbond:HIS:51>  (192) 
0

>  <pistack:HIS:51>  (192) 
1

>  <hydroph_interaction:TYR:161>  (192) 
0

>  <pication:HIS:51>  (192) 
0

>  <hydroph_interaction:ALA:132>  (192) 
0

>  <hydroph_interaction:TYR:150>  (192) 
0

>  <hydroph_interaction:LYS:54>  (192) 
0

>  <hbond:SER:135>  (192) 
0

>  <hydroph_interaction:HIS:51>  (192) 
1

>  <hbond:ASP:83>  (192) 
0

>  <hbond:ALA:132>  (192) 
0

>  <halogenbond:SER:81>  (192) 
0

>  <hbond:GLY:82>  (192) 
0

>  <saltbridge:HIS:51>  (192) 
0

>  <pistack:TYR:161>  (192) 
1

>  <hbond:SER:81>  (192) 
0

>  <hbond:ASN:152>  (192) 
0

>  <hbond:GLY:151>  (192) 
0

>  <hydroph_interaction:ASN:152>  (192) 
1

>  <hbond:TYR:161>  (192) 
0

>  <halogenbond:TYR:150>  (192) 
0

>  <hbond:ASP:75>  (192) 
0

>  <hbond:GLY:153>  (192) 
0

>  <hbond:VAL:36>  (192) 
0

>  <hbond:PRO:131>  (192) 
0

>  <hbond:VAL:52>  (192) 
0

>  <hydroph_interaction:ASP:83>  (192) 
0

>  <hydroph_interaction:MET:49>  (192) 
0

>  <hydroph_interaction:VAL:52>  (192) 
0

>  <saltbridge:ASP:83>  (192) 
0

>  <saltbridge:ASP:75>  (192) 
0

>  <hydroph_interaction:TRP:50>  (192) 
0

>  <hydroph_interaction:VAL:72>  (192) 
0

>  <hydroph_interaction:ASP:75>  (192) 
0

>  <halogenbond:ASN:152>  (192) 
0

>  <halogenbond:GLY:153>  (192) 
0

>  <halogenbond:TYR:130>  (192) 
0

>  <hbond:TYR:130>  (192) 
0

>  <halogenbond:ASP:75>  (192) 
0

>  <halogenbond:GLY:151>  (192) 
0

>  <hbond:TYR:150>  (192) 
0

>  <halogenbond:TYR:161>  (192) 
0

>  <hydroph_interaction:ASP:129>  (192) 
0

>  <hbond:ASP:129>  (192) 
0

>  <halogenbond:ALA:132>  (192) 
0

$$$$
PV-002797838879
     RDKit          3D

 23 25  0  0  0  0  0  0  0  0999 V2000
   -9.7940    4.5770  -18.2920 C   0  0  0  0  0  0  0  0  0  0  0  0
   -8.3920    4.8170  -17.7630 C   0  0  0  0  0  0  0  0  0  0  0  0
   -8.3050    5.2840  -16.3010 C   0  0  0  0  0  0  0  0  0  0  0  0
   -7.8840    6.5030  -15.9980 N   0  0  0  0  0  0  0  0  0  0  0  0
   -7.9550    6.5030  -14.6080 O   0  0  0  0  0  0  0  0  0  0  0  0
   -8.4160    5.2530  -14.2350 C   0  0  0  0  0  0  0  0  0  0  0  0
   -8.6130    4.8510  -12.8710 C   0  0  0  0  0  0  0  0  0  0  0  0
   -8.6010    5.7060  -11.7970 C   0  0  0  0  0  0  0  0  0  0  0  0
   -8.8060    5.0680  -10.6140 C   0  0  0  0  0  0  0  0  0  0  0  0
   -8.9970    3.6190  -10.7670 C   0  0  0  0  0  0  0  0  0  0  0  0
   -9.2670    2.8470   -9.2790 S   0  0  0  0  0  0  0  0  0  0  0  0
   -9.1250    4.3380   -8.4220 C   0  0  0  0  0  0  0  0  0  0  0  0
   -8.8740    5.4920   -9.2610 C   0  0  0  0  0  0  0  0  0  0  0  0
   -8.8900    3.1940  -12.3690 S   0  0  0  0  0  0  0  0  0  0  0  0
   -8.6410    4.4810  -15.2850 N   0  0  0  0  0  0  0  0  0  0  0  0
  -10.0570    5.2670  -19.0990 H   0  0  0  0  0  0  0  0  0  0  0  0
  -10.5360    4.6770  -17.4940 H   0  0  0  0  0  0  0  0  0  0  0  0
   -9.8600    3.5620  -18.6900 H   0  0  0  0  0  0  0  0  0  0  0  0
   -7.9240    5.5800  -18.3950 H   0  0  0  0  0  0  0  0  0  0  0  0
   -7.8040    3.9050  -17.9060 H   0  0  0  0  0  0  0  0  0  0  0  0
   -8.4430    6.7740  -11.8840 H   0  0  0  0  0  0  0  0  0  0  0  0
   -9.2280    4.3410   -7.3450 H   0  0  0  0  0  0  0  0  0  0  0  0
   -8.7590    6.5100   -8.9190 H   0  0  0  0  0  0  0  0  0  0  0  0
  1  2  1  0
  2  3  1  0
  3  4  2  0
  4  5  1  0
  5  6  1  0
  6  7  1  0
  7  8  2  0
  8  9  1  0
  9 10  2  0
 10 11  1  0
 11 12  1  0
 12 13  2  0
 10 14  1  0
  6 15  2  0
 15  3  1  0
 14  7  1  0
 13  9  1  0
  1 16  1  0
  1 17  1  0
  1 18  1  0
  2 19  1  0
  2 20  1  0
  8 21  1  0
 12 22  1  0
 13 23  1  0
A    1
 C1 
A    2
 C2 
A    3
 C3 
A    4
 N1 
A    5
 O1 
A    6
 C4 
A    7
 C5 
A    8
 C6 
A    9
 C7 
A   10
 C8 
A   11
 S1 
A   12
 C9 
A   13
 C10
A   14
 S2 
A   15
 N2 
A   16
 H1 
A   17
 H2 
A   18
 H3 
A   19
 H4 
A   20
 H5 
A   21
 H6 
A   22
 H7 
A   23
 H8 
M  END
>  <ref_pdb>  (193) 
x0051_0B

>  <ref_mols>  (193) 
x0969_1B,x0553_0B

>  <original SMILES>  (193) 
[H]c1sc2sc(-c3nc(C([H])([H])C([H])([H])[H])no3)c([H])c2c1[H]

>  <index>  (193) 
1499

>  <∆∆G>  (193) 
-5.100768

>  <comRMSD>  (193) 
0.391963

>  <N_constrained_atoms>  (193) 
14.0

>  <N_unconstrained_atoms>  (193) 
1.0

>  <LE>  (193) 
0.340051

>  <percent_hybrid>  (193) 
0.0

>  <max_hit_Tanimoto>  (193) 
0.34065

>  <largest_ring>  (193) 
5

>  <N_interactions_kept>  (193) 
0.0

>  <N_interactions_lost>  (193) 
0.0

>  <interaction_uniqueness_metric>  (193) 
0.118463

>  <N_HA>  (193) 
15

>  <N_rotatable_bonds>  (193) 
3

>  <N_interactions>  (193) 
5

>  <N_PAINS>  (193) 
0

>  <UFF_Gibbs>  (193) 
32.705779

>  <strain_per_HA>  (193) 
2.180371

>  <ad_hoc_penalty>  (193) 
-34.131842

>  <cluster>  (193) 
605

>  <merger_rank>  (193) 
1

>  <pication:ARG:29>  (193) 
0

>  <hbond:HIS:51>  (193) 
0

>  <pistack:HIS:51>  (193) 
2

>  <hydroph_interaction:TYR:161>  (193) 
1

>  <pication:HIS:51>  (193) 
0

>  <hydroph_interaction:ALA:132>  (193) 
0

>  <hydroph_interaction:TYR:150>  (193) 
1

>  <hydroph_interaction:LYS:54>  (193) 
0

>  <hbond:SER:135>  (193) 
0

>  <hydroph_interaction:HIS:51>  (193) 
1

>  <hbond:ASP:83>  (193) 
0

>  <hbond:ALA:132>  (193) 
0

>  <halogenbond:SER:81>  (193) 
0

>  <hbond:GLY:82>  (193) 
0

>  <saltbridge:HIS:51>  (193) 
0

>  <pistack:TYR:161>  (193) 
0

>  <hbond:SER:81>  (193) 
0

>  <hbond:ASN:152>  (193) 
0

>  <hbond:GLY:151>  (193) 
0

>  <hydroph_interaction:ASN:152>  (193) 
0

>  <hbond:TYR:161>  (193) 
0

>  <halogenbond:TYR:150>  (193) 
0

>  <hbond:ASP:75>  (193) 
0

>  <hbond:GLY:153>  (193) 
0

>  <hbond:VAL:36>  (193) 
0

>  <hbond:PRO:131>  (193) 
0

>  <hbond:VAL:52>  (193) 
0

>  <hydroph_interaction:ASP:83>  (193) 
0

>  <hydroph_interaction:MET:49>  (193) 
0

>  <hydroph_interaction:VAL:52>  (193) 
0

>  <saltbridge:ASP:83>  (193) 
0

>  <saltbridge:ASP:75>  (193) 
0

>  <hydroph_interaction:TRP:50>  (193) 
0

>  <hydroph_interaction:VAL:72>  (193) 
0

>  <hydroph_interaction:ASP:75>  (193) 
0

>  <halogenbond:ASN:152>  (193) 
0

>  <halogenbond:GLY:153>  (193) 
0

>  <halogenbond:TYR:130>  (193) 
0

>  <hbond:TYR:130>  (193) 
0

>  <halogenbond:ASP:75>  (193) 
0

>  <halogenbond:GLY:151>  (193) 
0

>  <hbond:TYR:150>  (193) 
0

>  <halogenbond:TYR:161>  (193) 
0

>  <hydroph_interaction:ASP:129>  (193) 
0

>  <hbond:ASP:129>  (193) 
0

>  <halogenbond:ALA:132>  (193) 
0

$$$$
Z1235904031
     RDKit          3D

 27 29  0  0  0  0  0  0  0  0999 V2000
   -7.3610    4.6180  -19.4720 C   0  0  0  0  0  0  0  0  0  0  0  0
   -7.6740    5.1100  -18.0710 C   0  0  0  0  0  0  0  0  0  0  0  0
   -8.6460    4.4290  -17.4790 N   0  0  0  0  0  0  0  0  0  0  0  0
   -8.7510    5.0540  -16.2450 O   0  0  0  0  0  0  0  0  0  0  0  0
   -7.8470    6.0740  -16.1630 C   0  0  0  0  0  0  0  0  0  0  0  0
   -7.8330    6.9020  -14.8510 C   0  0  0  0  0  0  0  0  0  0  0  0
   -7.8600    6.2630  -13.6570 O   0  0  0  0  0  0  0  0  0  0  0  0
   -8.8090    6.7400  -12.8130 C   0  0  0  0  0  0  0  0  0  0  0  0
   -9.5400    7.7120  -12.9720 O   0  0  0  0  0  0  0  0  0  0  0  0
   -8.8930    5.9480  -11.5960 C   0  0  0  0  0  0  0  0  0  0  0  0
   -8.8850    6.4150  -10.2960 C   0  0  0  0  0  0  0  0  0  0  0  0
   -8.9860    5.3560   -9.2390 C   0  0  0  0  0  0  0  0  0  0  0  0
   -9.0600    4.1140   -9.9730 C   0  0  0  0  0  0  0  0  0  0  0  0
   -9.1580    3.0860   -9.0240 C   0  0  0  0  0  0  0  0  0  0  0  0
   -9.1330    3.7580   -7.7960 C   0  0  0  0  0  0  0  0  0  0  0  0
   -9.0290    5.1460   -7.9000 O   0  0  0  0  0  0  0  0  0  0  0  0
   -9.0190    4.1600  -11.6780 S   0  0  0  0  0  0  0  0  0  0  0  0
   -7.1230    6.1380  -17.3320 C   0  0  0  0  0  0  0  0  0  0  0  0
   -7.7220    5.3390  -20.2060 H   0  0  0  0  0  0  0  0  0  0  0  0
   -6.2850    4.4940  -19.6220 H   0  0  0  0  0  0  0  0  0  0  0  0
   -7.8450    3.6560  -19.6740 H   0  0  0  0  0  0  0  0  0  0  0  0
   -7.1130    7.7140  -14.7870 H   0  0  0  0  0  0  0  0  0  0  0  0
   -8.8010    7.4160  -14.8560 H   0  0  0  0  0  0  0  0  0  0  0  0
   -8.8240    7.4240   -9.8770 H   0  0  0  0  0  0  0  0  0  0  0  0
   -9.2330    2.0170   -9.1780 H   0  0  0  0  0  0  0  0  0  0  0  0
   -9.1790    3.3830   -6.7810 H   0  0  0  0  0  0  0  0  0  0  0  0
   -6.3320    6.8270  -17.5910 H   0  0  0  0  0  0  0  0  0  0  0  0
  1  2  1  0
  2  3  2  0
  3  4  1  0
  4  5  1  0
  5  6  1  0
  6  7  1  0
  7  8  1  0
  8  9  2  0
  8 10  1  0
 10 11  2  0
 11 12  1  0
 12 13  2  0
 13 14  1  0
 14 15  2  0
 15 16  1  0
 13 17  1  0
  5 18  2  0
 18  2  1  0
 17 10  1  0
 16 12  1  0
  1 19  1  0
  1 20  1  0
  1 21  1  0
  6 22  1  0
  6 23  1  0
 11 24  1  0
 14 25  1  0
 15 26  1  0
 18 27  1  0
A    1
 C1 
A    2
 C2 
A    3
 N1 
A    4
 O1 
A    5
 C3 
A    6
 C4 
A    7
 O2 
A    8
 C5 
A    9
 O3 
A   10
 C6 
A   11
 C7 
A   12
 C8 
A   13
 C9 
A   14
 C10
A   15
 C11
A   16
 O4 
A   17
 S1 
A   18
 C12
A   19
 H1 
A   20
 H2 
A   21
 H3 
A   22
 H4 
A   23
 H5 
A   24
 H6 
A   25
 H7 
A   26
 H8 
A   27
 H9 
M  END
>  <ref_pdb>  (194) 
x0051_0B

>  <ref_mols>  (194) 
x0404_0B,x0969_0B

>  <original SMILES>  (194) 
[H]c1oc2c([H])c(C(=O)OC([H])([H])c3onc(C([H])([H])[H])c3[H])sc2c1[H]

>  <index>  (194) 
3702

>  <∆∆G>  (194) 
-5.13232

>  <comRMSD>  (194) 
0.33988

>  <N_constrained_atoms>  (194) 
17.0

>  <N_unconstrained_atoms>  (194) 
1.0

>  <LE>  (194) 
0.285129

>  <percent_hybrid>  (194) 
0.0

>  <max_hit_Tanimoto>  (194) 
0.243267

>  <largest_ring>  (194) 
5

>  <N_interactions_kept>  (194) 
0.0

>  <N_interactions_lost>  (194) 
0.0

>  <interaction_uniqueness_metric>  (194) 
0.169613

>  <N_HA>  (194) 
18

>  <N_rotatable_bonds>  (194) 
4

>  <N_interactions>  (194) 
6

>  <N_PAINS>  (194) 
0

>  <UFF_Gibbs>  (194) 
105.767408

>  <strain_per_HA>  (194) 
5.875934

>  <ad_hoc_penalty>  (194) 
-34.056548

>  <cluster>  (194) 
2285

>  <merger_rank>  (194) 
4

>  <pication:ARG:29>  (194) 
0

>  <hbond:HIS:51>  (194) 
0

>  <pistack:HIS:51>  (194) 
1

>  <hydroph_interaction:TYR:161>  (194) 
1

>  <pication:HIS:51>  (194) 
0

>  <hydroph_interaction:ALA:132>  (194) 
1

>  <hydroph_interaction:TYR:150>  (194) 
0

>  <hydroph_interaction:LYS:54>  (194) 
0

>  <hbond:SER:135>  (194) 
0

>  <hydroph_interaction:HIS:51>  (194) 
1

>  <hbond:ASP:83>  (194) 
0

>  <hbond:ALA:132>  (194) 
0

>  <halogenbond:SER:81>  (194) 
0

>  <hbond:GLY:82>  (194) 
0

>  <saltbridge:HIS:51>  (194) 
1

>  <pistack:TYR:161>  (194) 
1

>  <hbond:SER:81>  (194) 
0

>  <hbond:ASN:152>  (194) 
0

>  <hbond:GLY:151>  (194) 
0

>  <hydroph_interaction:ASN:152>  (194) 
0

>  <hbond:TYR:161>  (194) 
0

>  <halogenbond:TYR:150>  (194) 
0

>  <hbond:ASP:75>  (194) 
0

>  <hbond:GLY:153>  (194) 
0

>  <hbond:VAL:36>  (194) 
0

>  <hbond:PRO:131>  (194) 
0

>  <hbond:VAL:52>  (194) 
0

>  <hydroph_interaction:ASP:83>  (194) 
0

>  <hydroph_interaction:MET:49>  (194) 
0

>  <hydroph_interaction:VAL:52>  (194) 
0

>  <saltbridge:ASP:83>  (194) 
0

>  <saltbridge:ASP:75>  (194) 
0

>  <hydroph_interaction:TRP:50>  (194) 
0

>  <hydroph_interaction:VAL:72>  (194) 
0

>  <hydroph_interaction:ASP:75>  (194) 
0

>  <halogenbond:ASN:152>  (194) 
0

>  <halogenbond:GLY:153>  (194) 
0

>  <halogenbond:TYR:130>  (194) 
0

>  <hbond:TYR:130>  (194) 
0

>  <halogenbond:ASP:75>  (194) 
0

>  <halogenbond:GLY:151>  (194) 
0

>  <hbond:TYR:150>  (194) 
0

>  <halogenbond:TYR:161>  (194) 
0

>  <hydroph_interaction:ASP:129>  (194) 
0

>  <hbond:ASP:129>  (194) 
0

>  <halogenbond:ALA:132>  (194) 
0

$$$$
PV-002958685096
     RDKit          3D

 20 21  0  0  0  0  0  0  0  0999 V2000
   -9.1430    3.5670   -9.6160 C   0  0  0  0  0  0  0  0  0  0  0  0
   -8.8570    4.4570  -10.8130 C   0  0  0  0  0  0  0  0  0  0  0  0
   -8.4750    5.7240  -10.6080 N   0  0  0  0  0  0  0  0  0  0  0  0
   -8.2200    6.4500  -12.0920 S   0  0  0  0  0  0  0  0  0  0  0  0
   -8.6200    5.0750  -13.0110 C   0  0  0  0  0  0  0  0  0  0  0  0
   -8.5530    5.1250  -14.5290 C   0  0  0  0  0  0  0  0  0  0  0  0
   -7.2790    5.1170  -15.1360 C   0  0  0  0  0  0  0  0  0  0  0  0
   -7.2130    5.1590  -16.5880 C   0  0  0  0  0  0  0  0  0  0  0  0
   -8.3770    5.1990  -17.3110 C   0  0  0  0  0  0  0  0  0  0  0  0
   -9.6190    5.2070  -16.6720 C   0  0  0  0  0  0  0  0  0  0  0  0
   -9.7270    5.1760  -15.2960 N   0  0  0  0  0  0  0  0  0  0  0  0
   -8.9590    4.0390  -12.1830 C   0  0  0  0  0  0  0  0  0  0  0  0
  -10.1950    3.5570   -9.3510 H   0  0  0  0  0  0  0  0  0  0  0  0
   -8.8510    2.5300   -9.8150 H   0  0  0  0  0  0  0  0  0  0  0  0
   -8.5830    3.9190   -8.7440 H   0  0  0  0  0  0  0  0  0  0  0  0
   -6.3690    5.0780  -14.5480 H   0  0  0  0  0  0  0  0  0  0  0  0
   -6.2890    5.1590  -17.1480 H   0  0  0  0  0  0  0  0  0  0  0  0
   -8.4310    5.2300  -18.3950 H   0  0  0  0  0  0  0  0  0  0  0  0
  -10.5660    5.2400  -17.1800 H   0  0  0  0  0  0  0  0  0  0  0  0
   -9.2560    3.0480  -12.5050 H   0  0  0  0  0  0  0  0  0  0  0  0
  1  2  1  0
  2  3  2  0
  3  4  1  0
  4  5  1  0
  5  6  1  0
  6  7  2  0
  7  8  1  0
  8  9  2  0
  9 10  1  0
 10 11  2  0
  5 12  2  0
 12  2  1  0
 11  6  1  0
  1 13  1  0
  1 14  1  0
  1 15  1  0
  7 16  1  0
  8 17  1  0
  9 18  1  0
 10 19  1  0
 12 20  1  0
A    1
 C1 
A    2
 C2 
A    3
 N1 
A    4
 S1 
A    5
 C3 
A    6
 C4 
A    7
 C5 
A    8
 C6 
A    9
 C7 
A   10
 C8 
A   11
 N2 
A   12
 C9 
A   13
 H1 
A   14
 H2 
A   15
 H3 
A   16
 H4 
A   17
 H5 
A   18
 H6 
A   19
 H7 
A   20
 H8 
M  END
>  <ref_pdb>  (195) 
x0051_0B

>  <ref_mols>  (195) 
x0969_1B,x0553_0B

>  <original SMILES>  (195) 
[H]c1nc(-c2snc(C([H])([H])[H])c2[H])c([H])c([H])c1[H]

>  <index>  (195) 
2291

>  <∆∆G>  (195) 
-3.994932

>  <comRMSD>  (195) 
0.384792

>  <N_constrained_atoms>  (195) 
12.0

>  <N_unconstrained_atoms>  (195) 
0.0

>  <LE>  (195) 
0.332911

>  <percent_hybrid>  (195) 
0.0

>  <max_hit_Tanimoto>  (195) 
0.229947

>  <largest_ring>  (195) 
6

>  <N_interactions_kept>  (195) 
0.0

>  <N_interactions_lost>  (195) 
0.0

>  <interaction_uniqueness_metric>  (195) 
0.101301

>  <N_HA>  (195) 
12

>  <N_rotatable_bonds>  (195) 
2

>  <N_interactions>  (195) 
5

>  <N_PAINS>  (195) 
0

>  <UFF_Gibbs>  (195) 
21.379971

>  <strain_per_HA>  (195) 
1.781649

>  <ad_hoc_penalty>  (195) 
-33.859113

>  <cluster>  (195) 
3161

>  <merger_rank>  (195) 
1

>  <pication:ARG:29>  (195) 
0

>  <hbond:HIS:51>  (195) 
0

>  <pistack:HIS:51>  (195) 
1

>  <hydroph_interaction:TYR:161>  (195) 
1

>  <pication:HIS:51>  (195) 
0

>  <hydroph_interaction:ALA:132>  (195) 
1

>  <hydroph_interaction:TYR:150>  (195) 
0

>  <hydroph_interaction:LYS:54>  (195) 
0

>  <hbond:SER:135>  (195) 
1

>  <hydroph_interaction:HIS:51>  (195) 
1

>  <hbond:ASP:83>  (195) 
0

>  <hbond:ALA:132>  (195) 
0

>  <halogenbond:SER:81>  (195) 
0

>  <hbond:GLY:82>  (195) 
0

>  <saltbridge:HIS:51>  (195) 
0

>  <pistack:TYR:161>  (195) 
0

>  <hbond:SER:81>  (195) 
0

>  <hbond:ASN:152>  (195) 
0

>  <hbond:GLY:151>  (195) 
0

>  <hydroph_interaction:ASN:152>  (195) 
0

>  <hbond:TYR:161>  (195) 
0

>  <halogenbond:TYR:150>  (195) 
0

>  <hbond:ASP:75>  (195) 
0

>  <hbond:GLY:153>  (195) 
0

>  <hbond:VAL:36>  (195) 
0

>  <hbond:PRO:131>  (195) 
0

>  <hbond:VAL:52>  (195) 
0

>  <hydroph_interaction:ASP:83>  (195) 
0

>  <hydroph_interaction:MET:49>  (195) 
0

>  <hydroph_interaction:VAL:52>  (195) 
0

>  <saltbridge:ASP:83>  (195) 
0

>  <saltbridge:ASP:75>  (195) 
0

>  <hydroph_interaction:TRP:50>  (195) 
0

>  <hydroph_interaction:VAL:72>  (195) 
0

>  <hydroph_interaction:ASP:75>  (195) 
0

>  <halogenbond:ASN:152>  (195) 
0

>  <halogenbond:GLY:153>  (195) 
0

>  <halogenbond:TYR:130>  (195) 
0

>  <hbond:TYR:130>  (195) 
0

>  <halogenbond:ASP:75>  (195) 
0

>  <halogenbond:GLY:151>  (195) 
0

>  <hbond:TYR:150>  (195) 
0

>  <halogenbond:TYR:161>  (195) 
0

>  <hydroph_interaction:ASP:129>  (195) 
0

>  <hbond:ASP:129>  (195) 
0

>  <halogenbond:ALA:132>  (195) 
0

$$$$
Z1643675723
     RDKit          3D

 20 21  0  0  0  0  0  0  0  0999 V2000
   -9.7990    4.7670  -17.1500 N   0  0  0  0  0  0  0  0  0  0  0  0
   -8.5490    5.3710  -16.6980 C   0  0  0  0  0  0  0  0  0  0  0  0
   -7.7970    5.9440  -17.4790 O   0  0  0  0  0  0  0  0  0  0  0  0
   -8.4040    5.1500  -15.3640 C   0  0  0  0  0  0  0  0  0  0  0  0
   -7.1110    4.8270  -14.8370 C   0  0  0  0  0  0  0  0  0  0  0  0
   -7.2420    4.6260  -13.5100 C   0  0  0  0  0  0  0  0  0  0  0  0
   -8.5690    4.7630  -12.8930 C   0  0  0  0  0  0  0  0  0  0  0  0
   -8.7870    4.5250  -11.4020 C   0  0  0  0  0  0  0  0  0  0  0  0
   -8.5880    5.5510  -10.5000 C   0  0  0  0  0  0  0  0  0  0  0  0
   -8.8710    5.0490   -9.2200 C   0  0  0  0  0  0  0  0  0  0  0  0
   -9.2990    3.5510   -9.2500 C   0  0  0  0  0  0  0  0  0  0  0  0
   -9.7640    2.5490   -7.6990 Br  0  0  0  0  0  0  0  0  0  0  0  0
   -9.2880    2.9710  -10.8560 S   0  0  0  0  0  0  0  0  0  0  0  0
   -9.6500    5.1920  -14.1550 S   0  0  0  0  0  0  0  0  0  0  0  0
   -9.8920    4.4010  -18.0850 H   0  0  0  0  0  0  0  0  0  0  0  0
   -9.9680    3.9750  -16.5060 H   0  0  0  0  0  0  0  0  0  0  0  0
   -6.2580    4.7850  -15.5270 H   0  0  0  0  0  0  0  0  0  0  0  0
   -6.3750    4.3590  -12.8910 H   0  0  0  0  0  0  0  0  0  0  0  0
   -8.2730    6.5570  -10.7470 H   0  0  0  0  0  0  0  0  0  0  0  0
   -8.8000    5.6250   -8.3090 H   0  0  0  0  0  0  0  0  0  0  0  0
  1  2  1  0
  2  3  2  0
  2  4  1  0
  4  5  2  0
  5  6  1  0
  6  7  2  0
  7  8  1  0
  8  9  2  0
  9 10  1  0
 10 11  2  0
 11 12  1  0
 11 13  1  0
  7 14  1  0
 14  4  1  0
 13  8  1  0
  1 15  1  0
  1 16  1  0
  5 17  1  0
  6 18  1  0
  9 19  1  0
 10 20  1  0
A    1
 N1 
A    2
 C1 
A    3
 O1 
A    4
 C2 
A    5
 C3 
A    6
 C4 
A    7
 C5 
A    8
 C6 
A    9
 C7 
A   10
 C8 
A   11
 C9 
A   12
BR1 
A   13
 S1 
A   14
 S2 
A   15
 H1 
A   16
 H2 
A   17
 H3 
A   18
 H4 
A   19
 H5 
A   20
 H6 
M  END
>  <ref_pdb>  (196) 
x0051_0B

>  <ref_mols>  (196) 
x0969_1B,x0553_0B

>  <original SMILES>  (196) 
[H]c1c(Br)sc(-c2sc(C(=O)N([H])[H])c([H])c2[H])c1[H]

>  <index>  (196) 
2613

>  <∆∆G>  (196) 
-4.715852

>  <comRMSD>  (196) 
0.220341

>  <N_constrained_atoms>  (196) 
13.0

>  <N_unconstrained_atoms>  (196) 
1.0

>  <LE>  (196) 
0.336847

>  <percent_hybrid>  (196) 
0.0

>  <max_hit_Tanimoto>  (196) 
0.377335

>  <largest_ring>  (196) 
5

>  <N_interactions_kept>  (196) 
0.0

>  <N_interactions_lost>  (196) 
0.0

>  <interaction_uniqueness_metric>  (196) 
0.199562

>  <N_HA>  (196) 
14

>  <N_rotatable_bonds>  (196) 
2

>  <N_interactions>  (196) 
5

>  <N_PAINS>  (196) 
0

>  <UFF_Gibbs>  (196) 
81.168747

>  <strain_per_HA>  (196) 
5.797726

>  <ad_hoc_penalty>  (196) 
-33.818406

>  <cluster>  (196) 
2921

>  <merger_rank>  (196) 
3

>  <pication:ARG:29>  (196) 
0

>  <hbond:HIS:51>  (196) 
0

>  <pistack:HIS:51>  (196) 
1

>  <hydroph_interaction:TYR:161>  (196) 
1

>  <pication:HIS:51>  (196) 
0

>  <hydroph_interaction:ALA:132>  (196) 
0

>  <hydroph_interaction:TYR:150>  (196) 
0

>  <hydroph_interaction:LYS:54>  (196) 
0

>  <hbond:SER:135>  (196) 
0

>  <hydroph_interaction:HIS:51>  (196) 
1

>  <hbond:ASP:83>  (196) 
0

>  <hbond:ALA:132>  (196) 
0

>  <halogenbond:SER:81>  (196) 
1

>  <hbond:GLY:82>  (196) 
0

>  <saltbridge:HIS:51>  (196) 
0

>  <pistack:TYR:161>  (196) 
0

>  <hbond:SER:81>  (196) 
0

>  <hbond:ASN:152>  (196) 
0

>  <hbond:GLY:151>  (196) 
1

>  <hydroph_interaction:ASN:152>  (196) 
0

>  <hbond:TYR:161>  (196) 
0

>  <halogenbond:TYR:150>  (196) 
0

>  <hbond:ASP:75>  (196) 
0

>  <hbond:GLY:153>  (196) 
0

>  <hbond:VAL:36>  (196) 
0

>  <hbond:PRO:131>  (196) 
0

>  <hbond:VAL:52>  (196) 
0

>  <hydroph_interaction:ASP:83>  (196) 
0

>  <hydroph_interaction:MET:49>  (196) 
0

>  <hydroph_interaction:VAL:52>  (196) 
0

>  <saltbridge:ASP:83>  (196) 
0

>  <saltbridge:ASP:75>  (196) 
0

>  <hydroph_interaction:TRP:50>  (196) 
0

>  <hydroph_interaction:VAL:72>  (196) 
0

>  <hydroph_interaction:ASP:75>  (196) 
0

>  <halogenbond:ASN:152>  (196) 
0

>  <halogenbond:GLY:153>  (196) 
0

>  <halogenbond:TYR:130>  (196) 
0

>  <hbond:TYR:130>  (196) 
0

>  <halogenbond:ASP:75>  (196) 
0

>  <halogenbond:GLY:151>  (196) 
0

>  <hbond:TYR:150>  (196) 
0

>  <halogenbond:TYR:161>  (196) 
0

>  <hydroph_interaction:ASP:129>  (196) 
0

>  <hbond:ASP:129>  (196) 
0

>  <halogenbond:ALA:132>  (196) 
0

$$$$
Z1229744538
     RDKit          3D

 24 25  0  0  0  0  0  0  0  0999 V2000
   -3.3470    4.8140  -21.6460 C   0  0  0  0  0  0  0  0  0  0  0  0
   -4.7260    5.4580  -21.5500 C   0  0  0  0  0  0  0  0  0  0  0  0
   -5.2430    6.0450  -22.6590 O   0  0  0  0  0  0  0  0  0  0  0  0
   -5.3870    5.4330  -20.2000 C   0  0  0  0  0  0  0  0  0  0  0  0
   -4.7890    5.5720  -18.9730 C   0  0  0  0  0  0  0  0  0  0  0  0
   -5.5660    5.5410  -17.8710 N   0  0  0  0  0  0  0  0  0  0  0  0
   -6.8790    5.3650  -18.2710 C   0  0  0  0  0  0  0  0  0  0  0  0
   -7.8230    5.3290  -17.3570 N   0  0  0  0  0  0  0  0  0  0  0  0
   -7.3340    6.2190  -16.4330 C   0  0  0  0  0  0  0  0  0  0  0  0
   -6.4540    7.2010  -16.7730 O   0  0  0  0  0  0  0  0  0  0  0  0
   -7.7750    6.0610  -15.1390 C   0  0  0  0  0  0  0  0  0  0  0  0
   -8.1070    7.1920  -14.3220 C   0  0  0  0  0  0  0  0  0  0  0  0
   -8.5130    6.7340  -13.1020 C   0  0  0  0  0  0  0  0  0  0  0  0
   -8.5280    5.3170  -12.8830 C   0  0  0  0  0  0  0  0  0  0  0  0
   -7.9820    4.5440  -14.3480 S   0  0  0  0  0  0  0  0  0  0  0  0
   -7.1110    5.2210  -19.9850 S   0  0  0  0  0  0  0  0  0  0  0  0
   -2.8610    4.7580  -20.6660 H   0  0  0  0  0  0  0  0  0  0  0  0
   -2.7030    5.4010  -22.3090 H   0  0  0  0  0  0  0  0  0  0  0  0
   -3.4020    3.8010  -22.0510 H   0  0  0  0  0  0  0  0  0  0  0  0
   -3.7030    5.7090  -18.9180 H   0  0  0  0  0  0  0  0  0  0  0  0
   -8.2390    4.4580  -17.0660 H   0  0  0  0  0  0  0  0  0  0  0  0
   -8.0460    8.2320  -14.6180 H   0  0  0  0  0  0  0  0  0  0  0  0
   -8.8170    7.4100  -12.3090 H   0  0  0  0  0  0  0  0  0  0  0  0
   -8.8220    4.7950  -11.9770 H   0  0  0  0  0  0  0  0  0  0  0  0
  1  2  1  0
  2  3  2  0
  2  4  1  0
  4  5  2  0
  5  6  1  0
  6  7  2  0
  7  8  1  0
  8  9  1  0
  9 10  2  0
  9 11  1  0
 11 12  2  0
 12 13  1  0
 13 14  2  0
 14 15  1  0
  7 16  1  0
 16  4  1  0
 15 11  1  0
  1 17  1  0
  1 18  1  0
  1 19  1  0
  5 20  1  0
  8 21  1  0
 12 22  1  0
 13 23  1  0
 14 24  1  0
A    1
 C1 
A    2
 C2 
A    3
 O1 
A    4
 C3 
A    5
 C4 
A    6
 N1 
A    7
 C5 
A    8
 N2 
A    9
 C6 
A   10
 O2 
A   11
 C7 
A   12
 C8 
A   13
 C9 
A   14
 C10
A   15
 S1 
A   16
 S2 
A   17
 H1 
A   18
 H2 
A   19
 H3 
A   20
 H4 
A   21
 H5 
A   22
 H6 
A   23
 H7 
A   24
 H8 
M  END
>  <ref_pdb>  (197) 
x0051_0B

>  <ref_mols>  (197) 
x0404_0B,x0969_0B

>  <original SMILES>  (197) 
[H]c1nc(N([H])C(=O)c2sc([H])c([H])c2[H])sc1C(=O)C([H])([H])[H]

>  <index>  (197) 
5331

>  <∆∆G>  (197) 
-4.357913

>  <comRMSD>  (197) 
0.64361

>  <N_constrained_atoms>  (197) 
11.0

>  <N_unconstrained_atoms>  (197) 
7.0

>  <LE>  (197) 
0.242106

>  <percent_hybrid>  (197) 
0.0

>  <max_hit_Tanimoto>  (197) 
0.248649

>  <largest_ring>  (197) 
5

>  <N_interactions_kept>  (197) 
0.0

>  <N_interactions_lost>  (197) 
0.0

>  <interaction_uniqueness_metric>  (197) 
1.063753

>  <N_HA>  (197) 
16

>  <N_rotatable_bonds>  (197) 
4

>  <N_interactions>  (197) 
4

>  <N_PAINS>  (197) 
0

>  <UFF_Gibbs>  (197) 
119.832129

>  <strain_per_HA>  (197) 
7.489461

>  <ad_hoc_penalty>  (197) 
-33.807987

>  <cluster>  (197) 
1163

>  <merger_rank>  (197) 
1

>  <pication:ARG:29>  (197) 
0

>  <hbond:HIS:51>  (197) 
0

>  <pistack:HIS:51>  (197) 
0

>  <hydroph_interaction:TYR:161>  (197) 
1

>  <pication:HIS:51>  (197) 
0

>  <hydroph_interaction:ALA:132>  (197) 
1

>  <hydroph_interaction:TYR:150>  (197) 
0

>  <hydroph_interaction:LYS:54>  (197) 
0

>  <hbond:SER:135>  (197) 
0

>  <hydroph_interaction:HIS:51>  (197) 
0

>  <hbond:ASP:83>  (197) 
0

>  <hbond:ALA:132>  (197) 
0

>  <halogenbond:SER:81>  (197) 
0

>  <hbond:GLY:82>  (197) 
0

>  <saltbridge:HIS:51>  (197) 
0

>  <pistack:TYR:161>  (197) 
1

>  <hbond:SER:81>  (197) 
0

>  <hbond:ASN:152>  (197) 
0

>  <hbond:GLY:151>  (197) 
0

>  <hydroph_interaction:ASN:152>  (197) 
0

>  <hbond:TYR:161>  (197) 
0

>  <halogenbond:TYR:150>  (197) 
0

>  <hbond:ASP:75>  (197) 
0

>  <hbond:GLY:153>  (197) 
0

>  <hbond:VAL:36>  (197) 
0

>  <hbond:PRO:131>  (197) 
0

>  <hbond:VAL:52>  (197) 
0

>  <hydroph_interaction:ASP:83>  (197) 
0

>  <hydroph_interaction:MET:49>  (197) 
0

>  <hydroph_interaction:VAL:52>  (197) 
0

>  <saltbridge:ASP:83>  (197) 
0

>  <saltbridge:ASP:75>  (197) 
0

>  <hydroph_interaction:TRP:50>  (197) 
0

>  <hydroph_interaction:VAL:72>  (197) 
0

>  <hydroph_interaction:ASP:75>  (197) 
0

>  <halogenbond:ASN:152>  (197) 
0

>  <halogenbond:GLY:153>  (197) 
0

>  <halogenbond:TYR:130>  (197) 
0

>  <hbond:TYR:130>  (197) 
0

>  <halogenbond:ASP:75>  (197) 
0

>  <halogenbond:GLY:151>  (197) 
0

>  <hbond:TYR:150>  (197) 
0

>  <halogenbond:TYR:161>  (197) 
0

>  <hydroph_interaction:ASP:129>  (197) 
0

>  <hbond:ASP:129>  (197) 
1

>  <halogenbond:ALA:132>  (197) 
0

$$$$
Z1576481208
     RDKit          3D

 22 23  0  0  0  0  0  0  0  0999 V2000
   -8.8750    4.1370   -8.7490 C   0  0  0  0  0  0  0  0  0  0  0  0
   -8.8080    4.8800  -10.0720 C   0  0  0  0  0  0  0  0  0  0  0  0
   -8.7040    6.2250  -10.1570 N   0  0  0  0  0  0  0  0  0  0  0  0
   -8.6700    6.5910  -11.7880 S   0  0  0  0  0  0  0  0  0  0  0  0
   -8.7940    4.9430  -12.2900 C   0  0  0  0  0  0  0  0  0  0  0  0
   -8.8340    4.4430  -13.5460 N   0  0  0  0  0  0  0  0  0  0  0  0
   -8.5540    4.8560  -14.7650 C   0  0  0  0  0  0  0  0  0  0  0  0
   -7.2630    5.2740  -15.0990 C   0  0  0  0  0  0  0  0  0  0  0  0
   -7.0540    5.6690  -16.4980 C   0  0  0  0  0  0  0  0  0  0  0  0
   -8.0190    5.6280  -17.3690 C   0  0  0  0  0  0  0  0  0  0  0  0
   -9.2970    5.2310  -17.0710 C   0  0  0  0  0  0  0  0  0  0  0  0
   -9.5420    4.8630  -15.7840 C   0  0  0  0  0  0  0  0  0  0  0  0
   -8.8570    4.1430  -11.2450 N   0  0  0  0  0  0  0  0  0  0  0  0
   -9.6570    4.5370   -8.1030 H   0  0  0  0  0  0  0  0  0  0  0  0
   -7.9330    4.2230   -8.1990 H   0  0  0  0  0  0  0  0  0  0  0  0
   -9.0780    3.0720   -8.9160 H   0  0  0  0  0  0  0  0  0  0  0  0
   -9.2980    3.5410  -13.6170 H   0  0  0  0  0  0  0  0  0  0  0  0
   -6.4490    5.3020  -14.3810 H   0  0  0  0  0  0  0  0  0  0  0  0
   -6.0720    5.9980  -16.8150 H   0  0  0  0  0  0  0  0  0  0  0  0
   -7.8000    5.9280  -18.3910 H   0  0  0  0  0  0  0  0  0  0  0  0
  -10.0810    5.2110  -17.8240 H   0  0  0  0  0  0  0  0  0  0  0  0
  -10.5500    4.5500  -15.5550 H   0  0  0  0  0  0  0  0  0  0  0  0
  1  2  1  0
  2  3  2  0
  3  4  1  0
  4  5  1  0
  5  6  1  0
  6  7  1  0
  7  8  2  0
  8  9  1  0
  9 10  2  0
 10 11  1  0
 11 12  2  0
  5 13  2  0
 13  2  1  0
 12  7  1  0
  1 14  1  0
  1 15  1  0
  1 16  1  0
  6 17  1  0
  8 18  1  0
  9 19  1  0
 10 20  1  0
 11 21  1  0
 12 22  1  0
A    1
 C1 
A    2
 C2 
A    3
 N1 
A    4
 S1 
A    5
 C3 
A    6
 N2 
A    7
 C4 
A    8
 C5 
A    9
 C6 
A   10
 C7 
A   11
 C8 
A   12
 C9 
A   13
 N3 
A   14
 H1 
A   15
 H2 
A   16
 H3 
A   17
 H4 
A   18
 H5 
A   19
 H6 
A   20
 H7 
A   21
 H8 
A   22
 H9 
M  END
>  <ref_pdb>  (198) 
x0051_0B

>  <ref_mols>  (198) 
x0969_1B,x0553_0B

>  <original SMILES>  (198) 
[H]c1c([H])c([H])c(N([H])c2nc(C([H])([H])[H])ns2)c([H])c1[H]

>  <index>  (198) 
552

>  <∆∆G>  (198) 
-3.210345

>  <comRMSD>  (198) 
0.582706

>  <N_constrained_atoms>  (198) 
13.0

>  <N_unconstrained_atoms>  (198) 
0.0

>  <LE>  (198) 
0.24695

>  <percent_hybrid>  (198) 
0.0

>  <max_hit_Tanimoto>  (198) 
0.33638

>  <largest_ring>  (198) 
6

>  <N_interactions_kept>  (198) 
0.0

>  <N_interactions_lost>  (198) 
0.0

>  <interaction_uniqueness_metric>  (198) 
0.159353

>  <N_HA>  (198) 
13

>  <N_rotatable_bonds>  (198) 
3

>  <N_interactions>  (198) 
6

>  <N_PAINS>  (198) 
0

>  <UFF_Gibbs>  (198) 
39.616479

>  <strain_per_HA>  (198) 
3.047398

>  <ad_hoc_penalty>  (198) 
-33.707078

>  <cluster>  (198) 
4494

>  <merger_rank>  (198) 
4

>  <pication:ARG:29>  (198) 
0

>  <hbond:HIS:51>  (198) 
0

>  <pistack:HIS:51>  (198) 
1

>  <hydroph_interaction:TYR:161>  (198) 
0

>  <pication:HIS:51>  (198) 
0

>  <hydroph_interaction:ALA:132>  (198) 
1

>  <hydroph_interaction:TYR:150>  (198) 
0

>  <hydroph_interaction:LYS:54>  (198) 
0

>  <hbond:SER:135>  (198) 
0

>  <hydroph_interaction:HIS:51>  (198) 
1

>  <hbond:ASP:83>  (198) 
0

>  <hbond:ALA:132>  (198) 
0

>  <halogenbond:SER:81>  (198) 
0

>  <hbond:GLY:82>  (198) 
0

>  <saltbridge:HIS:51>  (198) 
0

>  <pistack:TYR:161>  (198) 
1

>  <hbond:SER:81>  (198) 
0

>  <hbond:ASN:152>  (198) 
0

>  <hbond:GLY:151>  (198) 
1

>  <hydroph_interaction:ASN:152>  (198) 
0

>  <hbond:TYR:161>  (198) 
1

>  <halogenbond:TYR:150>  (198) 
0

>  <hbond:ASP:75>  (198) 
0

>  <hbond:GLY:153>  (198) 
0

>  <hbond:VAL:36>  (198) 
0

>  <hbond:PRO:131>  (198) 
0

>  <hbond:VAL:52>  (198) 
0

>  <hydroph_interaction:ASP:83>  (198) 
0

>  <hydroph_interaction:MET:49>  (198) 
0

>  <hydroph_interaction:VAL:52>  (198) 
0

>  <saltbridge:ASP:83>  (198) 
0

>  <saltbridge:ASP:75>  (198) 
0

>  <hydroph_interaction:TRP:50>  (198) 
0

>  <hydroph_interaction:VAL:72>  (198) 
0

>  <hydroph_interaction:ASP:75>  (198) 
0

>  <halogenbond:ASN:152>  (198) 
0

>  <halogenbond:GLY:153>  (198) 
0

>  <halogenbond:TYR:130>  (198) 
0

>  <hbond:TYR:130>  (198) 
0

>  <halogenbond:ASP:75>  (198) 
0

>  <halogenbond:GLY:151>  (198) 
0

>  <hbond:TYR:150>  (198) 
0

>  <halogenbond:TYR:161>  (198) 
0

>  <hydroph_interaction:ASP:129>  (198) 
0

>  <hbond:ASP:129>  (198) 
0

>  <halogenbond:ALA:132>  (198) 
0

$$$$
Z2892042057
     RDKit          3D

 26 27  0  0  0  0  0  0  0  0999 V2000
   -9.0240    4.7270   -8.5760 C   0  0  0  0  0  0  0  0  0  0  0  0
   -8.7160    5.9760   -9.3770 C   0  0  0  0  0  0  0  0  0  0  0  0
   -8.8730    5.7430  -10.8260 C   0  0  0  0  0  0  0  0  0  0  0  0
   -9.3400    4.6580  -11.4190 N   0  0  0  0  0  0  0  0  0  0  0  0
   -9.3380    4.7940  -12.8010 N   0  0  0  0  0  0  0  0  0  0  0  0
   -8.8670    5.9700  -13.1440 C   0  0  0  0  0  0  0  0  0  0  0  0
   -8.7410    6.3560  -14.4530 C   0  0  0  0  0  0  0  0  0  0  0  0
   -8.2000    7.4300  -14.6850 O   0  0  0  0  0  0  0  0  0  0  0  0
   -9.2290    5.4560  -15.3810 N   0  0  0  0  0  0  0  0  0  0  0  0
   -8.6430    5.2870  -16.6090 C   0  0  0  0  0  0  0  0  0  0  0  0
   -9.2200    4.7870  -17.7000 N   0  0  0  0  0  0  0  0  0  0  0  0
   -8.2200    4.8380  -18.5840 N   0  0  0  0  0  0  0  0  0  0  0  0
   -7.0900    5.3530  -18.0190 C   0  0  0  0  0  0  0  0  0  0  0  0
   -5.8920    5.5130  -18.7250 C   0  0  0  0  0  0  0  0  0  0  0  0
   -7.3350    5.6510  -16.7650 N   0  0  0  0  0  0  0  0  0  0  0  0
   -8.4030    7.0060  -11.8810 S   0  0  0  0  0  0  0  0  0  0  0  0
   -9.6020    4.0030   -9.1610 H   0  0  0  0  0  0  0  0  0  0  0  0
   -9.5960    4.9640   -7.6720 H   0  0  0  0  0  0  0  0  0  0  0  0
   -8.0980    4.2470   -8.2620 H   0  0  0  0  0  0  0  0  0  0  0  0
   -9.3430    6.8080   -9.0460 H   0  0  0  0  0  0  0  0  0  0  0  0
   -7.6820    6.2740   -9.1790 H   0  0  0  0  0  0  0  0  0  0  0  0
   -9.6060    4.5620  -15.0510 H   0  0  0  0  0  0  0  0  0  0  0  0
   -8.3770    4.5120  -19.5310 H   0  0  0  0  0  0  0  0  0  0  0  0
   -5.0460    5.1470  -18.1350 H   0  0  0  0  0  0  0  0  0  0  0  0
   -5.9160    4.9600  -19.6540 H   0  0  0  0  0  0  0  0  0  0  0  0
   -5.7230    6.5670  -18.9600 H   0  0  0  0  0  0  0  0  0  0  0  0
  1  2  1  0
  2  3  1  0
  3  4  2  0
  4  5  1  0
  5  6  2  0
  6  7  1  0
  7  8  2  0
  7  9  1  0
  9 10  1  0
 10 11  2  0
 11 12  1  0
 12 13  1  0
 13 14  1  0
 13 15  2  0
  6 16  1  0
 16  3  1  0
 15 10  1  0
  1 17  1  0
  1 18  1  0
  1 19  1  0
  2 20  1  0
  2 21  1  0
  9 22  1  0
 12 23  1  0
 14 24  1  0
 14 25  1  0
 14 26  1  0
A    1
 C1 
A    2
 C2 
A    3
 C3 
A    4
 N1 
A    5
 N2 
A    6
 C4 
A    7
 C5 
A    8
 O1 
A    9
 N3 
A   10
 C6 
A   11
 N4 
A   12
 N5 
A   13
 C7 
A   14
 C8 
A   15
 N6 
A   16
 S1 
A   17
 H1 
A   18
 H2 
A   19
 H3 
A   20
 H4 
A   21
 H5 
A   22
 H6 
A   23
 H7 
A   24
 H8 
A   25
 H9 
A   26
 H10
M  END
>  <ref_pdb>  (199) 
x0051_0B

>  <ref_mols>  (199) 
x0404_0B,x0969_0B

>  <original SMILES>  (199) 
[H]N(C(=O)c1nnc(C([H])([H])C([H])([H])[H])s1)c1nc(C([H])([H])[H])n([H])n1

>  <index>  (199) 
1067

>  <∆∆G>  (199) 
-4.366172

>  <comRMSD>  (199) 
0.47711

>  <N_constrained_atoms>  (199) 
17.0

>  <N_unconstrained_atoms>  (199) 
0.0

>  <LE>  (199) 
0.256834

>  <percent_hybrid>  (199) 
0.0

>  <max_hit_Tanimoto>  (199) 
0.330691

>  <largest_ring>  (199) 
5

>  <N_interactions_kept>  (199) 
0.0

>  <N_interactions_lost>  (199) 
0.0

>  <interaction_uniqueness_metric>  (199) 
0.259406

>  <N_HA>  (199) 
16

>  <N_rotatable_bonds>  (199) 
5

>  <N_interactions>  (199) 
6

>  <N_PAINS>  (199) 
0

>  <UFF_Gibbs>  (199) 
53.043119

>  <strain_per_HA>  (199) 
3.315174

>  <ad_hoc_penalty>  (199) 
-33.702151

>  <cluster>  (199) 
4077

>  <merger_rank>  (199) 
1

>  <pication:ARG:29>  (199) 
0

>  <hbond:HIS:51>  (199) 
0

>  <pistack:HIS:51>  (199) 
1

>  <hydroph_interaction:TYR:161>  (199) 
1

>  <pication:HIS:51>  (199) 
0

>  <hydroph_interaction:ALA:132>  (199) 
0

>  <hydroph_interaction:TYR:150>  (199) 
0

>  <hydroph_interaction:LYS:54>  (199) 
0

>  <hbond:SER:135>  (199) 
0

>  <hydroph_interaction:HIS:51>  (199) 
1

>  <hbond:ASP:83>  (199) 
0

>  <hbond:ALA:132>  (199) 
0

>  <halogenbond:SER:81>  (199) 
0

>  <hbond:GLY:82>  (199) 
0

>  <saltbridge:HIS:51>  (199) 
0

>  <pistack:TYR:161>  (199) 
1

>  <hbond:SER:81>  (199) 
0

>  <hbond:ASN:152>  (199) 
0

>  <hbond:GLY:151>  (199) 
1

>  <hydroph_interaction:ASN:152>  (199) 
0

>  <hbond:TYR:161>  (199) 
0

>  <halogenbond:TYR:150>  (199) 
0

>  <hbond:ASP:75>  (199) 
0

>  <hbond:GLY:153>  (199) 
0

>  <hbond:VAL:36>  (199) 
0

>  <hbond:PRO:131>  (199) 
0

>  <hbond:VAL:52>  (199) 
0

>  <hydroph_interaction:ASP:83>  (199) 
0

>  <hydroph_interaction:MET:49>  (199) 
0

>  <hydroph_interaction:VAL:52>  (199) 
0

>  <saltbridge:ASP:83>  (199) 
0

>  <saltbridge:ASP:75>  (199) 
0

>  <hydroph_interaction:TRP:50>  (199) 
0

>  <hydroph_interaction:VAL:72>  (199) 
0

>  <hydroph_interaction:ASP:75>  (199) 
0

>  <halogenbond:ASN:152>  (199) 
0

>  <halogenbond:GLY:153>  (199) 
0

>  <halogenbond:TYR:130>  (199) 
0

>  <hbond:TYR:130>  (199) 
1

>  <halogenbond:ASP:75>  (199) 
0

>  <halogenbond:GLY:151>  (199) 
0

>  <hbond:TYR:150>  (199) 
0

>  <halogenbond:TYR:161>  (199) 
0

>  <hydroph_interaction:ASP:129>  (199) 
0

>  <hbond:ASP:129>  (199) 
0

>  <halogenbond:ALA:132>  (199) 
0

$$$$
PV-002711980651
     RDKit          3D

 30 32  0  0  0  0  0  0  0  0999 V2000
   -7.1610    4.4360  -19.7330 C   0  0  0  0  0  0  0  0  0  0  0  0
   -7.5410    4.9180  -18.3470 C   0  0  0  0  0  0  0  0  0  0  0  0
   -6.5040    5.5490  -17.4460 C   0  0  0  0  0  0  0  0  0  0  0  0
   -7.4320    5.8070  -16.3830 C   0  0  0  0  0  0  0  0  0  0  0  0
   -8.6240    5.3940  -16.6740 C   0  0  0  0  0  0  0  0  0  0  0  0
   -9.4590    5.6770  -15.6060 C   0  0  0  0  0  0  0  0  0  0  0  0
   -8.6510    6.3030  -14.6860 C   0  0  0  0  0  0  0  0  0  0  0  0
   -9.1830    6.7720  -13.4620 C   0  0  0  0  0  0  0  0  0  0  0  0
  -10.2920    7.5690  -13.4320 O   0  0  0  0  0  0  0  0  0  0  0  0
   -8.5290    6.4080  -12.3550 N   0  0  0  0  0  0  0  0  0  0  0  0
   -8.6930    5.0380  -12.3190 C   0  0  0  0  0  0  0  0  0  0  0  0
   -8.8460    4.5490  -11.0440 C   0  0  0  0  0  0  0  0  0  0  0  0
   -8.8000    5.2430   -9.8610 C   0  0  0  0  0  0  0  0  0  0  0  0
   -8.9960    4.4560   -8.7460 C   0  0  0  0  0  0  0  0  0  0  0  0
   -9.1990    3.0970   -9.1410 C   0  0  0  0  0  0  0  0  0  0  0  0
   -9.1300    2.8790  -10.8480 S   0  0  0  0  0  0  0  0  0  0  0  0
   -7.3150    6.3900  -15.1620 N   0  0  0  0  0  0  0  0  0  0  0  0
   -8.7320    4.8190  -17.9080 O   0  0  0  0  0  0  0  0  0  0  0  0
   -6.0780    4.3860  -19.8530 H   0  0  0  0  0  0  0  0  0  0  0  0
   -7.5850    3.4520  -19.9510 H   0  0  0  0  0  0  0  0  0  0  0  0
   -7.5430    5.1290  -20.4810 H   0  0  0  0  0  0  0  0  0  0  0  0
   -5.4490    5.7350  -17.5920 H   0  0  0  0  0  0  0  0  0  0  0  0
  -10.4960    5.4920  -15.4640 H   0  0  0  0  0  0  0  0  0  0  0  0
   -7.6000    6.7680  -12.1900 H   0  0  0  0  0  0  0  0  0  0  0  0
   -9.4920    4.8440  -13.0240 H   0  0  0  0  0  0  0  0  0  0  0  0
   -7.8360    4.7110  -12.8940 H   0  0  0  0  0  0  0  0  0  0  0  0
   -8.6270    6.3120   -9.8110 H   0  0  0  0  0  0  0  0  0  0  0  0
   -9.0000    4.8020   -7.7180 H   0  0  0  0  0  0  0  0  0  0  0  0
   -9.3800    2.2470   -8.4980 H   0  0  0  0  0  0  0  0  0  0  0  0
   -6.4920    6.7860  -14.7200 H   0  0  0  0  0  0  0  0  0  0  0  0
  1  2  1  0
  2  3  2  0
  3  4  1  0
  4  5  2  0
  5  6  1  0
  6  7  2  0
  7  8  1  0
  8  9  2  0
  8 10  1  0
 10 11  1  0
 11 12  1  0
 12 13  2  0
 13 14  1  0
 14 15  2  0
 15 16  1  0
  7 17  1  0
  5 18  1  0
 18  2  1  0
 17  4  1  0
 16 12  1  0
  1 19  1  0
  1 20  1  0
  1 21  1  0
  3 22  1  0
  6 23  1  0
 10 24  1  0
 11 25  1  0
 11 26  1  0
 13 27  1  0
 14 28  1  0
 15 29  1  0
 17 30  1  0
A    1
 C1 
A    2
 C2 
A    3
 C3 
A    4
 C4 
A    5
 C5 
A    6
 C6 
A    7
 C7 
A    8
 C8 
A    9
 O1 
A   10
 N1 
A   11
 C9 
A   12
 C10
A   13
 C11
A   14
 C12
A   15
 C13
A   16
 S1 
A   17
 N2 
A   18
 O2 
A   19
 H1 
A   20
 H2 
A   21
 H3 
A   22
 H4 
A   23
 H5 
A   24
 H6 
A   25
 H7 
A   26
 H8 
A   27
 H9 
A   28
 H10
A   29
 H11
A   30
 H12
M  END
>  <ref_pdb>  (200) 
x0051_0B

>  <ref_mols>  (200) 
x0404_0B,x0969_0B

>  <original SMILES>  (200) 
[H]c1sc(C([H])([H])N([H])C(=O)c2c([H])c3oc(C([H])([H])[H])c([H])c3n2[H])c([H])c1[H]

>  <index>  (200) 
4525

>  <∆∆G>  (200) 
-7.333989

>  <comRMSD>  (200) 
0.353845

>  <N_constrained_atoms>  (200) 
17.0

>  <N_unconstrained_atoms>  (200) 
1.0

>  <LE>  (200) 
0.407444

>  <percent_hybrid>  (200) 
0.0

>  <max_hit_Tanimoto>  (200) 
0.350244

>  <largest_ring>  (200) 
5

>  <N_interactions_kept>  (200) 
0.0

>  <N_interactions_lost>  (200) 
0.0

>  <interaction_uniqueness_metric>  (200) 
0.095691

>  <N_HA>  (200) 
18

>  <N_rotatable_bonds>  (200) 
4

>  <N_interactions>  (200) 
5

>  <N_PAINS>  (200) 
0

>  <UFF_Gibbs>  (200) 
119.367549

>  <strain_per_HA>  (200) 
6.631494

>  <ad_hoc_penalty>  (200) 
-33.534529

>  <cluster>  (200) 
175

>  <merger_rank>  (200) 
3

>  <pication:ARG:29>  (200) 
0

>  <hbond:HIS:51>  (200) 
0

>  <pistack:HIS:51>  (200) 
1

>  <hydroph_interaction:TYR:161>  (200) 
1

>  <pication:HIS:51>  (200) 
0

>  <hydroph_interaction:ALA:132>  (200) 
1

>  <hydroph_interaction:TYR:150>  (200) 
0

>  <hydroph_interaction:LYS:54>  (200) 
0

>  <hbond:SER:135>  (200) 
0

>  <hydroph_interaction:HIS:51>  (200) 
1

>  <hbond:ASP:83>  (200) 
0

>  <hbond:ALA:132>  (200) 
0

>  <halogenbond:SER:81>  (200) 
0

>  <hbond:GLY:82>  (200) 
0

>  <saltbridge:HIS:51>  (200) 
0

>  <pistack:TYR:161>  (200) 
1

>  <hbond:SER:81>  (200) 
0

>  <hbond:ASN:152>  (200) 
0

>  <hbond:GLY:151>  (200) 
0

>  <hydroph_interaction:ASN:152>  (200) 
0

>  <hbond:TYR:161>  (200) 
0

>  <halogenbond:TYR:150>  (200) 
0

>  <hbond:ASP:75>  (200) 
0

>  <hbond:GLY:153>  (200) 
0

>  <hbond:VAL:36>  (200) 
0

>  <hbond:PRO:131>  (200) 
0

>  <hbond:VAL:52>  (200) 
0

>  <hydroph_interaction:ASP:83>  (200) 
0

>  <hydroph_interaction:MET:49>  (200) 
0

>  <hydroph_interaction:VAL:52>  (200) 
0

>  <saltbridge:ASP:83>  (200) 
0

>  <saltbridge:ASP:75>  (200) 
0

>  <hydroph_interaction:TRP:50>  (200) 
0

>  <hydroph_interaction:VAL:72>  (200) 
0

>  <hydroph_interaction:ASP:75>  (200) 
0

>  <halogenbond:ASN:152>  (200) 
0

>  <halogenbond:GLY:153>  (200) 
0

>  <halogenbond:TYR:130>  (200) 
0

>  <hbond:TYR:130>  (200) 
0

>  <halogenbond:ASP:75>  (200) 
0

>  <halogenbond:GLY:151>  (200) 
0

>  <hbond:TYR:150>  (200) 
0

>  <halogenbond:TYR:161>  (200) 
0

>  <hydroph_interaction:ASP:129>  (200) 
0

>  <hbond:ASP:129>  (200) 
0

>  <halogenbond:ALA:132>  (200) 
0

$$$$
