ver_1.2
     RDKit          3D

 14 15  0  0  0  0  0  0  0  0999 V2000
    3.1626   -1.1796    0.0819 C   0  0  0  0  0  0  0  0  0  0  0  0
    2.2054   -0.0896    0.0455 N   0  0  0  0  0  0  0  0  0  0  0  0
    2.4945    1.2245    0.0306 C   0  0  0  0  0  0  0  0  0  0  0  0
    1.3453    1.9525   -0.0039 N   0  0  0  0  0  0  0  0  0  0  0  0
    0.2984    1.0923   -0.0113 C   0  0  0  0  0  0  0  0  0  0  0  0
    0.8584   -0.1821    0.0200 C   0  0  0  0  0  0  0  0  0  0  0  0
    0.0361   -1.2683    0.0207 C   0  0  0  0  0  0  0  0  0  0  0  0
    0.5558   -2.4132    0.0492 O   0  0  0  0  0  0  0  0  0  0  0  0
   -1.2810   -1.0834   -0.0085 N   0  0  0  0  0  0  0  0  0  0  0  0
   -1.8093    0.1549   -0.0386 C   0  0  0  0  0  0  0  0  0  0  0  0
   -3.0791    0.2323   -0.0653 O   0  0  0  0  0  0  0  0  0  0  0  0
   -1.0381    1.2603   -0.0407 N   0  0  0  0  0  0  0  0  0  0  0  0
   -1.6258    2.5720   -0.0731 C   0  0  0  0  0  0  0  0  0  0  0  0
   -2.1232   -2.2724   -0.0066 C   0  0  0  0  0  0  0  0  0  0  0  0
  1  2  1  0
  2  3  1  0
  3  4  2  0
  4  5  1  0
  5  6  2  0
  6  7  1  0
  7  8  2  0
  7  9  1  0
  9 10  1  0
 10 11  2  0
 10 12  1  0
 12 13  1  0
  9 14  1  0
  6  2  1  0
 12  5  1  0
M  END
>  <ref_url>  (1) 
https://arxiv.org/abs/2304.10905

>  <submitter_name>  (1) 
Janke Scheen

>  <submitter_email>  (1) 
jenke.scheen@choderalab.org

>  <submitter_institution>  (1) 
Nowehere

>  <generation_date>  (1) 
2023-09-07

>  <method>  (1) 
Silvr-original

>  <index>  (1) 
index

>  <LE>  (1) 
LE

>  <∆∆G>  (1) 
∆∆G

>  <percent_hybrid>  (1) 
percent_hybrid

>  <largest_ring>  (1) 
largest_ring

>  <N_rotatable_bonds>  (1) 
N_rotatable_bonds

>  <UFF_Gibbs>  (1) 
UFF_Gibbs

>  <strain_per_HA>  (1) 
strain_per_HA

>  <N_PAINS>  (1) 
N_PAINS

>  <N_interactions>  (1) 
N_interactions

>  <N_HA>  (1) 
N_HA

>  <ad_hoc_penalty>  (1) 
ad_hoc_penalty

>  <merger_rank>  (1) 
merger_rank

$$$$

     RDKit          3D

 17 18  0  0  0  0  0  0  0  0999 V2000
   -8.9000    3.6620   -9.4350 C   0  0  0  0  0  0  0  0  0  0  0  0
   -8.8120    4.8810   -8.7870 C   0  0  0  0  0  0  0  0  0  0  0  0
   -8.8450    6.0150   -9.6670 O   0  0  0  0  0  0  0  0  0  0  0  0
   -9.0200    5.8140  -10.9710 C   0  0  0  0  0  0  0  0  0  0  0  0
   -9.6600    4.8090  -11.5140 N   0  0  0  0  0  0  0  0  0  0  0  0
   -9.6110    4.9770  -12.8370 N   0  0  0  0  0  0  0  0  0  0  0  0
   -8.9350    6.0810  -13.0430 C   0  0  0  0  0  0  0  0  0  0  0  0
   -8.6480    6.6060  -14.2730 C   0  0  0  0  0  0  0  0  0  0  0  0
   -7.8910    7.5600  -14.4030 O   0  0  0  0  0  0  0  0  0  0  0  0
   -9.3000    5.9170  -15.2900 N   0  0  0  0  0  0  0  0  0  0  0  0
   -8.6740    5.5250  -16.4480 C   0  0  0  0  0  0  0  0  0  0  0  0
   -9.1320    4.8130  -17.4520 N   0  0  0  0  0  0  0  0  0  0  0  0
   -8.1230    4.6890  -18.3830 N   0  0  0  0  0  0  0  0  0  0  0  0
   -7.0740    5.3250  -17.9300 C   0  0  0  0  0  0  0  0  0  0  0  0
   -5.8610    5.4710  -18.4960 N   0  0  0  0  0  0  0  0  0  0  0  0
   -7.3720    5.8670  -16.7140 N   0  0  0  0  0  0  0  0  0  0  0  0
   -8.5180    6.6900  -11.8860 O   0  0  0  0  0  0  0  0  0  0  0  0
  1  2  1  0
  2  3  1  0
  3  4  1  0
  4  5  2  0
  5  6  1  0
  6  7  2  0
  7  8  1  0
  8  9  2  0
  8 10  1  0
 10 11  1  0
 11 12  2  0
 12 13  1  0
 13 14  2  0
 14 15  1  0
 14 16  1  0
  7 17  1  0
 17  4  1  0
 16 11  1  0
A    1
 C1 
A    2
 C2 
A    3
 O1 
A    4
 C3 
A    5
 N1 
A    6
 N2 
A    7
 C4 
A    8
 C5 
A    9
 O2 
A   10
 N3 
A   11
 C6 
A   12
 N4 
A   13
 N5 
A   14
 C7 
A   15
 N6 
A   16
 N7 
A   17
 O3 
M  END
>  <ref_pdb>  (1) 
x0051_0B

>  <ref_mols>  (1) 
x0404_0B,x0969_0B

>  <original SMILES>  (1) 
CCOc1nnc(C(=O)Nc2nnc(N)[nH]2)o1

>  <index>  (1) 
123

>  <LE>  (1) 
0.15308410173879397

>  <∆∆G>  (1) 
-2.6024297295594976

>  <percent_hybrid>  (1) 
0.0

>  <largest_ring>  (1) 
5

>  <N_rotatable_bonds>  (1) 
6

>  <UFF_Gibbs>  (1) 
100.27240372397911

>  <strain_per_HA>  (1) 
1002724.037239791

>  <N_PAINS>  (1) 
0

>  <N_interactions>  (1) 
5

>  <N_HA>  (1) 
17

>  <ad_hoc_penalty>  (1) 
1002645.939077637

>  <merger_rank>  (1) 
1

$$$$

     RDKit          3D

 16 17  0  0  0  0  0  0  0  0999 V2000
   -8.6740    3.6070   -9.0430 C   0  0  0  0  0  0  0  0  0  0  0  0
   -8.7420    4.3480  -10.3630 C   0  0  0  0  0  0  0  0  0  0  0  0
   -9.2090    5.6980  -10.4600 C   0  0  0  0  0  0  0  0  0  0  0  0
   -9.1390    5.9950  -11.8060 C   0  0  0  0  0  0  0  0  0  0  0  0
   -9.5450    7.2750  -12.3630 C   0  0  0  0  0  0  0  0  0  0  0  0
   -9.1920    7.6400  -13.5710 N   0  0  0  0  0  0  0  0  0  0  0  0
   -8.4110    6.6280  -14.0880 N   0  0  0  0  0  0  0  0  0  0  0  0
   -8.8660    6.2330  -15.2700 C   0  0  0  0  0  0  0  0  0  0  0  0
  -10.0420    6.3630  -15.5420 O   0  0  0  0  0  0  0  0  0  0  0  0
   -8.0140    5.6510  -16.2930 C   0  0  0  0  0  0  0  0  0  0  0  0
   -8.1450    5.4040  -17.6570 C   0  0  0  0  0  0  0  0  0  0  0  0
   -6.9400    4.8160  -18.0820 C   0  0  0  0  0  0  0  0  0  0  0  0
   -6.1480    4.7330  -16.9700 C   0  0  0  0  0  0  0  0  0  0  0  0
   -6.7820    5.2310  -15.8860 O   0  0  0  0  0  0  0  0  0  0  0  0
   -8.6410    4.8910  -12.4840 N   0  0  0  0  0  0  0  0  0  0  0  0
   -8.4070    3.8960  -11.5620 N   0  0  0  0  0  0  0  0  0  0  0  0
  1  2  1  0
  2  3  2  0
  3  4  1  0
  4  5  1  0
  5  6  2  3
  6  7  1  0
  7  8  1  0
  8  9  2  0
  8 10  1  0
 10 11  2  0
 11 12  1  0
 12 13  2  0
 13 14  1  0
  4 15  2  0
 15 16  1  0
 16  2  1  0
 14 10  1  0
A    1
 C1 
A    2
 C2 
A    3
 C3 
A    4
 C4 
A    5
 C5 
A    6
 N1 
A    7
 N2 
A    8
 C6 
A    9
 O1 
A   10
 C7 
A   11
 C8 
A   12
 C9 
A   13
 C10
A   14
 O2 
A   15
 N3 
A   16
 N4 
M  END
>  <ref_pdb>  (2) 
x0051_0B

>  <ref_mols>  (2) 
x0404_0B,x0969_0B

>  <original SMILES>  (2) 
Cc1cc(C=NNC(=O)c2ccco2)n[nH]1

>  <index>  (2) 
128

>  <LE>  (2) 
0.17187858010707666

>  <∆∆G>  (2) 
-2.7500572817132265

>  <percent_hybrid>  (2) 
0.0

>  <largest_ring>  (2) 
5

>  <N_rotatable_bonds>  (2) 
4

>  <UFF_Gibbs>  (2) 
1058.5615217491995

>  <strain_per_HA>  (2) 
10585615.217491996

>  <N_PAINS>  (2) 
0

>  <N_interactions>  (2) 
3

>  <N_HA>  (2) 
16

>  <ad_hoc_penalty>  (2) 
10585591.294181325

>  <merger_rank>  (2) 
1

$$$$

     RDKit          3D

 17 18  0  0  0  0  0  0  0  0999 V2000
   -6.6010    5.0980  -18.0810 C   0  0  0  0  0  0  0  0  0  0  0  0
   -7.5240    5.8150  -17.1670 C   0  0  0  0  0  0  0  0  0  0  0  0
   -7.4890    5.4200  -15.5050 S   0  0  0  0  0  0  0  0  0  0  0  0
   -8.9990    6.0690  -14.9620 C   0  0  0  0  0  0  0  0  0  0  0  0
  -10.0870    6.2110  -15.6670 N   0  0  0  0  0  0  0  0  0  0  0  0
  -11.0010    6.7890  -14.8260 N   0  0  0  0  0  0  0  0  0  0  0  0
  -10.5180    6.9800  -13.6300 N   0  0  0  0  0  0  0  0  0  0  0  0
   -9.2750    6.5270  -13.6970 N   0  0  0  0  0  0  0  0  0  0  0  0
   -8.4340    6.5110  -12.6790 N   0  0  0  0  0  0  0  0  0  0  0  0
   -8.0070    5.2250  -12.4860 C   0  0  0  0  0  0  0  0  0  0  0  0
   -7.3970    4.5950  -13.3360 O   0  0  0  0  0  0  0  0  0  0  0  0
   -8.3140    4.6110  -11.2330 C   0  0  0  0  0  0  0  0  0  0  0  0
   -8.7730    5.1540  -10.0540 C   0  0  0  0  0  0  0  0  0  0  0  0
   -8.8850    4.0790   -9.1500 C   0  0  0  0  0  0  0  0  0  0  0  0
   -9.2640    3.9740   -7.8730 N   0  0  0  0  0  0  0  0  0  0  0  0
   -8.5070    2.9540   -9.8000 O   0  0  0  0  0  0  0  0  0  0  0  0
   -8.1480    3.2780  -11.1000 N   0  0  0  0  0  0  0  0  0  0  0  0
  1  2  1  0
  2  3  1  0
  3  4  1  0
  4  5  2  0
  5  6  1  0
  6  7  2  0
  7  8  1  0
  8  9  1  0
  9 10  1  0
 10 11  2  0
 10 12  1  0
 12 13  1  0
 13 14  2  0
 14 15  1  0
 14 16  1  0
 16 17  1  0
  8  4  1  0
 17 12  2  0
A    1
 C1 
A    2
 C2 
A    3
 S1 
A    4
 C3 
A    5
 N1 
A    6
 N2 
A    7
 N3 
A    8
 N4 
A    9
 N5 
A   10
 C4 
A   11
 O1 
A   12
 C5 
A   13
 C6 
A   14
 C7 
A   15
 N6 
A   16
 O2 
A   17
 N7 
M  END
>  <ref_pdb>  (3) 
x0051_0B

>  <ref_mols>  (3) 
x0404_0B,x0969_0B

>  <original SMILES>  (3) 
CCSc1nnnn1NC(=O)c1cc(N)on1

>  <index>  (3) 
124

>  <LE>  (3) 
0.02658296996218454

>  <∆∆G>  (3) 
-0.4519104893571371

>  <percent_hybrid>  (3) 
0.0

>  <largest_ring>  (3) 
5

>  <N_rotatable_bonds>  (3) 
6

>  <UFF_Gibbs>  (3) 
128.06953377880825

>  <strain_per_HA>  (3) 
1280695.3377880824

>  <N_PAINS>  (3) 
0

>  <N_interactions>  (3) 
5

>  <N_HA>  (3) 
17

>  <ad_hoc_penalty>  (3) 
1280653.4498242897

>  <merger_rank>  (3) 
1

$$$$

     RDKit          3D

 13 14  0  0  0  0  0  0  0  0999 V2000
   -8.4540    4.3480  -12.5680 C   0  0  0  0  0  0  0  0  0  0  0  0
   -8.9270    5.2980  -13.3190 N   0  0  0  0  0  0  0  0  0  0  0  0
   -8.6680    5.2000  -14.7000 C   0  0  0  0  0  0  0  0  0  0  0  0
   -9.6910    4.9810  -15.6070 C   0  0  0  0  0  0  0  0  0  0  0  0
   -9.4250    4.8750  -16.9690 C   0  0  0  0  0  0  0  0  0  0  0  0
   -8.0880    4.9990  -17.3980 C   0  0  0  0  0  0  0  0  0  0  0  0
   -7.0880    5.2130  -16.5280 N   0  0  0  0  0  0  0  0  0  0  0  0
   -7.3810    5.3130  -15.1950 N   0  0  0  0  0  0  0  0  0  0  0  0
   -8.6430    4.2880  -11.1300 C   0  0  0  0  0  0  0  0  0  0  0  0
   -8.3890    3.2250  -10.3980 N   0  0  0  0  0  0  0  0  0  0  0  0
   -8.6840    3.4780   -9.0740 C   0  0  0  0  0  0  0  0  0  0  0  0
   -9.1540    4.7400   -8.8100 C   0  0  0  0  0  0  0  0  0  0  0  0
   -9.2280    5.6410  -10.2690 S   0  0  0  0  0  0  0  0  0  0  0  0
  1  2  2  3
  2  3  1  0
  3  4  2  0
  4  5  1  0
  5  6  2  0
  6  7  1  0
  7  8  2  0
  1  9  1  0
  9 10  2  0
 10 11  1  0
 11 12  2  0
 12 13  1  0
  8  3  1  0
 13  9  1  0
A    1
 C1 
A    2
 N1 
A    3
 C2 
A    4
 C3 
A    5
 C4 
A    6
 C5 
A    7
 N2 
A    8
 N3 
A    9
 C6 
A   10
 N4 
A   11
 C7 
A   12
 C8 
A   13
 S1 
M  END
>  <ref_pdb>  (4) 
x0051_0B

>  <ref_mols>  (4) 
x0969_1B,x0553_0B

>  <original SMILES>  (4) 
C(=Nc1cccnn1)c1nccs1

>  <index>  (4) 
0

>  <LE>  (4) 
0.285837417401982

>  <∆∆G>  (4) 
-3.715886426225766

>  <percent_hybrid>  (4) 
0.0

>  <largest_ring>  (4) 
6

>  <N_rotatable_bonds>  (4) 
2

>  <UFF_Gibbs>  (4) 
16.6425709521045

>  <strain_per_HA>  (4) 
166425.70952104498

>  <N_PAINS>  (4) 
0

>  <N_interactions>  (4) 
1

>  <N_HA>  (4) 
13

>  <ad_hoc_penalty>  (4) 
166405.63730644598

>  <merger_rank>  (4) 
1

$$$$

     RDKit          3D

 14 16  0  0  0  0  0  0  0  0999 V2000
   -9.2170    4.1020   -9.2140 C   0  0  0  0  0  0  0  0  0  0  0  0
   -9.3370    2.9440  -10.0840 C   0  0  0  0  0  0  0  0  0  0  0  0
   -9.0880    3.2710  -11.3860 O   0  0  0  0  0  0  0  0  0  0  0  0
   -8.8120    4.6450  -11.3510 C   0  0  0  0  0  0  0  0  0  0  0  0
   -8.4890    5.3740  -12.5390 C   0  0  0  0  0  0  0  0  0  0  0  0
   -8.5830    6.5030  -13.0570 N   0  0  0  0  0  0  0  0  0  0  0  0
   -7.9120    5.5250  -13.7090 N   0  0  0  0  0  0  0  0  0  0  0  0
   -8.5040    5.1990  -14.9480 C   0  0  0  0  0  0  0  0  0  0  0  0
   -7.6480    5.1840  -15.9900 N   0  0  0  0  0  0  0  0  0  0  0  0
   -8.2080    4.8720  -17.2660 C   0  0  0  0  0  0  0  0  0  0  0  0
   -9.5400    4.6000  -17.4230 C   0  0  0  0  0  0  0  0  0  0  0  0
  -10.3390    4.6310  -16.3540 N   0  0  0  0  0  0  0  0  0  0  0  0
   -9.8230    4.9300  -15.1170 N   0  0  0  0  0  0  0  0  0  0  0  0
   -8.8830    5.1650  -10.0530 C   0  0  0  0  0  0  0  0  0  0  0  0
  1  2  2  0
  2  3  1  0
  3  4  1  0
  4  5  1  0
  5  6  2  0
  6  7  1  0
  7  8  1  0
  8  9  2  0
  9 10  1  0
 10 11  2  0
 11 12  1  0
 12 13  2  0
  4 14  2  0
 14  1  1  0
  7  5  1  0
 13  8  1  0
A    1
 C1 
A    2
 C2 
A    3
 O1 
A    4
 C3 
A    5
 C4 
A    6
 N1 
A    7
 N2 
A    8
 C5 
A    9
 N3 
A   10
 C6 
A   11
 C7 
A   12
 N4 
A   13
 N5 
A   14
 C8 
M  END
>  <ref_pdb>  (5) 
x0051_0B

>  <ref_mols>  (5) 
x0969_1B,x0553_0B

>  <original SMILES>  (5) 
c1coc(C2=NN2c2nccnn2)c1

>  <index>  (5) 
125

>  <LE>  (5) 
0.2537824330012545

>  <∆∆G>  (5) 
-3.5529540620175633

>  <percent_hybrid>  (5) 
0.0

>  <largest_ring>  (5) 
6

>  <N_rotatable_bonds>  (5) 
2

>  <UFF_Gibbs>  (5) 
172.96085112453937

>  <strain_per_HA>  (5) 
1729608.5112453937

>  <N_PAINS>  (5) 
0

>  <N_interactions>  (5) 
3

>  <N_HA>  (5) 
14

>  <ad_hoc_penalty>  (5) 
1729575.264065788

>  <merger_rank>  (5) 
1

$$$$

     RDKit          3D

 12 13  0  0  0  0  0  0  0  0999 V2000
   -9.7930    4.9870  -17.1280 N   0  0  0  0  0  0  0  0  0  0  0  0
   -8.7610    4.2400  -16.4240 C   0  0  0  0  0  0  0  0  0  0  0  0
   -8.4320    4.8280  -15.1060 C   0  0  0  0  0  0  0  0  0  0  0  0
   -7.7790    5.9220  -14.8050 N   0  0  0  0  0  0  0  0  0  0  0  0
   -7.7720    5.9900  -13.4230 N   0  0  0  0  0  0  0  0  0  0  0  0
   -8.4240    4.9330  -12.9810 C   0  0  0  0  0  0  0  0  0  0  0  0
   -8.6770    4.5830  -11.6190 C   0  0  0  0  0  0  0  0  0  0  0  0
   -8.6180    5.4210  -10.5270 C   0  0  0  0  0  0  0  0  0  0  0  0
   -8.9330    4.7480   -9.3130 C   0  0  0  0  0  0  0  0  0  0  0  0
   -9.2220    3.4170   -9.5220 C   0  0  0  0  0  0  0  0  0  0  0  0
   -9.1150    2.9930  -11.1670 S   0  0  0  0  0  0  0  0  0  0  0  0
   -8.8580    4.1630  -14.0100 O   0  0  0  0  0  0  0  0  0  0  0  0
  1  2  1  0
  2  3  1  0
  3  4  2  0
  4  5  1  0
  5  6  2  0
  6  7  1  0
  7  8  2  0
  8  9  1  0
  9 10  2  0
 10 11  1  0
  6 12  1  0
 12  3  1  0
 11  7  1  0
A    1
 N1 
A    2
 C1 
A    3
 C2 
A    4
 N2 
A    5
 N3 
A    6
 C3 
A    7
 C4 
A    8
 C5 
A    9
 C6 
A   10
 C7 
A   11
 S1 
A   12
 O1 
M  END
>  <ref_pdb>  (6) 
x0051_0B

>  <ref_mols>  (6) 
x0969_1B,x0553_0B

>  <original SMILES>  (6) 
NCc1nnc(-c2cccs2)o1

>  <index>  (6) 
1

>  <LE>  (6) 
0.27069974796123514

>  <∆∆G>  (6) 
-3.248396975534822

>  <percent_hybrid>  (6) 
0.0

>  <largest_ring>  (6) 
5

>  <N_rotatable_bonds>  (6) 
3

>  <UFF_Gibbs>  (6) 
20.001395616720856

>  <strain_per_HA>  (6) 
200013.95616720855

>  <N_PAINS>  (6) 
0

>  <N_interactions>  (6) 
3

>  <N_HA>  (6) 
12

>  <ad_hoc_penalty>  (6) 
199981.7084055536

>  <merger_rank>  (6) 
1

$$$$

     RDKit          3D

 13 13  0  0  0  0  0  0  0  0999 V2000
   -9.0710    4.8840   -8.8210 N   0  0  0  0  0  0  0  0  0  0  0  0
   -9.3360    3.6870   -9.4180 C   0  0  0  0  0  0  0  0  0  0  0  0
   -9.9980    2.6450   -8.7250 O   0  0  0  0  0  0  0  0  0  0  0  0
   -8.8710    3.5900  -10.8110 C   0  0  0  0  0  0  0  0  0  0  0  0
   -8.4710    4.6680  -11.6770 C   0  0  0  0  0  0  0  0  0  0  0  0
   -8.0540    4.2250  -12.9630 C   0  0  0  0  0  0  0  0  0  0  0  0
   -7.9810    5.2230  -13.9690 C   0  0  0  0  0  0  0  0  0  0  0  0
   -8.4030    5.0930  -15.2690 C   0  0  0  0  0  0  0  0  0  0  0  0
   -7.4720    4.9410  -16.3150 C   0  0  0  0  0  0  0  0  0  0  0  0
   -8.3010    4.8390  -17.4610 C   0  0  0  0  0  0  0  0  0  0  0  0
   -9.6030    4.9370  -16.9890 C   0  0  0  0  0  0  0  0  0  0  0  0
  -11.1570    4.8800  -18.0230 Br  0  0  0  0  0  0  0  0  0  0  0  0
   -9.6720    5.0940  -15.6510 O   0  0  0  0  0  0  0  0  0  0  0  0
  1  2  1  0
  2  3  2  0
  2  4  1  0
  4  5  2  3
  5  6  1  0
  6  7  3  0
  7  8  1  0
  8  9  2  0
  9 10  1  0
 10 11  2  0
 11 12  1  0
 11 13  1  0
 13  8  1  0
A    1
 N1 
A    2
 C1 
A    3
 O1 
A    4
 C2 
A    5
 C3 
A    6
 C4 
A    7
 C5 
A    8
 C6 
A    9
 C7 
A   10
 C8 
A   11
 C9 
A   12
BR1 
A   13
 O2 
M  END
>  <ref_pdb>  (7) 
x0051_0B

>  <ref_mols>  (7) 
x0969_1B,x0553_0B

>  <original SMILES>  (7) 
NC(=O)C=CC#Cc1ccc(Br)o1

>  <index>  (7) 
126

>  <LE>  (7) 
0.1484818982364277

>  <∆∆G>  (7) 
-1.93026467707356

>  <percent_hybrid>  (7) 
0.0

>  <largest_ring>  (7) 
5

>  <N_rotatable_bonds>  (7) 
1

>  <UFF_Gibbs>  (7) 
204.5971654931369

>  <strain_per_HA>  (7) 
2045971.654931369

>  <N_PAINS>  (7) 
0

>  <N_interactions>  (7) 
3

>  <N_HA>  (7) 
13

>  <ad_hoc_penalty>  (7) 
2045941.1970546234

>  <merger_rank>  (7) 
1

$$$$

     RDKit          3D

 12 13  0  0  0  0  0  0  0  0999 V2000
   -8.9510    4.5880   -9.0510 C   0  0  0  0  0  0  0  0  0  0  0  0
   -8.9140    4.3700  -10.5190 C   0  0  0  0  0  0  0  0  0  0  0  0
   -8.6800    5.2970  -11.5620 C   0  0  0  0  0  0  0  0  0  0  0  0
   -8.7710    4.5010  -12.7520 C   0  0  0  0  0  0  0  0  0  0  0  0
   -8.6330    4.9050  -14.0840 C   0  0  0  0  0  0  0  0  0  0  0  0
   -8.0770    6.0970  -14.4790 N   0  0  0  0  0  0  0  0  0  0  0  0
   -8.1270    6.1230  -15.8100 N   0  0  0  0  0  0  0  0  0  0  0  0
   -8.7140    4.9350  -16.1550 N   0  0  0  0  0  0  0  0  0  0  0  0
   -8.9700    4.5500  -17.5200 C   0  0  0  0  0  0  0  0  0  0  0  0
   -9.0430    4.1520  -15.1240 N   0  0  0  0  0  0  0  0  0  0  0  0
   -9.0330    3.2260  -12.3610 O   0  0  0  0  0  0  0  0  0  0  0  0
   -9.1220    3.1400  -10.9830 N   0  0  0  0  0  0  0  0  0  0  0  0
  1  2  1  0
  2  3  1  0
  3  4  2  0
  4  5  1  0
  5  6  1  0
  6  7  2  0
  7  8  1  0
  8  9  1  0
  8 10  1  0
  4 11  1  0
 11 12  1  0
 12  2  2  0
 10  5  2  0
A    1
 C1 
A    2
 C2 
A    3
 C3 
A    4
 C4 
A    5
 C5 
A    6
 N1 
A    7
 N2 
A    8
 N3 
A    9
 C6 
A   10
 N4 
A   11
 O1 
A   12
 N5 
M  END
>  <ref_pdb>  (8) 
x0051_0B

>  <ref_mols>  (8) 
x0969_1B,x0553_0B

>  <original SMILES>  (8) 
Cc1cc(-c2nnn(C)n2)on1

>  <index>  (8) 
2

>  <LE>  (8) 
0.191202074626697

>  <∆∆G>  (8) 
-2.294424895520364

>  <percent_hybrid>  (8) 
0.0

>  <largest_ring>  (8) 
5

>  <N_rotatable_bonds>  (8) 
3

>  <UFF_Gibbs>  (8) 
20.808607184457756

>  <strain_per_HA>  (8) 
208086.07184457756

>  <N_PAINS>  (8) 
0

>  <N_interactions>  (8) 
3

>  <N_HA>  (8) 
12

>  <ad_hoc_penalty>  (8) 
208057.77989716007

>  <merger_rank>  (8) 
1

$$$$

     RDKit          3D

 13 15  0  0  0  0  0  0  0  0999 V2000
   -9.1900    5.0200  -16.7720 C   0  0  0  0  0  0  0  0  0  0  0  0
   -7.8480    5.2150  -16.7370 C   0  0  0  0  0  0  0  0  0  0  0  0
   -7.5350    5.2220  -15.3850 C   0  0  0  0  0  0  0  0  0  0  0  0
   -8.6710    5.0330  -14.6190 N   0  0  0  0  0  0  0  0  0  0  0  0
   -8.7050    4.9790  -13.1970 C   0  0  0  0  0  0  0  0  0  0  0  0
   -8.9840    3.8540  -12.5500 N   0  0  0  0  0  0  0  0  0  0  0  0
   -8.9420    4.1450  -11.2460 C   0  0  0  0  0  0  0  0  0  0  0  0
   -9.1530    3.3770  -10.1490 N   0  0  0  0  0  0  0  0  0  0  0  0
   -8.9690    4.2270   -9.0870 C   0  0  0  0  0  0  0  0  0  0  0  0
   -8.6600    5.4610   -9.4700 N   0  0  0  0  0  0  0  0  0  0  0  0
   -8.6510    5.3860  -10.8310 C   0  0  0  0  0  0  0  0  0  0  0  0
   -8.3840    6.3810  -12.2150 S   0  0  0  0  0  0  0  0  0  0  0  0
   -9.7290    4.9090  -15.5150 C   0  0  0  0  0  0  0  0  0  0  0  0
  1  2  1  0
  2  3  2  0
  3  4  1  0
  4  5  1  0
  5  6  2  0
  6  7  1  0
  7  8  1  0
  8  9  1  0
  9 10  2  0
 10 11  1  0
 11 12  1  0
  4 13  1  0
 13  1  2  0
 12  5  1  0
 11  7  2  0
A    1
 C1 
A    2
 C2 
A    3
 C3 
A    4
 N1 
A    5
 C4 
A    6
 N2 
A    7
 C5 
A    8
 N3 
A    9
 C6 
A   10
 N4 
A   11
 C7 
A   12
 S1 
A   13
 C8 
M  END
>  <ref_pdb>  (9) 
x0051_0B

>  <ref_mols>  (9) 
x0969_1B,x0553_0B

>  <original SMILES>  (9) 
c1ccn(-c2nc3[nH]cnc3s2)c1

>  <index>  (9) 
3

>  <LE>  (9) 
0.20379538952776124

>  <∆∆G>  (9) 
-2.649340063860896

>  <percent_hybrid>  (9) 
0.0

>  <largest_ring>  (9) 
5

>  <N_rotatable_bonds>  (9) 
1

>  <UFF_Gibbs>  (9) 
20.859240955591474

>  <strain_per_HA>  (9) 
208592.40955591472

>  <N_PAINS>  (9) 
0

>  <N_interactions>  (9) 
4

>  <N_HA>  (9) 
13

>  <ad_hoc_penalty>  (9) 
208543.88083327227

>  <merger_rank>  (9) 
1

$$$$

     RDKit          3D

 16 17  0  0  0  0  0  0  0  0999 V2000
  -10.9810    6.1030  -12.3590 O   0  0  0  0  0  0  0  0  0  0  0  0
   -9.7910    5.8240  -12.3640 C   0  0  0  0  0  0  0  0  0  0  0  0
   -8.9400    6.0630  -13.5580 C   0  0  0  0  0  0  0  0  0  0  0  0
   -9.1410    5.4530  -14.7270 C   0  0  0  0  0  0  0  0  0  0  0  0
   -8.2990    5.6070  -15.9140 C   0  0  0  0  0  0  0  0  0  0  0  0
   -8.7140    5.0280  -17.1160 C   0  0  0  0  0  0  0  0  0  0  0  0
   -7.9270    5.1490  -18.2560 C   0  0  0  0  0  0  0  0  0  0  0  0
   -6.7380    5.8500  -18.1600 C   0  0  0  0  0  0  0  0  0  0  0  0
   -6.2970    6.4280  -17.0200 N   0  0  0  0  0  0  0  0  0  0  0  0
   -7.0870    6.2930  -15.9260 C   0  0  0  0  0  0  0  0  0  0  0  0
   -9.1330    5.2120  -11.1910 C   0  0  0  0  0  0  0  0  0  0  0  0
   -9.3340    3.8720  -10.8430 C   0  0  0  0  0  0  0  0  0  0  0  0
   -8.6540    3.3980   -9.7400 C   0  0  0  0  0  0  0  0  0  0  0  0
   -7.8230    4.1580   -8.9990 N   0  0  0  0  0  0  0  0  0  0  0  0
   -7.6540    5.4430   -9.3530 C   0  0  0  0  0  0  0  0  0  0  0  0
   -8.2850    6.0140  -10.4340 C   0  0  0  0  0  0  0  0  0  0  0  0
  1  2  2  0
  2  3  1  0
  3  4  2  3
  4  5  1  0
  5  6  2  0
  6  7  1  0
  7  8  2  0
  8  9  1  0
  9 10  2  0
  2 11  1  0
 11 12  2  0
 12 13  1  0
 13 14  2  0
 14 15  1  0
 15 16  2  0
 10  5  1  0
 16 11  1  0
A    1
 O1 
A    2
 C1 
A    3
 C2 
A    4
 C3 
A    5
 C4 
A    6
 C5 
A    7
 C6 
A    8
 C7 
A    9
 N1 
A   10
 C8 
A   11
 C9 
A   12
 C10
A   13
 C11
A   14
 N2 
A   15
 C12
A   16
 C13
M  END
>  <ref_pdb>  (10) 
x0051_0B

>  <ref_mols>  (10) 
x0404_0B,x0969_0B

>  <original SMILES>  (10) 
O=C(C=Cc1cccnc1)c1ccncc1

>  <index>  (10) 
4

>  <LE>  (10) 
0.24148866932769034

>  <∆∆G>  (10) 
-3.8638187092430454

>  <percent_hybrid>  (10) 
0.0

>  <largest_ring>  (10) 
6

>  <N_rotatable_bonds>  (10) 
3

>  <UFF_Gibbs>  (10) 
21.056345059539176

>  <strain_per_HA>  (10) 
210563.45059539174

>  <N_PAINS>  (10) 
0

>  <N_interactions>  (10) 
5

>  <N_HA>  (10) 
16

>  <ad_hoc_penalty>  (10) 
210512.87050420453

>  <merger_rank>  (10) 
1

$$$$

     RDKit          3D

 12 13  0  0  0  0  0  0  0  0999 V2000
   -9.3610    3.6970   -9.1670 C   0  0  0  0  0  0  0  0  0  0  0  0
   -8.6160    4.1270  -10.3770 C   0  0  0  0  0  0  0  0  0  0  0  0
   -7.3360    4.3970  -10.4190 N   0  0  0  0  0  0  0  0  0  0  0  0
   -6.9280    4.7630  -11.6850 N   0  0  0  0  0  0  0  0  0  0  0  0
   -7.8990    4.7690  -12.5780 C   0  0  0  0  0  0  0  0  0  0  0  0
   -7.6690    5.1030  -13.8770 N   0  0  0  0  0  0  0  0  0  0  0  0
   -8.4620    5.0370  -14.9790 C   0  0  0  0  0  0  0  0  0  0  0  0
   -8.0170    4.7160  -16.2500 C   0  0  0  0  0  0  0  0  0  0  0  0
   -9.0470    4.7010  -17.2330 C   0  0  0  0  0  0  0  0  0  0  0  0
  -10.2650    5.0140  -16.6890 C   0  0  0  0  0  0  0  0  0  0  0  0
  -10.1410    5.3270  -15.0200 S   0  0  0  0  0  0  0  0  0  0  0  0
   -9.3970    4.3110  -11.8780 S   0  0  0  0  0  0  0  0  0  0  0  0
  1  2  1  0
  2  3  2  0
  3  4  1  0
  4  5  2  0
  5  6  1  0
  6  7  1  0
  7  8  2  0
  8  9  1  0
  9 10  2  0
 10 11  1  0
  5 12  1  0
 12  2  1  0
 11  7  1  0
A    1
 C1 
A    2
 C2 
A    3
 N1 
A    4
 N2 
A    5
 C3 
A    6
 N3 
A    7
 C4 
A    8
 C5 
A    9
 C6 
A   10
 C7 
A   11
 S1 
A   12
 S2 
M  END
>  <ref_pdb>  (11) 
x0051_0B

>  <ref_mols>  (11) 
x0969_1B,x0553_0B

>  <original SMILES>  (11) 
Cc1nnc(Nc2cccs2)s1

>  <index>  (11) 
5

>  <LE>  (11) 
0.41488435781521904

>  <∆∆G>  (11) 
-4.9786122937826285

>  <percent_hybrid>  (11) 
0.0

>  <largest_ring>  (11) 
5

>  <N_rotatable_bonds>  (11) 
3

>  <UFF_Gibbs>  (11) 
22.16073248875503

>  <strain_per_HA>  (11) 
221607.3248875503

>  <N_PAINS>  (11) 
0

>  <N_interactions>  (11) 
4

>  <N_HA>  (11) 
12

>  <ad_hoc_penalty>  (11) 
221568.83507553634

>  <merger_rank>  (11) 
1

$$$$

     RDKit          3D

 13 14  0  0  0  0  0  0  0  0999 V2000
   -8.5290    5.1250  -18.1610 C   0  0  0  0  0  0  0  0  0  0  0  0
   -8.4220    5.2830  -16.7240 C   0  0  0  0  0  0  0  0  0  0  0  0
   -8.0150    6.3870  -16.1090 N   0  0  0  0  0  0  0  0  0  0  0  0
   -8.0130    6.2450  -14.7310 N   0  0  0  0  0  0  0  0  0  0  0  0
   -8.4070    5.0530  -14.3330 C   0  0  0  0  0  0  0  0  0  0  0  0
   -8.5280    4.5160  -13.0890 N   0  0  0  0  0  0  0  0  0  0  0  0
   -8.7800    5.2920  -12.0890 C   0  0  0  0  0  0  0  0  0  0  0  0
   -8.9020    4.7440  -10.7590 C   0  0  0  0  0  0  0  0  0  0  0  0
   -9.1010    3.4510  -10.6020 N   0  0  0  0  0  0  0  0  0  0  0  0
   -9.1960    3.1460   -9.2640 C   0  0  0  0  0  0  0  0  0  0  0  0
   -9.0590    4.2580   -8.3930 C   0  0  0  0  0  0  0  0  0  0  0  0
   -8.8070    5.6770   -9.3230 S   0  0  0  0  0  0  0  0  0  0  0  0
   -8.8120    4.0400  -15.6600 S   0  0  0  0  0  0  0  0  0  0  0  0
  1  2  1  0
  2  3  2  0
  3  4  1  0
  4  5  2  0
  5  6  1  0
  6  7  2  3
  7  8  1  0
  8  9  2  0
  9 10  1  0
 10 11  2  0
 11 12  1  0
  5 13  1  0
 13  2  1  0
 12  8  1  0
A    1
 C1 
A    2
 C2 
A    3
 N1 
A    4
 N2 
A    5
 C3 
A    6
 N3 
A    7
 C4 
A    8
 C5 
A    9
 N4 
A   10
 C6 
A   11
 C7 
A   12
 S1 
A   13
 S2 
M  END
>  <ref_pdb>  (12) 
x0051_0B

>  <ref_mols>  (12) 
x0969_1B,x0553_0B

>  <original SMILES>  (12) 
Cc1nnc(N=Cc2nccs2)s1

>  <index>  (12) 
6

>  <LE>  (12) 
0.2846847158722811

>  <∆∆G>  (12) 
-3.7009013063396545

>  <percent_hybrid>  (12) 
0.0

>  <largest_ring>  (12) 
5

>  <N_rotatable_bonds>  (12) 
3

>  <UFF_Gibbs>  (12) 
22.536197847483308

>  <strain_per_HA>  (12) 
225361.97847483307

>  <N_PAINS>  (12) 
0

>  <N_interactions>  (12) 
1

>  <N_HA>  (12) 
13

>  <ad_hoc_penalty>  (12) 
225349.25546582494

>  <merger_rank>  (12) 
1

$$$$

     RDKit          3D

 12 13  0  0  0  0  0  0  0  0999 V2000
   -9.3510    3.6090   -9.2000 C   0  0  0  0  0  0  0  0  0  0  0  0
   -8.3200    4.2170  -10.0100 N   0  0  0  0  0  0  0  0  0  0  0  0
   -8.6140    4.4890  -11.3040 C   0  0  0  0  0  0  0  0  0  0  0  0
   -9.6660    5.1240  -11.7290 N   0  0  0  0  0  0  0  0  0  0  0  0
   -9.7110    5.2640  -13.0940 N   0  0  0  0  0  0  0  0  0  0  0  0
   -8.6720    4.7210  -13.6770 C   0  0  0  0  0  0  0  0  0  0  0  0
   -8.5040    4.7520  -15.1030 C   0  0  0  0  0  0  0  0  0  0  0  0
   -9.5160    4.7230  -16.0460 C   0  0  0  0  0  0  0  0  0  0  0  0
   -9.0300    4.7690  -17.3790 C   0  0  0  0  0  0  0  0  0  0  0  0
   -7.6560    4.8330  -17.4180 C   0  0  0  0  0  0  0  0  0  0  0  0
   -6.9700    4.8370  -15.8570 S   0  0  0  0  0  0  0  0  0  0  0  0
   -7.5690    3.9980  -12.5760 S   0  0  0  0  0  0  0  0  0  0  0  0
  1  2  1  0
  2  3  1  0
  3  4  2  0
  4  5  1  0
  5  6  2  0
  6  7  1  0
  7  8  2  0
  8  9  1  0
  9 10  2  0
 10 11  1  0
  6 12  1  0
 12  3  1  0
 11  7  1  0
A    1
 C1 
A    2
 N1 
A    3
 C2 
A    4
 N2 
A    5
 N3 
A    6
 C3 
A    7
 C4 
A    8
 C5 
A    9
 C6 
A   10
 C7 
A   11
 S1 
A   12
 S2 
M  END
>  <ref_pdb>  (13) 
x0051_0B

>  <ref_mols>  (13) 
x0969_1B,x0553_0B

>  <original SMILES>  (13) 
CNc1nnc(-c2cccs2)s1

>  <index>  (13) 
7

>  <LE>  (13) 
0.37579202125940175

>  <∆∆G>  (13) 
-4.509504255112821

>  <percent_hybrid>  (13) 
0.0

>  <largest_ring>  (13) 
5

>  <N_rotatable_bonds>  (13) 
3

>  <UFF_Gibbs>  (13) 
22.956064068727258

>  <strain_per_HA>  (13) 
229560.64068727256

>  <N_PAINS>  (13) 
0

>  <N_interactions>  (13) 
3

>  <N_HA>  (13) 
12

>  <ad_hoc_penalty>  (13) 
229518.5683098244

>  <merger_rank>  (13) 
1

$$$$

     RDKit          3D

 13 14  0  0  0  0  0  0  0  0999 V2000
   -8.8440    4.8630  -17.6560 C   0  0  0  0  0  0  0  0  0  0  0  0
   -8.4590    4.8470  -16.2580 C   0  0  0  0  0  0  0  0  0  0  0  0
   -7.1780    4.7370  -15.8910 N   0  0  0  0  0  0  0  0  0  0  0  0
   -7.1650    4.7370  -14.2130 S   0  0  0  0  0  0  0  0  0  0  0  0
   -8.8670    4.9050  -14.0900 C   0  0  0  0  0  0  0  0  0  0  0  0
   -9.5640    4.9880  -12.9410 O   0  0  0  0  0  0  0  0  0  0  0  0
   -9.2200    4.7920  -11.6240 C   0  0  0  0  0  0  0  0  0  0  0  0
   -8.8940    5.8350  -10.6810 C   0  0  0  0  0  0  0  0  0  0  0  0
   -8.5810    5.5990   -9.3870 N   0  0  0  0  0  0  0  0  0  0  0  0
   -8.5880    4.3090   -9.0110 C   0  0  0  0  0  0  0  0  0  0  0  0
   -8.8710    3.2590   -9.7940 N   0  0  0  0  0  0  0  0  0  0  0  0
   -9.1820    3.5210  -11.0860 C   0  0  0  0  0  0  0  0  0  0  0  0
   -9.4340    4.9510  -15.2830 N   0  0  0  0  0  0  0  0  0  0  0  0
  1  2  1  0
  2  3  2  0
  3  4  1  0
  4  5  1  0
  5  6  1  0
  6  7  1  0
  7  8  2  0
  8  9  1  0
  9 10  2  0
 10 11  1  0
 11 12  2  0
  5 13  2  0
 13  2  1  0
 12  7  1  0
A    1
 C1 
A    2
 C2 
A    3
 N1 
A    4
 S1 
A    5
 C3 
A    6
 O1 
A    7
 C4 
A    8
 C5 
A    9
 N2 
A   10
 C6 
A   11
 N3 
A   12
 C7 
A   13
 N4 
M  END
>  <ref_pdb>  (14) 
x0051_0B

>  <ref_mols>  (14) 
x0969_1B,x0553_0B

>  <original SMILES>  (14) 
Cc1nsc(Oc2cncnc2)n1

>  <index>  (14) 
8

>  <LE>  (14) 
0.23125710956133866

>  <∆∆G>  (14) 
-3.0063424242974026

>  <percent_hybrid>  (14) 
0.0

>  <largest_ring>  (14) 
6

>  <N_rotatable_bonds>  (14) 
3

>  <UFF_Gibbs>  (14) 
24.113040275580474

>  <strain_per_HA>  (14) 
241130.40275580474

>  <N_PAINS>  (14) 
0

>  <N_interactions>  (14) 
2

>  <N_HA>  (14) 
13

>  <ad_hoc_penalty>  (14) 
241111.78199947273

>  <merger_rank>  (14) 
1

$$$$

     RDKit          3D

 14 16  0  0  0  0  0  0  0  0999 V2000
   -8.8790    4.6000  -17.6960 C   0  0  0  0  0  0  0  0  0  0  0  0
   -8.6950    5.0570  -16.2890 C   0  0  0  0  0  0  0  0  0  0  0  0
   -8.3290    6.3000  -15.9760 N   0  0  0  0  0  0  0  0  0  0  0  0
   -8.2780    6.3090  -14.5810 O   0  0  0  0  0  0  0  0  0  0  0  0
   -8.6180    5.0470  -14.1910 C   0  0  0  0  0  0  0  0  0  0  0  0
   -8.6630    4.7040  -12.8380 C   0  0  0  0  0  0  0  0  0  0  0  0
   -8.8680    5.6370  -11.8720 N   0  0  0  0  0  0  0  0  0  0  0  0
   -8.8650    4.9240  -10.7150 C   0  0  0  0  0  0  0  0  0  0  0  0
   -9.0260    5.3080   -9.4250 N   0  0  0  0  0  0  0  0  0  0  0  0
   -8.9310    4.1410   -8.6940 C   0  0  0  0  0  0  0  0  0  0  0  0
   -8.7200    3.0850   -9.4490 N   0  0  0  0  0  0  0  0  0  0  0  0
   -8.6800    3.5890  -10.7040 C   0  0  0  0  0  0  0  0  0  0  0  0
   -8.4620    3.0550  -12.3060 S   0  0  0  0  0  0  0  0  0  0  0  0
   -8.8810    4.2450  -15.2120 N   0  0  0  0  0  0  0  0  0  0  0  0
  1  2  1  0
  2  3  2  0
  3  4  1  0
  4  5  1  0
  5  6  1  0
  6  7  2  0
  7  8  1  0
  8  9  1  0
  9 10  1  0
 10 11  2  0
 11 12  1  0
 12 13  1  0
  5 14  2  0
 14  2  1  0
 13  6  1  0
 12  8  2  0
A    1
 C1 
A    2
 C2 
A    3
 N1 
A    4
 O1 
A    5
 C3 
A    6
 C4 
A    7
 N2 
A    8
 C5 
A    9
 N3 
A   10
 C6 
A   11
 N4 
A   12
 C7 
A   13
 S1 
A   14
 N5 
M  END
>  <ref_pdb>  (15) 
x0051_0B

>  <ref_mols>  (15) 
x0969_1B,x0553_0B

>  <original SMILES>  (15) 
Cc1noc(-c2nc3[nH]cnc3s2)n1

>  <index>  (15) 
9

>  <LE>  (15) 
0.20231617749054537

>  <∆∆G>  (15) 
-2.8324264848676353

>  <percent_hybrid>  (15) 
0.0

>  <largest_ring>  (15) 
5

>  <N_rotatable_bonds>  (15) 
2

>  <UFF_Gibbs>  (15) 
24.544153137581958

>  <strain_per_HA>  (15) 
245441.53137581956

>  <N_PAINS>  (15) 
0

>  <N_interactions>  (15) 
3

>  <N_HA>  (15) 
14

>  <ad_hoc_penalty>  (15) 
245414.3955295378

>  <merger_rank>  (15) 
1

$$$$

     RDKit          3D

 12 13  0  0  0  0  0  0  0  0999 V2000
   -9.1850    4.8200  -17.5380 C   0  0  0  0  0  0  0  0  0  0  0  0
   -8.6250    4.8590  -16.1580 C   0  0  0  0  0  0  0  0  0  0  0  0
   -7.2790    4.9140  -15.7440 C   0  0  0  0  0  0  0  0  0  0  0  0
   -7.1880    4.9220  -14.0260 S   0  0  0  0  0  0  0  0  0  0  0  0
   -8.9060    4.8520  -13.9370 C   0  0  0  0  0  0  0  0  0  0  0  0
   -9.5960    4.8170  -12.7540 O   0  0  0  0  0  0  0  0  0  0  0  0
   -9.2190    4.6350  -11.4780 C   0  0  0  0  0  0  0  0  0  0  0  0
   -9.2540    3.5110  -10.5980 C   0  0  0  0  0  0  0  0  0  0  0  0
   -8.7750    3.8040   -9.3400 C   0  0  0  0  0  0  0  0  0  0  0  0
   -8.3700    5.1130   -9.2190 C   0  0  0  0  0  0  0  0  0  0  0  0
   -8.5740    5.9940  -10.6610 S   0  0  0  0  0  0  0  0  0  0  0  0
   -9.5190    4.8370  -15.1140 N   0  0  0  0  0  0  0  0  0  0  0  0
  1  2  1  0
  2  3  2  0
  3  4  1  0
  4  5  1  0
  5  6  1  0
  6  7  1  0
  7  8  2  0
  8  9  1  0
  9 10  2  0
 10 11  1  0
  5 12  2  0
 12  2  1  0
 11  7  1  0
A    1
 C1 
A    2
 C2 
A    3
 C3 
A    4
 S1 
A    5
 C4 
A    6
 O1 
A    7
 C5 
A    8
 C6 
A    9
 C7 
A   10
 C8 
A   11
 S2 
A   12
 N1 
M  END
>  <ref_pdb>  (16) 
x0051_0B

>  <ref_mols>  (16) 
x0969_1B,x0553_0B

>  <original SMILES>  (16) 
Cc1csc(Oc2cccs2)n1

>  <index>  (16) 
10

>  <LE>  (16) 
0.3238171209628522

>  <∆∆G>  (16) 
-3.8858054515542264

>  <percent_hybrid>  (16) 
0.0

>  <largest_ring>  (16) 
5

>  <N_rotatable_bonds>  (16) 
3

>  <UFF_Gibbs>  (16) 
25.25290015611695

>  <strain_per_HA>  (16) 
252529.00156116948

>  <N_PAINS>  (16) 
0

>  <N_interactions>  (16) 
1

>  <N_HA>  (16) 
12

>  <ad_hoc_penalty>  (16) 
252515.92383972573

>  <merger_rank>  (16) 
1

$$$$

     RDKit          3D

 18 21  0  0  0  0  0  0  0  0999 V2000
   -8.4560    4.9170  -18.3420 C   0  0  0  0  0  0  0  0  0  0  0  0
   -7.4550    5.9660  -18.4950 C   0  0  0  0  0  0  0  0  0  0  0  0
   -6.9850    6.6600  -17.2790 C   0  0  0  0  0  0  0  0  0  0  0  0
   -7.5340    6.2640  -16.0440 C   0  0  0  0  0  0  0  0  0  0  0  0
   -7.2010    6.8740  -14.4660 S   0  0  0  0  0  0  0  0  0  0  0  0
   -8.2970    5.7400  -13.7740 C   0  0  0  0  0  0  0  0  0  0  0  0
   -8.4990    5.6060  -12.4150 C   0  0  0  0  0  0  0  0  0  0  0  0
   -8.4550    6.7600  -11.5870 C   0  0  0  0  0  0  0  0  0  0  0  0
   -8.6090    6.7750  -10.2280 N   0  0  0  0  0  0  0  0  0  0  0  0
   -8.8150    5.5440   -9.6830 C   0  0  0  0  0  0  0  0  0  0  0  0
   -9.0020    5.1390   -8.3440 C   0  0  0  0  0  0  0  0  0  0  0  0
   -9.1680    3.7660   -8.3720 C   0  0  0  0  0  0  0  0  0  0  0  0
   -9.0940    3.3020   -9.6450 O   0  0  0  0  0  0  0  0  0  0  0  0
   -8.8770    4.3810  -10.4370 C   0  0  0  0  0  0  0  0  0  0  0  0
   -8.7290    4.3630  -11.8110 C   0  0  0  0  0  0  0  0  0  0  0  0
   -8.9010    4.9800  -14.6550 N   0  0  0  0  0  0  0  0  0  0  0  0
   -8.4900    5.2470  -15.9370 C   0  0  0  0  0  0  0  0  0  0  0  0
   -8.9550    4.5740  -17.0910 C   0  0  0  0  0  0  0  0  0  0  0  0
  1  2  2  0
  2  3  1  0
  3  4  2  0
  4  5  1  0
  5  6  1  0
  6  7  1  0
  7  8  2  0
  8  9  1  0
  9 10  2  0
 10 11  1  0
 11 12  2  0
 12 13  1  0
 13 14  1  0
 14 15  2  0
  6 16  2  0
 16 17  1  0
 17 18  2  0
 18  1  1  0
 17  4  1  0
 15  7  1  0
 14 10  1  0
A    1
 C1 
A    2
 C2 
A    3
 C3 
A    4
 C4 
A    5
 S1 
A    6
 C5 
A    7
 C6 
A    8
 C7 
A    9
 N1 
A   10
 C8 
A   11
 C9 
A   12
 C10
A   13
 O1 
A   14
 C11
A   15
 C12
A   16
 N2 
A   17
 C13
A   18
 C14
M  END
>  <ref_pdb>  (17) 
x0051_0B

>  <ref_mols>  (17) 
x0404_0B,x0969_0B

>  <original SMILES>  (17) 
c1ccc2sc(-c3cnc4ccoc4c3)nc2c1

>  <index>  (17) 
11

>  <LE>  (17) 
0.2757422248634138

>  <∆∆G>  (17) 
-4.963360047541449

>  <percent_hybrid>  (17) 
0.0

>  <largest_ring>  (17) 
6

>  <N_rotatable_bonds>  (17) 
1

>  <UFF_Gibbs>  (17) 
25.351063162650618

>  <strain_per_HA>  (17) 
253510.63162650616

>  <N_PAINS>  (17) 
0

>  <N_interactions>  (17) 
5

>  <N_HA>  (17) 
18

>  <ad_hoc_penalty>  (17) 
253457.1412512838

>  <merger_rank>  (17) 
1

$$$$

     RDKit          3D

 12 13  0  0  0  0  0  0  0  0999 V2000
   -8.9350    5.0420   -9.2310 C   0  0  0  0  0  0  0  0  0  0  0  0
   -8.7100    4.5860  -10.6220 C   0  0  0  0  0  0  0  0  0  0  0  0
   -8.7530    3.2890  -11.0570 C   0  0  0  0  0  0  0  0  0  0  0  0
   -8.4100    3.2480  -12.7280 S   0  0  0  0  0  0  0  0  0  0  0  0
   -8.2400    4.9590  -12.7950 C   0  0  0  0  0  0  0  0  0  0  0  0
   -7.9460    5.5290  -14.0100 N   0  0  0  0  0  0  0  0  0  0  0  0
   -8.4850    5.2670  -15.2420 C   0  0  0  0  0  0  0  0  0  0  0  0
   -9.7260    4.9470  -15.5250 N   0  0  0  0  0  0  0  0  0  0  0  0
   -9.9130    4.7480  -16.8790 C   0  0  0  0  0  0  0  0  0  0  0  0
   -8.7980    4.9210  -17.6600 C   0  0  0  0  0  0  0  0  0  0  0  0
   -7.4760    5.3480  -16.6580 S   0  0  0  0  0  0  0  0  0  0  0  0
   -8.4200    5.5280  -11.6110 N   0  0  0  0  0  0  0  0  0  0  0  0
  1  2  1  0
  2  3  2  0
  3  4  1  0
  4  5  1  0
  5  6  1  0
  6  7  1  0
  7  8  2  0
  8  9  1  0
  9 10  2  0
 10 11  1  0
  5 12  2  0
 12  2  1  0
 11  7  1  0
A    1
 C1 
A    2
 C2 
A    3
 C3 
A    4
 S1 
A    5
 C4 
A    6
 N1 
A    7
 C5 
A    8
 N2 
A    9
 C6 
A   10
 C7 
A   11
 S2 
A   12
 N3 
M  END
>  <ref_pdb>  (18) 
x0051_0B

>  <ref_mols>  (18) 
x0969_1B,x0553_0B

>  <original SMILES>  (18) 
Cc1csc(Nc2nccs2)n1

>  <index>  (18) 
12

>  <LE>  (18) 
0.35729087142242943

>  <∆∆G>  (18) 
-4.287490457069153

>  <percent_hybrid>  (18) 
0.0

>  <largest_ring>  (18) 
5

>  <N_rotatable_bonds>  (18) 
3

>  <UFF_Gibbs>  (18) 
25.495220280468246

>  <strain_per_HA>  (18) 
254952.20280468246

>  <N_PAINS>  (18) 
0

>  <N_interactions>  (18) 
2

>  <N_HA>  (18) 
12

>  <ad_hoc_penalty>  (18) 
254930.0027283922

>  <merger_rank>  (18) 
1

$$$$

     RDKit          3D

 13 14  0  0  0  0  0  0  0  0999 V2000
   -8.9670    4.8280   -8.4980 C   0  0  0  0  0  0  0  0  0  0  0  0
   -9.5730    3.5720   -9.6410 S   0  0  0  0  0  0  0  0  0  0  0  0
   -8.9490    4.2090  -11.1380 C   0  0  0  0  0  0  0  0  0  0  0  0
   -8.8070    5.4910  -11.3780 N   0  0  0  0  0  0  0  0  0  0  0  0
   -8.2780    5.7360  -12.6320 N   0  0  0  0  0  0  0  0  0  0  0  0
   -8.0410    4.6280  -13.2930 C   0  0  0  0  0  0  0  0  0  0  0  0
   -7.4520    4.5570  -14.6680 C   0  0  0  0  0  0  0  0  0  0  0  0
   -8.4060    4.7000  -15.8060 C   0  0  0  0  0  0  0  0  0  0  0  0
   -8.0540    4.5710  -17.0600 N   0  0  0  0  0  0  0  0  0  0  0  0
   -9.1090    4.7280  -17.9310 N   0  0  0  0  0  0  0  0  0  0  0  0
  -10.2300    4.9710  -17.3010 C   0  0  0  0  0  0  0  0  0  0  0  0
  -10.0780    5.0480  -15.5990 S   0  0  0  0  0  0  0  0  0  0  0  0
   -8.4570    3.2080  -12.4230 S   0  0  0  0  0  0  0  0  0  0  0  0
  1  2  1  0
  2  3  1  0
  3  4  2  0
  4  5  1  0
  5  6  2  0
  6  7  1  0
  7  8  1  0
  8  9  2  0
  9 10  1  0
 10 11  2  0
 11 12  1  0
  6 13  1  0
 13  3  1  0
 12  8  1  0
A    1
 C1 
A    2
 S1 
A    3
 C2 
A    4
 N1 
A    5
 N2 
A    6
 C3 
A    7
 C4 
A    8
 C5 
A    9
 N3 
A   10
 N4 
A   11
 C6 
A   12
 S2 
A   13
 S3 
M  END
>  <ref_pdb>  (19) 
x0051_0B

>  <ref_mols>  (19) 
x0969_1B,x0553_0B

>  <original SMILES>  (19) 
CSc1nnc(Cc2nncs2)s1

>  <index>  (19) 
13

>  <LE>  (19) 
0.315819058209889

>  <∆∆G>  (19) 
-4.1056477567285565

>  <percent_hybrid>  (19) 
0.0

>  <largest_ring>  (19) 
5

>  <N_rotatable_bonds>  (19) 
4

>  <UFF_Gibbs>  (19) 
25.75988647899814

>  <strain_per_HA>  (19) 
257598.8647899814

>  <N_PAINS>  (19) 
0

>  <N_interactions>  (19) 
0

>  <N_HA>  (19) 
13

>  <ad_hoc_penalty>  (19) 
257594.9478467112

>  <merger_rank>  (19) 
1

$$$$

     RDKit          3D

 13 15  0  0  0  0  0  0  0  0999 V2000
   -9.0660    3.9400   -8.8030 C   0  0  0  0  0  0  0  0  0  0  0  0
   -9.6250    2.8100   -9.3540 C   0  0  0  0  0  0  0  0  0  0  0  0
   -9.5570    2.9170  -11.0580 S   0  0  0  0  0  0  0  0  0  0  0  0
   -8.7940    4.4480  -10.9360 C   0  0  0  0  0  0  0  0  0  0  0  0
   -8.4220    5.1740  -12.1140 C   0  0  0  0  0  0  0  0  0  0  0  0
   -7.5040    6.1220  -12.1940 N   0  0  0  0  0  0  0  0  0  0  0  0
   -7.4770    6.5430  -13.5140 N   0  0  0  0  0  0  0  0  0  0  0  0
   -8.3820    5.8260  -14.1460 C   0  0  0  0  0  0  0  0  0  0  0  0
   -8.7530    5.9990  -15.8260 S   0  0  0  0  0  0  0  0  0  0  0  0
   -9.0910    4.4560  -16.6130 C   0  0  0  0  0  0  0  0  0  0  0  0
   -7.6440    4.7250  -16.6920 C   0  0  0  0  0  0  0  0  0  0  0  0
   -9.0090    4.9430  -13.3300 O   0  0  0  0  0  0  0  0  0  0  0  0
   -8.5920    4.8780   -9.7080 N   0  0  0  0  0  0  0  0  0  0  0  0
  1  2  2  0
  2  3  1  0
  3  4  1  0
  4  5  1  0
  5  6  2  0
  6  7  1  0
  7  8  2  0
  8  9  1  0
  9 10  1  0
 10 11  1  0
  8 12  1  0
  4 13  2  0
 13  1  1  0
 12  5  1  0
 11  9  1  0
A    1
 C1 
A    2
 C2 
A    3
 S1 
A    4
 C3 
A    5
 C4 
A    6
 N1 
A    7
 N2 
A    8
 C5 
A    9
 S2 
A   10
 C6 
A   11
 C7 
A   12
 O1 
A   13
 N3 
M  END
>  <ref_pdb>  (20) 
x0051_0B

>  <ref_mols>  (20) 
x0969_1B,x0553_0B

>  <original SMILES>  (20) 
c1csc(-c2nnc([SH]3CC3)o2)n1

>  <index>  (20) 
14

>  <LE>  (20) 
0.3216721216644291

>  <∆∆G>  (20) 
-4.181737581637578

>  <percent_hybrid>  (20) 
0.0

>  <largest_ring>  (20) 
5

>  <N_rotatable_bonds>  (20) 
2

>  <UFF_Gibbs>  (20) 
25.95153133905488

>  <strain_per_HA>  (20) 
259515.3133905488

>  <N_PAINS>  (20) 
0

>  <N_interactions>  (20) 
1

>  <N_HA>  (20) 
13

>  <ad_hoc_penalty>  (20) 
259498.1478727148

>  <merger_rank>  (20) 
1

$$$$

     RDKit          3D

 13 14  0  0  0  0  0  0  0  0999 V2000
   -9.5790    4.9680   -7.8820 O   0  0  0  0  0  0  0  0  0  0  0  0
   -8.9120    5.1320   -8.8940 C   0  0  0  0  0  0  0  0  0  0  0  0
   -8.3610    4.1000   -9.7790 C   0  0  0  0  0  0  0  0  0  0  0  0
   -8.2720    4.5790  -11.1810 C   0  0  0  0  0  0  0  0  0  0  0  0
   -7.7080    5.6950  -11.5970 N   0  0  0  0  0  0  0  0  0  0  0  0
   -7.7990    5.8530  -12.9750 N   0  0  0  0  0  0  0  0  0  0  0  0
   -8.4270    4.8590  -13.5710 C   0  0  0  0  0  0  0  0  0  0  0  0
   -8.6480    4.8110  -15.0100 C   0  0  0  0  0  0  0  0  0  0  0  0
   -7.8160    4.6180  -16.1020 C   0  0  0  0  0  0  0  0  0  0  0  0
   -8.4720    4.6320  -17.3730 C   0  0  0  0  0  0  0  0  0  0  0  0
   -9.8110    4.8400  -17.2480 C   0  0  0  0  0  0  0  0  0  0  0  0
  -10.2390    5.0230  -15.6210 S   0  0  0  0  0  0  0  0  0  0  0  0
   -8.9340    3.6610  -12.4370 S   0  0  0  0  0  0  0  0  0  0  0  0
  1  2  2  0
  2  3  1  0
  3  4  1  0
  4  5  2  0
  5  6  1  0
  6  7  2  0
  7  8  1  0
  8  9  2  0
  9 10  1  0
 10 11  2  0
 11 12  1  0
  7 13  1  0
 13  4  1  0
 12  8  1  0
A    1
 O1 
A    2
 C1 
A    3
 C2 
A    4
 C3 
A    5
 N1 
A    6
 N2 
A    7
 C4 
A    8
 C5 
A    9
 C6 
A   10
 C7 
A   11
 C8 
A   12
 S1 
A   13
 S2 
M  END
>  <ref_pdb>  (21) 
x0051_0B

>  <ref_mols>  (21) 
x0969_1B,x0553_0B

>  <original SMILES>  (21) 
O=CCc1nnc(-c2cccs2)s1

>  <index>  (21) 
15

>  <LE>  (21) 
0.29193560379797334

>  <∆∆G>  (21) 
-3.7951628493736536

>  <percent_hybrid>  (21) 
0.0

>  <largest_ring>  (21) 
5

>  <N_rotatable_bonds>  (21) 
3

>  <UFF_Gibbs>  (21) 
26.159551245684952

>  <strain_per_HA>  (21) 
261595.5124568495

>  <N_PAINS>  (21) 
0

>  <N_interactions>  (21) 
3

>  <N_HA>  (21) 
13

>  <ad_hoc_penalty>  (21) 
261568.29029299872

>  <merger_rank>  (21) 
1

$$$$

     RDKit          3D

 12 13  0  0  0  0  0  0  0  0999 V2000
   -8.3260    4.5980  -13.6770 C   0  0  0  0  0  0  0  0  0  0  0  0
   -9.3500    4.6470  -12.8920 N   0  0  0  0  0  0  0  0  0  0  0  0
   -9.1860    4.3940  -11.5680 C   0  0  0  0  0  0  0  0  0  0  0  0
   -8.9060    5.2790  -10.5470 C   0  0  0  0  0  0  0  0  0  0  0  0
   -8.8150    4.6530   -9.2720 C   0  0  0  0  0  0  0  0  0  0  0  0
   -9.0420    3.2270   -9.3680 C   0  0  0  0  0  0  0  0  0  0  0  0
   -9.3430    2.7700  -10.9790 S   0  0  0  0  0  0  0  0  0  0  0  0
   -8.4850    4.8020  -15.0970 C   0  0  0  0  0  0  0  0  0  0  0  0
   -7.5950    5.1550  -16.0900 C   0  0  0  0  0  0  0  0  0  0  0  0
   -8.3290    5.1820  -17.3020 C   0  0  0  0  0  0  0  0  0  0  0  0
   -9.6160    4.8490  -16.9750 C   0  0  0  0  0  0  0  0  0  0  0  0
   -9.7170    4.6240  -15.6530 O   0  0  0  0  0  0  0  0  0  0  0  0
  1  2  2  3
  2  3  1  0
  3  4  2  0
  4  5  1  0
  5  6  2  0
  6  7  1  0
  1  8  1  0
  8  9  2  0
  9 10  1  0
 10 11  2  0
 11 12  1  0
  7  3  1  0
 12  8  1  0
A    1
 C1 
A    2
 N1 
A    3
 C2 
A    4
 C3 
A    5
 C4 
A    6
 C5 
A    7
 S1 
A    8
 C6 
A    9
 C7 
A   10
 C8 
A   11
 C9 
A   12
 O1 
M  END
>  <ref_pdb>  (22) 
x0051_0B

>  <ref_mols>  (22) 
x0969_1B,x0553_0B

>  <original SMILES>  (22) 
C(=Nc1cccs1)c1ccco1

>  <index>  (22) 
16

>  <LE>  (22) 
0.2544925888720981

>  <∆∆G>  (22) 
-3.053911066465177

>  <percent_hybrid>  (22) 
0.0

>  <largest_ring>  (22) 
5

>  <N_rotatable_bonds>  (22) 
2

>  <UFF_Gibbs>  (22) 
26.341987178180972

>  <strain_per_HA>  (22) 
263419.8717818097

>  <N_PAINS>  (22) 
0

>  <N_interactions>  (22) 
2

>  <N_HA>  (22) 
12

>  <ad_hoc_penalty>  (22) 
263398.37244369125

>  <merger_rank>  (22) 
1

$$$$

     RDKit          3D

 12 13  0  0  0  0  0  0  0  0999 V2000
   -9.1420    4.0490   -9.4380 C   0  0  0  0  0  0  0  0  0  0  0  0
   -8.8390    4.6040  -10.7730 C   0  0  0  0  0  0  0  0  0  0  0  0
   -9.2010    4.0730  -12.0150 C   0  0  0  0  0  0  0  0  0  0  0  0
   -8.6860    4.9480  -12.9460 C   0  0  0  0  0  0  0  0  0  0  0  0
   -8.6950    4.9880  -14.4000 C   0  0  0  0  0  0  0  0  0  0  0  0
   -7.5390    5.0010  -15.1530 C   0  0  0  0  0  0  0  0  0  0  0  0
   -7.5330    5.0170  -16.5100 N   0  0  0  0  0  0  0  0  0  0  0  0
   -8.7510    5.0140  -17.0920 C   0  0  0  0  0  0  0  0  0  0  0  0
   -9.9130    5.0070  -16.3530 C   0  0  0  0  0  0  0  0  0  0  0  0
   -9.9040    5.0010  -15.0050 N   0  0  0  0  0  0  0  0  0  0  0  0
   -8.0470    5.9550  -12.2810 O   0  0  0  0  0  0  0  0  0  0  0  0
   -8.1420    5.7360  -10.9120 N   0  0  0  0  0  0  0  0  0  0  0  0
  1  2  1  0
  2  3  1  0
  3  4  2  0
  4  5  1  0
  5  6  2  0
  6  7  1  0
  7  8  2  0
  8  9  1  0
  9 10  2  0
  4 11  1  0
 11 12  1  0
 12  2  2  0
 10  5  1  0
A    1
 C1 
A    2
 C2 
A    3
 C3 
A    4
 C4 
A    5
 C5 
A    6
 C6 
A    7
 N1 
A    8
 C7 
A    9
 C8 
A   10
 N2 
A   11
 O1 
A   12
 N3 
M  END
>  <ref_pdb>  (23) 
x0051_0B

>  <ref_mols>  (23) 
x0969_1B,x0553_0B

>  <original SMILES>  (23) 
Cc1cc(-c2cnccn2)on1

>  <index>  (23) 
17

>  <LE>  (23) 
0.2774044650561472

>  <∆∆G>  (23) 
-3.328853580673766

>  <percent_hybrid>  (23) 
0.0

>  <largest_ring>  (23) 
6

>  <N_rotatable_bonds>  (23) 
2

>  <UFF_Gibbs>  (23) 
26.476699842082517

>  <strain_per_HA>  (23) 
264766.99842082517

>  <N_PAINS>  (23) 
0

>  <N_interactions>  (23) 
1

>  <N_HA>  (23) 
12

>  <ad_hoc_penalty>  (23) 
264751.6945602532

>  <merger_rank>  (23) 
1

$$$$

     RDKit          3D

 18 21  0  0  0  0  0  0  0  0999 V2000
   -8.9660    5.2670   -8.2470 C   0  0  0  0  0  0  0  0  0  0  0  0
   -9.2150    3.9980   -8.7160 C   0  0  0  0  0  0  0  0  0  0  0  0
   -9.0810    4.0280  -10.0730 N   0  0  0  0  0  0  0  0  0  0  0  0
   -8.7460    5.2940  -10.5030 C   0  0  0  0  0  0  0  0  0  0  0  0
   -8.5290    5.5670  -11.9160 C   0  0  0  0  0  0  0  0  0  0  0  0
   -7.6670    6.5800  -12.1930 N   0  0  0  0  0  0  0  0  0  0  0  0
   -7.3370    6.8640  -13.4490 N   0  0  0  0  0  0  0  0  0  0  0  0
   -7.9000    6.0830  -14.4020 C   0  0  0  0  0  0  0  0  0  0  0  0
   -8.7960    5.0930  -14.0470 C   0  0  0  0  0  0  0  0  0  0  0  0
   -9.1750    4.7730  -12.7930 N   0  0  0  0  0  0  0  0  0  0  0  0
   -9.2410    4.4670  -15.1660 O   0  0  0  0  0  0  0  0  0  0  0  0
   -8.6160    5.0250  -16.2250 C   0  0  0  0  0  0  0  0  0  0  0  0
   -8.7990    4.6400  -17.5460 C   0  0  0  0  0  0  0  0  0  0  0  0
   -8.0530    5.3210  -18.5000 C   0  0  0  0  0  0  0  0  0  0  0  0
   -7.1730    6.3390  -18.1350 C   0  0  0  0  0  0  0  0  0  0  0  0
   -7.0170    6.7080  -16.7920 C   0  0  0  0  0  0  0  0  0  0  0  0
   -7.7600    6.0330  -15.8120 C   0  0  0  0  0  0  0  0  0  0  0  0
   -8.6720    6.0830   -9.3720 C   0  0  0  0  0  0  0  0  0  0  0  0
  1  2  2  0
  2  3  1  0
  3  4  1  0
  4  5  1  0
  5  6  2  0
  6  7  1  0
  7  8  2  0
  8  9  1  0
  9 10  2  0
  9 11  1  0
 11 12  1  0
 12 13  2  0
 13 14  1  0
 14 15  2  0
 15 16  1  0
 16 17  2  0
  4 18  2  0
 18  1  1  0
 10  5  1  0
 17 12  1  0
 17  8  1  0
A    1
 C1 
A    2
 C2 
A    3
 N1 
A    4
 C3 
A    5
 C4 
A    6
 N2 
A    7
 N3 
A    8
 C5 
A    9
 C6 
A   10
 N4 
A   11
 O1 
A   12
 C7 
A   13
 C8 
A   14
 C9 
A   15
 C10
A   16
 C11
A   17
 C12
A   18
 C13
M  END
>  <ref_pdb>  (24) 
x0051_0B

>  <ref_mols>  (24) 
x0404_0B,x0969_0B

>  <original SMILES>  (24) 
c1c[nH]c(-c2nnc3c(n2)oc2ccccc23)c1

>  <index>  (24) 
18

>  <LE>  (24) 
0.22674599791549854

>  <∆∆G>  (24) 
-4.0814279624789735

>  <percent_hybrid>  (24) 
0.0

>  <largest_ring>  (24) 
6

>  <N_rotatable_bonds>  (24) 
1

>  <UFF_Gibbs>  (24) 
26.493599035713984

>  <strain_per_HA>  (24) 
264935.99035713985

>  <N_PAINS>  (24) 
0

>  <N_interactions>  (24) 
4

>  <N_HA>  (24) 
18

>  <ad_hoc_penalty>  (24) 
264890.98261594074

>  <merger_rank>  (24) 
1

$$$$

     RDKit          3D

 13 14  0  0  0  0  0  0  0  0999 V2000
  -10.0860    4.8490  -17.0760 N   0  0  0  0  0  0  0  0  0  0  0  0
   -8.8240    5.2600  -16.7330 C   0  0  0  0  0  0  0  0  0  0  0  0
   -8.0850    5.7100  -17.6010 O   0  0  0  0  0  0  0  0  0  0  0  0
   -8.4630    5.0860  -15.3490 C   0  0  0  0  0  0  0  0  0  0  0  0
   -7.2380    4.8780  -14.7670 C   0  0  0  0  0  0  0  0  0  0  0  0
   -7.2370    4.6960  -13.3960 N   0  0  0  0  0  0  0  0  0  0  0  0
   -8.4670    4.7610  -12.9230 C   0  0  0  0  0  0  0  0  0  0  0  0
   -8.7400    4.5250  -11.5160 C   0  0  0  0  0  0  0  0  0  0  0  0
   -8.5080    5.3510  -10.4290 C   0  0  0  0  0  0  0  0  0  0  0  0
   -8.9040    4.7640   -9.1840 C   0  0  0  0  0  0  0  0  0  0  0  0
   -9.4290    3.5030   -9.3510 C   0  0  0  0  0  0  0  0  0  0  0  0
   -9.4380    3.0440  -10.9890 S   0  0  0  0  0  0  0  0  0  0  0  0
   -9.6540    5.1040  -14.1200 S   0  0  0  0  0  0  0  0  0  0  0  0
  1  2  1  0
  2  3  2  0
  2  4  1  0
  4  5  2  0
  5  6  1  0
  6  7  2  0
  7  8  1  0
  8  9  2  0
  9 10  1  0
 10 11  2  0
 11 12  1  0
  7 13  1  0
 13  4  1  0
 12  8  1  0
A    1
 N1 
A    2
 C1 
A    3
 O1 
A    4
 C2 
A    5
 C3 
A    6
 N2 
A    7
 C4 
A    8
 C5 
A    9
 C6 
A   10
 C7 
A   11
 C8 
A   12
 S1 
A   13
 S2 
M  END
>  <ref_pdb>  (25) 
x0051_0B

>  <ref_mols>  (25) 
x0969_1B,x0553_0B

>  <original SMILES>  (25) 
NC(=O)c1cnc(-c2cccs2)s1

>  <index>  (25) 
19

>  <LE>  (25) 
0.2811890604400035

>  <∆∆G>  (25) 
-3.655457785720046

>  <percent_hybrid>  (25) 
0.0

>  <largest_ring>  (25) 
5

>  <N_rotatable_bonds>  (25) 
2

>  <UFF_Gibbs>  (25) 
28.272989779994674

>  <strain_per_HA>  (25) 
282729.8977999467

>  <N_PAINS>  (25) 
0

>  <N_interactions>  (25) 
4

>  <N_HA>  (25) 
13

>  <ad_hoc_penalty>  (25) 
282688.4859160906

>  <merger_rank>  (25) 
1

$$$$

     RDKit          3D

 16 18  0  0  0  0  0  0  0  0999 V2000
   -6.4620    6.1970  -17.9530 C   0  0  0  0  0  0  0  0  0  0  0  0
   -7.3570    5.8900  -16.8180 C   0  0  0  0  0  0  0  0  0  0  0  0
   -8.6030    5.5030  -17.0350 C   0  0  0  0  0  0  0  0  0  0  0  0
   -9.5260    5.1880  -15.9680 C   0  0  0  0  0  0  0  0  0  0  0  0
   -9.0630    5.2860  -14.6690 C   0  0  0  0  0  0  0  0  0  0  0  0
   -9.6710    5.0400  -13.4760 N   0  0  0  0  0  0  0  0  0  0  0  0
   -8.7200    5.2550  -12.5900 C   0  0  0  0  0  0  0  0  0  0  0  0
   -8.7960    5.0560  -11.2250 C   0  0  0  0  0  0  0  0  0  0  0  0
   -8.3020    5.9180  -10.2540 C   0  0  0  0  0  0  0  0  0  0  0  0
   -8.4470    5.5450   -8.9130 C   0  0  0  0  0  0  0  0  0  0  0  0
   -9.0750    4.3340   -8.5840 C   0  0  0  0  0  0  0  0  0  0  0  0
   -9.5340    3.5480   -9.6180 C   0  0  0  0  0  0  0  0  0  0  0  0
   -9.4030    3.8860  -10.9100 N   0  0  0  0  0  0  0  0  0  0  0  0
   -7.5250    5.6840  -13.1280 O   0  0  0  0  0  0  0  0  0  0  0  0
   -7.7630    5.6830  -14.4720 C   0  0  0  0  0  0  0  0  0  0  0  0
   -6.8780    6.0030  -15.4920 C   0  0  0  0  0  0  0  0  0  0  0  0
  1  2  1  0
  2  3  2  0
  3  4  1  0
  4  5  2  0
  5  6  1  0
  6  7  2  0
  7  8  1  0
  8  9  2  0
  9 10  1  0
 10 11  2  0
 11 12  1  0
 12 13  2  0
  7 14  1  0
 14 15  1  0
 15 16  2  0
 16  2  1  0
 15  5  1  0
 13  8  1  0
A    1
 C1 
A    2
 C2 
A    3
 C3 
A    4
 C4 
A    5
 C5 
A    6
 N1 
A    7
 C6 
A    8
 C7 
A    9
 C8 
A   10
 C9 
A   11
 C10
A   12
 C11
A   13
 N2 
A   14
 O1 
A   15
 C12
A   16
 C13
M  END
>  <ref_pdb>  (26) 
x0051_0B

>  <ref_mols>  (26) 
x0404_0B,x0969_0B

>  <original SMILES>  (26) 
Cc1ccc2nc(-c3ccccn3)oc2c1

>  <index>  (26) 
20

>  <LE>  (26) 
0.2514314640840502

>  <∆∆G>  (26) 
-4.022903425344803

>  <percent_hybrid>  (26) 
0.0

>  <largest_ring>  (26) 
6

>  <N_rotatable_bonds>  (26) 
2

>  <UFF_Gibbs>  (26) 
28.4249604846418

>  <strain_per_HA>  (26) 
284249.604846418

>  <N_PAINS>  (26) 
0

>  <N_interactions>  (26) 
4

>  <N_HA>  (26) 
16

>  <ad_hoc_penalty>  (26) 
284204.08303498843

>  <merger_rank>  (26) 
1

$$$$

     RDKit          3D

 14 15  0  0  0  0  0  0  0  0999 V2000
   -8.9300    4.8160   -8.2500 C   0  0  0  0  0  0  0  0  0  0  0  0
   -7.5120    5.0610   -9.3420 S   0  0  0  0  0  0  0  0  0  0  0  0
   -8.3220    4.8000  -10.8560 C   0  0  0  0  0  0  0  0  0  0  0  0
   -9.1960    3.8490  -10.9980 N   0  0  0  0  0  0  0  0  0  0  0  0
   -9.7180    3.8370  -12.2610 N   0  0  0  0  0  0  0  0  0  0  0  0
   -9.2280    4.7770  -13.0290 C   0  0  0  0  0  0  0  0  0  0  0  0
   -9.6650    4.9030  -14.2800 O   0  0  0  0  0  0  0  0  0  0  0  0
   -8.8760    4.8800  -15.3960 C   0  0  0  0  0  0  0  0  0  0  0  0
   -9.5250    4.7430  -16.6710 C   0  0  0  0  0  0  0  0  0  0  0  0
   -8.7290    4.7340  -17.7810 C   0  0  0  0  0  0  0  0  0  0  0  0
   -7.3920    4.8480  -17.6600 N   0  0  0  0  0  0  0  0  0  0  0  0
   -6.8520    4.9650  -16.4540 N   0  0  0  0  0  0  0  0  0  0  0  0
   -7.5400    4.9850  -15.3300 N   0  0  0  0  0  0  0  0  0  0  0  0
   -8.0530    5.7510  -12.2510 S   0  0  0  0  0  0  0  0  0  0  0  0
  1  2  1  0
  2  3  1  0
  3  4  2  0
  4  5  1  0
  5  6  2  0
  6  7  1  0
  7  8  1  0
  8  9  2  0
  9 10  1  0
 10 11  2  0
 11 12  1  0
 12 13  2  0
  6 14  1  0
 14  3  1  0
 13  8  1  0
A    1
 C1 
A    2
 S1 
A    3
 C2 
A    4
 N1 
A    5
 N2 
A    6
 C3 
A    7
 O1 
A    8
 C4 
A    9
 C5 
A   10
 C6 
A   11
 N3 
A   12
 N4 
A   13
 N5 
A   14
 S2 
M  END
>  <ref_pdb>  (27) 
x0051_0B

>  <ref_mols>  (27) 
x0969_1B,x0553_0B

>  <original SMILES>  (27) 
CSc1nnc(Oc2ccnnn2)s1

>  <index>  (27) 
21

>  <LE>  (27) 
0.14467900986621005

>  <∆∆G>  (27) 
-2.0255061381269406

>  <percent_hybrid>  (27) 
0.0

>  <largest_ring>  (27) 
6

>  <N_rotatable_bonds>  (27) 
4

>  <UFF_Gibbs>  (27) 
29.48469445759296

>  <strain_per_HA>  (27) 
294846.94457592955

>  <N_PAINS>  (27) 
0

>  <N_interactions>  (27) 
0

>  <N_HA>  (27) 
14

>  <ad_hoc_penalty>  (27) 
294849.0680575152

>  <merger_rank>  (27) 
1

$$$$

     RDKit          3D

 12 13  0  0  0  0  0  0  0  0999 V2000
   -9.2240    4.7790  -17.1480 C   0  0  0  0  0  0  0  0  0  0  0  0
   -8.6280    5.0100  -15.8090 C   0  0  0  0  0  0  0  0  0  0  0  0
   -7.4520    5.5990  -15.6100 N   0  0  0  0  0  0  0  0  0  0  0  0
   -7.3600    5.5680  -14.2110 O   0  0  0  0  0  0  0  0  0  0  0  0
   -8.5000    4.9580  -13.7290 C   0  0  0  0  0  0  0  0  0  0  0  0
   -8.6130    4.8260  -12.3400 C   0  0  0  0  0  0  0  0  0  0  0  0
   -9.2720    3.7020  -11.7790 C   0  0  0  0  0  0  0  0  0  0  0  0
   -9.3550    3.6440  -10.3850 C   0  0  0  0  0  0  0  0  0  0  0  0
   -8.8140    4.6380   -9.6200 C   0  0  0  0  0  0  0  0  0  0  0  0
   -8.1860    5.6950  -10.2510 C   0  0  0  0  0  0  0  0  0  0  0  0
   -8.0720    5.8130  -11.5890 N   0  0  0  0  0  0  0  0  0  0  0  0
   -9.3130    4.5990  -14.6990 N   0  0  0  0  0  0  0  0  0  0  0  0
  1  2  1  0
  2  3  2  0
  3  4  1  0
  4  5  1  0
  5  6  1  0
  6  7  2  0
  7  8  1  0
  8  9  2  0
  9 10  1  0
 10 11  2  0
  5 12  2  0
 12  2  1  0
 11  6  1  0
A    1
 C1 
A    2
 C2 
A    3
 N1 
A    4
 O1 
A    5
 C3 
A    6
 C4 
A    7
 C5 
A    8
 C6 
A    9
 C7 
A   10
 C8 
A   11
 N2 
A   12
 N3 
M  END
>  <ref_pdb>  (28) 
x0051_0B

>  <ref_mols>  (28) 
x0969_1B,x0553_0B

>  <original SMILES>  (28) 
Cc1noc(-c2ccccn2)n1

>  <index>  (28) 
22

>  <LE>  (28) 
0.3157291053865155

>  <∆∆G>  (28) 
-3.788749264638186

>  <percent_hybrid>  (28) 
0.0

>  <largest_ring>  (28) 
6

>  <N_rotatable_bonds>  (28) 
2

>  <UFF_Gibbs>  (28) 
29.760570276546396

>  <strain_per_HA>  (28) 
297605.70276546397

>  <N_PAINS>  (28) 
0

>  <N_interactions>  (28) 
3

>  <N_HA>  (28) 
12

>  <ad_hoc_penalty>  (28) 
297569.9278449391

>  <merger_rank>  (28) 
1

$$$$

     RDKit          3D

 12 13  0  0  0  0  0  0  0  0999 V2000
   -9.4160    4.5910   -9.2600 N   0  0  0  0  0  0  0  0  0  0  0  0
   -8.2570    3.8410   -9.6850 C   0  0  0  0  0  0  0  0  0  0  0  0
   -8.7250    2.8870  -11.1300 S   0  0  0  0  0  0  0  0  0  0  0  0
   -8.4460    4.0520  -12.4530 C   0  0  0  0  0  0  0  0  0  0  0  0
   -8.2100    5.3710  -12.2280 N   0  0  0  0  0  0  0  0  0  0  0  0
   -8.0200    6.2100  -13.2700 N   0  0  0  0  0  0  0  0  0  0  0  0
   -8.1020    5.6630  -14.5140 C   0  0  0  0  0  0  0  0  0  0  0  0
   -7.9770    6.1710  -15.8180 C   0  0  0  0  0  0  0  0  0  0  0  0
   -8.1820    5.1340  -16.7090 C   0  0  0  0  0  0  0  0  0  0  0  0
   -8.4080    4.0290  -15.9660 N   0  0  0  0  0  0  0  0  0  0  0  0
   -8.3490    4.3360  -14.6480 C   0  0  0  0  0  0  0  0  0  0  0  0
   -8.5050    3.4810  -13.6540 N   0  0  0  0  0  0  0  0  0  0  0  0
  1  2  1  0
  2  3  1  0
  3  4  1  0
  4  5  2  0
  5  6  1  0
  6  7  2  0
  7  8  1  0
  8  9  2  0
  9 10  1  0
 10 11  1  0
 11 12  2  0
 12  4  1  0
 11  7  1  0
A    1
 N1 
A    2
 C1 
A    3
 S1 
A    4
 C2 
A    5
 N2 
A    6
 N3 
A    7
 C3 
A    8
 C4 
A    9
 C5 
A   10
 N4 
A   11
 C6 
A   12
 N5 
M  END
>  <ref_pdb>  (29) 
x0051_0B

>  <ref_mols>  (29) 
x0969_1B,x0553_0B

>  <original SMILES>  (29) 
NCSc1nnc2cc[nH]c2n1

>  <index>  (29) 
23

>  <LE>  (29) 
0.09294396831996891

>  <∆∆G>  (29) 
-1.115327619839627

>  <percent_hybrid>  (29) 
0.0

>  <largest_ring>  (29) 
6

>  <N_rotatable_bonds>  (29) 
3

>  <UFF_Gibbs>  (29) 
30.304012197452757

>  <strain_per_HA>  (29) 
303040.12197452754

>  <N_PAINS>  (29) 
0

>  <N_interactions>  (29) 
1

>  <N_HA>  (29) 
12

>  <ad_hoc_penalty>  (29) 
303034.13156324544

>  <merger_rank>  (29) 
1

$$$$

     RDKit          3D

 11 11  0  0  0  0  0  0  0  0999 V2000
   -9.2610    3.6800   -9.1340 C   0  0  0  0  0  0  0  0  0  0  0  0
   -9.3120    3.9320  -10.4860 C   0  0  0  0  0  0  0  0  0  0  0  0
   -8.8780    5.0110  -11.1030 N   0  0  0  0  0  0  0  0  0  0  0  0
   -9.0200    5.1230  -12.4570 C   0  0  0  0  0  0  0  0  0  0  0  0
   -9.9210    5.8410  -13.0990 N   0  0  0  0  0  0  0  0  0  0  0  0
   -9.8190    5.7690  -14.4440 N   0  0  0  0  0  0  0  0  0  0  0  0
   -8.8300    4.9910  -14.8570 C   0  0  0  0  0  0  0  0  0  0  0  0
   -8.5850    4.8150  -16.1530 C   0  0  0  0  0  0  0  0  0  0  0  0
   -9.3460    4.5850  -17.4460 C   0  0  0  0  0  0  0  0  0  0  0  0
   -7.1570    4.9620  -15.9310 N   0  0  0  0  0  0  0  0  0  0  0  0
   -7.9310    4.2620  -13.5020 S   0  0  0  0  0  0  0  0  0  0  0  0
  1  2  1  0
  2  3  2  3
  3  4  1  0
  4  5  2  0
  5  6  1  0
  6  7  2  0
  7  8  1  0
  8  9  1  0
  8 10  2  3
  7 11  1  0
 11  4  1  0
A    1
 C1 
A    2
 C2 
A    3
 N1 
A    4
 C3 
A    5
 N2 
A    6
 N3 
A    7
 C4 
A    8
 C5 
A    9
 C6 
A   10
 N4 
A   11
 S1 
M  END
>  <ref_pdb>  (30) 
x0051_0B

>  <ref_mols>  (30) 
x0969_1B,x0553_0B

>  <original SMILES>  (30) 
CC=Nc1nnc(C(C)=N)s1

>  <index>  (30) 
127

>  <LE>  (30) 
0.38413903358222734

>  <∆∆G>  (30) 
-4.225529369404501

>  <percent_hybrid>  (30) 
0.0

>  <largest_ring>  (30) 
5

>  <N_rotatable_bonds>  (30) 
4

>  <UFF_Gibbs>  (30) 
308.50129348619106

>  <strain_per_HA>  (30) 
3085012.9348619105

>  <N_PAINS>  (30) 
0

>  <N_interactions>  (30) 
3

>  <N_HA>  (30) 
11

>  <ad_hoc_penalty>  (30) 
3084979.994584193

>  <merger_rank>  (30) 
1

$$$$

     RDKit          3D

 12 13  0  0  0  0  0  0  0  0999 V2000
   -8.7660    4.9420   -9.0250 C   0  0  0  0  0  0  0  0  0  0  0  0
   -8.9150    4.6550  -10.4300 C   0  0  0  0  0  0  0  0  0  0  0  0
   -8.4390    5.3250  -11.5540 C   0  0  0  0  0  0  0  0  0  0  0  0
   -8.8770    4.5910  -12.6460 C   0  0  0  0  0  0  0  0  0  0  0  0
   -8.6670    4.7920  -14.0810 C   0  0  0  0  0  0  0  0  0  0  0  0
   -7.4500    4.8140  -14.5800 N   0  0  0  0  0  0  0  0  0  0  0  0
   -7.4270    4.9360  -15.9520 N   0  0  0  0  0  0  0  0  0  0  0  0
   -8.6560    5.0050  -16.4720 C   0  0  0  0  0  0  0  0  0  0  0  0
   -8.9490    5.0780  -17.8720 C   0  0  0  0  0  0  0  0  0  0  0  0
   -9.8930    4.9810  -15.2890 S   0  0  0  0  0  0  0  0  0  0  0  0
   -9.5830    3.5470  -12.1280 O   0  0  0  0  0  0  0  0  0  0  0  0
   -9.6100    3.5790  -10.7630 N   0  0  0  0  0  0  0  0  0  0  0  0
  1  2  1  0
  2  3  1  0
  3  4  2  0
  4  5  1  0
  5  6  2  0
  6  7  1  0
  7  8  2  0
  8  9  1  0
  8 10  1  0
  4 11  1  0
 11 12  1  0
 12  2  2  0
 10  5  1  0
A    1
 C1 
A    2
 C2 
A    3
 C3 
A    4
 C4 
A    5
 C5 
A    6
 N1 
A    7
 N2 
A    8
 C6 
A    9
 C7 
A   10
 S1 
A   11
 O1 
A   12
 N3 
M  END
>  <ref_pdb>  (31) 
x0051_0B

>  <ref_mols>  (31) 
x0969_1B,x0553_0B

>  <original SMILES>  (31) 
Cc1cc(-c2nnc(C)s2)on1

>  <index>  (31) 
24

>  <LE>  (31) 
0.24756334624806187

>  <∆∆G>  (31) 
-2.9707601549767424

>  <percent_hybrid>  (31) 
0.0

>  <largest_ring>  (31) 
5

>  <N_rotatable_bonds>  (31) 
3

>  <UFF_Gibbs>  (31) 
31.09147476369114

>  <strain_per_HA>  (31) 
310914.74763691134

>  <N_PAINS>  (31) 
0

>  <N_interactions>  (31) 
2

>  <N_HA>  (31) 
12

>  <ad_hoc_penalty>  (31) 
310892.1935012961

>  <merger_rank>  (31) 
1

$$$$

     RDKit          3D

 14 15  0  0  0  0  0  0  0  0999 V2000
   -9.4800    6.7990  -14.0780 C   0  0  0  0  0  0  0  0  0  0  0  0
   -8.4710    5.7510  -14.4860 C   0  0  0  0  0  0  0  0  0  0  0  0
   -7.9760    4.8860  -13.6630 N   0  0  0  0  0  0  0  0  0  0  0  0
   -8.3890    4.9250  -12.3320 C   0  0  0  0  0  0  0  0  0  0  0  0
   -8.5620    6.0580  -11.5450 C   0  0  0  0  0  0  0  0  0  0  0  0
   -8.9720    5.6010  -10.2750 C   0  0  0  0  0  0  0  0  0  0  0  0
   -9.0320    4.2290  -10.3340 N   0  0  0  0  0  0  0  0  0  0  0  0
   -9.4030    3.3400   -9.2560 C   0  0  0  0  0  0  0  0  0  0  0  0
   -8.6830    3.8110  -11.5850 C   0  0  0  0  0  0  0  0  0  0  0  0
   -7.9780    5.6540  -15.8750 C   0  0  0  0  0  0  0  0  0  0  0  0
   -8.5670    5.0060  -16.9590 C   0  0  0  0  0  0  0  0  0  0  0  0
   -7.8580    5.0800  -18.1470 C   0  0  0  0  0  0  0  0  0  0  0  0
   -6.6950    5.8000  -17.9900 C   0  0  0  0  0  0  0  0  0  0  0  0
   -6.5040    6.3680  -16.3860 S   0  0  0  0  0  0  0  0  0  0  0  0
  1  2  1  0
  2  3  2  3
  3  4  1  0
  4  5  1  0
  5  6  2  0
  6  7  1  0
  7  8  1  0
  7  9  1  0
  2 10  1  0
 10 11  2  0
 11 12  1  0
 12 13  2  0
 13 14  1  0
  9  4  2  0
 14 10  1  0
A    1
 C1 
A    2
 C2 
A    3
 N1 
A    4
 C3 
A    5
 C4 
A    6
 C5 
A    7
 N2 
A    8
 C6 
A    9
 C7 
A   10
 C8 
A   11
 C9 
A   12
 C10
A   13
 C11
A   14
 S1 
M  END
>  <ref_pdb>  (32) 
x0051_0B

>  <ref_mols>  (32) 
x0404_0B,x0969_0B

>  <original SMILES>  (32) 
CC(=Nc1ccn(C)c1)c1cccs1

>  <index>  (32) 
25

>  <LE>  (32) 
0.4430053088998193

>  <∆∆G>  (32) 
-6.20207432459747

>  <percent_hybrid>  (32) 
0.0

>  <largest_ring>  (32) 
5

>  <N_rotatable_bonds>  (32) 
4

>  <UFF_Gibbs>  (32) 
32.37474747165187

>  <strain_per_HA>  (32) 
323747.4747165187

>  <N_PAINS>  (32) 
0

>  <N_interactions>  (32) 
3

>  <N_HA>  (32) 
14

>  <ad_hoc_penalty>  (32) 
323713.26822612726

>  <merger_rank>  (32) 
1

$$$$

     RDKit          3D

 18 20  0  0  0  0  0  0  0  0999 V2000
   -9.2500    9.1800  -12.8010 Cl  0  0  0  0  0  0  0  0  0  0  0  0
   -8.9040    7.5080  -12.6080 C   0  0  0  0  0  0  0  0  0  0  0  0
   -9.1480    6.9260  -11.3830 N   0  0  0  0  0  0  0  0  0  0  0  0
   -8.8210    5.6500  -11.4320 C   0  0  0  0  0  0  0  0  0  0  0  0
   -8.9510    4.7710  -10.3100 C   0  0  0  0  0  0  0  0  0  0  0  0
   -9.0500    3.3880  -10.3230 C   0  0  0  0  0  0  0  0  0  0  0  0
   -9.1590    2.9580   -8.9860 C   0  0  0  0  0  0  0  0  0  0  0  0
   -9.1190    4.0970   -8.2210 C   0  0  0  0  0  0  0  0  0  0  0  0
   -8.9950    5.2000   -9.0050 O   0  0  0  0  0  0  0  0  0  0  0  0
   -8.2200    5.0870  -12.9280 S   0  0  0  0  0  0  0  0  0  0  0  0
   -8.3820    6.6650  -13.5810 C   0  0  0  0  0  0  0  0  0  0  0  0
   -8.0110    6.9130  -14.8600 N   0  0  0  0  0  0  0  0  0  0  0  0
   -7.9820    6.0730  -15.9970 C   0  0  0  0  0  0  0  0  0  0  0  0
   -8.9390    5.1100  -16.3110 C   0  0  0  0  0  0  0  0  0  0  0  0
   -8.7740    4.3790  -17.4770 C   0  0  0  0  0  0  0  0  0  0  0  0
   -7.7430    4.5440  -18.3260 N   0  0  0  0  0  0  0  0  0  0  0  0
   -6.8220    5.4650  -18.0030 C   0  0  0  0  0  0  0  0  0  0  0  0
   -6.9010    6.2420  -16.8670 C   0  0  0  0  0  0  0  0  0  0  0  0
  1  2  1  0
  2  3  1  0
  3  4  2  0
  4  5  1  0
  5  6  2  0
  6  7  1  0
  7  8  2  0
  8  9  1  0
  4 10  1  0
 10 11  1  0
 11 12  1  0
 12 13  1  0
 13 14  2  0
 14 15  1  0
 15 16  2  0
 16 17  1  0
 17 18  2  0
 11  2  2  0
 18 13  1  0
  9  5  1  0
A    1
CL1 
A    2
 C1 
A    3
 N1 
A    4
 C2 
A    5
 C3 
A    6
 C4 
A    7
 C5 
A    8
 C6 
A    9
 O1 
A   10
 S1 
A   11
 C7 
A   12
 N2 
A   13
 C8 
A   14
 C9 
A   15
 C10
A   16
 N3 
A   17
 C11
A   18
 C12
M  END
>  <ref_pdb>  (33) 
x0051_0B

>  <ref_mols>  (33) 
x0404_0B,x0969_0B

>  <original SMILES>  (33) 
Clc1nc(-c2ccco2)sc1Nc1ccncc1

>  <index>  (33) 
26

>  <LE>  (33) 
0.32473011414853276

>  <∆∆G>  (33) 
-5.845142054673589

>  <percent_hybrid>  (33) 
0.0

>  <largest_ring>  (33) 
6

>  <N_rotatable_bonds>  (33) 
3

>  <UFF_Gibbs>  (33) 
32.38194318134754

>  <strain_per_HA>  (33) 
323819.4318134754

>  <N_PAINS>  (33) 
0

>  <N_interactions>  (33) 
3

>  <N_HA>  (33) 
18

>  <ad_hoc_penalty>  (33) 
323785.1948160316

>  <merger_rank>  (33) 
1

$$$$

     RDKit          3D

 17 19  0  0  0  0  0  0  0  0999 V2000
   -9.1320    4.2710   -8.5270 C   0  0  0  0  0  0  0  0  0  0  0  0
   -9.2300    5.5340   -9.1910 O   0  0  0  0  0  0  0  0  0  0  0  0
   -9.0220    5.5030  -10.5400 C   0  0  0  0  0  0  0  0  0  0  0  0
   -8.2550    4.5730  -11.1990 C   0  0  0  0  0  0  0  0  0  0  0  0
   -8.1280    4.6440  -12.6030 C   0  0  0  0  0  0  0  0  0  0  0  0
   -8.7180    5.5740  -13.3600 C   0  0  0  0  0  0  0  0  0  0  0  0
   -8.5280    5.5260  -14.7590 C   0  0  0  0  0  0  0  0  0  0  0  0
   -9.6470    5.2840  -15.4910 N   0  0  0  0  0  0  0  0  0  0  0  0
   -9.5970    5.1790  -16.8510 N   0  0  0  0  0  0  0  0  0  0  0  0
   -8.3750    5.3370  -17.3950 C   0  0  0  0  0  0  0  0  0  0  0  0
   -8.0270    5.2880  -18.7060 N   0  0  0  0  0  0  0  0  0  0  0  0
   -6.7290    5.5000  -18.7170 C   0  0  0  0  0  0  0  0  0  0  0  0
   -6.2320    5.6890  -17.4520 N   0  0  0  0  0  0  0  0  0  0  0  0
   -7.2810    5.5870  -16.5900 C   0  0  0  0  0  0  0  0  0  0  0  0
   -7.2700    5.6990  -15.2530 N   0  0  0  0  0  0  0  0  0  0  0  0
   -9.4970    6.5320  -12.7000 C   0  0  0  0  0  0  0  0  0  0  0  0
   -9.6450    6.4980  -11.3050 C   0  0  0  0  0  0  0  0  0  0  0  0
  1  2  1  0
  2  3  1  0
  3  4  2  0
  4  5  1  0
  5  6  2  0
  6  7  1  0
  7  8  2  0
  8  9  1  0
  9 10  2  0
 10 11  1  0
 11 12  2  0
 12 13  1  0
 13 14  1  0
 14 15  2  0
  6 16  1  0
 16 17  2  0
 17  3  1  0
 15  7  1  0
 14 10  1  0
A    1
 C1 
A    2
 O1 
A    3
 C2 
A    4
 C3 
A    5
 C4 
A    6
 C5 
A    7
 C6 
A    8
 N1 
A    9
 N2 
A   10
 C7 
A   11
 N3 
A   12
 C8 
A   13
 N4 
A   14
 C9 
A   15
 N5 
A   16
 C10
A   17
 C11
M  END
>  <ref_pdb>  (34) 
x0051_0B

>  <ref_mols>  (34) 
x0404_0B,x0969_0B

>  <original SMILES>  (34) 
COc1ccc(-c2nnc3nc[nH]c3n2)cc1

>  <index>  (34) 
27

>  <LE>  (34) 
0.2243765675662919

>  <∆∆G>  (34) 
-3.8144016486269625

>  <percent_hybrid>  (34) 
0.0

>  <largest_ring>  (34) 
6

>  <N_rotatable_bonds>  (34) 
3

>  <UFF_Gibbs>  (34) 
32.56854265646116

>  <strain_per_HA>  (34) 
325685.4265646116

>  <N_PAINS>  (34) 
0

>  <N_interactions>  (34) 
3

>  <N_HA>  (34) 
17

>  <ad_hoc_penalty>  (34) 
325650.8059706095

>  <merger_rank>  (34) 
1

$$$$

     RDKit          3D

 13 14  0  0  0  0  0  0  0  0999 V2000
   -9.0700    4.6340  -17.8440 C   0  0  0  0  0  0  0  0  0  0  0  0
   -8.0440    5.6440  -16.7480 S   0  0  0  0  0  0  0  0  0  0  0  0
   -8.2780    4.8540  -15.2260 C   0  0  0  0  0  0  0  0  0  0  0  0
   -8.3960    3.5630  -15.0850 N   0  0  0  0  0  0  0  0  0  0  0  0
   -8.5450    3.3130  -13.7680 N   0  0  0  0  0  0  0  0  0  0  0  0
   -8.5310    4.4480  -13.1270 C   0  0  0  0  0  0  0  0  0  0  0  0
   -8.6630    4.6200  -11.7220 C   0  0  0  0  0  0  0  0  0  0  0  0
   -8.4190    5.8040  -11.1440 C   0  0  0  0  0  0  0  0  0  0  0  0
   -8.5160    6.0450   -9.8180 N   0  0  0  0  0  0  0  0  0  0  0  0
   -8.8950    4.9560   -9.1020 C   0  0  0  0  0  0  0  0  0  0  0  0
   -9.1530    3.7290   -9.6700 C   0  0  0  0  0  0  0  0  0  0  0  0
   -9.0390    3.5330  -11.0040 N   0  0  0  0  0  0  0  0  0  0  0  0
   -8.3560    5.4770  -14.0290 O   0  0  0  0  0  0  0  0  0  0  0  0
  1  2  1  0
  2  3  1  0
  3  4  2  0
  4  5  1  0
  5  6  2  0
  6  7  1  0
  7  8  2  0
  8  9  1  0
  9 10  2  0
 10 11  1  0
 11 12  2  0
  6 13  1  0
 13  3  1  0
 12  7  1  0
A    1
 C1 
A    2
 S1 
A    3
 C2 
A    4
 N1 
A    5
 N2 
A    6
 C3 
A    7
 C4 
A    8
 C5 
A    9
 N3 
A   10
 C6 
A   11
 C7 
A   12
 N4 
A   13
 O1 
M  END
>  <ref_pdb>  (35) 
x0051_0B

>  <ref_mols>  (35) 
x0969_1B,x0553_0B

>  <original SMILES>  (35) 
CSc1nnc(-c2cnccn2)o1

>  <index>  (35) 
28

>  <LE>  (35) 
0.26654310000455483

>  <∆∆G>  (35) 
-3.465060300059213

>  <percent_hybrid>  (35) 
0.0

>  <largest_ring>  (35) 
6

>  <N_rotatable_bonds>  (35) 
3

>  <UFF_Gibbs>  (35) 
32.890644745102925

>  <strain_per_HA>  (35) 
328906.44745102926

>  <N_PAINS>  (35) 
0

>  <N_interactions>  (35) 
1

>  <N_HA>  (35) 
13

>  <ad_hoc_penalty>  (35) 
328894.43196504

>  <merger_rank>  (35) 
1

$$$$

     RDKit          3D

 13 15  0  0  0  0  0  0  0  0999 V2000
   -9.4510    3.7140   -9.1920 C   0  0  0  0  0  0  0  0  0  0  0  0
   -8.9150    4.1430  -10.5000 C   0  0  0  0  0  0  0  0  0  0  0  0
   -9.6170    3.9510  -11.7120 N   0  0  0  0  0  0  0  0  0  0  0  0
   -8.7620    4.4670  -12.5380 C   0  0  0  0  0  0  0  0  0  0  0  0
   -7.7030    4.9060  -11.9010 N   0  0  0  0  0  0  0  0  0  0  0  0
   -7.7120    4.7440  -10.6110 N   0  0  0  0  0  0  0  0  0  0  0  0
   -7.0830    5.3400  -12.9940 N   0  0  0  0  0  0  0  0  0  0  0  0
   -8.1000    4.9290  -13.6870 C   0  0  0  0  0  0  0  0  0  0  0  0
   -8.5000    4.8900  -15.0370 C   0  0  0  0  0  0  0  0  0  0  0  0
   -9.7780    4.9080  -15.5310 C   0  0  0  0  0  0  0  0  0  0  0  0
   -9.6480    4.8510  -16.9500 C   0  0  0  0  0  0  0  0  0  0  0  0
   -8.2960    4.8080  -17.2320 C   0  0  0  0  0  0  0  0  0  0  0  0
   -7.5640    4.8290  -16.0890 O   0  0  0  0  0  0  0  0  0  0  0  0
  1  2  1  0
  2  3  1  0
  3  4  2  0
  4  5  1  0
  5  6  1  0
  5  7  1  0
  7  8  2  0
  8  9  1  0
  9 10  2  0
 10 11  1  0
 11 12  2  0
 12 13  1  0
  6  2  2  0
 13  9  1  0
  8  4  1  0
A    1
 C1 
A    2
 C2 
A    3
 N1 
A    4
 C3 
A    5
 N2 
A    6
 N3 
A    7
 N4 
A    8
 C4 
A    9
 C5 
A   10
 C6 
A   11
 C7 
A   12
 C8 
A   13
 O1 
M  END
>  <ref_pdb>  (36) 
x0051_0B

>  <ref_mols>  (36) 
x0969_1B,x0553_0B

>  <original SMILES>  (36) 
Cc1nc2n(n1)N=C2c1ccco1

>  <index>  (36) 
29

>  <LE>  (36) 
0.2897179441144132

>  <∆∆G>  (36) 
-3.7663332734873713

>  <percent_hybrid>  (36) 
0.0

>  <largest_ring>  (36) 
5

>  <N_rotatable_bonds>  (36) 
2

>  <UFF_Gibbs>  (36) 
33.75106418206818

>  <strain_per_HA>  (36) 
337510.64182068175

>  <N_PAINS>  (36) 
0

>  <N_interactions>  (36) 
3

>  <N_HA>  (36) 
13

>  <ad_hoc_penalty>  (36) 
337475.4806606219

>  <merger_rank>  (36) 
1

$$$$

     RDKit          3D

 13 14  0  0  0  0  0  0  0  0999 V2000
   -9.2620    3.1940   -9.8490 C   0  0  0  0  0  0  0  0  0  0  0  0
   -8.8350    4.2420  -10.7990 C   0  0  0  0  0  0  0  0  0  0  0  0
   -8.2580    3.9310  -12.0520 N   0  0  0  0  0  0  0  0  0  0  0  0
   -8.0720    5.1380  -12.4860 C   0  0  0  0  0  0  0  0  0  0  0  0
   -7.5240    5.4680  -13.6730 O   0  0  0  0  0  0  0  0  0  0  0  0
   -8.0650    5.2180  -14.8660 C   0  0  0  0  0  0  0  0  0  0  0  0
   -7.4840    4.8490  -16.0700 C   0  0  0  0  0  0  0  0  0  0  0  0
   -8.3270    4.6740  -17.1300 C   0  0  0  0  0  0  0  0  0  0  0  0
   -9.6410    4.9280  -16.6960 C   0  0  0  0  0  0  0  0  0  0  0  0
  -11.1130    4.8060  -17.8690 Br  0  0  0  0  0  0  0  0  0  0  0  0
   -9.7780    5.3520  -15.0670 S   0  0  0  0  0  0  0  0  0  0  0  0
   -8.4660    6.0530  -11.6460 N   0  0  0  0  0  0  0  0  0  0  0  0
   -8.9570    5.5670  -10.5560 N   0  0  0  0  0  0  0  0  0  0  0  0
  1  2  1  0
  2  3  2  0
  3  4  1  0
  4  5  1  0
  5  6  1  0
  6  7  2  0
  7  8  1  0
  8  9  2  0
  9 10  1  0
  9 11  1  0
  4 12  2  0
 12 13  1  0
 13  2  1  0
 11  6  1  0
A    1
 C1 
A    2
 C2 
A    3
 N1 
A    4
 C3 
A    5
 O1 
A    6
 C4 
A    7
 C5 
A    8
 C6 
A    9
 C7 
A   10
BR1 
A   11
 S1 
A   12
 N2 
A   13
 N3 
M  END
>  <ref_pdb>  (37) 
x0051_0B

>  <ref_mols>  (37) 
x0969_1B,x0553_0B

>  <original SMILES>  (37) 
Cc1nc(Oc2ccc(Br)s2)n[nH]1

>  <index>  (37) 
30

>  <LE>  (37) 
0.3023517155626041

>  <∆∆G>  (37) 
-3.9305723023138532

>  <percent_hybrid>  (37) 
0.0

>  <largest_ring>  (37) 
5

>  <N_rotatable_bonds>  (37) 
3

>  <UFF_Gibbs>  (37) 
34.117587764568654

>  <strain_per_HA>  (37) 
341175.8776456865

>  <N_PAINS>  (37) 
0

>  <N_interactions>  (37) 
3

>  <N_HA>  (37) 
13

>  <ad_hoc_penalty>  (37) 
341148.2492534769

>  <merger_rank>  (37) 
1

$$$$

     RDKit          3D

 13 14  0  0  0  0  0  0  0  0999 V2000
   -8.9600    4.8080  -17.0040 C   0  0  0  0  0  0  0  0  0  0  0  0
   -9.8930    4.9160  -15.8720 C   0  0  0  0  0  0  0  0  0  0  0  0
   -9.4900    4.9600  -14.5860 N   0  0  0  0  0  0  0  0  0  0  0  0
   -8.1630    4.8910  -14.3760 C   0  0  0  0  0  0  0  0  0  0  0  0
   -7.7340    4.9350  -13.0560 O   0  0  0  0  0  0  0  0  0  0  0  0
   -8.3350    4.5650  -11.8550 C   0  0  0  0  0  0  0  0  0  0  0  0
   -8.4460    5.6220  -10.9310 C   0  0  0  0  0  0  0  0  0  0  0  0
   -8.9860    5.4190   -9.6970 C   0  0  0  0  0  0  0  0  0  0  0  0
   -9.4240    4.2000   -9.3500 N   0  0  0  0  0  0  0  0  0  0  0  0
   -9.2970    3.2260  -10.2840 C   0  0  0  0  0  0  0  0  0  0  0  0
   -8.7660    3.3430  -11.5250 N   0  0  0  0  0  0  0  0  0  0  0  0
   -7.2460    4.7930  -15.3520 N   0  0  0  0  0  0  0  0  0  0  0  0
   -7.6510    4.7550  -16.6310 C   0  0  0  0  0  0  0  0  0  0  0  0
  1  2  2  0
  2  3  1  0
  3  4  2  0
  4  5  1  0
  5  6  1  0
  6  7  2  0
  7  8  1  0
  8  9  2  0
  9 10  1  0
 10 11  2  0
  4 12  1  0
 12 13  2  0
 13  1  1  0
 11  6  1  0
A    1
 C1 
A    2
 C2 
A    3
 N1 
A    4
 C3 
A    5
 O1 
A    6
 C4 
A    7
 C5 
A    8
 C6 
A    9
 N2 
A   10
 C7 
A   11
 N3 
A   12
 N4 
A   13
 C8 
M  END
>  <ref_pdb>  (38) 
x0051_0B

>  <ref_mols>  (38) 
x0969_1B,x0553_0B

>  <original SMILES>  (38) 
c1cnc(Oc2ccncn2)nc1

>  <index>  (38) 
31

>  <LE>  (38) 
0.1901932184610674

>  <∆∆G>  (38) 
-2.472511839993876

>  <percent_hybrid>  (38) 
0.0

>  <largest_ring>  (38) 
6

>  <N_rotatable_bonds>  (38) 
2

>  <UFF_Gibbs>  (38) 
34.13946770045405

>  <strain_per_HA>  (38) 
341394.67700454046

>  <N_PAINS>  (38) 
0

>  <N_interactions>  (38) 
1

>  <N_HA>  (38) 
13

>  <ad_hoc_penalty>  (38) 
341378.3349137001

>  <merger_rank>  (38) 
1

$$$$

     RDKit          3D

 13 14  0  0  0  0  0  0  0  0999 V2000
   -9.7640    4.6200  -17.2590 C   0  0  0  0  0  0  0  0  0  0  0  0
   -8.8390    4.9010  -16.1840 N   0  0  0  0  0  0  0  0  0  0  0  0
   -7.4830    4.9590  -16.4000 N   0  0  0  0  0  0  0  0  0  0  0  0
   -6.9690    5.2350  -15.2090 N   0  0  0  0  0  0  0  0  0  0  0  0
   -8.0210    5.3350  -14.3270 C   0  0  0  0  0  0  0  0  0  0  0  0
   -7.8670    5.6280  -13.0020 O   0  0  0  0  0  0  0  0  0  0  0  0
   -8.3400    4.9690  -11.9330 C   0  0  0  0  0  0  0  0  0  0  0  0
   -8.4810    5.5290  -10.7510 N   0  0  0  0  0  0  0  0  0  0  0  0
   -8.9680    4.5210   -9.9780 C   0  0  0  0  0  0  0  0  0  0  0  0
   -9.2200    4.7660   -8.6960 N   0  0  0  0  0  0  0  0  0  0  0  0
   -9.1470    3.3610  -10.5950 N   0  0  0  0  0  0  0  0  0  0  0  0
   -8.7430    3.6640  -11.8410 N   0  0  0  0  0  0  0  0  0  0  0  0
   -9.2250    5.1260  -14.9050 N   0  0  0  0  0  0  0  0  0  0  0  0
  1  2  1  0
  2  3  1  0
  3  4  2  0
  4  5  1  0
  5  6  1  0
  6  7  1  0
  7  8  2  0
  8  9  1  0
  9 10  1  0
  9 11  2  0
 11 12  1  0
  5 13  2  0
 13  2  1  0
 12  7  1  0
A    1
 C1 
A    2
 N1 
A    3
 N2 
A    4
 N3 
A    5
 C2 
A    6
 O1 
A    7
 C3 
A    8
 N4 
A    9
 C4 
A   10
 N5 
A   11
 N6 
A   12
 N7 
A   13
 N8 
M  END
>  <ref_pdb>  (39) 
x0051_0B

>  <ref_mols>  (39) 
x0969_1B,x0553_0B

>  <original SMILES>  (39) 
Cn1nnc(Oc2nc(N)n[nH]2)n1

>  <index>  (39) 
32

>  <LE>  (39) 
0.22334309364589905

>  <∆∆G>  (39) 
-2.9034602173966877

>  <percent_hybrid>  (39) 
0.0

>  <largest_ring>  (39) 
5

>  <N_rotatable_bonds>  (39) 
4

>  <UFF_Gibbs>  (39) 
34.7347349687881

>  <strain_per_HA>  (39) 
347347.349687881

>  <N_PAINS>  (39) 
0

>  <N_interactions>  (39) 
3

>  <N_HA>  (39) 
13

>  <ad_hoc_penalty>  (39) 
347301.73473089223

>  <merger_rank>  (39) 
1

$$$$

     RDKit          3D

 17 19  0  0  0  0  0  0  0  0999 V2000
   -9.2240    4.9820  -16.5020 N   0  0  0  0  0  0  0  0  0  0  0  0
   -9.1710    5.8920  -15.5020 C   0  0  0  0  0  0  0  0  0  0  0  0
   -8.0800    6.4160  -15.0010 N   0  0  0  0  0  0  0  0  0  0  0  0
   -8.3430    7.3500  -13.9980 N   0  0  0  0  0  0  0  0  0  0  0  0
   -9.6420    7.5330  -13.7470 C   0  0  0  0  0  0  0  0  0  0  0  0
  -10.1980    8.4960  -12.8230 C   0  0  0  0  0  0  0  0  0  0  0  0
  -11.2440    9.3140  -13.1620 C   0  0  0  0  0  0  0  0  0  0  0  0
  -11.7810   10.3450  -12.3030 C   0  0  0  0  0  0  0  0  0  0  0  0
  -13.0380   10.6020  -11.9580 N   0  0  0  0  0  0  0  0  0  0  0  0
  -13.1140   11.7360  -11.1330 C   0  0  0  0  0  0  0  0  0  0  0  0
  -14.2650   12.3310  -10.5700 C   0  0  0  0  0  0  0  0  0  0  0  0
  -14.2070   13.4660   -9.7770 C   0  0  0  0  0  0  0  0  0  0  0  0
  -12.9890   14.0430   -9.5140 C   0  0  0  0  0  0  0  0  0  0  0  0
  -11.8180   13.4890  -10.0400 C   0  0  0  0  0  0  0  0  0  0  0  0
  -11.9050   12.3380  -10.8460 C   0  0  0  0  0  0  0  0  0  0  0  0
  -10.6520   11.4570  -11.6180 S   0  0  0  0  0  0  0  0  0  0  0  0
  -10.5780    6.4920  -14.7560 S   0  0  0  0  0  0  0  0  0  0  0  0
  1  2  1  0
  2  3  2  0
  3  4  1  0
  4  5  2  0
  5  6  1  0
  6  7  2  3
  7  8  1  0
  8  9  2  0
  9 10  1  0
 10 11  2  0
 11 12  1  0
 12 13  2  0
 13 14  1  0
 14 15  2  0
 15 16  1  0
  5 17  1  0
 17  2  1  0
 16  8  1  0
 15 10  1  0
A    1
 N1 
A    2
 C1 
A    3
 N2 
A    4
 N3 
A    5
 C2 
A    6
 C3 
A    7
 C4 
A    8
 C5 
A    9
 N4 
A   10
 C6 
A   11
 C7 
A   12
 C8 
A   13
 C9 
A   14
 C10
A   15
 C11
A   16
 S1 
A   17
 S2 
M  END
>  <ref_pdb>  (40) 
x0051_0B

>  <ref_mols>  (40) 
x0846_0B,x0559_0B

>  <original SMILES>  (40) 
Nc1nnc(C=Cc2nc3ccccc3s2)s1

>  <index>  (40) 
33

>  <LE>  (40) 
0.09401688095931363

>  <∆∆G>  (40) 
-1.5982869763083316

>  <percent_hybrid>  (40) 
0.0

>  <largest_ring>  (40) 
6

>  <N_rotatable_bonds>  (40) 
3

>  <UFF_Gibbs>  (40) 
35.05029615839936

>  <strain_per_HA>  (40) 
350502.96158399363

>  <N_PAINS>  (40) 
0

>  <N_interactions>  (40) 
3

>  <N_HA>  (40) 
17

>  <ad_hoc_penalty>  (40) 
350468.9113075789

>  <merger_rank>  (40) 
1

$$$$

     RDKit          3D

 12 12  0  0  0  0  0  0  0  0999 V2000
  -10.0000    4.8410  -16.8730 C   0  0  0  0  0  0  0  0  0  0  0  0
   -8.7960    4.8180  -17.4550 C   0  0  0  0  0  0  0  0  0  0  0  0
   -7.3960    5.5280  -16.7050 S   0  0  0  0  0  0  0  0  0  0  0  0
   -7.7140    5.3860  -14.9820 C   0  0  0  0  0  0  0  0  0  0  0  0
   -7.5470    6.3530  -14.0980 N   0  0  0  0  0  0  0  0  0  0  0  0
   -7.8850    5.9700  -12.8030 N   0  0  0  0  0  0  0  0  0  0  0  0
   -8.2980    4.7180  -12.7530 C   0  0  0  0  0  0  0  0  0  0  0  0
   -8.7350    4.0400  -11.5260 C   0  0  0  0  0  0  0  0  0  0  0  0
   -9.2870    2.9470  -11.4940 O   0  0  0  0  0  0  0  0  0  0  0  0
   -8.4900    4.7260  -10.3440 N   0  0  0  0  0  0  0  0  0  0  0  0
   -8.9510    4.1870   -9.0850 C   0  0  0  0  0  0  0  0  0  0  0  0
   -8.2790    3.9380  -14.2820 S   0  0  0  0  0  0  0  0  0  0  0  0
  1  2  2  0
  2  3  1  0
  3  4  1  0
  4  5  2  0
  5  6  1  0
  6  7  2  0
  7  8  1  0
  8  9  2  0
  8 10  1  0
 10 11  1  0
  7 12  1  0
 12  4  1  0
A    1
 C1 
A    2
 C2 
A    3
 S1 
A    4
 C3 
A    5
 N1 
A    6
 N2 
A    7
 C4 
A    8
 C5 
A    9
 O1 
A   10
 N3 
A   11
 C6 
A   12
 S2 
M  END
>  <ref_pdb>  (41) 
x0051_0B

>  <ref_mols>  (41) 
x0969_1B,x0553_0B

>  <original SMILES>  (41) 
C=CSc1nnc(C(=O)NC)s1

>  <index>  (41) 
34

>  <LE>  (41) 
0.26104534368109295

>  <∆∆G>  (41) 
-3.1325441241731156

>  <percent_hybrid>  (41) 
0.0

>  <largest_ring>  (41) 
5

>  <N_rotatable_bonds>  (41) 
4

>  <UFF_Gibbs>  (41) 
35.17609366611926

>  <strain_per_HA>  (41) 
351760.93666119257

>  <N_PAINS>  (41) 
0

>  <N_interactions>  (41) 
0

>  <N_HA>  (41) 
12

>  <ad_hoc_penalty>  (41) 
351760.13902882003

>  <merger_rank>  (41) 
1

$$$$

     RDKit          3D

 13 14  0  0  0  0  0  0  0  0999 V2000
   -8.8720    4.1290   -8.7590 N   0  0  0  0  0  0  0  0  0  0  0  0
   -8.7840    4.7320   -9.9500 C   0  0  0  0  0  0  0  0  0  0  0  0
   -8.6860    6.0450  -10.1100 N   0  0  0  0  0  0  0  0  0  0  0  0
   -8.6100    6.3180  -11.7610 S   0  0  0  0  0  0  0  0  0  0  0  0
   -8.7120    4.6380  -12.1610 C   0  0  0  0  0  0  0  0  0  0  0  0
   -8.7120    4.0220  -13.3810 N   0  0  0  0  0  0  0  0  0  0  0  0
   -8.6480    4.4910  -14.7330 C   0  0  0  0  0  0  0  0  0  0  0  0
   -7.8370    5.5320  -15.1490 C   0  0  0  0  0  0  0  0  0  0  0  0
   -7.8450    5.8910  -16.5040 C   0  0  0  0  0  0  0  0  0  0  0  0
   -8.6570    5.2060  -17.3880 C   0  0  0  0  0  0  0  0  0  0  0  0
   -9.4360    4.2160  -16.9860 N   0  0  0  0  0  0  0  0  0  0  0  0
   -9.4020    3.8920  -15.6690 N   0  0  0  0  0  0  0  0  0  0  0  0
   -8.8020    3.9120  -11.0550 N   0  0  0  0  0  0  0  0  0  0  0  0
  1  2  1  0
  2  3  2  0
  3  4  1  0
  4  5  1  0
  5  6  1  0
  6  7  1  0
  7  8  2  0
  8  9  1  0
  9 10  2  0
 10 11  1  0
 11 12  2  0
  5 13  2  0
 13  2  1  0
 12  7  1  0
A    1
 N1 
A    2
 C1 
A    3
 N2 
A    4
 S1 
A    5
 C2 
A    6
 N3 
A    7
 C3 
A    8
 C4 
A    9
 C5 
A   10
 C6 
A   11
 N4 
A   12
 N5 
A   13
 N6 
M  END
>  <ref_pdb>  (42) 
x0051_0B

>  <ref_mols>  (42) 
x0969_1B,x0553_0B

>  <original SMILES>  (42) 
Nc1nsc(Nc2cccnn2)n1

>  <index>  (42) 
35

>  <LE>  (42) 
0.13717216363334742

>  <∆∆G>  (42) 
-1.7832381272335163

>  <percent_hybrid>  (42) 
0.0

>  <largest_ring>  (42) 
6

>  <N_rotatable_bonds>  (42) 
3

>  <UFF_Gibbs>  (42) 
35.445929274473635

>  <strain_per_HA>  (42) 
354459.2927447363

>  <N_PAINS>  (42) 
0

>  <N_interactions>  (42) 
6

>  <N_HA>  (42) 
13

>  <ad_hoc_penalty>  (42) 
354381.30450446584

>  <merger_rank>  (42) 
1

$$$$

     RDKit          3D

 15 17  0  0  0  0  0  0  0  0999 V2000
   -8.5990    4.9600   -9.9640 C   0  0  0  0  0  0  0  0  0  0  0  0
   -9.5250    3.9520   -9.9250 C   0  0  0  0  0  0  0  0  0  0  0  0
   -9.9120    3.3510  -11.0540 N   0  0  0  0  0  0  0  0  0  0  0  0
   -9.4560    3.6680  -12.1670 N   0  0  0  0  0  0  0  0  0  0  0  0
   -8.5380    4.6300  -12.3410 C   0  0  0  0  0  0  0  0  0  0  0  0
   -8.0420    4.8740  -13.7190 C   0  0  0  0  0  0  0  0  0  0  0  0
   -6.6910    5.0140  -13.7790 N   0  0  0  0  0  0  0  0  0  0  0  0
   -6.0300    5.2060  -14.8990 N   0  0  0  0  0  0  0  0  0  0  0  0
   -6.5770    5.2610  -16.0220 N   0  0  0  0  0  0  0  0  0  0  0  0
   -7.9070    5.1390  -16.0980 C   0  0  0  0  0  0  0  0  0  0  0  0
   -8.5500    5.1780  -17.3240 N   0  0  0  0  0  0  0  0  0  0  0  0
   -9.8310    5.0450  -17.1450 C   0  0  0  0  0  0  0  0  0  0  0  0
  -10.3110    4.9020  -15.5350 S   0  0  0  0  0  0  0  0  0  0  0  0
   -8.7000    4.9630  -14.9640 C   0  0  0  0  0  0  0  0  0  0  0  0
   -8.0900    5.3070  -11.2130 C   0  0  0  0  0  0  0  0  0  0  0  0
  1  2  2  0
  2  3  1  0
  3  4  2  0
  4  5  1  0
  5  6  1  0
  6  7  2  0
  7  8  1  0
  8  9  2  0
  9 10  1  0
 10 11  1  0
 11 12  2  0
 12 13  1  0
 13 14  1  0
  5 15  2  0
 15  1  1  0
 14  6  1  0
 14 10  2  0
A    1
 C1 
A    2
 C2 
A    3
 N1 
A    4
 N2 
A    5
 C3 
A    6
 C4 
A    7
 N3 
A    8
 N4 
A    9
 N5 
A   10
 C5 
A   11
 N6 
A   12
 C6 
A   13
 S1 
A   14
 C7 
A   15
 C8 
M  END
>  <ref_pdb>  (43) 
x0051_0B

>  <ref_mols>  (43) 
x0969_1B,x0553_0B

>  <original SMILES>  (43) 
c1cnnc(-c2nnnc3ncsc23)c1

>  <index>  (43) 
36

>  <LE>  (43) 
0.08758522323867987

>  <∆∆G>  (43) 
-1.3137783485801982

>  <percent_hybrid>  (43) 
0.0

>  <largest_ring>  (43) 
6

>  <N_rotatable_bonds>  (43) 
1

>  <UFF_Gibbs>  (43) 
35.93047928192705

>  <strain_per_HA>  (43) 
359304.79281927046

>  <N_PAINS>  (43) 
0

>  <N_interactions>  (43) 
1

>  <N_HA>  (43) 
15

>  <ad_hoc_penalty>  (43) 
359291.9341843948

>  <merger_rank>  (43) 
1

$$$$

     RDKit          3D

 14 16  0  0  0  0  0  0  0  0999 V2000
   -8.5850    4.6600  -17.0990 C   0  0  0  0  0  0  0  0  0  0  0  0
   -9.8770    4.6460  -16.6470 C   0  0  0  0  0  0  0  0  0  0  0  0
   -9.9220    4.9820  -15.3300 O   0  0  0  0  0  0  0  0  0  0  0  0
   -8.6480    5.2170  -14.9180 C   0  0  0  0  0  0  0  0  0  0  0  0
   -8.2460    5.6370  -13.5050 C   0  0  0  0  0  0  0  0  0  0  0  0
   -8.3200    5.3460  -12.1920 C   0  0  0  0  0  0  0  0  0  0  0  0
   -8.8550    4.3880  -11.1400 C   0  0  0  0  0  0  0  0  0  0  0  0
   -9.3390    3.1840  -11.3110 N   0  0  0  0  0  0  0  0  0  0  0  0
   -9.6520    2.7990  -10.0350 C   0  0  0  0  0  0  0  0  0  0  0  0
   -9.3900    3.6960   -9.0820 N   0  0  0  0  0  0  0  0  0  0  0  0
   -8.8820    4.6990   -9.8100 N   0  0  0  0  0  0  0  0  0  0  0  0
   -7.5200    6.5220  -11.9240 N   0  0  0  0  0  0  0  0  0  0  0  0
   -7.4500    6.7970  -13.1500 N   0  0  0  0  0  0  0  0  0  0  0  0
   -7.7910    5.0280  -15.9870 C   0  0  0  0  0  0  0  0  0  0  0  0
  1  2  2  0
  2  3  1  0
  3  4  1  0
  4  5  1  0
  5  6  2  0
  6  7  1  0
  7  8  2  0
  8  9  1  0
  9 10  2  0
 10 11  1  0
  6 12  1  0
 12 13  2  0
  4 14  2  0
 14  1  1  0
 13  5  1  0
 11  7  1  0
A    1
 C1 
A    2
 C2 
A    3
 O1 
A    4
 C3 
A    5
 C4 
A    6
 C5 
A    7
 C6 
A    8
 N1 
A    9
 C7 
A   10
 N2 
A   11
 N3 
A   12
 N4 
A   13
 N5 
A   14
 C8 
M  END
>  <ref_pdb>  (44) 
x0051_0B

>  <ref_mols>  (44) 
x0969_1B,x0553_0B

>  <original SMILES>  (44) 
c1coc(C2=C(c3ncn[nH]3)N=N2)c1

>  <index>  (44) 
37

>  <LE>  (44) 
0.20962924648278877

>  <∆∆G>  (44) 
-2.934809450759043

>  <percent_hybrid>  (44) 
0.0

>  <largest_ring>  (44) 
5

>  <N_rotatable_bonds>  (44) 
2

>  <UFF_Gibbs>  (44) 
36.36854443205449

>  <strain_per_HA>  (44) 
363685.4443205449

>  <N_PAINS>  (44) 
0

>  <N_interactions>  (44) 
2

>  <N_HA>  (44) 
14

>  <ad_hoc_penalty>  (44) 
363663.83816313354

>  <merger_rank>  (44) 
1

$$$$

     RDKit          3D

 19 22  0  0  0  0  0  0  0  0999 V2000
   -6.5110    5.1930  -17.5070 C   0  0  0  0  0  0  0  0  0  0  0  0
   -7.7680    4.7130  -18.1830 C   0  0  0  0  0  0  0  0  0  0  0  0
   -8.9470    4.8780  -17.6800 N   0  0  0  0  0  0  0  0  0  0  0  0
   -8.9870    5.5440  -16.4660 C   0  0  0  0  0  0  0  0  0  0  0  0
  -10.1320    5.8260  -15.7810 N   0  0  0  0  0  0  0  0  0  0  0  0
   -9.7350    6.4820  -14.7280 C   0  0  0  0  0  0  0  0  0  0  0  0
  -10.7700    7.1310  -13.5110 S   0  0  0  0  0  0  0  0  0  0  0  0
  -10.0480    6.0980  -12.3440 C   0  0  0  0  0  0  0  0  0  0  0  0
   -8.8410    6.3090  -11.8860 N   0  0  0  0  0  0  0  0  0  0  0  0
   -8.5400    5.3030  -11.0100 C   0  0  0  0  0  0  0  0  0  0  0  0
   -7.3400    5.2610  -10.3880 N   0  0  0  0  0  0  0  0  0  0  0  0
   -7.1800    4.2140   -9.5540 C   0  0  0  0  0  0  0  0  0  0  0  0
   -8.1220    3.2290   -9.3090 C   0  0  0  0  0  0  0  0  0  0  0  0
   -9.3400    3.2860   -9.9520 C   0  0  0  0  0  0  0  0  0  0  0  0
   -9.5350    4.3500  -10.8170 C   0  0  0  0  0  0  0  0  0  0  0  0
  -10.8880    4.7400  -11.7740 S   0  0  0  0  0  0  0  0  0  0  0  0
   -8.3710    6.6140  -14.6860 N   0  0  0  0  0  0  0  0  0  0  0  0
   -7.8590    6.0190  -15.8030 C   0  0  0  0  0  0  0  0  0  0  0  0
   -6.5730    5.8560  -16.2910 C   0  0  0  0  0  0  0  0  0  0  0  0
  1  2  2  0
  2  3  1  0
  3  4  2  0
  4  5  1  0
  5  6  2  0
  6  7  1  0
  7  8  1  0
  8  9  2  0
  9 10  1  0
 10 11  2  0
 11 12  1  0
 12 13  2  0
 13 14  1  0
 14 15  2  0
 15 16  1  0
  6 17  1  0
 17 18  1  0
 18 19  2  0
 19  1  1  0
 18  4  1  0
 16  8  1  0
 15 10  1  0
A    1
 C1 
A    2
 C2 
A    3
 N1 
A    4
 C3 
A    5
 N2 
A    6
 C4 
A    7
 S1 
A    8
 C5 
A    9
 N3 
A   10
 C6 
A   11
 N4 
A   12
 C7 
A   13
 C8 
A   14
 C9 
A   15
 C10
A   16
 S2 
A   17
 N5 
A   18
 C11
A   19
 C12
M  END
>  <ref_pdb>  (45) 
x0051_0B

>  <ref_mols>  (45) 
x0404_0B,x0969_0B

>  <original SMILES>  (45) 
c1cnc2nc(Sc3nc4ncccc4s3)[nH]c2c1

>  <index>  (45) 
38

>  <LE>  (45) 
0.22188240826151895

>  <∆∆G>  (45) 
-4.21576575696886

>  <percent_hybrid>  (45) 
0.0

>  <largest_ring>  (45) 
6

>  <N_rotatable_bonds>  (45) 
2

>  <UFF_Gibbs>  (45) 
36.87646971916469

>  <strain_per_HA>  (45) 
368764.69719164685

>  <N_PAINS>  (45) 
0

>  <N_interactions>  (45) 
3

>  <N_HA>  (45) 
19

>  <ad_hoc_penalty>  (45) 
368724.5290895716

>  <merger_rank>  (45) 
1

$$$$

     RDKit          3D

 18 20  0  0  0  0  0  0  0  0999 V2000
   -7.8040    8.2540  -14.4500 O   0  0  0  0  0  0  0  0  0  0  0  0
   -8.0470    7.0470  -14.5500 C   0  0  0  0  0  0  0  0  0  0  0  0
   -7.8380    6.3330  -15.8420 C   0  0  0  0  0  0  0  0  0  0  0  0
   -6.7040    6.6120  -16.5860 C   0  0  0  0  0  0  0  0  0  0  0  0
   -6.5030    5.8930  -17.8690 C   0  0  0  0  0  0  0  0  0  0  0  0
   -7.5760    4.9230  -18.2140 C   0  0  0  0  0  0  0  0  0  0  0  0
   -8.6360    4.7780  -17.3430 C   0  0  0  0  0  0  0  0  0  0  0  0
   -8.7670    5.4640  -16.1870 N   0  0  0  0  0  0  0  0  0  0  0  0
   -8.5030    6.2770  -13.4620 C   0  0  0  0  0  0  0  0  0  0  0  0
   -9.5030    5.3450  -13.5070 C   0  0  0  0  0  0  0  0  0  0  0  0
   -9.7280    4.7040  -12.3250 N   0  0  0  0  0  0  0  0  0  0  0  0
   -8.9210    5.1540  -11.4150 C   0  0  0  0  0  0  0  0  0  0  0  0
   -8.9520    4.6220  -10.1070 C   0  0  0  0  0  0  0  0  0  0  0  0
   -8.2110    4.9980   -9.0110 C   0  0  0  0  0  0  0  0  0  0  0  0
   -8.5980    4.1530   -7.9470 C   0  0  0  0  0  0  0  0  0  0  0  0
   -9.5540    3.3120   -8.4570 C   0  0  0  0  0  0  0  0  0  0  0  0
   -9.7720    3.5930   -9.7560 O   0  0  0  0  0  0  0  0  0  0  0  0
   -7.8430    6.3790  -11.8970 S   0  0  0  0  0  0  0  0  0  0  0  0
  1  2  2  0
  2  3  1  0
  3  4  2  0
  4  5  1  0
  5  6  2  0
  6  7  1  0
  7  8  2  0
  2  9  1  0
  9 10  2  0
 10 11  1  0
 11 12  2  0
 12 13  1  0
 13 14  2  0
 14 15  1  0
 15 16  2  0
 16 17  1  0
 12 18  1  0
  8  3  1  0
 18  9  1  0
 17 13  1  0
A    1
 O1 
A    2
 C1 
A    3
 C2 
A    4
 C3 
A    5
 C4 
A    6
 C5 
A    7
 C6 
A    8
 N1 
A    9
 C7 
A   10
 C8 
A   11
 N2 
A   12
 C9 
A   13
 C10
A   14
 C11
A   15
 C12
A   16
 C13
A   17
 O2 
A   18
 S1 
M  END
>  <ref_pdb>  (46) 
x0051_0B

>  <ref_mols>  (46) 
x0404_0B,x0969_0B

>  <original SMILES>  (46) 
O=C(c1ccccn1)c1cnc(-c2ccco2)s1

>  <index>  (46) 
39

>  <LE>  (46) 
0.1654477444223106

>  <∆∆G>  (46) 
-2.978059399601591

>  <percent_hybrid>  (46) 
0.0

>  <largest_ring>  (46) 
6

>  <N_rotatable_bonds>  (46) 
3

>  <UFF_Gibbs>  (46) 
38.318692630799916

>  <strain_per_HA>  (46) 
383186.9263079991

>  <N_PAINS>  (46) 
0

>  <N_interactions>  (46) 
2

>  <N_HA>  (46) 
18

>  <ad_hoc_penalty>  (46) 
383166.1662774077

>  <merger_rank>  (46) 
1

$$$$

     RDKit          3D

 19 21  0  0  0  0  0  0  0  0999 V2000
  -10.0550    5.1120  -15.3280 O   0  0  0  0  0  0  0  0  0  0  0  0
   -8.9920    5.6550  -15.5700 C   0  0  0  0  0  0  0  0  0  0  0  0
   -8.3720    6.5860  -14.7550 N   0  0  0  0  0  0  0  0  0  0  0  0
   -8.5990    6.6600  -13.4090 C   0  0  0  0  0  0  0  0  0  0  0  0
   -8.8690    7.7240  -12.5870 C   0  0  0  0  0  0  0  0  0  0  0  0
   -9.0150    7.2880  -11.2950 N   0  0  0  0  0  0  0  0  0  0  0  0
   -8.8320    5.9770  -11.3790 C   0  0  0  0  0  0  0  0  0  0  0  0
   -8.8940    5.0980  -10.2590 C   0  0  0  0  0  0  0  0  0  0  0  0
   -8.9120    3.7100  -10.2460 C   0  0  0  0  0  0  0  0  0  0  0  0
   -8.9810    3.3080   -8.8930 C   0  0  0  0  0  0  0  0  0  0  0  0
   -9.0000    4.4720   -8.1610 C   0  0  0  0  0  0  0  0  0  0  0  0
   -9.0930    4.5940   -6.2680 Br  0  0  0  0  0  0  0  0  0  0  0  0
   -8.9490    5.5540   -8.9740 O   0  0  0  0  0  0  0  0  0  0  0  0
   -8.5750    5.5430  -12.6460 O   0  0  0  0  0  0  0  0  0  0  0  0
   -8.2550    5.3770  -16.7910 C   0  0  0  0  0  0  0  0  0  0  0  0
   -6.9680    5.6500  -17.2090 C   0  0  0  0  0  0  0  0  0  0  0  0
   -6.8420    5.1280  -18.5160 C   0  0  0  0  0  0  0  0  0  0  0  0
   -8.0540    4.5670  -18.8250 C   0  0  0  0  0  0  0  0  0  0  0  0
   -8.9150    4.7080  -17.7910 O   0  0  0  0  0  0  0  0  0  0  0  0
  1  2  2  0
  2  3  1  0
  3  4  1  0
  4  5  2  0
  5  6  1  0
  6  7  2  0
  7  8  1  0
  8  9  2  0
  9 10  1  0
 10 11  2  0
 11 12  1  0
 11 13  1  0
  7 14  1  0
  2 15  1  0
 15 16  2  0
 16 17  1  0
 17 18  2  0
 18 19  1  0
 14  4  1  0
 19 15  1  0
 13  8  1  0
A    1
 O1 
A    2
 C1 
A    3
 N1 
A    4
 C2 
A    5
 C3 
A    6
 N2 
A    7
 C4 
A    8
 C5 
A    9
 C6 
A   10
 C7 
A   11
 C8 
A   12
BR1 
A   13
 O2 
A   14
 O3 
A   15
 C9 
A   16
 C10
A   17
 C11
A   18
 C12
A   19
 O4 
M  END
>  <ref_pdb>  (47) 
x0051_0B

>  <ref_mols>  (47) 
x0404_0B,x0969_0B

>  <original SMILES>  (47) 
O=C(Nc1cnc(-c2ccc(Br)o2)o1)c1ccco1

>  <index>  (47) 
40

>  <LE>  (47) 
0.29698056831712194

>  <∆∆G>  (47) 
-5.6426307980253165

>  <percent_hybrid>  (47) 
0.0

>  <largest_ring>  (47) 
5

>  <N_rotatable_bonds>  (47) 
3

>  <UFF_Gibbs>  (47) 
38.34064818799544

>  <strain_per_HA>  (47) 
383406.4818799544

>  <N_PAINS>  (47) 
0

>  <N_interactions>  (47) 
3

>  <N_HA>  (47) 
19

>  <ad_hoc_penalty>  (47) 
383372.3613107973

>  <merger_rank>  (47) 
1

$$$$

     RDKit          3D

 12 13  0  0  0  0  0  0  0  0999 V2000
   -7.8010    4.9110  -16.6040 C   0  0  0  0  0  0  0  0  0  0  0  0
   -9.0020    4.7980  -15.9490 C   0  0  0  0  0  0  0  0  0  0  0  0
   -8.9180    5.0800  -14.4910 C   0  0  0  0  0  0  0  0  0  0  0  0
   -8.8560    4.2680  -13.3140 C   0  0  0  0  0  0  0  0  0  0  0  0
   -8.8320    5.1730  -12.2570 C   0  0  0  0  0  0  0  0  0  0  0  0
   -8.8130    4.7350  -10.7560 C   0  0  0  0  0  0  0  0  0  0  0  0
   -9.1080    3.5000  -10.4010 N   0  0  0  0  0  0  0  0  0  0  0  0
   -9.0480    3.3150   -9.0420 N   0  0  0  0  0  0  0  0  0  0  0  0
   -8.7070    4.4210   -8.4220 C   0  0  0  0  0  0  0  0  0  0  0  0
   -8.4330    5.7710   -9.4470 S   0  0  0  0  0  0  0  0  0  0  0  0
   -8.8400    6.4430  -12.6990 N   0  0  0  0  0  0  0  0  0  0  0  0
   -8.8940    6.3810  -14.0940 O   0  0  0  0  0  0  0  0  0  0  0  0
  1  2  1  0
  2  3  1  0
  3  4  2  0
  4  5  1  0
  5  6  1  0
  6  7  2  0
  7  8  1  0
  8  9  2  0
  9 10  1  0
  5 11  2  0
 11 12  1  0
 12  3  1  0
 10  6  1  0
A    1
 C1 
A    2
 C2 
A    3
 C3 
A    4
 C4 
A    5
 C5 
A    6
 C6 
A    7
 N1 
A    8
 N2 
A    9
 C7 
A   10
 S1 
A   11
 N3 
A   12
 O1 
M  END
>  <ref_pdb>  (48) 
x0051_0B

>  <ref_mols>  (48) 
x0969_1B,x0553_0B

>  <original SMILES>  (48) 
CCc1cc(-c2nncs2)no1

>  <index>  (48) 
41

>  <LE>  (48) 
0.2445569966457517

>  <∆∆G>  (48) 
-2.9346839597490204

>  <percent_hybrid>  (48) 
0.0

>  <largest_ring>  (48) 
5

>  <N_rotatable_bonds>  (48) 
3

>  <UFF_Gibbs>  (48) 
38.789050182233126

>  <strain_per_HA>  (48) 
387890.5018223312

>  <N_PAINS>  (48) 
0

>  <N_interactions>  (48) 
2

>  <N_HA>  (48) 
12

>  <ad_hoc_penalty>  (48) 
387870.4267528622

>  <merger_rank>  (48) 
1

$$$$

     RDKit          3D

 13 14  0  0  0  0  0  0  0  0999 V2000
   -9.0110    5.1480  -13.0180 C   0  0  0  0  0  0  0  0  0  0  0  0
   -8.5840    4.1670  -12.1590 C   0  0  0  0  0  0  0  0  0  0  0  0
   -8.7920    4.1750  -10.7610 C   0  0  0  0  0  0  0  0  0  0  0  0
   -8.3240    3.1160  -10.0300 N   0  0  0  0  0  0  0  0  0  0  0  0
   -8.6540    3.3530   -8.7710 N   0  0  0  0  0  0  0  0  0  0  0  0
   -9.2870    4.5230   -8.8110 N   0  0  0  0  0  0  0  0  0  0  0  0
   -9.4040    5.0900  -10.0130 N   0  0  0  0  0  0  0  0  0  0  0  0
   -8.8020    5.0950  -14.4560 C   0  0  0  0  0  0  0  0  0  0  0  0
   -9.9970    5.1340  -15.2690 N   0  0  0  0  0  0  0  0  0  0  0  0
   -9.7940    5.0560  -16.5840 C   0  0  0  0  0  0  0  0  0  0  0  0
   -8.4180    4.9490  -17.1740 C   0  0  0  0  0  0  0  0  0  0  0  0
   -7.3880    4.9340  -16.2620 C   0  0  0  0  0  0  0  0  0  0  0  0
   -7.5470    5.0020  -14.9260 N   0  0  0  0  0  0  0  0  0  0  0  0
  1  2  2  3
  2  3  1  0
  3  4  1  0
  4  5  2  0
  5  6  1  0
  6  7  1  0
  1  8  1  0
  8  9  2  0
  9 10  1  0
 10 11  2  0
 11 12  1  0
 12 13  2  0
  7  3  2  0
 13  8  1  0
A    1
 C1 
A    2
 C2 
A    3
 C3 
A    4
 N1 
A    5
 N2 
A    6
 N3 
A    7
 N4 
A    8
 C4 
A    9
 N5 
A   10
 C5 
A   11
 C6 
A   12
 C7 
A   13
 N6 
M  END
>  <ref_pdb>  (49) 
x0051_0B

>  <ref_mols>  (49) 
x0969_1B,x0553_0B

>  <original SMILES>  (49) 
C(=Cc1nn[nH]n1)c1ncccn1

>  <index>  (49) 
42

>  <LE>  (49) 
0.13341195048640597

>  <∆∆G>  (49) 
-1.7343553563232776

>  <percent_hybrid>  (49) 
0.0

>  <largest_ring>  (49) 
6

>  <N_rotatable_bonds>  (49) 
2

>  <UFF_Gibbs>  (49) 
38.8401538590126

>  <strain_per_HA>  (49) 
388401.53859012603

>  <N_PAINS>  (49) 
0

>  <N_interactions>  (49) 
0

>  <N_HA>  (49) 
13

>  <ad_hoc_penalty>  (49) 
388398.73552405706

>  <merger_rank>  (49) 
1

$$$$

     RDKit          3D

 14 15  0  0  0  0  0  0  0  0999 V2000
   -9.1570    3.4930   -8.9750 C   0  0  0  0  0  0  0  0  0  0  0  0
   -8.7350    4.2250  -10.1930 C   0  0  0  0  0  0  0  0  0  0  0  0
   -8.2520    5.4590  -10.2310 N   0  0  0  0  0  0  0  0  0  0  0  0
   -7.9530    5.8650  -11.5230 N   0  0  0  0  0  0  0  0  0  0  0  0
   -8.2370    4.8730  -12.4450 C   0  0  0  0  0  0  0  0  0  0  0  0
   -8.0470    5.0080  -13.8120 N   0  0  0  0  0  0  0  0  0  0  0  0
   -9.0980    5.0710  -14.7110 C   0  0  0  0  0  0  0  0  0  0  0  0
  -10.3840    5.1850  -14.3790 O   0  0  0  0  0  0  0  0  0  0  0  0
   -8.8730    5.0270  -16.1400 C   0  0  0  0  0  0  0  0  0  0  0  0
   -7.8190    5.4160  -16.8200 N   0  0  0  0  0  0  0  0  0  0  0  0
   -8.1210    5.1800  -18.1470 N   0  0  0  0  0  0  0  0  0  0  0  0
   -9.3240    4.6640  -18.1750 C   0  0  0  0  0  0  0  0  0  0  0  0
   -9.8740    4.5310  -16.9430 O   0  0  0  0  0  0  0  0  0  0  0  0
   -8.8590    3.4610  -11.7230 S   0  0  0  0  0  0  0  0  0  0  0  0
  1  2  1  0
  2  3  2  0
  3  4  1  0
  4  5  2  0
  5  6  1  0
  6  7  1  0
  7  8  2  0
  7  9  1  0
  9 10  2  0
 10 11  1  0
 11 12  2  0
 12 13  1  0
  5 14  1  0
 14  2  1  0
 13  9  1  0
A    1
 C1 
A    2
 C2 
A    3
 N1 
A    4
 N2 
A    5
 C3 
A    6
 N3 
A    7
 C4 
A    8
 O1 
A    9
 C5 
A   10
 N4 
A   11
 N5 
A   12
 C6 
A   13
 O2 
A   14
 S1 
M  END
>  <ref_pdb>  (50) 
x0051_0B

>  <ref_mols>  (50) 
x0969_1B,x0553_0B

>  <original SMILES>  (50) 
Cc1nnc(NC(=O)c2nnco2)s1

>  <index>  (50) 
43

>  <LE>  (50) 
0.2750321725043962

>  <∆∆G>  (50) 
-3.8504504150615473

>  <percent_hybrid>  (50) 
0.0

>  <largest_ring>  (50) 
5

>  <N_rotatable_bonds>  (50) 
3

>  <UFF_Gibbs>  (50) 
38.89894115232951

>  <strain_per_HA>  (50) 
388989.4115232951

>  <N_PAINS>  (50) 
0

>  <N_interactions>  (50) 
4

>  <N_HA>  (50) 
14

>  <ad_hoc_penalty>  (50) 
388947.51596541307

>  <merger_rank>  (50) 
1

$$$$

     RDKit          3D

 18 20  0  0  0  0  0  0  0  0999 V2000
   -7.7490    5.6330  -18.5340 C   0  0  0  0  0  0  0  0  0  0  0  0
   -7.0090    6.5270  -17.7510 C   0  0  0  0  0  0  0  0  0  0  0  0
   -7.2680    6.3790  -16.4000 C   0  0  0  0  0  0  0  0  0  0  0  0
   -8.2040    5.4050  -15.8910 C   0  0  0  0  0  0  0  0  0  0  0  0
   -8.3420    5.3740  -14.4840 C   0  0  0  0  0  0  0  0  0  0  0  0
   -8.5570    6.5610  -13.8270 C   0  0  0  0  0  0  0  0  0  0  0  0
   -8.7080    6.5250  -12.4160 C   0  0  0  0  0  0  0  0  0  0  0  0
   -8.6300    5.2840  -11.7520 C   0  0  0  0  0  0  0  0  0  0  0  0
   -8.7500    5.0260  -10.3920 C   0  0  0  0  0  0  0  0  0  0  0  0
   -8.9750    3.7260  -10.0830 N   0  0  0  0  0  0  0  0  0  0  0  0
   -9.0890    3.4260   -8.7770 C   0  0  0  0  0  0  0  0  0  0  0  0
   -8.9840    4.3800   -7.7970 C   0  0  0  0  0  0  0  0  0  0  0  0
   -8.7620    5.6650   -8.1300 N   0  0  0  0  0  0  0  0  0  0  0  0
   -8.6430    5.9980   -9.4560 N   0  0  0  0  0  0  0  0  0  0  0  0
   -8.4130    4.1740  -12.4720 N   0  0  0  0  0  0  0  0  0  0  0  0
   -8.2690    4.2160  -13.8390 N   0  0  0  0  0  0  0  0  0  0  0  0
   -8.8850    4.5800  -16.6840 N   0  0  0  0  0  0  0  0  0  0  0  0
   -8.6380    4.7160  -17.9900 C   0  0  0  0  0  0  0  0  0  0  0  0
  1  2  2  0
  2  3  1  0
  3  4  2  0
  4  5  1  0
  5  6  2  0
  6  7  1  0
  7  8  2  0
  8  9  1  0
  9 10  2  0
 10 11  1  0
 11 12  2  0
 12 13  1  0
 13 14  2  0
  8 15  1  0
 15 16  2  0
  4 17  1  0
 17 18  2  0
 18  1  1  0
 16  5  1  0
 14  9  1  0
A    1
 C1 
A    2
 C2 
A    3
 C3 
A    4
 C4 
A    5
 C5 
A    6
 C6 
A    7
 C7 
A    8
 C8 
A    9
 C9 
A   10
 N1 
A   11
 C10
A   12
 C11
A   13
 N2 
A   14
 N3 
A   15
 N4 
A   16
 N5 
A   17
 N6 
A   18
 C12
M  END
>  <ref_pdb>  (51) 
x0051_0B

>  <ref_mols>  (51) 
x0404_0B,x0969_0B

>  <original SMILES>  (51) 
c1ccc(-c2ccc(-c3nccnn3)nn2)nc1

>  <index>  (51) 
44

>  <LE>  (51) 
0.24676049803589406

>  <∆∆G>  (51) 
-4.441688964646093

>  <percent_hybrid>  (51) 
0.0

>  <largest_ring>  (51) 
6

>  <N_rotatable_bonds>  (51) 
2

>  <UFF_Gibbs>  (51) 
38.954673873887344

>  <strain_per_HA>  (51) 
389546.73873887345

>  <N_PAINS>  (51) 
0

>  <N_interactions>  (51) 
2

>  <N_HA>  (51) 
18

>  <ad_hoc_penalty>  (51) 
389519.5489384678

>  <merger_rank>  (51) 
1

$$$$

     RDKit          3D

 14 16  0  0  0  0  0  0  0  0999 V2000
   -9.1890    5.1630   -9.2880 C   0  0  0  0  0  0  0  0  0  0  0  0
   -8.7800    3.8750   -9.0720 C   0  0  0  0  0  0  0  0  0  0  0  0
   -8.1690    3.4030  -10.1780 O   0  0  0  0  0  0  0  0  0  0  0  0
   -8.1830    4.3880  -11.1180 C   0  0  0  0  0  0  0  0  0  0  0  0
   -7.5800    4.0050  -12.2280 O   0  0  0  0  0  0  0  0  0  0  0  0
   -7.9270    4.2570  -13.4890 C   0  0  0  0  0  0  0  0  0  0  0  0
   -9.1200    4.5400  -13.9410 N   0  0  0  0  0  0  0  0  0  0  0  0
   -9.0760    4.6750  -15.2990 C   0  0  0  0  0  0  0  0  0  0  0  0
  -10.3210    4.9990  -16.4590 S   0  0  0  0  0  0  0  0  0  0  0  0
   -9.1750    4.9380  -17.7320 C   0  0  0  0  0  0  0  0  0  0  0  0
   -7.8940    4.6880  -17.3060 C   0  0  0  0  0  0  0  0  0  0  0  0
   -7.8620    4.5320  -15.8910 C   0  0  0  0  0  0  0  0  0  0  0  0
   -6.6720    4.1950  -14.6710 S   0  0  0  0  0  0  0  0  0  0  0  0
   -8.8170    5.4970  -10.6120 C   0  0  0  0  0  0  0  0  0  0  0  0
  1  2  2  0
  2  3  1  0
  3  4  1  0
  4  5  1  0
  5  6  1  0
  6  7  2  0
  7  8  1  0
  8  9  1  0
  9 10  1  0
 10 11  2  0
 11 12  1  0
 12 13  1  0
  4 14  2  0
 14  1  1  0
 13  6  1  0
 12  8  2  0
A    1
 C1 
A    2
 C2 
A    3
 O1 
A    4
 C3 
A    5
 O2 
A    6
 C4 
A    7
 N1 
A    8
 C5 
A    9
 S1 
A   10
 C6 
A   11
 C7 
A   12
 C8 
A   13
 S2 
A   14
 C9 
M  END
>  <ref_pdb>  (52) 
x0051_0B

>  <ref_mols>  (52) 
x0969_1B,x0553_0B

>  <original SMILES>  (52) 
c1coc(Oc2nc3sccc3s2)c1

>  <index>  (52) 
45

>  <LE>  (52) 
0.22447508636395505

>  <∆∆G>  (52) 
-3.1426512090953707

>  <percent_hybrid>  (52) 
0.0

>  <largest_ring>  (52) 
5

>  <N_rotatable_bonds>  (52) 
2

>  <UFF_Gibbs>  (52) 
39.24346341312979

>  <strain_per_HA>  (52) 
392434.6341312979

>  <N_PAINS>  (52) 
0

>  <N_interactions>  (52) 
4

>  <N_HA>  (52) 
14

>  <ad_hoc_penalty>  (52) 
392386.2386266403

>  <merger_rank>  (52) 
1

$$$$

     RDKit          3D

 13 14  0  0  0  0  0  0  0  0999 V2000
   -8.4210    5.6640  -14.0580 C   0  0  0  0  0  0  0  0  0  0  0  0
   -9.1990    5.8950  -13.0380 N   0  0  0  0  0  0  0  0  0  0  0  0
   -8.6640    6.4820  -11.5780 S   0  0  0  0  0  0  0  0  0  0  0  0
   -8.9050    5.1450  -10.4680 C   0  0  0  0  0  0  0  0  0  0  0  0
   -9.2650    3.9350  -10.8350 N   0  0  0  0  0  0  0  0  0  0  0  0
   -9.3620    3.1230   -9.7260 C   0  0  0  0  0  0  0  0  0  0  0  0
   -9.0720    3.7230   -8.5240 C   0  0  0  0  0  0  0  0  0  0  0  0
   -8.6660    5.3690   -8.7820 S   0  0  0  0  0  0  0  0  0  0  0  0
   -8.7350    5.2020  -15.3920 C   0  0  0  0  0  0  0  0  0  0  0  0
   -7.9170    4.7920  -16.4320 C   0  0  0  0  0  0  0  0  0  0  0  0
   -8.7680    4.4560  -17.5170 C   0  0  0  0  0  0  0  0  0  0  0  0
  -10.0460    4.6790  -17.0790 C   0  0  0  0  0  0  0  0  0  0  0  0
  -10.0310    5.1250  -15.8050 O   0  0  0  0  0  0  0  0  0  0  0  0
  1  2  2  3
  2  3  1  0
  3  4  1  0
  4  5  2  0
  5  6  1  0
  6  7  2  0
  7  8  1  0
  1  9  1  0
  9 10  2  0
 10 11  1  0
 11 12  2  0
 12 13  1  0
  8  4  1  0
 13  9  1  0
A    1
 C1 
A    2
 N1 
A    3
 S1 
A    4
 C2 
A    5
 N2 
A    6
 C3 
A    7
 C4 
A    8
 S2 
A    9
 C5 
A   10
 C6 
A   11
 C7 
A   12
 C8 
A   13
 O1 
M  END
>  <ref_pdb>  (53) 
x0051_0B

>  <ref_mols>  (53) 
x0969_1B,x0553_0B

>  <original SMILES>  (53) 
C(=NSc1nccs1)c1ccco1

>  <index>  (53) 
46

>  <LE>  (53) 
0.3161397094818205

>  <∆∆G>  (53) 
-4.109816223263667

>  <percent_hybrid>  (53) 
0.0

>  <largest_ring>  (53) 
5

>  <N_rotatable_bonds>  (53) 
3

>  <UFF_Gibbs>  (53) 
39.3853527541786

>  <strain_per_HA>  (53) 
393853.52754178597

>  <N_PAINS>  (53) 
0

>  <N_interactions>  (53) 
1

>  <N_HA>  (53) 
13

>  <ad_hoc_penalty>  (53) 
393838.61666914617

>  <merger_rank>  (53) 
1

$$$$

     RDKit          3D

 17 19  0  0  0  0  0  0  0  0999 V2000
   -9.1750    3.6620   -8.3420 C   0  0  0  0  0  0  0  0  0  0  0  0
   -9.0680    4.5450   -9.5720 C   0  0  0  0  0  0  0  0  0  0  0  0
   -8.8730    3.9380  -10.7460 N   0  0  0  0  0  0  0  0  0  0  0  0
   -8.8030    4.7650  -11.8100 C   0  0  0  0  0  0  0  0  0  0  0  0
   -8.9150    6.1370  -11.7330 C   0  0  0  0  0  0  0  0  0  0  0  0
   -8.8400    6.9630  -12.8380 N   0  0  0  0  0  0  0  0  0  0  0  0
   -8.4750    6.5570  -14.0540 C   0  0  0  0  0  0  0  0  0  0  0  0
   -7.2660    6.6500  -14.5810 N   0  0  0  0  0  0  0  0  0  0  0  0
   -7.4370    6.0620  -15.8020 C   0  0  0  0  0  0  0  0  0  0  0  0
   -6.4210    5.8890  -16.7930 C   0  0  0  0  0  0  0  0  0  0  0  0
   -6.8060    5.2850  -17.9260 C   0  0  0  0  0  0  0  0  0  0  0  0
   -8.2190    4.8220  -18.1260 C   0  0  0  0  0  0  0  0  0  0  0  0
   -9.1990    4.9970  -17.1430 C   0  0  0  0  0  0  0  0  0  0  0  0
   -8.7320    5.6340  -15.9940 C   0  0  0  0  0  0  0  0  0  0  0  0
   -9.4130    5.9600  -14.8620 O   0  0  0  0  0  0  0  0  0  0  0  0
   -9.1030    6.7080  -10.5340 N   0  0  0  0  0  0  0  0  0  0  0  0
   -9.1780    5.8880   -9.4280 N   0  0  0  0  0  0  0  0  0  0  0  0
  1  2  1  0
  2  3  2  0
  3  4  1  0
  4  5  2  0
  5  6  1  0
  6  7  1  0
  7  8  2  0
  8  9  1  0
  9 10  2  0
 10 11  1  0
 11 12  2  0
 12 13  1  0
 13 14  2  0
 14 15  1  0
  5 16  1  0
 16 17  2  0
 17  2  1  0
 15  7  1  0
 14  9  1  0
A    1
 C1 
A    2
 C2 
A    3
 N1 
A    4
 C3 
A    5
 C4 
A    6
 N2 
A    7
 C5 
A    8
 N3 
A    9
 C6 
A   10
 C7 
A   11
 C8 
A   12
 C9 
A   13
 C10
A   14
 C11
A   15
 O1 
A   16
 N4 
A   17
 N5 
M  END
>  <ref_pdb>  (54) 
x0051_0B

>  <ref_mols>  (54) 
x0404_0B,x0969_0B

>  <original SMILES>  (54) 
Cc1ncc(Nc2nc3ccccc3o2)nn1

>  <index>  (54) 
47

>  <LE>  (54) 
0.2995385648350727

>  <∆∆G>  (54) 
-5.092155602196236

>  <percent_hybrid>  (54) 
0.0

>  <largest_ring>  (54) 
6

>  <N_rotatable_bonds>  (54) 
3

>  <UFF_Gibbs>  (54) 
40.15204630258724

>  <strain_per_HA>  (54) 
401520.46302587236

>  <N_PAINS>  (54) 
0

>  <N_interactions>  (54) 
3

>  <N_HA>  (54) 
17

>  <ad_hoc_penalty>  (54) 
401486.31342024077

>  <merger_rank>  (54) 
1

$$$$

     RDKit          3D

 16 17  0  0  0  0  0  0  0  0999 V2000
   -8.9800    4.1840   -8.4190 C   0  0  0  0  0  0  0  0  0  0  0  0
   -8.9530    4.8540   -9.7810 C   0  0  0  0  0  0  0  0  0  0  0  0
   -9.0380    3.9270  -10.9330 C   0  0  0  0  0  0  0  0  0  0  0  0
   -9.0220    4.4920  -12.1980 C   0  0  0  0  0  0  0  0  0  0  0  0
   -8.9270    5.9370  -12.3280 C   0  0  0  0  0  0  0  0  0  0  0  0
   -8.9100    6.6180  -13.6400 C   0  0  0  0  0  0  0  0  0  0  0  0
   -8.3620    7.7120  -13.7240 O   0  0  0  0  0  0  0  0  0  0  0  0
   -9.5190    5.9080  -14.6430 N   0  0  0  0  0  0  0  0  0  0  0  0
   -8.9250    5.6050  -15.8340 C   0  0  0  0  0  0  0  0  0  0  0  0
   -9.5210    4.8790  -16.7530 N   0  0  0  0  0  0  0  0  0  0  0  0
   -8.7300    4.7100  -17.8700 N   0  0  0  0  0  0  0  0  0  0  0  0
   -7.5690    5.3180  -17.7440 C   0  0  0  0  0  0  0  0  0  0  0  0
   -6.5460    5.3280  -18.7190 C   0  0  0  0  0  0  0  0  0  0  0  0
   -7.3630    6.1330  -16.2520 S   0  0  0  0  0  0  0  0  0  0  0  0
   -8.8510    6.7060  -11.1670 C   0  0  0  0  0  0  0  0  0  0  0  0
   -8.8610    6.1990   -9.9040 N   0  0  0  0  0  0  0  0  0  0  0  0
  1  2  1  0
  2  3  2  0
  3  4  1  0
  4  5  2  0
  5  6  1  0
  6  7  2  0
  6  8  1  0
  8  9  1  0
  9 10  2  0
 10 11  1  0
 11 12  2  0
 12 13  1  0
 12 14  1  0
  5 15  1  0
 15 16  2  0
 16  2  1  0
 14  9  1  0
A    1
 C1 
A    2
 C2 
A    3
 C3 
A    4
 C4 
A    5
 C5 
A    6
 C6 
A    7
 O1 
A    8
 N1 
A    9
 C7 
A   10
 N2 
A   11
 N3 
A   12
 C8 
A   13
 C9 
A   14
 S1 
A   15
 C10
A   16
 N4 
M  END
>  <ref_pdb>  (55) 
x0051_0B

>  <ref_mols>  (55) 
x0404_0B,x0969_0B

>  <original SMILES>  (55) 
Cc1ccc(C(=O)Nc2nnc(C)s2)cn1

>  <index>  (55) 
48

>  <LE>  (55) 
0.38049643450761594

>  <∆∆G>  (55) 
-6.087942952121855

>  <percent_hybrid>  (55) 
0.0

>  <largest_ring>  (55) 
6

>  <N_rotatable_bonds>  (55) 
4

>  <UFF_Gibbs>  (55) 
40.17027391814776

>  <strain_per_HA>  (55) 
401702.7391814776

>  <N_PAINS>  (55) 
0

>  <N_interactions>  (55) 
4

>  <N_HA>  (55) 
16

>  <ad_hoc_penalty>  (55) 
401658.9515012955

>  <merger_rank>  (55) 
1

$$$$

     RDKit          3D

 14 15  0  0  0  0  0  0  0  0999 V2000
   -8.8350    4.3710   -8.6680 C   0  0  0  0  0  0  0  0  0  0  0  0
   -8.4080    4.9350   -9.9120 O   0  0  0  0  0  0  0  0  0  0  0  0
   -9.0130    4.3500  -10.9860 C   0  0  0  0  0  0  0  0  0  0  0  0
   -9.9580    3.6010  -10.8670 O   0  0  0  0  0  0  0  0  0  0  0  0
   -8.3880    4.7220  -12.2360 C   0  0  0  0  0  0  0  0  0  0  0  0
   -7.1880    5.2370  -12.4260 N   0  0  0  0  0  0  0  0  0  0  0  0
   -7.0440    5.4050  -13.8000 N   0  0  0  0  0  0  0  0  0  0  0  0
   -8.1630    4.9850  -14.3660 C   0  0  0  0  0  0  0  0  0  0  0  0
   -8.4610    4.9550  -15.7680 C   0  0  0  0  0  0  0  0  0  0  0  0
   -9.6740    4.7030  -16.3840 C   0  0  0  0  0  0  0  0  0  0  0  0
   -9.5400    4.7560  -17.8000 C   0  0  0  0  0  0  0  0  0  0  0  0
   -8.3280    5.0310  -18.2690 N   0  0  0  0  0  0  0  0  0  0  0  0
   -7.2960    5.2360  -16.9880 S   0  0  0  0  0  0  0  0  0  0  0  0
   -9.0540    4.5470  -13.4180 O   0  0  0  0  0  0  0  0  0  0  0  0
  1  2  1  0
  2  3  1  0
  3  4  2  0
  3  5  1  0
  5  6  2  0
  6  7  1  0
  7  8  2  0
  8  9  1  0
  9 10  2  0
 10 11  1  0
 11 12  2  0
 12 13  1  0
  8 14  1  0
 14  5  1  0
 13  9  1  0
A    1
 C1 
A    2
 O1 
A    3
 C2 
A    4
 O2 
A    5
 C3 
A    6
 N1 
A    7
 N2 
A    8
 C4 
A    9
 C5 
A   10
 C6 
A   11
 C7 
A   12
 N3 
A   13
 S1 
A   14
 O3 
M  END
>  <ref_pdb>  (56) 
x0051_0B

>  <ref_mols>  (56) 
x0969_1B,x0553_0B

>  <original SMILES>  (56) 
COC(=O)c1nnc(-c2ccns2)o1

>  <index>  (56) 
49

>  <LE>  (56) 
0.202627767517134

>  <∆∆G>  (56) 
-2.836788745239876

>  <percent_hybrid>  (56) 
0.0

>  <largest_ring>  (56) 
5

>  <N_rotatable_bonds>  (56) 
3

>  <UFF_Gibbs>  (56) 
40.651288471206655

>  <strain_per_HA>  (56) 
406512.88471206656

>  <N_PAINS>  (56) 
0

>  <N_interactions>  (56) 
3

>  <N_HA>  (56) 
14

>  <ad_hoc_penalty>  (56) 
406480.0742349258

>  <merger_rank>  (56) 
1

$$$$

     RDKit          3D

 13 14  0  0  0  0  0  0  0  0999 V2000
   -8.8260    4.9300  -17.9560 C   0  0  0  0  0  0  0  0  0  0  0  0
  -10.0440    4.7900  -16.6320 S   0  0  0  0  0  0  0  0  0  0  0  0
   -9.0710    5.0450  -15.2170 C   0  0  0  0  0  0  0  0  0  0  0  0
   -7.6950    4.9580  -15.1970 N   0  0  0  0  0  0  0  0  0  0  0  0
   -7.3230    5.2150  -13.9490 N   0  0  0  0  0  0  0  0  0  0  0  0
   -8.4210    5.4450  -13.2610 C   0  0  0  0  0  0  0  0  0  0  0  0
   -8.5820    5.7470  -11.9850 O   0  0  0  0  0  0  0  0  0  0  0  0
   -8.8930    4.8350  -11.0370 C   0  0  0  0  0  0  0  0  0  0  0  0
   -9.0230    5.0900   -9.6910 C   0  0  0  0  0  0  0  0  0  0  0  0
   -9.3530    3.9140   -8.9700 C   0  0  0  0  0  0  0  0  0  0  0  0
   -9.4860    2.5570   -9.9890 S   0  0  0  0  0  0  0  0  0  0  0  0
   -9.1150    3.5100  -11.3600 C   0  0  0  0  0  0  0  0  0  0  0  0
   -9.5670    5.3580  -13.9840 O   0  0  0  0  0  0  0  0  0  0  0  0
  1  2  1  0
  2  3  1  0
  3  4  2  0
  4  5  1  0
  5  6  2  0
  6  7  1  0
  7  8  1  0
  8  9  1  0
  9 10  2  0
 10 11  1  0
 11 12  1  0
  6 13  1  0
 13  3  1  0
 12  8  2  0
A    1
 C1 
A    2
 S1 
A    3
 C2 
A    4
 N1 
A    5
 N2 
A    6
 C3 
A    7
 O1 
A    8
 C4 
A    9
 C5 
A   10
 C6 
A   11
 S2 
A   12
 C7 
A   13
 O2 
M  END
>  <ref_pdb>  (57) 
x0051_0B

>  <ref_mols>  (57) 
x0969_1B,x0553_0B

>  <original SMILES>  (57) 
CSc1nnc(Oc2ccsc2)o1

>  <index>  (57) 
50

>  <LE>  (57) 
0.4378762092541751

>  <∆∆G>  (57) 
-5.692390720304276

>  <percent_hybrid>  (57) 
0.0

>  <largest_ring>  (57) 
5

>  <N_rotatable_bonds>  (57) 
4

>  <UFF_Gibbs>  (57) 
40.89147081164677

>  <strain_per_HA>  (57) 
408914.7081164677

>  <N_PAINS>  (57) 
0

>  <N_interactions>  (57) 
2

>  <N_HA>  (57) 
13

>  <ad_hoc_penalty>  (57) 
408891.09333938773

>  <merger_rank>  (57) 
1

$$$$

     RDKit          3D

 14 15  0  0  0  0  0  0  0  0999 V2000
   -6.9660    4.7070  -13.4670 O   0  0  0  0  0  0  0  0  0  0  0  0
   -8.1260    4.8940  -13.8130 C   0  0  0  0  0  0  0  0  0  0  0  0
   -9.1660    5.0630  -12.9330 N   0  0  0  0  0  0  0  0  0  0  0  0
   -9.0170    4.4960  -11.6990 C   0  0  0  0  0  0  0  0  0  0  0  0
   -7.9470    4.5300  -10.7390 C   0  0  0  0  0  0  0  0  0  0  0  0
   -8.2630    3.7450   -9.6060 C   0  0  0  0  0  0  0  0  0  0  0  0
   -9.5450    3.1460   -9.7350 C   0  0  0  0  0  0  0  0  0  0  0  0
  -10.3290    3.5610  -11.1930 S   0  0  0  0  0  0  0  0  0  0  0  0
   -8.4160    4.9270  -15.2690 C   0  0  0  0  0  0  0  0  0  0  0  0
   -7.4710    4.9200  -16.3090 C   0  0  0  0  0  0  0  0  0  0  0  0
   -7.9020    4.9530  -17.6160 O   0  0  0  0  0  0  0  0  0  0  0  0
   -9.2670    4.9480  -17.5270 C   0  0  0  0  0  0  0  0  0  0  0  0
  -10.0700    4.9470  -18.9500 S   0  0  0  0  0  0  0  0  0  0  0  0
  -10.0020    4.9810  -15.9360 S   0  0  0  0  0  0  0  0  0  0  0  0
  1  2  2  0
  2  3  1  0
  3  4  1  0
  4  5  2  0
  5  6  1  0
  6  7  2  0
  7  8  1  0
  2  9  1  0
  9 10  2  0
 10 11  1  0
 11 12  1  0
 12 13  2  0
 12 14  1  0
  8  4  1  0
 14  9  1  0
A    1
 O1 
A    2
 C1 
A    3
 N1 
A    4
 C2 
A    5
 C3 
A    6
 C4 
A    7
 C5 
A    8
 S1 
A    9
 C6 
A   10
 C7 
A   11
 O2 
A   12
 C8 
A   13
 S2 
A   14
 S3 
M  END
>  <ref_pdb>  (58) 
x0051_0B

>  <ref_mols>  (58) 
x0969_1B,x0553_0B

>  <original SMILES>  (58) 
O=C(Nc1cccs1)c1coc(=S)s1

>  <index>  (58) 
51

>  <LE>  (58) 
0.3503158748137579

>  <∆∆G>  (58) 
-4.904422247392611

>  <percent_hybrid>  (58) 
0.0

>  <largest_ring>  (58) 
5

>  <N_rotatable_bonds>  (58) 
2

>  <UFF_Gibbs>  (58) 
41.39539857008934

>  <strain_per_HA>  (58) 
413953.9857008934

>  <N_PAINS>  (58) 
0

>  <N_interactions>  (58) 
1

>  <N_HA>  (58) 
14

>  <ad_hoc_penalty>  (58) 
413934.4521290621

>  <merger_rank>  (58) 
1

$$$$

     RDKit          3D

 13 14  0  0  0  0  0  0  0  0999 V2000
   -8.5170    4.6990   -8.7880 C   0  0  0  0  0  0  0  0  0  0  0  0
   -9.2070    4.2580   -9.8330 C   0  0  0  0  0  0  0  0  0  0  0  0
  -10.0990    3.4440   -9.6130 O   0  0  0  0  0  0  0  0  0  0  0  0
   -8.9120    4.7250  -11.1040 C   0  0  0  0  0  0  0  0  0  0  0  0
   -8.4760    5.9320  -11.4010 N   0  0  0  0  0  0  0  0  0  0  0  0
   -8.2960    6.1240  -12.7730 N   0  0  0  0  0  0  0  0  0  0  0  0
   -8.6020    5.0510  -13.4870 C   0  0  0  0  0  0  0  0  0  0  0  0
   -8.5290    4.9900  -14.9640 C   0  0  0  0  0  0  0  0  0  0  0  0
   -9.5470    4.7780  -15.9150 C   0  0  0  0  0  0  0  0  0  0  0  0
   -8.9790    4.8050  -17.1770 C   0  0  0  0  0  0  0  0  0  0  0  0
   -7.6120    5.0390  -16.9730 C   0  0  0  0  0  0  0  0  0  0  0  0
   -7.3390    5.1510  -15.6520 O   0  0  0  0  0  0  0  0  0  0  0  0
   -9.0960    3.7580  -12.4690 S   0  0  0  0  0  0  0  0  0  0  0  0
  1  2  1  0
  2  3  2  0
  2  4  1  0
  4  5  2  0
  5  6  1  0
  6  7  2  0
  7  8  1  0
  8  9  2  0
  9 10  1  0
 10 11  2  0
 11 12  1  0
  7 13  1  0
 13  4  1  0
 12  8  1  0
A    1
 C1 
A    2
 C2 
A    3
 O1 
A    4
 C3 
A    5
 N1 
A    6
 N2 
A    7
 C4 
A    8
 C5 
A    9
 C6 
A   10
 C7 
A   11
 C8 
A   12
 O2 
A   13
 S1 
M  END
>  <ref_pdb>  (59) 
x0051_0B

>  <ref_mols>  (59) 
x0969_1B,x0553_0B

>  <original SMILES>  (59) 
CC(=O)c1nnc(-c2ccco2)s1

>  <index>  (59) 
52

>  <LE>  (59) 
0.2113946559722987

>  <∆∆G>  (59) 
-2.748130527639883

>  <percent_hybrid>  (59) 
0.0

>  <largest_ring>  (59) 
5

>  <N_rotatable_bonds>  (59) 
3

>  <UFF_Gibbs>  (59) 
41.625019400697596

>  <strain_per_HA>  (59) 
416250.1940069759

>  <N_PAINS>  (59) 
0

>  <N_interactions>  (59) 
1

>  <N_HA>  (59) 
13

>  <ad_hoc_penalty>  (59) 
416240.3293103039

>  <merger_rank>  (59) 
1

$$$$

     RDKit          3D

 17 19  0  0  0  0  0  0  0  0999 V2000
   -7.3440    5.4320  -18.5940 C   0  0  0  0  0  0  0  0  0  0  0  0
   -6.5960    6.2730  -17.7710 C   0  0  0  0  0  0  0  0  0  0  0  0
   -6.9580    6.4360  -16.4370 C   0  0  0  0  0  0  0  0  0  0  0  0
   -8.0630    5.7390  -16.0000 C   0  0  0  0  0  0  0  0  0  0  0  0
   -8.3960    5.9140  -14.6330 C   0  0  0  0  0  0  0  0  0  0  0  0
   -8.3280    7.2410  -13.9950 C   0  0  0  0  0  0  0  0  0  0  0  0
   -8.7980    7.1510  -12.3520 S   0  0  0  0  0  0  0  0  0  0  0  0
   -9.0290    5.4560  -12.5670 C   0  0  0  0  0  0  0  0  0  0  0  0
   -9.4330    4.6690  -11.5500 N   0  0  0  0  0  0  0  0  0  0  0  0
   -9.1890    4.7220  -10.2200 C   0  0  0  0  0  0  0  0  0  0  0  0
   -9.3230    3.5880   -9.3650 C   0  0  0  0  0  0  0  0  0  0  0  0
   -9.0280    3.8660   -8.0500 C   0  0  0  0  0  0  0  0  0  0  0  0
   -8.6710    5.1860   -7.8640 C   0  0  0  0  0  0  0  0  0  0  0  0
   -8.6980    6.0970   -9.3260 S   0  0  0  0  0  0  0  0  0  0  0  0
   -8.7840    5.0220  -13.7630 N   0  0  0  0  0  0  0  0  0  0  0  0
   -8.8150    4.9190  -16.7630 N   0  0  0  0  0  0  0  0  0  0  0  0
   -8.4370    4.7820  -18.0490 C   0  0  0  0  0  0  0  0  0  0  0  0
  1  2  2  0
  2  3  1  0
  3  4  2  0
  4  5  1  0
  5  6  2  0
  6  7  1  0
  7  8  1  0
  8  9  1  0
  9 10  1  0
 10 11  2  0
 11 12  1  0
 12 13  2  0
 13 14  1  0
  8 15  2  0
  4 16  1  0
 16 17  2  0
 17  1  1  0
 15  5  1  0
 14 10  1  0
A    1
 C1 
A    2
 C2 
A    3
 C3 
A    4
 C4 
A    5
 C5 
A    6
 C6 
A    7
 S1 
A    8
 C7 
A    9
 N1 
A   10
 C8 
A   11
 C9 
A   12
 C10
A   13
 C11
A   14
 S2 
A   15
 N2 
A   16
 N3 
A   17
 C12
M  END
>  <ref_pdb>  (60) 
x0051_0B

>  <ref_mols>  (60) 
x0404_0B,x0969_0B

>  <original SMILES>  (60) 
c1ccc(-c2csc(Nc3cccs3)n2)nc1

>  <index>  (60) 
53

>  <LE>  (60) 
0.2779070932061252

>  <∆∆G>  (60) 
-4.724420584504129

>  <percent_hybrid>  (60) 
0.0

>  <largest_ring>  (60) 
6

>  <N_rotatable_bonds>  (60) 
3

>  <UFF_Gibbs>  (60) 
41.721740022872396

>  <strain_per_HA>  (60) 
417217.40022872394

>  <N_PAINS>  (60) 
0

>  <N_interactions>  (60) 
4

>  <N_HA>  (60) 
17

>  <ad_hoc_penalty>  (60) 
417172.57386581687

>  <merger_rank>  (60) 
1

$$$$

     RDKit          3D

 14 16  0  0  0  0  0  0  0  0999 V2000
   -8.3490    4.6310  -16.8640 C   0  0  0  0  0  0  0  0  0  0  0  0
   -9.6990    4.6470  -16.6760 C   0  0  0  0  0  0  0  0  0  0  0  0
   -9.9810    4.8670  -15.3710 O   0  0  0  0  0  0  0  0  0  0  0  0
   -8.8120    4.9980  -14.6460 C   0  0  0  0  0  0  0  0  0  0  0  0
   -8.7520    5.2510  -13.2180 C   0  0  0  0  0  0  0  0  0  0  0  0
   -8.4870    6.5020  -12.7950 N   0  0  0  0  0  0  0  0  0  0  0  0
   -8.5040    6.4220  -11.4530 N   0  0  0  0  0  0  0  0  0  0  0  0
   -8.7640    5.1790  -10.9740 C   0  0  0  0  0  0  0  0  0  0  0  0
   -8.8460    4.7970   -9.6820 N   0  0  0  0  0  0  0  0  0  0  0  0
   -9.1200    3.4740   -9.6330 C   0  0  0  0  0  0  0  0  0  0  0  0
   -9.2920    2.6350  -10.6860 N   0  0  0  0  0  0  0  0  0  0  0  0
   -9.2020    3.0570  -11.8890 N   0  0  0  0  0  0  0  0  0  0  0  0
   -8.9310    4.3730  -12.0890 C   0  0  0  0  0  0  0  0  0  0  0  0
   -7.7820    4.8500  -15.5820 C   0  0  0  0  0  0  0  0  0  0  0  0
  1  2  2  0
  2  3  1  0
  3  4  1  0
  4  5  1  0
  5  6  2  0
  6  7  1  0
  7  8  1  0
  8  9  2  0
  9 10  1  0
 10 11  2  0
 11 12  1  0
 12 13  2  0
  4 14  2  0
 14  1  1  0
 13  5  1  0
 13  8  1  0
A    1
 C1 
A    2
 C2 
A    3
 O1 
A    4
 C3 
A    5
 C4 
A    6
 N1 
A    7
 N2 
A    8
 C5 
A    9
 N3 
A   10
 C6 
A   11
 N4 
A   12
 N5 
A   13
 C7 
A   14
 C8 
M  END
>  <ref_pdb>  (61) 
x0051_0B

>  <ref_mols>  (61) 
x0969_1B,x0553_0B

>  <original SMILES>  (61) 
c1coc(-c2n[nH]c3ncnnc23)c1

>  <index>  (61) 
54

>  <LE>  (61) 
0.19625047194844633

>  <∆∆G>  (61) 
-2.7475066072782486

>  <percent_hybrid>  (61) 
0.0

>  <largest_ring>  (61) 
6

>  <N_rotatable_bonds>  (61) 
1

>  <UFF_Gibbs>  (61) 
42.47026412001051

>  <strain_per_HA>  (61) 
424702.6412001051

>  <N_PAINS>  (61) 
0

>  <N_interactions>  (61) 
4

>  <N_HA>  (61) 
14

>  <ad_hoc_penalty>  (61) 
424653.6179778324

>  <merger_rank>  (61) 
1

$$$$

     RDKit          3D

 14 16  0  0  0  0  0  0  0  0999 V2000
   -9.2330    6.8840  -12.4540 O   0  0  0  0  0  0  0  0  0  0  0  0
   -8.9740    5.6860  -12.6240 C   0  0  0  0  0  0  0  0  0  0  0  0
   -8.6870    5.3080  -14.0390 C   0  0  0  0  0  0  0  0  0  0  0  0
   -7.4400    4.9720  -14.5560 N   0  0  0  0  0  0  0  0  0  0  0  0
   -8.0400    4.8420  -15.7480 N   0  0  0  0  0  0  0  0  0  0  0  0
   -8.0170    4.5750  -17.0660 C   0  0  0  0  0  0  0  0  0  0  0  0
   -9.3860    4.7610  -17.3050 C   0  0  0  0  0  0  0  0  0  0  0  0
  -10.1510    5.1150  -16.1840 N   0  0  0  0  0  0  0  0  0  0  0  0
   -9.2490    5.1470  -15.2800 C   0  0  0  0  0  0  0  0  0  0  0  0
   -8.9480    4.7630  -11.4890 C   0  0  0  0  0  0  0  0  0  0  0  0
   -8.9900    5.1830  -10.1330 C   0  0  0  0  0  0  0  0  0  0  0  0
   -8.9590    4.1020   -9.2650 C   0  0  0  0  0  0  0  0  0  0  0  0
   -8.8920    2.8880   -9.9050 C   0  0  0  0  0  0  0  0  0  0  0  0
   -8.8670    3.0680  -11.5910 S   0  0  0  0  0  0  0  0  0  0  0  0
  1  2  2  0
  2  3  1  0
  3  4  2  0
  4  5  1  0
  5  6  1  0
  6  7  2  0
  7  8  1  0
  8  9  2  0
  2 10  1  0
 10 11  2  0
 11 12  1  0
 12 13  2  0
 13 14  1  0
  9  3  1  0
 14 10  1  0
  9  5  1  0
A    1
 O1 
A    2
 C1 
A    3
 C2 
A    4
 N1 
A    5
 N2 
A    6
 C3 
A    7
 C4 
A    8
 N3 
A    9
 C5 
A   10
 C6 
A   11
 C7 
A   12
 C8 
A   13
 C9 
A   14
 S1 
M  END
>  <ref_pdb>  (62) 
x0051_0B

>  <ref_mols>  (62) 
x0969_1B,x0553_0B

>  <original SMILES>  (62) 
O=C(C1=Nn2ccnc21)c1cccs1

>  <index>  (62) 
55

>  <LE>  (62) 
0.32674720668207796

>  <∆∆G>  (62) 
-4.574460893549092

>  <percent_hybrid>  (62) 
0.0

>  <largest_ring>  (62) 
5

>  <N_rotatable_bonds>  (62) 
2

>  <UFF_Gibbs>  (62) 
42.72191891813634

>  <strain_per_HA>  (62) 
427219.1891813634

>  <N_PAINS>  (62) 
0

>  <N_interactions>  (62) 
2

>  <N_HA>  (62) 
14

>  <ad_hoc_penalty>  (62) 
427192.7281937637

>  <merger_rank>  (62) 
1

$$$$

     RDKit          3D

 19 21  0  0  0  0  0  0  0  0999 V2000
   -9.9800    5.4350  -15.4980 O   0  0  0  0  0  0  0  0  0  0  0  0
   -8.8640    5.8930  -15.6920 C   0  0  0  0  0  0  0  0  0  0  0  0
   -8.1910    6.7800  -14.8550 N   0  0  0  0  0  0  0  0  0  0  0  0
   -8.6690    7.3570  -13.6730 C   0  0  0  0  0  0  0  0  0  0  0  0
   -8.9320    8.5450  -13.5110 O   0  0  0  0  0  0  0  0  0  0  0  0
   -8.8130    6.3800  -12.5810 C   0  0  0  0  0  0  0  0  0  0  0  0
   -8.7050    6.7280  -11.3200 N   0  0  0  0  0  0  0  0  0  0  0  0
   -8.8700    5.6010  -10.5410 C   0  0  0  0  0  0  0  0  0  0  0  0
   -8.8210    5.5460   -9.1710 C   0  0  0  0  0  0  0  0  0  0  0  0
   -9.0070    4.3160   -8.5060 C   0  0  0  0  0  0  0  0  0  0  0  0
   -9.2490    3.1010   -9.1840 C   0  0  0  0  0  0  0  0  0  0  0  0
   -9.2970    3.1600  -10.5800 C   0  0  0  0  0  0  0  0  0  0  0  0
   -9.1080    4.4000  -11.2380 C   0  0  0  0  0  0  0  0  0  0  0  0
   -9.1180    4.7350  -12.9230 S   0  0  0  0  0  0  0  0  0  0  0  0
   -8.0720    5.5750  -16.8810 C   0  0  0  0  0  0  0  0  0  0  0  0
   -6.7970    5.9050  -16.9860 N   0  0  0  0  0  0  0  0  0  0  0  0
   -6.3240    5.4830  -18.2130 C   0  0  0  0  0  0  0  0  0  0  0  0
   -7.2320    4.8450  -19.0170 C   0  0  0  0  0  0  0  0  0  0  0  0
   -8.7510    4.7540  -18.2260 S   0  0  0  0  0  0  0  0  0  0  0  0
  1  2  2  0
  2  3  1  0
  3  4  1  0
  4  5  2  0
  4  6  1  0
  6  7  2  0
  7  8  1  0
  8  9  2  0
  9 10  1  0
 10 11  2  0
 11 12  1  0
 12 13  2  0
 13 14  1  0
  2 15  1  0
 15 16  2  0
 16 17  1  0
 17 18  2  0
 18 19  1  0
 14  6  1  0
 19 15  1  0
 13  8  1  0
A    1
 O1 
A    2
 C1 
A    3
 N1 
A    4
 C2 
A    5
 O2 
A    6
 C3 
A    7
 N2 
A    8
 C4 
A    9
 C5 
A   10
 C6 
A   11
 C7 
A   12
 C8 
A   13
 C9 
A   14
 S1 
A   15
 C10
A   16
 N3 
A   17
 C11
A   18
 C12
A   19
 S2 
M  END
>  <ref_pdb>  (63) 
x0051_0B

>  <ref_mols>  (63) 
x0404_0B,x0969_0B

>  <original SMILES>  (63) 
O=C(NC(=O)c1nc2ccccc2s1)c1nccs1

>  <index>  (63) 
56

>  <LE>  (63) 
0.3397225360724473

>  <∆∆G>  (63) 
-6.454728185376498

>  <percent_hybrid>  (63) 
0.0

>  <largest_ring>  (63) 
6

>  <N_rotatable_bonds>  (63) 
2

>  <UFF_Gibbs>  (63) 
42.76448950621578

>  <strain_per_HA>  (63) 
427644.89506215777

>  <N_PAINS>  (63) 
0

>  <N_interactions>  (63) 
4

>  <N_HA>  (63) 
19

>  <ad_hoc_penalty>  (63) 
427597.4209010086

>  <merger_rank>  (63) 
1

$$$$

     RDKit          3D

 18 20  0  0  0  0  0  0  0  0999 V2000
   -9.0110    3.5100   -9.2540 C   0  0  0  0  0  0  0  0  0  0  0  0
   -9.1090    3.5780  -10.6410 C   0  0  0  0  0  0  0  0  0  0  0  0
   -9.0270    4.8210  -11.2750 C   0  0  0  0  0  0  0  0  0  0  0  0
   -8.8480    5.9440  -10.4810 C   0  0  0  0  0  0  0  0  0  0  0  0
   -8.7490    7.1990  -11.1030 O   0  0  0  0  0  0  0  0  0  0  0  0
   -9.6450    7.3800  -12.1710 N   0  0  0  0  0  0  0  0  0  0  0  0
   -9.3860    6.8230  -13.3850 C   0  0  0  0  0  0  0  0  0  0  0  0
  -10.2450    6.1380  -14.1030 N   0  0  0  0  0  0  0  0  0  0  0  0
   -9.7210    5.6910  -15.2940 N   0  0  0  0  0  0  0  0  0  0  0  0
   -8.4700    6.0480  -15.4600 C   0  0  0  0  0  0  0  0  0  0  0  0
   -7.7310    5.6920  -16.6470 C   0  0  0  0  0  0  0  0  0  0  0  0
   -8.1970    5.0240  -17.7620 C   0  0  0  0  0  0  0  0  0  0  0  0
   -7.2020    4.8420  -18.7600 C   0  0  0  0  0  0  0  0  0  0  0  0
   -5.9980    5.3730  -18.3840 C   0  0  0  0  0  0  0  0  0  0  0  0
   -6.0690    6.0910  -16.8350 S   0  0  0  0  0  0  0  0  0  0  0  0
   -7.8400    6.9690  -14.1440 S   0  0  0  0  0  0  0  0  0  0  0  0
   -8.7520    5.9100   -9.1200 N   0  0  0  0  0  0  0  0  0  0  0  0
   -8.8360    4.6900   -8.5460 C   0  0  0  0  0  0  0  0  0  0  0  0
  1  2  2  0
  2  3  1  0
  3  4  2  0
  4  5  1  0
  5  6  1  0
  6  7  1  0
  7  8  2  0
  8  9  1  0
  9 10  2  0
 10 11  1  0
 11 12  2  0
 12 13  1  0
 13 14  2  0
 14 15  1  0
 10 16  1  0
  4 17  1  0
 17 18  2  0
 18  1  1  0
 16  7  1  0
 15 11  1  0
A    1
 C1 
A    2
 C2 
A    3
 C3 
A    4
 C4 
A    5
 O1 
A    6
 N1 
A    7
 C5 
A    8
 N2 
A    9
 N3 
A   10
 C6 
A   11
 C7 
A   12
 C8 
A   13
 C9 
A   14
 C10
A   15
 S1 
A   16
 S2 
A   17
 N4 
A   18
 C11
M  END
>  <ref_pdb>  (64) 
x0051_0B

>  <ref_mols>  (64) 
x0404_0B,x0969_0B

>  <original SMILES>  (64) 
c1ccc(ONc2nnc(-c3cccs3)s2)nc1

>  <index>  (64) 
57

>  <LE>  (64) 
0.34125856596031867

>  <∆∆G>  (64) 
-6.142654187285736

>  <percent_hybrid>  (64) 
0.0

>  <largest_ring>  (64) 
6

>  <N_rotatable_bonds>  (64) 
4

>  <UFF_Gibbs>  (64) 
43.34515886828868

>  <strain_per_HA>  (64) 
433451.58868288674

>  <N_PAINS>  (64) 
0

>  <N_interactions>  (64) 
2

>  <N_HA>  (64) 
18

>  <ad_hoc_penalty>  (64) 
433425.00488132983

>  <merger_rank>  (64) 
1

$$$$

     RDKit          3D

 18 20  0  0  0  0  0  0  0  0999 V2000
   -8.6970    3.6630   -8.4860 C   0  0  0  0  0  0  0  0  0  0  0  0
   -8.9000    4.4190   -9.7520 C   0  0  0  0  0  0  0  0  0  0  0  0
   -9.2920    3.9020  -10.9190 C   0  0  0  0  0  0  0  0  0  0  0  0
   -9.4220    4.7890  -11.9610 N   0  0  0  0  0  0  0  0  0  0  0  0
   -9.1210    5.9820  -11.5520 C   0  0  0  0  0  0  0  0  0  0  0  0
   -9.1240    7.1520  -12.2550 N   0  0  0  0  0  0  0  0  0  0  0  0
   -8.1360    7.5130  -13.1450 C   0  0  0  0  0  0  0  0  0  0  0  0
   -7.2970    8.3860  -12.9440 O   0  0  0  0  0  0  0  0  0  0  0  0
   -8.1780    6.7860  -14.3410 C   0  0  0  0  0  0  0  0  0  0  0  0
   -9.2080    6.0790  -14.7940 N   0  0  0  0  0  0  0  0  0  0  0  0
   -8.7510    5.5830  -15.9980 C   0  0  0  0  0  0  0  0  0  0  0  0
   -9.3400    4.7790  -16.9730 C   0  0  0  0  0  0  0  0  0  0  0  0
   -8.6510    4.4360  -18.0960 N   0  0  0  0  0  0  0  0  0  0  0  0
   -7.3750    4.8830  -18.2510 C   0  0  0  0  0  0  0  0  0  0  0  0
   -6.7060    5.6810  -17.3400 C   0  0  0  0  0  0  0  0  0  0  0  0
   -7.4540    6.0060  -16.2220 C   0  0  0  0  0  0  0  0  0  0  0  0
   -7.0780    6.7750  -15.1630 O   0  0  0  0  0  0  0  0  0  0  0  0
   -8.6600    6.1140   -9.9080 S   0  0  0  0  0  0  0  0  0  0  0  0
  1  2  1  0
  2  3  2  0
  3  4  1  0
  4  5  2  0
  5  6  1  0
  6  7  1  0
  7  8  2  0
  7  9  1  0
  9 10  2  0
 10 11  1  0
 11 12  2  0
 12 13  1  0
 13 14  2  0
 14 15  1  0
 15 16  2  0
 16 17  1  0
  5 18  1  0
 18  2  1  0
 17  9  1  0
 16 11  1  0
A    1
 C1 
A    2
 C2 
A    3
 C3 
A    4
 N1 
A    5
 C4 
A    6
 N2 
A    7
 C5 
A    8
 O1 
A    9
 C6 
A   10
 N3 
A   11
 C7 
A   12
 C8 
A   13
 N4 
A   14
 C9 
A   15
 C10
A   16
 C11
A   17
 O2 
A   18
 S1 
M  END
>  <ref_pdb>  (65) 
x0051_0B

>  <ref_mols>  (65) 
x0404_0B,x0969_0B

>  <original SMILES>  (65) 
Cc1cnc(NC(=O)c2nc3cnccc3o2)s1

>  <index>  (65) 
58

>  <LE>  (65) 
0.2292150913922327

>  <∆∆G>  (65) 
-4.125871645060188

>  <percent_hybrid>  (65) 
0.0

>  <largest_ring>  (65) 
6

>  <N_rotatable_bonds>  (65) 
3

>  <UFF_Gibbs>  (65) 
44.19666665897378

>  <strain_per_HA>  (65) 
441966.6665897378

>  <N_PAINS>  (65) 
0

>  <N_interactions>  (65) 
2

>  <N_HA>  (65) 
18

>  <ad_hoc_penalty>  (65) 
441943.1331358076

>  <merger_rank>  (65) 
1

$$$$

     RDKit          3D

 14 16  0  0  0  0  0  0  0  0999 V2000
   -8.2820    4.7140  -16.8940 C   0  0  0  0  0  0  0  0  0  0  0  0
   -9.6350    4.7200  -16.7070 C   0  0  0  0  0  0  0  0  0  0  0  0
   -9.9190    4.8630  -15.3940 O   0  0  0  0  0  0  0  0  0  0  0  0
   -8.7430    4.9510  -14.6690 C   0  0  0  0  0  0  0  0  0  0  0  0
   -8.7130    5.1060  -13.2370 C   0  0  0  0  0  0  0  0  0  0  0  0
   -8.9510    4.0810  -12.3880 C   0  0  0  0  0  0  0  0  0  0  0  0
   -8.9140    4.3720  -11.0450 N   0  0  0  0  0  0  0  0  0  0  0  0
   -9.2380    3.6460   -9.9380 C   0  0  0  0  0  0  0  0  0  0  0  0
   -9.0300    4.3760   -8.8660 N   0  0  0  0  0  0  0  0  0  0  0  0
   -8.5630    5.6110   -9.2800 N   0  0  0  0  0  0  0  0  0  0  0  0
   -8.4960    5.5980  -10.5970 C   0  0  0  0  0  0  0  0  0  0  0  0
   -8.1120    6.5300  -11.5170 N   0  0  0  0  0  0  0  0  0  0  0  0
   -8.4270    6.3680  -12.7370 N   0  0  0  0  0  0  0  0  0  0  0  0
   -7.7120    4.8600  -15.6030 C   0  0  0  0  0  0  0  0  0  0  0  0
  1  2  2  0
  2  3  1  0
  3  4  1  0
  4  5  1  0
  5  6  2  0
  6  7  1  0
  7  8  1  0
  8  9  2  0
  9 10  1  0
 10 11  2  0
 11 12  1  0
 12 13  2  0
  4 14  2  0
 14  1  1  0
 13  5  1  0
 11  7  1  0
A    1
 C1 
A    2
 C2 
A    3
 O1 
A    4
 C3 
A    5
 C4 
A    6
 C5 
A    7
 N1 
A    8
 C6 
A    9
 N2 
A   10
 N3 
A   11
 C7 
A   12
 N4 
A   13
 N5 
A   14
 C8 
M  END
>  <ref_pdb>  (66) 
x0051_0B

>  <ref_mols>  (66) 
x0969_1B,x0553_0B

>  <original SMILES>  (66) 
c1coc(-c2cn3cnnc3nn2)c1

>  <index>  (66) 
59

>  <LE>  (66) 
0.1867953246008904

>  <∆∆G>  (66) 
-2.6151345444124656

>  <percent_hybrid>  (66) 
0.0

>  <largest_ring>  (66) 
6

>  <N_rotatable_bonds>  (66) 
1

>  <UFF_Gibbs>  (66) 
44.863958509938925

>  <strain_per_HA>  (66) 
448639.58509938925

>  <N_PAINS>  (66) 
0

>  <N_interactions>  (66) 
2

>  <N_HA>  (66) 
14

>  <ad_hoc_penalty>  (66) 
448615.9379666969

>  <merger_rank>  (66) 
1

$$$$

     RDKit          3D

 13 14  0  0  0  0  0  0  0  0999 V2000
   -9.1900    4.7370  -17.8140 C   0  0  0  0  0  0  0  0  0  0  0  0
   -8.6080    4.9940  -16.4800 C   0  0  0  0  0  0  0  0  0  0  0  0
   -7.6660    5.8280  -16.1050 N   0  0  0  0  0  0  0  0  0  0  0  0
   -7.5160    5.6510  -14.7430 N   0  0  0  0  0  0  0  0  0  0  0  0
   -8.3700    4.7220  -14.3560 C   0  0  0  0  0  0  0  0  0  0  0  0
   -8.5690    4.2070  -13.1140 N   0  0  0  0  0  0  0  0  0  0  0  0
   -8.7930    4.9180  -12.0480 C   0  0  0  0  0  0  0  0  0  0  0  0
   -9.0060    4.4970  -10.6860 C   0  0  0  0  0  0  0  0  0  0  0  0
   -9.4740    3.3610  -10.0590 C   0  0  0  0  0  0  0  0  0  0  0  0
   -9.4550    3.5200   -8.6970 N   0  0  0  0  0  0  0  0  0  0  0  0
   -8.9820    4.7280   -8.5330 C   0  0  0  0  0  0  0  0  0  0  0  0
   -8.6860    5.3930   -9.6840 O   0  0  0  0  0  0  0  0  0  0  0  0
   -9.0990    4.2700  -15.4410 O   0  0  0  0  0  0  0  0  0  0  0  0
  1  2  1  0
  2  3  2  0
  3  4  1  0
  4  5  2  0
  5  6  1  0
  6  7  2  3
  7  8  1  0
  8  9  2  0
  9 10  1  0
 10 11  2  0
 11 12  1  0
  5 13  1  0
 13  2  1  0
 12  8  1  0
A    1
 C1 
A    2
 C2 
A    3
 N1 
A    4
 N2 
A    5
 C3 
A    6
 N3 
A    7
 C4 
A    8
 C5 
A    9
 C6 
A   10
 N4 
A   11
 C7 
A   12
 O1 
A   13
 O2 
M  END
>  <ref_pdb>  (67) 
x0051_0B

>  <ref_mols>  (67) 
x0969_1B,x0553_0B

>  <original SMILES>  (67) 
Cc1nnc(N=Cc2cnco2)o1

>  <index>  (67) 
60

>  <LE>  (67) 
0.2736061318907526

>  <∆∆G>  (67) 
-3.556879714579784

>  <percent_hybrid>  (67) 
0.0

>  <largest_ring>  (67) 
5

>  <N_rotatable_bonds>  (67) 
3

>  <UFF_Gibbs>  (67) 
45.24492292564058

>  <strain_per_HA>  (67) 
452449.2292564058

>  <N_PAINS>  (67) 
0

>  <N_interactions>  (67) 
3

>  <N_HA>  (67) 
13

>  <ad_hoc_penalty>  (67) 
452419.10617570224

>  <merger_rank>  (67) 
1

$$$$

     RDKit          3D

 16 17  0  0  0  0  0  0  0  0999 V2000
   -6.3860    4.9060  -18.3020 C   0  0  0  0  0  0  0  0  0  0  0  0
   -7.3030    5.2900  -17.2060 C   0  0  0  0  0  0  0  0  0  0  0  0
   -8.6690    5.1910  -17.1740 C   0  0  0  0  0  0  0  0  0  0  0  0
   -9.2110    5.6640  -15.9480 C   0  0  0  0  0  0  0  0  0  0  0  0
   -8.2070    6.1260  -15.0530 C   0  0  0  0  0  0  0  0  0  0  0  0
   -8.4380    6.6200  -13.8220 N   0  0  0  0  0  0  0  0  0  0  0  0
   -8.4160    5.8330  -12.7090 C   0  0  0  0  0  0  0  0  0  0  0  0
   -9.1070    5.9920  -11.5100 C   0  0  0  0  0  0  0  0  0  0  0  0
   -9.8740    7.1280  -11.5550 C   0  0  0  0  0  0  0  0  0  0  0  0
  -10.5160    8.0870  -11.6710 N   0  0  0  0  0  0  0  0  0  0  0  0
   -9.0040    5.0850  -10.4190 C   0  0  0  0  0  0  0  0  0  0  0  0
   -8.5460    3.7740  -10.3730 C   0  0  0  0  0  0  0  0  0  0  0  0
   -8.6550    3.3190   -9.0400 C   0  0  0  0  0  0  0  0  0  0  0  0
   -9.1750    4.3640   -8.3270 C   0  0  0  0  0  0  0  0  0  0  0  0
   -9.3860    5.4240   -9.1380 O   0  0  0  0  0  0  0  0  0  0  0  0
   -6.6660    5.9470  -15.7680 S   0  0  0  0  0  0  0  0  0  0  0  0
  1  2  1  0
  2  3  2  0
  3  4  1  0
  4  5  2  0
  5  6  1  0
  6  7  1  0
  7  8  2  3
  8  9  1  0
  9 10  3  0
  8 11  1  0
 11 12  2  0
 12 13  1  0
 13 14  2  0
 14 15  1  0
  5 16  1  0
 16  2  1  0
 15 11  1  0
A    1
 C1 
A    2
 C2 
A    3
 C3 
A    4
 C4 
A    5
 C5 
A    6
 N1 
A    7
 C6 
A    8
 C7 
A    9
 C8 
A   10
 N2 
A   11
 C9 
A   12
 C10
A   13
 C11
A   14
 C12
A   15
 O1 
A   16
 S1 
M  END
>  <ref_pdb>  (68) 
x0051_0B

>  <ref_mols>  (68) 
x0404_0B,x0969_0B

>  <original SMILES>  (68) 
Cc1ccc(NC=C(C#N)c2ccco2)s1

>  <index>  (68) 
61

>  <LE>  (68) 
0.33538324103342354

>  <∆∆G>  (68) 
-5.366131856534777

>  <percent_hybrid>  (68) 
0.0

>  <largest_ring>  (68) 
5

>  <N_rotatable_bonds>  (68) 
4

>  <UFF_Gibbs>  (68) 
45.382572222625456

>  <strain_per_HA>  (68) 
453825.7222262545

>  <N_PAINS>  (68) 
0

>  <N_interactions>  (68) 
2

>  <N_HA>  (68) 
16

>  <ad_hoc_penalty>  (68) 
453801.1979782923

>  <merger_rank>  (68) 
1

$$$$

     RDKit          3D

 17 19  0  0  0  0  0  0  0  0999 V2000
   -7.1760    5.1170  -19.4410 C   0  0  0  0  0  0  0  0  0  0  0  0
   -7.5330    5.4550  -18.0430 C   0  0  0  0  0  0  0  0  0  0  0  0
   -6.9020    6.3590  -17.3260 N   0  0  0  0  0  0  0  0  0  0  0  0
   -7.4610    6.3980  -16.0750 C   0  0  0  0  0  0  0  0  0  0  0  0
   -7.0140    7.2310  -15.0940 N   0  0  0  0  0  0  0  0  0  0  0  0
   -7.6780    7.0720  -13.9320 C   0  0  0  0  0  0  0  0  0  0  0  0
   -8.7140    6.1740  -13.7400 C   0  0  0  0  0  0  0  0  0  0  0  0
   -9.2950    6.0340  -12.4130 C   0  0  0  0  0  0  0  0  0  0  0  0
   -8.7460    5.1060  -11.6140 C   0  0  0  0  0  0  0  0  0  0  0  0
   -9.0050    4.6440  -10.3090 C   0  0  0  0  0  0  0  0  0  0  0  0
   -8.9250    5.2470   -9.0700 C   0  0  0  0  0  0  0  0  0  0  0  0
   -9.2680    4.3430   -8.0140 C   0  0  0  0  0  0  0  0  0  0  0  0
   -9.5980    3.0920   -8.4860 C   0  0  0  0  0  0  0  0  0  0  0  0
   -9.4970    3.0040  -10.1810 S   0  0  0  0  0  0  0  0  0  0  0  0
   -9.1940    5.3720  -14.7160 N   0  0  0  0  0  0  0  0  0  0  0  0
   -8.5180    5.5190  -15.8680 C   0  0  0  0  0  0  0  0  0  0  0  0
   -8.8380    4.6270  -17.2810 S   0  0  0  0  0  0  0  0  0  0  0  0
  1  2  1  0
  2  3  2  0
  3  4  1  0
  4  5  2  0
  5  6  1  0
  6  7  2  0
  7  8  1  0
  8  9  2  3
  9 10  1  0
 10 11  2  0
 11 12  1  0
 12 13  2  0
 13 14  1  0
  7 15  1  0
 15 16  2  0
 16 17  1  0
 17  2  1  0
 16  4  1  0
 14 10  1  0
A    1
 C1 
A    2
 C2 
A    3
 N1 
A    4
 C3 
A    5
 N2 
A    6
 C4 
A    7
 C5 
A    8
 C6 
A    9
 C7 
A   10
 C8 
A   11
 C9 
A   12
 C10
A   13
 C11
A   14
 S1 
A   15
 N3 
A   16
 C12
A   17
 S2 
M  END
>  <ref_pdb>  (69) 
x0051_0B

>  <ref_mols>  (69) 
x0404_0B,x0969_0B

>  <original SMILES>  (69) 
Cc1nc2ncc(C=Cc3cccs3)nc2s1

>  <index>  (69) 
62

>  <LE>  (69) 
0.38491177713361663

>  <∆∆G>  (69) 
-6.543500211271483

>  <percent_hybrid>  (69) 
0.0

>  <largest_ring>  (69) 
6

>  <N_rotatable_bonds>  (69) 
3

>  <UFF_Gibbs>  (69) 
45.412720730025455

>  <strain_per_HA>  (69) 
454127.20730025455

>  <N_PAINS>  (69) 
0

>  <N_interactions>  (69) 
2

>  <N_HA>  (69) 
17

>  <ad_hoc_penalty>  (69) 
454096.27807582077

>  <merger_rank>  (69) 
1

$$$$

     RDKit          3D

 17 19  0  0  0  0  0  0  0  0999 V2000
   -8.0390    4.7480  -18.6440 C   0  0  0  0  0  0  0  0  0  0  0  0
   -7.5780    5.3670  -17.4870 C   0  0  0  0  0  0  0  0  0  0  0  0
   -7.3000    6.5590  -17.5800 O   0  0  0  0  0  0  0  0  0  0  0  0
   -7.4480    4.7000  -16.3520 N   0  0  0  0  0  0  0  0  0  0  0  0
   -7.8880    5.2250  -15.1610 C   0  0  0  0  0  0  0  0  0  0  0  0
   -8.3130    6.4780  -14.8820 C   0  0  0  0  0  0  0  0  0  0  0  0
   -8.6870    6.6130  -13.5320 C   0  0  0  0  0  0  0  0  0  0  0  0
   -9.1600    7.5340  -12.7000 N   0  0  0  0  0  0  0  0  0  0  0  0
   -9.3280    7.0590  -11.4320 N   0  0  0  0  0  0  0  0  0  0  0  0
   -8.9410    5.7850  -11.4790 C   0  0  0  0  0  0  0  0  0  0  0  0
   -8.9460    4.9140  -10.3360 C   0  0  0  0  0  0  0  0  0  0  0  0
   -8.9380    5.2800   -9.0010 C   0  0  0  0  0  0  0  0  0  0  0  0
   -8.9420    4.1650   -8.1190 C   0  0  0  0  0  0  0  0  0  0  0  0
   -8.9520    2.9720   -8.7990 C   0  0  0  0  0  0  0  0  0  0  0  0
   -8.9580    3.2000  -10.4930 S   0  0  0  0  0  0  0  0  0  0  0  0
   -8.5220    5.4390  -12.8130 C   0  0  0  0  0  0  0  0  0  0  0  0
   -7.9090    4.1640  -13.8210 S   0  0  0  0  0  0  0  0  0  0  0  0
  1  2  1  0
  2  3  2  0
  2  4  1  0
  4  5  1  0
  5  6  2  0
  6  7  1  0
  7  8  1  0
  8  9  1  0
  9 10  2  0
 10 11  1  0
 11 12  2  0
 12 13  1  0
 13 14  2  0
 14 15  1  0
 10 16  1  0
 16 17  1  0
 17  5  1  0
 16  7  2  0
 15 11  1  0
A    1
 C1 
A    2
 C2 
A    3
 O1 
A    4
 N1 
A    5
 C3 
A    6
 C4 
A    7
 C5 
A    8
 N2 
A    9
 N3 
A   10
 C6 
A   11
 C7 
A   12
 C8 
A   13
 C9 
A   14
 C10
A   15
 S1 
A   16
 C11
A   17
 S2 
M  END
>  <ref_pdb>  (70) 
x0051_0B

>  <ref_mols>  (70) 
x0404_0B,x0969_0B

>  <original SMILES>  (70) 
CC(=O)Nc1cc2[nH]nc(-c3cccs3)c2s1

>  <index>  (70) 
63

>  <LE>  (70) 
0.3467870045827844

>  <∆∆G>  (70) 
-5.895379077907335

>  <percent_hybrid>  (70) 
0.0

>  <largest_ring>  (70) 
5

>  <N_rotatable_bonds>  (70) 
3

>  <UFF_Gibbs>  (70) 
46.17516586336038

>  <strain_per_HA>  (70) 
461751.6586336038

>  <N_PAINS>  (70) 
0

>  <N_interactions>  (70) 
5

>  <N_HA>  (70) 
17

>  <ad_hoc_penalty>  (70) 
461694.2440732491

>  <merger_rank>  (70) 
1

$$$$

     RDKit          3D

 14 15  0  0  0  0  0  0  0  0999 V2000
   -8.7800    7.0480  -12.3310 N   0  0  0  0  0  0  0  0  0  0  0  0
   -8.0360    6.0740  -12.9360 C   0  0  0  0  0  0  0  0  0  0  0  0
   -8.6510    4.9010  -13.5170 C   0  0  0  0  0  0  0  0  0  0  0  0
   -9.0790    3.9970  -12.6640 N   0  0  0  0  0  0  0  0  0  0  0  0
   -9.0180    4.0790  -11.3390 C   0  0  0  0  0  0  0  0  0  0  0  0
   -8.7770    5.1510  -10.5360 N   0  0  0  0  0  0  0  0  0  0  0  0
   -8.8100    4.8280   -9.2860 C   0  0  0  0  0  0  0  0  0  0  0  0
   -9.0860    3.4500   -8.9780 C   0  0  0  0  0  0  0  0  0  0  0  0
   -9.2970    2.6050  -10.4450 S   0  0  0  0  0  0  0  0  0  0  0  0
   -8.7150    4.8590  -14.9890 C   0  0  0  0  0  0  0  0  0  0  0  0
   -7.6690    4.7240  -15.9520 C   0  0  0  0  0  0  0  0  0  0  0  0
   -8.1300    4.7140  -17.2610 C   0  0  0  0  0  0  0  0  0  0  0  0
   -9.4960    4.8370  -17.3390 C   0  0  0  0  0  0  0  0  0  0  0  0
  -10.2110    4.9760  -15.8020 S   0  0  0  0  0  0  0  0  0  0  0  0
  1  2  2  3
  2  3  1  0
  3  4  2  3
  4  5  1  0
  5  6  2  0
  6  7  1  0
  7  8  2  0
  8  9  1  0
  3 10  1  0
 10 11  2  0
 11 12  1  0
 12 13  2  0
 13 14  1  0
  9  5  1  0
 14 10  1  0
A    1
 N1 
A    2
 C1 
A    3
 C2 
A    4
 N2 
A    5
 C3 
A    6
 N3 
A    7
 C4 
A    8
 C5 
A    9
 S1 
A   10
 C6 
A   11
 C7 
A   12
 C8 
A   13
 C9 
A   14
 S2 
M  END
>  <ref_pdb>  (71) 
x0051_0B

>  <ref_mols>  (71) 
x0969_1B,x0553_0B

>  <original SMILES>  (71) 
N=CC(=Nc1nccs1)c1cccs1

>  <index>  (71) 
64

>  <LE>  (71) 
0.273734397023435

>  <∆∆G>  (71) 
-3.83228155832809

>  <percent_hybrid>  (71) 
0.0

>  <largest_ring>  (71) 
5

>  <N_rotatable_bonds>  (71) 
3

>  <UFF_Gibbs>  (71) 
46.29189353835049

>  <strain_per_HA>  (71) 
462918.9353835049

>  <N_PAINS>  (71) 
0

>  <N_interactions>  (71) 
3

>  <N_HA>  (71) 
14

>  <ad_hoc_penalty>  (71) 
462891.40186352725

>  <merger_rank>  (71) 
1

$$$$

     RDKit          3D

 17 19  0  0  0  0  0  0  0  0999 V2000
  -11.0110    7.5050  -14.0950 C   0  0  0  0  0  0  0  0  0  0  0  0
  -10.4630    8.4970  -13.3520 C   0  0  0  0  0  0  0  0  0  0  0  0
  -11.0410    9.5300  -12.5400 C   0  0  0  0  0  0  0  0  0  0  0  0
  -10.4240    9.8940  -11.4370 N   0  0  0  0  0  0  0  0  0  0  0  0
  -11.0840   10.9080  -10.8040 C   0  0  0  0  0  0  0  0  0  0  0  0
  -12.2230   11.3480  -11.4070 C   0  0  0  0  0  0  0  0  0  0  0  0
  -13.0130   12.4030  -10.8870 C   0  0  0  0  0  0  0  0  0  0  0  0
  -12.6310   13.6770  -10.4920 C   0  0  0  0  0  0  0  0  0  0  0  0
  -13.7790   14.3430  -10.0410 C   0  0  0  0  0  0  0  0  0  0  0  0
  -14.7660   13.4370  -10.1910 C   0  0  0  0  0  0  0  0  0  0  0  0
  -14.3350   12.2780  -10.6920 O   0  0  0  0  0  0  0  0  0  0  0  0
  -12.5010   10.4340  -12.8400 S   0  0  0  0  0  0  0  0  0  0  0  0
  -10.1240    6.6390  -14.8630 C   0  0  0  0  0  0  0  0  0  0  0  0
  -10.2420    5.6130  -15.8300 C   0  0  0  0  0  0  0  0  0  0  0  0
   -8.9540    5.2010  -16.2220 C   0  0  0  0  0  0  0  0  0  0  0  0
   -8.0890    5.9610  -15.4990 C   0  0  0  0  0  0  0  0  0  0  0  0
   -8.7610    6.8120  -14.6930 O   0  0  0  0  0  0  0  0  0  0  0  0
  1  2  2  3
  2  3  1  0
  3  4  2  0
  4  5  1  0
  5  6  2  0
  6  7  1  0
  7  8  2  0
  8  9  1  0
  9 10  2  0
 10 11  1  0
  6 12  1  0
  1 13  1  0
 13 14  2  0
 14 15  1  0
 15 16  2  0
 16 17  1  0
 12  3  1  0
 17 13  1  0
 11  7  1  0
A    1
 C1 
A    2
 C2 
A    3
 C3 
A    4
 N1 
A    5
 C4 
A    6
 C5 
A    7
 C6 
A    8
 C7 
A    9
 C8 
A   10
 C9 
A   11
 O1 
A   12
 S1 
A   13
 C10
A   14
 C11
A   15
 C12
A   16
 C13
A   17
 O2 
M  END
>  <ref_pdb>  (72) 
x0051_0B

>  <ref_mols>  (72) 
x0846_0B,x0559_0B

>  <original SMILES>  (72) 
C(=Cc1ncc(-c2ccco2)s1)c1ccco1

>  <index>  (72) 
65

>  <LE>  (72) 
0.08578224392934906

>  <∆∆G>  (72) 
-1.458298146798934

>  <percent_hybrid>  (72) 
0.0

>  <largest_ring>  (72) 
5

>  <N_rotatable_bonds>  (72) 
3

>  <UFF_Gibbs>  (72) 
47.05457712122792

>  <strain_per_HA>  (72) 
470545.7712122792

>  <N_PAINS>  (72) 
0

>  <N_interactions>  (72) 
3

>  <N_HA>  (72) 
17

>  <ad_hoc_penalty>  (72) 
470506.0504643323

>  <merger_rank>  (72) 
1

$$$$

     RDKit          3D

 17 19  0  0  0  0  0  0  0  0999 V2000
   -8.0180    7.5140  -11.3620 O   0  0  0  0  0  0  0  0  0  0  0  0
   -8.6760    6.7980  -12.1070 C   0  0  0  0  0  0  0  0  0  0  0  0
   -9.0560    7.2540  -13.4510 C   0  0  0  0  0  0  0  0  0  0  0  0
   -8.7050    6.6060  -14.6000 C   0  0  0  0  0  0  0  0  0  0  0  0
   -7.5110    6.7270  -15.1600 N   0  0  0  0  0  0  0  0  0  0  0  0
   -7.5460    5.9700  -16.2680 C   0  0  0  0  0  0  0  0  0  0  0  0
   -6.5650    5.7760  -17.1790 N   0  0  0  0  0  0  0  0  0  0  0  0
   -7.0840    4.9310  -18.1310 C   0  0  0  0  0  0  0  0  0  0  0  0
   -8.3880    4.5970  -17.8080 C   0  0  0  0  0  0  0  0  0  0  0  0
   -8.6580    5.2810  -16.6010 C   0  0  0  0  0  0  0  0  0  0  0  0
   -9.8600    5.5720  -15.3980 S   0  0  0  0  0  0  0  0  0  0  0  0
   -9.1190    5.5370  -11.8180 N   0  0  0  0  0  0  0  0  0  0  0  0
   -8.8160    4.7380  -10.7670 C   0  0  0  0  0  0  0  0  0  0  0  0
   -9.4520    3.6350  -10.6030 N   0  0  0  0  0  0  0  0  0  0  0  0
   -8.9360    2.9870   -9.3860 C   0  0  0  0  0  0  0  0  0  0  0  0
   -8.1030    3.9130   -8.6260 N   0  0  0  0  0  0  0  0  0  0  0  0
   -7.5880    5.1490   -9.6130 S   0  0  0  0  0  0  0  0  0  0  0  0
  1  2  2  0
  2  3  1  0
  3  4  1  0
  4  5  2  0
  5  6  1  0
  6  7  1  0
  7  8  1  0
  8  9  2  0
  9 10  1  0
 10 11  1  0
  2 12  1  0
 12 13  1  0
 13 14  2  0
 14 15  1  0
 15 16  1  0
 16 17  1  0
 11  4  1  0
 17 13  1  0
 10  6  2  0
A    1
 O1 
A    2
 C1 
A    3
 C2 
A    4
 C3 
A    5
 N1 
A    6
 C4 
A    7
 N2 
A    8
 C5 
A    9
 C6 
A   10
 C7 
A   11
 S1 
A   12
 N3 
A   13
 C8 
A   14
 N4 
A   15
 C9 
A   16
 N5 
A   17
 S2 
M  END
>  <ref_pdb>  (73) 
x0051_0B

>  <ref_mols>  (73) 
x0404_0B,x0969_0B

>  <original SMILES>  (73) 
O=C(Cc1nc2[nH]ccc2s1)NC1=NCNS1

>  <index>  (73) 
66

>  <LE>  (73) 
0.35427748232625467

>  <∆∆G>  (73) 
-6.02271719954633

>  <percent_hybrid>  (73) 
0.0

>  <largest_ring>  (73) 
5

>  <N_rotatable_bonds>  (73) 
2

>  <UFF_Gibbs>  (73) 
47.28254756406919

>  <strain_per_HA>  (73) 
472825.4756406919

>  <N_PAINS>  (73) 
0

>  <N_interactions>  (73) 
3

>  <N_HA>  (73) 
17

>  <ad_hoc_penalty>  (73) 
472782.376814264

>  <merger_rank>  (73) 
1

$$$$

     RDKit          3D

 18 20  0  0  0  0  0  0  0  0999 V2000
   -8.9150    2.5740   -9.1850 C   0  0  0  0  0  0  0  0  0  0  0  0
   -8.9080    3.9310   -9.5220 C   0  0  0  0  0  0  0  0  0  0  0  0
   -8.9380    4.9280   -8.6620 N   0  0  0  0  0  0  0  0  0  0  0  0
   -8.9230    6.1610   -9.2820 N   0  0  0  0  0  0  0  0  0  0  0  0
   -8.8820    6.0760  -10.5890 C   0  0  0  0  0  0  0  0  0  0  0  0
   -8.8610    7.0630  -11.5070 N   0  0  0  0  0  0  0  0  0  0  0  0
   -9.1690    6.8700  -12.7910 C   0  0  0  0  0  0  0  0  0  0  0  0
   -8.3310    6.2920  -13.6230 N   0  0  0  0  0  0  0  0  0  0  0  0
   -8.9300    6.1890  -14.8740 C   0  0  0  0  0  0  0  0  0  0  0  0
   -8.2510    5.6250  -16.0270 C   0  0  0  0  0  0  0  0  0  0  0  0
   -6.8310    5.4920  -16.1140 C   0  0  0  0  0  0  0  0  0  0  0  0
   -6.1780    4.9790  -17.2190 C   0  0  0  0  0  0  0  0  0  0  0  0
   -7.0460    4.5890  -18.2860 C   0  0  0  0  0  0  0  0  0  0  0  0
   -8.3910    4.6850  -18.2540 N   0  0  0  0  0  0  0  0  0  0  0  0
   -8.9570    5.1910  -17.1360 C   0  0  0  0  0  0  0  0  0  0  0  0
  -10.1600    6.6430  -15.0140 N   0  0  0  0  0  0  0  0  0  0  0  0
  -10.6360    7.2880  -13.5770 S   0  0  0  0  0  0  0  0  0  0  0  0
   -8.8560    4.4390  -11.1580 S   0  0  0  0  0  0  0  0  0  0  0  0
  1  2  1  0
  2  3  2  0
  3  4  1  0
  4  5  2  0
  5  6  1  0
  6  7  1  0
  7  8  2  0
  8  9  1  0
  9 10  1  0
 10 11  2  0
 11 12  1  0
 12 13  2  0
 13 14  1  0
 14 15  2  0
  9 16  2  0
 16 17  1  0
  5 18  1  0
 18  2  1  0
 17  7  1  0
 15 10  1  0
A    1
 C1 
A    2
 C2 
A    3
 N1 
A    4
 N2 
A    5
 C3 
A    6
 N3 
A    7
 C4 
A    8
 N4 
A    9
 C5 
A   10
 C6 
A   11
 C7 
A   12
 C8 
A   13
 C9 
A   14
 N5 
A   15
 C10
A   16
 N6 
A   17
 S1 
A   18
 S2 
M  END
>  <ref_pdb>  (74) 
x0051_0B

>  <ref_mols>  (74) 
x0404_0B,x0969_0B

>  <original SMILES>  (74) 
Cc1nnc(Nc2nc(-c3cccnc3)ns2)s1

>  <index>  (74) 
67

>  <LE>  (74) 
0.24817304354689737

>  <∆∆G>  (74) 
-4.467114783844153

>  <percent_hybrid>  (74) 
0.0

>  <largest_ring>  (74) 
6

>  <N_rotatable_bonds>  (74) 
4

>  <UFF_Gibbs>  (74) 
47.44257834331874

>  <strain_per_HA>  (74) 
474425.7834331874

>  <N_PAINS>  (74) 
0

>  <N_interactions>  (74) 
4

>  <N_HA>  (74) 
18

>  <ad_hoc_penalty>  (74) 
474382.81685560895

>  <merger_rank>  (74) 
1

$$$$

     RDKit          3D

 17 18  0  0  0  0  0  0  0  0999 V2000
   -6.5440    5.0290  -18.1620 C   0  0  0  0  0  0  0  0  0  0  0  0
   -8.0450    5.1050  -17.9970 C   0  0  0  0  0  0  0  0  0  0  0  0
   -8.4360    5.4950  -16.6140 C   0  0  0  0  0  0  0  0  0  0  0  0
   -9.5380    5.0870  -16.0220 N   0  0  0  0  0  0  0  0  0  0  0  0
   -9.6740    5.6110  -14.7580 N   0  0  0  0  0  0  0  0  0  0  0  0
   -8.6670    6.3940  -14.4430 C   0  0  0  0  0  0  0  0  0  0  0  0
   -8.6000    7.0740  -13.1640 C   0  0  0  0  0  0  0  0  0  0  0  0
   -8.2970    8.2560  -13.0330 O   0  0  0  0  0  0  0  0  0  0  0  0
   -8.9330    6.2060  -12.1430 N   0  0  0  0  0  0  0  0  0  0  0  0
   -8.6860    6.3840  -10.7970 C   0  0  0  0  0  0  0  0  0  0  0  0
   -8.3980    7.4650  -10.2930 O   0  0  0  0  0  0  0  0  0  0  0  0
   -8.8080    5.1590  -10.0300 C   0  0  0  0  0  0  0  0  0  0  0  0
   -8.7130    4.8550   -8.6830 C   0  0  0  0  0  0  0  0  0  0  0  0
   -8.9360    3.4610   -8.5620 C   0  0  0  0  0  0  0  0  0  0  0  0
   -9.1550    2.9930   -9.8320 C   0  0  0  0  0  0  0  0  0  0  0  0
   -9.0770    4.0080  -10.7230 O   0  0  0  0  0  0  0  0  0  0  0  0
   -7.4690    6.5420  -15.6500 S   0  0  0  0  0  0  0  0  0  0  0  0
  1  2  1  0
  2  3  1  0
  3  4  2  0
  4  5  1  0
  5  6  2  0
  6  7  1  0
  7  8  2  0
  7  9  1  0
  9 10  1  0
 10 11  2  0
 10 12  1  0
 12 13  2  0
 13 14  1  0
 14 15  2  0
 15 16  1  0
  6 17  1  0
 17  3  1  0
 16 12  1  0
A    1
 C1 
A    2
 C2 
A    3
 C3 
A    4
 N1 
A    5
 N2 
A    6
 C4 
A    7
 C5 
A    8
 O1 
A    9
 N3 
A   10
 C6 
A   11
 O2 
A   12
 C7 
A   13
 C8 
A   14
 C9 
A   15
 C10
A   16
 O3 
A   17
 S1 
M  END
>  <ref_pdb>  (75) 
x0051_0B

>  <ref_mols>  (75) 
x0404_0B,x0969_0B

>  <original SMILES>  (75) 
CCc1nnc(C(=O)NC(=O)c2ccco2)s1

>  <index>  (75) 
68

>  <LE>  (75) 
0.2975824881662092

>  <∆∆G>  (75) 
-5.058902298825556

>  <percent_hybrid>  (75) 
0.0

>  <largest_ring>  (75) 
5

>  <N_rotatable_bonds>  (75) 
4

>  <UFF_Gibbs>  (75) 
47.98074056003382

>  <strain_per_HA>  (75) 
479807.4056003382

>  <N_PAINS>  (75) 
0

>  <N_interactions>  (75) 
4

>  <N_HA>  (75) 
17

>  <ad_hoc_penalty>  (75) 
479767.84451089747

>  <merger_rank>  (75) 
1

$$$$

     RDKit          3D

 14 15  0  0  0  0  0  0  0  0999 V2000
   -9.2420    3.5220   -8.2570 N   0  0  0  0  0  0  0  0  0  0  0  0
   -8.9530    4.1430   -9.4020 C   0  0  0  0  0  0  0  0  0  0  0  0
   -8.3720    5.3290   -9.4850 N   0  0  0  0  0  0  0  0  0  0  0  0
   -8.1880    5.7340  -10.7910 N   0  0  0  0  0  0  0  0  0  0  0  0
   -8.6390    4.8410  -11.6470 C   0  0  0  0  0  0  0  0  0  0  0  0
   -8.5820    4.9970  -13.0650 C   0  0  0  0  0  0  0  0  0  0  0  0
   -7.5220    5.3170  -13.7920 N   0  0  0  0  0  0  0  0  0  0  0  0
   -7.9310    5.3310  -15.1140 N   0  0  0  0  0  0  0  0  0  0  0  0
   -9.2080    5.0220  -15.1120 C   0  0  0  0  0  0  0  0  0  0  0  0
  -10.1900    4.8910  -16.5390 S   0  0  0  0  0  0  0  0  0  0  0  0
   -8.9660    4.8390  -17.8540 C   0  0  0  0  0  0  0  0  0  0  0  0
   -7.9920    5.8530  -17.7050 O   0  0  0  0  0  0  0  0  0  0  0  0
   -9.6730    4.8120  -13.8520 O   0  0  0  0  0  0  0  0  0  0  0  0
   -9.3170    3.4420  -10.9180 S   0  0  0  0  0  0  0  0  0  0  0  0
  1  2  1  0
  2  3  2  0
  3  4  1  0
  4  5  2  0
  5  6  1  0
  6  7  2  0
  7  8  1  0
  8  9  2  0
  9 10  1  0
 10 11  1  0
 11 12  1  0
  9 13  1  0
  5 14  1  0
 14  2  1  0
 13  6  1  0
A    1
 N1 
A    2
 C1 
A    3
 N2 
A    4
 N3 
A    5
 C2 
A    6
 C3 
A    7
 N4 
A    8
 N5 
A    9
 C4 
A   10
 S1 
A   11
 C5 
A   12
 O1 
A   13
 O2 
A   14
 S2 
M  END
>  <ref_pdb>  (76) 
x0051_0B

>  <ref_mols>  (76) 
x0969_1B,x0553_0B

>  <original SMILES>  (76) 
Nc1nnc(-c2nnc(SCO)o2)s1

>  <index>  (76) 
69

>  <LE>  (76) 
0.21858396470794722

>  <∆∆G>  (76) 
-3.060175505911261

>  <percent_hybrid>  (76) 
0.0

>  <largest_ring>  (76) 
5

>  <N_rotatable_bonds>  (76) 
5

>  <UFF_Gibbs>  (76) 
48.495582951640145

>  <strain_per_HA>  (76) 
484955.82951640146

>  <N_PAINS>  (76) 
0

>  <N_interactions>  (76) 
2

>  <N_HA>  (76) 
14

>  <ad_hoc_penalty>  (76) 
484931.6865491709

>  <merger_rank>  (76) 
1

$$$$

     RDKit          3D

 16 17  0  0  0  0  0  0  0  0999 V2000
   -6.3890    5.0890  -17.2140 C   0  0  0  0  0  0  0  0  0  0  0  0
   -7.8270    5.3890  -17.2980 C   0  0  0  0  0  0  0  0  0  0  0  0
   -8.3950    5.6920  -16.0710 C   0  0  0  0  0  0  0  0  0  0  0  0
   -9.3830    4.9710  -15.5550 N   0  0  0  0  0  0  0  0  0  0  0  0
   -9.6650    5.6220  -14.3450 O   0  0  0  0  0  0  0  0  0  0  0  0
   -8.8160    6.6800  -14.2610 C   0  0  0  0  0  0  0  0  0  0  0  0
   -8.8700    7.5680  -13.1810 C   0  0  0  0  0  0  0  0  0  0  0  0
   -8.7680    8.7820  -13.3530 O   0  0  0  0  0  0  0  0  0  0  0  0
   -9.0590    7.0500  -11.9180 N   0  0  0  0  0  0  0  0  0  0  0  0
   -8.7540    5.7930  -11.4680 C   0  0  0  0  0  0  0  0  0  0  0  0
   -9.0550    5.2230  -10.2610 C   0  0  0  0  0  0  0  0  0  0  0  0
   -8.5440    3.9610  -10.3170 C   0  0  0  0  0  0  0  0  0  0  0  0
   -8.5250    2.8240   -9.3840 C   0  0  0  0  0  0  0  0  0  0  0  0
   -7.9410    3.7870  -11.5160 O   0  0  0  0  0  0  0  0  0  0  0  0
   -8.0740    4.9510  -12.2470 N   0  0  0  0  0  0  0  0  0  0  0  0
   -8.0010    6.7510  -15.3000 N   0  0  0  0  0  0  0  0  0  0  0  0
  1  2  1  0
  2  3  1  0
  3  4  2  0
  4  5  1  0
  5  6  1  0
  6  7  1  0
  7  8  2  0
  7  9  1  0
  9 10  1  0
 10 11  1  0
 11 12  2  0
 12 13  1  0
 12 14  1  0
 14 15  1  0
  6 16  2  0
 16  3  1  0
 15 10  2  0
A    1
 C1 
A    2
 C2 
A    3
 C3 
A    4
 N1 
A    5
 O1 
A    6
 C4 
A    7
 C5 
A    8
 O2 
A    9
 N2 
A   10
 C6 
A   11
 C7 
A   12
 C8 
A   13
 C9 
A   14
 O3 
A   15
 N3 
A   16
 N4 
M  END
>  <ref_pdb>  (77) 
x0051_0B

>  <ref_mols>  (77) 
x0404_0B,x0969_0B

>  <original SMILES>  (77) 
CCc1noc(C(=O)Nc2cc(C)on2)n1

>  <index>  (77) 
70

>  <LE>  (77) 
0.12200653167554124

>  <∆∆G>  (77) 
-1.9521045068086598

>  <percent_hybrid>  (77) 
0.0

>  <largest_ring>  (77) 
5

>  <N_rotatable_bonds>  (77) 
5

>  <UFF_Gibbs>  (77) 
48.53566918092609

>  <strain_per_HA>  (77) 
485356.6918092609

>  <N_PAINS>  (77) 
0

>  <N_interactions>  (77) 
3

>  <N_HA>  (77) 
16

>  <ad_hoc_penalty>  (77) 
485334.4122166202

>  <merger_rank>  (77) 
1

$$$$

     RDKit          3D

 16 17  0  0  0  0  0  0  0  0999 V2000
   -9.2220    4.1350   -8.1260 C   0  0  0  0  0  0  0  0  0  0  0  0
   -8.7620    5.4750   -8.6940 C   0  0  0  0  0  0  0  0  0  0  0  0
   -8.7820    5.4110  -10.1810 C   0  0  0  0  0  0  0  0  0  0  0  0
   -9.3130    4.3990  -10.8030 N   0  0  0  0  0  0  0  0  0  0  0  0
   -9.1770    4.5740  -12.1450 C   0  0  0  0  0  0  0  0  0  0  0  0
   -8.5420    5.7100  -12.5550 C   0  0  0  0  0  0  0  0  0  0  0  0
   -8.2870    6.0040  -13.9140 C   0  0  0  0  0  0  0  0  0  0  0  0
   -7.4470    6.8890  -14.4120 N   0  0  0  0  0  0  0  0  0  0  0  0
   -7.5200    6.7460  -15.7850 N   0  0  0  0  0  0  0  0  0  0  0  0
   -8.4030    5.7980  -16.0160 C   0  0  0  0  0  0  0  0  0  0  0  0
   -8.8120    5.3020  -17.2140 N   0  0  0  0  0  0  0  0  0  0  0  0
   -8.0020    5.1080  -18.2980 C   0  0  0  0  0  0  0  0  0  0  0  0
   -6.6300    5.7060  -18.1450 C   0  0  0  0  0  0  0  0  0  0  0  0
   -8.3150    4.5110  -19.3120 O   0  0  0  0  0  0  0  0  0  0  0  0
   -8.9290    5.3010  -14.8890 O   0  0  0  0  0  0  0  0  0  0  0  0
   -8.1020    6.6430  -11.1860 S   0  0  0  0  0  0  0  0  0  0  0  0
  1  2  1  0
  2  3  1  0
  3  4  2  0
  4  5  1  0
  5  6  2  0
  6  7  1  0
  7  8  2  0
  8  9  1  0
  9 10  2  0
 10 11  1  0
 11 12  1  0
 12 13  1  0
 12 14  2  0
 10 15  1  0
  6 16  1  0
 16  3  1  0
 15  7  1  0
A    1
 C1 
A    2
 C2 
A    3
 C3 
A    4
 N1 
A    5
 C4 
A    6
 C5 
A    7
 C6 
A    8
 N2 
A    9
 N3 
A   10
 C7 
A   11
 N4 
A   12
 C8 
A   13
 C9 
A   14
 O1 
A   15
 O2 
A   16
 S1 
M  END
>  <ref_pdb>  (78) 
x0051_0B

>  <ref_mols>  (78) 
x0404_0B,x0969_0B

>  <original SMILES>  (78) 
CCc1ncc(-c2nnc(NC(C)=O)o2)s1

>  <index>  (78) 
71

>  <LE>  (78) 
0.23110471546760408

>  <∆∆G>  (78) 
-3.6976754474816653

>  <percent_hybrid>  (78) 
0.0

>  <largest_ring>  (78) 
5

>  <N_rotatable_bonds>  (78) 
5

>  <UFF_Gibbs>  (78) 
48.91926190339163

>  <strain_per_HA>  (78) 
489192.6190339163

>  <N_PAINS>  (78) 
0

>  <N_interactions>  (78) 
3

>  <N_HA>  (78) 
16

>  <ad_hoc_penalty>  (78) 
489158.246267031

>  <merger_rank>  (78) 
1

$$$$

     RDKit          3D

 17 19  0  0  0  0  0  0  0  0999 V2000
   -7.4880    4.5520  -18.9490 C   0  0  0  0  0  0  0  0  0  0  0  0
   -7.5270    5.2660  -17.6620 C   0  0  0  0  0  0  0  0  0  0  0  0
   -6.9270    6.4250  -17.5910 N   0  0  0  0  0  0  0  0  0  0  0  0
   -6.9680    7.0930  -16.3970 N   0  0  0  0  0  0  0  0  0  0  0  0
   -7.6160    6.5540  -15.4170 C   0  0  0  0  0  0  0  0  0  0  0  0
   -7.8120    7.0790  -14.1300 C   0  0  0  0  0  0  0  0  0  0  0  0
   -8.4990    6.3600  -13.2780 C   0  0  0  0  0  0  0  0  0  0  0  0
   -8.7990    6.7160  -11.9390 C   0  0  0  0  0  0  0  0  0  0  0  0
   -8.9210    5.5150  -11.0690 C   0  0  0  0  0  0  0  0  0  0  0  0
   -9.0690    4.2510  -11.5460 N   0  0  0  0  0  0  0  0  0  0  0  0
   -9.1690    3.3270  -10.5460 N   0  0  0  0  0  0  0  0  0  0  0  0
   -9.0930    3.9030   -9.3140 C   0  0  0  0  0  0  0  0  0  0  0  0
   -9.1740    3.2030   -8.1260 C   0  0  0  0  0  0  0  0  0  0  0  0
   -8.8860    5.6160   -9.3480 S   0  0  0  0  0  0  0  0  0  0  0  0
   -8.9690    4.9060  -14.0680 S   0  0  0  0  0  0  0  0  0  0  0  0
   -8.2140    5.3500  -15.5390 C   0  0  0  0  0  0  0  0  0  0  0  0
   -8.2000    4.6320  -16.6680 N   0  0  0  0  0  0  0  0  0  0  0  0
  1  2  1  0
  2  3  2  0
  3  4  1  0
  4  5  2  0
  5  6  1  0
  6  7  2  0
  7  8  1  0
  8  9  1  0
  9 10  2  0
 10 11  1  0
 11 12  2  0
 12 13  1  0
 12 14  1  0
  7 15  1  0
 15 16  1  0
 16 17  2  0
 17  2  1  0
 16  5  1  0
 14  9  1  0
A    1
 C1 
A    2
 C2 
A    3
 N1 
A    4
 N2 
A    5
 C3 
A    6
 C4 
A    7
 C5 
A    8
 C6 
A    9
 C7 
A   10
 N3 
A   11
 N4 
A   12
 C8 
A   13
 C9 
A   14
 S1 
A   15
 S2 
A   16
 C10
A   17
 N5 
M  END
>  <ref_pdb>  (79) 
x0051_0B

>  <ref_mols>  (79) 
x0404_0B,x0969_0B

>  <original SMILES>  (79) 
Cc1nnc2cc(Cc3nnc(C)s3)sc2n1

>  <index>  (79) 
72

>  <LE>  (79) 
0.24276801139987458

>  <∆∆G>  (79) 
-4.127056193797868

>  <percent_hybrid>  (79) 
0.0

>  <largest_ring>  (79) 
6

>  <N_rotatable_bonds>  (79) 
4

>  <UFF_Gibbs>  (79) 
48.983977494913646

>  <strain_per_HA>  (79) 
489839.7749491364

>  <N_PAINS>  (79) 
0

>  <N_interactions>  (79) 
4

>  <N_HA>  (79) 
17

>  <ad_hoc_penalty>  (79) 
489798.582657264

>  <merger_rank>  (79) 
1

$$$$

     RDKit          3D

 20 23  0  0  0  0  0  0  0  0999 V2000
   -8.8930    2.8470   -9.2320 C   0  0  0  0  0  0  0  0  0  0  0  0
   -8.9950    3.8320   -8.2830 C   0  0  0  0  0  0  0  0  0  0  0  0
   -9.0640    5.0720   -8.9430 O   0  0  0  0  0  0  0  0  0  0  0  0
   -9.0060    4.8920  -10.2390 C   0  0  0  0  0  0  0  0  0  0  0  0
   -9.0440    5.9720  -11.1810 C   0  0  0  0  0  0  0  0  0  0  0  0
   -9.6970    7.0970  -11.0240 N   0  0  0  0  0  0  0  0  0  0  0  0
   -9.4620    7.8250  -12.1190 N   0  0  0  0  0  0  0  0  0  0  0  0
   -8.6680    7.1240  -12.9060 C   0  0  0  0  0  0  0  0  0  0  0  0
   -8.1430    7.4670  -14.1150 N   0  0  0  0  0  0  0  0  0  0  0  0
   -7.9460    6.6230  -15.1740 C   0  0  0  0  0  0  0  0  0  0  0  0
   -7.2760    6.8870  -16.2540 N   0  0  0  0  0  0  0  0  0  0  0  0
   -7.3650    5.8210  -17.0500 C   0  0  0  0  0  0  0  0  0  0  0  0
   -6.8400    5.7050  -18.2740 N   0  0  0  0  0  0  0  0  0  0  0  0
   -7.1170    4.5020  -18.7830 C   0  0  0  0  0  0  0  0  0  0  0  0
   -7.8160    3.4910  -18.1940 N   0  0  0  0  0  0  0  0  0  0  0  0
   -8.3280    3.6390  -16.9770 N   0  0  0  0  0  0  0  0  0  0  0  0
   -8.0850    4.8310  -16.4370 C   0  0  0  0  0  0  0  0  0  0  0  0
   -8.4600    5.3480  -15.2310 N   0  0  0  0  0  0  0  0  0  0  0  0
   -8.3720    5.9240  -12.3580 O   0  0  0  0  0  0  0  0  0  0  0  0
   -8.9020    3.5230  -10.4870 C   0  0  0  0  0  0  0  0  0  0  0  0
  1  2  2  0
  2  3  1  0
  3  4  1  0
  4  5  1  0
  5  6  2  0
  6  7  1  0
  7  8  2  0
  8  9  1  0
  9 10  1  0
 10 11  2  0
 11 12  1  0
 12 13  2  0
 13 14  1  0
 14 15  2  0
 15 16  1  0
 16 17  2  0
 17 18  1  0
  8 19  1  0
  4 20  2  0
 20  1  1  0
 19  5  1  0
 18 10  1  0
 17 12  1  0
A    1
 C1 
A    2
 C2 
A    3
 O1 
A    4
 C3 
A    5
 C4 
A    6
 N1 
A    7
 N2 
A    8
 C5 
A    9
 N3 
A   10
 C6 
A   11
 N4 
A   12
 C7 
A   13
 N5 
A   14
 C8 
A   15
 N6 
A   16
 N7 
A   17
 C9 
A   18
 N8 
A   19
 O2 
A   20
 C10
M  END
>  <ref_pdb>  (80) 
x0051_0B

>  <ref_mols>  (80) 
x0404_0B,x0969_0B

>  <original SMILES>  (80) 
c1coc(-c2nnc(Nc3nc4ncnnc4[nH]3)o2)c1

>  <index>  (80) 
73

>  <LE>  (80) 
0.17420820096944176

>  <∆∆G>  (80) 
-3.4841640193888352

>  <percent_hybrid>  (80) 
0.0

>  <largest_ring>  (80) 
6

>  <N_rotatable_bonds>  (80) 
3

>  <UFF_Gibbs>  (80) 
49.13030780610731

>  <strain_per_HA>  (80) 
491303.0780610731

>  <N_PAINS>  (80) 
0

>  <N_interactions>  (80) 
0

>  <N_HA>  (80) 
20

>  <ad_hoc_penalty>  (80) 
491296.6255690149

>  <merger_rank>  (80) 
1

$$$$

     RDKit          3D

 18 20  0  0  0  0  0  0  0  0999 V2000
   -9.2360    4.4200   -7.7530 C   0  0  0  0  0  0  0  0  0  0  0  0
   -9.0320    4.6320   -9.2430 C   0  0  0  0  0  0  0  0  0  0  0  0
   -8.9200    5.9110   -9.7740 C   0  0  0  0  0  0  0  0  0  0  0  0
   -8.7240    5.9460  -11.1470 C   0  0  0  0  0  0  0  0  0  0  0  0
   -8.5290    7.2670  -12.2260 S   0  0  0  0  0  0  0  0  0  0  0  0
   -8.3530    6.1430  -13.5020 C   0  0  0  0  0  0  0  0  0  0  0  0
   -8.1080    6.5310  -14.7900 C   0  0  0  0  0  0  0  0  0  0  0  0
   -7.4670    7.5330  -15.0660 O   0  0  0  0  0  0  0  0  0  0  0  0
   -8.6450    5.6380  -15.6880 N   0  0  0  0  0  0  0  0  0  0  0  0
   -8.1700    5.4710  -16.9460 C   0  0  0  0  0  0  0  0  0  0  0  0
   -7.1540    6.0000  -17.6990 C   0  0  0  0  0  0  0  0  0  0  0  0
   -7.1640    5.4200  -18.9740 C   0  0  0  0  0  0  0  0  0  0  0  0
   -8.2220    4.5360  -18.9310 C   0  0  0  0  0  0  0  0  0  0  0  0
   -8.8330    4.5600  -17.7070 O   0  0  0  0  0  0  0  0  0  0  0  0
   -8.4430    4.8770  -13.2060 N   0  0  0  0  0  0  0  0  0  0  0  0
   -8.6560    4.7590  -11.8670 C   0  0  0  0  0  0  0  0  0  0  0  0
   -8.7820    3.5520  -11.2850 N   0  0  0  0  0  0  0  0  0  0  0  0
   -8.9660    3.5090   -9.9850 N   0  0  0  0  0  0  0  0  0  0  0  0
  1  2  1  0
  2  3  2  0
  3  4  1  0
  4  5  1  0
  5  6  1  0
  6  7  1  0
  7  8  2  0
  7  9  1  0
  9 10  1  0
 10 11  2  0
 11 12  1  0
 12 13  2  0
 13 14  1  0
  6 15  2  0
 15 16  1  0
 16 17  1  0
 17 18  2  0
 18  2  1  0
 16  4  2  0
 14 10  1  0
A    1
 C1 
A    2
 C2 
A    3
 C3 
A    4
 C4 
A    5
 S1 
A    6
 C5 
A    7
 C6 
A    8
 O1 
A    9
 N1 
A   10
 C7 
A   11
 C8 
A   12
 C9 
A   13
 C10
A   14
 O2 
A   15
 N2 
A   16
 C11
A   17
 N3 
A   18
 N4 
M  END
>  <ref_pdb>  (81) 
x0051_0B

>  <ref_mols>  (81) 
x0404_0B,x0969_0B

>  <original SMILES>  (81) 
Cc1cc2sc(C(=O)Nc3ccco3)nc2nn1

>  <index>  (81) 
74

>  <LE>  (81) 
0.2564278465751787

>  <∆∆G>  (81) 
-4.615701238353217

>  <percent_hybrid>  (81) 
0.0

>  <largest_ring>  (81) 
6

>  <N_rotatable_bonds>  (81) 
3

>  <UFF_Gibbs>  (81) 
49.85854270065758

>  <strain_per_HA>  (81) 
498585.4270065758

>  <N_PAINS>  (81) 
0

>  <N_interactions>  (81) 
4

>  <N_HA>  (81) 
18

>  <ad_hoc_penalty>  (81) 
498542.8072637691

>  <merger_rank>  (81) 
1

$$$$

     RDKit          3D

 19 21  0  0  0  0  0  0  0  0999 V2000
   -7.6340    3.4530  -19.0540 Cl  0  0  0  0  0  0  0  0  0  0  0  0
   -7.7480    4.5980  -17.7910 C   0  0  0  0  0  0  0  0  0  0  0  0
   -6.7210    5.7020  -17.7040 C   0  0  0  0  0  0  0  0  0  0  0  0
   -6.9230    6.6270  -16.5710 C   0  0  0  0  0  0  0  0  0  0  0  0
   -7.9880    6.4600  -15.6830 C   0  0  0  0  0  0  0  0  0  0  0  0
   -8.0220    7.4230  -14.7060 O   0  0  0  0  0  0  0  0  0  0  0  0
   -8.4940    7.2820  -13.4890 C   0  0  0  0  0  0  0  0  0  0  0  0
   -9.1150    8.1550  -12.7360 N   0  0  0  0  0  0  0  0  0  0  0  0
   -9.3630    7.4940  -11.5560 N   0  0  0  0  0  0  0  0  0  0  0  0
   -8.8750    6.2710  -11.6870 C   0  0  0  0  0  0  0  0  0  0  0  0
   -8.8800    5.1950  -10.7240 C   0  0  0  0  0  0  0  0  0  0  0  0
   -8.6470    3.9560  -11.1740 N   0  0  0  0  0  0  0  0  0  0  0  0
   -8.6640    3.0030  -10.2730 C   0  0  0  0  0  0  0  0  0  0  0  0
   -8.9000    3.1720   -8.8840 C   0  0  0  0  0  0  0  0  0  0  0  0
   -9.1180    4.4960   -8.5640 C   0  0  0  0  0  0  0  0  0  0  0  0
   -9.1140    5.5220   -9.4510 N   0  0  0  0  0  0  0  0  0  0  0  0
   -8.3040    6.0800  -12.9220 O   0  0  0  0  0  0  0  0  0  0  0  0
   -8.9060    5.4140  -15.8230 C   0  0  0  0  0  0  0  0  0  0  0  0
   -8.7790    4.4970  -16.8680 C   0  0  0  0  0  0  0  0  0  0  0  0
  1  2  1  0
  2  3  2  0
  3  4  1  0
  4  5  2  0
  5  6  1  0
  6  7  1  0
  7  8  2  0
  8  9  1  0
  9 10  2  0
 10 11  1  0
 11 12  2  0
 12 13  1  0
 13 14  2  0
 14 15  1  0
 15 16  2  0
 10 17  1  0
  5 18  1  0
 18 19  2  0
 19  2  1  0
 17  7  1  0
 16 11  1  0
A    1
CL1 
A    2
 C1 
A    3
 C2 
A    4
 C3 
A    5
 C4 
A    6
 O1 
A    7
 C5 
A    8
 N1 
A    9
 N2 
A   10
 C6 
A   11
 C7 
A   12
 N3 
A   13
 C8 
A   14
 C9 
A   15
 C10
A   16
 N4 
A   17
 O2 
A   18
 C11
A   19
 C12
M  END
>  <ref_pdb>  (82) 
x0051_0B

>  <ref_mols>  (82) 
x0404_0B,x0969_0B

>  <original SMILES>  (82) 
Clc1ccc(Oc2nnc(-c3ncccn3)o2)cc1

>  <index>  (82) 
75

>  <LE>  (82) 
0.22333823634809585

>  <∆∆G>  (82) 
-4.243426490613821

>  <percent_hybrid>  (82) 
0.0

>  <largest_ring>  (82) 
6

>  <N_rotatable_bonds>  (82) 
3

>  <UFF_Gibbs>  (82) 
50.14534735153873

>  <strain_per_HA>  (82) 
501453.4735153873

>  <N_PAINS>  (82) 
0

>  <N_interactions>  (82) 
2

>  <N_HA>  (82) 
19

>  <ad_hoc_penalty>  (82) 
501429.94150685635

>  <merger_rank>  (82) 
1

$$$$

     RDKit          3D

 15 16  0  0  0  0  0  0  0  0999 V2000
   -8.8990    3.1590   -9.0020 C   0  0  0  0  0  0  0  0  0  0  0  0
   -8.8310    4.6810   -9.0970 C   0  0  0  0  0  0  0  0  0  0  0  0
   -8.6790    5.4060   -8.1160 O   0  0  0  0  0  0  0  0  0  0  0  0
   -8.9910    5.1020  -10.4650 N   0  0  0  0  0  0  0  0  0  0  0  0
   -8.7440    6.3230  -10.9720 C   0  0  0  0  0  0  0  0  0  0  0  0
   -9.0340    6.4210  -12.3250 C   0  0  0  0  0  0  0  0  0  0  0  0
   -8.3340    5.6770  -13.1840 C   0  0  0  0  0  0  0  0  0  0  0  0
   -8.5790    5.6140  -14.5490 C   0  0  0  0  0  0  0  0  0  0  0  0
   -9.8710    5.6140  -15.0210 C   0  0  0  0  0  0  0  0  0  0  0  0
   -9.8330    5.4650  -16.3950 N   0  0  0  0  0  0  0  0  0  0  0  0
   -8.5470    5.3960  -16.7950 C   0  0  0  0  0  0  0  0  0  0  0  0
   -7.7290    5.2670  -17.9330 C   0  0  0  0  0  0  0  0  0  0  0  0
   -6.4400    5.2830  -17.4570 C   0  0  0  0  0  0  0  0  0  0  0  0
   -6.4540    5.4210  -16.0650 C   0  0  0  0  0  0  0  0  0  0  0  0
   -7.7560    5.4880  -15.6780 N   0  0  0  0  0  0  0  0  0  0  0  0
  1  2  1  0
  2  3  2  0
  2  4  1  0
  4  5  2  3
  5  6  1  0
  6  7  2  3
  7  8  1  0
  8  9  2  0
  9 10  1  0
 10 11  1  0
 11 12  2  0
 12 13  1  0
 13 14  2  0
 14 15  1  0
 15  8  1  0
 15 11  1  0
A    1
 C1 
A    2
 C2 
A    3
 O1 
A    4
 N1 
A    5
 C3 
A    6
 C4 
A    7
 C5 
A    8
 C6 
A    9
 C7 
A   10
 N2 
A   11
 C8 
A   12
 C9 
A   13
 C10
A   14
 C11
A   15
 N3 
M  END
>  <ref_pdb>  (83) 
x0051_0B

>  <ref_mols>  (83) 
x0404_0B,x0969_0B

>  <original SMILES>  (83) 
CC(=O)N=CC=Cc1c[nH]c2cccn12

>  <index>  (83) 
76

>  <LE>  (83) 
0.26661379805891117

>  <∆∆G>  (83) 
-3.9992069708836677

>  <percent_hybrid>  (83) 
0.0

>  <largest_ring>  (83) 
5

>  <N_rotatable_bonds>  (83) 
3

>  <UFF_Gibbs>  (83) 
50.73410271631778

>  <strain_per_HA>  (83) 
507341.0271631778

>  <N_PAINS>  (83) 
0

>  <N_interactions>  (83) 
1

>  <N_HA>  (83) 
15

>  <ad_hoc_penalty>  (83) 
507325.4940083592

>  <merger_rank>  (83) 
1

$$$$

     RDKit          3D

 13 14  0  0  0  0  0  0  0  0999 V2000
   -9.7380    4.7080  -17.2220 C   0  0  0  0  0  0  0  0  0  0  0  0
   -8.5240    4.9220  -17.8220 C   0  0  0  0  0  0  0  0  0  0  0  0
   -7.3060    5.2750  -16.6780 S   0  0  0  0  0  0  0  0  0  0  0  0
   -8.3870    5.1470  -15.3390 C   0  0  0  0  0  0  0  0  0  0  0  0
   -7.9040    5.3500  -14.0660 N   0  0  0  0  0  0  0  0  0  0  0  0
   -8.2910    4.5220  -13.2010 N   0  0  0  0  0  0  0  0  0  0  0  0
   -8.3650    5.1260  -11.9870 N   0  0  0  0  0  0  0  0  0  0  0  0
   -8.7760    4.4570  -10.8750 C   0  0  0  0  0  0  0  0  0  0  0  0
   -8.6340    4.9740   -9.5620 C   0  0  0  0  0  0  0  0  0  0  0  0
   -9.1610    4.0070   -8.7460 C   0  0  0  0  0  0  0  0  0  0  0  0
   -9.5930    2.9800   -9.5030 O   0  0  0  0  0  0  0  0  0  0  0  0
   -9.3550    3.2560  -10.8340 N   0  0  0  0  0  0  0  0  0  0  0  0
   -9.6580    4.8410  -15.8040 C   0  0  0  0  0  0  0  0  0  0  0  0
  1  2  2  0
  2  3  1  0
  3  4  1  0
  4  5  1  0
  5  6  2  3
  6  7  1  0
  7  8  1  0
  8  9  1  0
  9 10  2  0
 10 11  1  0
 11 12  1  0
  4 13  2  0
 13  1  1  0
 12  8  2  0
A    1
 C1 
A    2
 C2 
A    3
 S1 
A    4
 C3 
A    5
 N1 
A    6
 N2 
A    7
 N3 
A    8
 C4 
A    9
 C5 
A   10
 C6 
A   11
 O1 
A   12
 N4 
A   13
 C7 
M  END
>  <ref_pdb>  (84) 
x0051_0B

>  <ref_mols>  (84) 
x0969_1B,x0553_0B

>  <original SMILES>  (84) 
c1csc(N=NNc2ccon2)c1

>  <index>  (84) 
77

>  <LE>  (84) 
0.24654061121034043

>  <∆∆G>  (84) 
-3.2050279457344257

>  <percent_hybrid>  (84) 
0.0

>  <largest_ring>  (84) 
5

>  <N_rotatable_bonds>  (84) 
3

>  <UFF_Gibbs>  (84) 
50.91751510087835

>  <strain_per_HA>  (84) 
509175.15100878343

>  <N_PAINS>  (84) 
1

>  <N_interactions>  (84) 
2

>  <N_HA>  (84) 
13

>  <ad_hoc_penalty>  (84) 
509175.99832002714

>  <merger_rank>  (84) 
1

$$$$

     RDKit          3D

 13 14  0  0  0  0  0  0  0  0999 V2000
   -8.6920    5.2000  -12.0510 C   0  0  0  0  0  0  0  0  0  0  0  0
   -8.5430    4.6720  -13.3940 N   0  0  0  0  0  0  0  0  0  0  0  0
   -8.3120    5.5710  -14.4060 N   0  0  0  0  0  0  0  0  0  0  0  0
   -8.5080    5.2910  -15.7330 C   0  0  0  0  0  0  0  0  0  0  0  0
   -7.6020    5.3760  -16.6950 N   0  0  0  0  0  0  0  0  0  0  0  0
   -8.1280    5.0320  -17.8560 C   0  0  0  0  0  0  0  0  0  0  0  0
   -9.5070    4.6500  -17.8760 C   0  0  0  0  0  0  0  0  0  0  0  0
  -10.0790    4.7730  -16.2730 S   0  0  0  0  0  0  0  0  0  0  0  0
   -8.9350    4.5490  -10.7850 C   0  0  0  0  0  0  0  0  0  0  0  0
   -8.8270    5.1130   -9.5950 N   0  0  0  0  0  0  0  0  0  0  0  0
   -9.1380    4.1870   -8.6160 C   0  0  0  0  0  0  0  0  0  0  0  0
   -9.4790    2.9310   -9.0660 C   0  0  0  0  0  0  0  0  0  0  0  0
   -9.4080    2.8990  -10.7760 S   0  0  0  0  0  0  0  0  0  0  0  0
  1  2  2  3
  2  3  1  0
  3  4  1  0
  4  5  2  0
  5  6  1  0
  6  7  2  0
  7  8  1  0
  1  9  1  0
  9 10  2  0
 10 11  1  0
 11 12  2  0
 12 13  1  0
  8  4  1  0
 13  9  1  0
A    1
 C1 
A    2
 N1 
A    3
 N2 
A    4
 C2 
A    5
 N3 
A    6
 C3 
A    7
 C4 
A    8
 S1 
A    9
 C5 
A   10
 N4 
A   11
 C6 
A   12
 C7 
A   13
 S2 
M  END
>  <ref_pdb>  (85) 
x0051_0B

>  <ref_mols>  (85) 
x0969_1B,x0553_0B

>  <original SMILES>  (85) 
C(=NNc1nccs1)c1nccs1

>  <index>  (85) 
78

>  <LE>  (85) 
0.43629935790695157

>  <∆∆G>  (85) 
-5.671891652790371

>  <percent_hybrid>  (85) 
0.0

>  <largest_ring>  (85) 
5

>  <N_rotatable_bonds>  (85) 
3

>  <UFF_Gibbs>  (85) 
50.98337688359352

>  <strain_per_HA>  (85) 
509833.7688359352

>  <N_PAINS>  (85) 
0

>  <N_interactions>  (85) 
1

>  <N_HA>  (85) 
13

>  <ad_hoc_penalty>  (85) 
509815.13285588776

>  <merger_rank>  (85) 
1

$$$$

     RDKit          3D

 19 22  0  0  0  0  0  0  0  0999 V2000
   -6.9870    5.7940  -18.5970 C   0  0  0  0  0  0  0  0  0  0  0  0
   -8.1090    4.9440  -18.6640 C   0  0  0  0  0  0  0  0  0  0  0  0
   -8.6510    4.8870  -17.4030 C   0  0  0  0  0  0  0  0  0  0  0  0
   -7.8980    5.6780  -16.5560 N   0  0  0  0  0  0  0  0  0  0  0  0
   -8.1610    5.8540  -15.1700 C   0  0  0  0  0  0  0  0  0  0  0  0
   -8.3240    7.0690  -14.5590 N   0  0  0  0  0  0  0  0  0  0  0  0
   -8.5480    6.7450  -13.3100 C   0  0  0  0  0  0  0  0  0  0  0  0
   -8.7920    7.5180  -12.2080 N   0  0  0  0  0  0  0  0  0  0  0  0
   -8.9490    6.8250  -11.1100 C   0  0  0  0  0  0  0  0  0  0  0  0
   -8.8600    5.3060  -11.0910 C   0  0  0  0  0  0  0  0  0  0  0  0
   -9.0040    4.5640   -9.8850 C   0  0  0  0  0  0  0  0  0  0  0  0
   -9.2550    3.2240   -9.7180 C   0  0  0  0  0  0  0  0  0  0  0  0
   -9.3090    2.9160   -8.3930 N   0  0  0  0  0  0  0  0  0  0  0  0
   -9.0920    4.0620   -7.7980 C   0  0  0  0  0  0  0  0  0  0  0  0
   -8.8990    5.1240   -8.6350 O   0  0  0  0  0  0  0  0  0  0  0  0
   -8.6480    4.6100  -12.1490 N   0  0  0  0  0  0  0  0  0  0  0  0
   -8.4960    5.3660  -13.2280 N   0  0  0  0  0  0  0  0  0  0  0  0
   -8.2550    4.7900  -14.3980 N   0  0  0  0  0  0  0  0  0  0  0  0
   -6.8760    6.2340  -17.2960 C   0  0  0  0  0  0  0  0  0  0  0  0
  1  2  1  0
  2  3  2  0
  3  4  1  0
  4  5  1  0
  5  6  1  0
  6  7  2  0
  7  8  1  0
  8  9  2  0
  9 10  1  0
 10 11  1  0
 11 12  2  0
 12 13  1  0
 13 14  2  0
 14 15  1  0
 10 16  2  0
 16 17  1  0
 17 18  1  0
  4 19  1  0
 19  1  2  0
 18  5  2  0
 17  7  1  0
 15 11  1  0
A    1
 C1 
A    2
 C2 
A    3
 C3 
A    4
 N1 
A    5
 C4 
A    6
 N2 
A    7
 C5 
A    8
 N3 
A    9
 C6 
A   10
 C7 
A   11
 C8 
A   12
 C9 
A   13
 N4 
A   14
 C10
A   15
 O1 
A   16
 N5 
A   17
 N6 
A   18
 N7 
A   19
 C11
M  END
>  <ref_pdb>  (86) 
x0051_0B

>  <ref_mols>  (86) 
x0404_0B,x0969_0B

>  <original SMILES>  (86) 
c1ccn(-c2nc3ncc(-c4cnco4)nn3n2)c1

>  <index>  (86) 
79

>  <LE>  (86) 
0.19366263327724154

>  <∆∆G>  (86) 
-3.679590032267589

>  <percent_hybrid>  (86) 
0.0

>  <largest_ring>  (86) 
6

>  <N_rotatable_bonds>  (86) 
2

>  <UFF_Gibbs>  (86) 
51.050482089599925

>  <strain_per_HA>  (86) 
510504.8208959992

>  <N_PAINS>  (86) 
0

>  <N_interactions>  (86) 
4

>  <N_HA>  (86) 
19

>  <ad_hoc_penalty>  (86) 
510456.9647185333

>  <merger_rank>  (86) 
1

$$$$

     RDKit          3D

 18 20  0  0  0  0  0  0  0  0999 V2000
   -8.2360    5.7080  -15.0560 C   0  0  0  0  0  0  0  0  0  0  0  0
   -9.4400    6.3340  -14.4790 C   0  0  0  0  0  0  0  0  0  0  0  0
   -9.3720    6.4690  -13.1130 C   0  0  0  0  0  0  0  0  0  0  0  0
   -9.2350    5.4210  -12.3070 N   0  0  0  0  0  0  0  0  0  0  0  0
   -9.1800    5.7960  -10.9840 C   0  0  0  0  0  0  0  0  0  0  0  0
   -9.0540    4.8410   -9.9860 C   0  0  0  0  0  0  0  0  0  0  0  0
   -8.7800    5.2320   -8.7100 N   0  0  0  0  0  0  0  0  0  0  0  0
   -8.7060    4.1600   -7.8890 C   0  0  0  0  0  0  0  0  0  0  0  0
   -8.9060    2.9210   -8.4440 C   0  0  0  0  0  0  0  0  0  0  0  0
   -9.2090    3.1150  -10.1320 S   0  0  0  0  0  0  0  0  0  0  0  0
   -9.2700    7.1590  -10.7710 C   0  0  0  0  0  0  0  0  0  0  0  0
   -9.4330    7.9820  -12.2680 S   0  0  0  0  0  0  0  0  0  0  0  0
   -7.8720    5.4040  -16.4300 C   0  0  0  0  0  0  0  0  0  0  0  0
   -8.7970    5.2060  -17.3770 N   0  0  0  0  0  0  0  0  0  0  0  0
   -8.3220    4.9510  -18.6130 C   0  0  0  0  0  0  0  0  0  0  0  0
   -6.9840    4.8840  -18.9110 C   0  0  0  0  0  0  0  0  0  0  0  0
   -6.1330    5.0960  -17.8600 C   0  0  0  0  0  0  0  0  0  0  0  0
   -6.5490    5.3580  -16.6170 N   0  0  0  0  0  0  0  0  0  0  0  0
  1  2  2  3
  2  3  1  0
  3  4  2  0
  4  5  1  0
  5  6  1  0
  6  7  2  0
  7  8  1  0
  8  9  2  0
  9 10  1  0
  5 11  2  0
 11 12  1  0
  1 13  1  0
 13 14  2  0
 14 15  1  0
 15 16  2  0
 16 17  1  0
 17 18  2  0
 12  3  1  0
 18 13  1  0
 10  6  1  0
A    1
 C1 
A    2
 C2 
A    3
 C3 
A    4
 N1 
A    5
 C4 
A    6
 C5 
A    7
 N2 
A    8
 C6 
A    9
 C7 
A   10
 S1 
A   11
 C8 
A   12
 S2 
A   13
 C9 
A   14
 N3 
A   15
 C10
A   16
 C11
A   17
 C12
A   18
 N4 
M  END
>  <ref_pdb>  (87) 
x0051_0B

>  <ref_mols>  (87) 
x0404_0B,x0969_0B

>  <original SMILES>  (87) 
C(=Cc1nc(-c2nccs2)cs1)c1ncccn1

>  <index>  (87) 
80

>  <LE>  (87) 
0.33025649353264275

>  <∆∆G>  (87) 
-5.944616883587569

>  <percent_hybrid>  (87) 
0.0

>  <largest_ring>  (87) 
6

>  <N_rotatable_bonds>  (87) 
3

>  <UFF_Gibbs>  (87) 
51.58756151354574

>  <strain_per_HA>  (87) 
515875.61513545737

>  <N_PAINS>  (87) 
0

>  <N_interactions>  (87) 
3

>  <N_HA>  (87) 
18

>  <ad_hoc_penalty>  (87) 
515838.38101738895

>  <merger_rank>  (87) 
1

$$$$

     RDKit          3D

 14 15  0  0  0  0  0  0  0  0999 V2000
   -6.8050    5.2990  -17.2220 C   0  0  0  0  0  0  0  0  0  0  0  0
   -8.1030    5.1080  -17.9030 C   0  0  0  0  0  0  0  0  0  0  0  0
   -9.1930    5.4340  -17.0370 O   0  0  0  0  0  0  0  0  0  0  0  0
   -9.1420    5.2210  -15.6910 C   0  0  0  0  0  0  0  0  0  0  0  0
   -8.7990    6.1150  -14.6340 C   0  0  0  0  0  0  0  0  0  0  0  0
   -8.7910    5.7820  -13.3400 C   0  0  0  0  0  0  0  0  0  0  0  0
   -8.9420    4.5780  -12.8470 N   0  0  0  0  0  0  0  0  0  0  0  0
   -8.8670    4.6940  -11.4950 C   0  0  0  0  0  0  0  0  0  0  0  0
   -8.9720    3.6560  -10.4340 C   0  0  0  0  0  0  0  0  0  0  0  0
   -8.8430    4.1210   -9.0970 C   0  0  0  0  0  0  0  0  0  0  0  0
   -8.6320    5.4520   -8.7860 C   0  0  0  0  0  0  0  0  0  0  0  0
   -8.5350    6.4340   -9.7900 C   0  0  0  0  0  0  0  0  0  0  0  0
   -8.6580    6.0150  -11.1240 C   0  0  0  0  0  0  0  0  0  0  0  0
   -8.6140    6.6940  -12.3210 N   0  0  0  0  0  0  0  0  0  0  0  0
  1  2  1  0
  2  3  1  0
  3  4  1  0
  4  5  2  3
  5  6  1  0
  6  7  2  0
  7  8  1  0
  8  9  2  0
  9 10  1  0
 10 11  2  0
 11 12  1  0
 12 13  2  0
 13 14  1  0
 14  6  1  0
 13  8  1  0
A    1
 C1 
A    2
 C2 
A    3
 O1 
A    4
 C3 
A    5
 C4 
A    6
 C5 
A    7
 N1 
A    8
 C6 
A    9
 C7 
A   10
 C8 
A   11
 C9 
A   12
 C10
A   13
 C11
A   14
 N2 
M  END
>  <ref_pdb>  (88) 
x0051_0B

>  <ref_mols>  (88) 
x0404_0B,x0969_0B

>  <original SMILES>  (88) 
CCOC=Cc1nc2ccccc2[nH]1

>  <index>  (88) 
81

>  <LE>  (88) 
0.24716256601498737

>  <∆∆G>  (88) 
-3.460275924209823

>  <percent_hybrid>  (88) 
0.0

>  <largest_ring>  (88) 
6

>  <N_rotatable_bonds>  (88) 
4

>  <UFF_Gibbs>  (88) 
51.594757612102754

>  <strain_per_HA>  (88) 
515947.5761210275

>  <N_PAINS>  (88) 
0

>  <N_interactions>  (88) 
5

>  <N_HA>  (88) 
14

>  <ad_hoc_penalty>  (88) 
515908.39499817515

>  <merger_rank>  (88) 
1

$$$$

     RDKit          3D

 16 18  0  0  0  0  0  0  0  0999 V2000
   -6.6360    5.3570  -17.5670 C   0  0  0  0  0  0  0  0  0  0  0  0
   -7.6180    5.6000  -16.5780 C   0  0  0  0  0  0  0  0  0  0  0  0
   -8.7910    4.9070  -16.7290 C   0  0  0  0  0  0  0  0  0  0  0  0
   -9.5610    5.3440  -15.6180 C   0  0  0  0  0  0  0  0  0  0  0  0
   -8.7650    6.2390  -14.9410 N   0  0  0  0  0  0  0  0  0  0  0  0
   -9.1140    6.9670  -13.7210 C   0  0  0  0  0  0  0  0  0  0  0  0
   -9.0120    6.1420  -12.6180 C   0  0  0  0  0  0  0  0  0  0  0  0
   -8.4930    6.6840  -11.3070 C   0  0  0  0  0  0  0  0  0  0  0  0
   -8.5490    5.5530  -10.4860 C   0  0  0  0  0  0  0  0  0  0  0  0
   -8.2280    5.3290   -9.1890 N   0  0  0  0  0  0  0  0  0  0  0  0
   -8.4240    4.0670   -8.7520 C   0  0  0  0  0  0  0  0  0  0  0  0
   -8.9270    3.0230   -9.5010 N   0  0  0  0  0  0  0  0  0  0  0  0
   -9.2320    3.2580  -10.7420 C   0  0  0  0  0  0  0  0  0  0  0  0
   -9.0590    4.4560  -11.2480 N   0  0  0  0  0  0  0  0  0  0  0  0
   -9.3380    4.8170  -12.5450 N   0  0  0  0  0  0  0  0  0  0  0  0
   -7.5490    6.4140  -15.5220 N   0  0  0  0  0  0  0  0  0  0  0  0
  1  2  1  0
  2  3  1  0
  3  4  2  0
  4  5  1  0
  5  6  1  0
  6  7  1  0
  7  8  1  0
  8  9  2  0
  9 10  1  0
 10 11  2  0
 11 12  1  0
 12 13  2  0
 13 14  1  0
 14 15  1  0
  5 16  1  0
 16  2  2  0
 15  7  2  0
 14  9  1  0
A    1
 C1 
A    2
 C2 
A    3
 C3 
A    4
 C4 
A    5
 N1 
A    6
 C5 
A    7
 C6 
A    8
 C7 
A    9
 C8 
A   10
 N2 
A   11
 C9 
A   12
 N3 
A   13
 C10
A   14
 N4 
A   15
 N5 
A   16
 N6 
M  END
>  <ref_pdb>  (89) 
x0051_0B

>  <ref_mols>  (89) 
x0404_0B,x0969_0B

>  <original SMILES>  (89) 
Cc1ccn(Cc2cc3ncncn3n2)n1

>  <index>  (89) 
82

>  <LE>  (89) 
0.23310100170880074

>  <∆∆G>  (89) 
-3.729616027340812

>  <percent_hybrid>  (89) 
0.0

>  <largest_ring>  (89) 
6

>  <N_rotatable_bonds>  (89) 
3

>  <UFF_Gibbs>  (89) 
51.83812081871142

>  <strain_per_HA>  (89) 
518381.20818711416

>  <N_PAINS>  (89) 
0

>  <N_interactions>  (89) 
3

>  <N_HA>  (89) 
16

>  <ad_hoc_penalty>  (89) 
518349.96689747233

>  <merger_rank>  (89) 
1

$$$$

     RDKit          3D

 18 19  0  0  0  0  0  0  0  0999 V2000
   -9.2650    3.5340   -7.5590 O   0  0  0  0  0  0  0  0  0  0  0  0
   -8.6680    3.8510   -8.5800 C   0  0  0  0  0  0  0  0  0  0  0  0
   -7.4560    4.4270   -8.4960 O   0  0  0  0  0  0  0  0  0  0  0  0
   -9.1600    3.6490   -9.9640 C   0  0  0  0  0  0  0  0  0  0  0  0
   -8.4910    4.4050  -10.9940 O   0  0  0  0  0  0  0  0  0  0  0  0
   -8.9330    5.6840  -11.1940 C   0  0  0  0  0  0  0  0  0  0  0  0
   -9.4760    6.3660  -10.3400 O   0  0  0  0  0  0  0  0  0  0  0  0
   -8.6450    6.1370  -12.4890 C   0  0  0  0  0  0  0  0  0  0  0  0
   -8.5500    7.4640  -12.9920 C   0  0  0  0  0  0  0  0  0  0  0  0
   -8.2310    7.4220  -14.3040 N   0  0  0  0  0  0  0  0  0  0  0  0
   -8.1400    6.1490  -14.6160 C   0  0  0  0  0  0  0  0  0  0  0  0
   -7.8210    5.6320  -15.9130 C   0  0  0  0  0  0  0  0  0  0  0  0
   -8.2630    4.3710  -16.2060 C   0  0  0  0  0  0  0  0  0  0  0  0
   -7.9650    3.8500  -17.4840 C   0  0  0  0  0  0  0  0  0  0  0  0
   -7.2740    4.5270  -18.4220 N   0  0  0  0  0  0  0  0  0  0  0  0
   -6.8490    5.7600  -18.1010 C   0  0  0  0  0  0  0  0  0  0  0  0
   -7.0930    6.3500  -16.8730 C   0  0  0  0  0  0  0  0  0  0  0  0
   -8.3800    5.2910  -13.5570 O   0  0  0  0  0  0  0  0  0  0  0  0
  1  2  2  0
  2  3  1  0
  2  4  1  0
  4  5  1  0
  5  6  1  0
  6  7  2  0
  6  8  1  0
  8  9  2  0
  9 10  1  0
 10 11  2  0
 11 12  1  0
 12 13  2  0
 13 14  1  0
 14 15  2  0
 15 16  1  0
 16 17  2  0
 11 18  1  0
 18  8  1  0
 17 12  1  0
A    1
 O1 
A    2
 C1 
A    3
 O2 
A    4
 C2 
A    5
 O3 
A    6
 C3 
A    7
 O4 
A    8
 C4 
A    9
 C5 
A   10
 N1 
A   11
 C6 
A   12
 C7 
A   13
 C8 
A   14
 C9 
A   15
 N2 
A   16
 C10
A   17
 C11
A   18
 O5 
M  END
>  <ref_pdb>  (90) 
x0051_0B

>  <ref_mols>  (90) 
x0404_0B,x0969_0B

>  <original SMILES>  (90) 
O=C(O)COC(=O)c1cnc(-c2ccncc2)o1

>  <index>  (90) 
83

>  <LE>  (90) 
0.20844062978831335

>  <∆∆G>  (90) 
-3.7519313361896405

>  <percent_hybrid>  (90) 
0.0

>  <largest_ring>  (90) 
6

>  <N_rotatable_bonds>  (90) 
4

>  <UFF_Gibbs>  (90) 
52.157564312384345

>  <strain_per_HA>  (90) 
521575.6431238434

>  <N_PAINS>  (90) 
0

>  <N_interactions>  (90) 
2

>  <N_HA>  (90) 
18

>  <ad_hoc_penalty>  (90) 
521549.59862950223

>  <merger_rank>  (90) 
1

$$$$

     RDKit          3D

 18 20  0  0  0  0  0  0  0  0999 V2000
   -9.0320    5.0180  -11.2760 C   0  0  0  0  0  0  0  0  0  0  0  0
   -9.0880    6.2890  -11.8360 C   0  0  0  0  0  0  0  0  0  0  0  0
   -9.0920    6.2000  -13.2140 C   0  0  0  0  0  0  0  0  0  0  0  0
  -10.1470    6.0240  -13.9730 N   0  0  0  0  0  0  0  0  0  0  0  0
   -9.8270    5.8950  -15.2970 N   0  0  0  0  0  0  0  0  0  0  0  0
   -8.5340    5.9830  -15.5180 C   0  0  0  0  0  0  0  0  0  0  0  0
   -7.9340    5.8490  -16.7780 C   0  0  0  0  0  0  0  0  0  0  0  0
   -6.6360    6.3860  -17.1390 C   0  0  0  0  0  0  0  0  0  0  0  0
   -6.1100    6.2210  -18.3650 N   0  0  0  0  0  0  0  0  0  0  0  0
   -6.8760    5.5210  -19.2390 C   0  0  0  0  0  0  0  0  0  0  0  0
   -8.1170    5.0020  -18.9120 C   0  0  0  0  0  0  0  0  0  0  0  0
   -8.6620    5.1540  -17.6870 N   0  0  0  0  0  0  0  0  0  0  0  0
   -7.6150    6.2650  -14.0930 S   0  0  0  0  0  0  0  0  0  0  0  0
   -9.0110    4.5720   -9.9360 C   0  0  0  0  0  0  0  0  0  0  0  0
   -8.8550    3.2910   -9.4780 C   0  0  0  0  0  0  0  0  0  0  0  0
   -8.8960    3.2680   -8.1110 C   0  0  0  0  0  0  0  0  0  0  0  0
   -9.0810    4.5730   -7.7330 C   0  0  0  0  0  0  0  0  0  0  0  0
   -9.1550    5.3790   -8.8270 O   0  0  0  0  0  0  0  0  0  0  0  0
  1  2  2  3
  2  3  1  0
  3  4  2  0
  4  5  1  0
  5  6  2  0
  6  7  1  0
  7  8  2  0
  8  9  1  0
  9 10  2  0
 10 11  1  0
 11 12  2  0
  6 13  1  0
  1 14  1  0
 14 15  2  0
 15 16  1  0
 16 17  2  0
 17 18  1  0
 13  3  1  0
 18 14  1  0
 12  7  1  0
A    1
 C1 
A    2
 C2 
A    3
 C3 
A    4
 N1 
A    5
 N2 
A    6
 C4 
A    7
 C5 
A    8
 C6 
A    9
 N3 
A   10
 C7 
A   11
 C8 
A   12
 N4 
A   13
 S1 
A   14
 C9 
A   15
 C10
A   16
 C11
A   17
 C12
A   18
 O1 
M  END
>  <ref_pdb>  (91) 
x0051_0B

>  <ref_mols>  (91) 
x0404_0B,x0969_0B

>  <original SMILES>  (91) 
C(=Cc1nnc(-c2cnccn2)s1)c1ccco1

>  <index>  (91) 
84

>  <LE>  (91) 
0.26689659387320586

>  <∆∆G>  (91) 
-4.804138689717705

>  <percent_hybrid>  (91) 
0.0

>  <largest_ring>  (91) 
6

>  <N_rotatable_bonds>  (91) 
3

>  <UFF_Gibbs>  (91) 
52.4465847757627

>  <strain_per_HA>  (91) 
524465.847757627

>  <N_PAINS>  (91) 
0

>  <N_interactions>  (91) 
1

>  <N_HA>  (91) 
18

>  <ad_hoc_penalty>  (91) 
524447.2998076519

>  <merger_rank>  (91) 
1

$$$$

     RDKit          3D

 18 20  0  0  0  0  0  0  0  0999 V2000
   -8.4410    7.6110  -10.5680 O   0  0  0  0  0  0  0  0  0  0  0  0
   -8.7060    6.5580  -11.1460 C   0  0  0  0  0  0  0  0  0  0  0  0
   -8.9050    6.4810  -12.5350 C   0  0  0  0  0  0  0  0  0  0  0  0
  -10.0690    6.9940  -13.0590 C   0  0  0  0  0  0  0  0  0  0  0  0
   -9.9380    6.7450  -14.3770 N   0  0  0  0  0  0  0  0  0  0  0  0
   -8.7280    6.1160  -14.6660 C   0  0  0  0  0  0  0  0  0  0  0  0
   -8.1070    5.6720  -15.8860 C   0  0  0  0  0  0  0  0  0  0  0  0
   -6.7330    5.6730  -16.1120 C   0  0  0  0  0  0  0  0  0  0  0  0
   -6.2740    5.1880  -17.4660 C   0  0  0  0  0  0  0  0  0  0  0  0
   -7.3020    4.7890  -18.3450 C   0  0  0  0  0  0  0  0  0  0  0  0
   -8.6330    4.8200  -18.0280 C   0  0  0  0  0  0  0  0  0  0  0  0
   -9.0290    5.2540  -16.8110 N   0  0  0  0  0  0  0  0  0  0  0  0
   -8.0480    5.9340  -13.4860 O   0  0  0  0  0  0  0  0  0  0  0  0
   -8.8270    5.2990  -10.4220 C   0  0  0  0  0  0  0  0  0  0  0  0
   -8.6950    5.1160   -9.0590 C   0  0  0  0  0  0  0  0  0  0  0  0
   -8.8780    3.7610   -8.6710 C   0  0  0  0  0  0  0  0  0  0  0  0
   -9.1430    2.9480   -9.7430 C   0  0  0  0  0  0  0  0  0  0  0  0
   -9.1680    3.8170  -11.2140 S   0  0  0  0  0  0  0  0  0  0  0  0
  1  2  2  0
  2  3  1  0
  3  4  2  0
  4  5  1  0
  5  6  2  0
  6  7  1  0
  7  8  2  0
  8  9  1  0
  9 10  2  0
 10 11  1  0
 11 12  2  0
  6 13  1  0
  2 14  1  0
 14 15  2  0
 15 16  1  0
 16 17  2  0
 17 18  1  0
 13  3  1  0
 18 14  1  0
 12  7  1  0
A    1
 O1 
A    2
 C1 
A    3
 C2 
A    4
 C3 
A    5
 N1 
A    6
 C4 
A    7
 C5 
A    8
 C6 
A    9
 C7 
A   10
 C8 
A   11
 C9 
A   12
 N2 
A   13
 O2 
A   14
 C10
A   15
 C11
A   16
 C12
A   17
 C13
A   18
 S1 
M  END
>  <ref_pdb>  (92) 
x0051_0B

>  <ref_mols>  (92) 
x0404_0B,x0969_0B

>  <original SMILES>  (92) 
O=C(c1cnc(-c2ccccn2)o1)c1cccs1

>  <index>  (92) 
85

>  <LE>  (92) 
0.3115120082156997

>  <∆∆G>  (92) 
-5.607216147882594

>  <percent_hybrid>  (92) 
0.0

>  <largest_ring>  (92) 
6

>  <N_rotatable_bonds>  (92) 
3

>  <UFF_Gibbs>  (92) 
53.73492940855938

>  <strain_per_HA>  (92) 
537349.2940855938

>  <N_PAINS>  (92) 
0

>  <N_interactions>  (92) 
2

>  <N_HA>  (92) 
18

>  <ad_hoc_penalty>  (92) 
537320.4196034143

>  <merger_rank>  (92) 
1

$$$$

     RDKit          3D

 18 20  0  0  0  0  0  0  0  0999 V2000
  -11.8490   11.7600  -10.7060 C   0  0  0  0  0  0  0  0  0  0  0  0
  -11.8370   10.7010  -11.4500 N   0  0  0  0  0  0  0  0  0  0  0  0
  -10.6540   10.0630  -11.4390 N   0  0  0  0  0  0  0  0  0  0  0  0
  -10.2570    9.0590  -12.2390 C   0  0  0  0  0  0  0  0  0  0  0  0
   -9.1290    8.4180  -12.0710 N   0  0  0  0  0  0  0  0  0  0  0  0
   -8.9030    7.4490  -13.0090 N   0  0  0  0  0  0  0  0  0  0  0  0
   -9.8680    7.3720  -13.8730 C   0  0  0  0  0  0  0  0  0  0  0  0
   -9.7760    6.4510  -14.9910 C   0  0  0  0  0  0  0  0  0  0  0  0
   -8.6530    5.8320  -15.5080 C   0  0  0  0  0  0  0  0  0  0  0  0
   -9.1080    5.0740  -16.6060 C   0  0  0  0  0  0  0  0  0  0  0  0
  -10.4120    5.1940  -16.7770 N   0  0  0  0  0  0  0  0  0  0  0  0
  -10.8000    6.0560  -15.7680 O   0  0  0  0  0  0  0  0  0  0  0  0
  -11.1680    8.4900  -13.5910 S   0  0  0  0  0  0  0  0  0  0  0  0
  -12.9290   12.6430  -10.4410 C   0  0  0  0  0  0  0  0  0  0  0  0
  -12.9860   13.9440   -9.9800 C   0  0  0  0  0  0  0  0  0  0  0  0
  -14.3550   14.2720   -9.9060 C   0  0  0  0  0  0  0  0  0  0  0  0
  -14.9990   13.1500  -10.3270 C   0  0  0  0  0  0  0  0  0  0  0  0
  -14.1610   12.1760  -10.6530 O   0  0  0  0  0  0  0  0  0  0  0  0
  1  2  2  3
  2  3  1  0
  3  4  1  0
  4  5  2  0
  5  6  1  0
  6  7  2  0
  7  8  1  0
  8  9  2  0
  9 10  1  0
 10 11  2  0
 11 12  1  0
  7 13  1  0
  1 14  1  0
 14 15  2  0
 15 16  1  0
 16 17  2  0
 17 18  1  0
 13  4  1  0
 18 14  1  0
 12  8  1  0
A    1
 C1 
A    2
 N1 
A    3
 N2 
A    4
 C2 
A    5
 N3 
A    6
 N4 
A    7
 C3 
A    8
 C4 
A    9
 C5 
A   10
 C6 
A   11
 N5 
A   12
 O1 
A   13
 S1 
A   14
 C7 
A   15
 C8 
A   16
 C9 
A   17
 C10
A   18
 O2 
M  END
>  <ref_pdb>  (93) 
x0051_0B

>  <ref_mols>  (93) 
x0846_0B,x0559_0B

>  <original SMILES>  (93) 
C(=NNc1nnc(-c2ccno2)s1)c1ccco1

>  <index>  (93) 
86

>  <LE>  (93) 
0.002804751902982769

>  <∆∆G>  (93) 
-0.050485534253689845

>  <percent_hybrid>  (93) 
0.0

>  <largest_ring>  (93) 
5

>  <N_rotatable_bonds>  (93) 
4

>  <UFF_Gibbs>  (93) 
53.9366007402522

>  <strain_per_HA>  (93) 
539366.007402522

>  <N_PAINS>  (93) 
0

>  <N_interactions>  (93) 
4

>  <N_HA>  (93) 
18

>  <ad_hoc_penalty>  (93) 
539331.2769602154

>  <merger_rank>  (93) 
1

$$$$

     RDKit          3D

 18 20  0  0  0  0  0  0  0  0999 V2000
  -12.1110   10.6730   -9.1670 O   0  0  0  0  0  0  0  0  0  0  0  0
  -12.0360   10.4680  -10.3640 C   0  0  0  0  0  0  0  0  0  0  0  0
  -11.1250    9.1250  -11.0230 S   0  0  0  0  0  0  0  0  0  0  0  0
  -11.6810    9.5940  -12.5940 C   0  0  0  0  0  0  0  0  0  0  0  0
  -11.2380    8.7020  -13.6840 C   0  0  0  0  0  0  0  0  0  0  0  0
  -10.3270    7.6950  -13.4780 C   0  0  0  0  0  0  0  0  0  0  0  0
   -9.8090    6.7810  -14.4990 C   0  0  0  0  0  0  0  0  0  0  0  0
   -8.4240    6.5040  -14.7870 C   0  0  0  0  0  0  0  0  0  0  0  0
   -8.2900    5.6150  -15.8420 C   0  0  0  0  0  0  0  0  0  0  0  0
   -9.8390    5.1830  -16.3910 S   0  0  0  0  0  0  0  0  0  0  0  0
  -10.6280    6.1290  -15.2910 N   0  0  0  0  0  0  0  0  0  0  0  0
  -12.4150   10.6690  -12.6720 N   0  0  0  0  0  0  0  0  0  0  0  0
  -12.5810   11.1690  -11.3980 N   0  0  0  0  0  0  0  0  0  0  0  0
  -13.1030   12.4050  -11.1260 C   0  0  0  0  0  0  0  0  0  0  0  0
  -14.0560   12.7700  -10.1940 C   0  0  0  0  0  0  0  0  0  0  0  0
  -14.2170   14.1670  -10.3070 C   0  0  0  0  0  0  0  0  0  0  0  0
  -13.3560   14.5660  -11.3010 C   0  0  0  0  0  0  0  0  0  0  0  0
  -12.6810   13.5020  -11.8060 O   0  0  0  0  0  0  0  0  0  0  0  0
  1  2  2  0
  2  3  1  0
  3  4  1  0
  4  5  1  0
  5  6  2  3
  6  7  1  0
  7  8  1  0
  8  9  2  0
  9 10  1  0
 10 11  1  0
  4 12  2  0
 12 13  1  0
 13 14  1  0
 14 15  2  0
 15 16  1  0
 16 17  2  0
 17 18  1  0
 13  2  1  0
 18 14  1  0
 11  7  2  0
A    1
 O1 
A    2
 C1 
A    3
 S1 
A    4
 C2 
A    5
 C3 
A    6
 C4 
A    7
 C5 
A    8
 C6 
A    9
 C7 
A   10
 S2 
A   11
 N1 
A   12
 N2 
A   13
 N3 
A   14
 C8 
A   15
 C9 
A   16
 C10
A   17
 C11
A   18
 O2 
M  END
>  <ref_pdb>  (94) 
x0051_0B

>  <ref_mols>  (94) 
x0846_0B,x0559_0B

>  <original SMILES>  (94) 
O=c1sc(C=Cc2ccsn2)nn1-c1ccco1

>  <index>  (94) 
87

>  <LE>  (94) 
0.14305911283563608

>  <∆∆G>  (94) 
-2.575064031041449

>  <percent_hybrid>  (94) 
0.0

>  <largest_ring>  (94) 
5

>  <N_rotatable_bonds>  (94) 
3

>  <UFF_Gibbs>  (94) 
54.016936378054524

>  <strain_per_HA>  (94) 
540169.3637805452

>  <N_PAINS>  (94) 
0

>  <N_interactions>  (94) 
3

>  <N_HA>  (94) 
18

>  <ad_hoc_penalty>  (94) 
540137.1037103529

>  <merger_rank>  (94) 
1

$$$$

     RDKit          3D

 18 20  0  0  0  0  0  0  0  0999 V2000
   -8.8080    2.6400   -9.5900 C   0  0  0  0  0  0  0  0  0  0  0  0
   -8.9130    3.9600  -10.3480 C   0  0  0  0  0  0  0  0  0  0  0  0
   -8.2770    5.1310   -9.9790 C   0  0  0  0  0  0  0  0  0  0  0  0
   -8.5220    6.2040  -10.8120 N   0  0  0  0  0  0  0  0  0  0  0  0
   -9.3260    5.8340  -11.7970 C   0  0  0  0  0  0  0  0  0  0  0  0
   -9.7360    6.6570  -12.7710 C   0  0  0  0  0  0  0  0  0  0  0  0
  -10.8740    6.7130  -13.2340 O   0  0  0  0  0  0  0  0  0  0  0  0
   -8.6810    7.4270  -13.1480 O   0  0  0  0  0  0  0  0  0  0  0  0
   -7.9600    7.0520  -14.1950 C   0  0  0  0  0  0  0  0  0  0  0  0
   -6.7110    7.5980  -14.1900 O   0  0  0  0  0  0  0  0  0  0  0  0
   -6.0010    7.1820  -15.3020 N   0  0  0  0  0  0  0  0  0  0  0  0
   -6.8260    6.3820  -15.9860 C   0  0  0  0  0  0  0  0  0  0  0  0
   -6.6400    5.7070  -17.1630 C   0  0  0  0  0  0  0  0  0  0  0  0
   -7.7030    4.9150  -17.6810 C   0  0  0  0  0  0  0  0  0  0  0  0
   -8.9570    4.8360  -16.9480 C   0  0  0  0  0  0  0  0  0  0  0  0
   -9.1530    5.5280  -15.7370 C   0  0  0  0  0  0  0  0  0  0  0  0
   -8.0700    6.2780  -15.3090 C   0  0  0  0  0  0  0  0  0  0  0  0
   -9.8290    4.1920  -11.7640 S   0  0  0  0  0  0  0  0  0  0  0  0
  1  2  1  0
  2  3  2  0
  3  4  1  0
  4  5  2  0
  5  6  1  0
  6  7  2  0
  6  8  1  0
  8  9  1  0
  9 10  1  0
 10 11  1  0
 11 12  2  0
 12 13  1  0
 13 14  2  0
 14 15  1  0
 15 16  2  0
 16 17  1  0
  5 18  1  0
 18  2  1  0
 17  9  2  0
 17 12  1  0
A    1
 C1 
A    2
 C2 
A    3
 C3 
A    4
 N1 
A    5
 C4 
A    6
 C5 
A    7
 O1 
A    8
 O2 
A    9
 C6 
A   10
 O3 
A   11
 N2 
A   12
 C7 
A   13
 C8 
A   14
 C9 
A   15
 C10
A   16
 C11
A   17
 C12
A   18
 S1 
M  END
>  <ref_pdb>  (95) 
x0051_0B

>  <ref_mols>  (95) 
x0404_0B,x0969_0B

>  <original SMILES>  (95) 
Cc1cnc(C(=O)Oc2onc3ccccc23)s1

>  <index>  (95) 
88

>  <LE>  (95) 
0.34357266698510175

>  <∆∆G>  (95) 
-6.184308005731832

>  <percent_hybrid>  (95) 
0.0

>  <largest_ring>  (95) 
6

>  <N_rotatable_bonds>  (95) 
3

>  <UFF_Gibbs>  (95) 
55.07373560910612

>  <strain_per_HA>  (95) 
550737.3560910613

>  <N_PAINS>  (95) 
0

>  <N_interactions>  (95) 
3

>  <N_HA>  (95) 
18

>  <ad_hoc_penalty>  (95) 
550694.9062468396

>  <merger_rank>  (95) 
1

$$$$

     RDKit          3D

 18 20  0  0  0  0  0  0  0  0999 V2000
   -9.2080    7.5360  -10.5320 O   0  0  0  0  0  0  0  0  0  0  0  0
   -9.1550    6.8250  -11.5290 C   0  0  0  0  0  0  0  0  0  0  0  0
   -8.8880    5.4650  -11.5230 N   0  0  0  0  0  0  0  0  0  0  0  0
   -8.8310    4.6770  -10.4000 C   0  0  0  0  0  0  0  0  0  0  0  0
   -8.7850    3.3760  -10.3220 N   0  0  0  0  0  0  0  0  0  0  0  0
   -8.7390    2.9800   -9.0030 C   0  0  0  0  0  0  0  0  0  0  0  0
   -8.7450    4.0530   -8.0700 C   0  0  0  0  0  0  0  0  0  0  0  0
   -8.8130    5.5400   -8.9260 S   0  0  0  0  0  0  0  0  0  0  0  0
   -9.3470    7.2600  -12.8290 N   0  0  0  0  0  0  0  0  0  0  0  0
   -8.8110    6.7190  -13.9720 C   0  0  0  0  0  0  0  0  0  0  0  0
   -9.5810    6.1650  -14.8780 N   0  0  0  0  0  0  0  0  0  0  0  0
   -8.8190    5.6940  -15.9360 C   0  0  0  0  0  0  0  0  0  0  0  0
   -9.3540    5.0370  -17.0870 C   0  0  0  0  0  0  0  0  0  0  0  0
   -8.4130    4.6610  -18.0240 C   0  0  0  0  0  0  0  0  0  0  0  0
   -7.0480    4.8860  -17.8770 C   0  0  0  0  0  0  0  0  0  0  0  0
   -6.5170    5.5190  -16.7610 C   0  0  0  0  0  0  0  0  0  0  0  0
   -7.4470    5.9130  -15.8000 C   0  0  0  0  0  0  0  0  0  0  0  0
   -7.1530    6.7190  -14.3090 S   0  0  0  0  0  0  0  0  0  0  0  0
  1  2  2  0
  2  3  1  0
  3  4  1  0
  4  5  2  0
  5  6  1  0
  6  7  2  0
  7  8  1  0
  2  9  1  0
  9 10  1  0
 10 11  2  0
 11 12  1  0
 12 13  2  0
 13 14  1  0
 14 15  2  0
 15 16  1  0
 16 17  2  0
 17 18  1  0
  8  4  1  0
 18 10  1  0
 17 12  1  0
A    1
 O1 
A    2
 C1 
A    3
 N1 
A    4
 C2 
A    5
 N2 
A    6
 C3 
A    7
 C4 
A    8
 S1 
A    9
 N3 
A   10
 C5 
A   11
 N4 
A   12
 C6 
A   13
 C7 
A   14
 C8 
A   15
 C9 
A   16
 C10
A   17
 C11
A   18
 S2 
M  END
>  <ref_pdb>  (96) 
x0051_0B

>  <ref_mols>  (96) 
x0404_0B,x0969_0B

>  <original SMILES>  (96) 
O=C(Nc1nccs1)Nc1nc2ccccc2s1

>  <index>  (96) 
89

>  <LE>  (96) 
0.2858890889094131

>  <∆∆G>  (96) 
-5.146003600369436

>  <percent_hybrid>  (96) 
0.0

>  <largest_ring>  (96) 
6

>  <N_rotatable_bonds>  (96) 
2

>  <UFF_Gibbs>  (96) 
55.384226470420074

>  <strain_per_HA>  (96) 
553842.2647042007

>  <N_PAINS>  (96) 
0

>  <N_interactions>  (96) 
1

>  <N_HA>  (96) 
18

>  <ad_hoc_penalty>  (96) 
553819.6911594936

>  <merger_rank>  (96) 
1

$$$$

     RDKit          3D

 16 17  0  0  0  0  0  0  0  0999 V2000
   -8.9540    4.3630   -7.9760 C   0  0  0  0  0  0  0  0  0  0  0  0
   -8.9610    4.7420   -9.4440 C   0  0  0  0  0  0  0  0  0  0  0  0
   -9.0470    6.0720   -9.9770 C   0  0  0  0  0  0  0  0  0  0  0  0
   -9.0570    6.3160  -11.3410 C   0  0  0  0  0  0  0  0  0  0  0  0
   -8.9730    5.1420  -12.1290 C   0  0  0  0  0  0  0  0  0  0  0  0
   -8.9760    5.1390  -13.5040 N   0  0  0  0  0  0  0  0  0  0  0  0
   -8.5670    6.1420  -14.3270 C   0  0  0  0  0  0  0  0  0  0  0  0
   -8.4840    7.4880  -13.9860 O   0  0  0  0  0  0  0  0  0  0  0  0
   -8.2190    5.6370  -15.6460 C   0  0  0  0  0  0  0  0  0  0  0  0
   -7.4900    6.2440  -16.6600 C   0  0  0  0  0  0  0  0  0  0  0  0
   -7.5030    5.2920  -17.6630 C   0  0  0  0  0  0  0  0  0  0  0  0
   -6.9170    5.4050  -18.9080 C   0  0  0  0  0  0  0  0  0  0  0  0
   -8.1710    4.1950  -17.2880 O   0  0  0  0  0  0  0  0  0  0  0  0
   -8.6320    4.3960  -16.0120 N   0  0  0  0  0  0  0  0  0  0  0  0
   -8.8870    3.9130  -11.6140 N   0  0  0  0  0  0  0  0  0  0  0  0
   -8.8800    3.7020  -10.2760 N   0  0  0  0  0  0  0  0  0  0  0  0
  1  2  1  0
  2  3  2  0
  3  4  1  0
  4  5  2  0
  5  6  1  0
  6  7  1  0
  7  8  2  0
  7  9  1  0
  9 10  1  0
 10 11  2  0
 11 12  1  0
 11 13  1  0
 13 14  1  0
  5 15  1  0
 15 16  2  0
 16  2  1  0
 14  9  2  0
A    1
 C1 
A    2
 C2 
A    3
 C3 
A    4
 C4 
A    5
 C5 
A    6
 N1 
A    7
 C6 
A    8
 O1 
A    9
 C7 
A   10
 C8 
A   11
 C9 
A   12
 C10
A   13
 O2 
A   14
 N2 
A   15
 N3 
A   16
 N4 
M  END
>  <ref_pdb>  (97) 
x0051_0B

>  <ref_mols>  (97) 
x0404_0B,x0969_0B

>  <original SMILES>  (97) 
Cc1ccc(NC(=O)c2cc(C)on2)nn1

>  <index>  (97) 
90

>  <LE>  (97) 
0.26707818592488486

>  <∆∆G>  (97) 
-4.273250974798158

>  <percent_hybrid>  (97) 
0.0

>  <largest_ring>  (97) 
6

>  <N_rotatable_bonds>  (97) 
4

>  <UFF_Gibbs>  (97) 
56.84371164889394

>  <strain_per_HA>  (97) 
568437.1164889394

>  <N_PAINS>  (97) 
0

>  <N_interactions>  (97) 
3

>  <N_HA>  (97) 
16

>  <ad_hoc_penalty>  (97) 
568404.7609346914

>  <merger_rank>  (97) 
1

$$$$

     RDKit          3D

 14 16  0  0  0  0  0  0  0  0999 V2000
   -8.0390    5.4240  -16.7190 C   0  0  0  0  0  0  0  0  0  0  0  0
   -9.2240    4.7590  -16.6370 C   0  0  0  0  0  0  0  0  0  0  0  0
   -9.5490    4.5150  -15.4130 N   0  0  0  0  0  0  0  0  0  0  0  0
   -8.6280    4.9850  -14.5550 C   0  0  0  0  0  0  0  0  0  0  0  0
   -8.7170    4.8580  -13.0330 C   0  0  0  0  0  0  0  0  0  0  0  0
   -8.7230    5.6220  -11.9830 C   0  0  0  0  0  0  0  0  0  0  0  0
   -8.8430    5.1110  -10.5910 C   0  0  0  0  0  0  0  0  0  0  0  0
   -8.8700    5.6910   -9.3820 N   0  0  0  0  0  0  0  0  0  0  0  0
   -9.0070    4.8440   -8.3530 N   0  0  0  0  0  0  0  0  0  0  0  0
   -9.1080    3.5760   -8.4860 N   0  0  0  0  0  0  0  0  0  0  0  0
   -9.0770    2.9820   -9.6060 N   0  0  0  0  0  0  0  0  0  0  0  0
   -8.9400    3.7690  -10.6760 C   0  0  0  0  0  0  0  0  0  0  0  0
   -8.8590    3.2760  -12.2950 S   0  0  0  0  0  0  0  0  0  0  0  0
   -7.6410    5.5730  -15.3500 C   0  0  0  0  0  0  0  0  0  0  0  0
  1  2  2  0
  2  3  1  0
  3  4  1  0
  4  5  1  0
  5  6  2  0
  6  7  1  0
  7  8  2  0
  8  9  1  0
  9 10  2  0
 10 11  1  0
 11 12  2  0
 12 13  1  0
  4 14  2  0
 14  1  1  0
 13  5  1  0
 12  7  1  0
A    1
 C1 
A    2
 C2 
A    3
 N1 
A    4
 C3 
A    5
 C4 
A    6
 C5 
A    7
 C6 
A    8
 N2 
A    9
 N3 
A   10
 N4 
A   11
 N5 
A   12
 C7 
A   13
 S1 
A   14
 C8 
M  END
>  <ref_pdb>  (98) 
x0051_0B

>  <ref_mols>  (98) 
x0969_1B,x0553_0B

>  <original SMILES>  (98) 
c1c[nH]c(-c2cc3nnnnc3s2)c1

>  <index>  (98) 
91

>  <LE>  (98) 
0.20507361877889432

>  <∆∆G>  (98) 
-2.8710306629045204

>  <percent_hybrid>  (98) 
0.0

>  <largest_ring>  (98) 
6

>  <N_rotatable_bonds>  (98) 
1

>  <UFF_Gibbs>  (98) 
57.03233276430893

>  <strain_per_HA>  (98) 
570323.3276430893

>  <N_PAINS>  (98) 
0

>  <N_interactions>  (98) 
4

>  <N_HA>  (98) 
14

>  <ad_hoc_penalty>  (98) 
570282.9622673201

>  <merger_rank>  (98) 
1

$$$$

     RDKit          3D

 17 18  0  0  0  0  0  0  0  0999 V2000
   -9.1330    3.6270   -7.8030 C   0  0  0  0  0  0  0  0  0  0  0  0
   -9.0180    4.5230   -8.8930 C   0  0  0  0  0  0  0  0  0  0  0  0
   -8.8710    5.8300   -8.8390 N   0  0  0  0  0  0  0  0  0  0  0  0
   -8.8090    6.2470  -10.1540 N   0  0  0  0  0  0  0  0  0  0  0  0
   -8.9190    5.1750  -10.9310 C   0  0  0  0  0  0  0  0  0  0  0  0
   -8.9060    5.0740  -12.3400 C   0  0  0  0  0  0  0  0  0  0  0  0
   -9.1090    6.1430  -13.2810 C   0  0  0  0  0  0  0  0  0  0  0  0
   -9.3640    7.4740  -13.0130 C   0  0  0  0  0  0  0  0  0  0  0  0
   -9.5440    8.5990  -12.8040 N   0  0  0  0  0  0  0  0  0  0  0  0
   -9.0420    5.8440  -14.6950 C   0  0  0  0  0  0  0  0  0  0  0  0
   -7.9050    5.9630  -15.5520 C   0  0  0  0  0  0  0  0  0  0  0  0
   -7.8030    5.6650  -16.8850 C   0  0  0  0  0  0  0  0  0  0  0  0
   -8.6980    4.8500  -17.6360 C   0  0  0  0  0  0  0  0  0  0  0  0
   -8.2240    4.8160  -18.9200 C   0  0  0  0  0  0  0  0  0  0  0  0
   -7.0470    5.5970  -18.9730 C   0  0  0  0  0  0  0  0  0  0  0  0
   -6.8020    6.1080  -17.7380 O   0  0  0  0  0  0  0  0  0  0  0  0
   -9.0570    4.0340  -10.1640 O   0  0  0  0  0  0  0  0  0  0  0  0
  1  2  1  0
  2  3  2  0
  3  4  1  0
  4  5  2  0
  5  6  1  0
  6  7  2  3
  7  8  1  0
  8  9  3  0
  7 10  1  0
 10 11  2  3
 11 12  1  0
 12 13  2  0
 13 14  1  0
 14 15  2  0
 15 16  1  0
  5 17  1  0
 17  2  1  0
 16 12  1  0
A    1
 C1 
A    2
 C2 
A    3
 N1 
A    4
 N2 
A    5
 C3 
A    6
 C4 
A    7
 C5 
A    8
 C6 
A    9
 N3 
A   10
 C7 
A   11
 C8 
A   12
 C9 
A   13
 C10
A   14
 C11
A   15
 C12
A   16
 O1 
A   17
 O2 
M  END
>  <ref_pdb>  (99) 
x0051_0B

>  <ref_mols>  (99) 
x0404_0B,x0969_0B

>  <original SMILES>  (99) 
Cc1nnc(C=C(C#N)C=Cc2ccco2)o1

>  <index>  (99) 
92

>  <LE>  (99) 
0.398041528967767

>  <∆∆G>  (99) 
-6.76670599245204

>  <percent_hybrid>  (99) 
0.0

>  <largest_ring>  (99) 
5

>  <N_rotatable_bonds>  (99) 
4

>  <UFF_Gibbs>  (99) 
58.916510421128336

>  <strain_per_HA>  (99) 
589165.1042112834

>  <N_PAINS>  (99) 
0

>  <N_interactions>  (99) 
3

>  <N_HA>  (99) 
17

>  <ad_hoc_penalty>  (99) 
589128.6038258884

>  <merger_rank>  (99) 
1

$$$$

     RDKit          3D

 19 21  0  0  0  0  0  0  0  0999 V2000
  -10.6090    5.0960  -16.0680 O   0  0  0  0  0  0  0  0  0  0  0  0
   -9.7520    5.7910  -15.5650 C   0  0  0  0  0  0  0  0  0  0  0  0
   -9.9400    6.7190  -14.5660 N   0  0  0  0  0  0  0  0  0  0  0  0
   -9.4630    6.6320  -13.3080 C   0  0  0  0  0  0  0  0  0  0  0  0
   -8.9530    7.6000  -12.5750 N   0  0  0  0  0  0  0  0  0  0  0  0
   -8.6310    7.0230  -11.3590 N   0  0  0  0  0  0  0  0  0  0  0  0
   -8.9730    5.7490  -11.4570 C   0  0  0  0  0  0  0  0  0  0  0  0
   -8.8520    4.7790  -10.4760 C   0  0  0  0  0  0  0  0  0  0  0  0
   -8.5750    5.0300   -9.0980 C   0  0  0  0  0  0  0  0  0  0  0  0
   -8.5280    3.7750   -8.3540 C   0  0  0  0  0  0  0  0  0  0  0  0
   -8.7970    2.7970   -9.4090 C   0  0  0  0  0  0  0  0  0  0  0  0
   -8.9790    3.4150  -10.6330 O   0  0  0  0  0  0  0  0  0  0  0  0
   -9.4990    5.4500  -12.6760 O   0  0  0  0  0  0  0  0  0  0  0  0
   -8.3760    5.6410  -16.1160 C   0  0  0  0  0  0  0  0  0  0  0  0
   -8.2290    5.0520  -17.4070 C   0  0  0  0  0  0  0  0  0  0  0  0
   -6.9200    4.9540  -17.8290 C   0  0  0  0  0  0  0  0  0  0  0  0
   -5.8910    5.4040  -17.0250 C   0  0  0  0  0  0  0  0  0  0  0  0
   -6.0870    5.9540  -15.8140 N   0  0  0  0  0  0  0  0  0  0  0  0
   -7.3540    6.0760  -15.3490 N   0  0  0  0  0  0  0  0  0  0  0  0
  1  2  2  0
  2  3  1  0
  3  4  1  0
  4  5  2  0
  5  6  1  0
  6  7  2  0
  7  8  1  0
  8  9  2  0
  9 10  1  0
 10 11  2  0
 11 12  1  0
  7 13  1  0
  2 14  1  0
 14 15  2  0
 15 16  1  0
 16 17  2  0
 17 18  1  0
 18 19  2  0
 13  4  1  0
 19 14  1  0
 12  8  1  0
A    1
 O1 
A    2
 C1 
A    3
 N1 
A    4
 C2 
A    5
 N2 
A    6
 N3 
A    7
 C3 
A    8
 C4 
A    9
 C5 
A   10
 C6 
A   11
 C7 
A   12
 O2 
A   13
 O3 
A   14
 C8 
A   15
 C9 
A   16
 C10
A   17
 C11
A   18
 N4 
A   19
 N5 
M  END
>  <ref_pdb>  (100) 
x0051_0B

>  <ref_mols>  (100) 
x0404_0B,x0969_0B

>  <original SMILES>  (100) 
O=C(Nc1nnc(-c2ccco2)o1)c1cccnn1

>  <index>  (100) 
93

>  <LE>  (100) 
0.19773859143976463

>  <∆∆G>  (100) 
-3.757033237355528

>  <percent_hybrid>  (100) 
0.0

>  <largest_ring>  (100) 
6

>  <N_rotatable_bonds>  (100) 
3

>  <UFF_Gibbs>  (100) 
59.275098527797994

>  <strain_per_HA>  (100) 
592750.9852779799

>  <N_PAINS>  (100) 
0

>  <N_interactions>  (100) 
4

>  <N_HA>  (100) 
19

>  <ad_hoc_penalty>  (100) 
592707.2760736336

>  <merger_rank>  (100) 
1

$$$$

     RDKit          3D

 18 20  0  0  0  0  0  0  0  0999 V2000
   -8.6990    4.1490   -7.4240 C   0  0  0  0  0  0  0  0  0  0  0  0
   -8.8840    4.7450   -8.7820 C   0  0  0  0  0  0  0  0  0  0  0  0
   -8.9780    6.0440   -8.9390 N   0  0  0  0  0  0  0  0  0  0  0  0
   -9.1450    6.3450  -10.2760 N   0  0  0  0  0  0  0  0  0  0  0  0
   -9.1620    5.2580  -11.0210 C   0  0  0  0  0  0  0  0  0  0  0  0
   -9.3090    5.1870  -12.4810 C   0  0  0  0  0  0  0  0  0  0  0  0
   -9.0980    3.9310  -12.8980 O   0  0  0  0  0  0  0  0  0  0  0  0
   -9.5500    6.2780  -13.2660 N   0  0  0  0  0  0  0  0  0  0  0  0
   -9.0010    6.0840  -14.4740 C   0  0  0  0  0  0  0  0  0  0  0  0
   -9.6240    5.6700  -15.5530 N   0  0  0  0  0  0  0  0  0  0  0  0
   -8.6760    5.5670  -16.4650 C   0  0  0  0  0  0  0  0  0  0  0  0
   -8.7820    5.1420  -17.8280 C   0  0  0  0  0  0  0  0  0  0  0  0
   -7.5520    5.1660  -18.4750 C   0  0  0  0  0  0  0  0  0  0  0  0
   -6.3420    5.5520  -17.8890 C   0  0  0  0  0  0  0  0  0  0  0  0
   -6.2640    5.9590  -16.5710 C   0  0  0  0  0  0  0  0  0  0  0  0
   -7.4650    5.9450  -15.9120 C   0  0  0  0  0  0  0  0  0  0  0  0
   -7.6770    6.2890  -14.6220 O   0  0  0  0  0  0  0  0  0  0  0  0
   -8.9810    3.7740  -10.1820 S   0  0  0  0  0  0  0  0  0  0  0  0
  1  2  1  0
  2  3  2  0
  3  4  1  0
  4  5  2  0
  5  6  1  0
  6  7  2  0
  6  8  1  0
  8  9  1  0
  9 10  2  0
 10 11  1  0
 11 12  2  0
 12 13  1  0
 13 14  2  0
 14 15  1  0
 15 16  2  0
 16 17  1  0
  5 18  1  0
 18  2  1  0
 17  9  1  0
 16 11  1  0
A    1
 C1 
A    2
 C2 
A    3
 N1 
A    4
 N2 
A    5
 C3 
A    6
 C4 
A    7
 O1 
A    8
 N3 
A    9
 C5 
A   10
 N4 
A   11
 C6 
A   12
 C7 
A   13
 C8 
A   14
 C9 
A   15
 C10
A   16
 C11
A   17
 O2 
A   18
 S1 
M  END
>  <ref_pdb>  (101) 
x0051_0B

>  <ref_mols>  (101) 
x0404_0B,x0969_0B

>  <original SMILES>  (101) 
Cc1nnc(C(=O)Nc2nc3ccccc3o2)s1

>  <index>  (101) 
94

>  <LE>  (101) 
0.25850642588860623

>  <∆∆G>  (101) 
-4.653115665994912

>  <percent_hybrid>  (101) 
0.0

>  <largest_ring>  (101) 
6

>  <N_rotatable_bonds>  (101) 
3

>  <UFF_Gibbs>  (101) 
59.56189792263396

>  <strain_per_HA>  (101) 
595618.9792263396

>  <N_PAINS>  (101) 
0

>  <N_interactions>  (101) 
1

>  <N_HA>  (101) 
18

>  <ad_hoc_penalty>  (101) 
595600.8843454357

>  <merger_rank>  (101) 
1

$$$$

     RDKit          3D

 18 20  0  0  0  0  0  0  0  0999 V2000
   -9.2250    3.7860   -7.0440 C   0  0  0  0  0  0  0  0  0  0  0  0
   -9.1840    4.0640   -8.4980 C   0  0  0  0  0  0  0  0  0  0  0  0
   -9.4820    3.1730   -9.3970 N   0  0  0  0  0  0  0  0  0  0  0  0
   -9.3520    3.6620  -10.6610 N   0  0  0  0  0  0  0  0  0  0  0  0
   -8.9630    4.9080  -10.7100 C   0  0  0  0  0  0  0  0  0  0  0  0
   -8.7540    5.5070  -11.9660 C   0  0  0  0  0  0  0  0  0  0  0  0
   -9.4740    6.2950  -12.7440 C   0  0  0  0  0  0  0  0  0  0  0  0
   -8.7620    6.5300  -13.9110 C   0  0  0  0  0  0  0  0  0  0  0  0
   -7.8370    7.4320  -14.0900 N   0  0  0  0  0  0  0  0  0  0  0  0
   -7.3530    7.2440  -15.3480 N   0  0  0  0  0  0  0  0  0  0  0  0
   -8.0200    6.2480  -15.8890 C   0  0  0  0  0  0  0  0  0  0  0  0
   -7.7770    5.7610  -17.2030 C   0  0  0  0  0  0  0  0  0  0  0  0
   -6.6170    5.9950  -17.8930 C   0  0  0  0  0  0  0  0  0  0  0  0
   -6.6190    5.3980  -19.1770 C   0  0  0  0  0  0  0  0  0  0  0  0
   -7.7940    4.7280  -19.4210 C   0  0  0  0  0  0  0  0  0  0  0  0
   -8.8840    4.8180  -18.1120 S   0  0  0  0  0  0  0  0  0  0  0  0
   -8.9480    5.7480  -15.0330 O   0  0  0  0  0  0  0  0  0  0  0  0
   -8.7320    5.6000   -9.1400 S   0  0  0  0  0  0  0  0  0  0  0  0
  1  2  1  0
  2  3  2  0
  3  4  1  0
  4  5  2  0
  5  6  1  0
  6  7  2  3
  7  8  1  0
  8  9  2  0
  9 10  1  0
 10 11  2  0
 11 12  1  0
 12 13  2  0
 13 14  1  0
 14 15  2  0
 15 16  1  0
 11 17  1  0
  5 18  1  0
 18  2  1  0
 17  8  1  0
 16 12  1  0
A    1
 C1 
A    2
 C2 
A    3
 N1 
A    4
 N2 
A    5
 C3 
A    6
 C4 
A    7
 C5 
A    8
 C6 
A    9
 N3 
A   10
 N4 
A   11
 C7 
A   12
 C8 
A   13
 C9 
A   14
 C10
A   15
 C11
A   16
 S1 
A   17
 O1 
A   18
 S2 
M  END
>  <ref_pdb>  (102) 
x0051_0B

>  <ref_mols>  (102) 
x0404_0B,x0969_0B

>  <original SMILES>  (102) 
Cc1nnc(C=Cc2nnc(-c3cccs3)o2)s1

>  <index>  (102) 
95

>  <LE>  (102) 
0.2756682990581251

>  <∆∆G>  (102) 
-4.962029383046252

>  <percent_hybrid>  (102) 
0.0

>  <largest_ring>  (102) 
5

>  <N_rotatable_bonds>  (102) 
4

>  <UFF_Gibbs>  (102) 
61.10130314333455

>  <strain_per_HA>  (102) 
611013.0314333454

>  <N_PAINS>  (102) 
0

>  <N_interactions>  (102) 
3

>  <N_HA>  (102) 
18

>  <ad_hoc_penalty>  (102) 
610980.1387937005

>  <merger_rank>  (102) 
1

$$$$

     RDKit          3D

 15 16  0  0  0  0  0  0  0  0999 V2000
   -9.2900    3.5160   -8.8740 C   0  0  0  0  0  0  0  0  0  0  0  0
   -8.4070    4.2660   -9.8540 C   0  0  0  0  0  0  0  0  0  0  0  0
   -9.0950    4.4190  -11.1140 N   0  0  0  0  0  0  0  0  0  0  0  0
   -9.0740    5.5630  -11.8000 C   0  0  0  0  0  0  0  0  0  0  0  0
   -9.5700    6.7340  -11.4750 N   0  0  0  0  0  0  0  0  0  0  0  0
   -9.2850    7.5780  -12.5260 N   0  0  0  0  0  0  0  0  0  0  0  0
   -8.6290    6.8540  -13.4020 C   0  0  0  0  0  0  0  0  0  0  0  0
   -8.0940    7.1220  -14.5780 N   0  0  0  0  0  0  0  0  0  0  0  0
   -7.9820    6.3400  -15.7150 C   0  0  0  0  0  0  0  0  0  0  0  0
   -6.9010    6.4160  -16.5760 C   0  0  0  0  0  0  0  0  0  0  0  0
   -6.8640    5.6110  -17.7030 C   0  0  0  0  0  0  0  0  0  0  0  0
   -7.9090    4.7450  -17.9490 C   0  0  0  0  0  0  0  0  0  0  0  0
   -8.9520    4.7180  -17.0490 C   0  0  0  0  0  0  0  0  0  0  0  0
   -9.0100    5.4920  -15.9440 N   0  0  0  0  0  0  0  0  0  0  0  0
   -8.4630    5.5640  -13.0090 O   0  0  0  0  0  0  0  0  0  0  0  0
  1  2  1  0
  2  3  1  0
  3  4  1  0
  4  5  2  0
  5  6  1  0
  6  7  2  0
  7  8  1  0
  8  9  1  0
  9 10  2  0
 10 11  1  0
 11 12  2  0
 12 13  1  0
 13 14  2  0
  7 15  1  0
 15  4  1  0
 14  9  1  0
A    1
 C1 
A    2
 C2 
A    3
 N1 
A    4
 C3 
A    5
 N2 
A    6
 N3 
A    7
 C4 
A    8
 N4 
A    9
 C5 
A   10
 C6 
A   11
 C7 
A   12
 C8 
A   13
 C9 
A   14
 N5 
A   15
 O1 
M  END
>  <ref_pdb>  (103) 
x0051_0B

>  <ref_mols>  (103) 
x0404_0B,x0969_0B

>  <original SMILES>  (103) 
CCNc1nnc(Nc2ccccn2)o1

>  <index>  (103) 
96

>  <LE>  (103) 
0.24437543413174526

>  <∆∆G>  (103) 
-3.6656315119761786

>  <percent_hybrid>  (103) 
0.0

>  <largest_ring>  (103) 
6

>  <N_rotatable_bonds>  (103) 
5

>  <UFF_Gibbs>  (103) 
61.52767647079012

>  <strain_per_HA>  (103) 
615276.7647079012

>  <N_PAINS>  (103) 
0

>  <N_interactions>  (103) 
4

>  <N_HA>  (103) 
15

>  <ad_hoc_penalty>  (103) 
615240.5535933308

>  <merger_rank>  (103) 
1

$$$$

     RDKit          3D

 18 20  0  0  0  0  0  0  0  0999 V2000
  -10.3100    7.0710  -11.1620 O   0  0  0  0  0  0  0  0  0  0  0  0
   -9.4220    6.3590  -11.6140 C   0  0  0  0  0  0  0  0  0  0  0  0
   -8.7980    5.3870  -10.8660 C   0  0  0  0  0  0  0  0  0  0  0  0
   -7.4330    5.3050  -11.0890 C   0  0  0  0  0  0  0  0  0  0  0  0
   -6.6930    4.3270  -10.3770 C   0  0  0  0  0  0  0  0  0  0  0  0
   -7.2580    3.4860   -9.5070 N   0  0  0  0  0  0  0  0  0  0  0  0
   -8.5940    3.5850   -9.3010 C   0  0  0  0  0  0  0  0  0  0  0  0
   -9.3640    4.5040   -9.9500 C   0  0  0  0  0  0  0  0  0  0  0  0
   -8.8770    6.4870  -12.9200 C   0  0  0  0  0  0  0  0  0  0  0  0
   -8.8940    5.6830  -14.0290 C   0  0  0  0  0  0  0  0  0  0  0  0
   -8.0890    6.3430  -15.0580 C   0  0  0  0  0  0  0  0  0  0  0  0
   -7.7580    5.8460  -16.4800 C   0  0  0  0  0  0  0  0  0  0  0  0
   -8.5050    5.0100  -17.2810 C   0  0  0  0  0  0  0  0  0  0  0  0
   -7.7730    4.8600  -18.4810 C   0  0  0  0  0  0  0  0  0  0  0  0
   -6.6320    5.6080  -18.3350 C   0  0  0  0  0  0  0  0  0  0  0  0
   -6.6130    6.2120  -17.1250 O   0  0  0  0  0  0  0  0  0  0  0  0
   -7.6410    7.5010  -14.5520 N   0  0  0  0  0  0  0  0  0  0  0  0
   -8.1360    7.5860  -13.2510 O   0  0  0  0  0  0  0  0  0  0  0  0
  1  2  2  0
  2  3  1  0
  3  4  2  0
  4  5  1  0
  5  6  2  0
  6  7  1  0
  7  8  2  0
  2  9  1  0
  9 10  2  0
 10 11  1  0
 11 12  1  0
 12 13  2  0
 13 14  1  0
 14 15  2  0
 15 16  1  0
 11 17  2  0
 17 18  1  0
  8  3  1  0
 18  9  1  0
 16 12  1  0
A    1
 O1 
A    2
 C1 
A    3
 C2 
A    4
 C3 
A    5
 C4 
A    6
 N1 
A    7
 C5 
A    8
 C6 
A    9
 C7 
A   10
 C8 
A   11
 C9 
A   12
 C10
A   13
 C11
A   14
 C12
A   15
 C13
A   16
 O2 
A   17
 N2 
A   18
 O3 
M  END
>  <ref_pdb>  (104) 
x0051_0B

>  <ref_mols>  (104) 
x0404_0B,x0969_0B

>  <original SMILES>  (104) 
O=C(c1ccncc1)c1cc(-c2ccco2)no1

>  <index>  (104) 
97

>  <LE>  (104) 
0.18420477465784138

>  <∆∆G>  (104) 
-3.315685943841145

>  <percent_hybrid>  (104) 
0.0

>  <largest_ring>  (104) 
6

>  <N_rotatable_bonds>  (104) 
3

>  <UFF_Gibbs>  (104) 
61.53025423155893

>  <strain_per_HA>  (104) 
615302.5423155893

>  <N_PAINS>  (104) 
0

>  <N_interactions>  (104) 
2

>  <N_HA>  (104) 
18

>  <ad_hoc_penalty>  (104) 
615281.0965339578

>  <merger_rank>  (104) 
1

$$$$

     RDKit          3D

 17 19  0  0  0  0  0  0  0  0999 V2000
  -10.2330    5.7910  -15.2390 O   0  0  0  0  0  0  0  0  0  0  0  0
   -9.0190    5.9510  -15.2220 C   0  0  0  0  0  0  0  0  0  0  0  0
   -8.4090    6.5440  -14.1290 N   0  0  0  0  0  0  0  0  0  0  0  0
   -9.2350    7.1170  -13.0890 C   0  0  0  0  0  0  0  0  0  0  0  0
   -9.0550    6.3180  -11.9770 C   0  0  0  0  0  0  0  0  0  0  0  0
   -8.6780    6.6240  -10.6010 C   0  0  0  0  0  0  0  0  0  0  0  0
   -8.6940    5.3430  -10.0030 C   0  0  0  0  0  0  0  0  0  0  0  0
   -8.5090    4.5990   -8.8610 N   0  0  0  0  0  0  0  0  0  0  0  0
   -8.7060    3.2700   -8.9680 N   0  0  0  0  0  0  0  0  0  0  0  0
   -9.0380    3.1710  -10.2700 C   0  0  0  0  0  0  0  0  0  0  0  0
   -9.0370    4.4180  -10.9270 C   0  0  0  0  0  0  0  0  0  0  0  0
   -9.2640    4.9730  -12.1480 O   0  0  0  0  0  0  0  0  0  0  0  0
   -8.1850    5.5780  -16.2720 C   0  0  0  0  0  0  0  0  0  0  0  0
   -8.5030    4.9330  -17.4560 C   0  0  0  0  0  0  0  0  0  0  0  0
   -7.3730    4.7280  -18.2920 C   0  0  0  0  0  0  0  0  0  0  0  0
   -6.2230    5.2170  -17.7280 C   0  0  0  0  0  0  0  0  0  0  0  0
   -6.5060    5.9230  -16.1990 S   0  0  0  0  0  0  0  0  0  0  0  0
  1  2  2  0
  2  3  1  0
  3  4  1  0
  4  5  1  0
  5  6  2  0
  6  7  1  0
  7  8  1  0
  8  9  1  0
  9 10  2  0
 10 11  1  0
 11 12  1  0
  2 13  1  0
 13 14  2  0
 14 15  1  0
 15 16  2  0
 16 17  1  0
 12  5  1  0
 17 13  1  0
 11  7  2  0
A    1
 O1 
A    2
 C1 
A    3
 N1 
A    4
 C2 
A    5
 C3 
A    6
 C4 
A    7
 C5 
A    8
 N2 
A    9
 N3 
A   10
 C6 
A   11
 C7 
A   12
 O2 
A   13
 C8 
A   14
 C9 
A   15
 C10
A   16
 C11
A   17
 S1 
M  END
>  <ref_pdb>  (105) 
x0051_0B

>  <ref_mols>  (105) 
x0404_0B,x0969_0B

>  <original SMILES>  (105) 
O=C(NCc1cc2[nH]ncc2o1)c1cccs1

>  <index>  (105) 
98

>  <LE>  (105) 
0.26349863159578696

>  <∆∆G>  (105) 
-4.479476737128378

>  <percent_hybrid>  (105) 
0.0

>  <largest_ring>  (105) 
5

>  <N_rotatable_bonds>  (105) 
3

>  <UFF_Gibbs>  (105) 
61.66281134391156

>  <strain_per_HA>  (105) 
616628.1134391156

>  <N_PAINS>  (105) 
0

>  <N_interactions>  (105) 
2

>  <N_HA>  (105) 
17

>  <ad_hoc_penalty>  (105) 
616603.7191699091

>  <merger_rank>  (105) 
1

$$$$

     RDKit          3D

 11 11  0  0  0  0  0  0  0  0999 V2000
   -9.2970    4.6500  -17.3490 C   0  0  0  0  0  0  0  0  0  0  0  0
   -8.3790    4.9900  -16.2990 O   0  0  0  0  0  0  0  0  0  0  0  0
   -8.9390    5.0130  -15.0480 C   0  0  0  0  0  0  0  0  0  0  0  0
  -10.1380    5.0270  -14.8710 O   0  0  0  0  0  0  0  0  0  0  0  0
   -7.9550    5.0240  -14.1610 N   0  0  0  0  0  0  0  0  0  0  0  0
   -8.0220    4.8680  -12.7760 C   0  0  0  0  0  0  0  0  0  0  0  0
   -8.9810    4.2710  -12.0200 C   0  0  0  0  0  0  0  0  0  0  0  0
   -8.6870    4.2930  -10.6290 C   0  0  0  0  0  0  0  0  0  0  0  0
   -9.3620    3.8030   -9.5170 C   0  0  0  0  0  0  0  0  0  0  0  0
   -7.5020    4.9410  -10.5580 O   0  0  0  0  0  0  0  0  0  0  0  0
   -7.0960    5.2920  -11.8690 N   0  0  0  0  0  0  0  0  0  0  0  0
  1  2  1  0
  2  3  1  0
  3  4  2  0
  3  5  1  0
  5  6  1  0
  6  7  1  0
  7  8  2  0
  8  9  1  0
  8 10  1  0
 10 11  1  0
 11  6  2  0
A    1
 C1 
A    2
 O1 
A    3
 C2 
A    4
 O2 
A    5
 N1 
A    6
 C3 
A    7
 C4 
A    8
 C5 
A    9
 C6 
A   10
 O3 
A   11
 N2 
M  END
>  <ref_pdb>  (106) 
x0051_0B

>  <ref_mols>  (106) 
x0969_1B,x0553_0B

>  <original SMILES>  (106) 
COC(=O)Nc1cc(C)on1

>  <index>  (106) 
99

>  <LE>  (106) 
0.32828941124496297

>  <∆∆G>  (106) 
-3.6111835236945926

>  <percent_hybrid>  (106) 
0.0

>  <largest_ring>  (106) 
5

>  <N_rotatable_bonds>  (106) 
3

>  <UFF_Gibbs>  (106) 
61.694266107470504

>  <strain_per_HA>  (106) 
616942.661074705

>  <N_PAINS>  (106) 
0

>  <N_interactions>  (106) 
1

>  <N_HA>  (106) 
11

>  <ad_hoc_penalty>  (106) 
616929.7102243039

>  <merger_rank>  (106) 
1

$$$$

     RDKit          3D

 14 15  0  0  0  0  0  0  0  0999 V2000
   -8.5860    3.3600  -12.7660 O   0  0  0  0  0  0  0  0  0  0  0  0
   -8.4880    4.5720  -12.8600 C   0  0  0  0  0  0  0  0  0  0  0  0
   -8.1490    5.3020  -13.9860 N   0  0  0  0  0  0  0  0  0  0  0  0
   -8.5960    5.0960  -15.2780 C   0  0  0  0  0  0  0  0  0  0  0  0
   -7.8340    4.9280  -16.4120 C   0  0  0  0  0  0  0  0  0  0  0  0
   -8.5320    4.7370  -17.5910 N   0  0  0  0  0  0  0  0  0  0  0  0
   -9.8170    4.7580  -17.3380 C   0  0  0  0  0  0  0  0  0  0  0  0
  -10.2310    5.0180  -15.7050 S   0  0  0  0  0  0  0  0  0  0  0  0
   -8.6700    5.4270  -11.7950 N   0  0  0  0  0  0  0  0  0  0  0  0
   -8.8480    4.9000  -10.5600 N   0  0  0  0  0  0  0  0  0  0  0  0
   -9.1590    3.6030  -10.2600 C   0  0  0  0  0  0  0  0  0  0  0  0
   -9.2450    3.5010   -8.9500 N   0  0  0  0  0  0  0  0  0  0  0  0
   -8.9810    4.7610   -8.4580 N   0  0  0  0  0  0  0  0  0  0  0  0
   -8.7380    5.6170   -9.4400 N   0  0  0  0  0  0  0  0  0  0  0  0
  1  2  2  0
  2  3  1  0
  3  4  1  0
  4  5  2  0
  5  6  1  0
  6  7  2  0
  7  8  1  0
  2  9  1  0
  9 10  1  0
 10 11  1  0
 11 12  2  0
 12 13  1  0
 13 14  2  0
  8  4  1  0
 14 10  1  0
A    1
 O1 
A    2
 C1 
A    3
 N1 
A    4
 C2 
A    5
 C3 
A    6
 N2 
A    7
 C4 
A    8
 S1 
A    9
 N3 
A   10
 N4 
A   11
 C5 
A   12
 N5 
A   13
 N6 
A   14
 N7 
M  END
>  <ref_pdb>  (107) 
x0051_0B

>  <ref_mols>  (107) 
x0969_1B,x0553_0B

>  <original SMILES>  (107) 
O=C(Nc1cncs1)Nn1cnnn1

>  <index>  (107) 
100

>  <LE>  (107) 
0.18564187988945124

>  <∆∆G>  (107) 
-2.5989863184523174

>  <percent_hybrid>  (107) 
0.0

>  <largest_ring>  (107) 
5

>  <N_rotatable_bonds>  (107) 
2

>  <UFF_Gibbs>  (107) 
61.711581329728716

>  <strain_per_HA>  (107) 
617115.8132972871

>  <N_PAINS>  (107) 
0

>  <N_interactions>  (107) 
1

>  <N_HA>  (107) 
14

>  <ad_hoc_penalty>  (107) 
617103.1960332426

>  <merger_rank>  (107) 
1

$$$$

     RDKit          3D

 16 17  0  0  0  0  0  0  0  0999 V2000
   -8.9380    3.4740   -8.4270 C   0  0  0  0  0  0  0  0  0  0  0  0
   -8.8010    3.9710   -9.6990 C   0  0  0  0  0  0  0  0  0  0  0  0
   -8.7240    3.0130  -10.6420 O   0  0  0  0  0  0  0  0  0  0  0  0
   -8.7550    5.2880   -9.8260 N   0  0  0  0  0  0  0  0  0  0  0  0
   -8.7810    5.9150  -11.0460 C   0  0  0  0  0  0  0  0  0  0  0  0
   -9.1350    7.1660  -11.2500 N   0  0  0  0  0  0  0  0  0  0  0  0
   -9.0210    7.3880  -12.6090 N   0  0  0  0  0  0  0  0  0  0  0  0
   -8.5990    6.2520  -13.1430 C   0  0  0  0  0  0  0  0  0  0  0  0
   -8.3400    5.9820  -14.4410 C   0  0  0  0  0  0  0  0  0  0  0  0
   -7.6090    6.8580  -15.2030 C   0  0  0  0  0  0  0  0  0  0  0  0
   -7.3670    6.5670  -16.5520 C   0  0  0  0  0  0  0  0  0  0  0  0
   -7.8690    5.4100  -17.1100 C   0  0  0  0  0  0  0  0  0  0  0  0
   -7.6460    5.0800  -18.5530 C   0  0  0  0  0  0  0  0  0  0  0  0
   -8.5780    4.5920  -16.2720 C   0  0  0  0  0  0  0  0  0  0  0  0
   -8.8190    4.8430  -14.9680 N   0  0  0  0  0  0  0  0  0  0  0  0
   -8.4280    5.2700  -12.1960 O   0  0  0  0  0  0  0  0  0  0  0  0
  1  2  1  0
  2  3  2  0
  2  4  1  0
  4  5  1  0
  5  6  2  0
  6  7  1  0
  7  8  2  0
  8  9  1  0
  9 10  2  0
 10 11  1  0
 11 12  2  0
 12 13  1  0
 12 14  1  0
 14 15  2  0
  8 16  1  0
 16  5  1  0
 15  9  1  0
A    1
 C1 
A    2
 C2 
A    3
 O1 
A    4
 N1 
A    5
 C3 
A    6
 N2 
A    7
 N3 
A    8
 C4 
A    9
 C5 
A   10
 C6 
A   11
 C7 
A   12
 C8 
A   13
 C9 
A   14
 C10
A   15
 N4 
A   16
 O2 
M  END
>  <ref_pdb>  (108) 
x0051_0B

>  <ref_mols>  (108) 
x0404_0B,x0969_0B

>  <original SMILES>  (108) 
CC(=O)Nc1nnc(-c2ccc(C)cn2)o1

>  <index>  (108) 
101

>  <LE>  (108) 
0.28869673964117837

>  <∆∆G>  (108) 
-4.619147834258854

>  <percent_hybrid>  (108) 
0.0

>  <largest_ring>  (108) 
6

>  <N_rotatable_bonds>  (108) 
4

>  <UFF_Gibbs>  (108) 
62.16225129366903

>  <strain_per_HA>  (108) 
621622.5129366902

>  <N_PAINS>  (108) 
0

>  <N_interactions>  (108) 
3

>  <N_HA>  (108) 
16

>  <ad_hoc_penalty>  (108) 
621593.2093357057

>  <merger_rank>  (108) 
1

$$$$

     RDKit          3D

 13 14  0  0  0  0  0  0  0  0999 V2000
   -9.0720    4.6790  -12.7100 C   0  0  0  0  0  0  0  0  0  0  0  0
   -8.0690    4.8160  -13.7490 N   0  0  0  0  0  0  0  0  0  0  0  0
   -8.4500    4.8630  -15.0570 C   0  0  0  0  0  0  0  0  0  0  0  0
   -7.5680    4.7340  -16.0360 N   0  0  0  0  0  0  0  0  0  0  0  0
   -8.0580    4.7660  -17.2890 C   0  0  0  0  0  0  0  0  0  0  0  0
   -9.4510    4.9300  -17.5580 C   0  0  0  0  0  0  0  0  0  0  0  0
  -10.2970    5.0660  -16.5320 N   0  0  0  0  0  0  0  0  0  0  0  0
   -9.7820    5.0340  -15.2700 N   0  0  0  0  0  0  0  0  0  0  0  0
   -9.0050    4.5410  -11.2720 C   0  0  0  0  0  0  0  0  0  0  0  0
   -8.9020    3.3480  -10.5100 C   0  0  0  0  0  0  0  0  0  0  0  0
   -8.8740    3.6730   -9.1840 C   0  0  0  0  0  0  0  0  0  0  0  0
   -8.9580    5.0490   -9.1370 C   0  0  0  0  0  0  0  0  0  0  0  0
   -9.0390    5.5860  -10.3910 O   0  0  0  0  0  0  0  0  0  0  0  0
  1  2  2  3
  2  3  1  0
  3  4  2  0
  4  5  1  0
  5  6  2  0
  6  7  1  0
  7  8  2  0
  1  9  1  0
  9 10  2  0
 10 11  1  0
 11 12  2  0
 12 13  1  0
  8  3  1  0
 13  9  1  0
A    1
 C1 
A    2
 N1 
A    3
 C2 
A    4
 N2 
A    5
 C3 
A    6
 C4 
A    7
 N3 
A    8
 N4 
A    9
 C5 
A   10
 C6 
A   11
 C7 
A   12
 C8 
A   13
 O1 
M  END
>  <ref_pdb>  (109) 
x0051_0B

>  <ref_mols>  (109) 
x0969_1B,x0553_0B

>  <original SMILES>  (109) 
C(=Nc1nccnn1)c1ccco1

>  <index>  (109) 
102

>  <LE>  (109) 
0.353612453733376

>  <∆∆G>  (109) 
-4.5969618985338885

>  <percent_hybrid>  (109) 
0.0

>  <largest_ring>  (109) 
6

>  <N_rotatable_bonds>  (109) 
2

>  <UFF_Gibbs>  (109) 
64.08172889093765

>  <strain_per_HA>  (109) 
640817.2889093765

>  <N_PAINS>  (109) 
0

>  <N_interactions>  (109) 
1

>  <N_HA>  (109) 
13

>  <ad_hoc_penalty>  (109) 
640798.8777185918

>  <merger_rank>  (109) 
1

$$$$

     RDKit          3D

 17 19  0  0  0  0  0  0  0  0999 V2000
  -10.2840    7.7870  -13.5630 O   0  0  0  0  0  0  0  0  0  0  0  0
   -9.4650    6.8720  -13.5460 C   0  0  0  0  0  0  0  0  0  0  0  0
   -8.9760    6.3680  -12.3750 N   0  0  0  0  0  0  0  0  0  0  0  0
   -8.6210    4.9900  -12.2530 C   0  0  0  0  0  0  0  0  0  0  0  0
   -8.7370    4.6300  -10.9690 C   0  0  0  0  0  0  0  0  0  0  0  0
   -8.7460    5.4420   -9.7650 C   0  0  0  0  0  0  0  0  0  0  0  0
   -8.8920    4.5620   -8.7180 C   0  0  0  0  0  0  0  0  0  0  0  0
   -8.9720    3.2620   -9.2270 C   0  0  0  0  0  0  0  0  0  0  0  0
   -8.8740    3.3100  -10.6080 O   0  0  0  0  0  0  0  0  0  0  0  0
   -8.9170    6.2720  -14.7600 C   0  0  0  0  0  0  0  0  0  0  0  0
   -9.5420    5.8150  -15.8850 C   0  0  0  0  0  0  0  0  0  0  0  0
   -8.5780    5.3750  -16.7670 C   0  0  0  0  0  0  0  0  0  0  0  0
   -8.4530    4.8430  -18.0120 O   0  0  0  0  0  0  0  0  0  0  0  0
   -7.1040    4.6930  -18.1400 C   0  0  0  0  0  0  0  0  0  0  0  0
   -6.3750    5.0970  -17.0440 C   0  0  0  0  0  0  0  0  0  0  0  0
   -7.3860    5.5400  -16.1810 C   0  0  0  0  0  0  0  0  0  0  0  0
   -7.5430    6.0930  -14.9230 O   0  0  0  0  0  0  0  0  0  0  0  0
  1  2  2  0
  2  3  1  0
  3  4  1  0
  4  5  1  0
  5  6  2  0
  6  7  1  0
  7  8  2  0
  8  9  1  0
  2 10  1  0
 10 11  2  0
 11 12  1  0
 12 13  1  0
 13 14  1  0
 14 15  2  0
 15 16  1  0
 16 17  1  0
  9  5  1  0
 17 10  1  0
 16 12  2  0
A    1
 O1 
A    2
 C1 
A    3
 N1 
A    4
 C2 
A    5
 C3 
A    6
 C4 
A    7
 C5 
A    8
 C6 
A    9
 O2 
A   10
 C7 
A   11
 C8 
A   12
 C9 
A   13
 O3 
A   14
 C10
A   15
 C11
A   16
 C12
A   17
 O4 
M  END
>  <ref_pdb>  (110) 
x0051_0B

>  <ref_mols>  (110) 
x0404_0B,x0969_0B

>  <original SMILES>  (110) 
O=C(NCc1ccco1)c1cc2occc2o1

>  <index>  (110) 
103

>  <LE>  (110) 
0.2642201876570107

>  <∆∆G>  (110) 
-4.491743190169182

>  <percent_hybrid>  (110) 
0.0

>  <largest_ring>  (110) 
5

>  <N_rotatable_bonds>  (110) 
3

>  <UFF_Gibbs>  (110) 
64.12988193029523

>  <strain_per_HA>  (110) 
641298.8193029523

>  <N_PAINS>  (110) 
0

>  <N_interactions>  (110) 
4

>  <N_HA>  (110) 
17

>  <ad_hoc_penalty>  (110) 
641258.2265061341

>  <merger_rank>  (110) 
1

$$$$

     RDKit          3D

 13 14  0  0  0  0  0  0  0  0999 V2000
   -8.3670    3.6630   -8.8840 C   0  0  0  0  0  0  0  0  0  0  0  0
   -8.6500    4.2970  -10.0690 C   0  0  0  0  0  0  0  0  0  0  0  0
   -8.4200    5.5670  -10.3160 N   0  0  0  0  0  0  0  0  0  0  0  0
   -8.8120    5.9330  -11.5250 N   0  0  0  0  0  0  0  0  0  0  0  0
   -9.3480    4.9520  -12.2150 C   0  0  0  0  0  0  0  0  0  0  0  0
  -10.0250    5.2620  -13.8120 S   0  0  0  0  0  0  0  0  0  0  0  0
   -8.9700    5.0770  -15.2220 C   0  0  0  0  0  0  0  0  0  0  0  0
   -9.5260    4.9060  -16.3850 C   0  0  0  0  0  0  0  0  0  0  0  0
   -8.7950    4.7700  -17.6630 C   0  0  0  0  0  0  0  0  0  0  0  0
   -7.4440    4.8340  -17.5850 N   0  0  0  0  0  0  0  0  0  0  0  0
   -6.9510    5.0020  -16.3230 C   0  0  0  0  0  0  0  0  0  0  0  0
   -7.6260    5.1260  -15.1410 N   0  0  0  0  0  0  0  0  0  0  0  0
   -9.3650    3.4440  -11.3780 S   0  0  0  0  0  0  0  0  0  0  0  0
  1  2  1  0
  2  3  2  0
  3  4  1  0
  4  5  2  0
  5  6  1  0
  6  7  1  0
  7  8  2  0
  8  9  1  0
  9 10  2  0
 10 11  1  0
 11 12  2  0
  5 13  1  0
 13  2  1  0
 12  7  1  0
A    1
 C1 
A    2
 C2 
A    3
 N1 
A    4
 N2 
A    5
 C3 
A    6
 S1 
A    7
 C4 
A    8
 C5 
A    9
 C6 
A   10
 N3 
A   11
 C7 
A   12
 N4 
A   13
 S2 
M  END
>  <ref_pdb>  (111) 
x0051_0B

>  <ref_mols>  (111) 
x0969_1B,x0553_0B

>  <original SMILES>  (111) 
Cc1nnc(Sc2ccncn2)s1

>  <index>  (111) 
104

>  <LE>  (111) 
0.35383111319790594

>  <∆∆G>  (111) 
-4.599804471572777

>  <percent_hybrid>  (111) 
0.0

>  <largest_ring>  (111) 
6

>  <N_rotatable_bonds>  (111) 
3

>  <UFF_Gibbs>  (111) 
65.0383158397614

>  <strain_per_HA>  (111) 
650383.1583976139

>  <N_PAINS>  (111) 
0

>  <N_interactions>  (111) 
1

>  <N_HA>  (111) 
13

>  <ad_hoc_penalty>  (111) 
650367.7386791101

>  <merger_rank>  (111) 
1

$$$$

     RDKit          3D

 20 23  0  0  0  0  0  0  0  0999 V2000
   -9.7440   10.7260  -12.3780 O   0  0  0  0  0  0  0  0  0  0  0  0
  -10.9010   10.4760  -12.1110 C   0  0  0  0  0  0  0  0  0  0  0  0
  -11.5250    9.2870  -12.2420 O   0  0  0  0  0  0  0  0  0  0  0  0
  -10.9270    8.4040  -13.0060 C   0  0  0  0  0  0  0  0  0  0  0  0
   -9.8280    7.7920  -13.2270 N   0  0  0  0  0  0  0  0  0  0  0  0
  -10.3490    7.1400  -14.2780 C   0  0  0  0  0  0  0  0  0  0  0  0
   -9.7430    6.2770  -15.2180 C   0  0  0  0  0  0  0  0  0  0  0  0
   -8.4000    6.0480  -15.5240 C   0  0  0  0  0  0  0  0  0  0  0  0
   -8.2910    5.1490  -16.5500 N   0  0  0  0  0  0  0  0  0  0  0  0
   -9.5420    4.8580  -16.8320 C   0  0  0  0  0  0  0  0  0  0  0  0
  -10.4780    5.4970  -16.0740 O   0  0  0  0  0  0  0  0  0  0  0  0
  -11.5000    7.7310  -14.0520 N   0  0  0  0  0  0  0  0  0  0  0  0
  -11.8370   11.4150  -11.5700 C   0  0  0  0  0  0  0  0  0  0  0  0
  -11.7360   12.7830  -11.2650 C   0  0  0  0  0  0  0  0  0  0  0  0
  -12.8610   13.2910  -10.7420 C   0  0  0  0  0  0  0  0  0  0  0  0
  -13.0710   14.6270  -10.3320 C   0  0  0  0  0  0  0  0  0  0  0  0
  -14.3470   14.6960   -9.8510 C   0  0  0  0  0  0  0  0  0  0  0  0
  -15.0950   13.1680   -9.9580 S   0  0  0  0  0  0  0  0  0  0  0  0
  -13.8190   12.4340  -10.6160 C   0  0  0  0  0  0  0  0  0  0  0  0
  -13.4380   10.8730  -11.1630 S   0  0  0  0  0  0  0  0  0  0  0  0
  1  2  2  0
  2  3  1  0
  3  4  1  0
  4  5  2  0
  5  6  1  0
  6  7  1  0
  7  8  2  0
  8  9  1  0
  9 10  2  0
 10 11  1  0
  6 12  2  0
  2 13  1  0
 13 14  2  0
 14 15  1  0
 15 16  1  0
 16 17  2  0
 17 18  1  0
 18 19  1  0
 19 20  1  0
 12  4  1  0
 20 13  1  0
 11  7  1  0
 19 15  2  0
A    1
 O1 
A    2
 C1 
A    3
 O2 
A    4
 C2 
A    5
 N1 
A    6
 C3 
A    7
 C4 
A    8
 C5 
A    9
 N2 
A   10
 C6 
A   11
 O3 
A   12
 N3 
A   13
 C7 
A   14
 C8 
A   15
 C9 
A   16
 C10
A   17
 C11
A   18
 S1 
A   19
 C12
A   20
 S2 
M  END
>  <ref_pdb>  (112) 
x0051_0B

>  <ref_mols>  (112) 
x0846_0B,x0559_0B

>  <original SMILES>  (112) 
O=C(OC1=NC(c2cnco2)=N1)c1cc2ccsc2s1

>  <index>  (112) 
105

>  <LE>  (112) 
0.05991635690747339

>  <∆∆G>  (112) 
-1.1983271381494678

>  <percent_hybrid>  (112) 
0.0

>  <largest_ring>  (112) 
5

>  <N_rotatable_bonds>  (112) 
2

>  <UFF_Gibbs>  (112) 
65.16345066498972

>  <strain_per_HA>  (112) 
651634.5066498972

>  <N_PAINS>  (112) 
0

>  <N_interactions>  (112) 
3

>  <N_HA>  (112) 
20

>  <ad_hoc_penalty>  (112) 
651588.139175587

>  <merger_rank>  (112) 
1

$$$$

     RDKit          3D

 17 19  0  0  0  0  0  0  0  0999 V2000
   -8.1270    5.3430  -18.7650 C   0  0  0  0  0  0  0  0  0  0  0  0
   -7.8140    5.1970  -17.2980 C   0  0  0  0  0  0  0  0  0  0  0  0
   -7.4630    6.3100  -16.5580 C   0  0  0  0  0  0  0  0  0  0  0  0
   -6.8030    7.3550  -17.1250 O   0  0  0  0  0  0  0  0  0  0  0  0
   -7.8240    6.2100  -15.2270 C   0  0  0  0  0  0  0  0  0  0  0  0
   -8.1440    7.1050  -14.3080 C   0  0  0  0  0  0  0  0  0  0  0  0
   -8.4280    6.5500  -13.1020 C   0  0  0  0  0  0  0  0  0  0  0  0
   -8.8900    6.7500  -11.4500 S   0  0  0  0  0  0  0  0  0  0  0  0
   -8.7500    4.9960  -11.2780 C   0  0  0  0  0  0  0  0  0  0  0  0
   -8.9610    4.3910  -10.0770 C   0  0  0  0  0  0  0  0  0  0  0  0
   -9.1040    5.0830   -8.8580 C   0  0  0  0  0  0  0  0  0  0  0  0
   -9.2870    4.1500   -7.8410 C   0  0  0  0  0  0  0  0  0  0  0  0
   -9.2780    2.8390   -8.2870 C   0  0  0  0  0  0  0  0  0  0  0  0
   -9.0470    2.6970   -9.9550 S   0  0  0  0  0  0  0  0  0  0  0  0
   -8.4100    4.3490  -12.4130 N   0  0  0  0  0  0  0  0  0  0  0  0
   -8.2480    5.2380  -13.3560 C   0  0  0  0  0  0  0  0  0  0  0  0
   -7.8850    4.9850  -14.6500 O   0  0  0  0  0  0  0  0  0  0  0  0
  1  2  1  0
  2  3  1  0
  3  4  2  0
  3  5  1  0
  5  6  2  0
  6  7  1  0
  7  8  1  0
  8  9  1  0
  9 10  1  0
 10 11  2  0
 11 12  1  0
 12 13  2  0
 13 14  1  0
  9 15  2  0
 15 16  1  0
 16 17  1  0
 17  5  1  0
 16  7  2  0
 14 10  1  0
A    1
 C1 
A    2
 C2 
A    3
 C3 
A    4
 O1 
A    5
 C4 
A    6
 C5 
A    7
 C6 
A    8
 S1 
A    9
 C7 
A   10
 C8 
A   11
 C9 
A   12
 C10
A   13
 C11
A   14
 S2 
A   15
 N1 
A   16
 C12
A   17
 O2 
M  END
>  <ref_pdb>  (113) 
x0051_0B

>  <ref_mols>  (113) 
x0404_0B,x0969_0B

>  <original SMILES>  (113) 
CCC(=O)c1cc2sc(-c3cccs3)nc2o1

>  <index>  (113) 
106

>  <LE>  (113) 
0.3260456195675284

>  <∆∆G>  (113) 
-5.542775532647983

>  <percent_hybrid>  (113) 
0.0

>  <largest_ring>  (113) 
5

>  <N_rotatable_bonds>  (113) 
4

>  <UFF_Gibbs>  (113) 
66.27929840866761

>  <strain_per_HA>  (113) 
662792.9840866762

>  <N_PAINS>  (113) 
0

>  <N_interactions>  (113) 
3

>  <N_HA>  (113) 
17

>  <ad_hoc_penalty>  (113) 
662760.7737267365

>  <merger_rank>  (113) 
1

$$$$

     RDKit          3D

 17 19  0  0  0  0  0  0  0  0999 V2000
   -7.1790    4.8120  -19.3860 C   0  0  0  0  0  0  0  0  0  0  0  0
   -7.6050    5.0970  -17.9600 C   0  0  0  0  0  0  0  0  0  0  0  0
   -7.4810    6.2480  -17.1690 C   0  0  0  0  0  0  0  0  0  0  0  0
   -8.0140    6.0680  -15.9300 C   0  0  0  0  0  0  0  0  0  0  0  0
   -8.1560    6.8340  -14.8230 N   0  0  0  0  0  0  0  0  0  0  0  0
   -8.1190    6.2950  -13.5790 N   0  0  0  0  0  0  0  0  0  0  0  0
   -9.0760    6.5260  -12.7430 C   0  0  0  0  0  0  0  0  0  0  0  0
   -9.0260    5.9490  -11.5080 C   0  0  0  0  0  0  0  0  0  0  0  0
   -8.8890    6.5400  -10.3190 N   0  0  0  0  0  0  0  0  0  0  0  0
   -8.9050    5.4500   -9.5330 C   0  0  0  0  0  0  0  0  0  0  0  0
   -8.8150    5.2280   -8.1840 N   0  0  0  0  0  0  0  0  0  0  0  0
   -8.9030    3.8420   -8.0070 C   0  0  0  0  0  0  0  0  0  0  0  0
   -9.0440    3.2660   -9.2480 C   0  0  0  0  0  0  0  0  0  0  0  0
   -9.0410    4.2870  -10.1760 C   0  0  0  0  0  0  0  0  0  0  0  0
   -9.1240    4.5620  -11.4900 O   0  0  0  0  0  0  0  0  0  0  0  0
   -8.4670    4.7840  -15.9490 O   0  0  0  0  0  0  0  0  0  0  0  0
   -8.2210    4.1900  -17.1990 N   0  0  0  0  0  0  0  0  0  0  0  0
  1  2  1  0
  2  3  1  0
  3  4  2  0
  4  5  1  0
  5  6  1  0
  6  7  2  3
  7  8  1  0
  8  9  2  0
  9 10  1  0
 10 11  1  0
 11 12  1  0
 12 13  2  0
 13 14  1  0
 14 15  1  0
  4 16  1  0
 16 17  1  0
 17  2  2  0
 15  8  1  0
 14 10  2  0
A    1
 C1 
A    2
 C2 
A    3
 C3 
A    4
 C4 
A    5
 N1 
A    6
 N2 
A    7
 C5 
A    8
 C6 
A    9
 N3 
A   10
 C7 
A   11
 N4 
A   12
 C8 
A   13
 C9 
A   14
 C10
A   15
 O1 
A   16
 O2 
A   17
 N5 
M  END
>  <ref_pdb>  (114) 
x0051_0B

>  <ref_mols>  (114) 
x0404_0B,x0969_0B

>  <original SMILES>  (114) 
Cc1cc(NN=Cc2nc3[nH]ccc3o2)on1

>  <index>  (114) 
107

>  <LE>  (114) 
0.23558032212043553

>  <∆∆G>  (114) 
-4.004865476047404

>  <percent_hybrid>  (114) 
0.0

>  <largest_ring>  (114) 
5

>  <N_rotatable_bonds>  (114) 
4

>  <UFF_Gibbs>  (114) 
66.77046307810565

>  <strain_per_HA>  (114) 
667704.6307810565

>  <N_PAINS>  (114) 
0

>  <N_interactions>  (114) 
4

>  <N_HA>  (114) 
17

>  <ad_hoc_penalty>  (114) 
667668.4344932407

>  <merger_rank>  (114) 
1

$$$$

     RDKit          3D

 18 19  0  0  0  0  0  0  0  0999 V2000
   -8.5870    4.7020  -13.6540 O   0  0  0  0  0  0  0  0  0  0  0  0
   -8.7730    5.8790  -13.4110 C   0  0  0  0  0  0  0  0  0  0  0  0
   -9.6100    6.3970  -12.4550 N   0  0  0  0  0  0  0  0  0  0  0  0
   -9.2510    6.5950  -11.1300 C   0  0  0  0  0  0  0  0  0  0  0  0
   -9.1100    7.7030  -10.6160 O   0  0  0  0  0  0  0  0  0  0  0  0
   -9.0520    5.3140  -10.3840 C   0  0  0  0  0  0  0  0  0  0  0  0
   -8.6750    5.1290   -9.0580 C   0  0  0  0  0  0  0  0  0  0  0  0
   -8.6190    3.7960   -8.7670 C   0  0  0  0  0  0  0  0  0  0  0  0
   -8.9310    2.8920   -9.7950 C   0  0  0  0  0  0  0  0  0  0  0  0
   -9.3060    3.7930  -11.1890 S   0  0  0  0  0  0  0  0  0  0  0  0
   -8.0320    6.9570  -14.1240 C   0  0  0  0  0  0  0  0  0  0  0  0
   -7.7840    8.4150  -13.2380 Cl  0  0  0  0  0  0  0  0  0  0  0  0
   -7.5650    6.8670  -15.3630 C   0  0  0  0  0  0  0  0  0  0  0  0
   -7.5670    5.8660  -16.4720 C   0  0  0  0  0  0  0  0  0  0  0  0
   -8.5220    5.0790  -17.1060 C   0  0  0  0  0  0  0  0  0  0  0  0
   -7.8640    4.3760  -18.1320 C   0  0  0  0  0  0  0  0  0  0  0  0
   -6.5490    4.7520  -18.0730 C   0  0  0  0  0  0  0  0  0  0  0  0
   -6.3670    5.6370  -17.0820 O   0  0  0  0  0  0  0  0  0  0  0  0
  1  2  2  0
  2  3  1  0
  3  4  1  0
  4  5  2  0
  4  6  1  0
  6  7  2  0
  7  8  1  0
  8  9  2  0
  9 10  1  0
  2 11  1  0
 11 12  1  0
 11 13  2  3
 13 14  1  0
 14 15  2  0
 15 16  1  0
 16 17  2  0
 17 18  1  0
 10  6  1  0
 18 14  1  0
A    1
 O1 
A    2
 C1 
A    3
 N1 
A    4
 C2 
A    5
 O2 
A    6
 C3 
A    7
 C4 
A    8
 C5 
A    9
 C6 
A   10
 S1 
A   11
 C7 
A   12
CL1 
A   13
 C8 
A   14
 C9 
A   15
 C10
A   16
 C11
A   17
 C12
A   18
 O3 
M  END
>  <ref_pdb>  (115) 
x0051_0B

>  <ref_mols>  (115) 
x0404_0B,x0969_0B

>  <original SMILES>  (115) 
O=C(NC(=O)c1cccs1)C(Cl)=Cc1ccco1

>  <index>  (115) 
108

>  <LE>  (115) 
0.21851096473953693

>  <∆∆G>  (115) 
-3.9331973653116648

>  <percent_hybrid>  (115) 
0.0

>  <largest_ring>  (115) 
5

>  <N_rotatable_bonds>  (115) 
3

>  <UFF_Gibbs>  (115) 
66.98898732789436

>  <strain_per_HA>  (115) 
669889.8732789436

>  <N_PAINS>  (115) 
0

>  <N_interactions>  (115) 
4

>  <N_HA>  (115) 
18

>  <ad_hoc_penalty>  (115) 
669848.4798221244

>  <merger_rank>  (115) 
1

$$$$

     RDKit          3D

 19 21  0  0  0  0  0  0  0  0999 V2000
   -6.8860    4.7570  -19.1070 O   0  0  0  0  0  0  0  0  0  0  0  0
   -6.6780    5.1680  -17.9850 C   0  0  0  0  0  0  0  0  0  0  0  0
   -5.4120    5.4580  -17.6110 O   0  0  0  0  0  0  0  0  0  0  0  0
   -7.5780    5.4090  -16.9750 C   0  0  0  0  0  0  0  0  0  0  0  0
   -8.9410    5.0380  -17.0230 C   0  0  0  0  0  0  0  0  0  0  0  0
   -9.6290    5.4380  -15.8010 C   0  0  0  0  0  0  0  0  0  0  0  0
   -8.7810    6.0700  -14.9140 C   0  0  0  0  0  0  0  0  0  0  0  0
   -9.2020    6.6220  -13.4940 C   0  0  0  0  0  0  0  0  0  0  0  0
   -9.9300    7.7710  -13.2310 C   0  0  0  0  0  0  0  0  0  0  0  0
  -10.1400    7.9740  -11.5500 S   0  0  0  0  0  0  0  0  0  0  0  0
   -9.2730    6.5230  -11.2980 C   0  0  0  0  0  0  0  0  0  0  0  0
   -9.0860    6.0800  -10.0610 O   0  0  0  0  0  0  0  0  0  0  0  0
   -8.7240    4.8100   -9.8340 C   0  0  0  0  0  0  0  0  0  0  0  0
   -9.1910    3.8000   -8.9850 C   0  0  0  0  0  0  0  0  0  0  0  0
   -8.4890    2.6740   -9.1190 N   0  0  0  0  0  0  0  0  0  0  0  0
   -7.5750    2.9720  -10.0550 N   0  0  0  0  0  0  0  0  0  0  0  0
   -7.6790    4.2430  -10.5150 C   0  0  0  0  0  0  0  0  0  0  0  0
   -8.8340    5.9210  -12.3720 N   0  0  0  0  0  0  0  0  0  0  0  0
   -7.1770    6.1940  -15.5140 S   0  0  0  0  0  0  0  0  0  0  0  0
  1  2  2  0
  2  3  1  0
  2  4  1  0
  4  5  2  0
  5  6  1  0
  6  7  2  0
  7  8  1  0
  8  9  2  0
  9 10  1  0
 10 11  1  0
 11 12  1  0
 12 13  1  0
 13 14  1  0
 14 15  2  0
 15 16  1  0
 16 17  1  0
 11 18  2  0
  7 19  1  0
 19  4  1  0
 18  8  1  0
 17 13  2  0
A    1
 O1 
A    2
 C1 
A    3
 O2 
A    4
 C2 
A    5
 C3 
A    6
 C4 
A    7
 C5 
A    8
 C6 
A    9
 C7 
A   10
 S1 
A   11
 C8 
A   12
 O3 
A   13
 C9 
A   14
 C10
A   15
 N1 
A   16
 N2 
A   17
 C11
A   18
 N3 
A   19
 S2 
M  END
>  <ref_pdb>  (116) 
x0051_0B

>  <ref_mols>  (116) 
x0404_0B,x0969_0B

>  <original SMILES>  (116) 
O=C(O)c1ccc(-c2csc(Oc3cn[nH]c3)n2)s1

>  <index>  (116) 
109

>  <LE>  (116) 
0.20485718198800557

>  <∆∆G>  (116) 
-3.892286457772106

>  <percent_hybrid>  (116) 
0.0

>  <largest_ring>  (116) 
5

>  <N_rotatable_bonds>  (116) 
4

>  <UFF_Gibbs>  (116) 
68.02278341131606

>  <strain_per_HA>  (116) 
680227.8341131605

>  <N_PAINS>  (116) 
0

>  <N_interactions>  (116) 
2

>  <N_HA>  (116) 
19

>  <ad_hoc_penalty>  (116) 
680208.0925202755

>  <merger_rank>  (116) 
1

$$$$

     RDKit          3D

 13 14  0  0  0  0  0  0  0  0999 V2000
   -8.9840    4.6360  -12.8680 C   0  0  0  0  0  0  0  0  0  0  0  0
   -7.9850    4.9420  -13.6360 N   0  0  0  0  0  0  0  0  0  0  0  0
   -8.3160    4.9890  -15.0050 C   0  0  0  0  0  0  0  0  0  0  0  0
   -7.3300    5.2190  -15.8640 N   0  0  0  0  0  0  0  0  0  0  0  0
   -7.7140    5.2200  -17.1440 C   0  0  0  0  0  0  0  0  0  0  0  0
   -8.9490    5.0150  -17.5990 N   0  0  0  0  0  0  0  0  0  0  0  0
   -9.8370    4.8080  -16.6420 C   0  0  0  0  0  0  0  0  0  0  0  0
   -9.5840    4.7880  -15.3420 N   0  0  0  0  0  0  0  0  0  0  0  0
   -8.9190    4.4650  -11.4380 C   0  0  0  0  0  0  0  0  0  0  0  0
   -9.1630    3.2400  -10.5300 C   0  0  0  0  0  0  0  0  0  0  0  0
   -8.9540    3.7140   -9.1670 C   0  0  0  0  0  0  0  0  0  0  0  0
   -8.6260    5.0600   -9.2930 C   0  0  0  0  0  0  0  0  0  0  0  0
   -8.6030    5.5040  -10.6030 O   0  0  0  0  0  0  0  0  0  0  0  0
  1  2  2  3
  2  3  1  0
  3  4  2  0
  4  5  1  0
  5  6  2  0
  6  7  1  0
  7  8  2  0
  1  9  1  0
  9 10  2  0
 10 11  1  0
 11 12  2  0
 12 13  1  0
  8  3  1  0
 13  9  1  0
A    1
 C1 
A    2
 N1 
A    3
 C2 
A    4
 N2 
A    5
 C3 
A    6
 N3 
A    7
 C4 
A    8
 N4 
A    9
 C5 
A   10
 C6 
A   11
 C7 
A   12
 C8 
A   13
 O1 
M  END
>  <ref_pdb>  (117) 
x0051_0B

>  <ref_mols>  (117) 
x0969_1B,x0553_0B

>  <original SMILES>  (117) 
C(=Nc1ncncn1)c1ccco1

>  <index>  (117) 
110

>  <LE>  (117) 
0.20394411004347826

>  <∆∆G>  (117) 
-2.6512734305652175

>  <percent_hybrid>  (117) 
0.0

>  <largest_ring>  (117) 
6

>  <N_rotatable_bonds>  (117) 
2

>  <UFF_Gibbs>  (117) 
68.07428658834228

>  <strain_per_HA>  (117) 
680742.8658834227

>  <N_PAINS>  (117) 
0

>  <N_interactions>  (117) 
2

>  <N_HA>  (117) 
13

>  <ad_hoc_penalty>  (117) 
680722.3744582119

>  <merger_rank>  (117) 
1

$$$$

     RDKit          3D

 18 20  0  0  0  0  0  0  0  0999 V2000
   -8.9910    6.1540  -11.5350 C   0  0  0  0  0  0  0  0  0  0  0  0
   -9.1310    4.8220  -11.3020 C   0  0  0  0  0  0  0  0  0  0  0  0
   -8.7860    4.2680  -10.0750 C   0  0  0  0  0  0  0  0  0  0  0  0
   -8.3760    3.0400   -9.8910 N   0  0  0  0  0  0  0  0  0  0  0  0
   -8.1630    2.8200   -8.5560 C   0  0  0  0  0  0  0  0  0  0  0  0
   -8.4020    3.8900   -7.7300 C   0  0  0  0  0  0  0  0  0  0  0  0
   -8.9180    5.2330   -8.6500 S   0  0  0  0  0  0  0  0  0  0  0  0
   -9.4610    6.4390  -12.8000 C   0  0  0  0  0  0  0  0  0  0  0  0
  -10.4030    7.2810  -13.1550 N   0  0  0  0  0  0  0  0  0  0  0  0
  -10.5550    7.1300  -14.4520 N   0  0  0  0  0  0  0  0  0  0  0  0
   -9.6850    6.2310  -14.8590 C   0  0  0  0  0  0  0  0  0  0  0  0
   -9.4610    5.7540  -16.0830 N   0  0  0  0  0  0  0  0  0  0  0  0
   -8.3010    5.4920  -16.6990 C   0  0  0  0  0  0  0  0  0  0  0  0
   -7.0340    5.2220  -16.2280 C   0  0  0  0  0  0  0  0  0  0  0  0
   -6.1530    5.0110  -17.2710 C   0  0  0  0  0  0  0  0  0  0  0  0
   -6.9400    5.1670  -18.3970 C   0  0  0  0  0  0  0  0  0  0  0  0
   -8.2340    5.4570  -18.0550 O   0  0  0  0  0  0  0  0  0  0  0  0
   -8.9500    5.7550  -13.8580 O   0  0  0  0  0  0  0  0  0  0  0  0
  1  2  2  3
  2  3  1  0
  3  4  2  0
  4  5  1  0
  5  6  2  0
  6  7  1  0
  1  8  1  0
  8  9  2  0
  9 10  1  0
 10 11  2  0
 11 12  1  0
 12 13  1  0
 13 14  2  0
 14 15  1  0
 15 16  2  0
 16 17  1  0
 11 18  1  0
  7  3  1  0
 18  8  1  0
 17 13  1  0
A    1
 C1 
A    2
 C2 
A    3
 C3 
A    4
 N1 
A    5
 C4 
A    6
 C5 
A    7
 S1 
A    8
 C6 
A    9
 N2 
A   10
 N3 
A   11
 C7 
A   12
 N4 
A   13
 C8 
A   14
 C9 
A   15
 C10
A   16
 C11
A   17
 O1 
A   18
 O2 
M  END
>  <ref_pdb>  (118) 
x0051_0B

>  <ref_mols>  (118) 
x0404_0B,x0969_0B

>  <original SMILES>  (118) 
C(=Cc1nccs1)c1nnc(Nc2ccco2)o1

>  <index>  (118) 
111

>  <LE>  (118) 
0.16774101609722508

>  <∆∆G>  (118) 
-3.0193382897500514

>  <percent_hybrid>  (118) 
0.0

>  <largest_ring>  (118) 
5

>  <N_rotatable_bonds>  (118) 
4

>  <UFF_Gibbs>  (118) 
68.36320025269823

>  <strain_per_HA>  (118) 
683632.0025269823

>  <N_PAINS>  (118) 
0

>  <N_interactions>  (118) 
3

>  <N_HA>  (118) 
18

>  <ad_hoc_penalty>  (118) 
683597.3194570775

>  <merger_rank>  (118) 
1

$$$$

     RDKit          3D

 18 21  0  0  0  0  0  0  0  0999 V2000
   -9.2550    2.7010   -9.0490 C   0  0  0  0  0  0  0  0  0  0  0  0
   -9.3050    4.0620   -8.4220 C   0  0  0  0  0  0  0  0  0  0  0  0
   -9.0940    4.9670   -9.4030 O   0  0  0  0  0  0  0  0  0  0  0  0
   -8.9130    4.2690  -10.5870 C   0  0  0  0  0  0  0  0  0  0  0  0
   -8.6490    4.8830  -11.7750 C   0  0  0  0  0  0  0  0  0  0  0  0
   -8.5260    6.2080  -11.8080 C   0  0  0  0  0  0  0  0  0  0  0  0
   -8.1920    6.6300  -13.0760 C   0  0  0  0  0  0  0  0  0  0  0  0
   -7.8940    7.8470  -13.6820 C   0  0  0  0  0  0  0  0  0  0  0  0
   -7.5080    7.8460  -14.8970 N   0  0  0  0  0  0  0  0  0  0  0  0
   -7.5030    6.6400  -15.6450 C   0  0  0  0  0  0  0  0  0  0  0  0
   -7.1400    6.6050  -17.0970 C   0  0  0  0  0  0  0  0  0  0  0  0
   -7.1150    5.5100  -17.9200 C   0  0  0  0  0  0  0  0  0  0  0  0
   -7.4800    4.3720  -17.2110 C   0  0  0  0  0  0  0  0  0  0  0  0
   -7.8220    4.2920  -15.8930 N   0  0  0  0  0  0  0  0  0  0  0  0
   -7.8280    5.4130  -15.1460 C   0  0  0  0  0  0  0  0  0  0  0  0
   -8.1570    5.4400  -13.7780 N   0  0  0  0  0  0  0  0  0  0  0  0
   -8.4460    4.3510  -12.9910 N   0  0  0  0  0  0  0  0  0  0  0  0
   -9.0060    2.8950  -10.4120 C   0  0  0  0  0  0  0  0  0  0  0  0
  1  2  2  0
  2  3  1  0
  3  4  1  0
  4  5  1  0
  5  6  1  0
  6  7  2  0
  7  8  1  0
  8  9  2  0
  9 10  1  0
 10 11  2  0
 11 12  1  0
 12 13  2  0
 13 14  1  0
 14 15  2  0
 15 16  1  0
 16 17  1  0
  4 18  2  0
 18  1  1  0
 17  5  2  0
 16  7  1  0
 15 10  1  0
A    1
 C1 
A    2
 C2 
A    3
 O1 
A    4
 C3 
A    5
 C4 
A    6
 C5 
A    7
 C6 
A    8
 C7 
A    9
 N1 
A   10
 C8 
A   11
 C9 
A   12
 C10
A   13
 C11
A   14
 N2 
A   15
 C12
A   16
 N3 
A   17
 N4 
A   18
 C13
M  END
>  <ref_pdb>  (119) 
x0051_0B

>  <ref_mols>  (119) 
x0404_0B,x0969_0B

>  <original SMILES>  (119) 
c1coc(-c2cc3cnc4cccnc4n3n2)c1

>  <index>  (119) 
112

>  <LE>  (119) 
0.1417371566192936

>  <∆∆G>  (119) 
-2.5512688191472845

>  <percent_hybrid>  (119) 
0.0

>  <largest_ring>  (119) 
6

>  <N_rotatable_bonds>  (119) 
1

>  <UFF_Gibbs>  (119) 
68.4895747450127

>  <strain_per_HA>  (119) 
684895.747450127

>  <N_PAINS>  (119) 
0

>  <N_interactions>  (119) 
4

>  <N_HA>  (119) 
18

>  <ad_hoc_penalty>  (119) 
684856.8565384839

>  <merger_rank>  (119) 
1

$$$$

     RDKit          3D

 13 14  0  0  0  0  0  0  0  0999 V2000
   -8.9920    5.2610   -9.6010 C   0  0  0  0  0  0  0  0  0  0  0  0
   -8.6510    5.6230  -10.8420 C   0  0  0  0  0  0  0  0  0  0  0  0
   -8.5010    4.6210  -11.7740 C   0  0  0  0  0  0  0  0  0  0  0  0
   -8.1520    4.8750  -13.0220 N   0  0  0  0  0  0  0  0  0  0  0  0
   -9.2140    5.0140  -13.8840 N   0  0  0  0  0  0  0  0  0  0  0  0
   -8.8400    4.9310  -15.1490 C   0  0  0  0  0  0  0  0  0  0  0  0
   -9.7070    4.7870  -16.2710 C   0  0  0  0  0  0  0  0  0  0  0  0
   -9.0320    4.7300  -17.4460 C   0  0  0  0  0  0  0  0  0  0  0  0
   -7.6980    4.8340  -17.1390 O   0  0  0  0  0  0  0  0  0  0  0  0
   -7.5920    4.9550  -15.7540 C   0  0  0  0  0  0  0  0  0  0  0  0
   -8.6870    3.3220  -11.4710 N   0  0  0  0  0  0  0  0  0  0  0  0
   -9.0360    3.0690  -10.2030 C   0  0  0  0  0  0  0  0  0  0  0  0
   -9.1960    3.9840   -9.2370 N   0  0  0  0  0  0  0  0  0  0  0  0
  1  2  2  0
  2  3  1  0
  3  4  1  0
  4  5  2  3
  5  6  1  0
  6  7  1  0
  7  8  2  0
  8  9  1  0
  9 10  1  0
  3 11  2  0
 11 12  1  0
 12 13  2  0
 13  1  1  0
 10  6  2  0
A    1
 C1 
A    2
 C2 
A    3
 C3 
A    4
 N1 
A    5
 N2 
A    6
 C4 
A    7
 C5 
A    8
 C6 
A    9
 O1 
A   10
 C7 
A   11
 N3 
A   12
 C8 
A   13
 N4 
M  END
>  <ref_pdb>  (120) 
x0051_0B

>  <ref_mols>  (120) 
x0969_1B,x0553_0B

>  <original SMILES>  (120) 
c1cc(N=Nc2ccoc2)ncn1

>  <index>  (120) 
113

>  <LE>  (120) 
0.2064845911699057

>  <∆∆G>  (120) 
-2.684299685208774

>  <percent_hybrid>  (120) 
0.0

>  <largest_ring>  (120) 
6

>  <N_rotatable_bonds>  (120) 
2

>  <UFF_Gibbs>  (120) 
68.66938543408611

>  <strain_per_HA>  (120) 
686693.8543408611

>  <N_PAINS>  (120) 
1

>  <N_interactions>  (120) 
2

>  <N_HA>  (120) 
13

>  <ad_hoc_penalty>  (120) 
686691.3304242156

>  <merger_rank>  (120) 
1

$$$$

     RDKit          3D

 18 20  0  0  0  0  0  0  0  0999 V2000
   -9.0390    5.9080  -11.1810 C   0  0  0  0  0  0  0  0  0  0  0  0
   -8.9040    4.7210  -10.6790 N   0  0  0  0  0  0  0  0  0  0  0  0
   -9.0180    4.4400   -9.3750 C   0  0  0  0  0  0  0  0  0  0  0  0
   -8.8830    3.1540   -8.9030 C   0  0  0  0  0  0  0  0  0  0  0  0
   -9.0810    3.2010   -7.4520 C   0  0  0  0  0  0  0  0  0  0  0  0
   -9.3180    4.5140   -7.1820 O   0  0  0  0  0  0  0  0  0  0  0  0
   -9.2710    5.2720   -8.3760 N   0  0  0  0  0  0  0  0  0  0  0  0
   -8.9550    6.0590  -12.5950 C   0  0  0  0  0  0  0  0  0  0  0  0
   -9.8180    6.6100  -13.4910 C   0  0  0  0  0  0  0  0  0  0  0  0
   -9.2530    6.4350  -14.7580 C   0  0  0  0  0  0  0  0  0  0  0  0
   -8.0580    5.8070  -14.5720 C   0  0  0  0  0  0  0  0  0  0  0  0
   -7.0880    5.3880  -15.3680 O   0  0  0  0  0  0  0  0  0  0  0  0
   -7.3400    5.2840  -16.6720 C   0  0  0  0  0  0  0  0  0  0  0  0
   -6.5300    5.4710  -17.8160 C   0  0  0  0  0  0  0  0  0  0  0  0
   -7.0990    5.2860  -19.0570 C   0  0  0  0  0  0  0  0  0  0  0  0
   -8.4660    4.9250  -18.8690 C   0  0  0  0  0  0  0  0  0  0  0  0
   -8.9070    4.8470  -17.2100 S   0  0  0  0  0  0  0  0  0  0  0  0
   -7.8590    5.5710  -13.2510 O   0  0  0  0  0  0  0  0  0  0  0  0
  1  2  2  3
  2  3  1  0
  3  4  1  0
  4  5  2  0
  5  6  1  0
  6  7  1  0
  1  8  1  0
  8  9  2  0
  9 10  1  0
 10 11  2  0
 11 12  1  0
 12 13  1  0
 13 14  2  0
 14 15  1  0
 15 16  2  0
 16 17  1  0
 11 18  1  0
  7  3  2  0
 18  8  1  0
 17 13  1  0
A    1
 C1 
A    2
 N1 
A    3
 C2 
A    4
 C3 
A    5
 C4 
A    6
 O1 
A    7
 N2 
A    8
 C5 
A    9
 C6 
A   10
 C7 
A   11
 C8 
A   12
 O2 
A   13
 C9 
A   14
 C10
A   15
 C11
A   16
 C12
A   17
 S1 
A   18
 O3 
M  END
>  <ref_pdb>  (121) 
x0051_0B

>  <ref_mols>  (121) 
x0404_0B,x0969_0B

>  <original SMILES>  (121) 
C(=Nc1ccon1)c1ccc(Oc2cccs2)o1

>  <index>  (121) 
114

>  <LE>  (121) 
0.34425022445332687

>  <∆∆G>  (121) 
-6.196504040159883

>  <percent_hybrid>  (121) 
0.0

>  <largest_ring>  (121) 
5

>  <N_rotatable_bonds>  (121) 
4

>  <UFF_Gibbs>  (121) 
69.73699115381758

>  <strain_per_HA>  (121) 
697369.9115381758

>  <N_PAINS>  (121) 
0

>  <N_interactions>  (121) 
3

>  <N_HA>  (121) 
18

>  <ad_hoc_penalty>  (121) 
697334.9217586376

>  <merger_rank>  (121) 
1

$$$$

     RDKit          3D

 15 16  0  0  0  0  0  0  0  0999 V2000
   -9.0980    3.4200   -9.8440 C   0  0  0  0  0  0  0  0  0  0  0  0
   -8.7070    4.8190   -9.5100 C   0  0  0  0  0  0  0  0  0  0  0  0
   -8.4750    5.7880  -10.4140 C   0  0  0  0  0  0  0  0  0  0  0  0
   -8.5760    5.5760  -11.8640 C   0  0  0  0  0  0  0  0  0  0  0  0
   -8.4020    4.4760  -12.3570 O   0  0  0  0  0  0  0  0  0  0  0  0
   -8.8770    6.7340  -12.5400 N   0  0  0  0  0  0  0  0  0  0  0  0
   -8.2720    7.1190  -13.7160 C   0  0  0  0  0  0  0  0  0  0  0  0
   -7.5380    8.0870  -13.8520 O   0  0  0  0  0  0  0  0  0  0  0  0
   -8.5620    6.3200  -14.8250 C   0  0  0  0  0  0  0  0  0  0  0  0
   -9.7640    5.6290  -14.9920 C   0  0  0  0  0  0  0  0  0  0  0  0
   -9.8800    4.9040  -16.1550 N   0  0  0  0  0  0  0  0  0  0  0  0
   -8.7060    5.1890  -16.6750 N   0  0  0  0  0  0  0  0  0  0  0  0
   -7.9280    5.9770  -15.9550 C   0  0  0  0  0  0  0  0  0  0  0  0
   -7.0280    5.8350  -16.9650 C   0  0  0  0  0  0  0  0  0  0  0  0
   -7.7650    5.0230  -17.8110 C   0  0  0  0  0  0  0  0  0  0  0  0
  1  2  1  0
  2  3  2  3
  3  4  1  0
  4  5  2  0
  4  6  1  0
  6  7  1  0
  7  8  2  0
  7  9  1  0
  9 10  1  0
 10 11  2  0
 11 12  1  0
 12 13  1  0
 13 14  1  0
 14 15  1  0
 13  9  2  0
 15 12  1  0
A    1
 C1 
A    2
 C2 
A    3
 C3 
A    4
 C4 
A    5
 O1 
A    6
 N1 
A    7
 C5 
A    8
 O2 
A    9
 C6 
A   10
 C7 
A   11
 N2 
A   12
 N3 
A   13
 C8 
A   14
 C9 
A   15
 C10
M  END
>  <ref_pdb>  (122) 
x0051_0B

>  <ref_mols>  (122) 
x0404_0B,x0969_0B

>  <original SMILES>  (122) 
CC=CC(=O)NC(=O)c1cnn2c1CC2

>  <index>  (122) 
115

>  <LE>  (122) 
0.25295391939720857

>  <∆∆G>  (122) 
-3.7943087909581283

>  <percent_hybrid>  (122) 
0.0

>  <largest_ring>  (122) 
5

>  <N_rotatable_bonds>  (122) 
3

>  <UFF_Gibbs>  (122) 
71.39565709560651

>  <strain_per_HA>  (122) 
713956.5709560651

>  <N_PAINS>  (122) 
0

>  <N_interactions>  (122) 
3

>  <N_HA>  (122) 
15

>  <ad_hoc_penalty>  (122) 
713924.1755889389

>  <merger_rank>  (122) 
1

$$$$

     RDKit          3D

 15 17  0  0  0  0  0  0  0  0999 V2000
   -9.2220    4.2860  -11.8660 C   0  0  0  0  0  0  0  0  0  0  0  0
   -8.6680    5.1600  -12.9220 C   0  0  0  0  0  0  0  0  0  0  0  0
   -9.1310    5.1130  -14.2240 C   0  0  0  0  0  0  0  0  0  0  0  0
  -10.4800    5.1740  -14.5510 O   0  0  0  0  0  0  0  0  0  0  0  0
  -10.5780    5.0840  -15.9830 N   0  0  0  0  0  0  0  0  0  0  0  0
   -9.3400    4.9930  -16.3190 C   0  0  0  0  0  0  0  0  0  0  0  0
   -8.7240    4.8790  -17.5780 C   0  0  0  0  0  0  0  0  0  0  0  0
   -7.3350    4.8100  -17.4790 C   0  0  0  0  0  0  0  0  0  0  0  0
   -6.6670    4.8770  -15.8410 S   0  0  0  0  0  0  0  0  0  0  0  0
   -8.3450    5.0000  -15.3460 C   0  0  0  0  0  0  0  0  0  0  0  0
   -8.8980    4.1990  -10.4920 C   0  0  0  0  0  0  0  0  0  0  0  0
   -7.8250    4.6150   -9.7300 C   0  0  0  0  0  0  0  0  0  0  0  0
   -8.1240    4.2100   -8.4170 C   0  0  0  0  0  0  0  0  0  0  0  0
   -9.2940    3.5880   -8.3460 N   0  0  0  0  0  0  0  0  0  0  0  0
   -9.7720    3.5820   -9.6310 O   0  0  0  0  0  0  0  0  0  0  0  0
  1  2  2  3
  2  3  1  0
  3  4  1  0
  4  5  1  0
  5  6  2  0
  6  7  1  0
  7  8  2  0
  8  9  1  0
  9 10  1  0
  1 11  1  0
 11 12  2  0
 12 13  1  0
 13 14  2  0
 14 15  1  0
 10  3  2  0
 15 11  1  0
 10  6  1  0
A    1
 C1 
A    2
 C2 
A    3
 C3 
A    4
 O1 
A    5
 N1 
A    6
 C4 
A    7
 C5 
A    8
 C6 
A    9
 S1 
A   10
 C7 
A   11
 C8 
A   12
 C9 
A   13
 C10
A   14
 N2 
A   15
 O2 
M  END
>  <ref_pdb>  (123) 
x0051_0B

>  <ref_mols>  (123) 
x0969_1B,x0553_0B

>  <original SMILES>  (123) 
C(=Cc1onc2ccsc12)c1ccno1

>  <index>  (123) 
116

>  <LE>  (123) 
0.11779721940157319

>  <∆∆G>  (123) 
-1.7669582910235977

>  <percent_hybrid>  (123) 
0.0

>  <largest_ring>  (123) 
5

>  <N_rotatable_bonds>  (123) 
2

>  <UFF_Gibbs>  (123) 
72.68246352189087

>  <strain_per_HA>  (123) 
726824.6352189087

>  <N_PAINS>  (123) 
0

>  <N_interactions>  (123) 
1

>  <N_HA>  (123) 
15

>  <ad_hoc_penalty>  (123) 
726813.3529200656

>  <merger_rank>  (123) 
1

$$$$

     RDKit          3D

 14 15  0  0  0  0  0  0  0  0999 V2000
   -8.6130    2.8190  -12.7540 O   0  0  0  0  0  0  0  0  0  0  0  0
   -8.9180    3.9560  -12.4700 C   0  0  0  0  0  0  0  0  0  0  0  0
   -9.1680    4.8440  -13.5190 C   0  0  0  0  0  0  0  0  0  0  0  0
   -8.6900    4.2770  -14.8100 C   0  0  0  0  0  0  0  0  0  0  0  0
   -8.6550    4.6520  -16.2000 C   0  0  0  0  0  0  0  0  0  0  0  0
   -7.5980    5.5180  -16.5030 C   0  0  0  0  0  0  0  0  0  0  0  0
   -7.5240    5.8660  -17.7870 N   0  0  0  0  0  0  0  0  0  0  0  0
   -8.7980    5.0600  -18.5260 S   0  0  0  0  0  0  0  0  0  0  0  0
   -9.4480    4.2870  -17.2050 N   0  0  0  0  0  0  0  0  0  0  0  0
   -8.9490    4.3730  -11.0820 C   0  0  0  0  0  0  0  0  0  0  0  0
   -8.6460    5.5840  -10.6670 N   0  0  0  0  0  0  0  0  0  0  0  0
   -8.7510    5.6330   -9.2940 C   0  0  0  0  0  0  0  0  0  0  0  0
   -9.1330    4.4620   -8.6790 C   0  0  0  0  0  0  0  0  0  0  0  0
   -9.3800    3.2410   -9.8560 S   0  0  0  0  0  0  0  0  0  0  0  0
  1  2  2  0
  2  3  1  0
  3  4  2  3
  4  5  1  0
  5  6  1  0
  6  7  2  0
  7  8  1  0
  8  9  1  0
  2 10  1  0
 10 11  2  0
 11 12  1  0
 12 13  2  0
 13 14  1  0
  9  5  2  0
 14 10  1  0
A    1
 O1 
A    2
 C1 
A    3
 C2 
A    4
 C3 
A    5
 C4 
A    6
 C5 
A    7
 N1 
A    8
 S1 
A    9
 N2 
A   10
 C6 
A   11
 N3 
A   12
 C7 
A   13
 C8 
A   14
 S2 
M  END
>  <ref_pdb>  (124) 
x0051_0B

>  <ref_mols>  (124) 
x0969_1B,x0553_0B

>  <original SMILES>  (124) 
O=C(C=Cc1cnsn1)c1nccs1

>  <index>  (124) 
117

>  <LE>  (124) 
0.16453121606573998

>  <∆∆G>  (124) 
-2.3034370249203597

>  <percent_hybrid>  (124) 
0.0

>  <largest_ring>  (124) 
5

>  <N_rotatable_bonds>  (124) 
3

>  <UFF_Gibbs>  (124) 
73.52691102251296

>  <strain_per_HA>  (124) 
735269.1102251296

>  <N_PAINS>  (124) 
0

>  <N_interactions>  (124) 
2

>  <N_HA>  (124) 
14

>  <ad_hoc_penalty>  (124) 
735235.3796089658

>  <merger_rank>  (124) 
1

$$$$

     RDKit          3D

 13 14  0  0  0  0  0  0  0  0999 V2000
  -10.1610    4.7540  -17.6800 N   0  0  0  0  0  0  0  0  0  0  0  0
   -9.0530    4.9550  -16.9600 C   0  0  0  0  0  0  0  0  0  0  0  0
   -7.8640    5.1960  -17.4900 N   0  0  0  0  0  0  0  0  0  0  0  0
   -6.8070    5.3740  -16.2130 S   0  0  0  0  0  0  0  0  0  0  0  0
   -8.0350    5.1120  -15.0170 C   0  0  0  0  0  0  0  0  0  0  0  0
   -7.7330    5.1380  -13.6890 N   0  0  0  0  0  0  0  0  0  0  0  0
   -8.7430    4.8190  -12.8860 C   0  0  0  0  0  0  0  0  0  0  0  0
   -8.6440    4.7930  -11.4510 C   0  0  0  0  0  0  0  0  0  0  0  0
   -9.2300    3.7390  -10.8230 C   0  0  0  0  0  0  0  0  0  0  0  0
   -9.1060    3.7540   -9.2810 C   0  0  0  0  0  0  0  0  0  0  0  0
   -8.3550    4.9310   -8.6940 C   0  0  0  0  0  0  0  0  0  0  0  0
   -7.9260    5.8520  -10.3580 S   0  0  0  0  0  0  0  0  0  0  0  0
   -9.1960    4.9050  -15.5950 N   0  0  0  0  0  0  0  0  0  0  0  0
  1  2  1  0
  2  3  2  0
  3  4  1  0
  4  5  1  0
  5  6  1  0
  6  7  2  3
  7  8  1  0
  8  9  2  0
  9 10  1  0
 10 11  2  0
 11 12  1  0
  5 13  2  0
 13  2  1  0
 12  8  1  0
A    1
 N1 
A    2
 C1 
A    3
 N2 
A    4
 S1 
A    5
 C2 
A    6
 N3 
A    7
 C3 
A    8
 C4 
A    9
 C5 
A   10
 C6 
A   11
 C7 
A   12
 S2 
A   13
 N4 
M  END
>  <ref_pdb>  (125) 
x0051_0B

>  <ref_mols>  (125) 
x0969_1B,x0553_0B

>  <original SMILES>  (125) 
Nc1nsc(N=Cc2cccs2)n1

>  <index>  (125) 
118

>  <LE>  (125) 
0.2128226591809253

>  <∆∆G>  (125) 
-2.766694569352029

>  <percent_hybrid>  (125) 
0.0

>  <largest_ring>  (125) 
5

>  <N_rotatable_bonds>  (125) 
3

>  <UFF_Gibbs>  (125) 
84.0364487069742

>  <strain_per_HA>  (125) 
840364.4870697419

>  <N_PAINS>  (125) 
0

>  <N_interactions>  (125) 
2

>  <N_HA>  (125) 
13

>  <ad_hoc_penalty>  (125) 
840340.5047203946

>  <merger_rank>  (125) 
1

$$$$

     RDKit          3D

 19 20  0  0  0  0  0  0  0  0999 V2000
   -7.3380    4.4360  -18.7940 C   0  0  0  0  0  0  0  0  0  0  0  0
   -7.5340    5.0850  -17.5490 C   0  0  0  0  0  0  0  0  0  0  0  0
   -8.2180    4.5960  -16.5200 N   0  0  0  0  0  0  0  0  0  0  0  0
   -8.1980    5.5240  -15.4910 C   0  0  0  0  0  0  0  0  0  0  0  0
   -8.8250    5.3230  -14.3130 N   0  0  0  0  0  0  0  0  0  0  0  0
   -9.1380    6.4820  -13.6620 N   0  0  0  0  0  0  0  0  0  0  0  0
   -9.2180    6.7070  -12.3800 C   0  0  0  0  0  0  0  0  0  0  0  0
   -9.0430    5.8890  -11.2020 C   0  0  0  0  0  0  0  0  0  0  0  0
   -8.7720    6.3140   -9.9120 C   0  0  0  0  0  0  0  0  0  0  0  0
   -8.6950    5.1520   -8.9720 C   0  0  0  0  0  0  0  0  0  0  0  0
   -8.9180    3.9350   -9.6500 C   0  0  0  0  0  0  0  0  0  0  0  0
   -8.9290    2.6470   -9.0600 N   0  0  0  0  0  4  0  0  0  0  0  0
   -8.8970    1.7030   -9.8320 O   0  0  0  0  0  0  0  0  0  0  0  0
   -9.3310    2.6100   -7.8900 O   0  0  0  0  0  1  0  0  0  0  0  0
   -9.1890    4.1690  -11.3160 S   0  0  0  0  0  0  0  0  0  0  0  0
   -7.5200    6.6650  -15.7310 C   0  0  0  0  0  0  0  0  0  0  0  0
   -7.4090    7.7350  -14.7870 C   0  0  0  0  0  0  0  0  0  0  0  0
   -7.4620    8.6410  -14.0550 N   0  0  0  0  0  0  0  0  0  0  0  0
   -6.8490    6.6310  -17.3130 S   0  0  0  0  0  0  0  0  0  0  0  0
  1  2  1  0
  2  3  2  0
  3  4  1  0
  4  5  1  0
  5  6  1  0
  6  7  2  3
  7  8  1  0
  8  9  2  0
  9 10  1  0
 10 11  2  0
 11 12  1  0
 12 13  2  0
 12 14  1  0
 11 15  1  0
  4 16  2  0
 16 17  1  0
 17 18  3  0
 16 19  1  0
 19  2  1  0
 15  8  1  0
M  CHG  2  12   1  14  -1
A    1
 C1 
A    2
 C2 
A    3
 N1 
A    4
 C3 
A    5
 N2 
A    6
 N3 
A    7
 C4 
A    8
 C5 
A    9
 C6 
A   10
 C7 
A   11
 C8 
A   12
 N4 
A   13
 O1 
A   14
 O2 
A   15
 S1 
A   16
 C9 
A   17
 C10
A   18
 N5 
A   19
 S2 
M  END
>  <ref_pdb>  (126) 
x0051_0B

>  <ref_mols>  (126) 
x0404_0B,x0969_0B

>  <original SMILES>  (126) 
Cc1nc(NN=Cc2ccc([N+](=O)[O-])s2)c(C#N)s1

>  <index>  (126) 
119

>  <LE>  (126) 
0.038259022842146224

>  <∆∆G>  (126) 
-0.7269214340007782

>  <percent_hybrid>  (126) 
0.0

>  <largest_ring>  (126) 
5

>  <N_rotatable_bonds>  (126) 
5

>  <UFF_Gibbs>  (126) 
84.71081775518304

>  <strain_per_HA>  (126) 
847108.1775518304

>  <N_PAINS>  (126) 
0

>  <N_interactions>  (126) 
4

>  <N_HA>  (126) 
19

>  <ad_hoc_penalty>  (126) 
847081.2066908275

>  <merger_rank>  (126) 
1

$$$$

     RDKit          3D

 17 18  0  0  0  0  0  0  0  0999 V2000
   -8.6820    4.4300  -17.9700 C   0  0  0  0  0  0  0  0  0  0  0  0
   -8.1970    5.2900  -16.8650 C   0  0  0  0  0  0  0  0  0  0  0  0
   -6.9810    5.8330  -16.4910 C   0  0  0  0  0  0  0  0  0  0  0  0
   -7.1870    6.5670  -15.3350 C   0  0  0  0  0  0  0  0  0  0  0  0
   -8.4610    6.5150  -14.9630 C   0  0  0  0  0  0  0  0  0  0  0  0
   -9.0890    7.1430  -13.8370 C   0  0  0  0  0  0  0  0  0  0  0  0
  -10.4500    7.3910  -13.8100 O   0  0  0  0  0  0  0  0  0  0  0  0
   -8.2990    7.5220  -12.7870 N   0  0  0  0  0  0  0  0  0  0  0  0
   -8.5440    6.7820  -11.6020 O   0  0  0  0  0  0  0  0  0  0  0  0
   -8.4390    5.4360  -11.8500 C   0  0  0  0  0  0  0  0  0  0  0  0
   -8.1330    4.9760  -12.9410 O   0  0  0  0  0  0  0  0  0  0  0  0
   -8.7220    4.6800  -10.6660 C   0  0  0  0  0  0  0  0  0  0  0  0
   -8.9850    3.3330  -10.5280 C   0  0  0  0  0  0  0  0  0  0  0  0
   -9.1960    3.0480   -9.1700 C   0  0  0  0  0  0  0  0  0  0  0  0
   -9.0530    4.2450   -8.5250 C   0  0  0  0  0  0  0  0  0  0  0  0
   -8.7650    5.2640   -9.4040 O   0  0  0  0  0  0  0  0  0  0  0  0
   -9.1250    5.7170  -15.9070 O   0  0  0  0  0  0  0  0  0  0  0  0
  1  2  1  0
  2  3  2  0
  3  4  1  0
  4  5  2  0
  5  6  1  0
  6  7  2  0
  6  8  1  0
  8  9  1  0
  9 10  1  0
 10 11  2  0
 10 12  1  0
 12 13  2  0
 13 14  1  0
 14 15  2  0
 15 16  1  0
  5 17  1  0
 17  2  1  0
 16 12  1  0
A    1
 C1 
A    2
 C2 
A    3
 C3 
A    4
 C4 
A    5
 C5 
A    6
 C6 
A    7
 O1 
A    8
 N1 
A    9
 O2 
A   10
 C7 
A   11
 O3 
A   12
 C8 
A   13
 C9 
A   14
 C10
A   15
 C11
A   16
 O4 
A   17
 O5 
M  END
>  <ref_pdb>  (127) 
x0051_0B

>  <ref_mols>  (127) 
x0404_0B,x0969_0B

>  <original SMILES>  (127) 
Cc1ccc(C(=O)NOC(=O)c2ccco2)o1

>  <index>  (127) 
120

>  <LE>  (127) 
0.2481549681186428

>  <∆∆G>  (127) 
-4.218634458016927

>  <percent_hybrid>  (127) 
0.0

>  <largest_ring>  (127) 
5

>  <N_rotatable_bonds>  (127) 
3

>  <UFF_Gibbs>  (127) 
86.60957627642553

>  <strain_per_HA>  (127) 
866095.7627642553

>  <N_PAINS>  (127) 
0

>  <N_interactions>  (127) 
4

>  <N_HA>  (127) 
17

>  <ad_hoc_penalty>  (127) 
866050.5164314895

>  <merger_rank>  (127) 
1

$$$$

     RDKit          3D

 15 17  0  0  0  0  0  0  0  0999 V2000
   -9.1360    3.9510   -8.5220 C   0  0  0  0  0  0  0  0  0  0  0  0
   -9.0110    3.0280   -9.4970 N   0  0  0  0  0  0  0  0  0  0  0  0
   -8.8670    3.6520  -10.6800 C   0  0  0  0  0  0  0  0  0  0  0  0
   -8.6930    3.4970  -12.0090 N   0  0  0  0  0  0  0  0  0  0  0  0
   -8.6650    4.7670  -12.4240 C   0  0  0  0  0  0  0  0  0  0  0  0
   -8.4740    5.0230  -13.7800 N   0  0  0  0  0  0  0  0  0  0  0  0
   -9.4960    4.9320  -14.5020 N   0  0  0  0  0  0  0  0  0  0  0  0
   -9.2320    4.8730  -15.8900 C   0  0  0  0  0  0  0  0  0  0  0  0
   -8.0250    4.9730  -16.5980 C   0  0  0  0  0  0  0  0  0  0  0  0
   -8.2190    4.8630  -17.9390 C   0  0  0  0  0  0  0  0  0  0  0  0
   -9.5680    4.6880  -18.0780 O   0  0  0  0  0  0  0  0  0  0  0  0
  -10.1960    4.6930  -16.8100 N   0  0  0  0  0  0  0  0  0  0  0  0
   -8.7960    5.7610  -11.4200 N   0  0  0  0  0  0  0  0  0  0  0  0
   -8.9190    4.9590  -10.3490 N   0  0  0  0  0  0  0  0  0  0  0  0
   -9.0790    5.2170   -9.0340 N   0  0  0  0  0  0  0  0  0  0  0  0
  1  2  1  0
  2  3  2  0
  3  4  1  0
  4  5  2  0
  5  6  1  0
  6  7  2  3
  7  8  1  0
  8  9  1  0
  9 10  2  0
 10 11  1  0
 11 12  1  0
  5 13  1  0
 13 14  1  0
 14 15  1  0
 15  1  2  0
 14  3  1  0
 12  8  2  0
A    1
 C1 
A    2
 N1 
A    3
 C2 
A    4
 N2 
A    5
 C3 
A    6
 N3 
A    7
 N4 
A    8
 C4 
A    9
 C5 
A   10
 C6 
A   11
 O1 
A   12
 N5 
A   13
 N6 
A   14
 N7 
A   15
 N8 
M  END
>  <ref_pdb>  (128) 
x0051_0B

>  <ref_mols>  (128) 
x0969_1B,x0553_0B

>  <original SMILES>  (128) 
c1nc2nc(N=Nc3ccon3)[nH]n2n1

>  <index>  (128) 
121

>  <LE>  (128) 
0.06052585775593898

>  <∆∆G>  (128) 
-0.9078878663390847

>  <percent_hybrid>  (128) 
0.0

>  <largest_ring>  (128) 
5

>  <N_rotatable_bonds>  (128) 
1

>  <UFF_Gibbs>  (128) 
88.75759856514384

>  <strain_per_HA>  (128) 
887575.9856514384

>  <N_PAINS>  (128) 
1

>  <N_interactions>  (128) 
4

>  <N_HA>  (128) 
15

>  <ad_hoc_penalty>  (128) 
887562.5449015765

>  <merger_rank>  (128) 
1

$$$$

     RDKit          3D

 18 20  0  0  0  0  0  0  0  0999 V2000
   -8.8440    5.2080  -11.1730 C   0  0  0  0  0  0  0  0  0  0  0  0
   -8.4420    6.3530  -11.6280 N   0  0  0  0  0  0  0  0  0  0  0  0
   -8.6980    6.3500  -12.9210 C   0  0  0  0  0  0  0  0  0  0  0  0
   -7.9500    5.8350  -13.8560 N   0  0  0  0  0  0  0  0  0  0  0  0
   -8.5220    5.9320  -15.0250 C   0  0  0  0  0  0  0  0  0  0  0  0
   -7.9030    5.4520  -16.2840 C   0  0  0  0  0  0  0  0  0  0  0  0
   -8.7730    5.2370  -17.4540 C   0  0  0  0  0  0  0  0  0  0  0  0
   -8.1350    4.8380  -18.5890 C   0  0  0  0  0  0  0  0  0  0  0  0
   -6.8100    4.6450  -18.6330 N   0  0  0  0  0  0  0  0  0  0  0  0
   -6.1150    4.8510  -17.5030 C   0  0  0  0  0  0  0  0  0  0  0  0
   -6.5870    5.2500  -16.3130 N   0  0  0  0  0  0  0  0  0  0  0  0
   -9.7470    6.5260  -15.0020 C   0  0  0  0  0  0  0  0  0  0  0  0
  -10.1570    7.0420  -13.4510 S   0  0  0  0  0  0  0  0  0  0  0  0
   -8.8740    4.5770   -9.8960 C   0  0  0  0  0  0  0  0  0  0  0  0
   -8.9900    3.2570   -9.4040 C   0  0  0  0  0  0  0  0  0  0  0  0
   -8.9690    3.1900   -8.0470 C   0  0  0  0  0  0  0  0  0  0  0  0
   -8.8300    4.5570   -7.6700 C   0  0  0  0  0  0  0  0  0  0  0  0
   -8.7770    5.3750   -8.7810 O   0  0  0  0  0  0  0  0  0  0  0  0
  1  2  2  3
  2  3  1  0
  3  4  2  0
  4  5  1  0
  5  6  1  0
  6  7  2  0
  7  8  1  0
  8  9  2  0
  9 10  1  0
 10 11  2  0
  5 12  2  0
 12 13  1  0
  1 14  1  0
 14 15  2  0
 15 16  1  0
 16 17  2  0
 17 18  1  0
 13  3  1  0
 18 14  1  0
 11  6  1  0
A    1
 C1 
A    2
 N1 
A    3
 C2 
A    4
 N2 
A    5
 C3 
A    6
 C4 
A    7
 C5 
A    8
 C6 
A    9
 N3 
A   10
 C7 
A   11
 N4 
A   12
 C8 
A   13
 S1 
A   14
 C9 
A   15
 C10
A   16
 C11
A   17
 C12
A   18
 O1 
M  END
>  <ref_pdb>  (129) 
x0051_0B

>  <ref_mols>  (129) 
x0404_0B,x0969_0B

>  <original SMILES>  (129) 
C(=Nc1nc(-c2ccncn2)cs1)c1ccco1

>  <index>  (129) 
122

>  <LE>  (129) 
0.22078264123860591

>  <∆∆G>  (129) 
-3.9740875422949062

>  <percent_hybrid>  (129) 
0.0

>  <largest_ring>  (129) 
6

>  <N_rotatable_bonds>  (129) 
3

>  <UFF_Gibbs>  (129) 
91.25699703352494

>  <strain_per_HA>  (129) 
912569.9703352493

>  <N_PAINS>  (129) 
0

>  <N_interactions>  (129) 
1

>  <N_HA>  (129) 
18

>  <ad_hoc_penalty>  (129) 
912553.9125387165

>  <merger_rank>  (129) 
1

$$$$
