ver_1.2
     RDKit          2D

  0  0  0  0  0  0  0  0  0  0999 V2000
M  END
>  <submitter_name>  (1) 
Stephanie Wills

>  <submitter_email>  (1) 
stephanie.wills@balliol.ox.ac.uk

>  <submitter_institution>  (1) 
University of Oxford

>  <method>  (1) 
Catalogue search by FN

>  <ref_url>  (1) 
https://github.com/stephwills/fragment_network_merges

>  <Name>  (1) 
Name given to molecule

>  <original SMILES>  (1) 
The SMILES of the compound

>  <synthon>  (1) 
Synthon used in generation (if applicable)

>  <ref_pdb>  (1) 
A pdb included in fragalysis or uploaded

>  <ref_mols>  (1) 
Inspirational fragments

>  <generation_date>  (1) 
2022-10-15

>  <IFP_score>  (1) 
Score IFP_score

>  <SuCOS_score>  (1) 
Score SuCOS_score

>  <AttchPnts_score>  (1) 
Score AttchPnts_score

>  <Docking_score>  (1) 
Score Docking_score

>  <LE_score>  (1) 
Score LE_score

>  <EnergyRatio_score>  (1) 
Score EnergyRatio_score

>  <cmpd_id>  (1) 
Compound ID (may need updating/searching)

$$$$

     RDKit          3D

 24 26  0  0  0  0  0  0  0  0999 V2000
    5.6540    3.7330   30.7710 C   0  0  0  0  0  0  0  0  0  0  0  0
    6.1010    2.5930   29.9060 C   0  0  0  0  0  0  0  0  0  0  0  0
    5.4760    1.3520   29.9790 C   0  0  0  0  0  0  0  0  0  0  0  0
    7.1530    2.7480   29.0070 C   0  0  0  0  0  0  0  0  0  0  0  0
    5.8980    0.2880   29.1710 C   0  0  0  0  0  0  0  0  0  0  0  0
    7.5710    1.6820   28.2020 C   0  0  0  0  0  0  0  0  0  0  0  0
    6.9540    0.4320   28.2670 C   0  0  0  0  0  0  0  0  0  0  0  0
    7.3610   -0.6090   27.4810 O   0  0  0  0  0  0  0  0  0  0  0  0
    8.3670   -0.3490   26.5110 C   0  0  0  0  0  0  0  0  0  0  0  0
    8.7640   -1.6420   25.7820 C   0  0  0  0  0  0  0  0  0  0  0  0
    7.9770   -2.5590   25.5580 O   0  0  0  0  0  0  0  0  0  0  0  0
   10.0820   -1.7110   25.3870 N   0  0  0  0  0  0  0  0  0  0  0  0
   11.0470   -0.6780   25.7960 C   0  0  0  0  0  0  0  0  0  0  0  0
   10.4970   -2.6850   24.3590 C   0  0  0  0  0  0  0  0  0  0  0  0
   12.3020   -1.4890   25.4000 C   0  0  0  0  0  0  0  0  0  0  0  0
   11.3900   -2.0470   23.2890 C   0  0  0  0  0  0  0  0  0  0  0  0
   12.5720   -1.5290   23.9550 N   0  0  0  0  0  0  0  0  0  0  0  0
   13.1180   -0.2760   23.3890 C   0  0  0  0  0  0  0  0  0  0  0  0
   12.3320    1.0130   23.5740 C   0  0  0  0  0  0  0  0  0  0  0  0
   11.0790    1.0800   24.1830 C   0  0  0  0  0  0  0  0  0  0  0  0
   12.8740    2.2130   23.1160 C   0  0  0  0  0  0  0  0  0  0  0  0
   10.4160    2.3030   24.3140 C   0  0  0  0  0  0  0  0  0  0  0  0
   12.2310    3.4300   23.2330 C   0  0  0  0  0  0  0  0  0  0  0  0
   10.9910    3.4810   23.8360 C   0  0  0  0  0  0  0  0  0  0  0  0
  1  2  1  0
  2  3  2  0
  2  4  1  0
  3  5  1  0
  4  6  2  0
  5  7  2  0
  6  7  1  0
  7  8  1  0
  8  9  1  0
  9 10  1  0
 10 11  2  0
 10 12  1  0
 12 13  1  0
 12 14  1  0
 13 15  1  0
 14 16  1  0
 15 17  1  0
 16 17  1  0
 17 18  1  0
 18 19  1  0
 19 20  2  0
 19 21  1  0
 20 22  1  0
 21 23  2  0
 22 24  2  0
 23 24  1  0
M  END
>  <Name>  (2) 
x0354-0A-x0161-0A_22

>  <original SMILES>  (2) 
Cc1ccc(OCC(=O)N2CCN(Cc3ccccc3)CC2)cc1

>  <synthon>  (2) 
[Xe]c1ccccc1

>  <ref_pdb>  (2) 
p/x0354-0A-x0161-0A-22.holo_minimised.pdb

>  <ref_mols>  (2) 
x0354_0A,x0161_0A

>  <IFP_score>  (2) 
0.5773502691896257

>  <SuCOS_score>  (2) 
0.6272463614543399

>  <AttchPnts_score>  (2) 
1

>  <Docking_score>  (2) 
-4.3950038

>  <LE_score>  (2) 
-0.18312515833333332

>  <EnergyRatio_score>  (2) 
3.126770603379453

>  <cmpd_id>  (2) 
['ENAMINE:PV-000101575982', 'ENAMINE:Z26345092']

$$$$

     RDKit          3D

 21 22  0  0  0  0  0  0  0  0999 V2000
    4.7160    0.4650   23.5820 C   0  0  0  0  0  0  0  0  0  0  0  0
    4.0550    1.5530   22.7280 C   0  0  2  0  0  0  0  0  0  0  0  0
    4.8830    2.2310   21.8370 C   0  0  0  0  0  0  0  0  0  0  0  0
    3.2730    2.3530   23.4590 N   0  0  0  0  0  0  0  0  0  0  0  0
    4.2310    2.8090   20.7740 N   0  0  0  0  0  0  0  0  0  0  0  0
    2.2800    1.7370   24.1130 C   0  0  0  0  0  0  0  0  0  0  0  0
    4.0220    2.2200   19.5570 C   0  0  0  0  0  0  0  0  0  0  0  0
    2.2000    0.5240   24.2490 O   0  0  0  0  0  0  0  0  0  0  0  0
    1.2840    2.5170   24.6820 C   0  0  0  0  0  0  0  0  0  0  0  0
    3.0720    2.5210   18.8660 O   0  0  0  0  0  0  0  0  0  0  0  0
    4.9290    1.2600   19.1540 C   0  0  0  0  0  0  0  0  0  0  0  0
   -0.0250    2.0550   24.6750 C   0  0  0  0  0  0  0  0  0  0  0  0
    1.5860    3.7520   25.2610 C   0  0  0  0  0  0  0  0  0  0  0  0
    5.4680    1.3130   17.9030 C   0  0  0  0  0  0  0  0  0  0  0  0
    5.3370    0.2130   19.9870 C   0  0  0  0  0  0  0  0  0  0  0  0
   -1.0490    2.7880   25.2310 C   0  0  0  0  0  0  0  0  0  0  0  0
    0.6020    4.5160   25.8270 C   0  0  0  0  0  0  0  0  0  0  0  0
    6.3560    0.4430   17.4280 N   0  0  0  0  0  0  0  0  0  0  0  0
    6.2260   -0.7310   19.6280 N   0  0  0  0  0  0  0  0  0  0  0  0
   -0.7170    4.1420   25.8690 C   0  0  0  0  0  0  0  0  0  0  0  0
    6.7110   -0.6030   18.3800 C   0  0  0  0  0  0  0  0  0  0  0  0
  2  1  1  1
  2  3  1  0
  2  4  1  0
  3  5  1  0
  4  6  1  0
  5  7  1  0
  6  8  2  0
  6  9  1  0
  7 10  2  0
  7 11  1  0
  9 12  2  0
  9 13  1  0
 11 14  2  0
 11 15  1  0
 12 16  1  0
 13 17  2  0
 14 18  1  0
 15 19  2  0
 16 20  2  0
 17 20  1  0
 18 21  2  0
 19 21  1  0
M  END
>  <Name>  (3) 
x0995-0A-x0426-0A_9112

>  <original SMILES>  (3) 
CC(CNC(=O)c1cncnc1)NC(=O)c1ccccc1

>  <synthon>  (3) 
[Xe]c1ccccc1

>  <ref_pdb>  (3) 
p/x0995-0A-x0426-0A-9112.holo_minimised.pdb

>  <ref_mols>  (3) 
x0995_0A,x0426_0A

>  <IFP_score>  (3) 
0.7071067811865476

>  <SuCOS_score>  (3) 
0.8251516099747473

>  <AttchPnts_score>  (3) 
2

>  <Docking_score>  (3) 
-3.89036942

>  <LE_score>  (3) 
-0.18525568666666667

>  <EnergyRatio_score>  (3) 
4.066651392895103

>  <cmpd_id>  (3) 
['ENAMINE:PV-001407797705', 'ENAMINE:PV-001621335446', 'ENAMINE:PV-001630037039']

$$$$

     RDKit          3D

 21 22  0  0  0  0  0  0  0  0999 V2000
   10.2610    2.6300   22.6010 C   0  0  0  0  0  0  0  0  0  0  0  0
    9.1600    1.6790   22.4350 N   0  0  0  0  0  0  0  0  0  0  0  0
    7.9900    2.3710   21.8410 C   0  0  0  0  0  0  0  0  0  0  0  0
    9.3830    0.4790   21.9260 C   0  0  0  0  0  0  0  0  0  0  0  0
    6.5500    2.0820   22.3420 C   0  0  0  0  0  0  0  0  0  0  0  0
    9.4930    0.3750   20.7180 O   0  0  0  0  0  0  0  0  0  0  0  0
    9.4530   -0.6350   22.7120 C   0  0  0  0  0  0  0  0  0  0  0  0
    5.5010    2.8220   21.5840 N   0  0  0  0  0  0  0  0  0  0  0  0
    8.6870   -0.6010   23.9580 C   0  0  0  0  0  0  0  0  0  0  0  0
   10.1900   -1.6900   22.3290 N   0  0  0  0  0  0  0  0  0  0  0  0
    4.6110    2.2260   20.6650 C   0  0  0  0  0  0  0  0  0  0  0  0
    8.7300   -1.7920   24.8090 C   0  0  0  0  0  0  0  0  0  0  0  0
   10.2130   -2.7700   23.1310 C   0  0  0  0  0  0  0  0  0  0  0  0
    3.4410    2.5800   20.5410 O   0  0  0  0  0  0  0  0  0  0  0  0
    5.2140    1.0850   19.8370 C   0  0  0  0  0  0  0  0  0  0  0  0
    9.5450   -2.9040   24.3230 C   0  0  0  0  0  0  0  0  0  0  0  0
    5.5740   -0.1210   20.3910 C   0  0  0  0  0  0  0  0  0  0  0  0
    5.4580    1.2290   18.3260 C   0  0  0  0  0  0  0  0  0  0  0  0
    6.1090   -1.1110   19.6610 N   0  0  0  0  0  0  0  0  0  0  0  0
    6.0020    0.2540   17.5810 N   0  0  0  0  0  0  0  0  0  0  0  0
    6.3050   -0.8680   18.2410 C   0  0  0  0  0  0  0  0  0  0  0  0
  1  2  1  0
  2  3  1  0
  2  4  1  0
  3  5  1  0
  4  6  2  0
  4  7  1  0
  5  8  1  0
  7  9  2  0
  7 10  1  0
  8 11  1  0
  9 12  1  0
 10 13  2  0
 11 14  2  0
 11 15  1  0
 12 16  2  0
 13 16  1  0
 15 17  2  0
 15 18  1  0
 17 19  1  0
 18 20  2  0
 19 21  2  0
 20 21  1  0
M  END
>  <Name>  (4) 
x0995-0A-x1077-0A_3295

>  <original SMILES>  (4) 
CN(CCNC(=O)c1cncnc1)C(=O)c1ccccn1

>  <synthon>  (4) 
[Xe]c1ccccn1

>  <ref_pdb>  (4) 
p/x0995-0A-x1077-0A-3295.holo_minimised.pdb

>  <ref_mols>  (4) 
x0995_0A,x1077_0A

>  <IFP_score>  (4) 
0.6666666666666666

>  <SuCOS_score>  (4) 
0.6382859602322718

>  <AttchPnts_score>  (4) 
1

>  <Docking_score>  (4) 
-5.65374947

>  <LE_score>  (4) 
-0.2692261652380952

>  <EnergyRatio_score>  (4) 
3.595398045899742

>  <cmpd_id>  (4) 
['ENAMINE:PV-001433866856']

$$$$

     RDKit          3D

 20 21  0  0  0  0  0  0  0  0999 V2000
    5.9030    0.3410   18.0550 C   0  0  0  0  0  0  0  0  0  0  0  0
    6.1180    0.7240   19.4450 N   0  0  0  0  0  0  0  0  0  0  0  0
    7.0870   -0.1340   20.1400 C   0  0  0  0  0  0  0  0  0  0  0  0
    7.3320    0.1600   21.4830 C   0  0  0  0  0  0  0  0  0  0  0  0
    8.5140   -0.5060   22.0710 N   0  0  0  0  0  0  0  0  0  0  0  0
    8.1520   -1.3390   23.2340 C   0  0  0  0  0  0  0  0  0  0  0  0
    9.5670    0.4620   22.3710 C   0  0  0  0  0  0  0  0  0  0  0  0
    9.2710   -2.2960   23.6440 C   0  0  0  0  0  0  0  0  0  0  0  0
   10.8940   -0.1140   22.8590 C   0  0  0  0  0  0  0  0  0  0  0  0
    9.5260   -2.5140   25.0790 N   0  0  0  0  0  0  0  0  0  0  0  0
   11.4740    0.4040   24.0220 C   0  0  0  0  0  0  0  0  0  0  0  0
   11.5690   -1.1410   22.1710 C   0  0  0  0  0  0  0  0  0  0  0  0
    8.2900   -2.8500   25.7980 C   0  0  0  0  0  0  0  0  0  0  0  0
   10.6610   -3.4290   25.3020 C   0  0  0  0  0  0  0  0  0  0  0  0
   12.6900   -0.0840   24.4770 C   0  0  0  0  0  0  0  0  0  0  0  0
   12.7920   -1.6280   22.6340 C   0  0  0  0  0  0  0  0  0  0  0  0
    7.9400   -4.3210   25.7950 C   0  0  0  0  0  0  0  0  0  0  0  0
   10.4450   -4.7280   26.0970 C   0  0  0  0  0  0  0  0  0  0  0  0
   13.3530   -1.0940   23.7890 C   0  0  0  0  0  0  0  0  0  0  0  0
    9.0220   -5.0950   26.5090 C   0  0  0  0  0  0  0  0  0  0  0  0
  1  2  1  0
  2  3  1  0
  3  4  1  0
  4  5  1  0
  5  6  1  0
  5  7  1  0
  6  8  1  0
  7  9  1  0
  8 10  1  0
  9 11  2  0
  9 12  1  0
 10 13  1  0
 10 14  1  0
 11 15  1  0
 12 16  2  0
 13 17  1  0
 14 18  1  0
 15 19  2  0
 16 19  1  0
 17 20  1  0
 18 20  1  0
M  END
>  <Name>  (5) 
x0072-0A-x0387-0A_12166

>  <original SMILES>  (5) 
CNCCN(CCN1CCCCC1)Cc1ccccc1

>  <synthon>  (5) 
[Xe]N1CCCCC1

>  <ref_pdb>  (5) 
p/x0072-0A-x0387-0A-12166.holo_minimised.pdb

>  <ref_mols>  (5) 
x0072_0A,x0387_0A

>  <IFP_score>  (5) 
0.5773502691896257

>  <SuCOS_score>  (5) 
0.5813681775968232

>  <AttchPnts_score>  (5) 
1

>  <Docking_score>  (5) 
-5.32990313

>  <LE_score>  (5) 
-0.2664951565

>  <EnergyRatio_score>  (5) 
2.0340497416428747

>  <cmpd_id>  (5) 
['CHEMSPACE-BB:CSMB00119560929']

$$$$

     RDKit          3D

 22 23  0  0  0  0  0  0  0  0999 V2000
    8.3410    4.6170   22.7520 C   0  0  0  0  0  0  0  0  0  0  0  0
    7.2230    3.6750   23.2360 C   0  0  0  0  0  0  0  0  0  0  0  0
    7.5010    2.2200   22.7830 C   0  0  1  0  0  0  0  0  0  0  0  0
    6.5020    1.7940   21.6680 C   0  0  0  0  0  0  0  0  0  0  0  0
    8.9040    2.0200   22.3480 N   0  0  0  0  0  0  0  0  0  0  0  0
    5.4110    2.5840   21.4720 N   0  0  0  0  0  0  0  0  0  0  0  0
    9.3300    0.8080   21.9180 C   0  0  0  0  0  0  0  0  0  0  0  0
    4.5470    2.1930   20.4350 C   0  0  0  0  0  0  0  0  0  0  0  0
    9.6480    0.6380   20.7770 O   0  0  0  0  0  0  0  0  0  0  0  0
    9.3760   -0.3180   22.7580 C   0  0  0  0  0  0  0  0  0  0  0  0
    3.4140    2.6230   20.2460 O   0  0  0  0  0  0  0  0  0  0  0  0
    5.2010    1.1130   19.5420 C   0  0  0  0  0  0  0  0  0  0  0  0
    8.8910   -0.2730   24.0820 C   0  0  0  0  0  0  0  0  0  0  0  0
    9.9070   -1.4460   22.1920 N   0  0  0  0  0  0  0  0  0  0  0  0
    5.5820   -0.0560   20.1350 C   0  0  0  0  0  0  0  0  0  0  0  0
    5.4560    1.2040   18.1970 C   0  0  0  0  0  0  0  0  0  0  0  0
    8.9380   -1.4320   24.8700 C   0  0  0  0  0  0  0  0  0  0  0  0
    9.9560   -2.5560   22.9510 C   0  0  0  0  0  0  0  0  0  0  0  0
    6.1650   -1.0640   19.4960 N   0  0  0  0  0  0  0  0  0  0  0  0
    6.0490    0.2180   17.5100 N   0  0  0  0  0  0  0  0  0  0  0  0
    9.5080   -2.6100   24.2240 C   0  0  0  0  0  0  0  0  0  0  0  0
    6.3880   -0.8970   18.1860 C   0  0  0  0  0  0  0  0  0  0  0  0
  1  2  1  0
  3  2  1  6
  3  4  1  0
  3  5  1  0
  4  6  1  0
  5  7  1  0
  6  8  1  0
  7  9  2  0
  7 10  1  0
  8 11  2  0
  8 12  1  0
 10 13  2  0
 10 14  1  0
 12 15  2  0
 12 16  1  0
 13 17  1  0
 14 18  2  0
 15 19  1  0
 16 20  2  0
 17 21  2  0
 18 21  1  0
 19 22  2  0
 20 22  1  0
M  END
>  <Name>  (6) 
x0995-0A-x1077-0A_2822

>  <original SMILES>  (6) 
CCC(CNC(=O)c1cncnc1)NC(=O)c1ccccn1

>  <synthon>  (6) 
[Xe]c1ccccn1

>  <ref_pdb>  (6) 
p/x0995-0A-x1077-0A-2822.holo_minimised.pdb

>  <ref_mols>  (6) 
x0995_0A,x1077_0A

>  <IFP_score>  (6) 
0.6666666666666666

>  <SuCOS_score>  (6) 
0.6045856713454112

>  <AttchPnts_score>  (6) 
2

>  <Docking_score>  (6) 
-5.70505047

>  <LE_score>  (6) 
-0.2593204759090909

>  <EnergyRatio_score>  (6) 
3.8090443277568697

>  <cmpd_id>  (6) 
['ENAMINE:PV-001522580484']

$$$$

     RDKit          3D

 25 27  0  0  0  0  0  0  0  0999 V2000
    4.8920    4.6830   30.0030 C   0  0  0  0  0  0  0  0  0  0  0  0
    5.6960    3.7180   30.6640 O   0  0  0  0  0  0  0  0  0  0  0  0
    6.0850    2.6330   29.9240 C   0  0  0  0  0  0  0  0  0  0  0  0
    7.1690    2.9190   29.1000 C   0  0  0  0  0  0  0  0  0  0  0  0
    5.4500    1.3880   30.0040 C   0  0  0  0  0  0  0  0  0  0  0  0
    7.5630    1.7850   28.3400 C   0  0  0  0  0  0  0  0  0  0  0  0
    5.8840    0.3290   29.2370 C   0  0  0  0  0  0  0  0  0  0  0  0
    6.9520    0.5460   28.4030 C   0  0  0  0  0  0  0  0  0  0  0  0
    7.5090   -0.4470   27.5590 O   0  0  0  0  0  0  0  0  0  0  0  0
    8.4530   -0.1520   26.6110 C   0  0  0  0  0  0  0  0  0  0  0  0
    8.8060   -1.2920   25.6580 C   0  0  0  0  0  0  0  0  0  0  0  0
    8.0460   -2.2680   25.6370 O   0  0  0  0  0  0  0  0  0  0  0  0
    9.9350   -1.2570   24.8380 N   0  0  0  0  0  0  0  0  0  0  0  0
   10.3070   -2.5500   24.2410 C   0  0  0  0  0  0  0  0  0  0  0  0
   11.1010   -0.4060   25.2080 C   0  0  1  0  0  0  0  0  0  0  0  0
   11.4510   -2.4960   23.2750 C   0  0  0  0  0  0  0  0  0  0  0  0
   12.2320   -1.1540   24.9170 C   0  0  0  0  0  0  0  0  0  0  0  0
   11.2610    0.8700   24.5900 C   0  0  0  0  0  0  0  0  0  0  0  0
   12.2850   -1.3550   23.5450 N   0  0  0  0  0  0  0  0  0  0  0  0
   10.3760    1.9630   24.6800 C   0  0  0  0  0  0  0  0  0  0  0  0
   12.4330    1.0740   23.8210 C   0  0  0  0  0  0  0  0  0  0  0  0
   13.6060   -1.3750   22.9330 C   0  0  0  0  0  0  0  0  0  0  0  0
   10.6760    3.2910   23.9840 C   0  0  0  0  0  0  0  0  0  0  0  0
   12.7410    2.2670   23.1740 C   0  0  0  0  0  0  0  0  0  0  0  0
   11.8300    3.4710   23.2360 C   0  0  0  0  0  0  0  0  0  0  0  0
  1  2  1  0
  2  3  1  0
  3  4  2  0
  3  5  1  0
  4  6  1  0
  5  7  2  0
  6  8  2  0
  7  8  1  0
  8  9  1  0
  9 10  1  0
 10 11  1  0
 11 12  2  0
 11 13  1  0
 13 14  1  0
 13 15  1  0
 14 16  1  0
 15 17  1  6
 15 18  1  0
 16 19  1  0
 17 19  1  0
 18 20  2  0
 18 21  1  0
 19 22  1  0
 20 23  1  0
 21 24  2  0
 23 25  2  0
 24 25  1  0
M  END
>  <Name>  (7) 
x0354-0A-x0161-0A_643

>  <original SMILES>  (7) 
COc1ccc(OCC(=O)N2CCN(C)CC2c2ccccc2)cc1

>  <synthon>  (7) 
[Xe]c1ccccc1

>  <ref_pdb>  (7) 
p/x0354-0A-x0161-0A-643.holo_minimised.pdb

>  <ref_mols>  (7) 
x0354_0A,x0161_0A

>  <IFP_score>  (7) 
0.5773502691896257

>  <SuCOS_score>  (7) 
0.5549183587686728

>  <AttchPnts_score>  (7) 
1

>  <Docking_score>  (7) 
-4.13387871

>  <LE_score>  (7) 
-0.1653551484

>  <EnergyRatio_score>  (7) 
3.983213275924285

>  <cmpd_id>  (7) 
['MOLPORT:009-401-071']

$$$$

     RDKit          3D

 24 26  0  0  0  0  0  0  0  0999 V2000
    5.6040    3.6760   30.9090 C   0  0  0  0  0  0  0  0  0  0  0  0
    6.1470    2.6210   29.9910 C   0  0  0  0  0  0  0  0  0  0  0  0
    5.5480    1.3510   29.9040 C   0  0  0  0  0  0  0  0  0  0  0  0
    7.2570    2.8670   29.2000 C   0  0  0  0  0  0  0  0  0  0  0  0
    6.0450    0.3510   29.0500 C   0  0  0  0  0  0  0  0  0  0  0  0
    7.8080    1.7960   28.2660 C   0  0  0  0  0  0  0  0  0  0  0  0
    7.1670    0.5630   28.2330 C   0  0  0  0  0  0  0  0  0  0  0  0
    7.5250   -0.5000   27.4630 O   0  0  0  0  0  0  0  0  0  0  0  0
    8.6030   -0.3320   26.5440 C   0  0  0  0  0  0  0  0  0  0  0  0
    8.9550   -1.5910   25.7590 C   0  0  0  0  0  0  0  0  0  0  0  0
    8.0320   -2.3470   25.4380 O   0  0  0  0  0  0  0  0  0  0  0  0
   10.2720   -1.9180   25.4140 N   0  0  0  0  0  0  0  0  0  0  0  0
   10.4270   -3.0040   24.4600 C   0  0  0  0  0  0  0  0  0  0  0  0
   11.3390   -0.8780   25.3860 C   0  0  0  0  0  0  0  0  0  0  0  0
   11.1900   -2.4940   23.2600 C   0  0  0  0  0  0  0  0  0  0  0  0
   12.6370   -1.1500   24.5080 C   0  0  1  0  0  0  0  0  0  0  0  0
   12.5350   -2.2140   23.6810 N   0  0  0  0  0  0  0  0  0  0  0  0
   13.0120    0.0270   23.6080 C   0  0  0  0  0  0  0  0  0  0  0  0
   12.2400    1.3340   23.7030 C   0  0  0  0  0  0  0  0  0  0  0  0
   12.8210    2.6040   23.1400 C   0  0  0  0  0  0  0  0  0  0  0  0
   10.9920    1.3640   24.3150 C   0  0  0  0  0  0  0  0  0  0  0  0
   12.1520    3.8140   23.2070 C   0  0  0  0  0  0  0  0  0  0  0  0
   10.2890    2.5540   24.4050 C   0  0  0  0  0  0  0  0  0  0  0  0
   10.9100    3.8630   23.8120 C   0  0  0  0  0  0  0  0  0  0  0  0
  1  2  1  0
  2  3  2  0
  2  4  1  0
  3  5  1  0
  4  6  2  0
  5  7  2  0
  6  7  1  0
  7  8  1  0
  8  9  1  0
  9 10  1  0
 10 11  2  0
 10 12  1  0
 12 13  1  0
 12 14  1  0
 13 15  1  0
 14 16  1  0
 15 17  1  0
 16 17  1  0
 16 18  1  6
 18 19  1  0
 19 20  2  0
 19 21  1  0
 20 22  1  0
 21 23  2  0
 22 24  2  0
 23 24  1  0
M  END
>  <Name>  (8) 
x0354-0A-x0161-0A_271

>  <original SMILES>  (8) 
Cc1ccc(OCC(=O)N2CCNC(Cc3ccccc3)C2)cc1

>  <synthon>  (8) 
[Xe]c1ccccc1

>  <ref_pdb>  (8) 
p/x0354-0A-x0161-0A-271.holo_minimised.pdb

>  <ref_mols>  (8) 
x0354_0A,x0161_0A

>  <IFP_score>  (8) 
0.5

>  <SuCOS_score>  (8) 
0.6118416511590522

>  <AttchPnts_score>  (8) 
2

>  <Docking_score>  (8) 
-4.41784716

>  <LE_score>  (8) 
-0.184076965

>  <EnergyRatio_score>  (8) 
3.090357889823446

>  <cmpd_id>  (8) 
['ENAMINE:PV-001865109696']

$$$$

     RDKit          3D

 21 22  0  0  0  0  0  0  0  0999 V2000
    8.0010    2.9100   22.3260 C   0  0  0  0  0  0  0  0  0  0  0  0
    8.6220    1.9360   23.0810 N   0  0  0  0  0  0  0  0  0  0  0  0
    9.4400    2.2860   24.2220 C   0  0  0  0  0  0  0  0  0  0  0  0
    8.9900    0.8410   22.1960 C   0  0  0  0  0  0  0  0  0  0  0  0
   10.8640    2.3260   23.7480 C   0  0  0  0  0  0  0  0  0  0  0  0
    9.1200    0.9300   20.8550 O   0  0  0  0  0  0  0  0  0  0  0  0
    9.2150   -0.5130   22.8710 C   0  0  0  0  0  0  0  0  0  0  0  0
   11.4370    1.0890   23.4800 C   0  0  0  0  0  0  0  0  0  0  0  0
   11.5840    3.5090   23.5600 C   0  0  0  0  0  0  0  0  0  0  0  0
    8.7090   -0.6360   24.2290 C   0  0  0  0  0  0  0  0  0  0  0  0
    9.8350   -1.5710   22.2930 N   0  0  0  0  0  0  0  0  0  0  0  0
   12.7330    0.9780   23.0070 C   0  0  0  0  0  0  0  0  0  0  0  0
   12.8900    3.4620   23.0820 C   0  0  0  0  0  0  0  0  0  0  0  0
   10.9080    5.1620   23.9100 S   0  0  0  0  0  0  0  0  0  0  0  0
    8.8420   -1.8110   24.9450 C   0  0  0  0  0  0  0  0  0  0  0  0
    9.9470   -2.7130   23.0290 C   0  0  0  0  0  0  0  0  0  0  0  0
   13.4800    2.2340   22.7980 C   0  0  0  0  0  0  0  0  0  0  0  0
    9.5640    5.3110   22.9340 N   0  0  0  0  0  0  0  0  0  0  0  0
   10.4030    5.1640   25.2690 O   0  0  0  0  0  0  0  0  0  0  0  0
   11.8320    6.1660   23.4600 O   0  0  0  0  0  0  0  0  0  0  0  0
    9.4730   -2.8840   24.3380 C   0  0  0  0  0  0  0  0  0  0  0  0
  1  2  1  0
  2  3  1  0
  2  4  1  0
  3  5  1  0
  4  6  2  0
  4  7  1  0
  5  8  2  0
  5  9  1  0
  7 10  2  0
  7 11  1  0
  8 12  1  0
  9 13  2  0
  9 14  1  0
 10 15  1  0
 11 16  2  0
 12 17  2  0
 13 17  1  0
 14 18  1  0
 14 19  2  0
 14 20  2  0
 15 21  2  0
 16 21  1  0
M  END
>  <Name>  (9) 
x0946-0A-x1077-0A_3711

>  <original SMILES>  (9) 
CN(Cc1ccccc1S(N)(=O)=O)C(=O)c1ccccn1

>  <synthon>  (9) 
[Xe]c1ccccn1

>  <ref_pdb>  (9) 
p/x0946-0A-x1077-0A-3711.holo_minimised.pdb

>  <ref_mols>  (9) 
x0946_0A,x1077_0A

>  <IFP_score>  (9) 
0.6666666666666666

>  <SuCOS_score>  (9) 
0.6462310315978963

>  <AttchPnts_score>  (9) 
1

>  <Docking_score>  (9) 
-5.08785152

>  <LE_score>  (9) 
-0.24227864380952382

>  <EnergyRatio_score>  (9) 
1.8320483449931166

>  <cmpd_id>  (9) 
['ENAMINE:Z2213834094']

$$$$

     RDKit          3D

 25 26  0  0  0  0  0  0  0  0999 V2000
    7.5240    6.3210   21.8460 C   0  0  0  0  0  0  0  0  0  0  0  0
    7.1310    5.2040   22.8250 C   0  0  0  0  0  0  0  0  0  0  0  0
    6.3910    5.7360   24.0510 C   0  0  0  0  0  0  0  0  0  0  0  0
    8.3590    4.3400   23.2340 C   0  0  2  0  0  0  0  0  0  0  0  0
    9.5100    4.9880   22.9110 N   0  0  0  0  0  0  0  0  0  0  0  0
    8.3020    2.9560   22.5030 C   0  0  0  0  0  0  0  0  0  0  0  0
   10.7730    5.0970   24.0150 S   0  0  0  0  0  0  0  0  0  0  0  0
    7.3760    2.6840   21.7520 O   0  0  0  0  0  0  0  0  0  0  0  0
    9.3200    2.0530   22.7560 N   0  0  0  0  0  0  0  0  0  0  0  0
   10.2160    5.1530   25.3530 O   0  0  0  0  0  0  0  0  0  0  0  0
   11.6680    6.1180   23.5240 O   0  0  0  0  0  0  0  0  0  0  0  0
   11.5470    3.4760   23.7340 C   0  0  0  0  0  0  0  0  0  0  0  0
    9.5940    0.9440   21.8690 C   0  0  0  0  0  0  0  0  0  0  0  0
   10.9060    2.2560   24.2800 C   0  0  0  0  0  0  0  0  0  0  0  0
   12.7250    3.2710   23.0270 C   0  0  0  0  0  0  0  0  0  0  0  0
    9.4860   -0.2840   22.5240 C   0  0  0  0  0  0  0  0  0  0  0  0
   11.4280    0.9790   24.0990 C   0  0  0  0  0  0  0  0  0  0  0  0
   13.2580    1.9800   22.8440 C   0  0  0  0  0  0  0  0  0  0  0  0
    8.3780   -0.5970   23.3010 C   0  0  0  0  0  0  0  0  0  0  0  0
   10.5440   -1.2080   22.3650 N   0  0  0  0  0  0  0  0  0  0  0  0
   12.6140    0.8500   23.3710 C   0  0  0  0  0  0  0  0  0  0  0  0
    8.2950   -1.8390   23.9130 C   0  0  0  0  0  0  0  0  0  0  0  0
   10.4110   -2.3780   22.9750 C   0  0  0  0  0  0  0  0  0  0  0  0
   13.3300   -0.8930   23.1140 Br  0  0  0  0  0  0  0  0  0  0  0  0
    9.3310   -2.7460   23.7350 C   0  0  0  0  0  0  0  0  0  0  0  0
  1  2  1  0
  2  3  1  0
  2  4  1  0
  4  5  1  6
  4  6  1  0
  7  5  1  0
  6  8  2  0
  6  9  1  0
  7 10  2  0
  7 11  2  0
  7 12  1  0
  9 13  1  0
 12 14  2  0
 12 15  1  0
 13 16  1  0
 14 17  1  0
 15 18  2  0
 16 19  2  0
 16 20  1  0
 17 21  2  0
 18 21  1  0
 19 22  1  0
 20 23  2  0
 21 24  1  0
 22 25  2  0
 23 25  1  0
M  END
>  <Name>  (10) 
x0946-0A-x1077-0A_3459

>  <original SMILES>  (10) 
CC(C)C(NS(=O)(=O)c1ccc(Br)cc1)C(=O)NCc1ccccn1

>  <synthon>  (10) 
[Xe]c1ccccn1

>  <ref_pdb>  (10) 
p/x0946-0A-x1077-0A-3459.holo_minimised.pdb

>  <ref_mols>  (10) 
x0946_0A,x1077_0A

>  <IFP_score>  (10) 
0.5773502691896257

>  <SuCOS_score>  (10) 
0.638675687370771

>  <AttchPnts_score>  (10) 
4

>  <Docking_score>  (10) 
-5.2791872

>  <LE_score>  (10) 
-0.211167488

>  <EnergyRatio_score>  (10) 
4.753204255849322

>  <cmpd_id>  (10) 
['MOLPORT:004-223-762']

$$$$

     RDKit          3D

 20 21  0  0  0  0  0  0  0  0999 V2000
    7.7730    1.9330   24.2650 C   0  0  0  0  0  0  0  0  0  0  0  0
    8.6790    0.8270   24.2280 N   0  0  0  0  0  0  0  0  0  0  0  0
    8.3090   -0.0390   23.1080 C   0  0  0  0  0  0  0  0  0  0  0  0
    9.9810    0.9060   24.7060 C   0  0  0  0  0  0  0  0  0  0  0  0
    8.9670    0.2520   21.7180 C   0  0  0  0  0  0  0  0  0  0  0  0
   10.9390    0.2860   23.8910 C   0  0  0  0  0  0  0  0  0  0  0  0
    8.8310   -0.9360   20.7560 C   0  0  0  0  0  0  0  0  0  0  0  0
   10.6870   -0.9530   23.2790 C   0  0  0  0  0  0  0  0  0  0  0  0
   12.1790    0.9070   23.6710 C   0  0  0  0  0  0  0  0  0  0  0  0
    8.3960   -0.6930   19.4310 N   0  0  0  0  0  0  0  0  0  0  0  0
   11.6600   -1.5270   22.4800 C   0  0  0  0  0  0  0  0  0  0  0  0
   13.1510    0.3120   22.8600 C   0  0  0  0  0  0  0  0  0  0  0  0
    7.0980   -0.0560   19.2510 C   0  0  0  0  0  0  0  0  0  0  0  0
   12.8840   -0.9180   22.2580 C   0  0  0  0  0  0  0  0  0  0  0  0
    6.3100   -0.0540   20.3250 N   0  0  0  0  0  0  0  0  0  0  0  0
    6.7900    0.5010   18.0620 N   0  0  0  0  0  0  0  0  0  0  0  0
    5.1570    0.5780   20.2430 C   0  0  0  0  0  0  0  0  0  0  0  0
    5.6020    1.1430   18.0230 C   0  0  0  0  0  0  0  0  0  0  0  0
    4.7420    1.2240   19.1130 C   0  0  0  0  0  0  0  0  0  0  0  0
    3.5880    1.8910   19.0620 N   0  0  0  0  0  0  0  0  0  0  0  0
  1  2  1  0
  2  3  1  0
  2  4  1  0
  3  5  1  0
  4  6  1  0
  5  7  1  0
  6  8  2  0
  6  9  1  0
  7 10  1  0
  8 11  1  0
  9 12  2  0
 10 13  1  0
 11 14  2  0
 12 14  1  0
 13 15  2  0
 13 16  1  0
 15 17  1  0
 16 18  2  0
 17 19  2  0
 18 19  1  0
 19 20  1  0
M  END
>  <Name>  (11) 
x0995-0A-x1249-0A_3298

>  <original SMILES>  (11) 
CN(CCCNc1ncc(N)cn1)Cc1ccccc1

>  <synthon>  (11) 
[Xe]c1ccccc1

>  <ref_pdb>  (11) 
p/x0995-0A-x1249-0A-3298.holo_minimised.pdb

>  <ref_mols>  (11) 
x0995_0A,x1249_0A

>  <IFP_score>  (11) 
0.816496580927726

>  <SuCOS_score>  (11) 
0.5593649938845836

>  <AttchPnts_score>  (11) 
2

>  <Docking_score>  (11) 
-5.66678905

>  <LE_score>  (11) 
-0.28333945250000003

>  <EnergyRatio_score>  (11) 
3.6746049811218118

>  <cmpd_id>  (11) 
['CHEMSPACE-BB:CSMB00011421615']

$$$$

     RDKit          3D

 31 34  0  0  0  0  0  0  0  0999 V2000
   10.6500    6.5800   24.9030 O   0  0  0  0  0  0  0  0  0  0  0  0
   10.3510    6.0560   23.8400 C   0  0  0  0  0  0  0  0  0  0  0  0
    9.0200    5.9610   23.4390 C   0  0  0  0  0  0  0  0  0  0  0  0
   11.3290    5.5280   23.0160 N   0  0  0  0  0  0  0  0  0  0  0  0
    8.1530    6.1850   24.6210 N   0  0  0  0  0  0  0  0  0  0  0  0
   12.4800    4.9030   23.6520 C   0  0  0  0  0  0  0  0  0  0  0  0
    8.1560    7.3490   25.3530 C   0  0  0  0  0  0  0  0  0  0  0  0
    7.3980    5.1660   25.1900 C   0  0  0  0  0  0  0  0  0  0  0  0
   12.7750    3.6900   23.0460 C   0  0  0  0  0  0  0  0  0  0  0  0
    8.3150    8.4840   24.9310 O   0  0  0  0  0  0  0  0  0  0  0  0
    7.8700    6.9670   27.0450 S   0  0  0  0  0  0  0  0  0  0  0  0
    7.0580    5.4920   26.6300 C   0  0  0  0  0  0  0  0  0  0  0  0
    7.0460    4.1510   24.6040 O   0  0  0  0  0  0  0  0  0  0  0  0
   11.9550    2.4880   23.3890 C   0  0  0  0  0  0  0  0  0  0  0  0
    6.2160    4.7480   27.5380 C   0  0  0  0  0  0  0  0  0  0  0  0
   10.7490    2.5250   24.0500 C   0  0  0  0  0  0  0  0  0  0  0  0
   12.2320    1.1050   23.0940 C   0  0  0  0  0  0  0  0  0  0  0  0
    6.0250    5.2490   28.8830 C   0  0  0  0  0  0  0  0  0  0  0  0
   10.2770    1.2510   24.1560 N   0  0  0  0  0  0  0  0  0  0  0  0
   11.1540    0.3700   23.5740 C   0  0  0  0  0  0  0  0  0  0  0  0
   13.2700    0.4060   22.4700 C   0  0  0  0  0  0  0  0  0  0  0  0
    6.0510    4.2200   29.8270 C   0  0  0  0  0  0  0  0  0  0  0  0
   11.0560   -0.9990   23.4460 C   0  0  0  0  0  0  0  0  0  0  0  0
   13.1910   -0.9950   22.3330 C   0  0  0  0  0  0  0  0  0  0  0  0
    6.2760    2.9440   29.3290 C   0  0  0  0  0  0  0  0  0  0  0  0
   12.0900   -1.6830   22.8170 C   0  0  0  0  0  0  0  0  0  0  0  0
    5.3360    1.7690   29.6100 C   0  0  0  0  0  0  0  0  0  0  0  0
    7.4050    2.7730   28.5370 C   0  0  0  0  0  0  0  0  0  0  0  0
    5.6430    0.5350   29.0390 C   0  0  0  0  0  0  0  0  0  0  0  0
    7.7170    1.5480   27.9670 C   0  0  0  0  0  0  0  0  0  0  0  0
    6.8820    0.4260   28.1790 C   0  0  0  0  0  0  0  0  0  0  0  0
  1  2  2  0
  2  3  1  0
  2  4  1  0
  3  5  1  0
  4  6  1  0
  5  7  1  0
  5  8  1  0
  6  9  1  0
  7 10  2  0
  7 11  1  0
  8 12  1  0
 11 12  1  0
  8 13  2  0
  9 14  1  0
 12 15  2  3
 14 16  2  0
 14 17  1  0
 15 18  1  0
 16 19  1  0
 17 20  2  0
 19 20  1  0
 17 21  1  0
 18 22  2  3
 20 23  1  0
 21 24  2  0
 22 25  1  0
 23 26  2  0
 24 26  1  0
 25 27  2  0
 25 28  1  0
 27 29  1  0
 28 30  2  0
 29 31  2  0
 30 31  1  0
M  END
>  <Name>  (12) 
x0104-0A-x0354-0A_120

>  <original SMILES>  (12) 
O=C(CN1C(=O)SC(=CC=Cc2ccccc2)C1=O)NCCc1c[nH]c2ccccc12

>  <synthon>  (12) 
[Xe]c1ccccc1

>  <ref_pdb>  (12) 
p/x0104-0A-x0354-0A-120.holo_minimised.pdb

>  <ref_mols>  (12) 
x0104_0A,x0354_0A

>  <IFP_score>  (12) 
0.5773502691896257

>  <SuCOS_score>  (12) 
0.578396378479172

>  <AttchPnts_score>  (12) 
4

>  <Docking_score>  (12) 
-5.26147842

>  <LE_score>  (12) 
-0.16972511032258067

>  <EnergyRatio_score>  (12) 
2.248346699297982

>  <cmpd_id>  (12) 
['MOLPORT:000-849-860']

$$$$

     RDKit          3D

 24 25  0  0  0  0  0  0  0  0999 V2000
    7.9540   -1.5930   22.9520 C   0  0  0  0  0  0  0  0  0  0  0  0
    8.7250   -0.4540   22.9760 C   0  0  2  0  0  0  0  0  0  0  0  0
   10.0960   -0.7400   23.4220 N   0  0  0  0  0  0  0  0  0  0  0  0
    8.0080    0.6170   23.8220 C   0  0  2  0  0  0  0  0  0  0  0  0
   11.1160   -1.0100   22.3960 C   0  0  0  0  0  0  0  0  0  0  0  0
    8.4710    0.3910   25.1230 C   0  0  0  0  0  0  0  0  0  0  0  0
    6.5050    0.5110   23.7080 N   0  0  0  0  0  0  0  0  0  0  0  0
   10.8910   -1.7900   21.4930 O   0  0  0  0  0  0  0  0  0  0  0  0
   12.3920   -0.2810   22.6030 N   0  0  0  0  0  0  0  0  0  0  0  0
    5.7600    0.7980   24.9660 C   0  0  0  0  0  0  0  0  0  0  0  0
    5.8660    1.2040   22.5540 C   0  0  0  0  0  0  0  0  0  0  0  0
   12.1600    1.1220   22.9760 C   0  0  0  0  0  0  0  0  0  0  0  0
    4.2780    0.3750   24.8780 C   0  0  0  0  0  0  0  0  0  0  0  0
    4.5560    1.6110   22.8430 C   0  0  0  0  0  0  0  0  0  0  0  0
   10.8430    1.4220   23.6390 C   0  0  0  0  0  0  0  0  0  0  0  0
   13.0660    2.1440   22.7370 C   0  0  0  0  0  0  0  0  0  0  0  0
    3.7640    0.6610   23.5750 O   0  0  0  0  0  0  0  0  0  0  0  0
   10.5680    2.7290   23.9600 C   0  0  0  0  0  0  0  0  0  0  0  0
   12.7000    3.4480   23.0960 C   0  0  0  0  0  0  0  0  0  0  0  0
   11.4680    3.7440   23.6890 C   0  0  0  0  0  0  0  0  0  0  0  0
   11.0130    5.3970   24.1030 S   0  0  0  0  0  0  0  0  0  0  0  0
    9.7670    5.6740   23.0000 N   0  0  0  0  0  0  0  0  0  0  0  0
   12.0840    6.2690   23.6960 O   0  0  0  0  0  0  0  0  0  0  0  0
   10.4330    5.4130   25.4190 O   0  0  0  0  0  0  0  0  0  0  0  0
  2  1  1  1
  2  3  1  0
  2  4  1  0
  3  5  1  0
  4  6  1  1
  4  7  1  0
  5  8  2  0
  5  9  1  0
  7 10  1  0
  7 11  1  0
  9 12  1  0
 10 13  1  0
 11 14  1  0
 12 15  2  0
 12 16  1  0
 13 17  1  0
 14 17  1  0
 15 18  1  0
 16 19  2  0
 18 20  2  0
 19 20  1  0
 20 21  1  0
 21 22  1  0
 21 23  2  0
 21 24  2  0
M  END
>  <Name>  (13) 
x0946-0A-x1249-0A_12451

>  <original SMILES>  (13) 
CC(NC(=O)Nc1ccc(S(N)(=O)=O)cc1)C(C)N1CCOCC1

>  <synthon>  (13) 
[Xe]N1CCOCC1

>  <ref_pdb>  (13) 
p/x0946-0A-x1249-0A-12451.holo_minimised.pdb

>  <ref_mols>  (13) 
x0946_0A,x1249_0A

>  <IFP_score>  (13) 
0.5773502691896257

>  <SuCOS_score>  (13) 
0.5867799083828441

>  <AttchPnts_score>  (13) 
3

>  <Docking_score>  (13) 
-4.57249308

>  <LE_score>  (13) 
-0.190520545

>  <EnergyRatio_score>  (13) 
3.9832605853600587

>  <cmpd_id>  (13) 
['ENAMINE:Z1130420194']

$$$$

     RDKit          3D

 22 23  0  0  0  0  0  0  0  0999 V2000
    9.6180    5.2410   22.9910 N   0  0  0  0  0  0  0  0  0  0  0  0
   10.9760    5.1320   23.9770 S   0  0  0  0  0  0  0  0  0  0  0  0
   11.9560    6.0840   23.5090 O   0  0  0  0  0  0  0  0  0  0  0  0
   10.4410    5.2060   25.3160 O   0  0  0  0  0  0  0  0  0  0  0  0
   11.5640    3.4690   23.6320 C   0  0  0  0  0  0  0  0  0  0  0  0
   10.6370    2.3440   24.0090 C   0  0  0  0  0  0  0  0  0  0  0  0
   12.8030    3.1590   23.0520 C   0  0  0  0  0  0  0  0  0  0  0  0
   11.1300    0.9510   23.7180 C   0  0  0  0  0  0  0  0  0  0  0  0
   13.1840    1.8080   22.8170 C   0  0  0  0  0  0  0  0  0  0  0  0
   12.3550    0.6940   23.1420 C   0  0  0  0  0  0  0  0  0  0  0  0
   12.7330   -0.6540   22.9040 C   0  0  0  0  0  0  0  0  0  0  0  0
   12.3080   -1.5350   24.0600 C   0  0  0  0  0  0  0  0  0  0  0  0
   11.3520   -2.6310   23.7410 N   0  0  0  0  0  0  0  0  0  0  0  0
   10.1170   -2.7380   24.3640 C   0  0  0  0  0  0  0  0  0  0  0  0
    9.3090   -1.8350   24.2390 O   0  0  0  0  0  0  0  0  0  0  0  0
    9.8170   -3.8850   25.1590 N   0  0  0  0  0  0  0  0  0  0  0  0
    9.8860   -5.2340   24.6110 C   0  0  0  0  0  0  0  0  0  0  0  0
    9.0880   -3.8470   26.4360 C   0  0  0  0  0  0  0  0  0  0  0  0
    8.9190   -5.4530   23.6370 C   0  0  0  0  0  0  0  0  0  0  0  0
    7.6980   -4.5220   26.4260 C   0  0  0  0  0  0  0  0  0  0  0  0
    7.4860   -5.2550   24.1320 C   0  0  0  0  0  0  0  0  0  0  0  0
    7.4540   -5.5880   25.5090 O   0  0  0  0  0  0  0  0  0  0  0  0
  2  1  1  0
  2  3  2  0
  2  4  2  0
  2  5  1  0
  5  6  2  0
  5  7  1  0
  6  8  1  0
  7  9  2  0
  8 10  2  0
  9 10  1  0
 10 11  1  0
 11 12  1  0
 12 13  1  0
 13 14  1  0
 14 15  2  0
 14 16  1  0
 16 17  1  0
 16 18  1  0
 17 19  1  0
 18 20  1  0
 19 21  1  0
 20 22  1  0
 21 22  1  0
M  END
>  <Name>  (14) 
x0946-0A-x1077-0A_2014

>  <original SMILES>  (14) 
NS(=O)(=O)c1ccc(CCNC(=O)N2CCCOCC2)cc1

>  <synthon>  (14) 
[Xe]N1CCCOCC1

>  <ref_pdb>  (14) 
p/x0946-0A-x1077-0A-2014.holo_minimised.pdb

>  <ref_mols>  (14) 
x0946_0A,x1077_0A

>  <IFP_score>  (14) 
0.5

>  <SuCOS_score>  (14) 
0.6505046619323637

>  <AttchPnts_score>  (14) 
2

>  <Docking_score>  (14) 
-5.94534636

>  <LE_score>  (14) 
-0.2702430163636364

>  <EnergyRatio_score>  (14) 
3.4995312718314397

>  <cmpd_id>  (14) 
['ENAMINE:Z944026838']

$$$$

     RDKit          3D

 25 26  0  0  0  0  0  0  0  0999 V2000
    9.6570   -2.1150   22.4330 C   0  0  0  0  0  0  0  0  0  0  0  0
    9.5900   -1.7560   23.7910 C   0  0  0  0  0  0  0  0  0  0  0  0
    8.7330   -0.7240   24.1690 C   0  0  0  0  0  0  0  0  0  0  0  0
   11.0450   -1.3130   24.1790 C   0  0  0  0  0  0  0  0  0  0  0  0
    9.2760   -2.9950   24.5620 N   0  0  0  0  0  0  0  0  0  0  0  0
   12.1010   -2.2980   24.0220 N   0  0  0  0  0  0  0  0  0  0  0  0
    8.0730   -2.9710   25.4020 C   0  0  0  0  0  0  0  0  0  0  0  0
   10.4430   -3.5730   25.2370 C   0  0  0  0  0  0  0  0  0  0  0  0
   13.3030   -2.1010   24.6210 C   0  0  0  0  0  0  0  0  0  0  0  0
    7.7070   -4.2160   25.8480 C   0  0  0  0  0  0  0  0  0  0  0  0
   10.1550   -4.7950   26.0950 C   0  0  0  0  0  0  0  0  0  0  0  0
   14.0250   -2.9560   25.1230 O   0  0  0  0  0  0  0  0  0  0  0  0
   13.5580   -0.7640   24.5660 N   0  0  0  0  0  0  0  0  0  0  0  0
    8.7750   -4.8360   26.7240 C   0  0  0  0  0  0  0  0  0  0  0  0
   13.3540   -0.0360   23.3240 C   0  0  0  0  0  0  0  0  0  0  0  0
   12.6450    1.1600   23.4890 C   0  0  0  0  0  0  0  0  0  0  0  0
   13.1900    2.3030   22.9250 C   0  0  0  0  0  0  0  0  0  0  0  0
   11.4260    1.2240   24.1960 C   0  0  0  0  0  0  0  0  0  0  0  0
   12.5150    3.6640   23.0340 C   0  0  0  0  0  0  0  0  0  0  0  0
   10.6740    2.5390   24.3580 C   0  0  0  0  0  0  0  0  0  0  0  0
   11.2320    3.6800   23.7870 C   0  0  0  0  0  0  0  0  0  0  0  0
   10.4090    5.2380   23.9520 S   0  0  0  0  0  0  0  0  0  0  0  0
    9.1160    5.0860   22.8870 N   0  0  0  0  0  0  0  0  0  0  0  0
   11.2980    6.2430   23.4340 O   0  0  0  0  0  0  0  0  0  0  0  0
    9.8550    5.3170   25.2830 O   0  0  0  0  0  0  0  0  0  0  0  0
  2  1  1  0
  2  3  1  0
  2  4  1  0
  2  5  1  0
  4  6  1  0
  5  7  1  0
  5  8  1  0
  6  9  1  0
  7 10  1  0
  8 11  1  0
  9 12  2  0
  9 13  1  0
 10 14  1  0
 11 14  1  0
 13 15  1  0
 15 16  1  0
 16 17  2  0
 16 18  1  0
 17 19  1  0
 18 20  2  0
 19 21  2  0
 20 21  1  0
 21 22  1  0
 22 23  1  0
 22 24  2  0
 22 25  2  0
M  END
>  <Name>  (15) 
x0161-0A-x0387-0A_1001

>  <original SMILES>  (15) 
CC(C)(CNC(=O)NCc1ccc(S(N)(=O)=O)cc1)N1CCCCC1

>  <synthon>  (15) 
[Xe]N1CCCCC1

>  <ref_pdb>  (15) 
p/x0161-0A-x0387-0A-1001.holo_minimised.pdb

>  <ref_mols>  (15) 
x0161_0A,x0387_0A

>  <IFP_score>  (15) 
0.7071067811865476

>  <SuCOS_score>  (15) 
0.6577828454481113

>  <AttchPnts_score>  (15) 
3

>  <Docking_score>  (15) 
-6.78707886

>  <LE_score>  (15) 
-0.27148315440000004

>  <EnergyRatio_score>  (15) 
4.426985191099249

>  <cmpd_id>  (15) 
['ENAMINE:Z212163202', 'MOLPORT:005-721-798']

$$$$

     RDKit          3D

 21 22  0  0  0  0  0  0  0  0999 V2000
    9.1470    5.1080   22.9010 N   0  0  0  0  0  0  0  0  0  0  0  0
   10.4250    5.2310   23.9850 S   0  0  0  0  0  0  0  0  0  0  0  0
    9.8300    5.3270   25.2950 O   0  0  0  0  0  0  0  0  0  0  0  0
   11.3250    6.2380   23.4860 O   0  0  0  0  0  0  0  0  0  0  0  0
   11.2260    3.6660   23.8190 C   0  0  0  0  0  0  0  0  0  0  0  0
   12.5350    3.5950   23.0740 C   0  0  0  0  0  0  0  0  0  0  0  0
   10.6890    2.5030   24.3580 C   0  0  0  0  0  0  0  0  0  0  0  0
   13.2460    2.2420   22.9240 C   0  0  0  0  0  0  0  0  0  0  0  0
   11.3850    1.1580   24.2150 C   0  0  0  0  0  0  0  0  0  0  0  0
   12.6080    1.0220   23.5260 C   0  0  0  0  0  0  0  0  0  0  0  0
   13.2150   -0.2740   23.4130 C   0  0  0  0  0  0  0  0  0  0  0  0
   12.4030   -1.2840   24.0920 N   0  0  0  0  0  0  0  0  0  0  0  0
   11.0540   -1.3100   23.4950 C   0  0  0  0  0  0  0  0  0  0  0  0
   10.8990   -1.2620   22.2820 O   0  0  0  0  0  0  0  0  0  0  0  0
    9.9720   -1.3690   24.3800 C   0  0  0  0  0  0  0  0  0  0  0  0
    9.6140   -2.7500   24.6570 N   0  0  0  0  0  0  0  0  0  0  0  0
   10.6700   -3.4370   25.4110 C   0  0  0  0  0  0  0  0  0  0  0  0
    8.3080   -2.8210   25.3240 C   0  0  0  0  0  0  0  0  0  0  0  0
   10.2360   -4.7600   26.0390 C   0  0  0  0  0  0  0  0  0  0  0  0
    7.9120   -4.2570   25.6530 C   0  0  0  0  0  0  0  0  0  0  0  0
    8.8210   -4.7320   26.5960 C   0  0  0  0  0  0  0  0  0  0  0  0
  2  1  1  0
  2  3  2  0
  2  4  2  0
  2  5  1  0
  5  6  2  0
  5  7  1  0
  6  8  1  0
  7  9  2  0
  8 10  2  0
  9 10  1  0
 10 11  1  0
 11 12  1  0
 12 13  1  0
 13 14  2  0
 13 15  1  0
 15 16  1  0
 16 17  1  0
 16 18  1  0
 17 19  1  0
 18 20  1  0
 19 21  1  0
 20 21  1  0
M  END
>  <Name>  (16) 
x0161-0A-x0387-0A_972

>  <original SMILES>  (16) 
NS(=O)(=O)c1ccc(CNC(=O)CN2CCCCC2)cc1

>  <synthon>  (16) 
[Xe]N1CCCCC1

>  <ref_pdb>  (16) 
p/x0161-0A-x0387-0A-972.holo_minimised.pdb

>  <ref_mols>  (16) 
x0161_0A,x0387_0A

>  <IFP_score>  (16) 
0.7071067811865476

>  <SuCOS_score>  (16) 
0.6516001818377185

>  <AttchPnts_score>  (16) 
3

>  <Docking_score>  (16) 
-5.52591801

>  <LE_score>  (16) 
-0.26313895285714284

>  <EnergyRatio_score>  (16) 
3.564846824028277

>  <cmpd_id>  (16) 
['MOLPORT:005-772-782']

$$$$

     RDKit          3D

 23 24  0  0  0  0  0  0  0  0999 V2000
    9.1760    5.0940   22.8740 N   0  0  0  0  0  0  0  0  0  0  0  0
   10.4760    5.2300   23.9350 S   0  0  0  0  0  0  0  0  0  0  0  0
    9.9080    5.3120   25.2610 O   0  0  0  0  0  0  0  0  0  0  0  0
   11.3670    6.2360   23.4280 O   0  0  0  0  0  0  0  0  0  0  0  0
   11.2850    3.6640   23.7550 C   0  0  0  0  0  0  0  0  0  0  0  0
   10.7090    2.5100   24.2820 C   0  0  0  0  0  0  0  0  0  0  0  0
   12.5050    3.6120   23.0860 C   0  0  0  0  0  0  0  0  0  0  0  0
   11.3710    1.2960   24.1380 C   0  0  0  0  0  0  0  0  0  0  0  0
   13.1580    2.3900   22.9490 C   0  0  0  0  0  0  0  0  0  0  0  0
   12.6000    1.2340   23.4720 C   0  0  0  0  0  0  0  0  0  0  0  0
   13.2900    0.0360   23.3180 C   0  0  0  0  0  0  0  0  0  0  0  0
   13.9900   -0.1600   22.3410 O   0  0  0  0  0  0  0  0  0  0  0  0
   13.0950   -0.8570   24.3320 N   0  0  0  0  0  0  0  0  0  0  0  0
   11.7430   -1.1420   24.7120 C   0  0  0  0  0  0  0  0  0  0  0  0
   10.9650   -1.5420   23.6100 C   0  0  0  0  0  0  0  0  0  0  0  0
    9.6260   -1.7370   23.9260 C   0  0  0  0  0  0  0  0  0  0  0  0
    8.7310   -1.0060   23.4980 O   0  0  0  0  0  0  0  0  0  0  0  0
    9.3770   -2.8170   24.7590 N   0  0  0  0  0  0  0  0  0  0  0  0
   10.5410   -3.5670   25.2150 C   0  0  0  0  0  0  0  0  0  0  0  0
    8.1420   -2.9880   25.5150 C   0  0  0  0  0  0  0  0  0  0  0  0
   10.1840   -4.7480   26.0540 C   0  0  0  0  0  0  0  0  0  0  0  0
    7.8640   -4.3430   25.7130 C   0  0  0  0  0  0  0  0  0  0  0  0
    8.9060   -4.9420   26.6530 C   0  0  0  0  0  0  0  0  0  0  0  0
  2  1  1  0
  2  3  2  0
  2  4  2  0
  2  5  1  0
  5  6  2  0
  5  7  1  0
  6  8  1  0
  7  9  2  0
  8 10  2  0
  9 10  1  0
 10 11  1  0
 11 12  2  0
 11 13  1  0
 13 14  1  0
 14 15  1  0
 15 16  1  0
 16 17  2  0
 16 18  1  0
 18 19  1  0
 18 20  1  0
 19 21  1  0
 20 22  1  0
 21 23  1  0
 22 23  1  0
M  END
>  <Name>  (17) 
x0161-0A-x0387-0A_889

>  <original SMILES>  (17) 
NS(=O)(=O)c1ccc(C(=O)NCCC(=O)N2CCCCC2)cc1

>  <synthon>  (17) 
[Xe]N1CCCCC1

>  <ref_pdb>  (17) 
p/x0161-0A-x0387-0A-889.holo_minimised.pdb

>  <ref_mols>  (17) 
x0161_0A,x0387_0A

>  <IFP_score>  (17) 
0.7071067811865476

>  <SuCOS_score>  (17) 
0.6702046920334014

>  <AttchPnts_score>  (17) 
3

>  <Docking_score>  (17) 
-6.42210674

>  <LE_score>  (17) 
-0.27922203217391306

>  <EnergyRatio_score>  (17) 
3.9925474121582822

>  <cmpd_id>  (17) 
['ENAMINE:Z1982739918']

$$$$

     RDKit          3D

 19 20  0  0  0  0  0  0  0  0999 V2000
    9.8150   -5.8600   24.7590 N   0  0  0  0  0  0  0  0  0  0  0  0
    8.8320   -5.1160   25.1080 C   0  0  0  0  0  0  0  0  0  0  0  0
    8.4970   -5.1030   26.4260 N   0  0  0  0  0  0  0  0  0  0  0  0
    8.0550   -4.2810   24.0630 C   0  0  0  0  0  0  0  0  0  0  0  0
    8.5960   -2.8430   23.7350 C   0  0  0  0  0  0  0  0  0  0  0  0
    7.5440   -1.7700   23.6310 N   0  0  0  0  0  0  0  0  0  0  0  0
    7.4480   -1.1130   22.2970 C   0  0  0  0  0  0  0  0  0  0  0  0
    7.6470   -0.7360   24.7130 C   0  0  0  0  0  0  0  0  0  0  0  0
    8.7240   -0.4220   21.7600 C   0  0  0  0  0  0  0  0  0  0  0  0
    7.6380    0.7330   24.2030 C   0  0  0  0  0  0  0  0  0  0  0  0
    9.0640    1.0190   22.1990 C   0  0  0  0  0  0  0  0  0  0  0  0
    8.8420    1.2120   23.6320 N   0  0  0  0  0  0  0  0  0  0  0  0
   10.0260    1.0850   24.4630 C   0  0  0  0  0  0  0  0  0  0  0  0
   11.1090    0.4150   23.6860 C   0  0  0  0  0  0  0  0  0  0  0  0
   10.8350   -0.8380   23.1340 C   0  0  0  0  0  0  0  0  0  0  0  0
   12.3630    0.9890   23.4890 C   0  0  0  0  0  0  0  0  0  0  0  0
   11.7860   -1.5150   22.3870 C   0  0  0  0  0  0  0  0  0  0  0  0
   13.3230    0.3120   22.7440 C   0  0  0  0  0  0  0  0  0  0  0  0
   13.0330   -0.9350   22.1910 C   0  0  0  0  0  0  0  0  0  0  0  0
  1  2  2  3
  2  3  1  0
  2  4  1  0
  4  5  1  0
  5  6  1  0
  6  7  1  0
  6  8  1  0
  7  9  1  0
  8 10  1  0
  9 11  1  0
 10 12  1  0
 11 12  1  0
 12 13  1  0
 13 14  1  0
 14 15  2  0
 14 16  1  0
 15 17  1  0
 16 18  2  0
 17 19  2  0
 18 19  1  0
M  END
>  <Name>  (18) 
x0991-0A-x1249-0A_115

>  <original SMILES>  (18) 
N=C(N)CCN1CCCN(Cc2ccccc2)CC1

>  <synthon>  (18) 
[Xe]c1ccccc1

>  <ref_pdb>  (18) 
p/x0991-0A-x1249-0A-115.holo_minimised.pdb

>  <ref_mols>  (18) 
x0991_0A,x1249_0A

>  <IFP_score>  (18) 
0.5773502691896257

>  <SuCOS_score>  (18) 
0.5647709736007069

>  <AttchPnts_score>  (18) 
2

>  <Docking_score>  (18) 
-5.34947205

>  <LE_score>  (18) 
-0.2815511605263158

>  <EnergyRatio_score>  (18) 
2.6903448393578344

>  <cmpd_id>  (18) 
['CHEMSPACE-BB:CSMB00016887950']

$$$$

     RDKit          3D

 19 20  0  0  0  0  0  0  0  0999 V2000
    2.8880    1.6350   24.1660 C   0  0  0  0  0  0  0  0  0  0  0  0
    3.6370    2.3630   23.1500 N   0  0  0  0  0  0  0  0  0  0  0  0
    4.7690    1.6780   22.4940 C   0  0  1  0  0  0  0  0  0  0  0  0
    5.4080    0.7140   23.2950 C   0  0  0  0  0  0  0  0  0  0  0  0
    4.2130    1.0210   21.2340 C   0  0  0  0  0  0  0  0  0  0  0  0
    6.5990    0.4460   23.2070 O   0  0  0  0  0  0  0  0  0  0  0  0
    4.9730    0.7380   20.1060 C   0  0  0  0  0  0  0  0  0  0  0  0
    6.9250   -0.8170   23.6620 C   0  0  0  0  0  0  0  0  0  0  0  0
    4.6720    1.6530   18.9400 C   0  0  0  0  0  0  0  0  0  0  0  0
    5.9020   -0.2530   20.0120 N   0  0  0  0  0  0  0  0  0  0  0  0
    8.1430   -1.3610   23.2810 C   0  0  0  0  0  0  0  0  0  0  0  0
    5.4960    1.3440   17.7050 C   0  0  0  0  0  0  0  0  0  0  0  0
    6.5780   -0.4260   18.8400 C   0  0  0  0  0  0  0  0  0  0  0  0
    8.6440   -2.4300   23.9550 C   0  0  0  0  0  0  0  0  0  0  0  0
    8.8780   -0.8520   22.2280 C   0  0  0  0  0  0  0  0  0  0  0  0
    6.4770    0.2610   17.6830 N   0  0  0  0  0  0  0  0  0  0  0  0
    9.8660   -2.9660   23.5630 C   0  0  0  0  0  0  0  0  0  0  0  0
   10.0900   -1.3690   21.8240 C   0  0  0  0  0  0  0  0  0  0  0  0
   10.6290   -2.4640   22.4960 C   0  0  0  0  0  0  0  0  0  0  0  0
  1  2  1  0
  2  3  1  0
  3  4  1  1
  3  5  1  0
  4  6  1  0
  5  7  1  0
  6  8  1  0
  7  9  2  0
  7 10  1  0
  8 11  1  0
  9 12  1  0
 10 13  2  0
 11 14  2  0
 11 15  1  0
 12 16  2  0
 13 16  1  0
 14 17  1  0
 15 18  2  0
 17 19  2  0
 18 19  1  0
M  END
>  <Name>  (19) 
x0995-0A-x0426-0A_3532

>  <original SMILES>  (19) 
CNC(COCc1ccccc1)Cc1ccncn1

>  <synthon>  (19) 
[Xe]c1ccccc1

>  <ref_pdb>  (19) 
p/x0995-0A-x0426-0A-3532.holo_minimised.pdb

>  <ref_mols>  (19) 
x0995_0A,x0426_0A

>  <IFP_score>  (19) 
0.5773502691896257

>  <SuCOS_score>  (19) 
0.5596435105948433

>  <AttchPnts_score>  (19) 
1

>  <Docking_score>  (19) 
-4.24374485

>  <LE_score>  (19) 
-0.22335499210526313

>  <EnergyRatio_score>  (19) 
4.579086985773439

>  <cmpd_id>  (19) 
['CHEMSPACE-BB:CSMB00121466854']

$$$$

     RDKit          3D

 21 22  0  0  0  0  0  0  0  0999 V2000
    9.8660    1.4380   21.4720 N   0  0  0  0  0  0  0  0  0  0  0  0
    9.7580    0.4650   22.0800 C   0  0  0  0  0  0  0  0  0  0  0  0
    9.6270   -0.6810   22.9190 C   0  0  0  0  0  0  0  0  0  0  0  0
   10.2420   -1.7920   22.4470 N   0  0  0  0  0  0  0  0  0  0  0  0
    8.9190   -0.6280   24.1220 C   0  0  0  0  0  0  0  0  0  0  0  0
   10.1530   -2.8960   23.2010 C   0  0  0  0  0  0  0  0  0  0  0  0
    8.8590   -1.8120   24.8700 C   0  0  0  0  0  0  0  0  0  0  0  0
    8.2300    0.6190   24.6430 C   0  0  0  0  0  0  0  0  0  0  0  0
    9.4840   -2.9610   24.4020 C   0  0  0  0  0  0  0  0  0  0  0  0
    7.5760    1.3520   23.6000 O   0  0  0  0  0  0  0  0  0  0  0  0
    7.3790    2.7460   23.8720 C   0  0  0  0  0  0  0  0  0  0  0  0
    7.7330    3.6730   22.6780 C   0  0  0  0  0  0  0  0  0  0  0  0
    8.4270    5.0680   23.0020 C   0  0  0  0  0  0  0  0  0  0  0  0
    9.4670    4.9670   24.0250 N   0  0  0  0  0  0  0  0  0  0  0  0
   10.8120    4.9500   23.8010 C   0  0  0  0  0  0  0  0  0  0  0  0
   11.4010    3.6640   23.6040 C   0  0  0  0  0  0  0  0  0  0  0  0
   10.8270    2.4810   24.0960 C   0  0  0  0  0  0  0  0  0  0  0  0
   12.6030    3.5350   22.9000 C   0  0  0  0  0  0  0  0  0  0  0  0
   11.4350    1.2310   23.8860 C   0  0  0  0  0  0  0  0  0  0  0  0
   13.2070    2.2890   22.6920 C   0  0  0  0  0  0  0  0  0  0  0  0
   12.6350    1.1280   23.1760 C   0  0  0  0  0  0  0  0  0  0  0  0
  1  2  3  0
  2  3  1  0
  3  4  2  0
  3  5  1  0
  4  6  1  0
  5  7  2  0
  5  8  1  0
  6  9  2  0
  7  9  1  0
  8 10  1  0
 10 11  1  0
 11 12  1  0
 12 13  1  0
 13 14  1  0
 14 15  1  0
 15 16  1  0
 16 17  2  0
 16 18  1  0
 17 19  1  0
 18 20  2  0
 19 21  2  0
 20 21  1  0
M  END
>  <Name>  (20) 
x1077-0A-x0946-0A_671

>  <original SMILES>  (20) 
N#Cc1ncccc1COCCCNCc1ccccc1

>  <synthon>  (20) 
[Xe]c1ccccc1

>  <ref_pdb>  (20) 
p/x1077-0A-x0946-0A-671.holo_minimised.pdb

>  <ref_mols>  (20) 
x1077_0A,x0946_0A

>  <IFP_score>  (20) 
0.7071067811865476

>  <SuCOS_score>  (20) 
0.5773741669776118

>  <AttchPnts_score>  (20) 
1

>  <Docking_score>  (20) 
-4.77134037

>  <LE_score>  (20) 
-0.22720668428571428

>  <EnergyRatio_score>  (20) 
3.4389596716071784

>  <cmpd_id>  (20) 
['CHEMSPACE-BB:CSMB00013739584']

$$$$

     RDKit          3D

 21 22  0  0  0  0  0  0  0  0999 V2000
   -0.4880    4.0670   20.6100 C   0  0  0  0  0  0  0  0  0  0  0  0
    0.4170    4.4720   21.6810 N   0  0  0  0  0  0  0  0  0  0  0  0
    1.8340    4.1250   21.4470 C   0  0  0  0  0  0  0  0  0  0  0  0
    0.1180    5.5450   22.5510 C   0  0  0  0  0  0  0  0  0  0  0  0
    2.0830    2.6200   21.3080 C   0  0  0  0  0  0  0  0  0  0  0  0
    0.1990    6.7130   22.1670 O   0  0  0  0  0  0  0  0  0  0  0  0
   -0.3130    5.2380   24.0010 C   0  0  0  0  0  0  0  0  0  0  0  0
    2.9110    2.2580   20.1590 N   0  0  0  0  0  0  0  0  0  0  0  0
    0.5320    4.4080   24.7160 C   0  0  0  0  0  0  0  0  0  0  0  0
   -1.7120    4.6000   24.0250 C   0  0  0  0  0  0  0  0  0  0  0  0
    4.2820    2.2040   20.2890 C   0  0  0  0  0  0  0  0  0  0  0  0
    0.6200    3.0790   24.1020 C   0  0  0  0  0  0  0  0  0  0  0  0
   -1.6730    3.2100   24.0060 C   0  0  0  0  0  0  0  0  0  0  0  0
    4.8900    2.9530   21.0500 O   0  0  0  0  0  0  0  0  0  0  0  0
    5.0170    1.2630   19.5570 C   0  0  0  0  0  0  0  0  0  0  0  0
   -0.5260    2.6640   23.4410 C   0  0  0  0  0  0  0  0  0  0  0  0
    5.5510    0.1840   20.2400 C   0  0  0  0  0  0  0  0  0  0  0  0
    5.2670    1.3140   18.2050 C   0  0  0  0  0  0  0  0  0  0  0  0
    6.2690   -0.7560   19.6190 N   0  0  0  0  0  0  0  0  0  0  0  0
    5.9860    0.3910   17.5540 N   0  0  0  0  0  0  0  0  0  0  0  0
    6.4550   -0.6060   18.2980 C   0  0  0  0  0  0  0  0  0  0  0  0
  1  2  1  0
  2  3  1  0
  2  4  1  0
  3  5  1  0
  4  6  2  0
  4  7  1  0
  5  8  1  0
  7  9  1  0
  7 10  1  0
  8 11  1  0
  9 12  1  0
 10 13  1  0
 11 14  2  0
 11 15  1  0
 12 16  1  0
 13 16  1  0
 15 17  2  0
 15 18  1  0
 17 19  1  0
 18 20  2  0
 19 21  2  0
 20 21  1  0
M  END
>  <Name>  (21) 
x0995-0A-x0540-0A_3798

>  <original SMILES>  (21) 
CN(CCNC(=O)c1cncnc1)C(=O)C1CCCCC1

>  <synthon>  (21) 
[Xe]C1CCCCC1

>  <ref_pdb>  (21) 
p/x0995-0A-x0540-0A-3798.holo_minimised.pdb

>  <ref_mols>  (21) 
x0995_0A,x0540_0A

>  <IFP_score>  (21) 
0.6666666666666666

>  <SuCOS_score>  (21) 
0.6319095635924019

>  <AttchPnts_score>  (21) 
2

>  <Docking_score>  (21) 
-3.61969566

>  <LE_score>  (21) 
-0.17236646

>  <EnergyRatio_score>  (21) 
3.7744193658378817

>  <cmpd_id>  (21) 
['ENAMINE:PV-001433866870']

$$$$

     RDKit          3D

 21 22  0  0  0  0  0  0  0  0999 V2000
    5.2950    3.9380   21.5110 C   0  0  0  0  0  0  0  0  0  0  0  0
    4.3250    3.0210   22.1940 C   0  0  1  0  0  0  0  0  0  0  0  0
    3.4200    3.7050   23.1970 C   0  0  0  0  0  0  0  0  0  0  0  0
    3.6180    2.2140   21.3530 N   0  0  0  0  0  0  0  0  0  0  0  0
    2.4670    4.5510   22.7280 N   0  0  0  0  0  0  0  0  0  0  0  0
    3.8050    2.1190   19.9600 C   0  0  0  0  0  0  0  0  0  0  0  0
    1.6550    5.1450   23.6400 C   0  0  0  0  0  0  0  0  0  0  0  0
    3.1210    2.7600   19.1740 O   0  0  0  0  0  0  0  0  0  0  0  0
    4.7950    1.2390   19.5460 C   0  0  0  0  0  0  0  0  0  0  0  0
    1.5660    6.3660   23.7150 O   0  0  0  0  0  0  0  0  0  0  0  0
    0.9040    4.3840   24.5220 C   0  0  0  0  0  0  0  0  0  0  0  0
    5.3410    1.2910   18.1880 C   0  0  0  0  0  0  0  0  0  0  0  0
    5.3550    0.2530   20.3130 C   0  0  0  0  0  0  0  0  0  0  0  0
    0.6610    2.9620   24.0310 C   0  0  0  0  0  0  0  0  0  0  0  0
   -0.4520    5.0120   24.9190 C   0  0  0  0  0  0  0  0  0  0  0  0
    6.3030    0.4810   17.6870 N   0  0  0  0  0  0  0  0  0  0  0  0
    6.3220   -0.5850   19.8620 N   0  0  0  0  0  0  0  0  0  0  0  0
   -0.6190    2.7070   23.3500 C   0  0  0  0  0  0  0  0  0  0  0  0
   -1.4990    4.7830   24.0230 C   0  0  0  0  0  0  0  0  0  0  0  0
    6.7440   -0.4250   18.5770 C   0  0  0  0  0  0  0  0  0  0  0  0
   -1.7020    3.4130   23.8780 C   0  0  0  0  0  0  0  0  0  0  0  0
  2  1  1  6
  2  3  1  0
  2  4  1  0
  3  5  1  0
  4  6  1  0
  5  7  1  0
  6  8  2  0
  6  9  1  0
  7 10  2  0
  7 11  1  0
  9 12  2  0
  9 13  1  0
 11 14  1  0
 11 15  1  0
 12 16  1  0
 13 17  2  0
 14 18  1  0
 15 19  1  0
 16 20  2  0
 17 20  1  0
 18 21  1  0
 19 21  1  0
M  END
>  <Name>  (22) 
x0995-0A-x0540-0A_3555

>  <original SMILES>  (22) 
CC(CNC(=O)C1CCCCC1)NC(=O)c1cncnc1

>  <synthon>  (22) 
[Xe]C1CCCCC1

>  <ref_pdb>  (22) 
p/x0995-0A-x0540-0A-3555.holo_minimised.pdb

>  <ref_mols>  (22) 
x0995_0A,x0540_0A

>  <IFP_score>  (22) 
0.816496580927726

>  <SuCOS_score>  (22) 
0.6676134555793158

>  <AttchPnts_score>  (22) 
3

>  <Docking_score>  (22) 
-4.11688662

>  <LE_score>  (22) 
-0.19604222

>  <EnergyRatio_score>  (22) 
4.0529577602695435

>  <cmpd_id>  (22) 
['ENAMINE:PV-001407051967', 'ENAMINE:PV-001622096253', 'ENAMINE:PV-001630795856']

$$$$

     RDKit          3D

 26 27  0  0  0  0  0  0  0  0999 V2000
   10.6270   -5.0550   25.1240 C   0  0  0  0  0  0  0  0  0  0  0  0
   10.2470   -3.8540   25.7470 N   0  0  0  0  0  0  0  0  0  0  0  0
   11.3080   -2.8420   25.9660 C   0  0  0  0  0  0  0  0  0  0  0  0
    8.6630   -3.4050   25.4330 S   0  0  0  0  0  0  0  0  0  0  0  0
   12.4060   -2.4770   24.9130 C   0  0  0  0  0  0  0  0  0  0  0  0
    8.0660   -2.7620   26.5800 O   0  0  0  0  0  0  0  0  0  0  0  0
    7.9910   -4.4960   24.7590 O   0  0  0  0  0  0  0  0  0  0  0  0
    9.0560   -2.2110   24.2560 C   0  0  0  0  0  0  0  0  0  0  0  0
   13.5680   -3.2910   25.0650 O   0  0  0  0  0  0  0  0  0  0  0  0
   12.2040   -1.4260   24.0090 N   0  0  0  0  0  0  0  0  0  0  0  0
    8.7300   -0.9020   24.5150 C   0  0  0  0  0  0  0  0  0  0  0  0
    9.6980   -2.5670   23.0730 C   0  0  0  0  0  0  0  0  0  0  0  0
   13.1290   -0.4490   23.7690 C   0  0  0  0  0  0  0  0  0  0  0  0
    9.0570    0.0430   23.5690 C   0  0  0  0  0  0  0  0  0  0  0  0
   10.0250   -1.6540   22.1410 N   0  0  0  0  0  0  0  0  0  0  0  0
   12.5310    0.8370   23.7550 C   0  0  0  0  0  0  0  0  0  0  0  0
    9.6950   -0.3720   22.4130 C   0  0  0  0  0  0  0  0  0  0  0  0
   13.1100    1.8720   23.0230 C   0  0  0  0  0  0  0  0  0  0  0  0
   11.3550    1.0770   24.4870 C   0  0  0  0  0  0  0  0  0  0  0  0
   12.5400    3.1540   23.0110 C   0  0  0  0  0  0  0  0  0  0  0  0
   10.7400    2.3390   24.5130 C   0  0  0  0  0  0  0  0  0  0  0  0
   11.2600    3.4400   23.8150 C   0  0  0  0  0  0  0  0  0  0  0  0
   10.4920    5.0530   23.8760 S   0  0  0  0  0  0  0  0  0  0  0  0
    9.1570    4.8860   22.8580 N   0  0  0  0  0  0  0  0  0  0  0  0
   11.3980    6.0220   23.3090 O   0  0  0  0  0  0  0  0  0  0  0  0
    9.9530    5.2450   25.2070 O   0  0  0  0  0  0  0  0  0  0  0  0
  1  2  1  0
  2  3  1  0
  4  2  1  0
  3  5  1  0
  4  6  2  0
  4  7  2  0
  4  8  1  0
  5  9  2  0
  5 10  1  0
  8 11  2  0
  8 12  1  0
 10 13  1  0
 11 14  1  0
 12 15  2  0
 13 16  1  0
 14 17  2  0
 15 17  1  0
 16 18  2  0
 16 19  1  0
 18 20  1  0
 19 21  2  0
 20 22  2  0
 21 22  1  0
 22 23  1  0
 23 24  1  0
 23 25  2  0
 23 26  2  0
M  END
>  <Name>  (23) 
x0161-0A-x1077-0A_364

>  <original SMILES>  (23) 
CN(CC(=O)NCc1ccc(S(N)(=O)=O)cc1)S(=O)(=O)c1cccnc1

>  <synthon>  (23) 
[Xe]c1cccnc1

>  <ref_pdb>  (23) 
p/x0161-0A-x1077-0A-364.holo_minimised.pdb

>  <ref_mols>  (23) 
x0161_0A,x1077_0A

>  <IFP_score>  (23) 
0.5773502691896257

>  <SuCOS_score>  (23) 
0.6659529340151881

>  <AttchPnts_score>  (23) 
3

>  <Docking_score>  (23) 
-5.8067131

>  <LE_score>  (23) 
-0.2233351192307692

>  <EnergyRatio_score>  (23) 
4.528988463594044

>  <cmpd_id>  (23) 
['ENAMINE:Z454445576']

$$$$

     RDKit          3D

 25 27  0  0  0  0  0  0  0  0999 V2000
    4.1660    2.0210   19.4680 C   0  0  0  0  0  0  0  0  0  0  0  0
    5.1870    1.0400   19.0800 C   0  0  0  0  0  0  0  0  0  0  0  0
    5.7050   -0.0780   19.6760 C   0  0  0  0  0  0  0  0  0  0  0  0
    5.7890    1.2230   17.8810 O   0  0  0  0  0  0  0  0  0  0  0  0
    6.6590   -0.5780   18.7760 C   0  0  0  0  0  0  0  0  0  0  0  0
    6.7060    0.2160   17.6930 N   0  0  0  0  0  0  0  0  0  0  0  0
    7.5020   -1.7970   18.9700 C   0  0  0  0  0  0  0  0  0  0  0  0
    8.0500   -2.2990   18.0100 O   0  0  0  0  0  0  0  0  0  0  0  0
    7.6430   -2.3530   20.2650 N   0  0  0  0  0  0  0  0  0  0  0  0
    6.6190   -3.2640   20.8050 C   0  0  0  0  0  0  0  0  0  0  0  0
    7.0470   -4.4500   21.7760 C   0  0  2  0  0  0  0  0  0  0  0  0
    5.8300   -4.7850   22.5920 C   0  0  0  0  0  0  0  0  0  0  0  0
    8.1030   -4.2070   22.7950 N   0  0  0  0  0  0  0  0  0  0  0  0
    5.2790   -5.9860   22.0790 O   0  0  0  0  0  0  0  0  0  0  0  0
    8.8960   -5.2790   23.2400 C   0  0  0  0  0  0  0  0  0  0  0  0
    9.2150   -6.2020   22.5110 O   0  0  0  0  0  0  0  0  0  0  0  0
    9.3910   -5.2760   24.6830 C   0  0  2  0  0  0  0  0  0  0  0  0
    8.8310   -4.6320   25.6930 C   0  0  0  0  0  0  0  0  0  0  0  0
    9.8430   -3.8630   25.3910 C   0  0  2  0  0  0  0  0  0  0  0  0
    9.7870   -2.6440   24.5690 C   0  0  0  0  0  0  0  0  0  0  0  0
    9.2480   -1.4430   25.0150 C   0  0  0  0  0  0  0  0  0  0  0  0
   10.2990   -2.6810   23.2810 C   0  0  0  0  0  0  0  0  0  0  0  0
    9.2490   -0.3400   24.1590 C   0  0  0  0  0  0  0  0  0  0  0  0
   10.3160   -1.6350   22.4240 N   0  0  0  0  0  0  0  0  0  0  0  0
    9.7900   -0.4820   22.8810 C   0  0  0  0  0  0  0  0  0  0  0  0
  1  2  1  0
  2  3  2  0
  2  4  1  0
  3  5  1  0
  4  6  1  0
  5  6  2  0
  5  7  1  0
  7  8  2  0
  7  9  1  0
  9 10  1  0
 11 10  1  1
 11 12  1  0
 11 13  1  0
 12 14  1  0
 13 15  1  0
 15 16  2  0
 17 15  1  6
 17 18  1  0
 17 19  1  0
 19 18  1  1
 19 20  1  0
 20 21  2  0
 20 22  1  0
 21 23  1  0
 22 24  2  0
 23 25  2  0
 24 25  1  0
M  END
>  <Name>  (24) 
x0397-0A-x1077-0A_96

>  <original SMILES>  (24) 
Cc1cc(C(=O)NCC(CO)NC(=O)C2CC2c2cccnc2)no1

>  <synthon>  (24) 
[Xe]c1cccnc1

>  <ref_pdb>  (24) 
p/x0397-0A-x1077-0A-96.holo_minimised.pdb

>  <ref_mols>  (24) 
x0397_0A,x1077_0A

>  <IFP_score>  (24) 
0.6324555320336759

>  <SuCOS_score>  (24) 
0.638185699174359

>  <AttchPnts_score>  (24) 
3

>  <Docking_score>  (24) 
-7.25558472

>  <LE_score>  (24) 
-0.2902233888

>  <EnergyRatio_score>  (24) 
1.3386546246966955

>  <cmpd_id>  (24) 
['ENAMINE:PV-001117840962']

$$$$

     RDKit          3D

 22 23  0  0  0  0  0  0  0  0999 V2000
   12.4380    6.0420   25.2530 C   0  0  0  0  0  0  0  0  0  0  0  0
   11.1570    5.4320   25.1820 O   0  0  0  0  0  0  0  0  0  0  0  0
   10.8320    4.9890   23.8700 C   0  0  2  0  0  0  0  0  0  0  0  0
    9.2940    4.9730   23.6000 C   0  0  0  0  0  0  0  0  0  0  0  0
   11.4310    3.5810   23.6810 C   0  0  0  0  0  0  0  0  0  0  0  0
    8.7190    5.7270   22.8190 O   0  0  0  0  0  0  0  0  0  0  0  0
    8.6170    4.0200   24.3620 N   0  0  0  0  0  0  0  0  0  0  0  0
   12.6600    3.3880   23.0280 C   0  0  0  0  0  0  0  0  0  0  0  0
   10.7590    2.4370   24.1620 C   0  0  0  0  0  0  0  0  0  0  0  0
    7.4870    3.2680   23.8360 C   0  0  0  0  0  0  0  0  0  0  0  0
   13.1900    2.0970   22.8630 C   0  0  0  0  0  0  0  0  0  0  0  0
   11.2890    1.1570   23.9930 C   0  0  0  0  0  0  0  0  0  0  0  0
    7.7810    1.7380   23.6770 C   0  0  2  0  0  0  0  0  0  0  0  0
   12.5000    0.9920   23.3440 C   0  0  0  0  0  0  0  0  0  0  0  0
    8.7450    1.5280   22.4930 C   0  0  0  0  0  0  0  0  0  0  0  0
    6.4910    1.0060   23.5740 N   0  0  0  0  0  0  0  0  0  0  0  0
   13.1910   -0.7590   23.1250 Br  0  0  0  0  0  0  0  0  0  0  0  0
    5.7790    0.8460   24.8700 C   0  0  0  0  0  0  0  0  0  0  0  0
    5.6130    1.5780   22.5310 C   0  0  0  0  0  0  0  0  0  0  0  0
    4.3530    0.2630   24.7530 C   0  0  0  0  0  0  0  0  0  0  0  0
    4.2640    0.8510   22.4650 C   0  0  0  0  0  0  0  0  0  0  0  0
    3.5790    0.8740   23.7190 O   0  0  0  0  0  0  0  0  0  0  0  0
  1  2  1  0
  3  2  1  1
  3  4  1  0
  3  5  1  0
  4  6  2  0
  4  7  1  0
  5  8  2  0
  5  9  1  0
  7 10  1  0
  8 11  1  0
  9 12  2  0
 10 13  1  0
 11 14  2  0
 12 14  1  0
 13 15  1  6
 13 16  1  0
 14 17  1  0
 16 18  1  0
 16 19  1  0
 18 20  1  0
 19 21  1  0
 20 22  1  0
 21 22  1  0
M  END
>  <Name>  (25) 
x0946-0A-x1249-0A_12550

>  <original SMILES>  (25) 
COC(C(=O)NCC(C)N1CCOCC1)c1ccc(Br)cc1

>  <synthon>  (25) 
[Xe]N1CCOCC1

>  <ref_pdb>  (25) 
p/x0946-0A-x1249-0A-12550.holo_minimised.pdb

>  <ref_mols>  (25) 
x0946_0A,x1249_0A

>  <IFP_score>  (25) 
0.5773502691896257

>  <SuCOS_score>  (25) 
0.5719568312120255

>  <AttchPnts_score>  (25) 
3

>  <Docking_score>  (25) 
-4.54626322

>  <LE_score>  (25) 
-0.2066483281818182

>  <EnergyRatio_score>  (25) 
1.6938867476218513

>  <cmpd_id>  (25) 
['ENAMINE:Z4137457761']

$$$$

     RDKit          3D

 21 22  0  0  0  0  0  0  0  0999 V2000
    6.5470    3.6940   24.1810 C   0  0  0  0  0  0  0  0  0  0  0  0
    7.7490    3.1780   23.6820 C   0  0  0  0  0  0  0  0  0  0  0  0
    8.0340    3.3820   22.3270 C   0  0  0  0  0  0  0  0  0  0  0  0
    7.7770    1.6150   23.9660 C   0  0  0  0  0  0  0  0  0  0  0  0
    8.8400    3.7830   24.4910 N   0  0  0  0  0  0  0  0  0  0  0  0
    6.4930    0.8990   23.7810 N   0  0  0  0  0  0  0  0  0  0  0  0
    9.4470    5.0240   23.9660 C   0  0  0  0  0  0  0  0  0  0  0  0
    5.6480    0.8360   25.0060 C   0  0  0  0  0  0  0  0  0  0  0  0
    5.7550    1.4160   22.6000 C   0  0  0  0  0  0  0  0  0  0  0  0
   10.9470    4.9020   23.9000 C   0  0  2  0  0  0  0  0  0  0  0  0
    4.2190    0.3140   24.7710 C   0  0  0  0  0  0  0  0  0  0  0  0
    4.3590    0.8020   22.4630 C   0  0  0  0  0  0  0  0  0  0  0  0
   11.3420    5.7300   22.8090 O   0  0  0  0  0  0  0  0  0  0  0  0
   11.4710    3.4830   23.6980 C   0  0  0  0  0  0  0  0  0  0  0  0
    3.5790    0.9370   23.6560 O   0  0  0  0  0  0  0  0  0  0  0  0
   10.7680    2.3530   24.1550 C   0  0  0  0  0  0  0  0  0  0  0  0
   12.6930    3.2750   23.0430 C   0  0  0  0  0  0  0  0  0  0  0  0
   11.2660    1.0640   23.9630 C   0  0  0  0  0  0  0  0  0  0  0  0
   13.1930    1.9780   22.8540 C   0  0  0  0  0  0  0  0  0  0  0  0
   12.4740    0.8790   23.3150 C   0  0  0  0  0  0  0  0  0  0  0  0
   13.1330   -0.8740   23.0620 Br  0  0  0  0  0  0  0  0  0  0  0  0
  1  2  1  0
  2  3  1  0
  2  4  1  0
  2  5  1  0
  4  6  1  0
  5  7  1  0
  6  8  1  0
  6  9  1  0
  7 10  1  0
  8 11  1  0
  9 12  1  0
 10 13  1  6
 10 14  1  0
 11 15  1  0
 12 15  1  0
 14 16  2  0
 14 17  1  0
 16 18  1  0
 17 19  2  0
 18 20  2  0
 19 20  1  0
 20 21  1  0
M  END
>  <Name>  (26) 
x0946-0A-x1249-0A_11720

>  <original SMILES>  (26) 
CC(C)(CN1CCOCC1)NCC(O)c1ccc(Br)cc1

>  <synthon>  (26) 
[Xe]N1CCOCC1

>  <ref_pdb>  (26) 
p/x0946-0A-x1249-0A-11720.holo_minimised.pdb

>  <ref_mols>  (26) 
x0946_0A,x1249_0A

>  <IFP_score>  (26) 
1.0

>  <SuCOS_score>  (26) 
0.5747483383693908

>  <AttchPnts_score>  (26) 
2

>  <Docking_score>  (26) 
-4.53532696

>  <LE_score>  (26) 
-0.21596795047619047

>  <EnergyRatio_score>  (26) 
2.4374231722299537

>  <cmpd_id>  (26) 
['ENAMINE:Z2836318741']

$$$$

     RDKit          3D

 22 23  0  0  0  0  0  0  0  0999 V2000
    5.5940    1.5830   23.1730 C   0  0  0  0  0  0  0  0  0  0  0  0
    6.1310    2.0980   21.9230 N   0  0  0  0  0  0  0  0  0  0  0  0
    7.6020    1.9000   21.7100 C   0  0  0  0  0  0  0  0  0  0  0  0
    5.2110    2.2420   20.7260 C   0  0  2  0  0  0  0  0  0  0  0  0
    8.1440    1.3680   20.4710 O   0  0  0  0  0  0  0  0  0  0  0  0
    8.3210    2.2080   22.6730 O   0  0  0  0  0  0  0  0  0  0  0  0
    3.8480    2.3360   21.0190 C   0  0  0  0  0  0  0  0  0  0  0  0
    5.5490    1.0810   19.7770 C   0  0  0  0  0  0  0  0  0  0  0  0
    9.6780    1.6810   22.6110 C   0  0  0  0  0  0  0  0  0  0  0  0
    3.2340    1.6370   21.8180 O   0  0  0  0  0  0  0  0  0  0  0  0
    3.1690    3.3010   20.3490 O   0  0  0  0  0  0  0  0  0  0  0  0
    5.8370   -0.1730   20.2800 C   0  0  0  0  0  0  0  0  0  0  0  0
    5.6110    1.2000   18.3970 C   0  0  0  0  0  0  0  0  0  0  0  0
    9.6120    0.2350   23.1140 C   0  0  0  0  0  0  0  0  0  0  0  0
    6.1710   -1.2120   19.5190 N   0  0  0  0  0  0  0  0  0  0  0  0
    5.9530    0.1900   17.5830 N   0  0  0  0  0  0  0  0  0  0  0  0
    9.9440   -0.8480   22.2620 C   0  0  0  0  0  0  0  0  0  0  0  0
    9.2070   -0.0220   24.4470 C   0  0  0  0  0  0  0  0  0  0  0  0
    6.2160   -0.9670   18.2090 C   0  0  0  0  0  0  0  0  0  0  0  0
    9.8510   -2.2520   22.7980 C   0  0  0  0  0  0  0  0  0  0  0  0
    9.1230   -1.3240   24.9270 C   0  0  0  0  0  0  0  0  0  0  0  0
    9.4400   -2.4010   24.1140 C   0  0  0  0  0  0  0  0  0  0  0  0
  1  2  1  0
  2  3  1  0
  4  2  1  1
  3  5  2  0
  3  6  1  0
  4  7  1  0
  4  8  1  0
  6  9  1  0
  7 10  2  0
  7 11  1  0
  8 12  2  0
  8 13  1  0
  9 14  1  0
 12 15  1  0
 13 16  2  0
 14 17  2  0
 14 18  1  0
 15 19  2  0
 16 19  1  0
 17 20  1  0
 18 21  2  0
 20 22  2  0
 21 22  1  0
M  END
>  <Name>  (27) 
x0995-0A-x2193-0A_4532

>  <original SMILES>  (27) 
CN(C(=O)OCc1ccccc1)C(C(=O)O)c1cncnc1

>  <synthon>  (27) 
[Xe]c1ccccc1

>  <ref_pdb>  (27) 
p/x0995-0A-x2193-0A-4532.holo_minimised.pdb

>  <ref_mols>  (27) 
x0995_0A,x2193_0A

>  <IFP_score>  (27) 
0.5773502691896257

>  <SuCOS_score>  (27) 
0.5914779341574199

>  <AttchPnts_score>  (27) 
3

>  <Docking_score>  (27) 
-5.59723043

>  <LE_score>  (27) 
-0.254419565

>  <EnergyRatio_score>  (27) 
3.8676885254058284

>  <cmpd_id>  (27) 
['CHEMSPACE-BB:CSMB00016940526']

$$$$

     RDKit          3D

 23 24  0  0  0  0  0  0  0  0999 V2000
    5.7580    6.5170   22.3240 C   0  0  0  0  0  0  0  0  0  0  0  0
    6.6520    5.4170   22.8740 C   0  0  0  0  0  0  0  0  0  0  0  0
    8.0960    6.0090   22.7760 C   0  0  0  0  0  0  0  0  0  0  0  0
    6.6280    4.1320   22.0090 C   0  0  0  0  0  0  0  0  0  0  0  0
    6.0910    2.7990   22.5380 C   0  0  2  0  0  0  0  0  0  0  0  0
    7.2150    1.7890   22.6210 C   0  0  0  0  0  0  0  0  0  0  0  0
    5.0130    2.1490   21.9100 N   0  0  0  0  0  0  0  0  0  0  0  0
    8.5480    2.3920   22.7980 N   0  0  0  0  0  0  0  0  0  0  0  0
    4.6360    2.1810   20.5870 C   0  0  0  0  0  0  0  0  0  0  0  0
    9.7530    1.6570   22.7450 C   0  0  0  0  0  0  0  0  0  0  0  0
    3.8190    2.9700   20.1300 O   0  0  0  0  0  0  0  0  0  0  0  0
    5.2080    1.2210   19.7490 C   0  0  0  0  0  0  0  0  0  0  0  0
    9.6580    0.3400   23.2070 C   0  0  0  0  0  0  0  0  0  0  0  0
    5.7220    0.0690   20.2740 C   0  0  0  0  0  0  0  0  0  0  0  0
    5.3010    1.3390   18.3830 C   0  0  0  0  0  0  0  0  0  0  0  0
    9.3190    0.0700   24.5410 C   0  0  0  0  0  0  0  0  0  0  0  0
    9.8860   -0.7690   22.3720 C   0  0  0  0  0  0  0  0  0  0  0  0
    6.2970   -0.9050   19.5400 N   0  0  0  0  0  0  0  0  0  0  0  0
    5.8650    0.4070   17.5900 N   0  0  0  0  0  0  0  0  0  0  0  0
    9.2100   -1.2310   24.9910 C   0  0  0  0  0  0  0  0  0  0  0  0
    9.7730   -2.0600   22.8490 C   0  0  0  0  0  0  0  0  0  0  0  0
    6.3430   -0.6830   18.2200 C   0  0  0  0  0  0  0  0  0  0  0  0
    9.4310   -2.3140   24.1670 C   0  0  0  0  0  0  0  0  0  0  0  0
  1  2  1  0
  2  3  1  0
  2  4  1  0
  5  4  1  6
  5  6  1  0
  5  7  1  0
  6  8  1  0
  7  9  1  0
  8 10  1  0
  9 11  2  0
  9 12  1  0
 10 13  1  0
 12 14  2  0
 12 15  1  0
 13 16  2  0
 13 17  1  0
 14 18  1  0
 15 19  2  0
 16 20  1  0
 17 21  2  0
 18 22  2  0
 19 22  1  0
 20 23  2  0
 21 23  1  0
M  END
>  <Name>  (28) 
x0995-0A-x2193-0A_2563

>  <original SMILES>  (28) 
CC(C)CC(CNCc1ccccc1)NC(=O)c1cncnc1

>  <synthon>  (28) 
[Xe]c1ccccc1

>  <ref_pdb>  (28) 
p/x0995-0A-x2193-0A-2563.holo_minimised.pdb

>  <ref_mols>  (28) 
x0995_0A,x2193_0A

>  <IFP_score>  (28) 
0.5773502691896257

>  <SuCOS_score>  (28) 
0.5712726674790719

>  <AttchPnts_score>  (28) 
2

>  <Docking_score>  (28) 
-5.23430204

>  <LE_score>  (28) 
-0.2275783495652174

>  <EnergyRatio_score>  (28) 
3.316238648756619

>  <cmpd_id>  (28) 
['ENAMINE:PV-000862599756']

$$$$

     RDKit          3D

 21 22  0  0  0  0  0  0  0  0999 V2000
    3.8100    2.8750   20.2320 O   0  0  0  0  0  0  0  0  0  0  0  0
    4.7220    2.1510   20.6040 C   0  0  0  0  0  0  0  0  0  0  0  0
    5.3650    2.1200   21.9410 N   0  0  0  0  0  0  0  0  0  0  0  0
    5.2830    1.1460   19.6930 C   0  0  0  0  0  0  0  0  0  0  0  0
    6.1700    3.2190   22.5210 C   0  0  0  0  0  0  0  0  0  0  0  0
    5.4680    1.2150   18.3100 C   0  0  0  0  0  0  0  0  0  0  0  0
    5.6940   -0.0230   20.2720 C   0  0  0  0  0  0  0  0  0  0  0  0
    7.7030    3.1100   22.2780 C   0  0  1  0  0  0  0  0  0  0  0  0
    6.0210    0.2170   17.5820 N   0  0  0  0  0  0  0  0  0  0  0  0
    6.2580   -1.0850   19.5700 N   0  0  0  0  0  0  0  0  0  0  0  0
    8.1970    4.5420   22.4980 C   0  0  0  0  0  0  0  0  0  0  0  0
    8.3470    2.3360   23.3470 N   0  0  0  0  0  0  0  0  0  0  0  0
    6.3830   -0.8850   18.2650 C   0  0  0  0  0  0  0  0  0  0  0  0
    7.6660    5.0210   23.4990 O   0  0  0  0  0  0  0  0  0  0  0  0
    9.6030    1.6620   22.9100 C   0  0  0  0  0  0  0  0  0  0  0  0
    9.5970    0.1870   23.2510 C   0  0  0  0  0  0  0  0  0  0  0  0
    9.9920   -0.8250   22.3420 C   0  0  0  0  0  0  0  0  0  0  0  0
    9.1670   -0.1890   24.5270 C   0  0  0  0  0  0  0  0  0  0  0  0
    9.9430   -2.1800   22.7260 C   0  0  0  0  0  0  0  0  0  0  0  0
    9.1180   -1.5170   24.8900 C   0  0  0  0  0  0  0  0  0  0  0  0
    9.5010   -2.5090   24.0070 C   0  0  0  0  0  0  0  0  0  0  0  0
  1  2  2  0
  2  3  1  0
  2  4  1  0
  3  5  1  0
  4  6  2  0
  4  7  1  0
  8  5  1  1
  6  9  1  0
  7 10  2  0
  8 11  1  0
  8 12  1  0
  9 13  2  0
 10 13  1  0
 11 14  1  0
 12 15  1  0
 15 16  1  0
 16 17  2  0
 16 18  1  0
 17 19  1  0
 18 20  2  0
 19 21  2  0
 20 21  1  0
M  END
>  <Name>  (29) 
x0995-0A-x2193-0A_1109

>  <original SMILES>  (29) 
O=C(NCC(CO)NCc1ccccc1)c1cncnc1

>  <synthon>  (29) 
[Xe]c1ccccc1

>  <ref_pdb>  (29) 
p/x0995-0A-x2193-0A-1109.holo_minimised.pdb

>  <ref_mols>  (29) 
x0995_0A,x2193_0A

>  <IFP_score>  (29) 
0.5773502691896257

>  <SuCOS_score>  (29) 
0.5661052235359084

>  <AttchPnts_score>  (29) 
2

>  <Docking_score>  (29) 
-4.85272789

>  <LE_score>  (29) 
-0.23108228047619045

>  <EnergyRatio_score>  (29) 
3.15355173215059

>  <cmpd_id>  (29) 
['ENAMINE:PV-001017491666']

$$$$

     RDKit          3D

 24 26  0  0  0  0  0  0  0  0999 V2000
   13.0840   -1.9330   22.4460 C   0  0  0  0  0  0  0  0  0  0  0  0
   12.2590   -2.2190   23.6310 N   0  0  0  0  0  0  0  0  0  0  0  0
   10.8870   -2.4670   23.2360 C   0  0  0  0  0  0  0  0  0  0  0  0
   12.3800   -1.1490   24.6070 C   0  0  2  0  0  0  0  0  0  0  0  0
   10.1730   -2.9210   24.3320 C   0  0  0  0  0  0  0  0  0  0  0  0
   11.2070   -0.8990   25.3460 C   0  0  0  0  0  0  0  0  0  0  0  0
   12.9930   -0.0040   23.8070 C   0  0  0  0  0  0  0  0  0  0  0  0
   10.1960   -1.9450   25.4320 N   0  0  0  0  0  0  0  0  0  0  0  0
   12.3000    1.2050   23.8050 C   0  0  0  0  0  0  0  0  0  0  0  0
    8.8120   -1.6120   25.8410 C   0  0  0  0  0  0  0  0  0  0  0  0
   10.9720    1.4130   24.4760 C   0  0  0  0  0  0  0  0  0  0  0  0
   12.8380    2.3120   23.1540 C   0  0  0  0  0  0  0  0  0  0  0  0
    7.7270   -2.4740   25.4850 O   0  0  0  0  0  0  0  0  0  0  0  0
    8.5900   -0.4480   26.5970 C   0  0  0  0  0  0  0  0  0  0  0  0
   10.3580    2.6570   24.4230 C   0  0  0  0  0  0  0  0  0  0  0  0
   12.2030    3.5420   23.1140 C   0  0  0  0  0  0  0  0  0  0  0  0
    7.4880   -0.6730   27.5110 O   0  0  0  0  0  0  0  0  0  0  0  0
   10.9720    3.7140   23.7450 C   0  0  0  0  0  0  0  0  0  0  0  0
    7.0990    0.4010   28.2790 C   0  0  0  0  0  0  0  0  0  0  0  0
    7.9230    1.6710   28.2640 C   0  0  0  0  0  0  0  0  0  0  0  0
    5.9480    0.3270   29.0750 C   0  0  0  0  0  0  0  0  0  0  0  0
    7.4210    2.8200   29.1490 C   0  0  0  0  0  0  0  0  0  0  0  0
    5.5160    1.3910   29.8710 C   0  0  0  0  0  0  0  0  0  0  0  0
    6.1680    2.6100   29.9560 C   0  0  0  0  0  0  0  0  0  0  0  0
  1  2  1  0
  2  3  1  0
  2  4  1  0
  3  5  1  0
  4  6  1  0
  4  7  1  6
  5  8  1  0
  6  8  1  0
  7  9  1  0
  8 10  1  0
  9 11  2  0
  9 12  1  0
 10 13  2  0
 10 14  1  0
 11 15  1  0
 12 16  2  0
 14 17  1  0
 15 18  2  0
 16 18  1  0
 17 19  1  0
 19 20  2  0
 19 21  1  0
 20 22  1  0
 21 23  2  0
 22 24  2  0
 23 24  1  0
M  END
>  <Name>  (30) 
x0354-0A-x0161-0A_340

>  <original SMILES>  (30) 
CN1CCN(C(=O)COc2ccccc2)CC1Cc1ccccc1

>  <synthon>  (30) 
[Xe]c1ccccc1

>  <ref_pdb>  (30) 
p/x0354-0A-x0161-0A-340.holo_minimised.pdb

>  <ref_mols>  (30) 
x0354_0A,x0161_0A

>  <IFP_score>  (30) 
0.5

>  <SuCOS_score>  (30) 
0.5860301389575271

>  <AttchPnts_score>  (30) 
1

>  <Docking_score>  (30) 
-4.824265

>  <LE_score>  (30) 
-0.20101104166666664

>  <EnergyRatio_score>  (30) 
4.019556490708652

>  <cmpd_id>  (30) 
['ENAMINE:Z2047172152']

$$$$

     RDKit          3D

 28 30  0  0  0  0  0  0  0  0999 V2000
    4.8880    1.2290   22.2970 O   0  0  0  0  0  0  0  0  0  0  0  0
    6.1060    1.1470   22.4270 C   0  0  0  0  0  0  0  0  0  0  0  0
    6.8610    0.1810   21.7800 N   0  0  0  0  0  0  0  0  0  0  0  0
    6.9260    2.1010   23.3300 C   0  0  0  0  0  0  0  0  0  0  0  0
    8.0820    0.4950   21.0540 C   0  0  0  0  0  0  0  0  0  0  0  0
    6.8310    1.7880   24.8250 C   0  0  0  0  0  0  0  0  0  0  0  0
    7.7120    3.1800   22.8960 C   0  0  0  0  0  0  0  0  0  0  0  0
    9.3320    0.4710   21.9420 C   0  0  0  0  0  0  0  0  0  0  0  0
    7.5880    2.6600   25.7220 C   0  0  0  0  0  0  0  0  0  0  0  0
    8.4080    3.9730   23.8240 C   0  0  0  0  0  0  0  0  0  0  0  0
    9.4370   -0.6170   22.7840 C   0  0  0  0  0  0  0  0  0  0  0  0
    8.3510    3.7220   25.2090 C   0  0  0  0  0  0  0  0  0  0  0  0
    9.2110    5.0710   23.3950 N   0  0  0  0  0  0  0  0  0  0  0  0
    8.8520   -0.5370   24.0510 C   0  0  0  0  0  0  0  0  0  0  0  0
   10.0940   -1.7620   22.3940 N   0  0  0  0  0  0  0  0  0  0  0  0
   10.7300    5.2240   24.1030 S   0  0  0  0  0  0  0  0  0  0  0  0
    8.9440   -1.7070   24.9670 C   0  0  0  0  0  0  0  0  0  0  0  0
   10.1640   -2.8020   23.2460 C   0  0  0  0  0  0  0  0  0  0  0  0
   11.4420    6.2070   23.3340 O   0  0  0  0  0  0  0  0  0  0  0  0
   10.5080    5.3900   25.5210 O   0  0  0  0  0  0  0  0  0  0  0  0
   11.4450    3.6420   23.7370 C   0  0  0  0  0  0  0  0  0  0  0  0
    9.6140   -2.8340   24.5210 C   0  0  0  0  0  0  0  0  0  0  0  0
   12.6780    3.6300   23.1220 C   0  0  0  0  0  0  0  0  0  0  0  0
   10.7890    2.4420   24.0490 C   0  0  0  0  0  0  0  0  0  0  0  0
   13.2650    2.4330   22.7990 C   0  0  0  0  0  0  0  0  0  0  0  0
   11.3880    1.2450   23.7150 C   0  0  0  0  0  0  0  0  0  0  0  0
   12.6250    1.2640   23.0800 C   0  0  0  0  0  0  0  0  0  0  0  0
   13.5460   -0.2910   22.5280 Br  0  0  0  0  0  0  0  0  0  0  0  0
  1  2  2  0
  2  3  1  0
  2  4  1  0
  3  5  1  0
  4  6  2  0
  4  7  1  0
  5  8  1  0
  6  9  1  0
  7 10  2  0
  8 11  1  0
  9 12  2  0
 10 12  1  0
 10 13  1  0
 11 14  2  0
 11 15  1  0
 16 13  1  0
 14 17  1  0
 15 18  2  0
 16 19  2  0
 16 20  2  0
 16 21  1  0
 17 22  2  0
 18 22  1  0
 21 23  2  0
 21 24  1  0
 23 25  1  0
 24 26  2  0
 25 27  2  0
 26 27  1  0
 27 28  1  0
M  END
>  <Name>  (31) 
x0946-0A-x1077-0A_2982

>  <original SMILES>  (31) 
O=C(NCCc1ccccn1)c1cccc(NS(=O)(=O)c2ccc(Br)cc2)c1

>  <synthon>  (31) 
[Xe]c1ccccn1

>  <ref_pdb>  (31) 
p/x0946-0A-x1077-0A-2982.holo_minimised.pdb

>  <ref_mols>  (31) 
x0946_0A,x1077_0A

>  <IFP_score>  (31) 
0.6666666666666666

>  <SuCOS_score>  (31) 
0.7102756681787411

>  <AttchPnts_score>  (31) 
3

>  <Docking_score>  (31) 
-5.54980659

>  <LE_score>  (31) 
-0.19820737821428572

>  <EnergyRatio_score>  (31) 
2.875166934511073

>  <cmpd_id>  (31) 
['MOLPORT:007-098-306']

$$$$

     RDKit          3D

 24 25  0  0  0  0  0  0  0  0999 V2000
   13.8100   -2.2170   24.4780 C   0  0  0  0  0  0  0  0  0  0  0  0
   13.2640   -0.8910   24.5200 O   0  0  0  0  0  0  0  0  0  0  0  0
   13.2800   -0.2230   23.3260 C   0  0  0  0  0  0  0  0  0  0  0  0
   13.7700   -0.6350   22.2890 O   0  0  0  0  0  0  0  0  0  0  0  0
   12.5940    1.1040   23.4430 C   0  0  0  0  0  0  0  0  0  0  0  0
   11.3670    1.2370   24.0560 C   0  0  0  0  0  0  0  0  0  0  0  0
   13.1910    2.2500   22.9250 C   0  0  0  0  0  0  0  0  0  0  0  0
   10.7300    2.4720   24.1630 C   0  0  0  0  0  0  0  0  0  0  0  0
   12.5540    3.5030   23.0210 C   0  0  0  0  0  0  0  0  0  0  0  0
   11.3120    3.6300   23.6420 C   0  0  0  0  0  0  0  0  0  0  0  0
   10.5870    4.8420   23.7890 N   0  0  0  0  0  0  0  0  0  0  0  0
    9.2290    5.0550   23.5530 C   0  0  0  0  0  0  0  0  0  0  0  0
    8.7270    6.0260   22.9930 O   0  0  0  0  0  0  0  0  0  0  0  0
    8.4990    3.9940   24.0690 N   0  0  0  0  0  0  0  0  0  0  0  0
    7.7700    3.0010   23.2340 C   0  0  0  0  0  0  0  0  0  0  0  0
    7.8030    1.5880   23.8790 C   0  0  0  0  0  0  0  0  0  0  0  0
    8.7160    0.6510   23.3600 C   0  0  0  0  0  0  0  0  0  0  0  0
    8.1760    1.7900   25.3750 C   0  0  0  0  0  0  0  0  0  0  0  0
    6.4050    1.0670   23.7510 N   0  0  0  0  0  0  0  0  0  0  0  0
    5.6450    0.8070   24.9870 C   0  0  0  0  0  0  0  0  0  0  0  0
    5.5250    1.5860   22.6670 C   0  0  0  0  0  0  0  0  0  0  0  0
    4.2150    0.2670   24.7680 C   0  0  0  0  0  0  0  0  0  0  0  0
    4.3240    0.8880   22.4950 C   0  0  0  0  0  0  0  0  0  0  0  0
    3.5350    0.9030   23.6830 O   0  0  0  0  0  0  0  0  0  0  0  0
  1  2  1  0
  2  3  1  0
  3  4  2  0
  3  5  1  0
  5  6  2  0
  5  7  1  0
  6  8  1  0
  7  9  2  0
  8 10  2  0
  9 10  1  0
 10 11  1  0
 11 12  1  0
 12 13  2  0
 12 14  1  0
 14 15  1  0
 16 15  1  0
 16 17  1  0
 16 18  1  0
 16 19  1  0
 19 20  1  0
 19 21  1  0
 20 22  1  0
 21 23  1  0
 22 24  1  0
 23 24  1  0
M  END
>  <Name>  (32) 
x0161-0A-x1249-0A_3906

>  <original SMILES>  (32) 
COC(=O)c1ccc(NC(=O)NCC(C)(C)N2CCOCC2)cc1

>  <synthon>  (32) 
[Xe]N1CCOCC1

>  <ref_pdb>  (32) 
p/x0161-0A-x1249-0A-3906.holo_minimised.pdb

>  <ref_mols>  (32) 
x0161_0A,x1249_0A

>  <IFP_score>  (32) 
0.6324555320336759

>  <SuCOS_score>  (32) 
0.5604232722591552

>  <AttchPnts_score>  (32) 
3

>  <Docking_score>  (32) 
-5.40309191

>  <LE_score>  (32) 
-0.22512882958333333

>  <EnergyRatio_score>  (32) 
3.145786799540236

>  <cmpd_id>  (32) 
['ENAMINE:Z433911036']

$$$$

     RDKit          3D

 22 23  0  0  0  0  0  0  0  0999 V2000
    6.3590    3.6820   22.1540 C   0  0  0  0  0  0  0  0  0  0  0  0
    6.1800    2.2550   21.7760 C   0  0  1  0  0  0  0  0  0  0  0  0
    6.9440    1.3790   22.4780 C   0  0  0  0  0  0  0  0  0  0  0  0
    4.8460    2.0070   21.5930 N   0  0  0  0  0  0  0  0  0  0  0  0
    8.3990    1.7010   22.4250 N   0  0  0  0  0  0  0  0  0  0  0  0
    4.2400    1.2790   22.5560 C   0  0  0  0  0  0  0  0  0  0  0  0
    4.3180    1.9000   20.3400 C   0  0  0  0  0  0  0  0  0  0  0  0
    9.3910    0.7160   22.0730 C   0  0  0  0  0  0  0  0  0  0  0  0
    3.3120    2.4730   19.9380 O   0  0  0  0  0  0  0  0  0  0  0  0
    5.0480    1.0300   19.5530 C   0  0  0  0  0  0  0  0  0  0  0  0
   10.1420    0.8810   21.1530 O   0  0  0  0  0  0  0  0  0  0  0  0
    9.3980   -0.4430   22.8620 C   0  0  0  0  0  0  0  0  0  0  0  0
    5.4970   -0.1090   20.1940 C   0  0  0  0  0  0  0  0  0  0  0  0
    5.3680    1.1860   18.2220 C   0  0  0  0  0  0  0  0  0  0  0  0
    8.7540   -0.4780   24.1000 C   0  0  0  0  0  0  0  0  0  0  0  0
   10.0680   -1.4750   22.3030 N   0  0  0  0  0  0  0  0  0  0  0  0
    6.2160   -1.0280   19.5510 N   0  0  0  0  0  0  0  0  0  0  0  0
    6.0980    0.2700   17.5520 N   0  0  0  0  0  0  0  0  0  0  0  0
    8.7960   -1.6660   24.8150 C   0  0  0  0  0  0  0  0  0  0  0  0
   10.1060   -2.6520   23.0220 C   0  0  0  0  0  0  0  0  0  0  0  0
    6.4880   -0.8050   18.2660 C   0  0  0  0  0  0  0  0  0  0  0  0
    9.5090   -2.7990   24.2330 C   0  0  0  0  0  0  0  0  0  0  0  0
  2  1  1  1
  2  3  1  0
  2  4  1  0
  3  5  1  0
  4  6  1  0
  4  7  1  0
  5  8  1  0
  7  9  2  0
  7 10  1  0
  8 11  2  0
  8 12  1  0
 10 13  2  0
 10 14  1  0
 12 15  2  0
 12 16  1  0
 13 17  1  0
 14 18  2  0
 15 19  1  0
 16 20  2  0
 17 21  2  0
 18 21  1  0
 19 22  2  0
 20 22  1  0
M  END
>  <Name>  (33) 
x0995-0A-x1077-0A_2044

>  <original SMILES>  (33) 
CC(CNC(=O)c1ccccn1)N(C)C(=O)c1cncnc1

>  <synthon>  (33) 
[Xe]c1ccccn1

>  <ref_pdb>  (33) 
p/x0995-0A-x1077-0A-2044.holo_minimised.pdb

>  <ref_mols>  (33) 
x0995_0A,x1077_0A

>  <IFP_score>  (33) 
0.6666666666666666

>  <SuCOS_score>  (33) 
0.6448011455508967

>  <AttchPnts_score>  (33) 
1

>  <Docking_score>  (33) 
-6.15644503

>  <LE_score>  (33) 
-0.2798384104545455

>  <EnergyRatio_score>  (33) 
3.5625438478382776

>  <cmpd_id>  (33) 
['ENAMINE:PV-001056001123']

$$$$

     RDKit          3D

 24 25  0  0  0  0  0  0  0  0999 V2000
   14.7330   -3.0220   25.5370 C   0  0  0  0  0  0  0  0  0  0  0  0
   14.0600   -2.4570   24.3450 C   0  0  0  0  0  0  0  0  0  0  0  0
   12.9420   -1.6350   24.8530 C   0  0  0  0  0  0  0  0  0  0  0  0
   12.3480   -0.9570   23.8640 N   0  0  0  0  0  0  0  0  0  0  0  0
   11.2200   -1.5860   23.1800 C   0  0  0  0  0  0  0  0  0  0  0  0
   12.9960    0.0810   23.2400 C   0  0  0  0  0  0  0  0  0  0  0  0
    9.9020   -1.5650   23.9960 C   0  0  0  0  0  0  0  0  0  0  0  0
   14.0080    0.0230   22.5650 O   0  0  0  0  0  0  0  0  0  0  0  0
   12.4280    1.2990   23.4060 C   0  0  0  0  0  0  0  0  0  0  0  0
    9.5120   -2.8770   24.5490 N   0  0  0  0  0  0  0  0  0  0  0  0
   13.0260    2.4380   22.7980 C   0  0  0  0  0  0  0  0  0  0  0  0
   11.2850    1.3250   24.1680 C   0  0  0  0  0  0  0  0  0  0  0  0
    8.2520   -2.7840   25.3090 C   0  0  0  0  0  0  0  0  0  0  0  0
   10.6190   -3.3500   25.3820 C   0  0  0  0  0  0  0  0  0  0  0  0
   12.4440    3.6780   22.9570 C   0  0  0  0  0  0  0  0  0  0  0  0
   10.5360    2.5870   24.4340 C   0  0  0  0  0  0  0  0  0  0  0  0
    7.9450   -4.0230   25.9080 C   0  0  0  0  0  0  0  0  0  0  0  0
   10.3620   -4.5640   25.9950 C   0  0  0  0  0  0  0  0  0  0  0  0
   11.1560    3.8160   23.7920 C   0  0  0  0  0  0  0  0  0  0  0  0
    8.9640   -4.7290   26.5410 C   0  0  0  0  0  0  0  0  0  0  0  0
   10.4140    5.3990   23.9990 S   0  0  0  0  0  0  0  0  0  0  0  0
    9.1670    5.3380   22.8660 N   0  0  0  0  0  0  0  0  0  0  0  0
    9.8460    5.4700   25.3240 O   0  0  0  0  0  0  0  0  0  0  0  0
   11.3580    6.3620   23.5230 O   0  0  0  0  0  0  0  0  0  0  0  0
  1  2  1  0
  2  3  1  0
  3  4  1  0
  4  5  1  0
  4  6  1  0
  5  7  1  0
  6  8  2  0
  6  9  1  0
  7 10  1  0
  9 11  2  0
  9 12  1  0
 10 13  1  0
 10 14  1  0
 11 15  1  0
 12 16  2  0
 13 17  1  0
 14 18  1  0
 15 19  2  0
 16 19  1  0
 17 20  1  0
 18 20  1  0
 19 21  1  0
 21 22  1  0
 21 23  2  0
 21 24  2  0
M  END
>  <Name>  (34) 
x0161-0A-x0387-0A_964

>  <original SMILES>  (34) 
CCCN(CCN1CCCCC1)C(=O)c1ccc(S(N)(=O)=O)cc1

>  <synthon>  (34) 
[Xe]N1CCCCC1

>  <ref_pdb>  (34) 
p/x0161-0A-x0387-0A-964.holo_minimised.pdb

>  <ref_mols>  (34) 
x0161_0A,x0387_0A

>  <IFP_score>  (34) 
0.7071067811865476

>  <SuCOS_score>  (34) 
0.679238194740831

>  <AttchPnts_score>  (34) 
1

>  <Docking_score>  (34) 
-6.24866486

>  <LE_score>  (34) 
-0.2603610358333333

>  <EnergyRatio_score>  (34) 
3.7430821398689447

>  <cmpd_id>  (34) 
['ENAMINE:Z2091946358']

$$$$

     RDKit          3D

 20 22  0  0  0  0  0  0  0  0999 V2000
    9.9620   -5.6150   24.7920 N   0  0  0  0  0  0  0  0  0  0  0  0
    8.8740   -5.0040   25.1160 C   0  0  0  0  0  0  0  0  0  0  0  0
    8.5180   -4.9080   26.4280 N   0  0  0  0  0  0  0  0  0  0  0  0
    7.9960   -4.4070   23.9920 C   0  0  0  0  0  0  0  0  0  0  0  0
    8.2330   -2.8650   23.8970 C   0  0  0  0  0  0  0  0  0  0  0  0
    7.1140   -2.0150   24.4120 N   0  0  0  0  0  0  0  0  0  0  0  0
    7.1280   -1.8390   25.8790 C   0  0  0  0  0  0  0  0  0  0  0  0
    6.8400   -0.6450   23.8480 C   0  0  1  0  0  0  0  0  0  0  0  0
    6.5990   -0.4310   26.1570 C   0  0  2  0  0  0  0  0  0  0  0  0
    5.8010   -0.1540   24.8700 C   0  0  0  0  0  0  0  0  0  0  0  0
    7.9700    0.4280   23.8890 C   0  0  0  0  0  0  0  0  0  0  0  0
    8.6930    0.3090   25.1520 N   0  0  0  0  0  0  0  0  0  0  0  0
    7.8210    0.5280   26.3070 C   0  0  0  0  0  0  0  0  0  0  0  0
   10.0290    0.8910   25.1380 C   0  0  0  0  0  0  0  0  0  0  0  0
   10.8950    0.2460   24.0760 C   0  0  0  0  0  0  0  0  0  0  0  0
   12.2310    0.5830   23.9310 C   0  0  0  0  0  0  0  0  0  0  0  0
   10.3630   -0.7230   23.2050 C   0  0  0  0  0  0  0  0  0  0  0  0
   13.0020   -0.0250   22.9620 C   0  0  0  0  0  0  0  0  0  0  0  0
   11.1480   -1.3230   22.2190 C   0  0  0  0  0  0  0  0  0  0  0  0
   12.4780   -0.9670   22.0960 C   0  0  0  0  0  0  0  0  0  0  0  0
  1  2  2  3
  2  3  1  0
  2  4  1  0
  4  5  1  0
  5  6  1  0
  6  7  1  0
  6  8  1  0
  9  7  1  6
  8 10  1  0
  9 10  1  0
  8 11  1  1
 11 12  1  0
  9 13  1  0
 12 13  1  0
 12 14  1  0
 14 15  1  0
 15 16  2  0
 15 17  1  0
 16 18  1  0
 17 19  2  0
 18 20  2  0
 19 20  1  0
M  END
>  <Name>  (35) 
x0991-0A-x1249-0A_255

>  <original SMILES>  (35) 
N=C(N)CCN1CC2CC1CN(Cc1ccccc1)C2

>  <synthon>  (35) 
[Xe]c1ccccc1

>  <ref_pdb>  (35) 
p/x0991-0A-x1249-0A-255.holo_minimised.pdb

>  <ref_mols>  (35) 
x0991_0A,x1249_0A

>  <IFP_score>  (35) 
0.5

>  <SuCOS_score>  (35) 
0.6441509812625383

>  <AttchPnts_score>  (35) 
2

>  <Docking_score>  (35) 
-4.76707077

>  <LE_score>  (35) 
-0.23835353850000002

>  <EnergyRatio_score>  (35) 
1.9390148377505396

>  <cmpd_id>  (35) 
['CHEMSPACE-BB:CSMB00154351540']

$$$$

     RDKit          3D

 22 24  0  0  0  0  0  0  0  0999 V2000
    8.3170   -4.7670   22.7070 C   0  0  0  0  0  0  0  0  0  0  0  0
    7.8540   -4.7650   24.1490 C   0  0  1  0  0  0  0  0  0  0  0  0
    8.9880   -5.2230   25.0950 C   0  0  0  0  0  0  0  0  0  0  0  0
    7.3050   -3.4300   24.3690 N   0  0  0  0  0  0  0  0  0  0  0  0
   10.1540   -5.6570   24.7590 N   0  0  0  0  0  0  0  0  0  0  0  0
    8.6920   -5.1610   26.5370 N   0  0  0  0  0  0  0  0  0  0  0  0
    5.8260   -3.2700   24.3220 C   0  0  0  0  0  0  0  0  0  0  0  0
    7.8390   -2.4410   23.4440 C   0  0  0  0  0  0  0  0  0  0  0  0
    5.8970   -1.7030   24.2970 C   0  0  0  0  0  0  0  0  0  0  0  0
    7.3440   -1.2110   24.1740 C   0  0  0  0  0  0  0  0  0  0  0  0
    7.6670    0.0710   23.3130 C   0  0  0  0  0  0  0  0  0  0  0  0
    7.9930   -1.1920   25.5710 C   0  0  0  0  0  0  0  0  0  0  0  0
    7.9070    1.2820   24.0120 C   0  0  0  0  0  0  0  0  0  0  0  0
    8.0600    0.2000   26.1450 C   0  0  0  0  0  0  0  0  0  0  0  0
    8.6950    1.1050   25.2230 N   0  0  0  0  0  0  0  0  0  0  0  0
   10.1720    1.1210   25.1820 C   0  0  0  0  0  0  0  0  0  0  0  0
   10.8550    0.4590   24.1520 C   0  0  0  0  0  0  0  0  0  0  0  0
   12.0530    1.0550   23.7180 C   0  0  0  0  0  0  0  0  0  0  0  0
   10.3980   -0.7440   23.5690 C   0  0  0  0  0  0  0  0  0  0  0  0
   12.8570    0.5150   22.7080 C   0  0  0  0  0  0  0  0  0  0  0  0
   11.1270   -1.3640   22.5450 C   0  0  0  0  0  0  0  0  0  0  0  0
   12.4420   -0.7750   22.0190 C   0  0  0  0  0  0  0  0  0  0  0  0
  2  1  1  6
  2  3  1  0
  2  4  1  0
  3  5  2  3
  3  6  1  0
  4  7  1  0
  4  8  1  0
  7  9  1  0
 10  8  1  0
  9 10  1  0
 10 11  1  0
 10 12  1  0
 11 13  1  0
 12 14  1  0
 13 15  1  0
 14 15  1  0
 15 16  1  0
 16 17  1  0
 17 18  2  0
 17 19  1  0
 18 20  1  0
 19 21  2  0
 20 22  2  0
 21 22  1  0
M  END
>  <Name>  (36) 
x0991-0A-x1249-0A_101

>  <original SMILES>  (36) 
CC(C(=N)N)N1CCC2(CCN(Cc3ccccc3)CC2)C1

>  <synthon>  (36) 
[Xe]c1ccccc1

>  <ref_pdb>  (36) 
p/x0991-0A-x1249-0A-101.holo_minimised.pdb

>  <ref_mols>  (36) 
x0991_0A,x1249_0A

>  <IFP_score>  (36) 
0.5773502691896257

>  <SuCOS_score>  (36) 
0.6033896025042229

>  <AttchPnts_score>  (36) 
2

>  <Docking_score>  (36) 
-6.15661383

>  <LE_score>  (36) 
-0.2798460831818182

>  <EnergyRatio_score>  (36) 
3.5296505635197186

>  <cmpd_id>  (36) 
['CHEMSPACE-BB:CSMB00015127216']

$$$$

     RDKit          3D

 21 22  0  0  0  0  0  0  0  0999 V2000
    4.8920    0.1600   23.1550 C   0  0  0  0  0  0  0  0  0  0  0  0
    4.6280    1.4930   22.4500 C   0  0  2  0  0  0  0  0  0  0  0  0
    3.6420    2.3180   23.1980 N   0  0  0  0  0  0  0  0  0  0  0  0
    4.0340    1.2270   21.0400 C   0  0  0  0  0  0  0  0  0  0  0  0
    2.5480    1.8290   23.9150 C   0  0  0  0  0  0  0  0  0  0  0  0
    2.8150    1.3460   20.8560 O   0  0  0  0  0  0  0  0  0  0  0  0
    4.8770    0.8650   19.9840 C   0  0  0  0  0  0  0  0  0  0  0  0
    2.3360    0.4600   24.2870 O   0  0  0  0  0  0  0  0  0  0  0  0
    1.5910    2.8230   24.2880 O   0  0  0  0  0  0  0  0  0  0  0  0
    4.7160    1.5630   18.8250 C   0  0  0  0  0  0  0  0  0  0  0  0
    5.8170   -0.1160   20.0500 N   0  0  0  0  0  0  0  0  0  0  0  0
    0.4700    2.3510   25.0460 C   0  0  0  0  0  0  0  0  0  0  0  0
    5.5380    1.2240   17.7670 C   0  0  0  0  0  0  0  0  0  0  0  0
    6.5630   -0.3540   18.9430 C   0  0  0  0  0  0  0  0  0  0  0  0
   -0.3040    3.2900   25.7140 C   0  0  0  0  0  0  0  0  0  0  0  0
    6.4750    0.2790   17.7680 N   0  0  0  0  0  0  0  0  0  0  0  0
   -1.4280    3.9140   24.9130 C   0  0  0  0  0  0  0  0  0  0  0  0
   -0.0790    3.6590   27.0450 C   0  0  0  0  0  0  0  0  0  0  0  0
   -2.2760    4.9430   25.6430 C   0  0  0  0  0  0  0  0  0  0  0  0
   -0.8550    4.6070   27.7270 C   0  0  0  0  0  0  0  0  0  0  0  0
   -1.9180    5.2390   27.0740 C   0  0  0  0  0  0  0  0  0  0  0  0
  2  1  1  1
  2  3  1  0
  2  4  1  0
  3  5  1  0
  4  6  2  0
  4  7  1  0
  5  8  2  0
  5  9  1  0
  7 10  2  0
  7 11  1  0
  9 12  1  0
 10 13  1  0
 11 14  2  0
 12 15  1  0
 13 16  2  0
 14 16  1  0
 15 17  2  0
 15 18  1  0
 17 19  1  0
 18 20  2  0
 19 21  2  0
 20 21  1  0
M  END
>  <Name>  (37) 
x0995-0A-x0426-0A_8844

>  <original SMILES>  (37) 
CC(NC(=O)OCc1ccccc1)C(=O)c1ccncn1

>  <synthon>  (37) 
[Xe]c1ccccc1

>  <ref_pdb>  (37) 
p/x0995-0A-x0426-0A-8844.holo_minimised.pdb

>  <ref_mols>  (37) 
x0995_0A,x0426_0A

>  <IFP_score>  (37) 
0.5773502691896257

>  <SuCOS_score>  (37) 
0.6325126960974

>  <AttchPnts_score>  (37) 
3

>  <Docking_score>  (37) 
-3.29600358

>  <LE_score>  (37) 
-0.15695255142857142

>  <EnergyRatio_score>  (37) 
3.822892667769101

>  <cmpd_id>  (37) 
['CHEMSPACE-BB:CSMB00121479923']

$$$$

     RDKit          3D

 25 27  0  0  0  0  0  0  0  0999 V2000
    9.4610    0.2500   27.8520 C   0  0  0  0  0  0  0  0  0  0  0  0
    9.2520   -0.2180   26.4280 C   0  0  2  0  0  0  0  0  0  0  0  0
   10.2880    0.3990   25.6030 N   0  0  0  0  0  0  0  0  0  0  0  0
    7.8570    0.1700   25.9700 C   0  0  1  0  0  0  0  0  0  0  0  0
   10.9890   -0.1390   24.5730 C   0  0  0  0  0  0  0  0  0  0  0  0
    7.6130    1.5420   26.1330 C   0  0  0  0  0  0  0  0  0  0  0  0
    7.7660    0.0070   24.4650 C   0  0  0  0  0  0  0  0  0  0  0  0
   10.6330   -1.3550   23.9720 C   0  0  0  0  0  0  0  0  0  0  0  0
   12.0520    0.5950   24.1750 N   0  0  0  0  0  0  0  0  0  0  0  0
    7.3720    2.2040   24.9350 C   0  0  0  0  0  0  0  0  0  0  0  0
    7.8690    1.2510   23.9640 N   0  0  0  0  0  0  0  0  0  0  0  0
   11.4330   -1.7870   22.9280 C   0  0  0  0  0  0  0  0  0  0  0  0
   12.8150    0.1480   23.1550 C   0  0  0  0  0  0  0  0  0  0  0  0
    7.6870    1.3160   22.6190 C   0  0  0  0  0  0  0  0  0  0  0  0
   12.5500   -1.0330   22.5010 C   0  0  0  0  0  0  0  0  0  0  0  0
    8.4700    1.8830   21.8540 O   0  0  0  0  0  0  0  0  0  0  0  0
    6.4350    0.6040   22.2110 C   0  0  0  0  0  0  0  0  0  0  0  0
   13.4050   -1.5390   21.3650 C   0  0  0  0  0  0  0  0  0  0  0  0
    6.2840    0.5970   20.8380 C   0  0  0  0  0  0  0  0  0  0  0  0
   14.0660   -1.9170   20.5220 N   0  0  0  0  0  0  0  0  0  0  0  0
    5.3510    1.4410   20.2490 C   0  0  0  0  0  0  0  0  0  0  0  0
    7.0570   -0.2500   20.0450 C   0  0  0  0  0  0  0  0  0  0  0  0
    5.1890    1.4400   18.8750 C   0  0  0  0  0  0  0  0  0  0  0  0
    6.8880   -0.2450   18.6700 C   0  0  0  0  0  0  0  0  0  0  0  0
    5.9530    0.6010   18.0780 C   0  0  0  0  0  0  0  0  0  0  0  0
  2  1  1  1
  2  3  1  0
  2  4  1  0
  3  5  1  0
  4  6  1  6
  4  7  1  0
  5  8  2  0
  5  9  1  0
  6 10  1  0
  7 11  1  0
 10 11  1  0
  8 12  1  0
  9 13  2  0
 11 14  1  0
 12 15  2  0
 13 15  1  0
 14 16  2  0
 14 17  1  0
 15 18  1  0
 17 19  1  0
 18 20  3  0
 19 21  2  0
 19 22  1  0
 21 23  1  0
 22 24  2  0
 23 25  2  0
 24 25  1  0
M  END
>  <Name>  (38) 
x0305-0A-x0967-0A_584

>  <original SMILES>  (38) 
CC(Nc1ccc(C#N)cn1)C1CCN(C(=O)Cc2ccccc2)C1

>  <synthon>  (38) 
[Xe]c1ccccc1

>  <ref_pdb>  (38) 
p/x0305-0A-x0967-0A-584.holo_minimised.pdb

>  <ref_mols>  (38) 
x0305_0A,x0967_0A

>  <IFP_score>  (38) 
0.6324555320336759

>  <SuCOS_score>  (38) 
0.6768555134296828

>  <AttchPnts_score>  (38) 
2

>  <Docking_score>  (38) 
-6.37610102

>  <LE_score>  (38) 
-0.2550440408

>  <EnergyRatio_score>  (38) 
2.775450246919898

>  <cmpd_id>  (38) 
['ENAMINE:PV-000030281631']

$$$$

     RDKit          3D

 24 25  0  0  0  0  0  0  0  0999 V2000
    9.3000    5.0810   22.8930 N   0  0  0  0  0  0  0  0  0  0  0  0
   10.5340    5.0420   24.0370 S   0  0  0  0  0  0  0  0  0  0  0  0
   11.5130    5.9980   23.5790 O   0  0  0  0  0  0  0  0  0  0  0  0
    9.8410    5.1720   25.3070 O   0  0  0  0  0  0  0  0  0  0  0  0
   11.1750    3.3870   23.8490 C   0  0  0  0  0  0  0  0  0  0  0  0
   12.4940    3.1360   23.1330 C   0  0  0  0  0  0  0  0  0  0  0  0
   10.4490    2.3190   24.3640 C   0  0  0  0  0  0  0  0  0  0  0  0
   12.8810    1.6910   23.0350 C   0  0  0  0  0  0  0  0  0  0  0  0
   10.8960    0.9980   24.2250 C   0  0  0  0  0  0  0  0  0  0  0  0
   12.0870    0.6550   23.5650 C   0  0  0  0  0  0  0  0  0  0  0  0
   12.4440   -0.7200   23.4420 C   0  0  0  0  0  0  0  0  0  0  0  0
   11.7420   -1.4030   22.4090 C   0  0  0  0  0  0  0  0  0  0  0  0
   10.3840   -1.9050   22.7180 N   0  0  0  0  0  0  0  0  0  0  0  0
    9.3670   -0.9010   23.0570 C   0  0  0  0  0  0  0  0  0  0  0  0
    8.6050   -1.0040   24.0230 O   0  0  0  0  0  0  0  0  0  0  0  0
    9.2810    0.3310   22.1160 C   0  0  0  0  0  0  0  0  0  0  0  0
    8.2120    1.2130   22.3420 C   0  0  0  0  0  0  0  0  0  0  0  0
    6.8310    0.5900   22.3460 C   0  0  0  0  0  0  0  0  0  0  0  0
    6.4530    0.5880   20.9030 C   0  0  0  0  0  0  0  0  0  0  0  0
    5.4890    1.4470   20.3870 C   0  0  0  0  0  0  0  0  0  0  0  0
    7.0790   -0.2860   20.0070 C   0  0  0  0  0  0  0  0  0  0  0  0
    5.1320    1.4810   19.0550 C   0  0  0  0  0  0  0  0  0  0  0  0
    6.7390   -0.2750   18.6580 C   0  0  0  0  0  0  0  0  0  0  0  0
    5.7680    0.6090   18.1760 C   0  0  0  0  0  0  0  0  0  0  0  0
  2  1  1  0
  2  3  2  0
  2  4  2  0
  2  5  1  0
  5  6  2  0
  5  7  1  0
  6  8  1  0
  7  9  2  0
  8 10  2  0
  9 10  1  0
 10 11  1  0
 11 12  1  0
 12 13  1  0
 13 14  1  0
 14 15  2  0
 14 16  1  0
 16 17  1  0
 17 18  1  0
 18 19  1  0
 19 20  2  0
 19 21  1  0
 20 22  1  0
 21 23  2  0
 22 24  2  0
 23 24  1  0
M  END
>  <Name>  (39) 
x0161-0A-x0967-0A_1451

>  <original SMILES>  (39) 
NS(=O)(=O)c1ccc(CCNC(=O)CCCc2ccccc2)cc1

>  <synthon>  (39) 
[Xe]c1ccccc1

>  <ref_pdb>  (39) 
p/x0161-0A-x0967-0A-1451.holo_minimised.pdb

>  <ref_mols>  (39) 
x0161_0A,x0967_0A

>  <IFP_score>  (39) 
0.5656854249492381

>  <SuCOS_score>  (39) 
0.5796460483899094

>  <AttchPnts_score>  (39) 
3

>  <Docking_score>  (39) 
-6.26516771

>  <LE_score>  (39) 
-0.2610486545833333

>  <EnergyRatio_score>  (39) 
3.535464067971109

>  <cmpd_id>  (39) 
['ENAMINE:Z419871674']

$$$$

     RDKit          3D

 20 21  0  0  0  0  0  0  0  0999 V2000
    6.3240    0.3390   24.4880 C   0  0  0  0  0  0  0  0  0  0  0  0
    7.5910    1.2250   24.5770 C   0  0  2  0  0  0  0  0  0  0  0  0
    7.7370    2.0190   23.2760 C   0  0  0  0  0  0  0  0  0  0  0  0
    8.7900    0.3940   24.9130 N   0  0  0  0  0  0  0  0  0  0  0  0
    6.7160    1.6580   22.2560 C   0  0  0  0  0  0  0  0  0  0  0  0
    9.9730    1.0020   24.9890 C   0  0  0  0  0  0  0  0  0  0  0  0
    6.4780    0.4690   22.2500 O   0  0  0  0  0  0  0  0  0  0  0  0
   10.9320    0.3310   24.0190 C   0  0  0  0  0  0  0  0  0  0  0  0
    5.3690    0.1170   21.4360 C   0  0  0  0  0  0  0  0  0  0  0  0
   10.6080   -0.8810   23.3840 C   0  0  0  0  0  0  0  0  0  0  0  0
   12.1650    0.9160   23.7410 C   0  0  0  0  0  0  0  0  0  0  0  0
    5.6190    0.2440   20.0770 C   0  0  0  0  0  0  0  0  0  0  0  0
   11.4720   -1.5080   22.5000 C   0  0  0  0  0  0  0  0  0  0  0  0
   13.0470    0.3050   22.8590 C   0  0  0  0  0  0  0  0  0  0  0  0
    5.0310    1.2210   19.2860 C   0  0  0  0  0  0  0  0  0  0  0  0
    6.4920   -0.6390   19.5580 N   0  0  0  0  0  0  0  0  0  0  0  0
   12.7010   -0.8940   22.2440 C   0  0  0  0  0  0  0  0  0  0  0  0
    5.3910    1.2530   17.9510 C   0  0  0  0  0  0  0  0  0  0  0  0
    6.7630   -0.5120   18.2540 C   0  0  0  0  0  0  0  0  0  0  0  0
    6.2650    0.3900   17.4100 N   0  0  0  0  0  0  0  0  0  0  0  0
  2  1  1  6
  2  3  1  0
  2  4  1  0
  3  5  1  0
  4  6  1  0
  5  7  1  0
  6  8  1  0
  7  9  1  0
  8 10  2  0
  8 11  1  0
  9 12  1  0
 10 13  1  0
 11 14  2  0
 12 15  2  0
 12 16  1  0
 13 17  2  0
 14 17  1  0
 15 18  1  0
 16 19  2  0
 18 20  2  0
 19 20  1  0
M  END
>  <Name>  (40) 
x0995-0A-x1249-0A_3019

>  <original SMILES>  (40) 
CC(CCOCc1ccncn1)NCc1ccccc1

>  <synthon>  (40) 
[Xe]c1ccccc1

>  <ref_pdb>  (40) 
p/x0995-0A-x1249-0A-3019.holo_minimised.pdb

>  <ref_mols>  (40) 
x0995_0A,x1249_0A

>  <IFP_score>  (40) 
0.5773502691896257

>  <SuCOS_score>  (40) 
0.6569062811012983

>  <AttchPnts_score>  (40) 
1

>  <Docking_score>  (40) 
-4.78764296

>  <LE_score>  (40) 
-0.23938214800000002

>  <EnergyRatio_score>  (40) 
4.85643543076931

>  <cmpd_id>  (40) 
['CHEMSPACE-BB:CSMB00109883721']

$$$$

     RDKit          3D

 22 23  0  0  0  0  0  0  0  0999 V2000
   11.3530    5.8950   23.4450 C   0  0  0  0  0  0  0  0  0  0  0  0
   10.4500    4.7090   23.8330 C   0  0  1  0  0  0  0  0  0  0  0  0
    9.1750    4.7060   23.0530 N   0  0  0  0  0  0  0  0  0  0  0  0
   11.2400    3.4150   23.5220 C   0  0  0  0  0  0  0  0  0  0  0  0
    8.0760    3.7140   23.2720 C   0  0  0  0  0  0  0  0  0  0  0  0
   10.5720    2.1980   23.6050 C   0  0  0  0  0  0  0  0  0  0  0  0
   12.5990    3.3800   23.1510 C   0  0  0  0  0  0  0  0  0  0  0  0
    7.1600    3.8610   24.0870 O   0  0  0  0  0  0  0  0  0  0  0  0
    8.1820    2.6180   22.4420 N   0  0  0  0  0  0  0  0  0  0  0  0
   11.2150    1.0050   23.3320 C   0  0  0  0  0  0  0  0  0  0  0  0
   13.2340    2.1560   22.8870 C   0  0  0  0  0  0  0  0  0  0  0  0
    7.9770    1.2560   22.9370 C   0  0  0  0  0  0  0  0  0  0  0  0
   12.5390    0.9700   22.9840 C   0  0  0  0  0  0  0  0  0  0  0  0
    6.6570    0.6060   22.5500 C   0  0  1  0  0  0  0  0  0  0  0  0
   13.3560   -0.7000   22.6500 Br  0  0  0  0  0  0  0  0  0  0  0  0
    5.5700    1.2670   23.2070 O   0  0  0  0  0  0  0  0  0  0  0  0
    6.4160    0.6170   21.0510 C   0  0  0  0  0  0  0  0  0  0  0  0
    7.1510   -0.2150   20.2040 C   0  0  0  0  0  0  0  0  0  0  0  0
    5.4460    1.4660   20.4810 C   0  0  0  0  0  0  0  0  0  0  0  0
    6.9240   -0.2020   18.8290 C   0  0  0  0  0  0  0  0  0  0  0  0
    5.2220    1.4750   19.1060 C   0  0  0  0  0  0  0  0  0  0  0  0
    5.9600    0.6430   18.2770 C   0  0  0  0  0  0  0  0  0  0  0  0
  2  1  1  6
  2  3  1  0
  2  4  1  0
  3  5  1  0
  4  6  2  0
  4  7  1  0
  5  8  2  0
  5  9  1  0
  6 10  1  0
  7 11  2  0
  9 12  1  0
 10 13  2  0
 11 13  1  0
 12 14  1  0
 13 15  1  0
 14 16  1  1
 14 17  1  0
 17 18  2  0
 17 19  1  0
 18 20  1  0
 19 21  2  0
 20 22  2  0
 21 22  1  0
M  END
>  <Name>  (41) 
x0946-0A-x0967-0A_7732

>  <original SMILES>  (41) 
CC(NC(=O)NCC(O)c1ccccc1)c1ccc(Br)cc1

>  <synthon>  (41) 
[Xe]c1ccccc1

>  <ref_pdb>  (41) 
p/x0946-0A-x0967-0A-7732.holo_minimised.pdb

>  <ref_mols>  (41) 
x0946_0A,x0967_0A

>  <IFP_score>  (41) 
0.5163977794943222

>  <SuCOS_score>  (41) 
0.5935400003889547

>  <AttchPnts_score>  (41) 
3

>  <Docking_score>  (41) 
-5.8394537

>  <LE_score>  (41) 
-0.26542971363636364

>  <EnergyRatio_score>  (41) 
2.4656940838233163

>  <cmpd_id>  (41) 
['ENAMINE:PV-002448562833', 'ENAMINE:Z1043821344']

$$$$

     RDKit          3D

 18 19  0  0  0  0  0  0  0  0999 V2000
   10.8440    1.2870   22.2550 O   0  0  0  0  0  0  0  0  0  0  0  0
    9.8410    0.6280   22.4250 C   0  0  0  0  0  0  0  0  0  0  0  0
    8.5830    0.9210   22.0120 N   0  0  0  0  0  0  0  0  0  0  0  0
    9.7900   -0.6520   23.1710 C   0  0  0  0  0  0  0  0  0  0  0  0
    7.6340    0.8590   22.9630 N   0  0  0  0  0  0  0  0  0  0  0  0
    9.1550   -0.6710   24.4010 C   0  0  0  0  0  0  0  0  0  0  0  0
   10.3630   -1.7300   22.5850 N   0  0  0  0  0  0  0  0  0  0  0  0
    6.4630    0.7300   22.4880 C   0  0  0  0  0  0  0  0  0  0  0  0
    9.0950   -1.8720   25.0870 C   0  0  0  0  0  0  0  0  0  0  0  0
   10.2830   -2.8720   23.2830 C   0  0  0  0  0  0  0  0  0  0  0  0
    6.2460    0.6840   21.0350 C   0  0  0  0  0  0  0  0  0  0  0  0
    9.6690   -2.9990   24.5200 C   0  0  0  0  0  0  0  0  0  0  0  0
    5.3020    1.5390   20.4710 C   0  0  0  0  0  0  0  0  0  0  0  0
    6.9840   -0.2020   20.2350 C   0  0  0  0  0  0  0  0  0  0  0  0
    5.0920    1.5230   19.1030 C   0  0  0  0  0  0  0  0  0  0  0  0
    6.7680   -0.2120   18.8570 C   0  0  0  0  0  0  0  0  0  0  0  0
    5.8260    0.6540   18.3180 C   0  0  0  0  0  0  0  0  0  0  0  0
    5.6390    0.6340   16.9920 O   0  0  0  0  0  0  0  0  0  0  0  0
  1  2  2  0
  2  3  1  0
  2  4  1  0
  3  5  1  0
  4  6  2  0
  4  7  1  0
  5  8  2  3
  6  9  1  0
  7 10  2  0
  8 11  1  0
  9 12  2  0
 10 12  1  0
 11 13  2  0
 11 14  1  0
 13 15  1  0
 14 16  2  0
 15 17  2  0
 16 17  1  0
 17 18  1  0
M  END
>  <Name>  (42) 
x0967-0A-x1077-0A_2364

>  <original SMILES>  (42) 
O=C(NN=Cc1ccc(O)cc1)c1ccccn1

>  <synthon>  (42) 
[Xe]c1ccccn1

>  <ref_pdb>  (42) 
p/x0967-0A-x1077-0A-2364.holo_minimised.pdb

>  <ref_mols>  (42) 
x0967_0A,x1077_0A

>  <IFP_score>  (42) 
0.6666666666666666

>  <SuCOS_score>  (42) 
0.5624589736423627

>  <AttchPnts_score>  (42) 
1

>  <Docking_score>  (42) 
-5.71193171

>  <LE_score>  (42) 
-0.3173295394444444

>  <EnergyRatio_score>  (42) 
3.3871862103865045

>  <cmpd_id>  (42) 
['MOLPORT:000-445-551', 'MOLPORT:000-739-755']

$$$$

     RDKit          3D

 29 32  0  0  0  0  0  0  0  0999 V2000
    5.9150    4.0250   31.5260 O   0  0  0  0  0  0  0  0  0  0  0  0
    5.6570    3.8830   30.3320 C   0  0  0  0  0  0  0  0  0  0  0  0
    4.9450    4.7890   29.5580 N   0  0  0  0  0  0  0  0  0  0  0  0
    6.1270    2.6600   29.6200 C   0  0  0  0  0  0  0  0  0  0  0  0
    5.5410    5.3030   28.2980 C   0  0  0  0  0  0  0  0  0  0  0  0
    7.2710    2.6880   28.8360 C   0  0  0  0  0  0  0  0  0  0  0  0
    5.3970    1.4690   29.7490 C   0  0  0  0  0  0  0  0  0  0  0  0
    6.5780    4.5590   27.6010 N   0  0  0  0  0  0  0  0  0  0  0  0
    5.1490    6.7580   27.4870 S   0  0  0  0  0  0  0  0  0  0  0  0
    7.6970    1.5480   28.1710 C   0  0  0  0  0  0  0  0  0  0  0  0
    5.8290    0.3200   29.0790 C   0  0  0  0  0  0  0  0  0  0  0  0
    6.9770    5.2710   26.4210 C   0  0  0  0  0  0  0  0  0  0  0  0
    6.3070    6.4750   26.2060 C   0  0  0  0  0  0  0  0  0  0  0  0
    6.9810    0.3690   28.2900 C   0  0  0  0  0  0  0  0  0  0  0  0
    7.9710    4.7940   25.5430 C   0  0  0  0  0  0  0  0  0  0  0  0
    6.6370    7.2340   25.0720 C   0  0  0  0  0  0  0  0  0  0  0  0
    8.3060    5.5550   24.3990 C   0  0  0  0  0  0  0  0  0  0  0  0
    7.6280    6.7700   24.1820 C   0  0  0  0  0  0  0  0  0  0  0  0
    9.3070    5.1230   23.4760 N   0  0  0  0  0  0  0  0  0  0  0  0
   10.9070    5.1600   23.9990 S   0  0  0  0  0  0  0  0  0  0  0  0
   11.6770    6.0460   23.1760 O   0  0  0  0  0  0  0  0  0  0  0  0
   10.7880    5.3530   25.4190 O   0  0  0  0  0  0  0  0  0  0  0  0
   11.4970    3.5020   23.7190 C   0  0  0  0  0  0  0  0  0  0  0  0
   10.7790    2.3680   24.1330 C   0  0  0  0  0  0  0  0  0  0  0  0
   12.7230    3.3060   23.0670 C   0  0  0  0  0  0  0  0  0  0  0  0
   11.2730    1.0790   23.9040 C   0  0  0  0  0  0  0  0  0  0  0  0
   13.2080    2.0130   22.8450 C   0  0  0  0  0  0  0  0  0  0  0  0
   12.4890    0.9030   23.2590 C   0  0  0  0  0  0  0  0  0  0  0  0
   13.1490   -0.8430   22.9580 Br  0  0  0  0  0  0  0  0  0  0  0  0
  1  2  2  0
  2  3  1  0
  2  4  1  0
  3  5  1  0
  4  6  2  0
  4  7  1  0
  5  8  2  0
  5  9  1  0
  6 10  1  0
  7 11  2  0
  8 12  1  0
  9 13  1  0
 12 13  2  0
 10 14  2  0
 11 14  1  0
 12 15  1  0
 13 16  1  0
 15 17  2  0
 16 18  2  0
 17 18  1  0
 17 19  1  0
 20 19  1  0
 20 21  2  0
 20 22  2  0
 20 23  1  0
 23 24  2  0
 23 25  1  0
 24 26  1  0
 25 27  2  0
 26 28  2  0
 27 28  1  0
 28 29  1  0
M  END
>  <Name>  (43) 
x0946-0A-x0354-0A_7933

>  <original SMILES>  (43) 
O=C(Nc1nc2cc(NS(=O)(=O)c3ccc(Br)cc3)ccc2s1)c1ccccc1

>  <synthon>  (43) 
[Xe]c1ccccc1

>  <ref_pdb>  (43) 
p/x0946-0A-x0354-0A-7933.holo_minimised.pdb

>  <ref_mols>  (43) 
x0946_0A,x0354_0A

>  <IFP_score>  (43) 
0.7071067811865476

>  <SuCOS_score>  (43) 
0.633365020723387

>  <AttchPnts_score>  (43) 
3

>  <Docking_score>  (43) 
-4.48735428

>  <LE_score>  (43) 
-0.15473635448275863

>  <EnergyRatio_score>  (43) 
2.0192217981895078

>  <cmpd_id>  (43) 
['MOLPORT:007-959-861']

$$$$

     RDKit          3D

 27 31  0  0  0  0  0  0  0  0999 V2000
    9.3200    1.3900   21.3020 O   0  0  0  0  0  0  0  0  0  0  0  0
    9.3720    0.1860   21.5960 C   0  0  0  0  0  0  0  0  0  0  0  0
    8.4340   -0.8670   20.9910 C   0  0  0  0  0  0  0  0  0  0  0  0
   10.3150   -0.3310   22.4650 N   0  0  0  0  0  0  0  0  0  0  0  0
    7.4060   -0.2640   20.0440 C   0  0  0  0  0  0  0  0  0  0  0  0
   10.0100   -1.2990   23.4900 C   0  0  0  0  0  0  0  0  0  0  0  0
   11.4310   -1.2420   22.1090 C   0  0  2  0  0  0  0  0  0  0  0  0
    7.5610   -0.4060   18.5560 C   0  0  0  0  0  0  0  0  0  0  0  0
    6.2240    0.4780   20.2460 C   0  0  0  0  0  0  0  0  0  0  0  0
   10.9880   -2.2290   23.2410 C   0  0  1  0  0  0  0  0  0  0  0  0
   12.8550   -0.6230   22.2150 C   0  0  0  0  0  0  0  0  0  0  0  0
    6.5070    0.2440   18.0020 N   0  0  0  0  0  0  0  0  0  0  0  0
    5.7050    0.7770   18.9770 C   0  0  0  0  0  0  0  0  0  0  0  0
    5.4420    0.9930   21.4650 C   0  0  0  0  0  0  0  0  0  0  0  0
   12.0990   -2.5540   24.1860 C   0  0  0  0  0  0  0  0  0  0  0  0
   13.4750   -0.9110   23.4590 N   0  0  0  0  0  0  0  0  0  0  0  0
    4.6060    1.4690   18.6660 N   0  0  0  0  0  0  0  0  0  0  0  0
    4.1780    1.7830   21.1880 C   0  0  0  0  0  0  0  0  0  0  0  0
   13.3700   -2.3160   23.6820 C   0  0  0  0  0  0  0  0  0  0  0  0
   12.7180   -0.2980   24.5010 C   0  0  0  0  0  0  0  0  0  0  0  0
    3.8830    1.9450   19.7040 C   0  0  0  0  0  0  0  0  0  0  0  0
   12.1920    0.9590   24.1960 C   0  0  0  0  0  0  0  0  0  0  0  0
   10.9220    1.2730   24.6930 C   0  0  0  0  0  0  0  0  0  0  0  0
   12.8670    1.9240   23.4510 C   0  0  0  0  0  0  0  0  0  0  0  0
   10.2400    2.4920   24.5350 C   0  0  0  0  0  0  0  0  0  0  0  0
   12.1800    3.2900   23.2630 C   0  0  0  0  0  0  0  0  0  0  0  0
   10.8190    3.5350   23.8430 C   0  0  0  0  0  0  0  0  0  0  0  0
  1  2  2  0
  2  3  1  0
  2  4  1  0
  3  5  1  0
  4  6  1  0
  4  7  1  0
  5  8  2  0
  5  9  1  0
 10  6  1  1
  7 10  1  0
  7 11  1  1
  8 12  1  0
  9 13  2  0
 12 13  1  0
  9 14  1  0
 10 15  1  0
 11 16  1  0
 13 17  1  0
 14 18  2  0
 15 19  1  0
 16 19  1  0
 16 20  1  0
 17 21  2  0
 18 21  1  0
 20 22  1  0
 22 23  2  0
 22 24  1  0
 23 25  1  0
 24 26  2  0
 25 27  2  0
 26 27  1  0
M  END
>  <Name>  (44) 
x1093-0A-x0946-0A_261

>  <original SMILES>  (44) 
O=C(Cc1c[nH]c2ncccc12)N1CC2CCN(Cc3ccccc3)CC21

>  <synthon>  (44) 
[Xe]c1ccccc1

>  <ref_pdb>  (44) 
p/x1093-0A-x0946-0A-261.holo_minimised.pdb

>  <ref_mols>  (44) 
x1093_0A,x0946_0A

>  <IFP_score>  (44) 
0.5773502691896257

>  <SuCOS_score>  (44) 
0.5817239719880527

>  <AttchPnts_score>  (44) 
2

>  <Docking_score>  (44) 
-7.98446321

>  <LE_score>  (44) 
-0.29572085962962963

>  <EnergyRatio_score>  (44) 
2.2902131477786822

>  <cmpd_id>  (44) 
['ENAMINE:PV-000068062651']

$$$$

     RDKit          3D

 25 28  0  0  0  0  0  0  0  0999 V2000
    9.2060    1.3000   21.2100 O   0  0  0  0  0  0  0  0  0  0  0  0
    9.1760    0.1040   21.5530 C   0  0  0  0  0  0  0  0  0  0  0  0
    8.3850   -0.9380   20.7960 C   0  0  0  0  0  0  0  0  0  0  0  0
    9.8700   -0.3690   22.6460 N   0  0  0  0  0  0  0  0  0  0  0  0
    7.4590   -0.2740   19.7660 C   0  0  0  0  0  0  0  0  0  0  0  0
   10.0830   -1.8130   22.7610 C   0  0  0  0  0  0  0  0  0  0  0  0
    9.9540    0.3350   23.9080 C   0  0  0  0  0  0  0  0  0  0  0  0
    7.7350   -0.3090   18.4590 N   0  0  0  0  0  0  0  0  0  0  0  0
    6.2700    0.4350   20.0450 C   0  0  0  0  0  0  0  0  0  0  0  0
   11.4940   -2.1240   23.2210 C   0  0  0  0  0  0  0  0  0  0  0  0
   11.1110   -0.1950   24.7590 C   0  0  0  0  0  0  0  0  0  0  0  0
    6.7190    0.3920   17.8460 O   0  0  0  0  0  0  0  0  0  0  0  0
    5.8620    0.8340   18.8060 C   0  0  0  0  0  0  0  0  0  0  0  0
    5.4880    0.7840   21.3100 C   0  0  0  0  0  0  0  0  0  0  0  0
   12.0600   -1.0930   24.1060 N   0  0  0  0  0  0  0  0  0  0  0  0
    4.6430    1.6440   18.5880 C   0  0  0  0  0  0  0  0  0  0  0  0
    4.3260    1.5460   21.0940 C   0  0  0  0  0  0  0  0  0  0  0  0
   13.1270   -0.3210   23.5510 C   0  0  0  0  0  0  0  0  0  0  0  0
    3.8960    1.9710   19.8430 C   0  0  0  0  0  0  0  0  0  0  0  0
   12.7860    1.0610   23.3830 C   0  0  0  0  0  0  0  0  0  0  0  0
   13.7310    1.8920   22.6190 C   0  0  0  0  0  0  0  0  0  0  0  0
   11.6460    1.7800   23.8650 C   0  0  0  0  0  0  0  0  0  0  0  0
   13.5300    3.2450   22.3890 C   0  0  0  0  0  0  0  0  0  0  0  0
   11.4730    3.1590   23.6140 C   0  0  0  0  0  0  0  0  0  0  0  0
   12.4090    3.8760   22.8810 C   0  0  0  0  0  0  0  0  0  0  0  0
  1  2  2  0
  2  3  1  0
  2  4  1  0
  3  5  1  0
  4  6  1  0
  4  7  1  0
  5  8  2  0
  5  9  1  0
  6 10  1  0
  7 11  1  0
  8 12  1  0
  9 13  2  0
 12 13  1  0
  9 14  1  0
 10 15  1  0
 11 15  1  0
 13 16  1  0
 14 17  2  0
 15 18  1  0
 16 19  2  0
 17 19  1  0
 18 20  1  0
 20 21  2  0
 20 22  1  0
 21 23  1  0
 22 24  2  0
 23 25  2  0
 24 25  1  0
M  END
>  <Name>  (45) 
x1093-0A-x0946-0A_240

>  <original SMILES>  (45) 
O=C(Cc1noc2ccccc12)N1CCN(Cc2ccccc2)CC1

>  <synthon>  (45) 
[Xe]c1ccccc1

>  <ref_pdb>  (45) 
p/x1093-0A-x0946-0A-240.holo_minimised.pdb

>  <ref_mols>  (45) 
x1093_0A,x0946_0A

>  <IFP_score>  (45) 
0.816496580927726

>  <SuCOS_score>  (45) 
0.5711446542897076

>  <AttchPnts_score>  (45) 
1

>  <Docking_score>  (45) 
-7.50030375

>  <LE_score>  (45) 
-0.30001215

>  <EnergyRatio_score>  (45) 
3.623330294088568

>  <cmpd_id>  (45) 
['ENAMINE:PV-000100419041']

$$$$

     RDKit          3D

 22 23  0  0  0  0  0  0  0  0999 V2000
    9.7870    1.4310   21.4800 N   0  0  0  0  0  0  0  0  0  0  0  0
    9.6840    0.4620   22.1000 C   0  0  0  0  0  0  0  0  0  0  0  0
    9.5700   -0.6890   22.9350 C   0  0  0  0  0  0  0  0  0  0  0  0
   10.3350   -1.7320   22.5250 N   0  0  0  0  0  0  0  0  0  0  0  0
    8.7360   -0.7130   24.0720 C   0  0  0  0  0  0  0  0  0  0  0  0
   10.2840   -2.8450   23.2650 C   0  0  0  0  0  0  0  0  0  0  0  0
    8.7280   -1.8970   24.8000 C   0  0  0  0  0  0  0  0  0  0  0  0
    7.9460    0.3790   24.4610 N   0  0  0  0  0  0  0  0  0  0  0  0
    9.5060   -2.9740   24.3970 C   0  0  0  0  0  0  0  0  0  0  0  0
    8.3740    1.4540   25.3630 C   0  0  0  0  0  0  0  0  0  0  0  0
    7.9510    2.8290   24.7870 C   0  0  0  0  0  0  0  0  0  0  0  0
    8.3860    3.9680   25.5690 N   0  0  0  0  0  0  0  0  0  0  0  0
    8.8560    5.1110   24.9850 C   0  0  0  0  0  0  0  0  0  0  0  0
    8.1070    6.0000   24.5820 O   0  0  0  0  0  0  0  0  0  0  0  0
   10.2100    5.0950   24.9380 O   0  0  0  0  0  0  0  0  0  0  0  0
   10.8010    4.9430   23.6390 C   0  0  0  0  0  0  0  0  0  0  0  0
   11.4440    3.6770   23.4690 C   0  0  0  0  0  0  0  0  0  0  0  0
   10.9350    2.5150   24.0620 C   0  0  0  0  0  0  0  0  0  0  0  0
   12.6150    3.5440   22.6930 C   0  0  0  0  0  0  0  0  0  0  0  0
   11.5590    1.2690   23.8920 C   0  0  0  0  0  0  0  0  0  0  0  0
   13.2400    2.2950   22.5230 C   0  0  0  0  0  0  0  0  0  0  0  0
   12.7180    1.1550   23.1150 C   0  0  0  0  0  0  0  0  0  0  0  0
  1  2  3  0
  2  3  1  0
  3  4  2  0
  3  5  1  0
  4  6  1  0
  5  7  2  0
  5  8  1  0
  6  9  2  0
  7  9  1  0
  8 10  1  0
 10 11  1  0
 11 12  1  0
 12 13  1  0
 13 14  2  0
 13 15  1  0
 15 16  1  0
 16 17  1  0
 17 18  2  0
 17 19  1  0
 18 20  1  0
 19 21  2  0
 20 22  2  0
 21 22  1  0
M  END
>  <Name>  (46) 
x1077-0A-x0946-0A_1285

>  <original SMILES>  (46) 
N#Cc1ncccc1NCCNC(=O)OCc1ccccc1

>  <synthon>  (46) 
[Xe]c1ccccc1

>  <ref_pdb>  (46) 
p/x1077-0A-x0946-0A-1285.holo_minimised.pdb

>  <ref_mols>  (46) 
x1077_0A,x0946_0A

>  <IFP_score>  (46) 
0.7071067811865476

>  <SuCOS_score>  (46) 
0.5870790133645712

>  <AttchPnts_score>  (46) 
3

>  <Docking_score>  (46) 
-5.14899635

>  <LE_score>  (46) 
-0.23404528863636365

>  <EnergyRatio_score>  (46) 
3.0752143841421073

>  <cmpd_id>  (46) 
['CHEMSPACE-BB:CSMB00153708536']

$$$$

     RDKit          3D

 22 23  0  0  0  0  0  0  0  0999 V2000
    8.8280    0.5330   26.9440 C   0  0  0  0  0  0  0  0  0  0  0  0
    8.7240    1.3960   25.7640 N   0  0  0  0  0  0  0  0  0  0  0  0
    8.1820    2.7730   26.0020 C   0  0  0  0  0  0  0  0  0  0  0  0
    8.2040    0.6790   24.5730 C   0  0  0  0  0  0  0  0  0  0  0  0
    8.5830    3.8240   24.9350 C   0  0  0  0  0  0  0  0  0  0  0  0
    8.8520   -0.5010   24.1490 C   0  0  0  0  0  0  0  0  0  0  0  0
    9.2540    5.1190   25.4770 C   0  0  0  0  0  0  0  0  0  0  0  0
    8.7830   -1.6750   24.9020 C   0  0  0  0  0  0  0  0  0  0  0  0
    9.5950   -0.5760   22.9610 C   0  0  0  0  0  0  0  0  0  0  0  0
   10.5460    5.3540   24.8470 O   0  0  0  0  0  0  0  0  0  0  0  0
    9.4510   -2.8630   24.4420 C   0  0  0  0  0  0  0  0  0  0  0  0
   10.2300   -1.6890   22.5120 N   0  0  0  0  0  0  0  0  0  0  0  0
    9.7410    0.5580   22.1080 C   0  0  0  0  0  0  0  0  0  0  0  0
   10.5490    4.7190   23.5930 C   0  0  0  0  0  0  0  0  0  0  0  0
   10.1450   -2.7960   23.2580 C   0  0  0  0  0  0  0  0  0  0  0  0
    9.8410    1.5110   21.4730 N   0  0  0  0  0  0  0  0  0  0  0  0
   11.3310    3.5360   23.4590 C   0  0  0  0  0  0  0  0  0  0  0  0
   12.5510    3.5350   22.7870 C   0  0  0  0  0  0  0  0  0  0  0  0
   10.8730    2.3140   24.0000 C   0  0  0  0  0  0  0  0  0  0  0  0
   13.2950    2.3560   22.6440 C   0  0  0  0  0  0  0  0  0  0  0  0
   11.6020    1.1270   23.8680 C   0  0  0  0  0  0  0  0  0  0  0  0
   12.8130    1.1250   23.1880 C   0  0  0  0  0  0  0  0  0  0  0  0
  1  2  1  0
  2  3  1  0
  2  4  1  0
  3  5  1  0
  4  6  1  0
  5  7  1  0
  6  8  2  0
  6  9  1  0
  7 10  1  0
  8 11  1  0
  9 12  2  0
  9 13  1  0
 10 14  1  0
 11 15  2  0
 12 15  1  0
 13 16  3  0
 14 17  1  0
 17 18  2  0
 17 19  1  0
 18 20  1  0
 19 21  2  0
 20 22  2  0
 21 22  1  0
M  END
>  <Name>  (47) 
x1077-0A-x0946-0A_927

>  <original SMILES>  (47) 
CN(CCCOCc1ccccc1)Cc1cccnc1C#N

>  <synthon>  (47) 
[Xe]c1ccccc1

>  <ref_pdb>  (47) 
p/x1077-0A-x0946-0A-927.holo_minimised.pdb

>  <ref_mols>  (47) 
x1077_0A,x0946_0A

>  <IFP_score>  (47) 
0.6324555320336759

>  <SuCOS_score>  (47) 
0.5829315380564045

>  <AttchPnts_score>  (47) 
0

>  <Docking_score>  (47) 
-4.76478243

>  <LE_score>  (47) 
-0.21658101954545456

>  <EnergyRatio_score>  (47) 
3.393082425088143

>  <cmpd_id>  (47) 
['CHEMSPACE-BB:CSMB00017694348']

$$$$

     RDKit          3D

 22 23  0  0  0  0  0  0  0  0999 V2000
    9.8570    1.4560   21.4310 N   0  0  0  0  0  0  0  0  0  0  0  0
    9.7900    0.4710   22.0150 C   0  0  0  0  0  0  0  0  0  0  0  0
    9.6840   -0.6850   22.8370 C   0  0  0  0  0  0  0  0  0  0  0  0
    9.0710   -0.5450   24.0590 C   0  0  0  0  0  0  0  0  0  0  0  0
   10.1940   -1.8350   22.3590 N   0  0  0  0  0  0  0  0  0  0  0  0
    8.9540   -1.6400   24.8830 C   0  0  0  0  0  0  0  0  0  0  0  0
   10.0680   -2.8900   23.1770 C   0  0  0  0  0  0  0  0  0  0  0  0
    8.3310   -1.4220   26.1110 N   0  0  0  0  0  0  0  0  0  0  0  0
    9.4680   -2.8510   24.4230 C   0  0  0  0  0  0  0  0  0  0  0  0
    8.7390   -0.2200   26.8490 C   0  0  0  0  0  0  0  0  0  0  0  0
    7.9160    0.8460   26.4860 C   0  0  0  0  0  0  0  0  0  0  0  0
    8.5260    1.9320   25.6260 C   0  0  0  0  0  0  0  0  0  0  0  0
    8.0530    3.3960   25.7360 C   0  0  0  0  0  0  0  0  0  0  0  0
    8.4940    4.1270   24.5860 O   0  0  0  0  0  0  0  0  0  0  0  0
    9.5330    5.0930   24.8270 C   0  0  0  0  0  0  0  0  0  0  0  0
   10.6030    4.9260   23.7590 C   0  0  0  0  0  0  0  0  0  0  0  0
   11.2520    3.6550   23.6260 C   0  0  0  0  0  0  0  0  0  0  0  0
   12.4770    3.5830   22.9660 C   0  0  0  0  0  0  0  0  0  0  0  0
   10.7270    2.4510   24.1160 C   0  0  0  0  0  0  0  0  0  0  0  0
   13.1570    2.3630   22.7870 C   0  0  0  0  0  0  0  0  0  0  0  0
   11.4040    1.2250   23.9410 C   0  0  0  0  0  0  0  0  0  0  0  0
   12.6220    1.1820   23.2700 C   0  0  0  0  0  0  0  0  0  0  0  0
  1  2  3  0
  2  3  1  0
  3  4  2  0
  3  5  1  0
  4  6  1  0
  5  7  2  0
  6  8  1  0
  6  9  2  0
  7  9  1  0
  8 10  1  0
 10 11  1  0
 11 12  1  0
 12 13  1  0
 13 14  1  0
 14 15  1  0
 15 16  1  0
 16 17  1  0
 17 18  2  0
 17 19  1  0
 18 20  1  0
 19 21  2  0
 20 22  2  0
 21 22  1  0
M  END
>  <Name>  (48) 
x1077-0A-x0946-0A_691

>  <original SMILES>  (48) 
N#Cc1cc(NCCCCOCCc2ccccc2)ccn1

>  <synthon>  (48) 
[Xe]c1ccccc1

>  <ref_pdb>  (48) 
p/x1077-0A-x0946-0A-691.holo_minimised.pdb

>  <ref_mols>  (48) 
x1077_0A,x0946_0A

>  <IFP_score>  (48) 
0.6666666666666666

>  <SuCOS_score>  (48) 
0.5587473811410886

>  <AttchPnts_score>  (48) 
1

>  <Docking_score>  (48) 
-4.78877974

>  <LE_score>  (48) 
-0.21767180636363637

>  <EnergyRatio_score>  (48) 
3.74225531488842

>  <cmpd_id>  (48) 
['ENAMINE:Z2089529073']

$$$$

     RDKit          3D

 22 23  0  0  0  0  0  0  0  0999 V2000
    1.5900    1.6660   22.0470 C   0  0  0  0  0  0  0  0  0  0  0  0
    2.8810    1.9640   22.8130 C   0  0  2  0  0  0  0  0  0  0  0  0
    2.9830    3.4970   22.9480 C   0  0  0  0  0  0  0  0  0  0  0  0
    3.9960    1.3660   22.0610 N   0  0  0  0  0  0  0  0  0  0  0  0
    3.1600    3.9460   24.3450 N   0  0  0  0  0  0  0  0  0  0  0  0
    4.8000    0.4180   22.7060 C   0  0  0  0  0  0  0  0  0  0  0  0
    3.8030    1.2420   20.6250 C   0  0  0  0  0  0  0  0  0  0  0  0
    2.0750    4.8700   24.7940 C   0  0  0  0  0  0  0  0  0  0  0  0
    2.7320    1.5370   20.1160 O   0  0  0  0  0  0  0  0  0  0  0  0
    4.8690    0.7940   19.7130 C   0  0  0  0  0  0  0  0  0  0  0  0
    2.2370    5.7910   25.5770 O   0  0  0  0  0  0  0  0  0  0  0  0
    0.6800    4.5750   24.1810 C   0  0  0  0  0  0  0  0  0  0  0  0
    4.8770    1.4700   18.5470 C   0  0  0  0  0  0  0  0  0  0  0  0
    5.7500   -0.1910   19.9830 N   0  0  0  0  0  0  0  0  0  0  0  0
    0.5350    3.0640   23.9610 C   0  0  0  0  0  0  0  0  0  0  0  0
   -0.4610    4.9890   25.1250 C   0  0  0  0  0  0  0  0  0  0  0  0
    5.7870    1.1720   17.5980 C   0  0  0  0  0  0  0  0  0  0  0  0
    6.6280   -0.4180   18.9720 C   0  0  0  0  0  0  0  0  0  0  0  0
   -0.6140    2.8560   23.2380 C   0  0  0  0  0  0  0  0  0  0  0  0
   -1.6550    4.8190   24.4060 C   0  0  0  0  0  0  0  0  0  0  0  0
    6.6950    0.2170   17.7790 N   0  0  0  0  0  0  0  0  0  0  0  0
   -1.7270    3.4650   24.0730 C   0  0  0  0  0  0  0  0  0  0  0  0
  2  1  1  6
  2  3  1  0
  2  4  1  0
  3  5  1  0
  4  6  1  0
  4  7  1  0
  5  8  1  0
  7  9  2  0
  7 10  1  0
  8 11  2  0
  8 12  1  0
 10 13  2  0
 10 14  1  0
 12 15  1  0
 12 16  1  0
 13 17  1  0
 14 18  2  0
 15 19  1  0
 16 20  1  0
 17 21  2  0
 18 21  1  0
 19 22  1  0
 20 22  1  0
M  END
>  <Name>  (49) 
x0995-0A-x0540-0A_3553

>  <original SMILES>  (49) 
CC(CNC(=O)C1CCCCC1)N(C)C(=O)c1ccncn1

>  <synthon>  (49) 
[Xe]C1CCCCC1

>  <ref_pdb>  (49) 
p/x0995-0A-x0540-0A-3553.holo_minimised.pdb

>  <ref_mols>  (49) 
x0995_0A,x0540_0A

>  <IFP_score>  (49) 
0.5773502691896257

>  <SuCOS_score>  (49) 
0.632204827134901

>  <AttchPnts_score>  (49) 
2

>  <Docking_score>  (49) 
-3.36182737

>  <LE_score>  (49) 
-0.152810335

>  <EnergyRatio_score>  (49) 
3.4632670998779433

>  <cmpd_id>  (49) 
['ENAMINE:PV-001056049697']

$$$$

     RDKit          3D

 22 23  0  0  0  0  0  0  0  0999 V2000
    9.0540    4.7920   22.9350 N   0  0  0  0  0  0  0  0  0  0  0  0
   10.2890    4.9040   24.0820 S   0  0  0  0  0  0  0  0  0  0  0  0
    9.6470    5.1440   25.3560 O   0  0  0  0  0  0  0  0  0  0  0  0
   11.2760    5.8480   23.5710 O   0  0  0  0  0  0  0  0  0  0  0  0
   11.0030    3.2670   24.0620 C   0  0  0  0  0  0  0  0  0  0  0  0
   10.3590    2.0100   24.6050 C   0  0  0  0  0  0  0  0  0  0  0  0
   12.2300    3.1480   23.5190 C   0  0  0  0  0  0  0  0  0  0  0  0
   11.0620    0.7830   24.5060 C   0  0  0  0  0  0  0  0  0  0  0  0
   12.8810    1.8970   23.4460 C   0  0  0  0  0  0  0  0  0  0  0  0
   12.3340    0.7270   23.9100 C   0  0  0  0  0  0  0  0  0  0  0  0
   13.1930   -0.3950   23.6880 N   0  0  0  0  0  0  0  0  0  0  0  0
   13.2130   -1.7410   24.1980 C   0  0  0  0  0  0  0  0  0  0  0  0
   13.9220   -2.6060   23.7170 O   0  0  0  0  0  0  0  0  0  0  0  0
   12.4270   -2.1370   25.2790 C   0  0  0  0  0  0  0  0  0  0  0  0
   11.9500   -3.4910   25.2170 O   0  0  0  0  0  0  0  0  0  0  0  0
   10.5190   -3.6150   25.2430 C   0  0  0  0  0  0  0  0  0  0  0  0
   10.0660   -2.6150   24.4020 C   0  0  0  0  0  0  0  0  0  0  0  0
    9.2320   -1.5970   24.8590 C   0  0  0  0  0  0  0  0  0  0  0  0
   10.4620   -2.6120   23.0710 C   0  0  0  0  0  0  0  0  0  0  0  0
    8.8500   -0.6210   23.9530 C   0  0  0  0  0  0  0  0  0  0  0  0
   10.1030   -1.6780   22.1760 N   0  0  0  0  0  0  0  0  0  0  0  0
    9.3060   -0.6950   22.6380 C   0  0  0  0  0  0  0  0  0  0  0  0
  2  1  1  0
  2  3  2  0
  2  4  2  0
  2  5  1  0
  5  6  2  0
  5  7  1  0
  6  8  1  0
  7  9  2  0
  8 10  2  0
  9 10  1  0
 10 11  1  0
 11 12  1  0
 12 13  2  0
 12 14  1  0
 14 15  1  0
 15 16  1  0
 16 17  1  0
 17 18  2  0
 17 19  1  0
 18 20  1  0
 19 21  2  0
 20 22  2  0
 21 22  1  0
M  END
>  <Name>  (50) 
x0161-0A-x1077-0A_627

>  <original SMILES>  (50) 
NS(=O)(=O)c1ccc(NC(=O)COCc2cccnc2)cc1

>  <synthon>  (50) 
[Xe]c1cccnc1

>  <ref_pdb>  (50) 
p/x0161-0A-x1077-0A-627.holo_minimised.pdb

>  <ref_mols>  (50) 
x0161_0A,x1077_0A

>  <IFP_score>  (50) 
0.5163977794943222

>  <SuCOS_score>  (50) 
0.5936863389318079

>  <AttchPnts_score>  (50) 
3

>  <Docking_score>  (50) 
-5.49644184

>  <LE_score>  (50) 
-0.24983826545454546

>  <EnergyRatio_score>  (50) 
3.522412108417653

>  <cmpd_id>  (50) 
['ENAMINE:Z2098011937']

$$$$

     RDKit          3D

 22 23  0  0  0  0  0  0  0  0999 V2000
    9.1500    4.9960   22.8540 N   0  0  0  0  0  0  0  0  0  0  0  0
   10.4150    5.0930   23.9560 S   0  0  0  0  0  0  0  0  0  0  0  0
    9.8320    5.2360   25.2730 O   0  0  0  0  0  0  0  0  0  0  0  0
   11.3370    6.0940   23.4690 O   0  0  0  0  0  0  0  0  0  0  0  0
   11.1990    3.4950   23.8360 C   0  0  0  0  0  0  0  0  0  0  0  0
   10.6240    2.3730   24.4200 C   0  0  0  0  0  0  0  0  0  0  0  0
   12.4060    3.3810   23.1540 C   0  0  0  0  0  0  0  0  0  0  0  0
   11.2540    1.1300   24.3310 C   0  0  0  0  0  0  0  0  0  0  0  0
   13.0340    2.1360   23.0650 C   0  0  0  0  0  0  0  0  0  0  0  0
   12.4630    1.0030   23.6550 C   0  0  0  0  0  0  0  0  0  0  0  0
   13.1010   -0.2440   23.5680 C   0  0  0  0  0  0  0  0  0  0  0  0
   12.8680   -1.0410   24.7150 C   0  0  0  0  0  0  0  0  0  0  0  0
   12.9290   -2.4270   24.4990 C   0  0  0  0  0  0  0  0  0  0  0  0
   14.0530   -2.8130   23.7080 O   0  0  0  0  0  0  0  0  0  0  0  0
   11.9260   -3.1740   25.0720 O   0  0  0  0  0  0  0  0  0  0  0  0
   10.8290   -3.5610   24.2080 C   0  0  0  0  0  0  0  0  0  0  0  0
   10.2430   -2.4560   23.6950 C   0  0  0  0  0  0  0  0  0  0  0  0
    9.2520   -1.6030   24.3510 C   0  0  0  0  0  0  0  0  0  0  0  0
   10.6090   -2.0870   22.4350 C   0  0  0  0  0  0  0  0  0  0  0  0
    8.7390   -0.4860   23.7330 C   0  0  0  0  0  0  0  0  0  0  0  0
   10.1240   -1.0090   21.8040 N   0  0  0  0  0  0  0  0  0  0  0  0
    9.2230   -0.2390   22.4490 C   0  0  0  0  0  0  0  0  0  0  0  0
  2  1  1  0
  2  3  2  0
  2  4  2  0
  2  5  1  0
  5  6  2  0
  5  7  1  0
  6  8  1  0
  7  9  2  0
  8 10  2  0
  9 10  1  0
 10 11  1  0
 11 12  1  0
 12 13  1  0
 13 14  2  0
 13 15  1  0
 15 16  1  0
 16 17  1  0
 17 18  2  0
 17 19  1  0
 18 20  1  0
 19 21  2  0
 20 22  2  0
 21 22  1  0
M  END
>  <Name>  (51) 
x0161-0A-x1077-0A_238

>  <original SMILES>  (51) 
NS(=O)(=O)c1ccc(CCC(=O)OCc2cccnc2)cc1

>  <synthon>  (51) 
[Xe]c1cccnc1

>  <ref_pdb>  (51) 
p/x0161-0A-x1077-0A-238.holo_minimised.pdb

>  <ref_mols>  (51) 
x0161_0A,x1077_0A

>  <IFP_score>  (51) 
0.5773502691896257

>  <SuCOS_score>  (51) 
0.5512667916855644

>  <AttchPnts_score>  (51) 
3

>  <Docking_score>  (51) 
-6.26173401

>  <LE_score>  (51) 
-0.28462427318181815

>  <EnergyRatio_score>  (51) 
3.9367357585962877

>  <cmpd_id>  (51) 
['ENAMINE:Z242545388']

$$$$

     RDKit          3D

 25 27  0  0  0  0  0  0  0  0999 V2000
    7.2650   -0.2410   21.8630 C   0  0  0  0  0  0  0  0  0  0  0  0
    8.0230   -0.9040   20.7840 C   0  0  0  0  0  0  0  0  0  0  0  0
    7.2770   -1.9150   20.0410 N   0  0  0  0  0  0  0  0  0  0  0  0
    6.4640   -2.9150   20.7440 C   0  0  0  0  0  0  0  0  0  0  0  0
    6.8390   -1.7040   18.7350 C   0  0  0  0  0  0  0  0  0  0  0  0
    6.3240   -2.8080   22.1440 C   0  0  0  0  0  0  0  0  0  0  0  0
    6.7550   -2.6500   17.9660 O   0  0  0  0  0  0  0  0  0  0  0  0
    6.4420   -0.3260   18.2780 C   0  0  0  0  0  0  0  0  0  0  0  0
    6.2830   -4.1140   22.7650 N   0  0  0  0  0  0  0  0  0  0  0  0
    5.5670   -0.1570   19.4050 C   0  0  0  0  0  0  0  0  0  0  0  0
    6.5680    0.6130   17.3930 N   0  0  0  0  0  0  0  0  0  0  0  0
    7.2970   -4.9720   22.5270 C   0  0  0  0  0  0  0  0  0  0  0  0
    5.0910    1.0990   19.1130 C   0  0  0  0  0  0  0  0  0  0  0  0
    5.6830    1.5430   17.9320 O   0  0  0  0  0  0  0  0  0  0  0  0
    7.0980   -6.0860   22.0510 O   0  0  0  0  0  0  0  0  0  0  0  0
    8.7310   -4.5360   22.8620 C   0  0  0  0  0  0  0  0  0  0  0  0
    4.1430    2.0200   19.7470 C   0  0  0  0  0  0  0  0  0  0  0  0
    9.1330   -3.0310   22.9370 C   0  0  0  0  0  0  0  0  0  0  0  0
    9.6640   -5.5620   23.4600 C   0  0  0  0  0  0  0  0  0  0  0  0
    9.6570   -5.2960   21.9880 C   0  0  0  0  0  0  0  0  0  0  0  0
    8.8320   -3.0420   24.3760 C   0  0  0  0  0  0  0  0  0  0  0  0
    9.5780   -1.9970   22.1860 N   0  0  0  0  0  0  0  0  0  0  0  0
    9.0260   -1.7350   25.0440 C   0  0  0  0  0  0  0  0  0  0  0  0
    9.7370   -0.8180   22.8860 C   0  0  0  0  0  0  0  0  0  0  0  0
    9.4790   -0.6460   24.2670 C   0  0  0  0  0  0  0  0  0  0  0  0
  1  2  1  0
  2  3  1  0
  3  4  1  0
  3  5  1  0
  4  6  1  0
  5  7  2  0
  5  8  1  0
  6  9  1  0
  8 10  1  0
  8 11  2  0
  9 12  1  0
 10 13  2  0
 11 14  1  0
 13 14  1  0
 12 15  2  0
 16 12  1  0
 13 17  1  0
 16 18  1  0
 16 19  1  0
 16 20  1  0
 19 20  1  0
 18 21  2  0
 18 22  1  0
 21 23  1  0
 22 24  2  0
 23 25  2  0
 24 25  1  0
M  END
>  <Name>  (52) 
x0397-0A-x1077-0A_233

>  <original SMILES>  (52) 
CCN(CCNC(=O)C1(c2ccccn2)CC1)C(=O)c1cc(C)on1

>  <synthon>  (52) 
[Xe]c1ccccn1

>  <ref_pdb>  (52) 
p/x0397-0A-x1077-0A-233.holo_minimised.pdb

>  <ref_mols>  (52) 
x0397_0A,x1077_0A

>  <IFP_score>  (52) 
0.5163977794943222

>  <SuCOS_score>  (52) 
0.5790107811874162

>  <AttchPnts_score>  (52) 
2

>  <Docking_score>  (52) 
-6.35052156

>  <LE_score>  (52) 
-0.2540208624

>  <EnergyRatio_score>  (52) 
1.6561365497739737

>  <cmpd_id>  (52) 
['ENAMINE:PV-001444067193']

$$$$

     RDKit          3D

 23 25  0  0  0  0  0  0  0  0999 V2000
    4.2290    2.1430   19.4960 C   0  0  0  0  0  0  0  0  0  0  0  0
    5.1670    1.1340   19.0060 C   0  0  0  0  0  0  0  0  0  0  0  0
    5.5870   -0.0590   19.5020 C   0  0  0  0  0  0  0  0  0  0  0  0
    5.7800    1.3600   17.8220 O   0  0  0  0  0  0  0  0  0  0  0  0
    6.4860   -0.5680   18.5650 C   0  0  0  0  0  0  0  0  0  0  0  0
    6.6060    0.2960   17.5500 N   0  0  0  0  0  0  0  0  0  0  0  0
    7.2340   -1.8510   18.5820 C   0  0  0  0  0  0  0  0  0  0  0  0
    7.1430   -2.6240   17.6650 O   0  0  0  0  0  0  0  0  0  0  0  0
    8.0250   -2.1750   19.6850 N   0  0  0  0  0  0  0  0  0  0  0  0
    7.4300   -2.3350   20.9900 C   0  0  2  0  0  0  0  0  0  0  0  0
    6.1070   -1.6760   21.1440 C   0  0  0  0  0  0  0  0  0  0  0  0
    7.4890   -1.0400   21.8450 C   0  0  0  0  0  0  0  0  0  0  0  0
    7.4640   -3.7110   21.7130 C   0  0  0  0  0  0  0  0  0  0  0  0
    8.4340    0.0630   21.3820 N   0  0  0  0  0  0  0  0  0  0  0  0
    6.5680   -4.8030   21.4530 C   0  0  0  0  0  0  0  0  0  0  0  0
    6.2580   -4.3030   22.6350 C   0  0  0  0  0  0  0  0  0  0  0  0
    9.6540    0.1500   22.1710 C   0  0  0  0  0  0  0  0  0  0  0  0
    9.6390   -0.9710   22.9610 C   0  0  0  0  0  0  0  0  0  0  0  0
    8.9940   -0.8860   24.1930 C   0  0  0  0  0  0  0  0  0  0  0  0
   10.2310   -2.0340   22.4510 N   0  0  0  0  0  0  0  0  0  0  0  0
    8.7960   -1.8730   25.1900 C   0  0  0  0  0  0  0  0  0  0  0  0
   10.1420   -3.0570   23.2500 C   0  0  0  0  0  0  0  0  0  0  0  0
    9.5120   -3.0220   24.4680 C   0  0  0  0  0  0  0  0  0  0  0  0
  1  2  1  0
  2  3  2  0
  2  4  1  0
  3  5  1  0
  4  6  1  0
  5  6  2  0
  5  7  1  0
  7  8  2  0
  7  9  1  0
 10  9  1  0
 10 11  1  6
 10 12  1  0
 10 13  1  0
 12 14  1  0
 13 15  1  0
 13 16  1  0
 15 16  1  0
 14 17  1  0
 17 18  1  0
 18 19  2  0
 18 20  1  0
 19 21  1  0
 20 22  2  0
 21 23  2  0
 22 23  1  0
M  END
>  <Name>  (53) 
x0397-0A-x1077-0A_157

>  <original SMILES>  (53) 
Cc1cc(C(=O)NC(C)(CNCc2ccccn2)C2CC2)no1

>  <synthon>  (53) 
[Xe]c1ccccn1

>  <ref_pdb>  (53) 
p/x0397-0A-x1077-0A-157.holo_minimised.pdb

>  <ref_mols>  (53) 
x0397_0A,x1077_0A

>  <IFP_score>  (53) 
0.5163977794943222

>  <SuCOS_score>  (53) 
0.5898651197489974

>  <AttchPnts_score>  (53) 
2

>  <Docking_score>  (53) 
-6.16424751

>  <LE_score>  (53) 
-0.2680107613043478

>  <EnergyRatio_score>  (53) 
1.8590121148827021

>  <cmpd_id>  (53) 
['ENAMINE:PV-000842666613']

$$$$

     RDKit          3D

 19 20  0  0  0  0  0  0  0  0999 V2000
    7.4550   -5.5990   29.3660 C   0  0  0  0  0  0  0  0  0  0  0  0
    6.7570   -4.6460   28.4130 C   0  0  0  0  0  0  0  0  0  0  0  0
    7.5880   -3.3760   28.1910 C   0  0  0  0  0  0  0  0  0  0  0  0
    8.9410   -3.5950   27.4630 C   0  0  1  0  0  0  0  0  0  0  0  0
   10.0010   -4.2500   28.3400 C   0  0  0  0  0  0  0  0  0  0  0  0
    8.8310   -4.5650   26.3260 C   0  0  0  0  0  0  0  0  0  0  0  0
    8.7560   -5.7490   26.6670 O   0  0  0  0  0  0  0  0  0  0  0  0
    7.7430   -4.1820   25.3430 C   0  0  0  0  0  0  0  0  0  0  0  0
   10.1860   -4.5470   25.5840 C   0  0  0  0  0  0  0  0  0  0  0  0
    8.0420   -2.8720   24.6290 C   0  0  0  0  0  0  0  0  0  0  0  0
   10.4110   -3.3580   24.8180 C   0  0  0  0  0  0  0  0  0  0  0  0
    9.3070   -2.9940   23.9260 N   0  0  0  0  0  0  0  0  0  0  0  0
    9.5440   -1.8770   22.9910 C   0  0  0  0  0  0  0  0  0  0  0  0
   10.7850   -1.2080   23.0330 C   0  0  0  0  0  0  0  0  0  0  0  0
   10.9940   -0.0800   23.8490 C   0  0  0  0  0  0  0  0  0  0  0  0
   11.8500   -1.6480   22.2430 C   0  0  0  0  0  0  0  0  0  0  0  0
   12.2350    0.5790   23.8560 C   0  0  0  0  0  0  0  0  0  0  0  0
   13.0730   -1.0010   22.2510 C   0  0  0  0  0  0  0  0  0  0  0  0
   13.2840    0.1200   23.0510 C   0  0  0  0  0  0  0  0  0  0  0  0
  1  2  1  0
  2  3  1  0
  3  4  1  0
  4  5  1  1
  4  6  1  0
  6  7  1  0
  6  8  1  0
  6  9  1  0
  8 10  1  0
  9 11  1  0
 10 12  1  0
 11 12  1  0
 12 13  1  0
 13 14  1  0
 14 15  2  0
 14 16  1  0
 15 17  1  0
 16 18  2  0
 17 19  2  0
 18 19  1  0
M  END
>  <Name>  (54) 
x0387-0A-x0072-0A_806

>  <original SMILES>  (54) 
CCCC(C)C1(O)CCN(Cc2ccccc2)CC1

>  <synthon>  (54) 
[Xe]c1ccccc1

>  <ref_pdb>  (54) 
p/x0387-0A-x0072-0A-806.holo_minimised.pdb

>  <ref_mols>  (54) 
x0387_0A,x0072_0A

>  <IFP_score>  (54) 
0.5773502691896257

>  <SuCOS_score>  (54) 
0.6699321020487929

>  <AttchPnts_score>  (54) 
0

>  <Docking_score>  (54) 
-4.36601734

>  <LE_score>  (54) 
-0.22979038631578946

>  <EnergyRatio_score>  (54) 
2.3038451347836006

>  <cmpd_id>  (54) 
['CHEMSPACE-BB:CSMB00025674397']

$$$$

     RDKit          3D

 16 18  0  0  0  0  0  0  0  0999 V2000
    3.4270    2.1410   20.2720 N   0  0  0  0  0  0  0  0  0  0  0  0
    4.4450    1.4110   19.6260 C   0  0  0  0  0  0  0  0  0  0  0  0
    4.9740    1.6990   18.3910 C   0  0  0  0  0  0  0  0  0  0  0  0
    4.9610    0.2080   20.4140 C   0  0  0  0  0  0  0  0  0  0  0  0
    6.0780    0.9520   17.6700 C   0  0  0  0  0  0  0  0  0  0  0  0
    6.0710   -0.6550   19.7920 C   0  0  0  0  0  0  0  0  0  0  0  0
    6.6100   -0.2450   18.4490 C   0  0  0  0  0  0  0  0  0  0  0  0
    6.6750   -1.8910   20.3920 C   0  0  0  0  0  0  0  0  0  0  0  0
    6.0860   -2.5050   21.4360 N   0  0  0  0  0  0  0  0  0  0  0  0
    7.9310   -2.3410   19.6810 C   0  0  0  0  0  0  0  0  0  0  0  0
    7.6360   -0.9080   17.7920 O   0  0  0  0  0  0  0  0  0  0  0  0
    6.6340   -3.6420   21.9430 N   0  0  0  0  0  0  0  0  0  0  0  0
    7.6550   -2.2350   18.1950 C   0  0  0  0  0  0  0  0  0  0  0  0
    5.7580   -4.4680   22.5360 C   0  0  0  0  0  0  0  0  0  0  0  0
    5.9290   -5.8760   22.5680 C   0  0  0  0  0  0  0  0  0  0  0  0
    6.2950   -5.3750   23.8310 C   0  0  0  0  0  0  0  0  0  0  0  0
  1  2  1  0
  2  3  2  0
  2  4  1  0
  3  5  1  0
  4  6  2  0
  5  7  2  0
  6  7  1  0
  6  8  1  0
  8  9  2  3
  8 10  1  0
  7 11  1  0
  9 12  1  0
 10 13  1  0
 11 13  1  0
 12 14  1  0
 14 15  1  0
 14 16  1  0
 15 16  1  0
M  END
>  <Name>  (55) 
x0995-0A-x0397-0A_5002

>  <original SMILES>  (55) 
Nc1ccc2c(c1)C(=NNC1CC1)CCO2

>  <synthon>  (55) 
[Xe]C1CC1

>  <ref_pdb>  (55) 
p/x0995-0A-x0397-0A-5002.holo_minimised.pdb

>  <ref_mols>  (55) 
x0995_0A,x0397_0A

>  <IFP_score>  (55) 
0.5

>  <SuCOS_score>  (55) 
0.587345025242053

>  <AttchPnts_score>  (55) 
2

>  <Docking_score>  (55) 
-4.72139311

>  <LE_score>  (55) 
-0.295087069375

>  <EnergyRatio_score>  (55) 
1.363776371294651

>  <cmpd_id>  (55) 
['CHEMSPACE-BB:CSMB00017127045']

$$$$

     RDKit          3D

 17 18  0  0  0  0  0  0  0  0999 V2000
    8.7460   -0.9170   20.3840 C   0  0  0  0  0  0  0  0  0  0  0  0
    8.0840   -1.9690   19.8060 N   0  0  0  0  0  0  0  0  0  0  0  0
    7.3560   -2.7530   20.7980 C   0  0  0  0  0  0  0  0  0  0  0  0
    7.4630   -1.6040   18.6320 C   0  0  0  0  0  0  0  0  0  0  0  0
    5.9200   -2.9280   20.5430 C   0  0  0  0  0  0  0  0  0  0  0  0
    6.6110   -0.5380   18.7640 C   0  0  0  0  0  0  0  0  0  0  0  0
    5.2980   -3.0210   21.8960 N   0  0  0  0  0  0  0  0  0  0  0  0
    6.1620   -0.3200   20.0120 N   0  0  0  0  0  0  0  0  0  0  0  0
    6.2990    0.1930   17.6590 N   0  0  0  0  0  0  0  0  0  0  0  0
    5.5940   -4.2490   22.6050 C   0  0  0  0  0  0  0  0  0  0  0  0
    5.2760    0.7690   20.1950 C   0  0  0  0  0  0  0  0  0  0  0  0
    5.4590    1.2150   17.8460 C   0  0  0  0  0  0  0  0  0  0  0  0
    4.4300   -5.0190   22.9510 O   0  0  0  0  0  0  0  0  0  0  0  0
    6.8640   -4.6470   22.9130 C   0  0  0  0  0  0  0  0  0  0  0  0
    4.9000    1.5830   19.0310 C   0  0  0  0  0  0  0  0  0  0  0  0
    7.1400   -5.3630   24.0700 C   0  0  0  0  0  0  0  0  0  0  0  0
    7.2470   -6.1860   22.7610 C   0  0  0  0  0  0  0  0  0  0  0  0
  1  2  1  0
  2  3  1  0
  2  4  1  0
  3  5  1  0
  4  6  1  0
  5  7  1  0
  6  8  2  0
  6  9  1  0
  7 10  1  0
  8 11  1  0
  9 12  2  0
 10 13  2  0
 10 14  1  0
 11 15  2  0
 12 15  1  0
 14 16  1  0
 14 17  1  0
 16 17  1  0
M  END
>  <Name>  (56) 
x0995-0A-x0397-0A_4458

>  <original SMILES>  (56) 
CN(CCNC(=O)C1CC1)Cc1ncccn1

>  <synthon>  (56) 
[Xe]C1CC1

>  <ref_pdb>  (56) 
p/x0995-0A-x0397-0A-4458.holo_minimised.pdb

>  <ref_mols>  (56) 
x0995_0A,x0397_0A

>  <IFP_score>  (56) 
0.6324555320336759

>  <SuCOS_score>  (56) 
0.667228605514645

>  <AttchPnts_score>  (56) 
2

>  <Docking_score>  (56) 
-4.37310743

>  <LE_score>  (56) 
-0.2572416135294118

>  <EnergyRatio_score>  (56) 
1.4270831370668764

>  <cmpd_id>  (56) 
['ENAMINE:Z3313663326', 'ENAMINE:PV-000795252792']

$$$$

     RDKit          3D

 21 23  0  0  0  0  0  0  0  0999 V2000
    9.8060   -6.0350   24.7180 N   0  0  0  0  0  0  0  0  0  0  0  0
    8.7170   -5.4020   24.9560 C   0  0  0  0  0  0  0  0  0  0  0  0
    8.3000   -5.4040   26.2560 N   0  0  0  0  0  0  0  0  0  0  0  0
    7.9340   -4.7040   23.8540 C   0  0  0  0  0  0  0  0  0  0  0  0
    8.6120   -3.4280   23.3650 C   0  0  0  0  0  0  0  0  0  0  0  0
   10.0690   -3.5620   23.2590 N   0  0  0  0  0  0  0  0  0  0  0  0
   10.6490   -3.9550   24.5490 C   0  0  0  0  0  0  0  0  0  0  0  0
   10.8130   -2.3970   22.7430 C   0  0  0  0  0  0  0  0  0  0  0  0
   11.5100   -2.9820   25.0020 C   0  0  2  0  0  0  0  0  0  0  0  0
   11.5130   -1.8190   23.9850 C   0  0  1  0  0  0  0  0  0  0  0  0
   12.7930   -3.5490   25.4660 O   0  0  0  0  0  0  0  0  0  0  0  0
   12.8370   -1.2340   23.8680 N   0  0  0  0  0  0  0  0  0  0  0  0
   14.0390   -3.0770   24.8940 C   0  0  0  0  0  0  0  0  0  0  0  0
   13.8060   -2.2670   23.6400 C   0  0  0  0  0  0  0  0  0  0  0  0
   13.0080   -0.0820   23.0080 C   0  0  0  0  0  0  0  0  0  0  0  0
   12.1820    1.1120   23.4070 C   0  0  0  0  0  0  0  0  0  0  0  0
   10.8350    1.1670   24.1630 C   0  0  0  0  0  0  0  0  0  0  0  0
   12.5270    2.5830   23.1320 C   0  0  0  0  0  0  0  0  0  0  0  0
   10.1320    2.3230   24.4870 C   0  0  0  0  0  0  0  0  0  0  0  0
   11.8210    3.7310   23.4510 C   0  0  0  0  0  0  0  0  0  0  0  0
   10.6240    3.7110   24.1190 C   0  0  0  0  0  0  0  0  0  0  0  0
  1  2  2  3
  2  3  1  0
  2  4  1  0
  4  5  1  0
  5  6  1  0
  6  7  1  0
  6  8  1  0
  9  7  1  6
 10  8  1  6
  9 10  1  0
  9 11  1  0
 10 12  1  0
 11 13  1  0
 12 14  1  0
 13 14  1  0
 12 15  1  0
 15 16  1  0
 16 17  2  0
 16 18  1  0
 17 19  1  0
 18 20  2  0
 19 21  2  0
 20 21  1  0
M  END
>  <Name>  (57) 
x0991-0A-x0161-0A_86

>  <original SMILES>  (57) 
N=C(N)CCN1CC2OCCN(Cc3ccccc3)C2C1

>  <synthon>  (57) 
[Xe]c1ccccc1

>  <ref_pdb>  (57) 
p/x0991-0A-x0161-0A-86.holo_minimised.pdb

>  <ref_mols>  (57) 
x0991_0A,x0161_0A

>  <IFP_score>  (57) 
0.5773502691896257

>  <SuCOS_score>  (57) 
0.5902434482873996

>  <AttchPnts_score>  (57) 
2

>  <Docking_score>  (57) 
-6.78203535

>  <LE_score>  (57) 
-0.32295406428571427

>  <EnergyRatio_score>  (57) 
4.7686872445703585

>  <cmpd_id>  (57) 
['CHEMSPACE-BB:CSMB00120290505', 'CHEMSPACE-BB:CSMB02128282599']

$$$$

     RDKit          3D

 21 22  0  0  0  0  0  0  0  0999 V2000
   12.1050    5.7900   23.3220 C   0  0  0  0  0  0  0  0  0  0  0  0
   10.8860    4.9060   23.9810 S   0  0  1  0  0  0  0  0  0  0  0  0
   10.6410    5.2770   25.3490 O   0  0  0  0  0  0  0  0  0  0  0  0
    9.4420    4.8980   23.1330 N   0  0  0  0  0  0  0  0  0  0  0  0
   11.4830    3.2560   23.7710 C   0  0  0  0  0  0  0  0  0  0  0  0
    8.8860    3.5510   22.8730 C   0  0  0  0  0  0  0  0  0  0  0  0
   10.7170    2.1820   24.2590 C   0  0  0  0  0  0  0  0  0  0  0  0
   12.7150    3.0660   23.1080 C   0  0  0  0  0  0  0  0  0  0  0  0
    9.1730    2.9150   21.8640 O   0  0  0  0  0  0  0  0  0  0  0  0
    7.9620    3.0400   24.0110 C   0  0  0  0  0  0  0  0  0  0  0  0
   11.2570    0.7730   24.0480 C   0  0  0  0  0  0  0  0  0  0  0  0
   13.2580    1.7980   22.8900 C   0  0  0  0  0  0  0  0  0  0  0  0
    7.6650    1.5350   23.9160 C   0  0  0  0  0  0  0  0  0  0  0  0
   12.5790    0.5220   23.3370 C   0  0  0  0  0  0  0  0  0  0  0  0
    6.3490    1.1230   23.8020 N   0  0  0  0  0  0  0  0  0  0  0  0
   13.2730   -1.2110   23.0580 Br  0  0  0  0  0  0  0  0  0  0  0  0
    5.5420    0.8190   25.0060 C   0  0  0  0  0  0  0  0  0  0  0  0
    5.5760    1.5360   22.6140 C   0  0  0  0  0  0  0  0  0  0  0  0
    4.3190    0.2130   24.6750 C   0  0  0  0  0  0  0  0  0  0  0  0
    4.3310    0.9230   22.5890 C   0  0  0  0  0  0  0  0  0  0  0  0
    3.6810    0.8660   23.8600 O   0  0  0  0  0  0  0  0  0  0  0  0
  2  1  1  6
  2  3  2  0
  2  4  2  0
  2  5  1  0
  4  6  1  0
  5  7  2  0
  5  8  1  0
  6  9  2  0
  6 10  1  0
  7 11  1  0
  8 12  2  0
 10 13  1  0
 11 14  2  0
 12 14  1  0
 13 15  1  0
 14 16  1  0
 15 17  1  0
 15 18  1  0
 17 19  1  0
 18 20  1  0
 19 21  1  0
 20 21  1  0
M  END
>  <Name>  (58) 
x0946-0A-x1249-0A_12511

>  <original SMILES>  (58) 
CS(=O)(=NC(=O)CCN1CCOCC1)c1ccc(Br)cc1

>  <synthon>  (58) 
[Xe]N1CCOCC1

>  <ref_pdb>  (58) 
p/x0946-0A-x1249-0A-12511.holo_minimised.pdb

>  <ref_mols>  (58) 
x0946_0A,x1249_0A

>  <IFP_score>  (58) 
0.816496580927726

>  <SuCOS_score>  (58) 
0.5858418887020865

>  <AttchPnts_score>  (58) 
2

>  <Docking_score>  (58) 
-4.12556887

>  <LE_score>  (58) 
-0.1964556604761905

>  <EnergyRatio_score>  (58) 
4.862972155486971

>  <cmpd_id>  (58) 
['ENAMINE:Z3626902782']

$$$$

     RDKit          3D

 23 24  0  0  0  0  0  0  0  0999 V2000
    8.5860    3.2200   22.8060 C   0  0  0  0  0  0  0  0  0  0  0  0
    7.7850    3.0240   24.0460 C   0  0  2  0  0  0  0  0  0  0  0  0
    8.3990    3.7750   25.2640 C   0  0  0  0  0  0  0  0  0  0  0  0
    7.5680    1.5300   24.3670 C   0  0  0  0  0  0  0  0  0  0  0  0
    8.8290    5.1880   25.0750 N   0  0  0  0  0  0  0  0  0  0  0  0
    6.3230    1.0530   24.0030 N   0  0  0  0  0  0  0  0  0  0  0  0
   10.2790    5.4050   25.0540 C   0  0  0  0  0  0  0  0  0  0  0  0
    5.4360    0.6580   25.1070 C   0  0  0  0  0  0  0  0  0  0  0  0
    5.6320    1.5130   22.7820 C   0  0  0  0  0  0  0  0  0  0  0  0
   11.0730    5.9600   26.0170 O   0  0  0  0  0  0  0  0  0  0  0  0
   10.9150    5.0170   23.8810 C   0  0  0  0  0  0  0  0  0  0  0  0
    4.2120    0.1780   24.6630 C   0  0  0  0  0  0  0  0  0  0  0  0
    4.3920    0.8910   22.5950 C   0  0  0  0  0  0  0  0  0  0  0  0
   11.8960    5.9310   23.6020 F   0  0  0  0  0  0  0  0  0  0  0  0
    9.9780    5.2910   22.9200 F   0  0  0  0  0  0  0  0  0  0  0  0
   11.4180    3.6970   23.7090 C   0  0  0  0  0  0  0  0  0  0  0  0
    3.6790    0.9470   23.5830 O   0  0  0  0  0  0  0  0  0  0  0  0
   12.6430    3.4650   23.0670 C   0  0  0  0  0  0  0  0  0  0  0  0
   10.7090    2.5610   24.1750 C   0  0  0  0  0  0  0  0  0  0  0  0
   13.1700    2.1800   22.8770 C   0  0  0  0  0  0  0  0  0  0  0  0
   11.2560    1.1230   23.9850 C   0  0  0  0  0  0  0  0  0  0  0  0
   12.4600    0.9180   23.3490 C   0  0  0  0  0  0  0  0  0  0  0  0
   13.1560   -0.8210   23.0930 Br  0  0  0  0  0  0  0  0  0  0  0  0
  2  1  1  6
  2  3  1  0
  2  4  1  0
  3  5  1  0
  4  6  1  0
  5  7  1  0
  6  8  1  0
  6  9  1  0
  7 10  2  0
  7 11  1  0
  8 12  1  0
  9 13  1  0
 11 14  1  0
 11 15  1  0
 11 16  1  0
 12 17  1  0
 13 17  1  0
 16 18  2  0
 16 19  1  0
 18 20  1  0
 19 21  2  0
 20 22  2  0
 21 22  1  0
 22 23  1  0
M  END
>  <Name>  (59) 
x0946-0A-x1249-0A_12310

>  <original SMILES>  (59) 
CC(CNC(=O)C(F)(F)c1ccc(Br)cc1)CN1CCOCC1

>  <synthon>  (59) 
[Xe]N1CCOCC1

>  <ref_pdb>  (59) 
p/x0946-0A-x1249-0A-12310.holo_minimised.pdb

>  <ref_mols>  (59) 
x0946_0A,x1249_0A

>  <IFP_score>  (59) 
0.816496580927726

>  <SuCOS_score>  (59) 
0.5759055943531401

>  <AttchPnts_score>  (59) 
5

>  <Docking_score>  (59) 
-4.48002529

>  <LE_score>  (59) 
-0.19478370826086958

>  <EnergyRatio_score>  (59) 
4.975169088536205

>  <cmpd_id>  (59) 
['ENAMINE:Z2631094820']

$$$$

     RDKit          3D

 21 22  0  0  0  0  0  0  0  0999 V2000
    7.7100    4.2950   24.9350 O   0  0  0  0  0  0  0  0  0  0  0  0
    8.8850    3.9960   25.1090 C   0  0  0  0  0  0  0  0  0  0  0  0
    9.8340    5.0520   25.0180 C   0  0  0  0  0  0  0  0  0  0  0  0
    9.3840    2.7170   25.3970 N   0  0  0  0  0  0  0  0  0  0  0  0
   10.7470    4.9880   23.7510 C   0  0  0  0  0  0  0  0  0  0  0  0
    8.5310    1.5890   25.1590 N   0  0  0  0  0  0  0  0  0  0  0  0
   11.3970    3.6050   23.5080 C   0  0  0  0  0  0  0  0  0  0  0  0
    7.8030    1.5240   23.8630 C   0  0  0  0  0  0  0  0  0  0  0  0
   10.6350    2.4240   23.5810 C   0  0  0  0  0  0  0  0  0  0  0  0
   12.7460    3.4060   23.1960 C   0  0  0  0  0  0  0  0  0  0  0  0
    8.3890    1.8260   22.8340 O   0  0  0  0  0  0  0  0  0  0  0  0
    6.4670    1.1440   23.8140 N   0  0  0  0  0  0  0  0  0  0  0  0
   11.1620    1.1430   23.3700 C   0  0  0  0  0  0  0  0  0  0  0  0
   13.2470    2.1120   22.9840 C   0  0  0  0  0  0  0  0  0  0  0  0
    5.6040    1.6330   22.7030 C   0  0  0  0  0  0  0  0  0  0  0  0
    5.6730    0.9900   25.0710 C   0  0  0  0  0  0  0  0  0  0  0  0
   12.4960    0.9730   23.0660 C   0  0  0  0  0  0  0  0  0  0  0  0
    4.2760    0.8540   22.6010 C   0  0  0  0  0  0  0  0  0  0  0  0
    4.5440    0.1810   24.8410 C   0  0  0  0  0  0  0  0  0  0  0  0
   13.2400   -0.7410   22.7820 Br  0  0  0  0  0  0  0  0  0  0  0  0
    3.6580    0.7670   23.8810 O   0  0  0  0  0  0  0  0  0  0  0  0
  1  2  2  0
  2  3  1  0
  2  4  1  0
  3  5  1  0
  4  6  1  0
  5  7  1  0
  6  8  1  0
  7  9  2  0
  7 10  1  0
  8 11  2  0
  8 12  1  0
  9 13  1  0
 10 14  2  0
 12 15  1  0
 12 16  1  0
 13 17  2  0
 14 17  1  0
 15 18  1  0
 16 19  1  0
 17 20  1  0
 18 21  1  0
 19 21  1  0
M  END
>  <Name>  (60) 
x0946-0A-x1249-0A_12283

>  <original SMILES>  (60) 
O=C(CCc1ccc(Br)cc1)NNC(=O)N1CCOCC1

>  <synthon>  (60) 
[Xe]N1CCOCC1

>  <ref_pdb>  (60) 
p/x0946-0A-x1249-0A-12283.holo_minimised.pdb

>  <ref_mols>  (60) 
x0946_0A,x1249_0A

>  <IFP_score>  (60) 
0.816496580927726

>  <SuCOS_score>  (60) 
0.581310611359741

>  <AttchPnts_score>  (60) 
4

>  <Docking_score>  (60) 
-4.03653193

>  <LE_score>  (60) 
-0.19221580619047618

>  <EnergyRatio_score>  (60) 
4.616532188570667

>  <cmpd_id>  (60) 
['ENAMINE:Z1336870094']

$$$$

     RDKit          3D

 23 24  0  0  0  0  0  0  0  0999 V2000
   11.3580    5.6980   22.7040 C   0  0  0  0  0  0  0  0  0  0  0  0
   10.1780    5.4350   23.6300 C   0  0  2  0  0  0  0  0  0  0  0  0
   10.5730    4.4170   24.5690 C   0  0  0  0  0  0  0  0  0  0  0  0
    8.7740    5.0250   23.0760 C   0  0  0  0  0  0  0  0  0  0  0  0
   11.2600    3.2580   24.1290 C   0  0  0  0  0  0  0  0  0  0  0  0
    8.2840    5.6080   22.1120 O   0  0  0  0  0  0  0  0  0  0  0  0
    7.9670    3.9410   23.7840 N   0  0  0  0  0  0  0  0  0  0  0  0
   12.4220    3.2700   23.3390 C   0  0  0  0  0  0  0  0  0  0  0  0
   10.7510    2.0220   24.5150 C   0  0  0  0  0  0  0  0  0  0  0  0
    8.4190    2.7180   24.5570 C   0  0  1  0  0  0  0  0  0  0  0  0
   13.0300    2.0550   22.9720 C   0  0  0  0  0  0  0  0  0  0  0  0
   11.3510    0.8320   24.1410 C   0  0  0  0  0  0  0  0  0  0  0  0
    7.8670    2.7840   25.8260 C   0  0  0  0  0  0  0  0  0  0  0  0
    7.9180    1.3840   23.8320 C   0  0  1  0  0  0  0  0  0  0  0  0
   12.4910    0.8430   23.3710 C   0  0  0  0  0  0  0  0  0  0  0  0
    8.5400    0.2710   24.4000 C   0  0  0  0  0  0  0  0  0  0  0  0
    6.4440    1.1670   23.8100 N   0  0  0  0  0  0  0  0  0  0  0  0
   13.2860   -0.8010   22.8840 Br  0  0  0  0  0  0  0  0  0  0  0  0
    5.6540    1.8000   22.7500 C   0  0  0  0  0  0  0  0  0  0  0  0
    5.6660    0.9500   25.0490 C   0  0  0  0  0  0  0  0  0  0  0  0
    4.4780    1.0690   22.5680 C   0  0  0  0  0  0  0  0  0  0  0  0
    4.4330    0.3330   24.7510 C   0  0  0  0  0  0  0  0  0  0  0  0
    3.7350    1.0280   23.7970 O   0  0  0  0  0  0  0  0  0  0  0  0
  2  1  1  6
  2  3  1  0
  2  4  1  0
  3  5  1  0
  4  6  2  0
  4  7  1  0
  5  8  2  0
  5  9  1  0
  7 10  1  0
  8 11  1  0
  9 12  2  0
 10 13  1  1
 10 14  1  0
 11 15  2  0
 12 15  1  0
 14 16  1  1
 14 17  1  0
 15 18  1  0
 17 19  1  0
 17 20  1  0
 19 21  1  0
 20 22  1  0
 21 23  1  0
 22 23  1  0
M  END
>  <Name>  (61) 
x0946-0A-x1249-0A_11431

>  <original SMILES>  (61) 
CC(Cc1ccc(Br)cc1)C(=O)NC(C)C(C)N1CCOCC1

>  <synthon>  (61) 
[Xe]N1CCOCC1

>  <ref_pdb>  (61) 
p/x0946-0A-x1249-0A-11431.holo_minimised.pdb

>  <ref_mols>  (61) 
x0946_0A,x1249_0A

>  <IFP_score>  (61) 
0.816496580927726

>  <SuCOS_score>  (61) 
0.5588800953106534

>  <AttchPnts_score>  (61) 
3

>  <Docking_score>  (61) 
-4.25963068

>  <LE_score>  (61) 
-0.18520133391304347

>  <EnergyRatio_score>  (61) 
3.9134385279659605

>  <cmpd_id>  (61) 
['ENAMINE:Z1552453382']

$$$$

     RDKit          3D

 24 26  0  0  0  0  0  0  0  0999 V2000
   11.9720    6.4570   23.5600 O   0  0  0  0  0  0  0  0  0  0  0  0
   11.0730    5.6370   24.3040 S   0  0  0  0  0  0  0  0  0  0  0  0
   10.9620    5.7400   25.7330 O   0  0  0  0  0  0  0  0  0  0  0  0
    9.5360    5.8540   23.6580 N   0  0  0  0  0  0  0  0  0  0  0  0
   11.5910    3.9780   23.8580 C   0  0  0  0  0  0  0  0  0  0  0  0
    9.0000    4.6630   23.6980 C   0  0  0  0  0  0  0  0  0  0  0  0
   10.8830    2.7950   24.1540 C   0  0  0  0  0  0  0  0  0  0  0  0
   12.7980    3.9080   23.1840 C   0  0  0  0  0  0  0  0  0  0  0  0
    9.0040    3.9660   25.0550 C   0  0  0  0  0  0  0  0  0  0  0  0
    8.4920    4.0770   22.5680 C   0  0  0  0  0  0  0  0  0  0  0  0
   11.4150    1.5500   23.7640 C   0  0  0  0  0  0  0  0  0  0  0  0
   13.3060    2.6880   22.8120 C   0  0  0  0  0  0  0  0  0  0  0  0
    8.4240    2.5590   24.9970 C   0  0  0  0  0  0  0  0  0  0  0  0
    7.9850    2.7930   22.6120 C   0  0  0  0  0  0  0  0  0  0  0  0
   12.6320    1.5260   23.0920 C   0  0  0  0  0  0  0  0  0  0  0  0
    7.9590    2.0400   23.7990 C   0  0  0  0  0  0  0  0  0  0  0  0
   13.4030   -0.0980   22.5390 Br  0  0  0  0  0  0  0  0  0  0  0  0
    7.4720    0.7970   23.7060 C   0  0  0  0  0  0  0  0  0  0  0  0
    6.0940    0.7450   23.6980 N   0  0  0  0  0  0  0  0  0  0  0  0
    5.3680    1.5620   22.7120 C   0  0  0  0  0  0  0  0  0  0  0  0
    5.4050    0.7530   25.0120 C   0  0  0  0  0  0  0  0  0  0  0  0
    4.1460    0.9480   22.5430 C   0  0  0  0  0  0  0  0  0  0  0  0
    4.1310    0.2110   24.7980 C   0  0  0  0  0  0  0  0  0  0  0  0
    3.4550    1.0060   23.8030 O   0  0  0  0  0  0  0  0  0  0  0  0
  1  2  2  0
  2  3  2  0
  2  4  1  0
  2  5  1  0
  4  6  1  0
  5  7  2  0
  5  8  1  0
  6  9  2  0
  6 10  1  0
  7 11  1  0
  8 12  2  0
  9 13  1  0
 10 14  2  0
 11 15  2  0
 12 15  1  0
 13 16  2  0
 14 16  1  0
 15 17  1  0
 16 18  1  0
 18 19  1  0
 19 20  1  0
 19 21  1  0
 20 22  1  0
 21 23  1  0
 22 24  1  0
 23 24  1  0
M  END
>  <Name>  (62) 
x0946-0A-x1249-0A_11283

>  <original SMILES>  (62) 
O=S(=O)(Nc1ccc(CN2CCOCC2)cc1)c1ccc(Br)cc1

>  <synthon>  (62) 
[Xe]N1CCOCC1

>  <ref_pdb>  (62) 
p/x0946-0A-x1249-0A-11283.holo_minimised.pdb

>  <ref_mols>  (62) 
x0946_0A,x1249_0A

>  <IFP_score>  (62) 
0.5773502691896257

>  <SuCOS_score>  (62) 
0.5835705468503561

>  <AttchPnts_score>  (62) 
2

>  <Docking_score>  (62) 
-4.28129101

>  <LE_score>  (62) 
-0.17838712541666668

>  <EnergyRatio_score>  (62) 
4.457089665087519

>  <cmpd_id>  (62) 
['ENAMINE:Z89370269']

$$$$

     RDKit          3D

 22 23  0  0  0  0  0  0  0  0999 V2000
    9.2450    2.5170   22.1000 C   0  0  0  0  0  0  0  0  0  0  0  0
    8.5210    2.8020   23.3360 N   0  0  0  0  0  0  0  0  0  0  0  0
    8.3890    1.6320   24.2110 C   0  0  0  0  0  0  0  0  0  0  0  0
    8.4630    4.1400   23.9910 C   0  0  0  0  0  0  0  0  0  0  0  0
    7.4960    0.5700   23.6730 C   0  0  0  0  0  0  0  0  0  0  0  0
    9.2130    5.1550   23.3880 C   0  0  0  0  0  0  0  0  0  0  0  0
    6.1090    1.0100   23.8630 N   0  0  0  0  0  0  0  0  0  0  0  0
   10.8630    5.1820   24.0600 S   0  0  0  0  0  0  0  0  0  0  0  0
    5.3090    0.7950   25.0720 C   0  0  0  0  0  0  0  0  0  0  0  0
    5.4550    1.6380   22.7820 C   0  0  0  0  0  0  0  0  0  0  0  0
   11.7090    6.0530   23.2790 O   0  0  0  0  0  0  0  0  0  0  0  0
   10.7000    5.4120   25.4730 O   0  0  0  0  0  0  0  0  0  0  0  0
   11.4840    3.5210   23.8150 C   0  0  0  0  0  0  0  0  0  0  0  0
    4.0700    0.2250   24.7660 C   0  0  0  0  0  0  0  0  0  0  0  0
    4.2280    1.0390   22.5340 C   0  0  0  0  0  0  0  0  0  0  0  0
   12.6880    3.2970   23.1550 C   0  0  0  0  0  0  0  0  0  0  0  0
   10.7980    2.3880   24.2730 C   0  0  0  0  0  0  0  0  0  0  0  0
    3.4110    0.9300   23.7080 O   0  0  0  0  0  0  0  0  0  0  0  0
   13.2110    2.0210   22.9380 C   0  0  0  0  0  0  0  0  0  0  0  0
   11.3070    1.0990   24.0640 C   0  0  0  0  0  0  0  0  0  0  0  0
   12.5140    0.9120   23.3940 C   0  0  0  0  0  0  0  0  0  0  0  0
   13.1740   -0.8370   23.1220 Br  0  0  0  0  0  0  0  0  0  0  0  0
  1  2  1  0
  2  3  1  0
  2  4  1  0
  3  5  1  0
  4  6  1  0
  5  7  1  0
  8  6  1  0
  7  9  1  0
  7 10  1  0
  8 11  2  0
  8 12  2  0
  8 13  1  0
  9 14  1  0
 10 15  1  0
 13 16  2  0
 13 17  1  0
 14 18  1  0
 15 18  1  0
 16 19  1  0
 17 20  2  0
 19 21  2  0
 20 21  1  0
 21 22  1  0
M  END
>  <Name>  (63) 
x0946-0A-x1249-0A_11231

>  <original SMILES>  (63) 
CN(CCN1CCOCC1)CCS(=O)(=O)c1ccc(Br)cc1

>  <synthon>  (63) 
[Xe]N1CCOCC1

>  <ref_pdb>  (63) 
p/x0946-0A-x1249-0A-11231.holo_minimised.pdb

>  <ref_mols>  (63) 
x0946_0A,x1249_0A

>  <IFP_score>  (63) 
0.816496580927726

>  <SuCOS_score>  (63) 
0.6181831482659463

>  <AttchPnts_score>  (63) 
1

>  <Docking_score>  (63) 
-3.92660666

>  <LE_score>  (63) 
-0.1784821209090909

>  <EnergyRatio_score>  (63) 
3.9493618962323014

>  <cmpd_id>  (63) 
['ENAMINE:Z1186916264']

$$$$

     RDKit          3D

 21 22  0  0  0  0  0  0  0  0999 V2000
    9.6280    7.0860   24.1370 O   0  0  0  0  0  0  0  0  0  0  0  0
   10.1180    5.9680   23.3610 S   0  0  0  0  0  0  0  0  0  0  0  0
   11.1650    6.0460   22.3860 O   0  0  0  0  0  0  0  0  0  0  0  0
   10.5440    4.6930   24.4390 C   0  0  0  0  0  0  0  0  0  0  0  0
    8.7520    5.2270   22.7070 N   0  0  0  0  0  0  0  0  0  0  0  0
   11.2570    3.5830   23.9720 C   0  0  0  0  0  0  0  0  0  0  0  0
    7.7300    4.7230   23.6790 C   0  0  0  0  0  0  0  0  0  0  0  0
   12.4730    3.6350   23.3210 C   0  0  0  0  0  0  0  0  0  0  0  0
   10.7100    2.3170   24.1760 C   0  0  0  0  0  0  0  0  0  0  0  0
    7.0750    3.4140   23.2550 C   0  0  0  0  0  0  0  0  0  0  0  0
   13.1590    2.5270   22.8690 C   0  0  0  0  0  0  0  0  0  0  0  0
   11.3620    1.1650   23.7320 C   0  0  0  0  0  0  0  0  0  0  0  0
    7.5240    2.2160   23.8770 C   0  0  0  0  0  0  0  0  0  0  0  0
   12.5980    1.2780   23.0660 C   0  0  0  0  0  0  0  0  0  0  0  0
    6.4820    1.1770   23.7310 N   0  0  0  0  0  0  0  0  0  0  0  0
   13.4920   -0.2460   22.4350 Br  0  0  0  0  0  0  0  0  0  0  0  0
    5.6400    1.3710   22.5220 C   0  0  0  0  0  0  0  0  0  0  0  0
    5.6540    0.9790   24.9520 C   0  0  0  0  0  0  0  0  0  0  0  0
    4.3450    0.8620   22.4960 C   0  0  0  0  0  0  0  0  0  0  0  0
    4.4600    0.3220   24.6450 C   0  0  0  0  0  0  0  0  0  0  0  0
    3.7700    0.9940   23.5810 O   0  0  0  0  0  0  0  0  0  0  0  0
  1  2  2  0
  2  3  2  0
  2  4  1  0
  2  5  1  0
  4  6  1  0
  5  7  1  0
  6  8  2  0
  6  9  1  0
  7 10  1  0
  8 11  1  0
  9 12  2  0
 10 13  1  0
 11 14  2  0
 12 14  1  0
 13 15  1  0
 14 16  1  0
 15 17  1  0
 15 18  1  0
 17 19  1  0
 18 20  1  0
 19 21  1  0
 20 21  1  0
M  END
>  <Name>  (64) 
x0946-0A-x1249-0A_11206

>  <original SMILES>  (64) 
O=S(=O)(Cc1ccc(Br)cc1)NCCCN1CCOCC1

>  <synthon>  (64) 
[Xe]N1CCOCC1

>  <ref_pdb>  (64) 
p/x0946-0A-x1249-0A-11206.holo_minimised.pdb

>  <ref_mols>  (64) 
x0946_0A,x1249_0A

>  <IFP_score>  (64) 
0.5773502691896257

>  <SuCOS_score>  (64) 
0.5554948788677186

>  <AttchPnts_score>  (64) 
2

>  <Docking_score>  (64) 
-3.51210856

>  <LE_score>  (64) 
-0.16724326476190476

>  <EnergyRatio_score>  (64) 
4.133426399609176

>  <cmpd_id>  (64) 
['MOLPORT:019-903-297']

$$$$

     RDKit          3D

 20 21  0  0  0  0  0  0  0  0999 V2000
    8.7710    2.3450   26.1270 C   0  0  0  0  0  0  0  0  0  0  0  0
    7.9630    2.6240   24.9980 C   0  0  2  0  0  0  0  0  0  0  0  0
    7.7550    1.6280   24.0330 C   0  0  0  0  0  0  0  0  0  0  0  0
    8.3940    3.9320   24.3840 N   0  0  0  0  0  0  0  0  0  0  0  0
    6.3780    1.1280   23.8830 N   0  0  0  0  0  0  0  0  0  0  0  0
    9.6350    4.6980   24.7460 C   0  0  0  0  0  0  0  0  0  0  0  0
    5.6380    1.6370   22.6890 C   0  0  0  0  0  0  0  0  0  0  0  0
    5.5500    0.7360   25.0410 C   0  0  0  0  0  0  0  0  0  0  0  0
    9.9060    5.4620   25.9210 O   0  0  0  0  0  0  0  0  0  0  0  0
   10.6890    4.7020   23.8180 C   0  0  0  0  0  0  0  0  0  0  0  0
    4.4620    0.9430   22.4060 C   0  0  0  0  0  0  0  0  0  0  0  0
    4.2880    0.2420   24.6890 C   0  0  0  0  0  0  0  0  0  0  0  0
   11.3550    3.4800   23.6250 C   0  0  0  0  0  0  0  0  0  0  0  0
    3.6830    0.9190   23.5890 O   0  0  0  0  0  0  0  0  0  0  0  0
   10.7180    2.3110   24.0460 C   0  0  0  0  0  0  0  0  0  0  0  0
   12.6220    3.3660   23.0330 C   0  0  0  0  0  0  0  0  0  0  0  0
   11.2990    1.0500   23.8910 C   0  0  0  0  0  0  0  0  0  0  0  0
   13.1920    2.0920   22.8850 C   0  0  0  0  0  0  0  0  0  0  0  0
   12.5460    0.9400   23.3040 C   0  0  0  0  0  0  0  0  0  0  0  0
   13.3130   -0.7740   23.0940 Br  0  0  0  0  0  0  0  0  0  0  0  0
  2  1  1  1
  2  3  1  0
  2  4  1  0
  3  5  1  0
  4  6  1  0
  5  7  1  0
  5  8  1  0
  6  9  2  0
  6 10  1  0
  7 11  1  0
  8 12  1  0
 10 13  1  0
 11 14  1  0
 12 14  1  0
 13 15  2  0
 13 16  1  0
 15 17  1  0
 16 18  2  0
 17 19  2  0
 18 19  1  0
 19 20  1  0
M  END
>  <Name>  (65) 
x0946-0A-x1249-0A_11068

>  <original SMILES>  (65) 
CC(CN1CCOCC1)NC(=O)Cc1ccc(Br)cc1

>  <synthon>  (65) 
[Xe]N1CCOCC1

>  <ref_pdb>  (65) 
p/x0946-0A-x1249-0A-11068.holo_minimised.pdb

>  <ref_mols>  (65) 
x0946_0A,x1249_0A

>  <IFP_score>  (65) 
0.6666666666666666

>  <SuCOS_score>  (65) 
0.5640145468057057

>  <AttchPnts_score>  (65) 
3

>  <Docking_score>  (65) 
-4.05104685

>  <LE_score>  (65) 
-0.20255234249999998

>  <EnergyRatio_score>  (65) 
4.430428517927454

>  <cmpd_id>  (65) 
['ENAMINE:Z422691226']

$$$$

     RDKit          3D

 21 22  0  0  0  0  0  0  0  0999 V2000
    7.1380    3.9580   25.1650 O   0  0  0  0  0  0  0  0  0  0  0  0
    8.2290    3.9260   24.6080 C   0  0  0  0  0  0  0  0  0  0  0  0
    9.3300    4.6860   25.1200 C   0  0  0  0  0  0  0  0  0  0  0  0
    8.5760    3.2290   23.4670 O   0  0  0  0  0  0  0  0  0  0  0  0
   10.0090    5.4480   24.1850 C   0  0  0  0  0  0  0  0  0  0  0  0
    8.3810    1.7910   23.3630 C   0  0  0  0  0  0  0  0  0  0  0  0
   11.0240    4.9150   23.4060 C   0  0  0  0  0  0  0  0  0  0  0  0
    7.5530    1.3370   24.3800 C   0  0  0  0  0  0  0  0  0  0  0  0
   11.4990    3.5830   23.4620 C   0  0  0  0  0  0  0  0  0  0  0  0
    6.3600    0.6920   23.7970 N   0  0  0  0  0  0  0  0  0  0  0  0
   10.8080    2.5230   24.0700 C   0  0  0  0  0  0  0  0  0  0  0  0
   12.7350    3.2940   22.8660 C   0  0  0  0  0  0  0  0  0  0  0  0
    5.6100    1.5870   22.8840 C   0  0  0  0  0  0  0  0  0  0  0  0
    5.4630    0.0710   24.8020 C   0  0  0  0  0  0  0  0  0  0  0  0
   11.3300    1.2230   24.0640 C   0  0  0  0  0  0  0  0  0  0  0  0
   13.2550    1.9960   22.8620 C   0  0  0  0  0  0  0  0  0  0  0  0
    4.4450    0.9140   22.5140 C   0  0  0  0  0  0  0  0  0  0  0  0
    4.2200    0.6960   24.9010 C   0  0  0  0  0  0  0  0  0  0  0  0
   12.5500    0.9590   23.4570 C   0  0  0  0  0  0  0  0  0  0  0  0
    3.5550    0.8580   23.6400 O   0  0  0  0  0  0  0  0  0  0  0  0
   13.2300   -0.8060   23.4470 Br  0  0  0  0  0  0  0  0  0  0  0  0
  1  2  2  0
  2  3  1  0
  2  4  1  0
  3  5  1  0
  4  6  1  0
  5  7  2  3
  6  8  1  0
  7  9  1  0
  8 10  1  0
  9 11  2  0
  9 12  1  0
 10 13  1  0
 10 14  1  0
 11 15  1  0
 12 16  2  0
 13 17  1  0
 14 18  1  0
 15 19  2  0
 16 19  1  0
 17 20  1  0
 18 20  1  0
 19 21  1  0
M  END
>  <Name>  (66) 
x0946-0A-x1249-0A_10897

>  <original SMILES>  (66) 
O=C(CC=Cc1ccc(Br)cc1)OCCN1CCOCC1

>  <synthon>  (66) 
[Xe]N1CCOCC1

>  <ref_pdb>  (66) 
p/x0946-0A-x1249-0A-10897.holo_minimised.pdb

>  <ref_mols>  (66) 
x0946_0A,x1249_0A

>  <IFP_score>  (66) 
0.816496580927726

>  <SuCOS_score>  (66) 
0.5591743723651309

>  <AttchPnts_score>  (66) 
3

>  <Docking_score>  (66) 
-3.98014283

>  <LE_score>  (66) 
-0.18953061095238097

>  <EnergyRatio_score>  (66) 
3.5529660877473614

>  <cmpd_id>  (66) 
['ENAMINE:PV-002793364779']

$$$$

     RDKit          3D

 18 19  0  0  0  0  0  0  0  0999 V2000
   14.1690   -1.7010   20.4540 N   0  0  0  0  0  0  0  0  0  0  0  0
   13.4530   -1.2680   21.2250 C   0  0  0  0  0  0  0  0  0  0  0  0
   12.5750   -0.8570   22.2330 C   0  0  0  0  0  0  0  0  0  0  0  0
   11.4480   -1.6100   22.4600 C   0  0  0  0  0  0  0  0  0  0  0  0
   12.8100    0.2640   23.0210 C   0  0  0  0  0  0  0  0  0  0  0  0
   10.5940   -1.2370   23.4710 C   0  0  0  0  0  0  0  0  0  0  0  0
   11.9790    0.6520   24.0200 N   0  0  0  0  0  0  0  0  0  0  0  0
   10.8760   -0.1100   24.2430 C   0  0  0  0  0  0  0  0  0  0  0  0
    9.9600    0.3100   25.3760 C   0  0  0  0  0  0  0  0  0  0  0  0
    8.9330   -0.6840   25.5760 N   0  0  0  0  0  0  0  0  0  0  0  0
    8.5270   -1.4420   24.5160 C   0  0  0  0  0  0  0  0  0  0  0  0
    8.1700   -0.9340   23.4530 O   0  0  0  0  0  0  0  0  0  0  0  0
    8.5280   -2.8060   24.7560 N   0  0  0  0  0  0  0  0  0  0  0  0
    7.3900   -3.3410   25.5070 C   0  0  0  0  0  0  0  0  0  0  0  0
    9.8170   -3.3000   25.1830 C   0  0  0  0  0  0  0  0  0  0  0  0
    7.5150   -4.7660   26.0920 C   0  0  0  0  0  0  0  0  0  0  0  0
    9.8850   -4.7900   25.4270 C   0  0  0  0  0  0  0  0  0  0  0  0
    8.9210   -5.1300   26.5290 C   0  0  0  0  0  0  0  0  0  0  0  0
  1  2  3  0
  2  3  1  0
  3  4  2  0
  3  5  1  0
  4  6  1  0
  5  7  2  0
  6  8  2  0
  7  8  1  0
  8  9  1  0
  9 10  1  0
 10 11  1  0
 11 12  2  0
 11 13  1  0
 13 14  1  0
 13 15  1  0
 14 16  1  0
 15 17  1  0
 16 18  1  0
 17 18  1  0
M  END
>  <Name>  (67) 
x0305-0A-x0387-0A_292

>  <original SMILES>  (67) 
N#Cc1ccc(CNC(=O)N2CCCCC2)nc1

>  <synthon>  (67) 
[Xe]N1CCCCC1

>  <ref_pdb>  (67) 
p/x0305-0A-x0387-0A-292.holo_minimised.pdb

>  <ref_mols>  (67) 
x0305_0A,x0387_0A

>  <IFP_score>  (67) 
0.5773502691896257

>  <SuCOS_score>  (67) 
0.5801490193459224

>  <AttchPnts_score>  (67) 
1

>  <Docking_score>  (67) 
-4.92836237

>  <LE_score>  (67) 
-0.2737979094444445

>  <EnergyRatio_score>  (67) 
4.594793842897815

>  <cmpd_id>  (67) 
['ENAMINE:Z1765574245']

$$$$

     RDKit          3D

 19 20  0  0  0  0  0  0  0  0999 V2000
    8.2060   -4.9060   22.9190 C   0  0  0  0  0  0  0  0  0  0  0  0
    8.3820   -4.1620   24.2350 C   0  0  1  0  0  0  0  0  0  0  0  0
    9.0310   -5.0970   25.2580 C   0  0  0  0  0  0  0  0  0  0  0  0
    9.2810   -3.0000   24.1310 N   0  0  0  0  0  0  0  0  0  0  0  0
    9.9770   -5.8970   24.9290 N   0  0  0  0  0  0  0  0  0  0  0  0
    8.5650   -5.0300   26.5380 N   0  0  0  0  0  0  0  0  0  0  0  0
    9.4140   -2.5750   22.7390 C   0  0  0  0  0  0  0  0  0  0  0  0
    8.9870   -1.9190   25.0730 C   0  0  0  0  0  0  0  0  0  0  0  0
    7.9900   -2.1690   22.3400 C   0  0  0  0  0  0  0  0  0  0  0  0
    7.6710   -1.2780   24.7220 C   0  0  0  0  0  0  0  0  0  0  0  0
    7.6180   -0.9740   23.2330 C   0  0  0  0  0  0  0  0  0  0  0  0
    6.2800   -0.5650   22.9360 O   0  0  0  0  0  0  0  0  0  0  0  0
    6.2480    0.7560   22.4430 C   0  0  0  0  0  0  0  0  0  0  0  0
    6.1550    0.7190   20.9610 C   0  0  0  0  0  0  0  0  0  0  0  0
    7.0290   -0.1970   20.1460 C   0  0  0  0  0  0  0  0  0  0  0  0
    5.2490    1.5350   20.3050 C   0  0  0  0  0  0  0  0  0  0  0  0
    6.8970   -0.1890   18.7630 C   0  0  0  0  0  0  0  0  0  0  0  0
    5.1580    1.5050   18.9250 C   0  0  0  0  0  0  0  0  0  0  0  0
    5.9670    0.6600   18.1660 C   0  0  0  0  0  0  0  0  0  0  0  0
  2  1  1  6
  2  3  1  0
  2  4  1  0
  3  5  2  3
  3  6  1  0
  4  7  1  0
  4  8  1  0
  7  9  1  0
  8 10  1  0
  9 11  1  0
 10 11  1  0
 11 12  1  0
 12 13  1  0
 13 14  1  0
 14 15  2  0
 14 16  1  0
 15 17  1  0
 16 18  2  0
 17 19  2  0
 18 19  1  0
M  END
>  <Name>  (68) 
x0991-0A-x0967-0A_85

>  <original SMILES>  (68) 
CC(C(=N)N)N1CCC(OCc2ccccc2)CC1

>  <synthon>  (68) 
[Xe]c1ccccc1

>  <ref_pdb>  (68) 
p/x0991-0A-x0967-0A-85.holo_minimised.pdb

>  <ref_mols>  (68) 
x0991_0A,x0967_0A

>  <IFP_score>  (68) 
0.5

>  <SuCOS_score>  (68) 
0.5503461530822656

>  <AttchPnts_score>  (68) 
2

>  <Docking_score>  (68) 
-6.03943777

>  <LE_score>  (68) 
-0.31786514578947367

>  <EnergyRatio_score>  (68) 
1.748320993956376

>  <cmpd_id>  (68) 
['CHEMSPACE-BB:CSMB00016955939']

$$$$

     RDKit          3D

 22 23  0  0  0  0  0  0  0  0999 V2000
    6.0420    4.7190   15.8420 C   0  0  0  0  0  0  0  0  0  0  0  0
    5.5930    3.2760   16.0590 C   0  0  0  0  0  0  0  0  0  0  0  0
    4.9010    2.9130   17.2880 O   0  0  0  0  0  0  0  0  0  0  0  0
    5.3920    1.7280   18.0350 C   0  0  0  0  0  0  0  0  0  0  0  0
    6.2970    0.7460   17.4630 N   0  0  0  0  0  0  0  0  0  0  0  0
    4.9780    1.5670   19.3620 C   0  0  0  0  0  0  0  0  0  0  0  0
    6.7440   -0.3130   18.2410 C   0  0  0  0  0  0  0  0  0  0  0  0
    5.5190    0.4780   20.0630 C   0  0  0  0  0  0  0  0  0  0  0  0
    4.1190    2.3880   19.9950 N   0  0  0  0  0  0  0  0  0  0  0  0
    6.3630   -0.4320   19.5240 N   0  0  0  0  0  0  0  0  0  0  0  0
    5.1500    0.4060   21.3550 N   0  0  0  0  0  0  0  0  0  0  0  0
    6.0660    0.9130   22.2510 C   0  0  0  0  0  0  0  0  0  0  0  0
    7.3580    1.0900   21.8200 C   0  0  0  0  0  0  0  0  0  0  0  0
    8.2300    1.8980   22.5090 N   0  0  0  0  0  0  0  0  0  0  0  0
    7.9410    3.3280   22.5880 C   0  0  0  0  0  0  0  0  0  0  0  0
    9.5890    1.3930   22.6190 C   0  0  0  0  0  0  0  0  0  0  0  0
    9.5940    0.0750   23.0790 C   0  0  0  0  0  0  0  0  0  0  0  0
    9.9900   -1.0020   22.2690 C   0  0  0  0  0  0  0  0  0  0  0  0
    9.1760   -0.1930   24.3820 C   0  0  0  0  0  0  0  0  0  0  0  0
    9.9560   -2.3170   22.7650 C   0  0  0  0  0  0  0  0  0  0  0  0
    9.1490   -1.4910   24.8380 C   0  0  0  0  0  0  0  0  0  0  0  0
    9.5330   -2.5650   24.0480 C   0  0  0  0  0  0  0  0  0  0  0  0
  1  2  1  0
  2  3  1  0
  3  4  1  0
  4  5  2  0
  4  6  1  0
  5  7  1  0
  6  8  2  0
  6  9  1  0
  7 10  2  0
  8 10  1  0
  8 11  1  0
 11 12  1  0
 12 13  1  0
 13 14  1  0
 14 15  1  0
 14 16  1  0
 16 17  1  0
 17 18  2  0
 17 19  1  0
 18 20  1  0
 19 21  2  0
 20 22  2  0
 21 22  1  0
M  END
>  <Name>  (69) 
x0995-0A-x2193-0A_7404

>  <original SMILES>  (69) 
CCOc1ncnc(NCCN(C)Cc2ccccc2)c1N

>  <synthon>  (69) 
[Xe]c1ccccc1

>  <ref_pdb>  (69) 
p/x0995-0A-x2193-0A-7404.holo_minimised.pdb

>  <ref_mols>  (69) 
x0995_0A,x2193_0A

>  <IFP_score>  (69) 
0.5

>  <SuCOS_score>  (69) 
0.6130481454616826

>  <AttchPnts_score>  (69) 
2

>  <Docking_score>  (69) 
-3.95187855

>  <LE_score>  (69) 
-0.17963084318181818

>  <EnergyRatio_score>  (69) 
3.997383115468131

>  <cmpd_id>  (69) 
['CHEMSPACE-BB:CSMB00017226177']

$$$$

     RDKit          3D

 23 24  0  0  0  0  0  0  0  0999 V2000
    2.8860    3.0270   22.7600 C   0  0  0  0  0  0  0  0  0  0  0  0
    4.3520    3.3880   22.4530 C   0  0  0  0  0  0  0  0  0  0  0  0
    4.3440    4.7250   21.7320 C   0  0  0  0  0  0  0  0  0  0  0  0
    5.0510    2.3670   21.6690 N   0  0  0  0  0  0  0  0  0  0  0  0
    6.4070    2.5940   21.5010 C   0  0  0  0  0  0  0  0  0  0  0  0
    4.4310    1.9600   20.4520 C   0  0  0  0  0  0  0  0  0  0  0  0
    7.3680    2.0390   22.3430 C   0  0  0  0  0  0  0  0  0  0  0  0
    3.3420    2.3900   20.0850 O   0  0  0  0  0  0  0  0  0  0  0  0
    5.0820    1.0360   19.6710 C   0  0  0  0  0  0  0  0  0  0  0  0
    8.6240    1.6940   21.8710 N   0  0  0  0  0  0  0  0  0  0  0  0
    5.2900    1.1480   18.3020 C   0  0  0  0  0  0  0  0  0  0  0  0
    5.5850   -0.0860   20.2630 C   0  0  0  0  0  0  0  0  0  0  0  0
    8.5220    0.7690   20.9030 C   0  0  0  0  0  0  0  0  0  0  0  0
    9.4930    1.5440   22.8790 C   0  0  0  0  0  0  0  0  0  0  0  0
    5.9470    0.2150   17.6030 N   0  0  0  0  0  0  0  0  0  0  0  0
    6.2340   -1.0410   19.6010 N   0  0  0  0  0  0  0  0  0  0  0  0
    9.5120    0.1550   23.3260 C   0  0  0  0  0  0  0  0  0  0  0  0
    6.3760   -0.8320   18.3020 C   0  0  0  0  0  0  0  0  0  0  0  0
    9.9900   -0.9500   22.4120 C   0  0  0  0  0  0  0  0  0  0  0  0
    9.0660   -0.1800   24.5980 C   0  0  0  0  0  0  0  0  0  0  0  0
    9.9630   -2.2730   22.8650 C   0  0  0  0  0  0  0  0  0  0  0  0
    9.0610   -1.5110   24.9830 C   0  0  0  0  0  0  0  0  0  0  0  0
    9.4950   -2.5470   24.1480 C   0  0  0  0  0  0  0  0  0  0  0  0
  1  2  1  0
  2  3  1  0
  2  4  1  0
  4  5  1  0
  4  6  1  0
  5  7  1  0
  6  8  2  0
  6  9  1  0
  7 10  1  0
  9 11  2  0
  9 12  1  0
 10 13  1  0
 10 14  1  0
 11 15  1  0
 12 16  2  0
 14 17  1  0
 15 18  2  0
 16 18  1  0
 17 19  2  0
 17 20  1  0
 19 21  1  0
 20 22  2  0
 21 23  2  0
 22 23  1  0
M  END
>  <Name>  (70) 
x0995-0A-x2193-0A_4398

>  <original SMILES>  (70) 
CC(C)N(CCN(C)Cc1ccccc1)C(=O)c1cncnc1

>  <synthon>  (70) 
[Xe]c1ccccc1

>  <ref_pdb>  (70) 
p/x0995-0A-x2193-0A-4398.holo_minimised.pdb

>  <ref_mols>  (70) 
x0995_0A,x2193_0A

>  <IFP_score>  (70) 
0.5

>  <SuCOS_score>  (70) 
0.5710900492546583

>  <AttchPnts_score>  (70) 
0

>  <Docking_score>  (70) 
-4.88277483

>  <LE_score>  (70) 
-0.21229455782608694

>  <EnergyRatio_score>  (70) 
3.516402027535461

>  <cmpd_id>  (70) 
['ENAMINE:PV-001028945170']

$$$$

     RDKit          3D

 21 22  0  0  0  0  0  0  0  0999 V2000
    9.0060    3.6520   24.7170 C   0  0  0  0  0  0  0  0  0  0  0  0
    8.1540    3.5290   23.6800 C   0  0  0  0  0  0  0  0  0  0  0  0
    8.4080    2.3570   22.8170 N   0  0  0  0  0  0  0  0  0  0  0  0
    7.2030    1.8280   22.0880 C   0  0  0  0  0  0  0  0  0  0  0  0
    9.6690    1.6760   22.6630 C   0  0  0  0  0  0  0  0  0  0  0  0
    6.0710    2.6630   22.1040 C   0  0  0  0  0  0  0  0  0  0  0  0
    9.5560    0.3720   23.1670 C   0  0  0  0  0  0  0  0  0  0  0  0
    4.9190    2.0730   21.6460 N   0  0  0  0  0  0  0  0  0  0  0  0
    9.7420   -0.8520   22.2570 C   0  0  0  0  0  0  0  0  0  0  0  0
    9.2650    0.1370   24.5120 C   0  0  0  0  0  0  0  0  0  0  0  0
    4.5460    2.0270   20.2990 C   0  0  0  0  0  0  0  0  0  0  0  0
    9.6100   -2.1090   22.7960 C   0  0  0  0  0  0  0  0  0  0  0  0
    9.1470   -1.1730   24.9830 C   0  0  0  0  0  0  0  0  0  0  0  0
    3.6710    2.6890   19.7510 O   0  0  0  0  0  0  0  0  0  0  0  0
    5.2260    1.1180   19.4910 C   0  0  0  0  0  0  0  0  0  0  0  0
    9.3160   -2.2910   24.1420 C   0  0  0  0  0  0  0  0  0  0  0  0
    5.6800   -0.0450   20.0810 C   0  0  0  0  0  0  0  0  0  0  0  0
    5.5260    1.2130   18.1530 C   0  0  0  0  0  0  0  0  0  0  0  0
    6.3520   -1.0350   19.4910 N   0  0  0  0  0  0  0  0  0  0  0  0
    6.2160    0.2570   17.4800 N   0  0  0  0  0  0  0  0  0  0  0  0
    6.5970   -0.8310   18.1890 C   0  0  0  0  0  0  0  0  0  0  0  0
  1  2  1  0
  2  3  1  0
  3  4  1  0
  3  5  1  0
  4  6  1  0
  5  7  1  0
  6  8  1  0
  7  9  2  0
  7 10  1  0
  8 11  1  0
  9 12  1  0
 10 13  2  0
 11 14  2  0
 11 15  1  0
 12 16  2  0
 13 16  1  0
 15 17  2  0
 15 18  1  0
 17 19  1  0
 18 20  2  0
 19 21  2  0
 20 21  1  0
M  END
>  <Name>  (71) 
x0995-0A-x2193-0A_1335

>  <original SMILES>  (71) 
CCN(CCNC(=O)c1cncnc1)Cc1ccccc1

>  <synthon>  (71) 
[Xe]c1ccccc1

>  <ref_pdb>  (71) 
p/x0995-0A-x2193-0A-1335.holo_minimised.pdb

>  <ref_mols>  (71) 
x0995_0A,x2193_0A

>  <IFP_score>  (71) 
0.5773502691896257

>  <SuCOS_score>  (71) 
0.5770831149535077

>  <AttchPnts_score>  (71) 
1

>  <Docking_score>  (71) 
-5.57724047

>  <LE_score>  (71) 
-0.2655828795238095

>  <EnergyRatio_score>  (71) 
3.847892854646466

>  <cmpd_id>  (71) 
['ENAMINE:PV-000799748070']

$$$$

     RDKit          3D

 25 27  0  0  0  0  0  0  0  0999 V2000
    8.5530    2.2610   27.0060 C   0  0  0  0  0  0  0  0  0  0  0  0
    7.4990    1.8890   28.0160 C   0  0  0  0  0  0  0  0  0  0  0  0
    7.1910    2.8010   29.0420 C   0  0  0  0  0  0  0  0  0  0  0  0
    6.8110    0.6540   27.9530 C   0  0  0  0  0  0  0  0  0  0  0  0
    6.2170    2.5080   29.9940 C   0  0  0  0  0  0  0  0  0  0  0  0
    5.8370    0.3700   28.9210 C   0  0  0  0  0  0  0  0  0  0  0  0
    7.1250   -0.2290   26.9280 O   0  0  0  0  0  0  0  0  0  0  0  0
    5.5420    1.2900   29.9320 C   0  0  0  0  0  0  0  0  0  0  0  0
    8.5020   -0.3480   26.6030 C   0  0  1  0  0  0  0  0  0  0  0  0
    9.3300   -0.3990   27.8730 C   0  0  0  0  0  0  0  0  0  0  0  0
    8.8750   -1.5200   25.6530 C   0  0  0  0  0  0  0  0  0  0  0  0
    8.0820   -2.4530   25.4770 O   0  0  0  0  0  0  0  0  0  0  0  0
   10.1230   -1.5030   25.0000 N   0  0  0  0  0  0  0  0  0  0  0  0
   11.2000   -0.6300   25.4730 C   0  0  0  0  0  0  0  0  0  0  0  0
   10.5850   -2.4110   23.9370 C   0  0  0  0  0  0  0  0  0  0  0  0
   12.5850   -1.0690   24.9680 C   0  0  0  0  0  0  0  0  0  0  0  0
   11.4960   -1.6910   22.9020 C   0  0  0  0  0  0  0  0  0  0  0  0
   12.6400   -0.9990   23.5440 N   0  0  0  0  0  0  0  0  0  0  0  0
   13.1060    0.1230   22.9120 C   0  0  0  0  0  0  0  0  0  0  0  0
   12.3660    1.2740   23.2590 C   0  0  0  0  0  0  0  0  0  0  0  0
   11.0940    1.1880   23.8390 C   0  0  0  0  0  0  0  0  0  0  0  0
   12.8740    2.5660   23.0370 C   0  0  0  0  0  0  0  0  0  0  0  0
   10.3800    2.3470   24.1750 C   0  0  0  0  0  0  0  0  0  0  0  0
   12.1830    3.7030   23.3560 C   0  0  0  0  0  0  0  0  0  0  0  0
   10.9400    3.5960   23.9240 C   0  0  0  0  0  0  0  0  0  0  0  0
  1  2  1  0
  2  3  2  0
  2  4  1  0
  3  5  1  0
  4  6  2  0
  4  7  1  0
  5  8  2  0
  6  8  1  0
  7  9  1  0
  9 10  1  1
  9 11  1  0
 11 12  2  0
 11 13  1  0
 13 14  1  0
 13 15  1  0
 14 16  1  0
 15 17  1  0
 16 18  1  0
 17 18  1  0
 18 19  1  0
 19 20  1  0
 20 21  2  0
 20 22  1  0
 21 23  1  0
 22 24  2  0
 23 25  2  0
 24 25  1  0
M  END
>  <Name>  (72) 
x0354-0A-x0161-0A_345

>  <original SMILES>  (72) 
Cc1ccccc1OC(C)C(=O)N1CCN(Cc2ccccc2)CC1

>  <synthon>  (72) 
[Xe]c1ccccc1

>  <ref_pdb>  (72) 
p/x0354-0A-x0161-0A-345.holo_minimised.pdb

>  <ref_mols>  (72) 
x0354_0A,x0161_0A

>  <IFP_score>  (72) 
0.5

>  <SuCOS_score>  (72) 
0.5621697232735815

>  <AttchPnts_score>  (72) 
1

>  <Docking_score>  (72) 
-3.86403465

>  <LE_score>  (72) 
-0.154561386

>  <EnergyRatio_score>  (72) 
2.831460576637809

>  <cmpd_id>  (72) 
['ENAMINE:Z26346978']

$$$$

     RDKit          3D

 25 27  0  0  0  0  0  0  0  0999 V2000
    5.6730    3.8200   30.8450 C   0  0  0  0  0  0  0  0  0  0  0  0
    6.0750    2.6410   30.0050 C   0  0  0  0  0  0  0  0  0  0  0  0
    7.1680    2.7240   29.1260 C   0  0  0  0  0  0  0  0  0  0  0  0
    5.3870    1.4370   30.0670 C   0  0  0  0  0  0  0  0  0  0  0  0
    7.5670    1.6360   28.3300 C   0  0  0  0  0  0  0  0  0  0  0  0
    5.8090    0.2390   29.2040 C   0  0  0  0  0  0  0  0  0  0  0  0
    6.8990    0.4040   28.3630 C   0  0  0  0  0  0  0  0  0  0  0  0
    7.4100   -0.5440   27.5290 O   0  0  0  0  0  0  0  0  0  0  0  0
    8.4310   -0.1080   26.6320 C   0  0  0  0  0  0  0  0  0  0  0  0
    8.5760   -1.1650   25.5770 C   0  0  2  0  0  0  0  0  0  0  0  0
    7.6860   -2.2570   25.8660 O   0  0  0  0  0  0  0  0  0  0  0  0
    9.9880   -1.6670   25.4220 C   0  0  0  0  0  0  0  0  0  0  0  0
   10.2530   -2.5650   24.3070 N   0  0  0  0  0  0  0  0  0  0  0  0
    9.8340   -2.0600   22.9840 C   0  0  0  0  0  0  0  0  0  0  0  0
   11.6410   -3.0300   24.3100 C   0  0  0  0  0  0  0  0  0  0  0  0
   10.7690   -0.9410   22.5510 C   0  0  0  0  0  0  0  0  0  0  0  0
   12.4380   -2.2870   23.4510 C   0  0  0  0  0  0  0  0  0  0  0  0
   11.9250   -0.9410   23.4630 N   0  0  0  0  0  0  0  0  0  0  0  0
   12.9600    0.0400   23.2340 C   0  0  0  0  0  0  0  0  0  0  0  0
   12.3060    1.4080   23.4710 C   0  0  0  0  0  0  0  0  0  0  0  0
   11.0870    1.4530   24.1280 C   0  0  0  0  0  0  0  0  0  0  0  0
   12.8630    2.6270   23.0610 C   0  0  0  0  0  0  0  0  0  0  0  0
   10.3860    2.7440   24.3850 C   0  0  0  0  0  0  0  0  0  0  0  0
   12.2300    3.8480   23.2830 C   0  0  0  0  0  0  0  0  0  0  0  0
   11.0020    3.9110   23.9380 C   0  0  0  0  0  0  0  0  0  0  0  0
  1  2  1  0
  2  3  2  0
  2  4  1  0
  3  5  1  0
  4  6  2  0
  5  7  2  0
  6  7  1  0
  7  8  1  0
  8  9  1  0
  9 10  1  0
 10 11  1  1
 10 12  1  0
 12 13  1  0
 13 14  1  0
 13 15  1  0
 14 16  1  0
 15 17  1  0
 16 18  1  0
 17 18  1  0
 18 19  1  0
 19 20  1  0
 20 21  2  0
 20 22  1  0
 21 23  1  0
 22 24  2  0
 23 25  2  0
 24 25  1  0
M  END
>  <Name>  (73) 
x0354-0A-x0161-0A_85

>  <original SMILES>  (73) 
Cc1ccc(OCC(O)CN2CCN(Cc3ccccc3)CC2)cc1

>  <synthon>  (73) 
[Xe]c1ccccc1

>  <ref_pdb>  (73) 
p/x0354-0A-x0161-0A-85.holo_minimised.pdb

>  <ref_mols>  (73) 
x0354_0A,x0161_0A

>  <IFP_score>  (73) 
0.5773502691896257

>  <SuCOS_score>  (73) 
0.5677882855469119

>  <AttchPnts_score>  (73) 
0

>  <Docking_score>  (73) 
-4.26682043

>  <LE_score>  (73) 
-0.1706728172

>  <EnergyRatio_score>  (73) 
2.413395877708738

>  <cmpd_id>  (73) 
['MOLPORT:003-389-411']

$$$$

     RDKit          3D

 21 22  0  0  0  0  0  0  0  0999 V2000
    9.2670    6.4570   23.7840 C   0  0  0  0  0  0  0  0  0  0  0  0
    9.9140    5.1890   23.3210 C   0  0  1  0  0  0  0  0  0  0  0  0
   10.5910    4.6370   24.3000 C   0  0  0  0  0  0  0  0  0  0  0  0
    8.9570    4.2670   22.6770 C   0  0  0  0  0  0  0  0  0  0  0  0
   11.2910    3.4990   23.9380 C   0  0  0  0  0  0  0  0  0  0  0  0
    7.7630    4.5750   22.5510 O   0  0  0  0  0  0  0  0  0  0  0  0
    9.4740    3.0450   22.2440 N   0  0  0  0  0  0  0  0  0  0  0  0
   12.4970    3.6300   23.2620 C   0  0  0  0  0  0  0  0  0  0  0  0
   10.7760    2.2350   24.2440 C   0  0  0  0  0  0  0  0  0  0  0  0
    8.7950    1.8410   22.3650 C   0  0  0  0  0  0  0  0  0  0  0  0
   13.1730    2.4810   22.8820 C   0  0  0  0  0  0  0  0  0  0  0  0
   11.4650    1.0930   23.8490 C   0  0  0  0  0  0  0  0  0  0  0  0
    9.5650    0.7280   21.9780 C   0  0  0  0  0  0  0  0  0  0  0  0
   12.6590    1.2350   23.1590 C   0  0  0  0  0  0  0  0  0  0  0  0
    9.5700   -0.4100   22.8070 C   0  0  0  0  0  0  0  0  0  0  0  0
   13.6210   -0.2580   22.5570 Br  0  0  0  0  0  0  0  0  0  0  0  0
    8.9580   -0.3940   24.0710 C   0  0  0  0  0  0  0  0  0  0  0  0
   10.1850   -1.5320   22.3490 N   0  0  0  0  0  0  0  0  0  0  0  0
    8.9840   -1.5470   24.8620 C   0  0  0  0  0  0  0  0  0  0  0  0
   10.1900   -2.6210   23.1410 C   0  0  0  0  0  0  0  0  0  0  0  0
    9.6130   -2.6860   24.3850 C   0  0  0  0  0  0  0  0  0  0  0  0
  2  1  1  1
  2  3  1  0
  2  4  1  0
  3  5  1  0
  4  6  2  0
  4  7  1  0
  5  8  2  0
  5  9  1  0
  7 10  1  0
  8 11  1  0
  9 12  2  0
 10 13  1  0
 11 14  2  0
 12 14  1  0
 13 15  1  0
 14 16  1  0
 15 17  2  0
 15 18  1  0
 17 19  1  0
 18 20  2  0
 19 21  2  0
 20 21  1  0
M  END
>  <Name>  (74) 
x0946-0A-x1077-0A_4110

>  <original SMILES>  (74) 
CC(Cc1ccc(Br)cc1)C(=O)NCCc1ccccn1

>  <synthon>  (74) 
[Xe]c1ccccn1

>  <ref_pdb>  (74) 
p/x0946-0A-x1077-0A-4110.holo_minimised.pdb

>  <ref_mols>  (74) 
x0946_0A,x1077_0A

>  <IFP_score>  (74) 
0.6666666666666666

>  <SuCOS_score>  (74) 
0.6090455210817556

>  <AttchPnts_score>  (74) 
3

>  <Docking_score>  (74) 
-4.78369331

>  <LE_score>  (74) 
-0.22779491952380954

>  <EnergyRatio_score>  (74) 
4.300100037879057

>  <cmpd_id>  (74) 
['ENAMINE:Z1551989660']

$$$$

     RDKit          3D

 22 23  0  0  0  0  0  0  0  0999 V2000
    9.6940    1.2860   21.5750 C   0  0  0  0  0  0  0  0  0  0  0  0
    9.2650    0.9860   22.9170 N   0  0  0  0  0  0  0  0  0  0  0  0
    7.9740    1.5920   23.3130 C   0  0  0  0  0  0  0  0  0  0  0  0
    9.3410   -0.4010   23.1210 C   0  0  0  0  0  0  0  0  0  0  0  0
    8.1760    3.0800   23.6880 C   0  0  0  0  0  0  0  0  0  0  0  0
    8.2680   -0.9720   23.8040 C   0  0  0  0  0  0  0  0  0  0  0  0
   10.3890   -1.1470   22.6850 N   0  0  0  0  0  0  0  0  0  0  0  0
    8.9010    3.8920   22.6360 C   0  0  0  0  0  0  0  0  0  0  0  0
    8.2560   -2.3200   24.0530 C   0  0  0  0  0  0  0  0  0  0  0  0
   10.3740   -2.4690   22.9370 C   0  0  0  0  0  0  0  0  0  0  0  0
    9.4050    5.1640   23.1640 N   0  0  0  0  0  0  0  0  0  0  0  0
    9.3420   -3.0890   23.6120 C   0  0  0  0  0  0  0  0  0  0  0  0
   10.8250    5.1700   24.0580 S   0  0  0  0  0  0  0  0  0  0  0  0
   10.4570    5.3450   25.4410 O   0  0  0  0  0  0  0  0  0  0  0  0
   11.7280    6.1000   23.4190 O   0  0  0  0  0  0  0  0  0  0  0  0
   11.4920    3.5420   23.7830 C   0  0  0  0  0  0  0  0  0  0  0  0
   10.8350    2.4150   24.2760 C   0  0  0  0  0  0  0  0  0  0  0  0
   12.6810    3.4000   23.0750 C   0  0  0  0  0  0  0  0  0  0  0  0
   11.3620    1.1450   24.0570 C   0  0  0  0  0  0  0  0  0  0  0  0
   13.2010    2.1350   22.8610 C   0  0  0  0  0  0  0  0  0  0  0  0
   12.5480    1.0060   23.3430 C   0  0  0  0  0  0  0  0  0  0  0  0
   13.2720   -0.7130   23.0290 Br  0  0  0  0  0  0  0  0  0  0  0  0
  1  2  1  0
  2  3  1  0
  2  4  1  0
  3  5  1  0
  4  6  2  0
  4  7  1  0
  5  8  1  0
  6  9  1  0
  7 10  2  0
  8 11  1  0
  9 12  2  0
 10 12  1  0
 13 11  1  0
 13 14  2  0
 13 15  2  0
 13 16  1  0
 16 17  2  0
 16 18  1  0
 17 19  1  0
 18 20  2  0
 19 21  2  0
 20 21  1  0
 21 22  1  0
M  END
>  <Name>  (75) 
x0946-0A-x1077-0A_4037

>  <original SMILES>  (75) 
CN(CCCNS(=O)(=O)c1ccc(Br)cc1)c1ccccn1

>  <synthon>  (75) 
[Xe]c1ccccn1

>  <ref_pdb>  (75) 
p/x0946-0A-x1077-0A-4037.holo_minimised.pdb

>  <ref_mols>  (75) 
x0946_0A,x1077_0A

>  <IFP_score>  (75) 
0.5773502691896257

>  <SuCOS_score>  (75) 
0.6565647456808168

>  <AttchPnts_score>  (75) 
2

>  <Docking_score>  (75) 
-4.10521221

>  <LE_score>  (75) 
-0.18660055500000003

>  <EnergyRatio_score>  (75) 
3.993021310529191

>  <cmpd_id>  (75) 
['ENAMINE:Z414674130']

$$$$

     RDKit          3D

 22 23  0  0  0  0  0  0  0  0999 V2000
   11.1370    5.9260   23.0390 C   0  0  0  0  0  0  0  0  0  0  0  0
   10.7890    4.9110   24.0830 C   0  0  1  0  0  0  0  0  0  0  0  0
   11.3420    5.5680   25.2510 N   0  0  0  0  0  0  0  0  0  0  0  0
    9.2950    4.7090   24.3560 C   0  0  0  0  0  0  0  0  0  0  0  0
   11.4350    3.5750   23.7830 C   0  0  0  0  0  0  0  0  0  0  0  0
    8.7700    5.0740   25.4120 O   0  0  0  0  0  0  0  0  0  0  0  0
    8.5560    4.0920   23.3470 N   0  0  0  0  0  0  0  0  0  0  0  0
   12.6550    3.5990   23.1060 C   0  0  0  0  0  0  0  0  0  0  0  0
   10.8800    2.3300   24.1270 C   0  0  0  0  0  0  0  0  0  0  0  0
    9.0960    3.0560   22.4570 C   0  0  0  0  0  0  0  0  0  0  0  0
   13.2890    2.4290   22.7670 C   0  0  0  0  0  0  0  0  0  0  0  0
   11.5210    1.1400   23.7750 C   0  0  0  0  0  0  0  0  0  0  0  0
    8.7370    1.7580   22.8260 C   0  0  0  0  0  0  0  0  0  0  0  0
   12.7170    1.2110   23.0840 C   0  0  0  0  0  0  0  0  0  0  0  0
    9.5050    0.7080   22.1380 N   0  0  0  0  0  0  0  0  0  0  0  0
   13.6290   -0.3160   22.5230 Br  0  0  0  0  0  0  0  0  0  0  0  0
    9.5350   -0.4700   22.9020 C   0  0  0  0  0  0  0  0  0  0  0  0
    8.9360   -0.5430   24.1580 C   0  0  0  0  0  0  0  0  0  0  0  0
   10.1690   -1.5160   22.3610 N   0  0  0  0  0  0  0  0  0  0  0  0
    8.9940   -1.7340   24.8710 C   0  0  0  0  0  0  0  0  0  0  0  0
   10.2130   -2.6540   23.0730 C   0  0  0  0  0  0  0  0  0  0  0  0
    9.6470   -2.8220   24.3240 C   0  0  0  0  0  0  0  0  0  0  0  0
  2  1  1  6
  2  3  1  0
  2  4  1  0
  2  5  1  0
  4  6  2  0
  4  7  1  0
  5  8  2  0
  5  9  1  0
  7 10  1  0
  8 11  1  0
  9 12  2  0
 10 13  1  0
 11 14  2  0
 12 14  1  0
 13 15  1  0
 14 16  1  0
 15 17  1  0
 17 18  2  0
 17 19  1  0
 18 20  1  0
 19 21  2  0
 20 22  2  0
 21 22  1  0
M  END
>  <Name>  (76) 
x0946-0A-x1077-0A_3956

>  <original SMILES>  (76) 
CC(N)(C(=O)NCCNc1ccccn1)c1ccc(Br)cc1

>  <synthon>  (76) 
[Xe]c1ccccn1

>  <ref_pdb>  (76) 
p/x0946-0A-x1077-0A-3956.holo_minimised.pdb

>  <ref_mols>  (76) 
x0946_0A,x1077_0A

>  <IFP_score>  (76) 
0.6666666666666666

>  <SuCOS_score>  (76) 
0.6330852669386264

>  <AttchPnts_score>  (76) 
5

>  <Docking_score>  (76) 
-4.65186119

>  <LE_score>  (76) 
-0.2114482359090909

>  <EnergyRatio_score>  (76) 
3.347742632697481

>  <cmpd_id>  (76) 
['ENAMINE:Z2434265084']

$$$$

     RDKit          3D

 21 22  0  0  0  0  0  0  0  0999 V2000
    9.3700    5.1180   22.9100 N   0  0  0  0  0  0  0  0  0  0  0  0
   10.7260    5.2190   23.8820 S   0  0  0  0  0  0  0  0  0  0  0  0
   11.6460    6.1860   23.3410 O   0  0  0  0  0  0  0  0  0  0  0  0
   10.2430    5.3470   25.2440 O   0  0  0  0  0  0  0  0  0  0  0  0
   11.4850    3.6300   23.7200 C   0  0  0  0  0  0  0  0  0  0  0  0
   10.8660    2.4530   24.4270 C   0  0  0  0  0  0  0  0  0  0  0  0
   12.6530    3.4640   22.9600 C   0  0  0  0  0  0  0  0  0  0  0  0
   11.5590    1.1030   24.3110 C   0  0  0  0  0  0  0  0  0  0  0  0
   13.2900    2.2210   22.8480 C   0  0  0  0  0  0  0  0  0  0  0  0
   12.8060    1.0640   23.4900 C   0  0  0  0  0  0  0  0  0  0  0  0
   13.3730   -0.1690   23.4660 O   0  0  0  0  0  0  0  0  0  0  0  0
   13.5770   -0.7480   22.2240 C   0  0  0  0  0  0  0  0  0  0  0  0
   12.3500   -1.2130   21.8330 C   0  0  0  0  0  0  0  0  0  0  0  0
   12.3550   -2.1870   21.1300 O   0  0  0  0  0  0  0  0  0  0  0  0
   11.2350   -0.5630   22.2800 N   0  0  0  0  0  0  0  0  0  0  0  0
   10.2880   -1.1860   23.0320 C   0  0  0  0  0  0  0  0  0  0  0  0
    9.5800   -0.6780   24.1180 C   0  0  0  0  0  0  0  0  0  0  0  0
   10.1480   -2.4280   22.5550 N   0  0  0  0  0  0  0  0  0  0  0  0
    8.6960   -1.5210   24.7530 C   0  0  0  0  0  0  0  0  0  0  0  0
    9.2870   -3.2220   23.1870 C   0  0  0  0  0  0  0  0  0  0  0  0
    8.5640   -2.8050   24.2730 C   0  0  0  0  0  0  0  0  0  0  0  0
  2  1  1  0
  2  3  2  0
  2  4  2  0
  2  5  1  0
  5  6  2  0
  5  7  1  0
  6  8  1  0
  7  9  2  0
  8 10  2  0
  9 10  1  0
 10 11  1  0
 11 12  1  0
 12 13  1  0
 13 14  2  0
 13 15  1  0
 15 16  1  0
 16 17  2  0
 16 18  1  0
 17 19  1  0
 18 20  2  0
 19 21  2  0
 20 21  1  0
M  END
>  <Name>  (77) 
x0946-0A-x1077-0A_3889

>  <original SMILES>  (77) 
NS(=O)(=O)c1ccc(OCC(=O)Nc2ccccn2)cc1

>  <synthon>  (77) 
[Xe]c1ccccn1

>  <ref_pdb>  (77) 
p/x0946-0A-x1077-0A-3889.holo_minimised.pdb

>  <ref_mols>  (77) 
x0946_0A,x1077_0A

>  <IFP_score>  (77) 
0.5773502691896257

>  <SuCOS_score>  (77) 
0.6199174489539014

>  <AttchPnts_score>  (77) 
3

>  <Docking_score>  (77) 
-4.83522272

>  <LE_score>  (77) 
-0.23024870095238095

>  <EnergyRatio_score>  (77) 
4.549153219930293

>  <cmpd_id>  (77) 
['ENAMINE:Z979361482']

$$$$

     RDKit          3D

 21 22  0  0  0  0  0  0  0  0999 V2000
    8.6100    6.4350   23.1320 C   0  0  0  0  0  0  0  0  0  0  0  0
    9.7200    5.5260   22.9390 N   0  0  0  0  0  0  0  0  0  0  0  0
   10.9340    5.3680   24.0790 S   0  0  0  0  0  0  0  0  0  0  0  0
   11.9920    6.2630   23.6950 O   0  0  0  0  0  0  0  0  0  0  0  0
   10.3340    5.4040   25.3900 O   0  0  0  0  0  0  0  0  0  0  0  0
   11.5010    3.7250   23.7440 C   0  0  0  0  0  0  0  0  0  0  0  0
   12.6890    3.5310   23.0640 C   0  0  0  0  0  0  0  0  0  0  0  0
   10.7390    2.6310   24.1660 C   0  0  0  0  0  0  0  0  0  0  0  0
   13.1970    2.2900   22.7480 C   0  0  0  0  0  0  0  0  0  0  0  0
   11.1750    1.3380   23.8840 C   0  0  0  0  0  0  0  0  0  0  0  0
   12.3590    1.1310   23.1870 C   0  0  0  0  0  0  0  0  0  0  0  0
   12.8060   -0.5260   22.8260 S   0  0  0  0  0  0  0  0  0  0  0  0
   12.8370   -1.3290   24.0310 O   0  0  0  0  0  0  0  0  0  0  0  0
   13.9080   -0.5220   21.8960 O   0  0  0  0  0  0  0  0  0  0  0  0
   11.3930   -0.8050   21.9480 N   0  0  0  0  0  0  0  0  0  0  0  0
   10.3630   -1.3840   22.6590 C   0  0  0  0  0  0  0  0  0  0  0  0
    9.4390   -0.6640   23.4470 C   0  0  0  0  0  0  0  0  0  0  0  0
   10.3640   -2.6910   22.5110 N   0  0  0  0  0  0  0  0  0  0  0  0
    8.4720   -1.3900   24.1180 C   0  0  0  0  0  0  0  0  0  0  0  0
    9.4290   -3.3590   23.1660 C   0  0  0  0  0  0  0  0  0  0  0  0
    8.4890   -2.7630   23.9620 C   0  0  0  0  0  0  0  0  0  0  0  0
  1  2  1  0
  3  2  1  0
  3  4  2  0
  3  5  2  0
  3  6  1  0
  6  7  2  0
  6  8  1  0
  7  9  1  0
  8 10  2  0
  9 11  2  0
 10 11  1  0
 11 12  1  0
 12 13  2  0
 12 14  2  0
 12 15  1  0
 15 16  1  0
 16 17  2  0
 16 18  1  0
 17 19  1  0
 18 20  2  0
 19 21  2  0
 20 21  1  0
M  END
>  <Name>  (78) 
x0946-0A-x1077-0A_3884

>  <original SMILES>  (78) 
CNS(=O)(=O)c1ccc(S(=O)(=O)Nc2ccccn2)cc1

>  <synthon>  (78) 
[Xe]c1ccccn1

>  <ref_pdb>  (78) 
p/x0946-0A-x1077-0A-3884.holo_minimised.pdb

>  <ref_mols>  (78) 
x0946_0A,x1077_0A

>  <IFP_score>  (78) 
0.5773502691896257

>  <SuCOS_score>  (78) 
0.5981615826432625

>  <AttchPnts_score>  (78) 
2

>  <Docking_score>  (78) 
-5.32745171

>  <LE_score>  (78) 
-0.25368817666666665

>  <EnergyRatio_score>  (78) 
3.537265880541341

>  <cmpd_id>  (78) 
['ENAMINE:Z381784576']

$$$$

     RDKit          3D

 22 23  0  0  0  0  0  0  0  0999 V2000
   10.8610    5.6340   25.2250 C   0  0  0  0  0  0  0  0  0  0  0  0
   10.9630    5.0560   23.8130 C   0  0  2  0  0  0  0  0  0  0  0  0
    9.6590    5.0630   23.1030 N   0  0  0  0  0  0  0  0  0  0  0  0
   11.5230    3.6380   23.6910 C   0  0  0  0  0  0  0  0  0  0  0  0
    8.6990    4.1090   23.4270 C   0  0  0  0  0  0  0  0  0  0  0  0
   12.7230    3.3850   23.0260 C   0  0  0  0  0  0  0  0  0  0  0  0
   10.8480    2.5240   24.2330 C   0  0  0  0  0  0  0  0  0  0  0  0
    7.9790    4.2430   24.4220 O   0  0  0  0  0  0  0  0  0  0  0  0
    8.4620    2.9570   22.6870 C   0  0  0  0  0  0  0  0  0  0  0  0
   13.2470    2.0990   22.8780 C   0  0  0  0  0  0  0  0  0  0  0  0
   11.3690    1.2230   24.0880 C   0  0  0  0  0  0  0  0  0  0  0  0
    9.4590    2.0270   22.4750 N   0  0  0  0  0  0  0  0  0  0  0  0
   12.5690    1.0130   23.4030 C   0  0  0  0  0  0  0  0  0  0  0  0
    9.1300    0.8550   21.7330 C   0  0  0  0  0  0  0  0  0  0  0  0
   13.2630   -0.7340   23.1920 Br  0  0  0  0  0  0  0  0  0  0  0  0
    8.7760    0.9130   20.5770 O   0  0  0  0  0  0  0  0  0  0  0  0
    9.2130   -0.4430   22.4840 C   0  0  0  0  0  0  0  0  0  0  0  0
    8.3010   -0.7680   23.4820 C   0  0  0  0  0  0  0  0  0  0  0  0
   10.3090   -1.3320   22.0770 N   0  0  0  0  0  0  0  0  0  0  0  0
    8.4190   -1.9900   24.1150 C   0  0  0  0  0  0  0  0  0  0  0  0
   10.3420   -2.4430   22.7230 C   0  0  0  0  0  0  0  0  0  0  0  0
    9.4520   -2.8190   23.7150 C   0  0  0  0  0  0  0  0  0  0  0  0
  2  1  1  1
  2  3  1  0
  2  4  1  0
  3  5  1  0
  4  6  2  0
  4  7  1  0
  5  8  2  0
  5  9  1  0
  6 10  1  0
  7 11  2  0
  9 12  1  0
 10 13  2  0
 11 13  1  0
 12 14  1  0
 13 15  1  0
 14 16  2  0
 14 17  1  0
 17 18  2  0
 17 19  1  0
 18 20  1  0
 19 21  2  0
 20 22  2  0
 21 22  1  0
M  END
>  <Name>  (79) 
x0946-0A-x1077-0A_2689

>  <original SMILES>  (79) 
CC(NC(=O)CNC(=O)c1ccccn1)c1ccc(Br)cc1

>  <synthon>  (79) 
[Xe]c1ccccn1

>  <ref_pdb>  (79) 
p/x0946-0A-x1077-0A-2689.holo_minimised.pdb

>  <ref_mols>  (79) 
x0946_0A,x1077_0A

>  <IFP_score>  (79) 
0.816496580927726

>  <SuCOS_score>  (79) 
0.586664514782173

>  <AttchPnts_score>  (79) 
4

>  <Docking_score>  (79) 
-5.30750656

>  <LE_score>  (79) 
-0.2412502981818182

>  <EnergyRatio_score>  (79) 
4.6148469512381896

>  <cmpd_id>  (79) 
['ENAMINE:Z1886260407']

$$$$

     RDKit          3D

 21 22  0  0  0  0  0  0  0  0999 V2000
    6.6740    1.3870   23.2860 O   0  0  0  0  0  0  0  0  0  0  0  0
    7.5600    1.7520   24.0440 C   0  0  0  0  0  0  0  0  0  0  0  0
    7.8600    3.1920   24.4360 C   0  0  0  0  0  0  0  0  0  0  0  0
    8.4450    0.8950   24.6750 N   0  0  0  0  0  0  0  0  0  0  0  0
    8.7310    3.8700   23.4560 N   0  0  0  0  0  0  0  0  0  0  0  0
    8.9510   -0.3320   24.1870 C   0  0  0  0  0  0  0  0  0  0  0  0
    9.4110    5.0980   23.9050 C   0  0  0  0  0  0  0  0  0  0  0  0
    8.8710   -1.4350   25.0520 C   0  0  0  0  0  0  0  0  0  0  0  0
    9.5210   -0.5430   22.9270 C   0  0  0  0  0  0  0  0  0  0  0  0
   10.7760    5.0030   24.0250 C   0  0  2  0  0  0  0  0  0  0  0  0
    9.3510   -2.6650   24.6280 C   0  0  0  0  0  0  0  0  0  0  0  0
    9.9920   -1.7400   22.5030 N   0  0  0  0  0  0  0  0  0  0  0  0
   11.1520    5.8730   22.9630 O   0  0  0  0  0  0  0  0  0  0  0  0
   11.3810    3.7690   23.7320 C   0  0  0  0  0  0  0  0  0  0  0  0
    9.8900   -2.7560   23.3710 C   0  0  0  0  0  0  0  0  0  0  0  0
   12.6070    3.7880   23.0760 C   0  0  0  0  0  0  0  0  0  0  0  0
   10.7960    2.5340   24.0760 C   0  0  0  0  0  0  0  0  0  0  0  0
   13.2250    2.6020   22.7660 C   0  0  0  0  0  0  0  0  0  0  0  0
   11.4410    1.3420   23.7460 C   0  0  0  0  0  0  0  0  0  0  0  0
   12.6590    1.3930   23.0810 C   0  0  0  0  0  0  0  0  0  0  0  0
   13.5780   -0.1590   22.5770 Br  0  0  0  0  0  0  0  0  0  0  0  0
  1  2  2  0
  2  3  1  0
  2  4  1  0
  3  5  1  0
  4  6  1  0
  5  7  1  0
  6  8  2  0
  6  9  1  0
  7 10  1  0
  8 11  1  0
  9 12  2  0
 10 13  1  6
 10 14  1  0
 11 15  2  0
 12 15  1  0
 14 16  2  0
 14 17  1  0
 16 18  1  0
 17 19  2  0
 18 20  2  0
 19 20  1  0
 20 21  1  0
M  END
>  <Name>  (80) 
x0946-0A-x1077-0A_1402

>  <original SMILES>  (80) 
O=C(CNCC(O)c1ccc(Br)cc1)Nc1cccnc1

>  <synthon>  (80) 
[Xe]c1cccnc1

>  <ref_pdb>  (80) 
p/x0946-0A-x1077-0A-1402.holo_minimised.pdb

>  <ref_mols>  (80) 
x0946_0A,x1077_0A

>  <IFP_score>  (80) 
0.5773502691896257

>  <SuCOS_score>  (80) 
0.5885855031957302

>  <AttchPnts_score>  (80) 
4

>  <Docking_score>  (80) 
-4.96233702

>  <LE_score>  (80) 
-0.23630176285714283

>  <EnergyRatio_score>  (80) 
3.422798197128138

>  <cmpd_id>  (80) 
['ENAMINE:PV-003138928339']

$$$$

     RDKit          3D

 23 24  0  0  0  0  0  0  0  0999 V2000
    6.1710   -0.0240   24.0060 C   0  0  0  0  0  0  0  0  0  0  0  0
    7.6070    0.4200   24.2770 C   0  0  2  0  0  0  0  0  0  0  0  0
    7.8770    1.7880   23.7860 N   0  0  0  0  0  0  0  0  0  0  0  0
    8.5800   -0.5900   23.6990 C   0  0  0  0  0  0  0  0  0  0  0  0
    8.0720    2.9210   24.6030 C   0  0  0  0  0  0  0  0  0  0  0  0
    8.4500   -1.9150   24.0610 C   0  0  0  0  0  0  0  0  0  0  0  0
    9.6170   -0.2920   22.8150 C   0  0  0  0  0  0  0  0  0  0  0  0
    7.7350    2.9850   25.7870 O   0  0  0  0  0  0  0  0  0  0  0  0
    8.6760    3.9680   23.9370 N   0  0  0  0  0  0  0  0  0  0  0  0
    9.3310   -2.8670   23.5600 C   0  0  0  0  0  0  0  0  0  0  0  0
   10.4850   -1.1990   22.3190 N   0  0  0  0  0  0  0  0  0  0  0  0
    8.8020    3.9600   22.5930 C   0  0  0  0  0  0  0  0  0  0  0  0
    9.6170    4.8580   24.6640 C   0  0  0  0  0  0  0  0  0  0  0  0
   10.3210   -2.4670   22.7040 C   0  0  0  0  0  0  0  0  0  0  0  0
   10.8130    4.9910   23.9850 C   0  0  2  0  0  0  0  0  0  0  0  0
   10.5660    5.7170   22.7830 O   0  0  0  0  0  0  0  0  0  0  0  0
   11.4230    3.6240   23.7440 C   0  0  0  0  0  0  0  0  0  0  0  0
   10.7840    2.4770   24.2270 C   0  0  0  0  0  0  0  0  0  0  0  0
   12.6260    3.4630   23.0500 C   0  0  0  0  0  0  0  0  0  0  0  0
   11.3550    1.0920   24.0110 C   0  0  0  0  0  0  0  0  0  0  0  0
   13.1750    2.1870   22.8390 C   0  0  0  0  0  0  0  0  0  0  0  0
   12.5510    1.0340   23.3040 C   0  0  0  0  0  0  0  0  0  0  0  0
   13.3260   -0.6590   22.9810 Br  0  0  0  0  0  0  0  0  0  0  0  0
  2  1  1  6
  2  3  1  0
  2  4  1  0
  3  5  1  0
  4  6  2  0
  4  7  1  0
  5  8  2  0
  5  9  1  0
  6 10  1  0
  7 11  2  0
  9 12  1  0
  9 13  1  0
 10 14  2  0
 11 14  1  0
 13 15  1  0
 15 16  1  6
 15 17  1  0
 17 18  2  0
 17 19  1  0
 18 20  1  0
 19 21  2  0
 20 22  2  0
 21 22  1  0
 22 23  1  0
M  END
>  <Name>  (81) 
x0946-0A-x1077-0A_1168

>  <original SMILES>  (81) 
CC(NC(=O)N(C)CC(O)c1ccc(Br)cc1)c1cccnc1

>  <synthon>  (81) 
[Xe]c1cccnc1

>  <ref_pdb>  (81) 
p/x0946-0A-x1077-0A-1168.holo_minimised.pdb

>  <ref_mols>  (81) 
x0946_0A,x1077_0A

>  <IFP_score>  (81) 
0.5773502691896257

>  <SuCOS_score>  (81) 
0.5569519173738844

>  <AttchPnts_score>  (81) 
2

>  <Docking_score>  (81) 
-4.58140326

>  <LE_score>  (81) 
-0.19919144608695652

>  <EnergyRatio_score>  (81) 
4.070062234420713

>  <cmpd_id>  (81) 
['ENAMINE:Z2347269394']

$$$$

     RDKit          3D

 23 24  0  0  0  0  0  0  0  0999 V2000
    7.8050    4.1560   22.8610 C   0  0  0  0  0  0  0  0  0  0  0  0
    8.4410    3.5930   23.9530 N   0  0  0  0  0  0  0  0  0  0  0  0
    9.3830    4.5050   24.6970 C   0  0  0  0  0  0  0  0  0  0  0  0
    8.3310    2.1530   24.2480 C   0  0  0  0  0  0  0  0  0  0  0  0
   10.5490    4.8020   23.9720 C   0  0  2  0  0  0  0  0  0  0  0  0
    8.3290    1.7270   25.4160 O   0  0  0  0  0  0  0  0  0  0  0  0
    8.1740    1.2650   23.0200 C   0  0  0  0  0  0  0  0  0  0  0  0
   10.3990    5.4760   22.9590 O   0  0  0  0  0  0  0  0  0  0  0  0
   11.3950    3.5290   23.6650 C   0  0  0  0  0  0  0  0  0  0  0  0
    6.8710    1.0590   22.5480 C   0  0  0  0  0  0  0  0  0  0  0  0
    8.9390    1.8790   21.8120 C   0  0  0  0  0  0  0  0  0  0  0  0
    8.8630   -0.1510   23.1470 C   0  0  0  0  0  0  0  0  0  0  0  0
   10.7780    2.2610   24.1470 C   0  0  0  0  0  0  0  0  0  0  0  0
   12.6170    3.4280   23.0210 C   0  0  0  0  0  0  0  0  0  0  0  0
    8.4040   -1.2060   23.9390 C   0  0  0  0  0  0  0  0  0  0  0  0
   10.0120   -0.4330   22.4180 C   0  0  0  0  0  0  0  0  0  0  0  0
   11.3590    1.0210   23.9660 C   0  0  0  0  0  0  0  0  0  0  0  0
   13.2000    2.1520   22.8440 C   0  0  0  0  0  0  0  0  0  0  0  0
    9.0940   -2.4200   23.9390 C   0  0  0  0  0  0  0  0  0  0  0  0
   10.6990   -1.5900   22.4100 N   0  0  0  0  0  0  0  0  0  0  0  0
   12.5790    0.9730   23.3010 C   0  0  0  0  0  0  0  0  0  0  0  0
   10.2190   -2.5610   23.1740 C   0  0  0  0  0  0  0  0  0  0  0  0
   13.3850   -0.7110   23.0250 Br  0  0  0  0  0  0  0  0  0  0  0  0
  1  2  1  0
  2  3  1  0
  2  4  1  0
  3  5  1  0
  4  6  2  0
  4  7  1  0
  5  8  1  6
  5  9  1  0
  7 10  1  0
  7 11  1  0
  7 12  1  0
  9 13  2  0
  9 14  1  0
 12 15  2  0
 12 16  1  0
 13 17  1  0
 14 18  2  0
 15 19  1  0
 16 20  2  0
 17 21  2  0
 18 21  1  0
 19 22  2  0
 20 22  1  0
 21 23  1  0
M  END
>  <Name>  (82) 
x0946-0A-x1077-0A_272

>  <original SMILES>  (82) 
CN(CC(O)c1ccc(Br)cc1)C(=O)C(C)(C)c1cccnc1

>  <synthon>  (82) 
[Xe]c1cccnc1

>  <ref_pdb>  (82) 
p/x0946-0A-x1077-0A-272.holo_minimised.pdb

>  <ref_mols>  (82) 
x0946_0A,x1077_0A

>  <IFP_score>  (82) 
0.5773502691896257

>  <SuCOS_score>  (82) 
0.5770944390336474

>  <AttchPnts_score>  (82) 
2

>  <Docking_score>  (82) 
-5.47955513

>  <LE_score>  (82) 
-0.23824152739130433

>  <EnergyRatio_score>  (82) 
4.358671260025849

>  <cmpd_id>  (82) 
['ENAMINE:Z2335622719']

$$$$

     RDKit          3D

 18 19  0  0  0  0  0  0  0  0999 V2000
   10.7390    1.6600   22.8690 O   0  0  0  0  0  0  0  0  0  0  0  0
    9.9800    0.8350   22.4250 C   0  0  0  0  0  0  0  0  0  0  0  0
    9.2880    1.0710   21.2880 N   0  0  0  0  0  0  0  0  0  0  0  0
    9.7630   -0.4610   23.0950 C   0  0  0  0  0  0  0  0  0  0  0  0
    8.0440    0.4010   21.0920 C   0  0  0  0  0  0  0  0  0  0  0  0
    9.0550   -0.4980   24.2840 C   0  0  0  0  0  0  0  0  0  0  0  0
   10.2870   -1.5540   22.4840 N   0  0  0  0  0  0  0  0  0  0  0  0
    8.2730   -0.9080   20.3170 C   0  0  0  0  0  0  0  0  0  0  0  0
    8.8280   -1.6840   24.9510 C   0  0  0  0  0  0  0  0  0  0  0  0
   10.1060   -2.7420   23.0790 C   0  0  0  0  0  0  0  0  0  0  0  0
    7.6950   -0.8990   19.1040 N   0  0  0  0  0  0  0  0  0  0  0  0
    9.4290   -2.9100   24.2500 C   0  0  0  0  0  0  0  0  0  0  0  0
    6.6140   -0.1230   18.9990 C   0  0  0  0  0  0  0  0  0  0  0  0
    5.8320   -0.0740   20.0850 N   0  0  0  0  0  0  0  0  0  0  0  0
    6.4140    0.5460   17.8540 N   0  0  0  0  0  0  0  0  0  0  0  0
    4.7770    0.7250   20.0430 C   0  0  0  0  0  0  0  0  0  0  0  0
    5.3580    1.3500   17.8090 C   0  0  0  0  0  0  0  0  0  0  0  0
    4.5060    1.4920   18.8570 C   0  0  0  0  0  0  0  0  0  0  0  0
  1  2  2  0
  2  3  1  0
  2  4  1  0
  3  5  1  0
  4  6  2  0
  4  7  1  0
  5  8  1  0
  6  9  1  0
  7 10  2  0
  8 11  1  0
  9 12  2  0
 10 12  1  0
 11 13  1  0
 13 14  2  0
 13 15  1  0
 14 16  1  0
 15 17  2  0
 16 18  2  0
 17 18  1  0
M  END
>  <Name>  (83) 
x0995-0A-x1077-0A_2116

>  <original SMILES>  (83) 
O=C(NCCNc1ncccn1)c1ccccn1

>  <synthon>  (83) 
[Xe]c1ccccn1

>  <ref_pdb>  (83) 
p/x0995-0A-x1077-0A-2116.holo_minimised.pdb

>  <ref_mols>  (83) 
x0995_0A,x1077_0A

>  <IFP_score>  (83) 
0.5773502691896257

>  <SuCOS_score>  (83) 
0.6092391896060676

>  <AttchPnts_score>  (83) 
2

>  <Docking_score>  (83) 
-4.33681726

>  <LE_score>  (83) 
-0.24093429222222223

>  <EnergyRatio_score>  (83) 
4.353610521840968

>  <cmpd_id>  (83) 
['MOLPORT:009-318-694']

$$$$

     RDKit          3D

 22 23  0  0  0  0  0  0  0  0999 V2000
    3.1060    1.9880   20.7360 C   0  0  0  0  0  0  0  0  0  0  0  0
    4.6020    2.0920   20.5900 C   0  0  1  0  0  0  0  0  0  0  0  0
    5.3660    2.0870   21.9750 C   0  0  0  0  0  0  0  0  0  0  0  0
    5.2180    1.0700   19.6830 C   0  0  0  0  0  0  0  0  0  0  0  0
    4.9170    2.6800   22.9560 O   0  0  0  0  0  0  0  0  0  0  0  0
    6.5390    1.3880   22.0240 N   0  0  0  0  0  0  0  0  0  0  0  0
    5.4820    1.1910   18.3180 C   0  0  0  0  0  0  0  0  0  0  0  0
    5.5800   -0.1260   20.2350 C   0  0  0  0  0  0  0  0  0  0  0  0
    7.4610    1.7250   22.9770 C   0  0  1  0  0  0  0  0  0  0  0  0
    6.0670    0.2090   17.5880 N   0  0  0  0  0  0  0  0  0  0  0  0
    6.1480   -1.1200   19.5630 N   0  0  0  0  0  0  0  0  0  0  0  0
    7.9120    0.8450   23.9760 C   0  0  0  0  0  0  0  0  0  0  0  0
    8.6660    2.2790   22.2030 C   0  0  0  0  0  0  0  0  0  0  0  0
    6.3670   -0.9040   18.2640 C   0  0  0  0  0  0  0  0  0  0  0  0
    8.7240   -0.3960   23.7140 C   0  0  0  0  0  0  0  0  0  0  0  0
    9.2590    1.7090   21.2840 O   0  0  0  0  0  0  0  0  0  0  0  0
    9.0570    3.4970   22.6230 O   0  0  0  0  0  0  0  0  0  0  0  0
    8.6100   -1.5340   24.5500 C   0  0  0  0  0  0  0  0  0  0  0  0
    9.6380   -0.5460   22.6650 C   0  0  0  0  0  0  0  0  0  0  0  0
    9.3690   -2.6870   24.2990 C   0  0  0  0  0  0  0  0  0  0  0  0
   10.3840   -1.6480   22.4010 N   0  0  0  0  0  0  0  0  0  0  0  0
   10.2280   -2.6860   23.2270 C   0  0  0  0  0  0  0  0  0  0  0  0
  2  1  1  1
  2  3  1  0
  2  4  1  0
  3  5  2  0
  3  6  1  0
  4  7  2  0
  4  8  1  0
  6  9  1  0
  7 10  1  0
  8 11  2  0
  9 12  1  6
  9 13  1  0
 10 14  2  0
 11 14  1  0
 12 15  1  0
 13 16  2  0
 13 17  1  0
 15 18  2  0
 15 19  1  0
 18 20  1  0
 19 21  2  0
 20 22  2  0
 21 22  1  0
M  END
>  <Name>  (84) 
x0995-0A-x1077-0A_1168

>  <original SMILES>  (84) 
CC(C(=O)NC(Cc1cccnc1)C(=O)O)c1cncnc1

>  <synthon>  (84) 
[Xe]c1cccnc1

>  <ref_pdb>  (84) 
p/x0995-0A-x1077-0A-1168.holo_minimised.pdb

>  <ref_mols>  (84) 
x0995_0A,x1077_0A

>  <IFP_score>  (84) 
0.6666666666666666

>  <SuCOS_score>  (84) 
0.6273285025471599

>  <AttchPnts_score>  (84) 
4

>  <Docking_score>  (84) 
-5.82348108

>  <LE_score>  (84) 
-0.2647036854545454

>  <EnergyRatio_score>  (84) 
3.4029533431251773

>  <cmpd_id>  (84) 
['ENAMINE:PV-003755628737']

$$$$

     RDKit          3D

 21 22  0  0  0  0  0  0  0  0999 V2000
   10.4400   -1.7810   22.5610 C   0  0  0  0  0  0  0  0  0  0  0  0
    9.3820   -1.7290   23.6840 C   0  0  2  0  0  0  0  0  0  0  0  0
    9.4840   -0.4690   24.5810 C   0  0  0  0  0  0  0  0  0  0  0  0
    9.3510   -2.9480   24.5070 N   0  0  0  0  0  0  0  0  0  0  0  0
    8.5070    0.0530   25.1040 O   0  0  0  0  0  0  0  0  0  0  0  0
   10.7900   -0.0340   24.7000 N   0  0  0  0  0  0  0  0  0  0  0  0
    8.1320   -3.0750   25.3160 C   0  0  0  0  0  0  0  0  0  0  0  0
   10.5310   -3.1980   25.3240 C   0  0  0  0  0  0  0  0  0  0  0  0
   11.3020    1.1680   24.1960 C   0  0  0  0  0  0  0  0  0  0  0  0
    8.0700   -4.2810   26.0160 C   0  0  0  0  0  0  0  0  0  0  0  0
   10.4390   -4.4670   25.9020 C   0  0  0  0  0  0  0  0  0  0  0  0
   12.5310    1.1210   23.5290 C   0  0  0  0  0  0  0  0  0  0  0  0
   10.6840    2.4390   24.3000 C   0  0  0  0  0  0  0  0  0  0  0  0
    9.2540   -4.7220   26.6040 C   0  0  0  0  0  0  0  0  0  0  0  0
   13.1750    2.2510   22.9610 C   0  0  0  0  0  0  0  0  0  0  0  0
   11.2830    3.5950   23.7540 C   0  0  0  0  0  0  0  0  0  0  0  0
   12.5100    3.4490   23.1000 C   0  0  0  0  0  0  0  0  0  0  0  0
   10.5280    5.1340   23.9020 S   0  0  0  0  0  0  0  0  0  0  0  0
    9.1640    5.0430   22.8570 N   0  0  0  0  0  0  0  0  0  0  0  0
    9.9990    5.2690   25.2380 O   0  0  0  0  0  0  0  0  0  0  0  0
   11.4130    6.1240   23.3410 O   0  0  0  0  0  0  0  0  0  0  0  0
  2  1  1  6
  2  3  1  0
  2  4  1  0
  3  5  2  0
  3  6  1  0
  4  7  1  0
  4  8  1  0
  6  9  1  0
  7 10  1  0
  8 11  1  0
  9 12  2  0
  9 13  1  0
 10 14  1  0
 11 14  1  0
 12 15  1  0
 13 16  2  0
 15 17  2  0
 16 17  1  0
 16 18  1  0
 18 19  1  0
 18 20  2  0
 18 21  2  0
M  END
>  <Name>  (85) 
x0161-0A-x0387-0A_804

>  <original SMILES>  (85) 
CC(C(=O)Nc1cccc(S(N)(=O)=O)c1)N1CCCCC1

>  <synthon>  (85) 
[Xe]N1CCCCC1

>  <ref_pdb>  (85) 
p/x0161-0A-x0387-0A-804.holo_minimised.pdb

>  <ref_mols>  (85) 
x0161_0A,x0387_0A

>  <IFP_score>  (85) 
0.6324555320336759

>  <SuCOS_score>  (85) 
0.5649827617438117

>  <AttchPnts_score>  (85) 
3

>  <Docking_score>  (85) 
-5.40565538

>  <LE_score>  (85) 
-0.25741216095238095

>  <EnergyRatio_score>  (85) 
2.6265662953977498

>  <cmpd_id>  (85) 
['MOLPORT:005-523-892', 'ENAMINE:Z123636342']

$$$$

     RDKit          3D

 24 25  0  0  0  0  0  0  0  0999 V2000
    8.8570   -0.5570   24.1490 C   0  0  0  0  0  0  0  0  0  0  0  0
    9.8690   -1.6890   23.9070 C   0  0  0  0  0  0  0  0  0  0  0  0
   10.0580   -1.9490   22.3970 C   0  0  0  0  0  0  0  0  0  0  0  0
   11.2260   -1.1790   24.5500 C   0  0  0  0  0  0  0  0  0  0  0  0
    9.4690   -2.9320   24.6070 N   0  0  0  0  0  0  0  0  0  0  0  0
   11.3150   -0.1980   25.2830 O   0  0  0  0  0  0  0  0  0  0  0  0
   12.3710   -1.8990   24.2480 N   0  0  0  0  0  0  0  0  0  0  0  0
    8.1630   -2.9220   25.2930 C   0  0  0  0  0  0  0  0  0  0  0  0
   10.6110   -3.5640   25.3010 C   0  0  0  0  0  0  0  0  0  0  0  0
   13.5050   -1.0040   24.2110 C   0  0  0  0  0  0  0  0  0  0  0  0
    7.9010   -4.1120   25.9300 C   0  0  0  0  0  0  0  0  0  0  0  0
   10.2590   -4.5900   26.3510 C   0  0  0  0  0  0  0  0  0  0  0  0
   13.3940    0.0470   23.1100 C   0  0  0  0  0  0  0  0  0  0  0  0
    8.9510   -4.2690   27.0110 C   0  0  0  0  0  0  0  0  0  0  0  0
   12.5990    1.2150   23.2410 C   0  0  0  0  0  0  0  0  0  0  0  0
   13.1140    2.4570   22.9490 C   0  0  0  0  0  0  0  0  0  0  0  0
   11.2650    1.2280   23.6500 C   0  0  0  0  0  0  0  0  0  0  0  0
   12.4330    3.6580   23.0230 C   0  0  0  0  0  0  0  0  0  0  0  0
   10.5100    2.4030   23.7520 C   0  0  0  0  0  0  0  0  0  0  0  0
   11.0530    3.6730   23.4410 C   0  0  0  0  0  0  0  0  0  0  0  0
   10.1400    5.2160   23.5360 S   0  0  0  0  0  0  0  0  0  0  0  0
    8.8190    4.9520   22.5410 N   0  0  0  0  0  0  0  0  0  0  0  0
    9.4880    5.4260   24.7970 O   0  0  0  0  0  0  0  0  0  0  0  0
   10.9830    6.2320   22.9880 O   0  0  0  0  0  0  0  0  0  0  0  0
  2  1  1  0
  2  3  1  0
  2  4  1  0
  2  5  1  0
  4  6  2  0
  4  7  1  0
  5  8  1  0
  5  9  1  0
  7 10  1  0
  8 11  1  0
  9 12  1  0
 10 13  1  0
 11 14  1  0
 12 14  1  0
 13 15  1  0
 15 16  2  0
 15 17  1  0
 16 18  1  0
 17 19  2  0
 18 20  2  0
 19 20  1  0
 20 21  1  0
 21 22  1  0
 21 23  2  0
 21 24  2  0
M  END
>  <Name>  (86) 
x0161-0A-x0387-0A_803

>  <original SMILES>  (86) 
CC(C)(C(=O)NCCc1ccc(S(N)(=O)=O)cc1)N1CCCCC1

>  <synthon>  (86) 
[Xe]N1CCCCC1

>  <ref_pdb>  (86) 
p/x0161-0A-x0387-0A-803.holo_minimised.pdb

>  <ref_mols>  (86) 
x0161_0A,x0387_0A

>  <IFP_score>  (86) 
0.5477225575051661

>  <SuCOS_score>  (86) 
0.6132977024380869

>  <AttchPnts_score>  (86) 
3

>  <Docking_score>  (86) 
-4.34919739

>  <LE_score>  (86) 
-0.18121655791666666

>  <EnergyRatio_score>  (86) 
4.090943812183108

>  <cmpd_id>  (86) 
['ENAMINE:Z2903975865']

$$$$

     RDKit          3D

 22 23  0  0  0  0  0  0  0  0999 V2000
   13.1880   -2.0010   22.7560 C   0  0  0  0  0  0  0  0  0  0  0  0
   13.2250   -0.7260   23.5730 C   0  0  0  0  0  0  0  0  0  0  0  0
   11.8850   -0.1290   24.0750 C   0  0  2  0  0  0  0  0  0  0  0  0
   10.7660   -0.8600   23.4390 N   0  0  0  0  0  0  0  0  0  0  0  0
   11.9630    1.3390   23.7460 C   0  0  0  0  0  0  0  0  0  0  0  0
    9.6640   -1.2370   24.3550 C   0  0  0  0  0  0  0  0  0  0  0  0
   13.2180    1.7350   23.0210 C   0  0  0  0  0  0  0  0  0  0  0  0
   10.9860    2.3160   24.0760 C   0  0  0  0  0  0  0  0  0  0  0  0
    8.8920   -0.4030   24.8170 O   0  0  0  0  0  0  0  0  0  0  0  0
    9.5570   -2.5900   24.6590 N   0  0  0  0  0  0  0  0  0  0  0  0
   13.4420    3.1650   22.6470 C   0  0  0  0  0  0  0  0  0  0  0  0
   11.2120    3.8040   23.6860 C   0  0  0  0  0  0  0  0  0  0  0  0
    8.2000   -3.1300   24.8650 C   0  0  0  0  0  0  0  0  0  0  0  0
   10.7020   -3.4920   24.8340 C   0  0  0  0  0  0  0  0  0  0  0  0
   12.4910    4.1370   22.9620 C   0  0  0  0  0  0  0  0  0  0  0  0
   10.1280    5.1490   24.0120 S   0  0  0  0  0  0  0  0  0  0  0  0
    8.1730   -4.1840   25.7810 C   0  0  0  0  0  0  0  0  0  0  0  0
   10.5360   -4.4090   25.8750 C   0  0  0  0  0  0  0  0  0  0  0  0
    8.9220    4.9440   22.8650 N   0  0  0  0  0  0  0  0  0  0  0  0
    9.5300    5.0190   25.3180 O   0  0  0  0  0  0  0  0  0  0  0  0
   10.8350    6.3440   23.6330 O   0  0  0  0  0  0  0  0  0  0  0  0
    9.3380   -4.2040   26.5430 C   0  0  0  0  0  0  0  0  0  0  0  0
  1  2  1  0
  3  2  1  6
  3  4  1  0
  3  5  1  0
  4  6  1  0
  5  7  2  0
  5  8  1  0
  6  9  2  0
  6 10  1  0
  7 11  1  0
  8 12  2  0
 10 13  1  0
 10 14  1  0
 11 15  2  0
 12 15  1  0
 12 16  1  0
 13 17  1  0
 14 18  1  0
 16 19  1  0
 16 20  2  0
 16 21  2  0
 17 22  1  0
 18 22  1  0
M  END
>  <Name>  (87) 
x0161-0A-x0387-0A_747

>  <original SMILES>  (87) 
CCC(NC(=O)N1CCCCC1)c1cccc(S(N)(=O)=O)c1

>  <synthon>  (87) 
[Xe]N1CCCCC1

>  <ref_pdb>  (87) 
p/x0161-0A-x0387-0A-747.holo_minimised.pdb

>  <ref_mols>  (87) 
x0161_0A,x0387_0A

>  <IFP_score>  (87) 
0.6324555320336759

>  <SuCOS_score>  (87) 
0.5556920437071344

>  <AttchPnts_score>  (87) 
2

>  <Docking_score>  (87) 
-5.96244049

>  <LE_score>  (87) 
-0.27102002227272726

>  <EnergyRatio_score>  (87) 
4.815672580772877

>  <cmpd_id>  (87) 
['ENAMINE:Z1130388699']

$$$$

     RDKit          3D

 20 21  0  0  0  0  0  0  0  0999 V2000
    9.2410    5.1060   22.8720 N   0  0  0  0  0  0  0  0  0  0  0  0
   10.5600    5.1810   23.9170 S   0  0  0  0  0  0  0  0  0  0  0  0
   11.4960    6.1010   23.3280 O   0  0  0  0  0  0  0  0  0  0  0  0
   10.0390    5.3810   25.2510 O   0  0  0  0  0  0  0  0  0  0  0  0
   11.2430    3.5410   23.8070 C   0  0  0  0  0  0  0  0  0  0  0  0
   10.6040    2.5030   24.4880 C   0  0  0  0  0  0  0  0  0  0  0  0
   12.4020    3.2900   23.0580 C   0  0  0  0  0  0  0  0  0  0  0  0
   11.1250    1.2180   24.4260 C   0  0  0  0  0  0  0  0  0  0  0  0
   12.9140    1.9810   23.0070 C   0  0  0  0  0  0  0  0  0  0  0  0
   12.2650    0.9510   23.6940 C   0  0  0  0  0  0  0  0  0  0  0  0
   12.8500   -0.7260   23.6750 S   0  0  0  0  0  0  0  0  0  0  0  0
   11.3460   -1.5860   23.0180 C   0  0  0  0  0  0  0  0  0  0  0  0
   10.1010   -1.4330   23.8840 C   0  0  0  0  0  0  0  0  0  0  0  0
    9.4070   -0.4140   23.8800 O   0  0  0  0  0  0  0  0  0  0  0  0
    9.7970   -2.6040   24.6910 N   0  0  0  0  0  0  0  0  0  0  0  0
   10.8170   -3.1370   25.4260 C   0  0  0  0  0  0  0  0  0  0  0  0
    8.4350   -2.7150   25.2400 C   0  0  0  0  0  0  0  0  0  0  0  0
   10.5220   -4.3870   25.9730 C   0  0  0  0  0  0  0  0  0  0  0  0
    8.1670   -4.0390   25.6220 C   0  0  0  0  0  0  0  0  0  0  0  0
    9.1000   -4.7150   26.4000 C   0  0  0  0  0  0  0  0  0  0  0  0
  2  1  1  0
  2  3  2  0
  2  4  2  0
  2  5  1  0
  5  6  2  0
  5  7  1  0
  6  8  1  0
  7  9  2  0
  8 10  2  0
  9 10  1  0
 10 11  1  0
 11 12  1  0
 12 13  1  0
 13 14  2  0
 13 15  1  0
 15 16  1  0
 15 17  1  0
 16 18  1  0
 17 19  1  0
 18 20  1  0
 19 20  1  0
M  END
>  <Name>  (88) 
x0161-0A-x0387-0A_705

>  <original SMILES>  (88) 
NS(=O)(=O)c1ccc(SCC(=O)N2CCCCC2)cc1

>  <synthon>  (88) 
[Xe]N1CCCCC1

>  <ref_pdb>  (88) 
p/x0161-0A-x0387-0A-705.holo_minimised.pdb

>  <ref_mols>  (88) 
x0161_0A,x0387_0A

>  <IFP_score>  (88) 
0.7071067811865476

>  <SuCOS_score>  (88) 
0.6017104286482772

>  <AttchPnts_score>  (88) 
2

>  <Docking_score>  (88) 
-5.57903433

>  <LE_score>  (88) 
-0.2789517165

>  <EnergyRatio_score>  (88) 
3.415893842708983

>  <cmpd_id>  (88) 
['ENAMINE:Z2890147098']

$$$$

     RDKit          3D

 23 24  0  0  0  0  0  0  0  0999 V2000
    9.0020    4.9810   22.9130 N   0  0  0  0  0  0  0  0  0  0  0  0
   10.2170    5.0530   24.0780 S   0  0  0  0  0  0  0  0  0  0  0  0
   11.1790    6.0050   23.5650 O   0  0  0  0  0  0  0  0  0  0  0  0
    9.6100    5.2510   25.3730 O   0  0  0  0  0  0  0  0  0  0  0  0
   10.9490    3.4260   24.0130 C   0  0  0  0  0  0  0  0  0  0  0  0
   12.3230    3.4320   23.4550 C   0  0  0  0  0  0  0  0  0  0  0  0
   10.3510    2.2310   24.4290 C   0  0  0  0  0  0  0  0  0  0  0  0
   12.9870    2.0480   23.3780 C   0  0  0  0  0  0  0  0  0  0  0  0
   11.0480    1.0030   24.3140 C   0  0  0  0  0  0  0  0  0  0  0  0
   12.3500    0.9220   23.7850 C   0  0  0  0  0  0  0  0  0  0  0  0
   13.0810   -0.2610   23.6240 C   0  0  0  0  0  0  0  0  0  0  0  0
   13.0100   -1.0800   24.8010 N   0  0  0  0  0  0  0  0  0  0  0  0
   13.4270   -2.3780   24.7210 C   0  0  0  0  0  0  0  0  0  0  0  0
   14.2290   -2.7880   23.9020 O   0  0  0  0  0  0  0  0  0  0  0  0
   12.7960   -3.1400   25.6770 N   0  0  0  0  0  0  0  0  0  0  0  0
   11.4140   -3.5290   25.4370 C   0  0  0  0  0  0  0  0  0  0  0  0
   10.6670   -3.5040   26.5860 C   0  0  0  0  0  0  0  0  0  0  0  0
    9.4610   -4.4410   26.5120 C   0  0  0  0  0  0  0  0  0  0  0  0
    8.1480   -3.6880   26.4410 C   0  0  0  0  0  0  0  0  0  0  0  0
    9.5460   -5.1720   25.2040 C   0  0  0  0  0  0  0  0  0  0  0  0
    8.1590   -2.5820   25.5300 C   0  0  0  0  0  0  0  0  0  0  0  0
    9.4950   -4.1400   24.0610 C   0  0  0  0  0  0  0  0  0  0  0  0
    9.0080   -2.7710   24.3560 N   0  0  0  0  0  0  0  0  0  0  0  0
  2  1  1  0
  2  3  2  0
  2  4  2  0
  2  5  1  0
  5  6  2  0
  5  7  1  0
  6  8  1  0
  7  9  2  0
  8 10  2  0
  9 10  1  0
 10 11  1  0
 11 12  1  0
 12 13  1  0
 13 14  2  0
 13 15  1  0
 15 16  1  0
 16 17  1  0
 17 18  1  0
 18 19  1  0
 18 20  1  0
 19 21  1  0
 20 22  1  0
 21 23  1  0
 22 23  1  0
M  END
>  <Name>  (89) 
x0161-0A-x0387-0A_596

>  <original SMILES>  (89) 
NS(=O)(=O)c1ccc(CNC(=O)NCCC2CCNCC2)cc1

>  <synthon>  (89) 
[Xe]C1CCNCC1

>  <ref_pdb>  (89) 
p/x0161-0A-x0387-0A-596.holo_minimised.pdb

>  <ref_mols>  (89) 
x0161_0A,x0387_0A

>  <IFP_score>  (89) 
0.6324555320336759

>  <SuCOS_score>  (89) 
0.5718460843873135

>  <AttchPnts_score>  (89) 
4

>  <Docking_score>  (89) 
-5.92312765

>  <LE_score>  (89) 
-0.25752728913043477

>  <EnergyRatio_score>  (89) 
4.931256714065235

>  <cmpd_id>  (89) 
['ENAMINE:Z2482188750']

$$$$

     RDKit          3D

 18 19  0  0  0  0  0  0  0  0999 V2000
   10.0260   -5.8430   25.0230 N   0  0  0  0  0  0  0  0  0  0  0  0
    8.8540   -5.4310   25.3130 C   0  0  0  0  0  0  0  0  0  0  0  0
    8.4120   -5.5440   26.5930 N   0  0  0  0  0  0  0  0  0  0  0  0
    7.9560   -4.8450   24.2130 C   0  0  0  0  0  0  0  0  0  0  0  0
    8.3710   -3.4040   23.8500 C   0  0  0  0  0  0  0  0  0  0  0  0
    7.2450   -2.4520   23.6560 N   0  0  0  0  0  0  0  0  0  0  0  0
    6.2690   -2.4760   24.7590 C   0  0  0  0  0  0  0  0  0  0  0  0
    7.5810   -1.0430   23.4530 C   0  0  0  0  0  0  0  0  0  0  0  0
    6.6340   -1.2860   25.6530 C   0  0  0  0  0  0  0  0  0  0  0  0
    7.6670   -0.4620   24.8650 C   0  0  1  0  0  0  0  0  0  0  0  0
    8.9720   -0.6660   25.4670 O   0  0  0  0  0  0  0  0  0  0  0  0
    9.8900    0.4140   25.2790 C   0  0  0  0  0  0  0  0  0  0  0  0
   10.8480    0.1010   24.1480 C   0  0  0  0  0  0  0  0  0  0  0  0
   10.6050   -1.1230   23.3020 C   0  0  0  0  0  0  0  0  0  0  0  0
   11.9650    0.8920   23.8370 C   0  0  0  0  0  0  0  0  0  0  0  0
   11.4810   -1.4280   22.2600 C   0  0  0  0  0  0  0  0  0  0  0  0
   12.8180    0.5400   22.7850 C   0  0  0  0  0  0  0  0  0  0  0  0
   12.5810   -0.6060   22.0040 C   0  0  0  0  0  0  0  0  0  0  0  0
  1  2  2  3
  2  3  1  0
  2  4  1  0
  4  5  1  0
  5  6  1  0
  6  7  1  0
  6  8  1  0
  7  9  1  0
  8 10  1  0
  9 10  1  0
 10 11  1  1
 11 12  1  0
 12 13  1  0
 13 14  2  0
 13 15  1  0
 14 16  1  0
 15 17  2  0
 16 18  2  0
 17 18  1  0
M  END
>  <Name>  (90) 
x0991-0A-x1249-0A_205

>  <original SMILES>  (90) 
N=C(N)CCN1CCC(OCc2ccccc2)C1

>  <synthon>  (90) 
[Xe]c1ccccc1

>  <ref_pdb>  (90) 
p/x0991-0A-x1249-0A-205.holo_minimised.pdb

>  <ref_mols>  (90) 
x0991_0A,x1249_0A

>  <IFP_score>  (90) 
0.5

>  <SuCOS_score>  (90) 
0.5775106287123176

>  <AttchPnts_score>  (90) 
2

>  <Docking_score>  (90) 
-5.49014807

>  <LE_score>  (90) 
-0.3050082261111111

>  <EnergyRatio_score>  (90) 
2.2525483054650404

>  <cmpd_id>  (90) 
['CHEMSPACE-BB:CSMB00016914559']

$$$$

     RDKit          3D

 20 21  0  0  0  0  0  0  0  0999 V2000
    8.3040    1.5800   23.5940 C   0  0  0  0  0  0  0  0  0  0  0  0
    8.4520    0.6400   24.6970 N   0  0  0  0  0  0  0  0  0  0  0  0
    9.8500    0.6230   25.1890 C   0  0  0  0  0  0  0  0  0  0  0  0
    7.9490   -0.7040   24.3190 C   0  0  0  0  0  0  0  0  0  0  0  0
   10.8670    0.1650   24.1160 C   0  0  0  0  0  0  0  0  0  0  0  0
    7.7660   -0.8440   22.9270 C   0  0  0  0  0  0  0  0  0  0  0  0
    6.6690   -1.1860   25.0350 C   0  0  0  0  0  0  0  0  0  0  0  0
   11.9840    0.9500   23.8290 C   0  0  0  0  0  0  0  0  0  0  0  0
   10.6670   -1.0370   23.4310 C   0  0  0  0  0  0  0  0  0  0  0  0
    7.1000   -1.9620   22.4390 C   0  0  0  0  0  0  0  0  0  0  0  0
    6.2460   -2.6050   24.6220 C   0  0  0  0  0  0  0  0  0  0  0  0
   13.0170    0.5480   22.7860 C   0  0  0  0  0  0  0  0  0  0  0  0
   11.5470   -1.4960   22.4530 C   0  0  0  0  0  0  0  0  0  0  0  0
    6.9540   -3.0540   23.4180 N   0  0  0  0  0  0  0  0  0  0  0  0
   12.6980   -0.7910   22.0870 C   0  0  0  0  0  0  0  0  0  0  0  0
    8.2630   -3.6930   23.6690 C   0  0  0  0  0  0  0  0  0  0  0  0
    8.1000   -5.1340   24.1460 C   0  0  0  0  0  0  0  0  0  0  0  0
    9.0730   -5.3090   25.2910 C   0  0  0  0  0  0  0  0  0  0  0  0
   10.3210   -5.5030   25.0880 N   0  0  0  0  0  0  0  0  0  0  0  0
    8.6630   -5.2790   26.5830 N   0  0  0  0  0  0  0  0  0  0  0  0
  1  2  1  0
  2  3  1  0
  2  4  1  0
  3  5  1  0
  4  6  1  0
  4  7  1  0
  5  8  2  0
  5  9  1  0
  6 10  1  0
  7 11  1  0
  8 12  1  0
  9 13  2  0
 10 14  1  0
 11 14  1  0
 12 15  2  0
 13 15  1  0
 14 16  1  0
 16 17  1  0
 17 18  1  0
 18 19  2  3
 18 20  1  0
M  END
>  <Name>  (91) 
x0991-0A-x1249-0A_54

>  <original SMILES>  (91) 
CN(Cc1ccccc1)C1CCN(CCC(=N)N)CC1

>  <synthon>  (91) 
[Xe]c1ccccc1

>  <ref_pdb>  (91) 
p/x0991-0A-x1249-0A-54.holo_minimised.pdb

>  <ref_mols>  (91) 
x0991_0A,x1249_0A

>  <IFP_score>  (91) 
0.5773502691896257

>  <SuCOS_score>  (91) 
0.6687282497070235

>  <AttchPnts_score>  (91) 
2

>  <Docking_score>  (91) 
-5.89150381

>  <LE_score>  (91) 
-0.2945751905

>  <EnergyRatio_score>  (91) 
2.7587309481206725

>  <cmpd_id>  (91) 
['CHEMSPACE-BB:CSMB00040261557']

$$$$

     RDKit          3D

 22 23  0  0  0  0  0  0  0  0999 V2000
   14.0080   -1.7420   20.4990 N   0  0  0  0  0  0  0  0  0  0  0  0
   13.2840   -1.3360   21.2800 C   0  0  0  0  0  0  0  0  0  0  0  0
   12.4500   -0.8850   22.3200 C   0  0  0  0  0  0  0  0  0  0  0  0
   11.2650   -1.5630   22.6240 C   0  0  0  0  0  0  0  0  0  0  0  0
   12.7920    0.2170   23.0790 C   0  0  0  0  0  0  0  0  0  0  0  0
   10.4880   -1.1130   23.6960 C   0  0  0  0  0  0  0  0  0  0  0  0
   12.0410    0.6570   24.1150 N   0  0  0  0  0  0  0  0  0  0  0  0
   10.9020   -0.0050   24.4340 C   0  0  0  0  0  0  0  0  0  0  0  0
   10.1910    0.4730   25.5210 N   0  0  0  0  0  0  0  0  0  0  0  0
    9.1670   -0.3500   26.1650 C   0  0  0  0  0  0  0  0  0  0  0  0
    8.3860    0.5140   27.1760 C   0  0  0  0  0  0  0  0  0  0  0  0
    8.6780    0.5640   28.3560 O   0  0  0  0  0  0  0  0  0  0  0  0
    7.2930    1.3130   26.6250 N   0  0  0  0  0  0  0  0  0  0  0  0
    7.7670    2.3280   25.6670 C   0  0  0  0  0  0  0  0  0  0  0  0
    7.4900    1.9080   24.2120 C   0  0  0  0  0  0  0  0  0  0  0  0
    8.3170    2.1910   23.3350 O   0  0  0  0  0  0  0  0  0  0  0  0
    6.3000    1.2450   23.9390 N   0  0  0  0  0  0  0  0  0  0  0  0
    5.6190    1.6600   22.6950 C   0  0  0  0  0  0  0  0  0  0  0  0
    5.4400    0.7600   25.0460 C   0  0  0  0  0  0  0  0  0  0  0  0
    4.4470    0.8970   22.4260 C   0  0  0  0  0  0  0  0  0  0  0  0
    4.0450    0.2680   24.6540 C   0  0  0  0  0  0  0  0  0  0  0  0
    3.5120    0.9160   23.5040 O   0  0  0  0  0  0  0  0  0  0  0  0
  1  2  3  0
  2  3  1  0
  3  4  2  0
  3  5  1  0
  4  6  1  0
  5  7  2  0
  6  8  2  0
  7  8  1  0
  8  9  1  0
  9 10  1  0
 10 11  1  0
 11 12  2  0
 11 13  1  0
 13 14  1  0
 14 15  1  0
 15 16  2  0
 15 17  1  0
 17 18  1  0
 17 19  1  0
 18 20  1  0
 19 21  1  0
 20 22  1  0
 21 22  1  0
M  END
>  <Name>  (92) 
x0305-0A-x1249-0A_2143

>  <original SMILES>  (92) 
N#Cc1ccc(NCC(=O)NCC(=O)N2CCOCC2)nc1

>  <synthon>  (92) 
[Xe]N1CCOCC1

>  <ref_pdb>  (92) 
p/x0305-0A-x1249-0A-2143.holo_minimised.pdb

>  <ref_mols>  (92) 
x0305_0A,x1249_0A

>  <IFP_score>  (92) 
0.5

>  <SuCOS_score>  (92) 
0.8096673032769686

>  <AttchPnts_score>  (92) 
4

>  <Docking_score>  (92) 
-4.12475872

>  <LE_score>  (92) 
-0.18748903272727271

>  <EnergyRatio_score>  (92) 
2.8247605524123958

>  <cmpd_id>  (92) 
['ENAMINE:Z1604986069']

$$$$

     RDKit          3D

 23 24  0  0  0  0  0  0  0  0999 V2000
   10.0700   -4.0800   24.5260 C   0  0  0  0  0  0  0  0  0  0  0  0
    9.6230   -2.7740   24.0370 N   0  0  0  0  0  0  0  0  0  0  0  0
    8.3270   -2.7680   23.3860 C   0  0  0  0  0  0  0  0  0  0  0  0
   10.5670   -1.7880   23.6900 C   0  0  0  0  0  0  0  0  0  0  0  0
    7.5940   -3.9300   22.9630 O   0  0  0  0  0  0  0  0  0  0  0  0
    7.8310   -1.4040   23.2060 N   0  0  0  0  0  0  0  0  0  0  0  0
   10.6920   -0.4090   24.3710 C   0  0  0  0  0  0  0  0  0  0  0  0
   11.4800   -2.0410   22.6550 C   0  0  0  0  0  0  0  0  0  0  0  0
    7.3280   -0.7750   24.4330 C   0  0  0  0  0  0  0  0  0  0  0  0
   11.6360    0.4830   23.9720 N   0  0  0  0  0  0  0  0  0  0  0  0
   12.4520   -1.1110   22.2650 C   0  0  0  0  0  0  0  0  0  0  0  0
    7.9940   -1.1580   25.5940 C   0  0  0  0  0  0  0  0  0  0  0  0
    5.8740   -1.2340   24.6170 C   0  0  0  0  0  0  0  0  0  0  0  0
    7.4610    0.7690   24.2020 C   0  0  0  0  0  0  0  0  0  0  0  0
   12.5370    0.2440   22.9660 C   0  0  0  0  0  0  0  0  0  0  0  0
   13.3390   -1.4260   21.2660 C   0  0  0  0  0  0  0  0  0  0  0  0
    6.2300    1.4380   24.0200 N   0  0  0  0  0  0  0  0  0  0  0  0
   14.1050   -1.7260   20.4770 N   0  0  0  0  0  0  0  0  0  0  0  0
    5.7100    1.4120   22.6280 C   0  0  0  0  0  0  0  0  0  0  0  0
    5.2850    1.1990   25.1460 C   0  0  0  0  0  0  0  0  0  0  0  0
    4.4020    0.9380   22.4750 C   0  0  0  0  0  0  0  0  0  0  0  0
    4.0410    0.6840   24.7610 C   0  0  0  0  0  0  0  0  0  0  0  0
    3.5640    1.3120   23.5720 O   0  0  0  0  0  0  0  0  0  0  0  0
  1  2  1  0
  2  3  1  0
  2  4  1  0
  3  5  2  0
  3  6  1  0
  4  7  2  0
  4  8  1  0
  9  6  1  0
  7 10  1  0
  8 11  2  0
  9 12  1  0
  9 13  1  0
  9 14  1  0
 10 15  2  0
 11 15  1  0
 11 16  1  0
 14 17  1  0
 16 18  3  0
 17 19  1  0
 17 20  1  0
 19 21  1  0
 20 22  1  0
 21 23  1  0
 22 23  1  0
M  END
>  <Name>  (93) 
x0305-0A-x1249-0A_2131

>  <original SMILES>  (93) 
CN(C(=O)NC(C)(C)CN1CCOCC1)c1cncc(C#N)c1

>  <synthon>  (93) 
[Xe]N1CCOCC1

>  <ref_pdb>  (93) 
p/x0305-0A-x1249-0A-2131.holo_minimised.pdb

>  <ref_mols>  (93) 
x0305_0A,x1249_0A

>  <IFP_score>  (93) 
0.5773502691896257

>  <SuCOS_score>  (93) 
0.6236963464467662

>  <AttchPnts_score>  (93) 
1

>  <Docking_score>  (93) 
-4.72694254

>  <LE_score>  (93) 
-0.2055192408695652

>  <EnergyRatio_score>  (93) 
4.2576601945216845

>  <cmpd_id>  (93) 
['ENAMINE:Z4127559841']

$$$$

     RDKit          3D

 23 24  0  0  0  0  0  0  0  0999 V2000
    8.3500   -0.1060   25.7630 C   0  0  0  0  0  0  0  0  0  0  0  0
    8.2840    1.1600   24.9330 C   0  0  0  0  0  0  0  0  0  0  0  0
    9.6450    1.8630   24.9910 C   0  0  0  0  0  0  0  0  0  0  0  0
    7.8070    1.2020   23.6440 C   0  0  1  0  0  0  0  0  0  0  0  0
    8.2990    0.4620   22.4180 C   0  0  0  0  0  0  0  0  0  0  0  0
    6.3310    0.9360   23.6230 N   0  0  0  0  0  0  0  0  0  0  0  0
    7.9880   -0.9690   22.2120 N   0  0  0  0  0  0  0  0  0  0  0  0
    5.5550    1.6850   22.6110 C   0  0  0  0  0  0  0  0  0  0  0  0
    5.5960    0.9430   24.9210 C   0  0  0  0  0  0  0  0  0  0  0  0
    8.7940   -2.1120   23.1840 S   0  0  0  0  0  0  0  0  0  0  0  0
    4.3330    1.0430   22.4800 C   0  0  0  0  0  0  0  0  0  0  0  0
    4.3000    0.4340   24.7850 C   0  0  0  0  0  0  0  0  0  0  0  0
    8.1350   -2.1490   24.4690 O   0  0  0  0  0  0  0  0  0  0  0  0
    8.9220   -3.3290   22.4180 O   0  0  0  0  0  0  0  0  0  0  0  0
   10.3960   -1.3930   23.3000 C   0  0  0  0  0  0  0  0  0  0  0  0
    3.5980    1.0700   23.7110 O   0  0  0  0  0  0  0  0  0  0  0  0
   10.7510   -0.4870   24.3110 C   0  0  0  0  0  0  0  0  0  0  0  0
   11.3340   -1.7400   22.3400 C   0  0  0  0  0  0  0  0  0  0  0  0
   12.0390    0.0790   24.3790 N   0  0  0  0  0  0  0  0  0  0  0  0
   12.6060   -1.2050   22.3670 C   0  0  0  0  0  0  0  0  0  0  0  0
   12.9880   -0.3100   23.3540 C   0  0  0  0  0  0  0  0  0  0  0  0
   13.4870   -1.5800   21.3820 C   0  0  0  0  0  0  0  0  0  0  0  0
   14.1590   -1.8890   20.5180 N   0  0  0  0  0  0  0  0  0  0  0  0
  1  2  1  0
  2  3  1  0
  2  4  1  0
  4  5  1  6
  4  6  1  0
  5  7  1  0
  6  8  1  0
  6  9  1  0
 10  7  1  0
  8 11  1  0
  9 12  1  0
 10 13  2  0
 10 14  2  0
 10 15  1  0
 11 16  1  0
 12 16  1  0
 15 17  2  0
 15 18  1  0
 17 19  1  0
 18 20  2  0
 19 21  2  0
 20 21  1  0
 20 22  1  0
 22 23  3  0
M  END
>  <Name>  (94) 
x0305-0A-x1249-0A_2062

>  <original SMILES>  (94) 
CC(C)C(CNS(=O)(=O)c1cncc(C#N)c1)N1CCOCC1

>  <synthon>  (94) 
[Xe]N1CCOCC1

>  <ref_pdb>  (94) 
p/x0305-0A-x1249-0A-2062.holo_minimised.pdb

>  <ref_mols>  (94) 
x0305_0A,x1249_0A

>  <IFP_score>  (94) 
0.5773502691896257

>  <SuCOS_score>  (94) 
0.6833882187126086

>  <AttchPnts_score>  (94) 
1

>  <Docking_score>  (94) 
-3.94410801

>  <LE_score>  (94) 
-0.17148295695652174

>  <EnergyRatio_score>  (94) 
3.6955756901954

>  <cmpd_id>  (94) 
['ENAMINE:Z2169684729']

$$$$

     RDKit          3D

 21 22  0  0  0  0  0  0  0  0999 V2000
    3.2710    2.4070   21.2130 O   0  0  0  0  0  0  0  0  0  0  0  0
    3.9500    2.1020   22.1780 C   0  0  0  0  0  0  0  0  0  0  0  0
    3.3960    2.4680   23.4200 C   0  0  0  0  0  0  0  0  0  0  0  0
    5.1310    1.4290   22.1310 N   0  0  0  0  0  0  0  0  0  0  0  0
    2.1290    1.7370   23.8330 C   0  0  2  0  0  0  0  0  0  0  0  0
    5.1660    0.2550   21.4000 C   0  0  0  0  0  0  0  0  0  0  0  0
    1.2400    2.5290   24.5180 C   0  0  0  0  0  0  0  0  0  0  0  0
    2.4890    0.6520   24.8280 C   0  0  0  0  0  0  0  0  0  0  0  0
    5.6720    0.3360   20.0380 C   0  0  0  0  0  0  0  0  0  0  0  0
   -0.0980    2.2040   24.6120 C   0  0  0  0  0  0  0  0  0  0  0  0
    1.6460    3.8310   25.2360 C   0  0  0  0  0  0  0  0  0  0  0  0
    1.4650   -0.2160   25.0060 F   0  0  0  0  0  0  0  0  0  0  0  0
    3.5740   -0.0590   24.4600 F   0  0  0  0  0  0  0  0  0  0  0  0
    5.0320    1.1880   19.0300 C   0  0  0  0  0  0  0  0  0  0  0  0
    6.7490   -0.4020   19.7520 N   0  0  0  0  0  0  0  0  0  0  0  0
   -1.0530    2.9320   25.2760 C   0  0  0  0  0  0  0  0  0  0  0  0
    0.6150    4.6300   25.9610 C   0  0  0  0  0  0  0  0  0  0  0  0
    5.5930    1.1940   17.7730 C   0  0  0  0  0  0  0  0  0  0  0  0
    7.1850   -0.2950   18.4850 C   0  0  0  0  0  0  0  0  0  0  0  0
   -0.6800    4.1660   25.9590 C   0  0  0  0  0  0  0  0  0  0  0  0
    6.6740    0.4560   17.4900 N   0  0  0  0  0  0  0  0  0  0  0  0
  1  2  2  0
  2  3  1  0
  2  4  1  0
  5  3  1  1
  4  6  1  0
  5  7  1  0
  5  8  1  0
  6  9  1  0
  7 10  2  0
  7 11  1  0
  8 12  1  0
  8 13  1  0
  9 14  2  0
  9 15  1  0
 10 16  1  0
 11 17  2  0
 14 18  1  0
 15 19  2  0
 16 20  2  0
 17 20  1  0
 18 21  2  0
 19 21  1  0
M  END
>  <Name>  (95) 
x0995-0A-x0426-0A_9526

>  <original SMILES>  (95) 
O=C(CC(c1ccccc1)C(F)F)NCc1ccncn1

>  <synthon>  (95) 
[Xe]c1ccccc1

>  <ref_pdb>  (95) 
p/x0995-0A-x0426-0A-9526.holo_minimised.pdb

>  <ref_mols>  (95) 
x0995_0A,x0426_0A

>  <IFP_score>  (95) 
0.5773502691896257

>  <SuCOS_score>  (95) 
0.6967035704854504

>  <AttchPnts_score>  (95) 
4

>  <Docking_score>  (95) 
-3.28049016

>  <LE_score>  (95) 
-0.15621381714285715

>  <EnergyRatio_score>  (95) 
3.32859760730268

>  <cmpd_id>  (95) 
['ENAMINE:Z3354590465']

$$$$

     RDKit          3D

 22 23  0  0  0  0  0  0  0  0999 V2000
    2.8750    1.1990   21.4940 O   0  0  0  0  0  0  0  0  0  0  0  0
    3.9160    1.3780   22.1180 C   0  0  0  0  0  0  0  0  0  0  0  0
    4.1900    0.9900   23.5810 C   0  0  0  0  0  0  0  0  0  0  0  0
    5.0500    2.0130   21.5130 N   0  0  0  0  0  0  0  0  0  0  0  0
    3.3670    1.9440   24.4560 C   0  0  2  0  0  0  0  0  0  0  0  0
    4.8910    2.1820   20.0960 C   0  0  0  0  0  0  0  0  0  0  0  0
    2.1620    2.0660   23.8010 C   0  0  0  0  0  0  0  0  0  0  0  0
    4.0000    3.1730   24.6930 C   0  0  0  0  0  0  0  0  0  0  0  0
    5.4700    1.0340   19.3830 C   0  0  0  0  0  0  0  0  0  0  0  0
    1.1540    2.7950   24.6920 C   0  0  0  0  0  0  0  0  0  0  0  0
    3.7190    4.2470   24.1490 O   0  0  0  0  0  0  0  0  0  0  0  0
    4.9970    3.1300   25.6020 O   0  0  0  0  0  0  0  0  0  0  0  0
    5.8430   -0.2100   20.1420 C   0  0  0  0  0  0  0  0  0  0  0  0
    5.7000    1.0400   18.0370 C   0  0  0  0  0  0  0  0  0  0  0  0
   -0.2480    2.1560   24.7030 C   0  0  0  0  0  0  0  0  0  0  0  0
    1.4260    3.9570   25.4510 C   0  0  0  0  0  0  0  0  0  0  0  0
    6.3720   -1.2330   19.4840 N   0  0  0  0  0  0  0  0  0  0  0  0
    6.2370    0.0090   17.4090 N   0  0  0  0  0  0  0  0  0  0  0  0
   -1.1950    2.7810   25.4840 C   0  0  0  0  0  0  0  0  0  0  0  0
    0.4550    4.5970   26.2510 C   0  0  0  0  0  0  0  0  0  0  0  0
    6.5360   -1.0610   18.1620 C   0  0  0  0  0  0  0  0  0  0  0  0
   -0.7990    3.9890   26.2330 C   0  0  0  0  0  0  0  0  0  0  0  0
  1  2  2  0
  2  3  1  0
  2  4  1  0
  5  3  1  6
  4  6  1  0
  5  7  1  0
  5  8  1  0
  6  9  1  0
  7 10  1  0
  8 11  2  0
  8 12  1  0
  9 13  2  0
  9 14  1  0
 10 15  2  0
 10 16  1  0
 13 17  1  0
 14 18  2  0
 15 19  1  0
 16 20  2  0
 17 21  2  0
 18 21  1  0
 19 22  2  0
 20 22  1  0
M  END
>  <Name>  (96) 
x0995-0A-x0426-0A_9310

>  <original SMILES>  (96) 
O=C(CC(Cc1ccccc1)C(=O)O)NCc1cncnc1

>  <synthon>  (96) 
[Xe]c1ccccc1

>  <ref_pdb>  (96) 
p/x0995-0A-x0426-0A-9310.holo_minimised.pdb

>  <ref_mols>  (96) 
x0995_0A,x0426_0A

>  <IFP_score>  (96) 
0.5773502691896257

>  <SuCOS_score>  (96) 
0.6766789340342322

>  <AttchPnts_score>  (96) 
4

>  <Docking_score>  (96) 
-3.31259274

>  <LE_score>  (96) 
-0.15057239727272728

>  <EnergyRatio_score>  (96) 
4.296406781163091

>  <cmpd_id>  (96) 
['ENAMINE:Z3495281662']

$$$$

     RDKit          3D

 21 22  0  0  0  0  0  0  0  0999 V2000
    3.2770    3.8870   22.9530 C   0  0  0  0  0  0  0  0  0  0  0  0
    3.2860    2.6090   23.4800 N   0  0  0  0  0  0  0  0  0  0  0  0
    4.4810    1.7950   23.3070 C   0  0  0  0  0  0  0  0  0  0  0  0
    2.1080    1.9030   23.7340 C   0  0  0  0  0  0  0  0  0  0  0  0
    5.4320    1.8020   24.0900 O   0  0  0  0  0  0  0  0  0  0  0  0
    4.4470    0.9430   22.0880 C   0  0  0  0  0  0  0  0  0  0  0  0
    1.3490    1.5520   22.4460 C   0  0  0  0  0  0  0  0  0  0  0  0
    2.4630    0.5950   24.4870 C   0  0  0  0  0  0  0  0  0  0  0  0
    1.2550    2.6530   24.5160 C   0  0  0  0  0  0  0  0  0  0  0  0
    4.5330    1.5460   20.8810 C   0  0  0  0  0  0  0  0  0  0  0  0
    1.6380    3.7790   25.2050 C   0  0  0  0  0  0  0  0  0  0  0  0
   -0.0770    2.2140   24.5910 C   0  0  0  0  0  0  0  0  0  0  0  0
    5.2960    1.0000   19.9420 C   0  0  0  0  0  0  0  0  0  0  0  0
    0.7100    4.4710   25.9630 C   0  0  0  0  0  0  0  0  0  0  0  0
   -0.9860    2.9060   25.3440 C   0  0  0  0  0  0  0  0  0  0  0  0
    5.0210    1.5370   18.6400 C   0  0  0  0  0  0  0  0  0  0  0  0
    6.2390    0.0630   20.0870 N   0  0  0  0  0  0  0  0  0  0  0  0
   -0.6010    4.0410   26.0350 C   0  0  0  0  0  0  0  0  0  0  0  0
    5.7680    1.0680   17.5470 C   0  0  0  0  0  0  0  0  0  0  0  0
    6.9060   -0.3260   18.9550 C   0  0  0  0  0  0  0  0  0  0  0  0
    6.7110    0.1740   17.5350 N   0  0  0  0  0  0  0  0  0  0  0  0
  1  2  1  0
  2  3  1  0
  4  2  1  0
  3  5  2  0
  3  6  1  0
  4  7  1  0
  4  8  1  0
  4  9  1  0
  6 10  1  0
  9 11  2  0
  9 12  1  0
 10 13  1  0
 11 14  1  0
 12 15  2  0
 13 16  2  0
 13 17  1  0
 14 18  2  0
 15 18  1  0
 16 19  1  0
 17 20  2  0
 19 21  2  0
 20 21  1  0
M  END
>  <Name>  (97) 
x0995-0A-x0426-0A_8904

>  <original SMILES>  (97) 
CN(C(=O)CCc1ccncn1)C(C)(C)c1ccccc1

>  <synthon>  (97) 
[Xe]c1ccccc1

>  <ref_pdb>  (97) 
p/x0995-0A-x0426-0A-8904.holo_minimised.pdb

>  <ref_mols>  (97) 
x0995_0A,x0426_0A

>  <IFP_score>  (97) 
0.5773502691896257

>  <SuCOS_score>  (97) 
0.7143399465551421

>  <AttchPnts_score>  (97) 
1

>  <Docking_score>  (97) 
-3.219486

>  <LE_score>  (97) 
-0.15330885714285714

>  <EnergyRatio_score>  (97) 
3.7857644402854755

>  <cmpd_id>  (97) 
['ENAMINE:Z2060588617']

$$$$

     RDKit          3D

 21 22  0  0  0  0  0  0  0  0999 V2000
    5.4110    1.2570   23.2670 O   0  0  0  0  0  0  0  0  0  0  0  0
    4.3980    1.8870   23.0090 C   0  0  0  0  0  0  0  0  0  0  0  0
    3.9290    2.3520   21.6370 C   0  0  0  0  0  0  0  0  0  0  0  0
    3.5460    2.2470   24.0060 N   0  0  0  0  0  0  0  0  0  0  0  0
    3.2340    1.4560   20.8370 O   0  0  0  0  0  0  0  0  0  0  0  0
    2.3870    1.6350   24.3130 C   0  0  0  0  0  0  0  0  0  0  0  0
    3.8190    1.5770   19.5750 C   0  0  0  0  0  0  0  0  0  0  0  0
    2.1640    0.4470   24.2510 O   0  0  0  0  0  0  0  0  0  0  0  0
    1.2990    2.4930   24.7980 C   0  0  0  0  0  0  0  0  0  0  0  0
    3.3320    2.3290   18.7650 O   0  0  0  0  0  0  0  0  0  0  0  0
    5.0220    0.8420   19.2390 C   0  0  0  0  0  0  0  0  0  0  0  0
   -0.0080    2.0620   24.7760 C   0  0  0  0  0  0  0  0  0  0  0  0
    1.6080    3.9160   25.3590 C   0  0  0  0  0  0  0  0  0  0  0  0
    5.6500    0.9630   17.9990 C   0  0  0  0  0  0  0  0  0  0  0  0
    5.8120   -0.1700   20.1420 C   0  0  0  0  0  0  0  0  0  0  0  0
   -1.0960    2.9210   25.2740 C   0  0  0  0  0  0  0  0  0  0  0  0
    0.4320    4.7600   25.8620 C   0  0  0  0  0  0  0  0  0  0  0  0
    6.7720    0.3110   17.6390 N   0  0  0  0  0  0  0  0  0  0  0  0
    6.9370   -0.8370   19.8080 N   0  0  0  0  0  0  0  0  0  0  0  0
   -0.8160    4.1770   25.7700 C   0  0  0  0  0  0  0  0  0  0  0  0
    7.3730   -0.5280   18.4780 C   0  0  0  0  0  0  0  0  0  0  0  0
  1  2  2  0
  2  3  1  0
  2  4  1  0
  3  5  1  0
  4  6  1  0
  5  7  1  0
  6  8  2  0
  6  9  1  0
  7 10  2  0
  7 11  1  0
  9 12  2  0
  9 13  1  0
 11 14  2  0
 11 15  1  0
 12 16  1  0
 13 17  2  0
 14 18  1  0
 15 19  2  0
 16 20  2  0
 17 20  1  0
 18 21  2  0
 19 21  1  0
M  END
>  <Name>  (98) 
x0995-0A-x0426-0A_7112

>  <original SMILES>  (98) 
O=C(COC(=O)c1cncnc1)NC(=O)c1ccccc1

>  <synthon>  (98) 
[Xe]c1ccccc1

>  <ref_pdb>  (98) 
p/x0995-0A-x0426-0A-7112.holo_minimised.pdb

>  <ref_mols>  (98) 
x0995_0A,x0426_0A

>  <IFP_score>  (98) 
0.6666666666666666

>  <SuCOS_score>  (98) 
0.7237098235559956

>  <AttchPnts_score>  (98) 
3

>  <Docking_score>  (98) 
-3.45972776

>  <LE_score>  (98) 
-0.16474894095238093

>  <EnergyRatio_score>  (98) 
4.715964312943823

>  <cmpd_id>  (98) 
['ENAMINE:Z1680348269']

$$$$

     RDKit          3D

 21 22  0  0  0  0  0  0  0  0999 V2000
    1.4720    1.8450   21.2100 C   0  0  0  0  0  0  0  0  0  0  0  0
    2.7640    1.7630   21.7400 C   0  0  1  0  0  0  0  0  0  0  0  0
    3.7680    2.3510   20.8900 N   0  0  0  0  0  0  0  0  0  0  0  0
    2.8320    2.3220   22.9950 C   0  0  2  0  0  0  0  0  0  0  0  0
    3.8710    2.0470   19.5610 C   0  0  0  0  0  0  0  0  0  0  0  0
    2.3550    1.9060   24.1970 C   0  0  0  0  0  0  0  0  0  0  0  0
    2.4210    3.7810   22.8480 C   0  0  0  0  0  0  0  0  0  0  0  0
    5.0350    1.1580   19.1690 C   0  0  0  0  0  0  0  0  0  0  0  0
    1.2160    2.6640   24.8240 C   0  0  0  0  0  0  0  0  0  0  0  0
    1.4250    4.2000   22.2740 O   0  0  0  0  0  0  0  0  0  0  0  0
    3.2650    4.6560   23.4300 O   0  0  0  0  0  0  0  0  0  0  0  0
    5.6330    0.1990   20.1260 C   0  0  0  0  0  0  0  0  0  0  0  0
    5.6810    1.1780   17.8040 C   0  0  0  0  0  0  0  0  0  0  0  0
   -0.1480    2.0960   24.7850 C   0  0  0  0  0  0  0  0  0  0  0  0
    1.4420    3.8940   25.4380 C   0  0  0  0  0  0  0  0  0  0  0  0
    6.6760   -0.5710   19.7910 N   0  0  0  0  0  0  0  0  0  0  0  0
    6.7170    0.3890   17.5380 N   0  0  0  0  0  0  0  0  0  0  0  0
   -1.1810    2.8250   25.3780 C   0  0  0  0  0  0  0  0  0  0  0  0
    0.3910    4.5810   26.0130 C   0  0  0  0  0  0  0  0  0  0  0  0
    7.1580   -0.4330   18.5260 C   0  0  0  0  0  0  0  0  0  0  0  0
   -0.8770    4.0420   25.9720 C   0  0  0  0  0  0  0  0  0  0  0  0
  2  1  1  6
  2  3  1  0
  2  4  1  0
  3  5  1  0
  4  6  1  1
  4  7  1  0
  5  8  1  0
  6  9  1  0
  7 10  2  0
  7 11  1  0
  8 12  2  0
  8 13  1  0
  9 14  2  0
  9 15  1  0
 12 16  1  0
 13 17  2  0
 14 18  1  0
 15 19  2  0
 16 20  2  0
 17 20  1  0
 18 21  2  0
 19 21  1  0
M  END
>  <Name>  (99) 
x0995-0A-x0426-0A_7061

>  <original SMILES>  (99) 
CC(NCc1cncnc1)C(Cc1ccccc1)C(=O)O

>  <synthon>  (99) 
[Xe]c1ccccc1

>  <ref_pdb>  (99) 
p/x0995-0A-x0426-0A-7061.holo_minimised.pdb

>  <ref_mols>  (99) 
x0995_0A,x0426_0A

>  <IFP_score>  (99) 
0.5773502691896257

>  <SuCOS_score>  (99) 
0.727121453022097

>  <AttchPnts_score>  (99) 
3

>  <Docking_score>  (99) 
-3.22214913

>  <LE_score>  (99) 
-0.15343567285714285

>  <EnergyRatio_score>  (99) 
4.647478643607376

>  <cmpd_id>  (99) 
['ENAMINE:Z2897523617']

$$$$

     RDKit          3D

 17 18  0  0  0  0  0  0  0  0999 V2000
    4.3580    2.2240   18.4800 N   0  0  0  0  0  0  0  0  0  0  0  0
    4.9300    1.0090   18.6200 C   0  0  1  0  0  0  0  0  0  0  0  0
    6.1210    0.7120   17.7140 C   0  0  0  0  0  0  0  0  0  0  0  0
    5.0540    0.7480   20.1290 C   0  0  0  0  0  0  0  0  0  0  0  0
    7.2410    0.2190   18.5940 C   0  0  0  0  0  0  0  0  0  0  0  0
    6.0840   -0.0750   20.6010 C   0  0  0  0  0  0  0  0  0  0  0  0
    4.0500    1.4100   20.8780 C   0  0  0  0  0  0  0  0  0  0  0  0
    6.6800   -0.6400   19.4860 C   0  0  0  0  0  0  0  0  0  0  0  0
    3.9060    1.3520   22.3480 C   0  0  0  0  0  0  0  0  0  0  0  0
    2.6120    1.6780   22.6770 O   0  0  0  0  0  0  0  0  0  0  0  0
    2.5160    1.7440   24.0960 C   0  0  0  0  0  0  0  0  0  0  0  0
    1.4250    2.4570   24.5950 C   0  0  0  0  0  0  0  0  0  0  0  0
    0.1100    1.9670   24.5370 C   0  0  0  0  0  0  0  0  0  0  0  0
    1.6350    3.7170   25.1930 C   0  0  0  0  0  0  0  0  0  0  0  0
   -0.9660    2.6770   25.0460 C   0  0  0  0  0  0  0  0  0  0  0  0
    0.6020    4.4690   25.7180 C   0  0  0  0  0  0  0  0  0  0  0  0
   -0.7020    4.0040   25.6740 C   0  0  0  0  0  0  0  0  0  0  0  0
  2  1  1  1
  2  3  1  0
  2  4  1  0
  3  5  1  0
  4  6  1  0
  4  7  2  3
  5  8  1  0
  6  8  1  0
  7  9  1  0
  9 10  1  0
 10 11  1  0
 11 12  1  0
 12 13  2  0
 12 14  1  0
 13 15  1  0
 14 16  2  0
 15 17  2  0
 16 17  1  0
M  END
>  <Name>  (100) 
x0995-0A-x0426-0A_5966

>  <original SMILES>  (100) 
NC1CCCCC1=CCOCc1ccccc1

>  <synthon>  (100) 
[Xe]c1ccccc1

>  <ref_pdb>  (100) 
p/x0995-0A-x0426-0A-5966.holo_minimised.pdb

>  <ref_mols>  (100) 
x0995_0A,x0426_0A

>  <IFP_score>  (100) 
0.7071067811865476

>  <SuCOS_score>  (100) 
0.564854360464905

>  <AttchPnts_score>  (100) 
1

>  <Docking_score>  (100) 
-3.51254821

>  <LE_score>  (100) 
-0.20662048294117646

>  <EnergyRatio_score>  (100) 
3.738724236436118

>  <cmpd_id>  (100) 
['CHEMSPACE-BB:CSMB00118227273']

$$$$

     RDKit          3D

 22 24  0  0  0  0  0  0  0  0999 V2000
    4.3870    0.1750   23.0670 O   0  0  0  0  0  0  0  0  0  0  0  0
    4.2050    1.2460   23.6160 C   0  0  0  0  0  0  0  0  0  0  0  0
    3.3560    1.3780   24.6330 O   0  0  0  0  0  0  0  0  0  0  0  0
    4.8730    2.4610   23.2590 N   0  0  0  0  0  0  0  0  0  0  0  0
    1.9830    1.4170   24.2640 C   0  0  0  0  0  0  0  0  0  0  0  0
    6.3000    2.1820   23.1560 C   0  0  0  0  0  0  0  0  0  0  0  0
    4.5070    3.1690   22.1830 C   0  0  0  0  0  0  0  0  0  0  0  0
    1.1440    2.3890   24.7730 C   0  0  0  0  0  0  0  0  0  0  0  0
    6.5340    2.0600   21.6920 C   0  0  0  0  0  0  0  0  0  0  0  0
    5.3620    2.6670   20.9790 C   0  0  1  0  0  0  0  0  0  0  0  0
    1.5690    3.7640   25.2950 C   0  0  0  0  0  0  0  0  0  0  0  0
   -0.3710    2.0240   24.8130 C   0  0  0  0  0  0  0  0  0  0  0  0
    4.5610    1.9050   20.2340 N   0  0  0  0  0  0  0  0  0  0  0  0
    0.4920    4.6520   25.8100 C   0  0  0  0  0  0  0  0  0  0  0  0
   -1.2710    2.9660   25.3270 C   0  0  0  0  0  0  0  0  0  0  0  0
    5.2700    0.8660   19.5000 C   0  0  0  0  0  0  0  0  0  0  0  0
   -0.9420    4.2330   25.8200 C   0  0  0  0  0  0  0  0  0  0  0  0
    5.5500    1.0350   18.1650 C   0  0  0  0  0  0  0  0  0  0  0  0
    5.6980   -0.3020   20.0740 C   0  0  0  0  0  0  0  0  0  0  0  0
    6.2070    0.1490   17.4110 N   0  0  0  0  0  0  0  0  0  0  0  0
    6.3600   -1.2470   19.3950 N   0  0  0  0  0  0  0  0  0  0  0  0
    6.5870   -0.9590   18.0540 C   0  0  0  0  0  0  0  0  0  0  0  0
  1  2  2  0
  2  3  1  0
  2  4  1  0
  3  5  1  0
  4  6  1  0
  4  7  1  0
  5  8  1  0
  6  9  1  0
  7 10  1  0
  9 10  1  0
  8 11  2  0
  8 12  1  0
 10 13  1  1
 11 14  1  0
 12 15  2  0
 13 16  1  0
 14 17  2  0
 15 17  1  0
 16 18  2  0
 16 19  1  0
 18 20  1  0
 19 21  2  0
 20 22  2  0
 21 22  1  0
M  END
>  <Name>  (101) 
x0995-0A-x0426-0A_4576

>  <original SMILES>  (101) 
O=C(OCc1ccccc1)N1CCC(Nc2cncnc2)C1

>  <synthon>  (101) 
[Xe]c1ccccc1

>  <ref_pdb>  (101) 
p/x0995-0A-x0426-0A-4576.holo_minimised.pdb

>  <ref_mols>  (101) 
x0995_0A,x0426_0A

>  <IFP_score>  (101) 
0.7071067811865476

>  <SuCOS_score>  (101) 
0.6743571197259924

>  <AttchPnts_score>  (101) 
2

>  <Docking_score>  (101) 
-4.07480764

>  <LE_score>  (101) 
-0.1852185290909091

>  <EnergyRatio_score>  (101) 
4.443325880837721

>  <cmpd_id>  (101) 
['CHEMSPACE-BB:CSMB00016970895']

$$$$

     RDKit          3D

 21 22  0  0  0  0  0  0  0  0999 V2000
    1.9630    0.0720   25.1620 C   0  0  0  0  0  0  0  0  0  0  0  0
    2.3390    1.5200   24.8470 C   0  0  1  0  0  0  0  0  0  0  0  0
    2.7980    1.6310   23.4200 C   0  0  0  0  0  0  0  0  0  0  0  0
    1.2250    2.4660   25.1390 C   0  0  0  0  0  0  0  0  0  0  0  0
    1.6240    1.9250   22.4980 C   0  0  0  0  0  0  0  0  0  0  0  0
    1.4880    3.8720   25.4830 C   0  0  0  0  0  0  0  0  0  0  0  0
   -0.0980    2.0320   25.0910 C   0  0  0  0  0  0  0  0  0  0  0  0
    2.1400    1.7890   21.1710 N   0  0  0  0  0  0  0  0  0  0  0  0
    0.4100    4.7120   25.7550 C   0  0  0  0  0  0  0  0  0  0  0  0
   -1.1280    2.9060   25.3670 C   0  0  0  0  0  0  0  0  0  0  0  0
    3.4580    1.4250   21.0860 C   0  0  0  0  0  0  0  0  0  0  0  0
   -0.8920    4.2330   25.6990 C   0  0  0  0  0  0  0  0  0  0  0  0
    3.9900    0.5710   21.7720 O   0  0  0  0  0  0  0  0  0  0  0  0
    4.2710    2.1890   20.0580 C   0  0  2  0  0  0  0  0  0  0  0  0
    3.4020    2.7660   19.1790 C   0  0  0  0  0  0  0  0  0  0  0  0
    5.1300    1.1500   19.4090 C   0  0  0  0  0  0  0  0  0  0  0  0
    5.6100    0.0420   20.0690 C   0  0  0  0  0  0  0  0  0  0  0  0
    5.5030    1.2440   18.0890 C   0  0  0  0  0  0  0  0  0  0  0  0
    6.3850   -0.8900   19.5070 N   0  0  0  0  0  0  0  0  0  0  0  0
    6.2820    0.3420   17.4680 N   0  0  0  0  0  0  0  0  0  0  0  0
    6.6800   -0.6820   18.2210 C   0  0  0  0  0  0  0  0  0  0  0  0
  2  1  1  6
  2  3  1  0
  2  4  1  0
  3  5  1  0
  4  6  2  0
  4  7  1  0
  5  8  1  0
  6  9  1  0
  7 10  2  0
  8 11  1  0
  9 12  2  0
 10 12  1  0
 11 13  2  0
 11 14  1  0
 14 15  1  6
 14 16  1  0
 16 17  2  0
 16 18  1  0
 17 19  1  0
 18 20  2  0
 19 21  2  0
 20 21  1  0
M  END
>  <Name>  (102) 
x0995-0A-x0426-0A_4150

>  <original SMILES>  (102) 
CC(CCNC(=O)C(C)c1cncnc1)c1ccccc1

>  <synthon>  (102) 
[Xe]c1ccccc1

>  <ref_pdb>  (102) 
p/x0995-0A-x0426-0A-4150.holo_minimised.pdb

>  <ref_mols>  (102) 
x0995_0A,x0426_0A

>  <IFP_score>  (102) 
0.5773502691896257

>  <SuCOS_score>  (102) 
0.7388040692399086

>  <AttchPnts_score>  (102) 
2

>  <Docking_score>  (102) 
-3.16940546

>  <LE_score>  (102) 
-0.15092406952380952

>  <EnergyRatio_score>  (102) 
4.645445752314303

>  <cmpd_id>  (102) 
['ENAMINE:Z2725355044']

$$$$

     RDKit          3D

 18 19  0  0  0  0  0  0  0  0999 V2000
    2.2960    2.3130   22.1380 C   0  0  0  0  0  0  0  0  0  0  0  0
    2.2130    1.9700   23.6480 C   0  0  1  0  0  0  0  0  0  0  0  0
    3.6450    2.0780   24.2100 C   0  0  0  0  0  0  0  0  0  0  0  0
    1.2710    2.6180   24.4240 C   0  0  0  0  0  0  0  0  0  0  0  0
    4.4140    0.9870   23.8660 C   0  0  0  0  0  0  0  0  0  0  0  0
   -0.0350    2.1000   24.4630 C   0  0  0  0  0  0  0  0  0  0  0  0
    1.5890    3.7720   25.1620 C   0  0  0  0  0  0  0  0  0  0  0  0
    4.9610    1.1890   22.5240 N   0  0  0  0  0  0  0  0  0  0  0  0
   -1.0280    2.7090   25.2220 C   0  0  0  0  0  0  0  0  0  0  0  0
    0.6460    4.4120   25.9260 C   0  0  0  0  0  0  0  0  0  0  0  0
    4.6560    0.2870   21.5450 C   0  0  0  0  0  0  0  0  0  0  0  0
   -0.6500    3.9350   25.9910 C   0  0  0  0  0  0  0  0  0  0  0  0
    5.3500    0.3630   20.1520 C   0  0  0  0  0  0  0  0  0  0  0  0
    4.8530    1.1890   19.1430 C   0  0  0  0  0  0  0  0  0  0  0  0
    6.4350   -0.3950   19.9340 N   0  0  0  0  0  0  0  0  0  0  0  0
    5.5540    1.2030   17.8450 C   0  0  0  0  0  0  0  0  0  0  0  0
    7.0040   -0.3080   18.7100 C   0  0  0  0  0  0  0  0  0  0  0  0
    6.6370    0.4410   17.6520 N   0  0  0  0  0  0  0  0  0  0  0  0
  2  1  1  6
  2  3  1  0
  2  4  1  0
  3  5  1  0
  4  6  2  0
  4  7  1  0
  5  8  1  0
  6  9  1  0
  7 10  2  0
  8 11  1  0
  9 12  2  0
 10 12  1  0
 11 13  1  0
 13 14  2  0
 13 15  1  0
 14 16  1  0
 15 17  2  0
 16 18  2  0
 17 18  1  0
M  END
>  <Name>  (103) 
x0995-0A-x0426-0A_1655

>  <original SMILES>  (103) 
CC(CCNCc1ccncn1)c1ccccc1

>  <synthon>  (103) 
[Xe]c1ccccc1

>  <ref_pdb>  (103) 
p/x0995-0A-x0426-0A-1655.holo_minimised.pdb

>  <ref_mols>  (103) 
x0995_0A,x0426_0A

>  <IFP_score>  (103) 
0.5773502691896257

>  <SuCOS_score>  (103) 
0.6875381462662414

>  <AttchPnts_score>  (103) 
1

>  <Docking_score>  (103) 
-2.9957037

>  <LE_score>  (103) 
-0.16642798333333333

>  <EnergyRatio_score>  (103) 
3.028140619379311

>  <cmpd_id>  (103) 
['CHEMSPACE-BB:CSMB00001028662']

$$$$

     RDKit          3D

 21 22  0  0  0  0  0  0  0  0999 V2000
    4.3990    0.5970   22.4860 O   0  0  0  0  0  0  0  0  0  0  0  0
    4.0030    1.7490   22.3830 C   0  0  0  0  0  0  0  0  0  0  0  0
    4.2790    2.5230   21.1760 N   0  0  0  0  0  0  0  0  0  0  0  0
    3.3010    2.3760   23.3470 N   0  0  0  0  0  0  0  0  0  0  0  0
    3.8040    2.0370   19.8730 C   0  0  0  0  0  0  0  0  0  0  0  0
    2.2600    1.7580   23.9600 C   0  0  2  0  0  0  0  0  0  0  0  0
    4.9190    1.1660   19.2650 C   0  0  0  0  0  0  0  0  0  0  0  0
    1.3800    2.7110   24.6890 C   0  0  0  0  0  0  0  0  0  0  0  0
    2.7570    0.6410   24.9160 C   0  0  0  0  0  0  0  0  0  0  0  0
    5.4410    0.2010   20.0800 C   0  0  0  0  0  0  0  0  0  0  0  0
    5.4490    1.2530   18.0030 C   0  0  0  0  0  0  0  0  0  0  0  0
    1.6140    3.9130   25.3260 C   0  0  0  0  0  0  0  0  0  0  0  0
    0.1310    2.0880   24.5980 C   0  0  0  0  0  0  0  0  0  0  0  0
    3.3850    1.1650   25.9990 F   0  0  0  0  0  0  0  0  0  0  0  0
    1.7080   -0.0740   25.3890 F   0  0  0  0  0  0  0  0  0  0  0  0
    6.4230   -0.6280   19.7060 N   0  0  0  0  0  0  0  0  0  0  0  0
    6.4270    0.4520   17.5700 N   0  0  0  0  0  0  0  0  0  0  0  0
    0.5100    4.5180   25.9080 C   0  0  0  0  0  0  0  0  0  0  0  0
   -0.9440    2.7130   25.1840 C   0  0  0  0  0  0  0  0  0  0  0  0
    6.8830   -0.4660   18.4480 C   0  0  0  0  0  0  0  0  0  0  0  0
   -0.7710    3.9270   25.8420 C   0  0  0  0  0  0  0  0  0  0  0  0
  1  2  2  0
  2  3  1  0
  2  4  1  0
  3  5  1  0
  6  4  1  1
  5  7  1  0
  6  8  1  0
  6  9  1  0
  7 10  2  0
  7 11  1  0
  8 12  2  0
  8 13  1  0
  9 14  1  0
  9 15  1  0
 10 16  1  0
 11 17  2  0
 12 18  1  0
 13 19  2  0
 16 20  2  0
 17 20  1  0
 18 21  2  0
 19 21  1  0
M  END
>  <Name>  (104) 
x0995-0A-x0426-0A_1342

>  <original SMILES>  (104) 
O=C(NCc1cncnc1)NC(c1ccccc1)C(F)F

>  <synthon>  (104) 
[Xe]c1ccccc1

>  <ref_pdb>  (104) 
p/x0995-0A-x0426-0A-1342.holo_minimised.pdb

>  <ref_mols>  (104) 
x0995_0A,x0426_0A

>  <IFP_score>  (104) 
0.5773502691896257

>  <SuCOS_score>  (104) 
0.7879117121438282

>  <AttchPnts_score>  (104) 
4

>  <Docking_score>  (104) 
-3.59564042

>  <LE_score>  (104) 
-0.17122097238095238

>  <EnergyRatio_score>  (104) 
3.057013033923597

>  <cmpd_id>  (104) 
['ENAMINE:PV-003674252840']

$$$$

     RDKit          3D

 19 20  0  0  0  0  0  0  0  0999 V2000
    4.2660    2.5240   22.9740 O   0  0  0  0  0  0  0  0  0  0  0  0
    3.3600    1.9350   22.4160 C   0  0  0  0  0  0  0  0  0  0  0  0
    3.4210    1.4090   21.1780 N   0  0  0  0  0  0  0  0  0  0  0  0
    2.1540    1.7280   22.9320 O   0  0  0  0  0  0  0  0  0  0  0  0
    3.1740    2.2170   20.0670 N   0  0  0  0  0  0  0  0  0  0  0  0
    2.2260    1.5970   24.3270 C   0  0  0  0  0  0  0  0  0  0  0  0
    3.9140    2.1340   19.0040 C   0  0  0  0  0  0  0  0  0  0  0  0
    1.1920    2.3920   24.8290 C   0  0  0  0  0  0  0  0  0  0  0  0
    5.0250    1.1420   18.9470 C   0  0  0  0  0  0  0  0  0  0  0  0
   -0.1190    1.9680   24.8370 C   0  0  0  0  0  0  0  0  0  0  0  0
    1.5390    3.7740   25.3840 C   0  0  0  0  0  0  0  0  0  0  0  0
    5.7200    1.0980   17.7670 C   0  0  0  0  0  0  0  0  0  0  0  0
    5.4050    0.2750   19.9670 C   0  0  0  0  0  0  0  0  0  0  0  0
   -1.2450    2.8340   25.3880 C   0  0  0  0  0  0  0  0  0  0  0  0
    0.5260    4.5880   25.8970 C   0  0  0  0  0  0  0  0  0  0  0  0
    6.7310    0.2690   17.5870 N   0  0  0  0  0  0  0  0  0  0  0  0
    6.4370   -0.5790   19.7930 N   0  0  0  0  0  0  0  0  0  0  0  0
   -0.8160    4.2010   25.9280 C   0  0  0  0  0  0  0  0  0  0  0  0
    7.0460   -0.5310   18.6050 C   0  0  0  0  0  0  0  0  0  0  0  0
  1  2  2  0
  2  3  1  0
  2  4  1  0
  3  5  1  0
  4  6  1  0
  5  7  2  3
  6  8  1  0
  7  9  1  0
  8 10  2  0
  8 11  1  0
  9 12  2  0
  9 13  1  0
 10 14  1  0
 11 15  2  0
 12 16  1  0
 13 17  2  0
 14 18  2  0
 15 18  1  0
 16 19  2  0
 17 19  1  0
M  END
>  <Name>  (105) 
x0995-0A-x0426-0A_1281

>  <original SMILES>  (105) 
O=C(NN=Cc1cncnc1)OCc1ccccc1

>  <synthon>  (105) 
[Xe]c1ccccc1

>  <ref_pdb>  (105) 
p/x0995-0A-x0426-0A-1281.holo_minimised.pdb

>  <ref_mols>  (105) 
x0995_0A,x0426_0A

>  <IFP_score>  (105) 
0.816496580927726

>  <SuCOS_score>  (105) 
0.7300750175499969

>  <AttchPnts_score>  (105) 
2

>  <Docking_score>  (105) 
-3.2738657

>  <LE_score>  (105) 
-0.1723087210526316

>  <EnergyRatio_score>  (105) 
3.769917383900154

>  <cmpd_id>  (105) 
['CHEMSPACE-BB:CSMB00113517730']

$$$$

     RDKit          3D

 21 22  0  0  0  0  0  0  0  0999 V2000
    2.0410   -0.3820   25.7770 C   0  0  0  0  0  0  0  0  0  0  0  0
    3.0530    0.4720   25.3680 C   0  0  0  0  0  0  0  0  0  0  0  0
    4.1860   -0.1300   24.8260 C   0  0  0  0  0  0  0  0  0  0  0  0
    2.4750    1.4830   24.3350 C   0  0  2  0  0  0  0  0  0  0  0  0
    3.5160    2.2890   23.7170 N   0  0  0  0  0  0  0  0  0  0  0  0
    1.3700    2.4050   24.8530 C   0  0  0  0  0  0  0  0  0  0  0  0
    3.0070    2.3800   22.4460 C   0  0  0  0  0  0  0  0  0  0  0  0
    0.0450    2.0270   24.8720 C   0  0  0  0  0  0  0  0  0  0  0  0
    1.6700    3.6860   25.3350 C   0  0  0  0  0  0  0  0  0  0  0  0
    1.8280    2.6560   22.2670 O   0  0  0  0  0  0  0  0  0  0  0  0
    3.8470    2.1410   21.2520 C   0  0  0  0  0  0  0  0  0  0  0  0
   -0.9390    2.8680   25.3470 C   0  0  0  0  0  0  0  0  0  0  0  0
    0.6240    4.4860   25.8010 C   0  0  0  0  0  0  0  0  0  0  0  0
    4.5520    0.8020   21.1880 C   0  0  0  0  0  0  0  0  0  0  0  0
   -0.6770    4.1090   25.8210 N   0  0  0  0  0  0  0  0  0  0  0  0
    5.3580    0.6050   19.9330 C   0  0  0  0  0  0  0  0  0  0  0  0
    4.9440    1.3220   18.8660 C   0  0  0  0  0  0  0  0  0  0  0  0
    6.4200   -0.2250   19.8790 N   0  0  0  0  0  0  0  0  0  0  0  0
    5.6560    1.2170   17.5920 C   0  0  0  0  0  0  0  0  0  0  0  0
    7.0520   -0.2900   18.6720 C   0  0  0  0  0  0  0  0  0  0  0  0
    6.7970    0.3380   17.5040 N   0  0  0  0  0  0  0  0  0  0  0  0
  1  2  1  0
  2  3  1  0
  2  4  1  0
  4  5  1  1
  4  6  1  0
  5  7  1  0
  6  8  2  0
  6  9  1  0
  7 10  2  0
  7 11  1  0
  8 12  1  0
  9 13  2  0
 11 14  2  3
 12 15  2  0
 13 15  1  0
 14 16  1  0
 16 17  2  0
 16 18  1  0
 17 19  1  0
 18 20  2  0
 19 21  2  0
 20 21  1  0
M  END
>  <Name>  (106) 
x0995-0A-x0426-0A_227

>  <original SMILES>  (106) 
CC(C)C(NC(=O)C=Cc1ccncn1)c1ccncc1

>  <synthon>  (106) 
[Xe]c1ccncc1

>  <ref_pdb>  (106) 
p/x0995-0A-x0426-0A-227.holo_minimised.pdb

>  <ref_mols>  (106) 
x0995_0A,x0426_0A

>  <IFP_score>  (106) 
0.5773502691896257

>  <SuCOS_score>  (106) 
0.7028606551983012

>  <AttchPnts_score>  (106) 
2

>  <Docking_score>  (106) 
-3.21507168

>  <LE_score>  (106) 
-0.15309865142857143

>  <EnergyRatio_score>  (106) 
4.0367507875339435

>  <cmpd_id>  (106) 
['ENAMINE:Z1666428348']

$$$$

     RDKit          3D

 20 21  0  0  0  0  0  0  0  0999 V2000
    6.4500   -0.9500   25.9700 O   0  0  0  0  0  0  0  0  0  0  0  0
    7.6370   -0.4470   25.5200 C   0  0  0  0  0  0  0  0  0  0  0  0
    8.9040   -0.8840   26.2090 C   0  0  0  0  0  0  0  0  0  0  0  0
    7.8520    0.4420   24.4870 N   0  0  0  0  0  0  0  0  0  0  0  0
   10.1670    0.3940   25.9580 S   0  0  0  0  0  0  0  0  0  0  0  0
    7.7970    0.2330   23.1220 N   0  0  0  0  0  0  0  0  0  0  0  0
   11.1680   -0.2220   24.5720 C   0  0  0  0  0  0  0  0  0  0  0  0
    6.6660    0.6460   22.5020 C   0  0  0  0  0  0  0  0  0  0  0  0
   10.6560   -1.2680   23.8390 C   0  0  0  0  0  0  0  0  0  0  0  0
   12.4020    0.3620   24.2860 N   0  0  0  0  0  0  0  0  0  0  0  0
    6.4480    0.5820   21.1190 C   0  0  0  0  0  0  0  0  0  0  0  0
   11.5190   -1.7700   22.6780 C   0  0  0  0  0  0  0  0  0  0  0  0
   13.1350   -0.1160   23.2490 C   0  0  0  0  0  0  0  0  0  0  0  0
    5.4580    1.4060   20.5700 C   0  0  0  0  0  0  0  0  0  0  0  0
    7.1820   -0.2580   20.2650 C   0  0  0  0  0  0  0  0  0  0  0  0
   12.7500   -1.1650   22.4250 C   0  0  0  0  0  0  0  0  0  0  0  0
    5.2060    1.4010   19.2060 C   0  0  0  0  0  0  0  0  0  0  0  0
    6.9230   -0.2570   18.8930 C   0  0  0  0  0  0  0  0  0  0  0  0
    5.9380    0.5750   18.3740 C   0  0  0  0  0  0  0  0  0  0  0  0
    5.6370    0.6380   17.0570 O   0  0  0  0  0  0  0  0  0  0  0  0
  1  2  2  0
  2  3  1  0
  2  4  1  0
  3  5  1  0
  4  6  1  0
  5  7  1  0
  6  8  2  3
  7  9  2  0
  7 10  1  0
  8 11  1  0
  9 12  1  0
 10 13  2  0
 11 14  2  0
 11 15  1  0
 12 16  2  0
 13 16  1  0
 14 17  1  0
 15 18  2  0
 17 19  2  0
 18 19  1  0
 19 20  1  0
M  END
>  <Name>  (107) 
x0967-0A-x0305-0A_2403

>  <original SMILES>  (107) 
O=C(CSc1ccccn1)NN=Cc1ccc(O)cc1

>  <synthon>  (107) 
[Xe]c1ccccn1

>  <ref_pdb>  (107) 
p/x0967-0A-x0305-0A-2403.holo_minimised.pdb

>  <ref_mols>  (107) 
x0967_0A,x0305_0A

>  <IFP_score>  (107) 
0.6324555320336759

>  <SuCOS_score>  (107) 
0.5569353162740407

>  <AttchPnts_score>  (107) 
2

>  <Docking_score>  (107) 
-5.80563021

>  <LE_score>  (107) 
-0.2902815105

>  <EnergyRatio_score>  (107) 
3.7926208002854946

>  <cmpd_id>  (107) 
['MOLPORT:000-722-498', 'MOLPORT:001-930-140']

$$$$

     RDKit          3D

 21 22  0  0  0  0  0  0  0  0999 V2000
    8.7110   -1.9040   25.9890 O   0  0  0  0  0  0  0  0  0  0  0  0
    9.1200   -0.6240   25.7400 C   0  0  0  0  0  0  0  0  0  0  0  0
    8.0450    0.4020   25.3430 C   0  0  0  0  0  0  0  0  0  0  0  0
   10.3880   -0.0940   25.7940 N   0  0  0  0  0  0  0  0  0  0  0  0
    8.2760    0.7560   24.1620 O   0  0  0  0  0  0  0  0  0  0  0  0
   11.1860   -0.3720   24.7220 C   0  0  0  0  0  0  0  0  0  0  0  0
    7.2530    1.1730   23.3240 C   0  0  0  0  0  0  0  0  0  0  0  0
   10.7750   -1.4400   23.9360 C   0  0  0  0  0  0  0  0  0  0  0  0
   12.3040    0.3330   24.4380 N   0  0  0  0  0  0  0  0  0  0  0  0
    7.1030    2.5100   23.1590 O   0  0  0  0  0  0  0  0  0  0  0  0
    6.4300    0.2130   22.7110 C   0  0  0  0  0  0  0  0  0  0  0  0
   11.5440   -1.7840   22.8380 C   0  0  0  0  0  0  0  0  0  0  0  0
   13.0420   -0.0210   23.3670 C   0  0  0  0  0  0  0  0  0  0  0  0
    6.2770    0.3810   21.1590 C   0  0  0  0  0  0  0  0  0  0  0  0
   12.6950   -1.0760   22.5440 C   0  0  0  0  0  0  0  0  0  0  0  0
    5.3040    1.2470   20.6180 C   0  0  0  0  0  0  0  0  0  0  0  0
    7.1210   -0.3540   20.3070 C   0  0  0  0  0  0  0  0  0  0  0  0
    5.1580    1.3840   19.2190 C   0  0  0  0  0  0  0  0  0  0  0  0
    7.0070   -0.2460   18.9270 C   0  0  0  0  0  0  0  0  0  0  0  0
    8.0480   -1.1720   20.8690 O   0  0  0  0  0  0  0  0  0  0  0  0
    5.9700    0.6700   18.3350 C   0  0  0  0  0  0  0  0  0  0  0  0
  1  2  2  0
  2  3  1  0
  2  4  1  0
  3  5  1  0
  4  6  1  0
  5  7  1  0
  6  8  2  0
  6  9  1  0
  7 10  2  0
  7 11  1  0
  8 12  1  0
  9 13  2  0
 11 14  1  0
 12 15  2  0
 13 15  1  0
 14 16  2  0
 14 17  1  0
 16 18  1  0
 17 19  2  0
 17 20  1  0
 18 21  2  0
 19 21  1  0
M  END
>  <Name>  (108) 
x0967-0A-x0305-0A_2344

>  <original SMILES>  (108) 
O=C(COC(=O)Cc1ccccc1O)Nc1ccccn1

>  <synthon>  (108) 
[Xe]c1ccccn1

>  <ref_pdb>  (108) 
p/x0967-0A-x0305-0A-2344.holo_minimised.pdb

>  <ref_mols>  (108) 
x0967_0A,x0305_0A

>  <IFP_score>  (108) 
0.5773502691896257

>  <SuCOS_score>  (108) 
0.5594648115253594

>  <AttchPnts_score>  (108) 
4

>  <Docking_score>  (108) 
-6.03570986

>  <LE_score>  (108) 
-0.28741475523809523

>  <EnergyRatio_score>  (108) 
3.83242370025607

>  <cmpd_id>  (108) 
['ENAMINE:PV-002864721481']

$$$$

     RDKit          3D

 22 23  0  0  0  0  0  0  0  0999 V2000
    8.4380   -0.4230   26.9590 C   0  0  0  0  0  0  0  0  0  0  0  0
    8.9940   -0.2470   25.7080 N   0  0  0  0  0  0  0  0  0  0  0  0
   10.2600    0.2930   25.5170 C   0  0  0  0  0  0  0  0  0  0  0  0
    8.4180   -0.7190   24.5210 C   0  0  0  0  0  0  0  0  0  0  0  0
   11.1670   -0.2720   24.4290 C   0  0  0  0  0  0  0  0  0  0  0  0
    7.6590   -1.8680   24.5120 O   0  0  0  0  0  0  0  0  0  0  0  0
    8.6490    0.0160   23.3240 C   0  0  0  0  0  0  0  0  0  0  0  0
   10.8680   -1.3570   23.6270 C   0  0  0  0  0  0  0  0  0  0  0  0
   12.4630    0.3360   24.1650 N   0  0  0  0  0  0  0  0  0  0  0  0
    7.6740    0.9900   23.0640 C   0  0  0  0  0  0  0  0  0  0  0  0
   11.7830   -1.9090   22.5450 C   0  0  0  0  0  0  0  0  0  0  0  0
   13.2740   -0.1700   23.1940 C   0  0  0  0  0  0  0  0  0  0  0  0
    6.4560    0.6210   22.4930 C   0  0  0  0  0  0  0  0  0  0  0  0
   12.9960   -1.2670   22.3670 C   0  0  0  0  0  0  0  0  0  0  0  0
    5.4790    0.3340   23.1800 O   0  0  0  0  0  0  0  0  0  0  0  0
    6.3100    0.5980   21.1030 C   0  0  0  0  0  0  0  0  0  0  0  0
    5.3500    1.4180   20.5370 C   0  0  0  0  0  0  0  0  0  0  0  0
    7.1010   -0.2250   20.2850 C   0  0  0  0  0  0  0  0  0  0  0  0
    5.1710    1.4310   19.1670 C   0  0  0  0  0  0  0  0  0  0  0  0
    6.9180   -0.2120   18.8970 C   0  0  0  0  0  0  0  0  0  0  0  0
    5.9470    0.6240   18.3480 C   0  0  0  0  0  0  0  0  0  0  0  0
    5.7190    0.6910   17.0190 O   0  0  0  0  0  0  0  0  0  0  0  0
  1  2  1  0
  2  3  1  0
  2  4  1  0
  3  5  1  0
  4  6  2  0
  4  7  1  0
  5  8  2  0
  5  9  1  0
  7 10  1  0
  8 11  1  0
  9 12  2  0
 10 13  1  0
 11 14  2  0
 12 14  1  0
 13 15  2  0
 13 16  1  0
 16 17  2  0
 16 18  1  0
 17 19  1  0
 18 20  2  0
 19 21  2  0
 20 21  1  0
 21 22  1  0
M  END
>  <Name>  (109) 
x0967-0A-x0305-0A_2180

>  <original SMILES>  (109) 
CN(Cc1ccccn1)C(=O)CCC(=O)c1ccc(O)cc1

>  <synthon>  (109) 
[Xe]c1ccccn1

>  <ref_pdb>  (109) 
p/x0967-0A-x0305-0A-2180.holo_minimised.pdb

>  <ref_mols>  (109) 
x0967_0A,x0305_0A

>  <IFP_score>  (109) 
0.5477225575051661

>  <SuCOS_score>  (109) 
0.5626558366354965

>  <AttchPnts_score>  (109) 
2

>  <Docking_score>  (109) 
-6.32859468

>  <LE_score>  (109) 
-0.28766339454545453

>  <EnergyRatio_score>  (109) 
4.340684622699802

>  <cmpd_id>  (109) 
['ENAMINE:PV-002824300412']

$$$$

     RDKit          3D

 21 22  0  0  0  0  0  0  0  0999 V2000
    5.1640    1.4330   25.7060 O   0  0  0  0  0  0  0  0  0  0  0  0
    6.2310    1.5020   25.1060 C   0  0  0  0  0  0  0  0  0  0  0  0
    6.2800    1.6670   23.5710 C   0  0  0  0  0  0  0  0  0  0  0  0
    7.5270    1.4380   25.7710 N   0  0  0  0  0  0  0  0  0  0  0  0
    6.2410    0.3900   22.6760 C   0  0  0  0  0  0  0  0  0  0  0  0
    8.0230    0.3150   26.4400 C   0  0  0  0  0  0  0  0  0  0  0  0
    6.2270    0.4550   21.1450 C   0  0  0  0  0  0  0  0  0  0  0  0
    9.0500   -0.4080   25.6730 C   0  0  0  0  0  0  0  0  0  0  0  0
    5.2470    1.3650   20.4010 C   0  0  0  0  0  0  0  0  0  0  0  0
    7.0940   -0.3190   20.3460 C   0  0  0  0  0  0  0  0  0  0  0  0
   10.2740    0.2550   25.5810 C   0  0  0  0  0  0  0  0  0  0  0  0
    5.2490    1.3860   19.0070 C   0  0  0  0  0  0  0  0  0  0  0  0
    7.0530   -0.2580   18.9490 C   0  0  0  0  0  0  0  0  0  0  0  0
   11.0790   -0.2210   24.5350 C   0  0  0  0  0  0  0  0  0  0  0  0
    6.1500    0.5730   18.2960 C   0  0  0  0  0  0  0  0  0  0  0  0
   10.6930   -1.3290   23.7970 C   0  0  0  0  0  0  0  0  0  0  0  0
   12.2360    0.4380   24.2770 N   0  0  0  0  0  0  0  0  0  0  0  0
    6.0920    0.6390   16.9390 O   0  0  0  0  0  0  0  0  0  0  0  0
   11.5100   -1.7660   22.7740 C   0  0  0  0  0  0  0  0  0  0  0  0
   13.0190   -0.0110   23.2740 C   0  0  0  0  0  0  0  0  0  0  0  0
   12.7000   -1.1050   22.4980 C   0  0  0  0  0  0  0  0  0  0  0  0
  1  2  2  0
  2  3  1  0
  2  4  1  0
  3  5  2  3
  4  6  1  0
  5  7  1  0
  6  8  1  0
  7  9  2  0
  7 10  1  0
  8 11  1  0
  9 12  1  0
 10 13  2  0
 11 14  1  0
 12 15  2  0
 13 15  1  0
 14 16  2  0
 14 17  1  0
 15 18  1  0
 16 19  1  0
 17 20  2  0
 19 21  2  0
 20 21  1  0
M  END
>  <Name>  (110) 
x0967-0A-x0305-0A_1606

>  <original SMILES>  (110) 
O=C(C=Cc1ccc(O)cc1)NCCCc1ccccn1

>  <synthon>  (110) 
[Xe]c1ccccn1

>  <ref_pdb>  (110) 
p/x0967-0A-x0305-0A-1606.holo_minimised.pdb

>  <ref_mols>  (110) 
x0967_0A,x0305_0A

>  <IFP_score>  (110) 
0.5163977794943222

>  <SuCOS_score>  (110) 
0.5564572875709933

>  <AttchPnts_score>  (110) 
2

>  <Docking_score>  (110) 
-5.99975204

>  <LE_score>  (110) 
-0.2857024780952381

>  <EnergyRatio_score>  (110) 
3.5977928957949303

>  <cmpd_id>  (110) 
['ENAMINE:Z1690799569']

$$$$

     RDKit          3D

 22 23  0  0  0  0  0  0  0  0999 V2000
   14.0900   -1.8430   20.5310 N   0  0  0  0  0  0  0  0  0  0  0  0
   13.4010   -1.4610   21.3560 C   0  0  0  0  0  0  0  0  0  0  0  0
   12.4910   -1.0140   22.4600 C   0  0  0  0  0  0  0  0  0  0  0  0
   11.4230   -1.8210   22.8250 C   0  0  0  0  0  0  0  0  0  0  0  0
   12.7130    0.1950   23.1190 C   0  0  0  0  0  0  0  0  0  0  0  0
   10.6090   -1.3740   23.8580 C   0  0  0  0  0  0  0  0  0  0  0  0
   11.9300    0.6510   24.1240 N   0  0  0  0  0  0  0  0  0  0  0  0
   10.8900   -0.1510   24.4740 C   0  0  0  0  0  0  0  0  0  0  0  0
   10.0090    0.3660   25.6080 C   0  0  0  0  0  0  0  0  0  0  0  0
    9.8970    1.5580   25.8420 O   0  0  0  0  0  0  0  0  0  0  0  0
    9.3430   -0.5830   26.3300 N   0  0  0  0  0  0  0  0  0  0  0  0
    8.0130   -0.3890   26.3950 C   0  0  0  0  0  0  0  0  0  0  0  0
    7.4210   -0.0540   25.1510 C   0  0  0  0  0  0  0  0  0  0  0  0
    7.9370   -0.7810   24.1150 N   0  0  0  0  0  0  0  0  0  0  0  0
    6.8240   -0.8890   23.1570 O   0  0  0  0  0  0  0  0  0  0  0  0
    6.7340    0.2940   22.4770 C   0  0  0  0  0  0  0  0  0  0  0  0
    6.4450    0.4150   20.9990 C   0  0  0  0  0  0  0  0  0  0  0  0
    7.1200   -0.3990   20.0870 C   0  0  0  0  0  0  0  0  0  0  0  0
    5.5020    1.3390   20.5100 C   0  0  0  0  0  0  0  0  0  0  0  0
    6.8650   -0.3010   18.7240 C   0  0  0  0  0  0  0  0  0  0  0  0
    5.2490    1.4340   19.1430 C   0  0  0  0  0  0  0  0  0  0  0  0
    5.9300    0.6160   18.2480 C   0  0  0  0  0  0  0  0  0  0  0  0
  1  2  3  0
  2  3  1  0
  3  4  2  0
  3  5  1  0
  4  6  1  0
  5  7  2  0
  6  8  2  0
  7  8  1  0
  8  9  1  0
  9 10  2  0
  9 11  1  0
 11 12  1  0
 12 13  1  0
 13 14  1  0
 14 15  1  0
 15 16  1  0
 16 17  1  0
 17 18  2  0
 17 19  1  0
 18 20  1  0
 19 21  2  0
 20 22  2  0
 21 22  1  0
M  END
>  <Name>  (111) 
x0305-0A-x0967-0A_1874

>  <original SMILES>  (111) 
N#Cc1ccc(C(=O)NCCNOCc2ccccc2)nc1

>  <synthon>  (111) 
[Xe]c1ccccc1

>  <ref_pdb>  (111) 
p/x0305-0A-x0967-0A-1874.holo_minimised.pdb

>  <ref_mols>  (111) 
x0305_0A,x0967_0A

>  <IFP_score>  (111) 
0.5

>  <SuCOS_score>  (111) 
0.5885831299232678

>  <AttchPnts_score>  (111) 
2

>  <Docking_score>  (111) 
-4.98851013

>  <LE_score>  (111) 
-0.22675046045454544

>  <EnergyRatio_score>  (111) 
4.11323365847898

>  <cmpd_id>  (111) 
['CHEMSPACE-BB:CSMB00117244341']

$$$$

     RDKit          3D

 21 22  0  0  0  0  0  0  0  0999 V2000
    9.4540    0.0630   27.7100 C   0  0  0  0  0  0  0  0  0  0  0  0
    8.7810   -0.8590   26.8690 C   0  0  0  0  0  0  0  0  0  0  0  0
    8.8290   -0.5590   25.5270 C   0  0  1  0  0  0  0  0  0  0  0  0
    7.7580    0.1390   25.0150 C   0  0  0  0  0  0  0  0  0  0  0  0
    9.9920    0.2670   25.3150 O   0  0  0  0  0  0  0  0  0  0  0  0
    7.8130    0.3490   23.5330 N   0  0  0  0  0  0  0  0  0  0  0  0
   10.8460   -0.1230   24.3130 C   0  0  0  0  0  0  0  0  0  0  0  0
    6.4660    0.3140   22.8920 C   0  0  0  0  0  0  0  0  0  0  0  0
   10.5460   -1.3250   23.6820 C   0  0  0  0  0  0  0  0  0  0  0  0
   11.9050    0.6510   23.9910 N   0  0  0  0  0  0  0  0  0  0  0  0
    6.3600    0.4200   21.3480 C   0  0  0  0  0  0  0  0  0  0  0  0
   11.3780   -1.7650   22.6620 C   0  0  0  0  0  0  0  0  0  0  0  0
   12.7040    0.2020   22.9980 C   0  0  0  0  0  0  0  0  0  0  0  0
    5.2850    1.3370   20.7330 C   0  0  0  0  0  0  0  0  0  0  0  0
    7.2010   -0.2920   20.4640 C   0  0  0  0  0  0  0  0  0  0  0  0
   12.4810   -0.9880   22.3150 C   0  0  0  0  0  0  0  0  0  0  0  0
    5.2350    1.3770   19.2220 C   0  0  0  0  0  0  0  0  0  0  0  0
    7.0810   -0.1910   19.0560 C   0  0  0  0  0  0  0  0  0  0  0  0
   13.3590   -1.4110   21.3020 C   0  0  0  0  0  0  0  0  0  0  0  0
    6.1180    0.6230   18.4500 C   0  0  0  0  0  0  0  0  0  0  0  0
   14.0870   -1.7730   20.5030 N   0  0  0  0  0  0  0  0  0  0  0  0
  1  2  1  0
  3  2  1  1
  3  4  1  0
  3  5  1  0
  4  6  1  0
  5  7  1  0
  6  8  1  0
  7  9  2  0
  7 10  1  0
  8 11  1  0
  9 12  1  0
 10 13  2  0
 11 14  2  0
 11 15  1  0
 12 16  2  0
 13 16  1  0
 14 17  1  0
 15 18  2  0
 16 19  1  0
 17 20  2  0
 18 20  1  0
 19 21  3  0
M  END
>  <Name>  (112) 
x0305-0A-x0967-0A_28

>  <original SMILES>  (112) 
CCC(CNCc1ccccc1)Oc1ccc(C#N)cn1

>  <synthon>  (112) 
[Xe]c1ccccc1

>  <ref_pdb>  (112) 
p/x0305-0A-x0967-0A-28.holo_minimised.pdb

>  <ref_mols>  (112) 
x0305_0A,x0967_0A

>  <IFP_score>  (112) 
0.5

>  <SuCOS_score>  (112) 
0.560108626279932

>  <AttchPnts_score>  (112) 
1

>  <Docking_score>  (112) 
-4.91423607

>  <LE_score>  (112) 
-0.23401124142857144

>  <EnergyRatio_score>  (112) 
3.563902803009338

>  <cmpd_id>  (112) 
['CHEMSPACE-BB:CSMB00109892920']

$$$$

     RDKit          3D

 24 25  0  0  0  0  0  0  0  0999 V2000
    9.1250    4.9940   22.9030 N   0  0  0  0  0  0  0  0  0  0  0  0
   10.4070    5.1380   23.9770 S   0  0  0  0  0  0  0  0  0  0  0  0
   11.2550    6.1720   23.4430 O   0  0  0  0  0  0  0  0  0  0  0  0
    9.8090    5.2420   25.2930 O   0  0  0  0  0  0  0  0  0  0  0  0
   11.2450    3.5810   23.8270 C   0  0  0  0  0  0  0  0  0  0  0  0
   12.4250    3.4910   23.0940 C   0  0  0  0  0  0  0  0  0  0  0  0
   10.7140    2.4560   24.4560 C   0  0  0  0  0  0  0  0  0  0  0  0
   13.0820    2.2590   22.9940 C   0  0  0  0  0  0  0  0  0  0  0  0
   11.3790    1.2310   24.3520 C   0  0  0  0  0  0  0  0  0  0  0  0
   12.5660    1.1270   23.6200 C   0  0  0  0  0  0  0  0  0  0  0  0
   13.1150   -0.1260   23.5990 O   0  0  0  0  0  0  0  0  0  0  0  0
   12.4110   -1.1410   24.3100 C   0  0  0  0  0  0  0  0  0  0  0  0
   11.2540   -1.5350   23.4120 C   0  0  0  0  0  0  0  0  0  0  0  0
   10.1120   -0.7840   23.6930 O   0  0  0  0  0  0  0  0  0  0  0  0
    9.5200    0.0570   22.6450 C   0  0  0  0  0  0  0  0  0  0  0  0
    9.9800    0.1910   21.5280 O   0  0  0  0  0  0  0  0  0  0  0  0
    8.2460    0.8030   23.0930 C   0  0  0  0  0  0  0  0  0  0  0  0
    6.8990    0.2220   22.6130 C   0  0  0  0  0  0  0  0  0  0  0  0
    6.5200    0.4480   21.1320 C   0  0  0  0  0  0  0  0  0  0  0  0
    7.2830   -0.3480   20.1310 C   0  0  0  0  0  0  0  0  0  0  0  0
    5.5250    1.3280   20.6540 C   0  0  0  0  0  0  0  0  0  0  0  0
    6.9910   -0.2020   18.7880 C   0  0  0  0  0  0  0  0  0  0  0  0
    5.2710    1.4350   19.2730 C   0  0  0  0  0  0  0  0  0  0  0  0
    5.9980    0.6750   18.3410 C   0  0  0  0  0  0  0  0  0  0  0  0
  2  1  1  0
  2  3  2  0
  2  4  2  0
  2  5  1  0
  5  6  2  0
  5  7  1  0
  6  8  1  0
  7  9  2  0
  8 10  2  0
  9 10  1  0
 10 11  1  0
 11 12  1  0
 12 13  1  0
 13 14  1  0
 14 15  1  0
 15 16  2  0
 15 17  1  0
 17 18  1  0
 18 19  1  0
 19 20  2  0
 19 21  1  0
 20 22  1  0
 21 23  2  0
 22 24  2  0
 23 24  1  0
M  END
>  <Name>  (113) 
x0161-0A-x0967-0A_1395

>  <original SMILES>  (113) 
NS(=O)(=O)c1ccc(OCCOC(=O)CCc2ccccc2)cc1

>  <synthon>  (113) 
[Xe]c1ccccc1

>  <ref_pdb>  (113) 
p/x0161-0A-x0967-0A-1395.holo_minimised.pdb

>  <ref_mols>  (113) 
x0161_0A,x0967_0A

>  <IFP_score>  (113) 
0.7071067811865476

>  <SuCOS_score>  (113) 
0.5878887826699386

>  <AttchPnts_score>  (113) 
3

>  <Docking_score>  (113) 
-5.74616718

>  <LE_score>  (113) 
-0.23942363249999998

>  <EnergyRatio_score>  (113) 
2.9470219076565316

>  <cmpd_id>  (113) 
['MOLPORT:003-324-925']

$$$$

     RDKit          3D

 23 24  0  0  0  0  0  0  0  0999 V2000
   13.8740   -2.3600   24.6580 C   0  0  0  0  0  0  0  0  0  0  0  0
   13.2820   -1.0590   24.7600 O   0  0  0  0  0  0  0  0  0  0  0  0
   13.3590   -0.3180   23.6230 C   0  0  0  0  0  0  0  0  0  0  0  0
   14.0270   -0.5920   22.6420 O   0  0  0  0  0  0  0  0  0  0  0  0
   12.5030    0.8990   23.6860 C   0  0  0  0  0  0  0  0  0  0  0  0
   11.2670    0.9110   24.3300 C   0  0  0  0  0  0  0  0  0  0  0  0
   12.9540    2.0700   23.0670 C   0  0  0  0  0  0  0  0  0  0  0  0
   10.4830    2.0720   24.3420 C   0  0  0  0  0  0  0  0  0  0  0  0
   12.1620    3.2300   23.0850 C   0  0  0  0  0  0  0  0  0  0  0  0
   10.9170    3.2360   23.7120 C   0  0  0  0  0  0  0  0  0  0  0  0
   10.0870    4.5060   23.6690 C   0  0  1  0  0  0  0  0  0  0  0  0
   10.7980    5.3850   23.1570 O   0  0  0  0  0  0  0  0  0  0  0  0
    8.6560    4.3390   23.0410 C   0  0  0  0  0  0  0  0  0  0  0  0
    8.3740    3.0210   22.3140 N   0  0  0  0  0  0  0  0  0  0  0  0
    8.1380    1.7480   22.9130 C   0  0  0  0  0  0  0  0  0  0  0  0
    6.8470    0.9470   22.5730 C   0  0  2  0  0  0  0  0  0  0  0  0
    6.8750   -0.4900   23.1350 C   0  0  0  0  0  0  0  0  0  0  0  0
    6.5360    0.8490   21.0690 C   0  0  0  0  0  0  0  0  0  0  0  0
    7.2810    0.0250   20.2240 C   0  0  0  0  0  0  0  0  0  0  0  0
    5.4880    1.5800   20.4950 C   0  0  0  0  0  0  0  0  0  0  0  0
    7.0440   -0.1050   18.8640 C   0  0  0  0  0  0  0  0  0  0  0  0
    5.2270    1.4660   19.1190 C   0  0  0  0  0  0  0  0  0  0  0  0
    6.0010    0.6280   18.3050 C   0  0  0  0  0  0  0  0  0  0  0  0
  1  2  1  0
  2  3  1  0
  3  4  2  0
  3  5  1  0
  5  6  2  0
  5  7  1  0
  6  8  1  0
  7  9  2  0
  8 10  2  0
  9 10  1  0
 10 11  1  0
 11 12  1  6
 11 13  1  0
 13 14  1  0
 14 15  1  0
 15 16  1  0
 16 17  1  6
 16 18  1  0
 18 19  2  0
 18 20  1  0
 19 21  1  0
 20 22  2  0
 21 23  2  0
 22 23  1  0
M  END
>  <Name>  (114) 
x0161-0A-x0967-0A_595

>  <original SMILES>  (114) 
COC(=O)c1ccc(C(O)CNCC(C)c2ccccc2)cc1

>  <synthon>  (114) 
[Xe]c1ccccc1

>  <ref_pdb>  (114) 
p/x0161-0A-x0967-0A-595.holo_minimised.pdb

>  <ref_mols>  (114) 
x0161_0A,x0967_0A

>  <IFP_score>  (114) 
0.6928203230275509

>  <SuCOS_score>  (114) 
0.5763074026147076

>  <AttchPnts_score>  (114) 
2

>  <Docking_score>  (114) 
-6.41720009

>  <LE_score>  (114) 
-0.2790086995652174

>  <EnergyRatio_score>  (114) 
3.3238540694490166

>  <cmpd_id>  (114) 
['ENAMINE:Z4381057751']

$$$$

     RDKit          3D

 22 23  0  0  0  0  0  0  0  0999 V2000
    8.0720   -0.1320   24.9250 O   0  0  0  0  0  0  0  0  0  0  0  0
    8.1620   -1.0140   24.1030 C   0  0  0  0  0  0  0  0  0  0  0  0
    7.7050   -0.8900   22.6860 C   0  0  0  0  0  0  0  0  0  0  0  0
    8.7930   -2.2880   24.2770 N   0  0  0  0  0  0  0  0  0  0  0  0
    6.9190    0.3490   22.3300 C   0  0  0  0  0  0  0  0  0  0  0  0
    7.8800   -3.4360   24.5130 C   0  0  0  0  0  0  0  0  0  0  0  0
    9.8420   -2.4460   23.3630 C   0  0  0  0  0  0  0  0  0  0  0  0
    6.5410    0.5040   20.8880 C   0  0  0  0  0  0  0  0  0  0  0  0
    7.7700   -4.0640   25.7950 C   0  0  0  0  0  0  0  0  0  0  0  0
   10.9250   -1.5400   23.4250 C   0  0  0  0  0  0  0  0  0  0  0  0
    5.4070    1.4200   20.4770 C   0  0  0  0  0  0  0  0  0  0  0  0
    7.2640   -0.2060   19.9480 C   0  0  0  0  0  0  0  0  0  0  0  0
    8.2940   -5.3340   25.8570 O   0  0  0  0  0  0  0  0  0  0  0  0
   10.9040   -0.3200   24.1220 C   0  0  0  0  0  0  0  0  0  0  0  0
   12.0900   -1.8670   22.7530 C   0  0  0  0  0  0  0  0  0  0  0  0
    5.1290    1.5150   18.9710 C   0  0  0  0  0  0  0  0  0  0  0  0
    6.9850   -0.0940   18.6120 C   0  0  0  0  0  0  0  0  0  0  0  0
   12.0370    0.5040   24.1100 C   0  0  0  0  0  0  0  0  0  0  0  0
   13.2070   -1.0620   22.7440 C   0  0  0  0  0  0  0  0  0  0  0  0
    5.9730    0.7290   18.1540 C   0  0  0  0  0  0  0  0  0  0  0  0
   13.1920    0.1390   23.4270 C   0  0  0  0  0  0  0  0  0  0  0  0
    5.8500    0.7360   16.8170 O   0  0  0  0  0  0  0  0  0  0  0  0
  1  2  2  0
  2  3  1  0
  2  4  1  0
  3  5  2  3
  4  6  1  0
  4  7  1  0
  5  8  1  0
  6  9  1  0
  7 10  1  0
  8 11  2  0
  8 12  1  0
  9 13  1  0
 10 14  2  0
 10 15  1  0
 11 16  1  0
 12 17  2  0
 14 18  1  0
 15 19  2  0
 16 20  2  0
 17 20  1  0
 18 21  2  0
 19 21  1  0
 20 22  1  0
M  END
>  <Name>  (115) 
x0967-0A-x0072-0A_4172

>  <original SMILES>  (115) 
O=C(C=Cc1ccc(O)cc1)N(CCO)Cc1ccccc1

>  <synthon>  (115) 
[Xe]c1ccccc1

>  <ref_pdb>  (115) 
p/x0967-0A-x0072-0A-4172.holo_minimised.pdb

>  <ref_mols>  (115) 
x0967_0A,x0072_0A

>  <IFP_score>  (115) 
0.5477225575051662

>  <SuCOS_score>  (115) 
0.5675105192009443

>  <AttchPnts_score>  (115) 
1

>  <Docking_score>  (115) 
-6.33398438

>  <LE_score>  (115) 
-0.28790838090909093

>  <EnergyRatio_score>  (115) 
3.589228502719744

>  <cmpd_id>  (115) 
['CHEMSPACE-BB:CSMB00021678058']

$$$$

     RDKit          3D

 22 23  0  0  0  0  0  0  0  0999 V2000
    9.1750   -3.1730   22.5830 C   0  0  0  0  0  0  0  0  0  0  0  0
    9.4950   -1.7630   22.1250 C   0  0  2  0  0  0  0  0  0  0  0  0
   10.8110   -1.2550   22.7340 C   0  0  0  0  0  0  0  0  0  0  0  0
    8.3810   -0.8790   22.5400 N   0  0  0  0  0  0  0  0  0  0  0  0
   10.8800   -0.1260   23.5540 C   0  0  0  0  0  0  0  0  0  0  0  0
   11.9530   -1.9780   22.4340 C   0  0  0  0  0  0  0  0  0  0  0  0
    7.1540   -1.0420   21.6910 C   0  0  0  0  0  0  0  0  0  0  0  0
    8.2110   -0.4530   23.9330 C   0  0  0  0  0  0  0  0  0  0  0  0
   12.1820    0.3980   24.1840 C   0  0  0  0  0  0  0  0  0  0  0  0
   13.3310   -1.6190   22.9630 C   0  0  0  0  0  0  0  0  0  0  0  0
    6.2940   -2.0570   22.1310 C   0  0  0  0  0  0  0  0  0  0  0  0
    7.4660    0.4300   24.3620 O   0  0  0  0  0  0  0  0  0  0  0  0
    9.0240   -1.1310   25.0220 C   0  0  0  0  0  0  0  0  0  0  0  0
   13.4400   -0.3970   23.8660 C   0  0  0  0  0  0  0  0  0  0  0  0
    5.5760   -1.7050   23.2660 N   0  0  0  0  0  0  0  0  0  0  0  0
    6.1880   -3.1320   21.5580 O   0  0  0  0  0  0  0  0  0  0  0  0
    9.0660   -2.6100   24.9600 N   0  0  0  0  0  0  0  0  0  0  0  0
   10.3870   -3.1630   25.3610 C   0  0  0  0  0  0  0  0  0  0  0  0
    7.9670   -3.1070   25.8040 C   0  0  0  0  0  0  0  0  0  0  0  0
   10.3270   -4.5440   25.6040 C   0  0  0  0  0  0  0  0  0  0  0  0
    8.0560   -4.4830   25.9500 C   0  0  0  0  0  0  0  0  0  0  0  0
    9.2670   -4.9990   26.3780 C   0  0  0  0  0  0  0  0  0  0  0  0
  2  1  1  1
  2  3  1  0
  2  4  1  0
  3  5  2  0
  3  6  1  0
  4  7  1  0
  4  8  1  0
  5  9  1  0
  6 10  2  0
  7 11  1  0
  8 12  2  0
  8 13  1  0
  9 14  2  0
 10 14  1  0
 11 15  1  0
 11 16  2  0
 13 17  1  0
 17 18  1  0
 17 19  1  0
 18 20  1  0
 19 21  1  0
 20 22  1  0
 21 22  1  0
M  END
>  <Name>  (116) 
x0072-0A-x0387-0A_12878

>  <original SMILES>  (116) 
CC(c1ccccc1)N(CC(N)=O)C(=O)CN1CCCCC1

>  <synthon>  (116) 
[Xe]N1CCCCC1

>  <ref_pdb>  (116) 
p/x0072-0A-x0387-0A-12878.holo_minimised.pdb

>  <ref_mols>  (116) 
x0072_0A,x0387_0A

>  <IFP_score>  (116) 
0.5773502691896257

>  <SuCOS_score>  (116) 
0.6243416691058936

>  <AttchPnts_score>  (116) 
3

>  <Docking_score>  (116) 
-5.62821579

>  <LE_score>  (116) 
-0.25582799045454546

>  <EnergyRatio_score>  (116) 
4.34377263509617

>  <cmpd_id>  (116) 
['ENAMINE:Z4281750787']

$$$$

     RDKit          3D

 20 21  0  0  0  0  0  0  0  0999 V2000
    6.1600    1.0180   22.6460 C   0  0  0  0  0  0  0  0  0  0  0  0
    7.2450    0.4080   21.7670 C   0  0  2  0  0  0  0  0  0  0  0  0
    6.7070   -0.6460   20.7770 C   0  0  0  0  0  0  0  0  0  0  0  0
    8.4040   -0.1210   22.5440 N   0  0  0  0  0  0  0  0  0  0  0  0
    5.4550   -0.2550   20.1360 N   0  0  0  0  0  0  0  0  0  0  0  0
    8.1120   -0.9610   23.7200 C   0  0  0  0  0  0  0  0  0  0  0  0
    9.5490   -0.5560   21.7220 C   0  0  0  0  0  0  0  0  0  0  0  0
    9.3890   -1.5030   24.3410 C   0  0  0  0  0  0  0  0  0  0  0  0
   10.9150   -0.7260   22.4470 C   0  0  0  0  0  0  0  0  0  0  0  0
    9.2950   -2.7240   24.9830 N   0  0  0  0  0  0  0  0  0  0  0  0
   11.2400    0.2070   23.6230 C   0  0  0  0  0  0  0  0  0  0  0  0
   11.8790   -1.6740   22.0950 C   0  0  0  0  0  0  0  0  0  0  0  0
    8.0890   -2.9760   25.7660 C   0  0  0  0  0  0  0  0  0  0  0  0
   10.5150   -3.5000   25.3020 C   0  0  0  0  0  0  0  0  0  0  0  0
   12.4360    0.1310   24.3190 C   0  0  0  0  0  0  0  0  0  0  0  0
   13.1960   -1.7570   22.8600 C   0  0  0  0  0  0  0  0  0  0  0  0
    7.9070   -4.3340   25.9400 C   0  0  0  0  0  0  0  0  0  0  0  0
   10.3560   -4.6750   26.0510 C   0  0  0  0  0  0  0  0  0  0  0  0
   13.5000   -0.9060   23.9340 C   0  0  0  0  0  0  0  0  0  0  0  0
    9.0920   -5.0910   26.4510 C   0  0  0  0  0  0  0  0  0  0  0  0
  2  1  1  1
  2  3  1  0
  2  4  1  0
  3  5  1  0
  4  6  1  0
  4  7  1  0
  6  8  1  0
  7  9  1  0
  8 10  1  0
  9 11  2  0
  9 12  1  0
 10 13  1  0
 10 14  1  0
 11 15  1  0
 12 16  2  0
 13 17  1  0
 14 18  1  0
 15 19  2  0
 16 19  1  0
 17 20  1  0
 18 20  1  0
M  END
>  <Name>  (117) 
x0072-0A-x0387-0A_11024

>  <original SMILES>  (117) 
CC(CN)N(CCN1CCCCC1)Cc1ccccc1

>  <synthon>  (117) 
[Xe]N1CCCCC1

>  <ref_pdb>  (117) 
p/x0072-0A-x0387-0A-11024.holo_minimised.pdb

>  <ref_mols>  (117) 
x0072_0A,x0387_0A

>  <IFP_score>  (117) 
0.5773502691896257

>  <SuCOS_score>  (117) 
0.5939304392903642

>  <AttchPnts_score>  (117) 
1

>  <Docking_score>  (117) 
-5.36663914

>  <LE_score>  (117) 
-0.268331957

>  <EnergyRatio_score>  (117) 
4.140829887301889

>  <cmpd_id>  (117) 
['CHEMSPACE-BB:CSMB00109319974']

$$$$

     RDKit          3D

 17 18  0  0  0  0  0  0  0  0999 V2000
    8.4140   -0.3640   25.5160 N   0  0  0  0  0  0  0  0  0  0  0  0
    8.6180   -1.2970   24.5460 C   0  0  0  0  0  0  0  0  0  0  0  0
    8.5480   -0.9550   23.2980 N   0  0  0  0  0  0  0  0  0  0  0  0
    8.8590   -2.5780   25.0270 N   0  0  0  0  0  0  0  0  0  0  0  0
    8.7670   -2.0460   22.4570 O   0  0  0  0  0  0  0  0  0  0  0  0
    7.8500   -3.1070   25.9430 C   0  0  0  0  0  0  0  0  0  0  0  0
   10.2500   -3.1010   25.1920 C   0  0  0  0  0  0  0  0  0  0  0  0
    9.9270   -1.7220   21.6830 C   0  0  0  0  0  0  0  0  0  0  0  0
    7.9620   -4.4760   26.0290 C   0  0  0  0  0  0  0  0  0  0  0  0
   10.3340   -4.3400   25.8790 C   0  0  0  0  0  0  0  0  0  0  0  0
   11.0880   -1.3120   22.5700 C   0  0  0  0  0  0  0  0  0  0  0  0
    9.2000   -4.9200   26.4500 C   0  0  0  0  0  0  0  0  0  0  0  0
   12.2200   -2.0260   22.5290 C   0  0  0  0  0  0  0  0  0  0  0  0
   11.0210   -0.1970   23.4370 C   0  0  0  0  0  0  0  0  0  0  0  0
   13.4570   -1.7680   23.3240 C   0  0  0  0  0  0  0  0  0  0  0  0
   12.2110    0.1990   24.3140 C   0  0  0  0  0  0  0  0  0  0  0  0
   13.4570   -0.6820   24.1970 C   0  0  0  0  0  0  0  0  0  0  0  0
  1  2  1  0
  2  3  2  3
  2  4  1  0
  3  5  1  0
  4  6  1  0
  4  7  1  0
  5  8  1  0
  6  9  1  0
  7 10  1  0
  8 11  1  0
  9 12  1  0
 10 12  1  0
 11 13  2  0
 11 14  1  0
 13 15  1  0
 14 16  2  0
 15 17  2  0
 16 17  1  0
M  END
>  <Name>  (118) 
x0072-0A-x0387-0A_10847

>  <original SMILES>  (118) 
NC(=NOCc1ccccc1)N1CCCCC1

>  <synthon>  (118) 
[Xe]N1CCCCC1

>  <ref_pdb>  (118) 
p/x0072-0A-x0387-0A-10847.holo_minimised.pdb

>  <ref_mols>  (118) 
x0072_0A,x0387_0A

>  <IFP_score>  (118) 
0.5773502691896257

>  <SuCOS_score>  (118) 
0.5645760739099605

>  <AttchPnts_score>  (118) 
1

>  <Docking_score>  (118) 
-4.63092375

>  <LE_score>  (118) 
-0.2724072794117647

>  <EnergyRatio_score>  (118) 
4.339846390014214

>  <cmpd_id>  (118) 
['CHEMSPACE-BB:CSMB00113121359']

$$$$

     RDKit          3D

 22 24  0  0  0  0  0  0  0  0999 V2000
    8.6240   -3.9140   27.1970 O   0  0  0  0  0  0  0  0  0  0  0  0
    8.0130   -4.7500   26.2110 S   0  0  0  0  0  0  0  0  0  0  0  0
    8.6480   -5.9710   25.7800 O   0  0  0  0  0  0  0  0  0  0  0  0
    6.2720   -5.0010   26.6330 C   0  0  0  0  0  0  0  0  0  0  0  0
    7.8430   -3.8010   24.8510 N   0  0  0  0  0  0  0  0  0  0  0  0
    6.0000   -6.2100   27.5420 C   0  0  1  0  0  0  0  0  0  0  0  0
    9.0640   -3.2660   24.2330 C   0  0  0  0  0  0  0  0  0  0  0  0
    7.1400   -6.3690   28.5580 C   0  0  0  0  0  0  0  0  0  0  0  0
    4.6970   -6.0530   28.1630 O   0  0  0  0  0  0  0  0  0  0  0  0
    9.2300   -1.8930   24.4480 C   0  0  0  0  0  0  0  0  0  0  0  0
    6.8790   -5.7560   29.8400 O   0  0  0  0  0  0  0  0  0  0  0  0
    4.6620   -6.4990   29.4600 C   0  0  0  0  0  0  0  0  0  0  0  0
   10.3490   -1.4890   23.7890 C   0  0  0  0  0  0  0  0  0  0  0  0
    5.7470   -6.3460   30.2920 C   0  0  0  0  0  0  0  0  0  0  0  0
    3.4990   -7.1160   29.9240 C   0  0  0  0  0  0  0  0  0  0  0  0
   11.0750   -0.2030   24.1060 C   0  0  0  0  0  0  0  0  0  0  0  0
   10.9160   -2.2150   22.7780 C   0  0  0  0  0  0  0  0  0  0  0  0
    5.6700   -6.8420   31.6970 C   0  0  0  0  0  0  0  0  0  0  0  0
    3.3320   -7.6150   31.2280 C   0  0  0  0  0  0  0  0  0  0  0  0
   12.2140   -0.1130   23.1910 C   0  0  0  0  0  0  0  0  0  0  0  0
   12.2910   -1.4900   22.1390 S   0  0  0  0  0  0  0  0  0  0  0  0
    4.3850   -7.5020   32.1490 C   0  0  0  0  0  0  0  0  0  0  0  0
  1  2  2  0
  2  3  2  0
  2  4  1  0
  2  5  1  0
  6  4  1  1
  5  7  1  0
  6  8  1  0
  6  9  1  0
  7 10  1  0
  8 11  1  0
  9 12  1  0
 10 13  1  0
 11 14  1  0
 12 14  2  0
 12 15  1  0
 13 16  1  0
 13 17  2  0
 14 18  1  0
 15 19  2  0
 16 20  2  0
 17 21  1  0
 20 21  1  0
 18 22  2  0
 19 22  1  0
M  END
>  <Name>  (119) 
x0072-0A-x0387-0A_2861

>  <original SMILES>  (119) 
O=S(=O)(CC1COc2ccccc2O1)NCCc1ccsc1

>  <synthon>  (119) 
[Xe]c1ccsc1

>  <ref_pdb>  (119) 
p/x0072-0A-x0387-0A-2861.holo_minimised.pdb

>  <ref_mols>  (119) 
x0072_0A,x0387_0A

>  <IFP_score>  (119) 
0.5773502691896257

>  <SuCOS_score>  (119) 
0.5704552057859086

>  <AttchPnts_score>  (119) 
1

>  <Docking_score>  (119) 
-3.56826901

>  <LE_score>  (119) 
-0.1621940459090909

>  <EnergyRatio_score>  (119) 
2.9423277369776475

>  <cmpd_id>  (119) 
['ENAMINE:Z2850046035']

$$$$

     RDKit          3D

 21 22  0  0  0  0  0  0  0  0999 V2000
    6.1390    1.4620   24.0510 N   0  0  0  0  0  0  0  0  0  0  0  0
    7.5970    1.6730   24.1350 C   0  0  0  0  0  0  0  0  0  0  0  0
    8.2370    2.9310   23.9870 O   0  0  0  0  0  0  0  0  0  0  0  0
    8.3010    0.3540   24.3710 C   0  0  2  0  0  0  0  0  0  0  0  0
    9.7560    0.6890   24.8640 C   0  0  0  0  0  0  0  0  0  0  0  0
    8.1850   -0.2620   23.0250 N   0  0  0  0  0  0  0  0  0  0  0  0
   10.8090    0.2240   23.8420 C   0  0  0  0  0  0  0  0  0  0  0  0
    6.9650   -0.7980   22.5510 C   0  0  0  0  0  0  0  0  0  0  0  0
   10.5940   -1.0640   23.0750 C   0  0  0  0  0  0  0  0  0  0  0  0
   11.9810    0.9550   23.5820 C   0  0  0  0  0  0  0  0  0  0  0  0
    6.7060   -1.9760   22.7930 O   0  0  0  0  0  0  0  0  0  0  0  0
    6.1250    0.0870   21.8120 N   0  0  0  0  0  0  0  0  0  0  0  0
   11.5310   -1.4970   22.1430 C   0  0  0  0  0  0  0  0  0  0  0  0
   12.8880    0.4710   22.6380 C   0  0  0  0  0  0  0  0  0  0  0  0
    6.1350    0.1650   20.3320 C   0  0  0  0  0  0  0  0  0  0  0  0
   12.6590   -0.7190   21.9440 C   0  0  0  0  0  0  0  0  0  0  0  0
    5.3070    1.0870   19.6310 C   0  0  0  0  0  0  0  0  0  0  0  0
    6.9450   -0.6400   19.6480 N   0  0  0  0  0  0  0  0  0  0  0  0
    5.3950    1.1210   18.2400 C   0  0  0  0  0  0  0  0  0  0  0  0
    6.9740   -0.5550   18.3080 C   0  0  0  0  0  0  0  0  0  0  0  0
    6.2570    0.2840   17.5390 N   0  0  0  0  0  0  0  0  0  0  0  0
  1  2  1  0
  2  3  2  0
  2  4  1  0
  4  5  1  6
  4  6  1  0
  5  7  1  0
  6  8  1  0
  7  9  2  0
  7 10  1  0
  8 11  2  0
  8 12  1  0
  9 13  1  0
 10 14  2  0
 12 15  1  0
 13 16  2  0
 14 16  1  0
 15 17  2  0
 15 18  1  0
 17 19  1  0
 18 20  2  0
 19 21  2  0
 20 21  1  0
M  END
>  <Name>  (120) 
x0995-0A-x1249-0A_9140

>  <original SMILES>  (120) 
NC(=O)C(Cc1ccccc1)NC(=O)Nc1ccncn1

>  <synthon>  (120) 
[Xe]c1ccccc1

>  <ref_pdb>  (120) 
p/x0995-0A-x1249-0A-9140.holo_minimised.pdb

>  <ref_mols>  (120) 
x0995_0A,x1249_0A

>  <IFP_score>  (120) 
0.5773502691896257

>  <SuCOS_score>  (120) 
0.5879887201862373

>  <AttchPnts_score>  (120) 
4

>  <Docking_score>  (120) 
-6.00486898

>  <LE_score>  (120) 
-0.2859461419047619

>  <EnergyRatio_score>  (120) 
3.953150521565267

>  <cmpd_id>  (120) 
['ENAMINE:Z1889531845']

$$$$

     RDKit          3D

 19 20  0  0  0  0  0  0  0  0999 V2000
    8.0240    1.5590   21.5960 O   0  0  0  0  0  0  0  0  0  0  0  0
    7.3790    1.2230   22.5850 C   0  0  0  0  0  0  0  0  0  0  0  0
    7.6560    1.6260   24.0110 C   0  0  0  0  0  0  0  0  0  0  0  0
    6.2800    0.3940   22.5130 N   0  0  0  0  0  0  0  0  0  0  0  0
    8.4810    0.6340   24.7220 N   0  0  0  0  0  0  0  0  0  0  0  0
    5.2080    0.5100   21.4910 C   0  0  0  0  0  0  0  0  0  0  0  0
    9.8970    0.9980   24.9480 C   0  0  0  0  0  0  0  0  0  0  0  0
    5.5580    0.4500   20.1390 C   0  0  0  0  0  0  0  0  0  0  0  0
   10.8950    0.3080   23.9990 C   0  0  0  0  0  0  0  0  0  0  0  0
    5.0260    1.3380   19.2390 C   0  0  0  0  0  0  0  0  0  0  0  0
    6.4330   -0.4950   19.7810 N   0  0  0  0  0  0  0  0  0  0  0  0
   10.6050   -0.9090   23.3730 C   0  0  0  0  0  0  0  0  0  0  0  0
   12.1330    0.9110   23.7460 C   0  0  0  0  0  0  0  0  0  0  0  0
    5.4460    1.2240   17.9380 C   0  0  0  0  0  0  0  0  0  0  0  0
    6.7750   -0.5220   18.4820 C   0  0  0  0  0  0  0  0  0  0  0  0
   11.5460   -1.4940   22.5220 C   0  0  0  0  0  0  0  0  0  0  0  0
   13.0530    0.2990   22.8890 C   0  0  0  0  0  0  0  0  0  0  0  0
    6.3250    0.3050   17.5220 N   0  0  0  0  0  0  0  0  0  0  0  0
   12.7800   -0.9100   22.2640 C   0  0  0  0  0  0  0  0  0  0  0  0
  1  2  2  0
  2  3  1  0
  2  4  1  0
  3  5  1  0
  4  6  1  0
  5  7  1  0
  6  8  1  0
  7  9  1  0
  8 10  2  0
  8 11  1  0
  9 12  2  0
  9 13  1  0
 10 14  1  0
 11 15  2  0
 12 16  1  0
 13 17  2  0
 14 18  2  0
 15 18  1  0
 16 19  2  0
 17 19  1  0
M  END
>  <Name>  (121) 
x0995-0A-x1249-0A_9037

>  <original SMILES>  (121) 
O=C(CNCc1ccccc1)NCc1ccncn1

>  <synthon>  (121) 
[Xe]c1ccccc1

>  <ref_pdb>  (121) 
p/x0995-0A-x1249-0A-9037.holo_minimised.pdb

>  <ref_mols>  (121) 
x0995_0A,x1249_0A

>  <IFP_score>  (121) 
0.5773502691896257

>  <SuCOS_score>  (121) 
0.6360536290706125

>  <AttchPnts_score>  (121) 
3

>  <Docking_score>  (121) 
-5.44336414

>  <LE_score>  (121) 
-0.2864928494736842

>  <EnergyRatio_score>  (121) 
2.458757675645155

>  <cmpd_id>  (121) 
['CHEMSPACE-BB:CSMB00022142020']

$$$$

     RDKit          3D

 19 20  0  0  0  0  0  0  0  0999 V2000
    5.5190   -0.2020   24.4990 O   0  0  0  0  0  0  0  0  0  0  0  0
    6.4910    0.0030   23.7870 C   0  0  0  0  0  0  0  0  0  0  0  0
    7.9500   -0.2580   24.2050 C   0  0  0  0  0  0  0  0  0  0  0  0
    6.3810    0.5330   22.4320 N   0  0  0  0  0  0  0  0  0  0  0  0
    8.5700    0.7890   24.4240 O   0  0  0  0  0  0  0  0  0  0  0  0
    5.2400    0.2390   21.6340 N   0  0  0  0  0  0  0  0  0  0  0  0
    9.9370    0.6120   24.8360 C   0  0  0  0  0  0  0  0  0  0  0  0
    5.5310    0.2980   20.3070 C   0  0  0  0  0  0  0  0  0  0  0  0
   10.8020    0.0710   23.9740 C   0  0  0  0  0  0  0  0  0  0  0  0
    4.9790    1.2460   19.4120 C   0  0  0  0  0  0  0  0  0  0  0  0
    6.4180   -0.6340   19.8840 N   0  0  0  0  0  0  0  0  0  0  0  0
   10.5740   -1.3150   23.3160 C   0  0  0  0  0  0  0  0  0  0  0  0
   11.9190    0.8800   23.7230 C   0  0  0  0  0  0  0  0  0  0  0  0
    5.3620    1.2300   18.0710 C   0  0  0  0  0  0  0  0  0  0  0  0
    6.7360   -0.5890   18.5780 C   0  0  0  0  0  0  0  0  0  0  0  0
   11.7550   -1.6760   22.3270 C   0  0  0  0  0  0  0  0  0  0  0  0
   12.8680    0.4820   22.8710 C   0  0  0  0  0  0  0  0  0  0  0  0
    6.2520    0.2890   17.6940 N   0  0  0  0  0  0  0  0  0  0  0  0
   12.7640   -0.7160   22.2300 C   0  0  0  0  0  0  0  0  0  0  0  0
  1  2  2  0
  2  3  1  0
  2  4  1  0
  3  5  1  0
  4  6  1  0
  5  7  1  0
  6  8  1  0
  7  9  1  0
  8 10  2  0
  8 11  1  0
  9 12  2  0
  9 13  1  0
 10 14  1  0
 11 15  2  0
 12 16  1  0
 13 17  2  0
 14 18  2  0
 15 18  1  0
 16 19  2  0
 17 19  1  0
M  END
>  <Name>  (122) 
x0995-0A-x1249-0A_8517

>  <original SMILES>  (122) 
O=C(COCc1ccccc1)NNc1ccncn1

>  <synthon>  (122) 
[Xe]c1ccccc1

>  <ref_pdb>  (122) 
p/x0995-0A-x1249-0A-8517.holo_minimised.pdb

>  <ref_mols>  (122) 
x0995_0A,x1249_0A

>  <IFP_score>  (122) 
0.5773502691896257

>  <SuCOS_score>  (122) 
0.5803190047654443

>  <AttchPnts_score>  (122) 
3

>  <Docking_score>  (122) 
-5.43585205

>  <LE_score>  (122) 
-0.28609747631578947

>  <EnergyRatio_score>  (122) 
4.409890829589581

>  <cmpd_id>  (122) 
['CHEMSPACE-BB:CSMB00114075575']

$$$$

     RDKit          3D

 21 22  0  0  0  0  0  0  0  0999 V2000
    8.8510    0.3530   27.4450 C   0  0  0  0  0  0  0  0  0  0  0  0
    7.6730   -0.2380   26.6760 C   0  0  0  0  0  0  0  0  0  0  0  0
    7.2250    0.6880   25.5270 C   0  0  0  0  0  0  0  0  0  0  0  0
    8.1490    0.7770   24.3820 N   0  0  0  0  0  0  0  0  0  0  0  0
    9.5130    1.0890   24.5970 C   0  0  0  0  0  0  0  0  0  0  0  0
    7.5370    1.4120   23.1770 C   0  0  0  0  0  0  0  0  0  0  0  0
   10.6320    0.4610   23.7750 C   0  0  0  0  0  0  0  0  0  0  0  0
    8.1980    2.0860   22.4000 O   0  0  0  0  0  0  0  0  0  0  0  0
    6.1190    1.2240   23.0280 C   0  0  0  0  0  0  0  0  0  0  0  0
   10.4060   -0.6810   23.0210 C   0  0  0  0  0  0  0  0  0  0  0  0
   11.9280    0.9930   23.7400 C   0  0  0  0  0  0  0  0  0  0  0  0
    5.3000    0.8950   21.8770 C   0  0  0  0  0  0  0  0  0  0  0  0
   11.3820   -1.2920   22.2720 C   0  0  0  0  0  0  0  0  0  0  0  0
   12.9470    0.4030   22.9880 C   0  0  0  0  0  0  0  0  0  0  0  0
    5.6860    0.6600   20.5160 C   0  0  0  0  0  0  0  0  0  0  0  0
   12.6690   -0.7550   22.2460 C   0  0  0  0  0  0  0  0  0  0  0  0
    5.0580    1.3940   19.5090 C   0  0  0  0  0  0  0  0  0  0  0  0
    6.6330   -0.2650   20.1960 N   0  0  0  0  0  0  0  0  0  0  0  0
    5.4360    1.1550   18.2070 C   0  0  0  0  0  0  0  0  0  0  0  0
    6.9180   -0.4090   18.8740 C   0  0  0  0  0  0  0  0  0  0  0  0
    6.3620    0.2640   17.8500 N   0  0  0  0  0  0  0  0  0  0  0  0
  1  2  1  0
  2  3  1  0
  3  4  1  0
  4  5  1  0
  4  6  1  0
  5  7  1  0
  6  8  2  0
  6  9  1  0
  7 10  2  0
  7 11  1  0
  9 12  2  3
 10 13  1  0
 11 14  2  0
 12 15  1  0
 13 16  2  0
 14 16  1  0
 15 17  2  0
 15 18  1  0
 17 19  1  0
 18 20  2  0
 19 21  2  0
 20 21  1  0
M  END
>  <Name>  (123) 
x0995-0A-x1249-0A_7818

>  <original SMILES>  (123) 
CCCN(Cc1ccccc1)C(=O)C=Cc1ccncn1

>  <synthon>  (123) 
[Xe]c1ccccc1

>  <ref_pdb>  (123) 
p/x0995-0A-x1249-0A-7818.holo_minimised.pdb

>  <ref_mols>  (123) 
x0995_0A,x1249_0A

>  <IFP_score>  (123) 
0.5773502691896257

>  <SuCOS_score>  (123) 
0.5599990205490554

>  <AttchPnts_score>  (123) 
1

>  <Docking_score>  (123) 
-4.6656599

>  <LE_score>  (123) 
-0.22217428095238093

>  <EnergyRatio_score>  (123) 
2.537447405284398

>  <cmpd_id>  (123) 
['ENAMINE:Z1614630076']

$$$$

     RDKit          3D

 21 22  0  0  0  0  0  0  0  0999 V2000
    5.7970   -0.2330   22.4830 O   0  0  0  0  0  0  0  0  0  0  0  0
    6.0070    0.6960   21.7010 C   0  0  0  0  0  0  0  0  0  0  0  0
    6.3480    2.0620   22.1090 N   0  0  0  0  0  0  0  0  0  0  0  0
    5.9510    0.5340   20.2210 C   0  0  0  0  0  0  0  0  0  0  0  0
    7.7730    2.2710   23.0400 S   0  0  0  0  0  0  0  0  0  0  0  0
    5.2630    1.3950   19.3610 C   0  0  0  0  0  0  0  0  0  0  0  0
    6.6340   -0.5090   19.6710 N   0  0  0  0  0  0  0  0  0  0  0  0
    7.7050    3.6300   23.5210 O   0  0  0  0  0  0  0  0  0  0  0  0
    8.8400    1.7800   22.1980 O   0  0  0  0  0  0  0  0  0  0  0  0
    7.4570    1.1250   24.3620 C   0  0  0  0  0  0  0  0  0  0  0  0
    5.3270    1.1720   18.0130 C   0  0  0  0  0  0  0  0  0  0  0  0
    6.6300   -0.6460   18.3360 C   0  0  0  0  0  0  0  0  0  0  0  0
    8.6430    0.4250   25.0540 C   0  0  0  0  0  0  0  0  0  0  0  0
    6.0090    0.1570   17.4740 N   0  0  0  0  0  0  0  0  0  0  0  0
    9.9740    1.1340   24.7780 C   0  0  0  0  0  0  0  0  0  0  0  0
   10.9400    0.3780   23.8910 C   0  0  0  0  0  0  0  0  0  0  0  0
   10.5800   -0.8390   23.3120 C   0  0  0  0  0  0  0  0  0  0  0  0
   12.2150    0.9040   23.6410 C   0  0  0  0  0  0  0  0  0  0  0  0
   11.4870   -1.5000   22.5030 C   0  0  0  0  0  0  0  0  0  0  0  0
   13.1300    0.2550   22.8360 C   0  0  0  0  0  0  0  0  0  0  0  0
   12.7510   -0.9540   22.2660 C   0  0  0  0  0  0  0  0  0  0  0  0
  1  2  2  0
  2  3  1  0
  2  4  1  0
  5  3  1  0
  4  6  2  0
  4  7  1  0
  5  8  2  0
  5  9  2  0
  5 10  1  0
  6 11  1  0
  7 12  2  0
 10 13  1  0
 11 14  2  0
 12 14  1  0
 13 15  1  0
 15 16  1  0
 16 17  2  0
 16 18  1  0
 17 19  1  0
 18 20  2  0
 19 21  2  0
 20 21  1  0
M  END
>  <Name>  (124) 
x0995-0A-x1249-0A_7303

>  <original SMILES>  (124) 
O=C(NS(=O)(=O)CCCc1ccccc1)c1ccncn1

>  <synthon>  (124) 
[Xe]c1ccccc1

>  <ref_pdb>  (124) 
p/x0995-0A-x1249-0A-7303.holo_minimised.pdb

>  <ref_mols>  (124) 
x0995_0A,x1249_0A

>  <IFP_score>  (124) 
0.5

>  <SuCOS_score>  (124) 
0.5904761056264827

>  <AttchPnts_score>  (124) 
1

>  <Docking_score>  (124) 
-5.07269907

>  <LE_score>  (124) 
-0.24155709857142854

>  <EnergyRatio_score>  (124) 
2.9233778294816135

>  <cmpd_id>  (124) 
['ENAMINE:PV-002772712245']

$$$$

     RDKit          3D

 19 20  0  0  0  0  0  0  0  0999 V2000
    5.7100   -0.1880   24.7880 O   0  0  0  0  0  0  0  0  0  0  0  0
    6.7500   -0.0600   24.1550 C   0  0  2  0  0  0  0  0  0  0  0  0
    7.5950    1.1770   24.3130 C   0  0  0  0  0  0  0  0  0  0  0  0
    6.6280   -0.3020   22.6170 C   0  0  0  0  0  0  0  0  0  0  0  0
    8.6670    1.2130   23.7380 O   0  0  0  0  0  0  0  0  0  0  0  0
    5.0930    0.3940   21.8680 S   0  0  0  0  0  0  0  0  0  0  0  0
    9.7870    1.0780   24.6060 C   0  0  0  0  0  0  0  0  0  0  0  0
    5.5470    0.3870   20.1420 C   0  0  0  0  0  0  0  0  0  0  0  0
   10.8740    0.3510   23.8090 C   0  0  0  0  0  0  0  0  0  0  0  0
    4.9980    1.2910   19.2690 C   0  0  0  0  0  0  0  0  0  0  0  0
    6.4760   -0.5570   19.7420 N   0  0  0  0  0  0  0  0  0  0  0  0
   10.6210   -0.8900   23.2180 C   0  0  0  0  0  0  0  0  0  0  0  0
   12.1330    0.9310   23.6510 C   0  0  0  0  0  0  0  0  0  0  0  0
    5.4370    1.2100   17.9720 C   0  0  0  0  0  0  0  0  0  0  0  0
    6.8080   -0.5160   18.4390 C   0  0  0  0  0  0  0  0  0  0  0  0
   11.6090   -1.5350   22.4810 C   0  0  0  0  0  0  0  0  0  0  0  0
   13.1240    0.2870   22.9130 C   0  0  0  0  0  0  0  0  0  0  0  0
    6.3420    0.3180   17.5410 N   0  0  0  0  0  0  0  0  0  0  0  0
   12.8580   -0.9480   22.3250 C   0  0  0  0  0  0  0  0  0  0  0  0
  2  1  1  6
  2  3  1  0
  2  4  1  0
  3  5  1  0
  4  6  1  0
  5  7  1  0
  6  8  1  0
  7  9  1  0
  8 10  2  0
  8 11  1  0
  9 12  2  0
  9 13  1  0
 10 14  1  0
 11 15  2  0
 12 16  1  0
 13 17  2  0
 14 18  2  0
 15 18  1  0
 16 19  2  0
 17 19  1  0
M  END
>  <Name>  (125) 
x0995-0A-x1249-0A_7100

>  <original SMILES>  (125) 
OC(COCc1ccccc1)CSc1ccncn1

>  <synthon>  (125) 
[Xe]c1ccccc1

>  <ref_pdb>  (125) 
p/x0995-0A-x1249-0A-7100.holo_minimised.pdb

>  <ref_mols>  (125) 
x0995_0A,x1249_0A

>  <IFP_score>  (125) 
0.5773502691896257

>  <SuCOS_score>  (125) 
0.603860400034292

>  <AttchPnts_score>  (125) 
0

>  <Docking_score>  (125) 
-5.09531498

>  <LE_score>  (125) 
-0.26817447263157895

>  <EnergyRatio_score>  (125) 
4.173521527243899

>  <cmpd_id>  (125) 
['CHEMSPACE-BB:CSMB00011991400', 'CHEMSPACE-BB:CSMB00110452519', 'CHEMSPACE-BB:CSMB00110452541']

$$$$

     RDKit          3D

 21 22  0  0  0  0  0  0  0  0999 V2000
    8.2380    3.2430   25.3050 C   0  0  0  0  0  0  0  0  0  0  0  0
    8.4020    2.8530   23.8260 C   0  0  0  0  0  0  0  0  0  0  0  0
    8.0650    1.3650   23.5730 C   0  0  1  0  0  0  0  0  0  0  0  0
    8.4490    0.5550   24.8080 C   0  0  0  0  0  0  0  0  0  0  0  0
    6.6780    1.1910   23.2250 N   0  0  0  0  0  0  0  0  0  0  0  0
   10.1260    1.0060   25.3350 S   0  0  0  0  0  0  0  0  0  0  0  0
    6.4540    0.2770   22.1200 C   0  0  0  0  0  0  0  0  0  0  0  0
   11.1130    0.2210   24.0830 C   0  0  0  0  0  0  0  0  0  0  0  0
    7.1800   -0.7120   22.0260 O   0  0  0  0  0  0  0  0  0  0  0  0
    5.4670    0.5780   21.2930 N   0  0  0  0  0  0  0  0  0  0  0  0
   10.6810   -0.9370   23.4310 C   0  0  0  0  0  0  0  0  0  0  0  0
   12.3450    0.7710   23.7480 C   0  0  0  0  0  0  0  0  0  0  0  0
    5.7250    0.5120   20.0020 C   0  0  0  0  0  0  0  0  0  0  0  0
   11.5020   -1.5140   22.4670 C   0  0  0  0  0  0  0  0  0  0  0  0
   13.1410    0.1890   22.7960 C   0  0  0  0  0  0  0  0  0  0  0  0
    5.1430    1.3910   19.1020 C   0  0  0  0  0  0  0  0  0  0  0  0
    6.5810   -0.4330   19.5990 N   0  0  0  0  0  0  0  0  0  0  0  0
   12.7410   -0.9610   22.1370 C   0  0  0  0  0  0  0  0  0  0  0  0
    5.4710    1.2950   17.7620 C   0  0  0  0  0  0  0  0  0  0  0  0
    6.8360   -0.4560   18.2900 C   0  0  0  0  0  0  0  0  0  0  0  0
    6.3380    0.3530   17.3500 N   0  0  0  0  0  0  0  0  0  0  0  0
  1  2  1  0
  3  2  1  1
  3  4  1  0
  3  5  1  0
  4  6  1  0
  5  7  1  0
  6  8  1  0
  7  9  2  0
  7 10  1  0
  8 11  2  0
  8 12  1  0
 10 13  1  0
 11 14  1  0
 12 15  2  0
 13 16  2  0
 13 17  1  0
 14 18  2  0
 15 18  1  0
 16 19  1  0
 17 20  2  0
 19 21  2  0
 20 21  1  0
M  END
>  <Name>  (126) 
x0995-0A-x1249-0A_6715

>  <original SMILES>  (126) 
CCC(CSc1ccccc1)NC(=O)Nc1ccncn1

>  <synthon>  (126) 
[Xe]c1ccccc1

>  <ref_pdb>  (126) 
p/x0995-0A-x1249-0A-6715.holo_minimised.pdb

>  <ref_mols>  (126) 
x0995_0A,x1249_0A

>  <IFP_score>  (126) 
0.5773502691896257

>  <SuCOS_score>  (126) 
0.6182764052260729

>  <AttchPnts_score>  (126) 
2

>  <Docking_score>  (126) 
-5.00688267

>  <LE_score>  (126) 
-0.23842298428571432

>  <EnergyRatio_score>  (126) 
3.3072407060315863

>  <cmpd_id>  (126) 
['ENAMINE:Z1889526487']

$$$$

     RDKit          3D

 24 25  0  0  0  0  0  0  0  0999 V2000
    4.3090    0.6550   24.0280 C   0  0  0  0  0  0  0  0  0  0  0  0
    5.5320    0.8930   24.9190 C   0  0  0  0  0  0  0  0  0  0  0  0
    5.1010    1.5380   26.2430 C   0  0  0  0  0  0  0  0  0  0  0  0
    6.6320    1.7230   24.1910 C   0  0  0  0  0  0  0  0  0  0  0  0
    7.7480    0.8110   23.5960 C   0  0  2  0  0  0  0  0  0  0  0  0
    7.3440   -0.1620   22.6490 C   0  0  0  0  0  0  0  0  0  0  0  0
    8.4600    0.1770   24.5580 N   0  0  0  0  0  0  0  0  0  0  0  0
    8.0890   -0.4390   21.5100 N   0  0  0  0  0  0  0  0  0  0  0  0
    9.7580    0.5190   24.8750 C   0  0  0  0  0  0  0  0  0  0  0  0
    7.4830   -1.1870   20.3270 C   0  0  2  0  0  0  0  0  0  0  0  0
   10.1280    1.0900   25.8730 O   0  0  0  0  0  0  0  0  0  0  0  0
   10.7690    0.1750   23.9680 C   0  0  0  0  0  0  0  0  0  0  0  0
    8.3990   -1.5720   19.3910 C   0  0  0  0  0  0  0  0  0  0  0  0
    6.4990   -0.2660   19.6300 C   0  0  0  0  0  0  0  0  0  0  0  0
   10.6150   -0.9960   23.2230 C   0  0  0  0  0  0  0  0  0  0  0  0
   11.9150    0.9480   23.7760 C   0  0  0  0  0  0  0  0  0  0  0  0
    6.6140    0.1860   18.1960 N   0  0  0  0  0  0  0  0  0  0  0  0
    5.5410    0.0790   20.4960 N   0  0  0  0  0  0  0  0  0  0  0  0
   11.5690   -1.4150   22.2880 C   0  0  0  0  0  0  0  0  0  0  0  0
   12.9490    0.4810   22.7570 C   0  0  0  0  0  0  0  0  0  0  0  0
    5.5910    1.0450   17.8800 C   0  0  0  0  0  0  0  0  0  0  0  0
    4.5820    0.9100   20.1220 C   0  0  0  0  0  0  0  0  0  0  0  0
   12.7270   -0.7030   22.0410 C   0  0  0  0  0  0  0  0  0  0  0  0
    4.5080    1.4520   18.8680 C   0  0  0  0  0  0  0  0  0  0  0  0
  1  2  1  0
  2  3  1  0
  2  4  1  0
  5  4  1  1
  5  6  1  0
  5  7  1  0
  6  8  1  0
  7  9  1  0
  8 10  1  0
  9 11  2  0
  9 12  1  0
 10 13  1  6
 10 14  1  0
 12 15  2  0
 12 16  1  0
 14 17  2  0
 14 18  1  0
 15 19  1  0
 16 20  2  0
 17 21  1  0
 18 22  2  0
 19 23  2  0
 20 23  1  0
 21 24  2  0
 22 24  1  0
M  END
>  <Name>  (127) 
x0995-0A-x1249-0A_6399

>  <original SMILES>  (127) 
CC(C)CC(CNC(C)c1ncccn1)NC(=O)c1ccccc1

>  <synthon>  (127) 
[Xe]c1ccccc1

>  <ref_pdb>  (127) 
p/x0995-0A-x1249-0A-6399.holo_minimised.pdb

>  <ref_mols>  (127) 
x0995_0A,x1249_0A

>  <IFP_score>  (127) 
0.5773502691896257

>  <SuCOS_score>  (127) 
0.5587327572546459

>  <AttchPnts_score>  (127) 
2

>  <Docking_score>  (127) 
-5.19902658

>  <LE_score>  (127) 
-0.2166261075

>  <EnergyRatio_score>  (127) 
4.846422481483186

>  <cmpd_id>  (127) 
['ENAMINE:PV-000862388265']

$$$$

     RDKit          3D

 22 23  0  0  0  0  0  0  0  0999 V2000
    8.9890    2.1890   22.9020 C   0  0  0  0  0  0  0  0  0  0  0  0
    7.8690    1.4860   23.6500 C   0  0  0  0  0  0  0  0  0  0  0  0
    7.1320    2.5240   24.4850 C   0  0  0  0  0  0  0  0  0  0  0  0
    8.5870    0.6420   24.6240 N   0  0  0  0  0  0  0  0  0  0  0  0
    6.9100    0.5810   22.9040 C   0  0  0  0  0  0  0  0  0  0  0  0
    9.8960    0.8120   24.9340 C   0  0  0  0  0  0  0  0  0  0  0  0
    6.8650   -0.8360   23.1220 O   0  0  0  0  0  0  0  0  0  0  0  0
    6.1430    1.2530   22.0660 N   0  0  0  0  0  0  0  0  0  0  0  0
   10.1690    1.3800   25.9540 O   0  0  0  0  0  0  0  0  0  0  0  0
   10.8860    0.2540   23.9700 C   0  0  0  0  0  0  0  0  0  0  0  0
    5.2710    0.5470   21.3360 C   0  0  0  0  0  0  0  0  0  0  0  0
   12.0990    0.9150   23.7580 C   0  0  0  0  0  0  0  0  0  0  0  0
   10.6320   -0.9260   23.2660 C   0  0  0  0  0  0  0  0  0  0  0  0
    5.6240    0.4310   20.0390 C   0  0  0  0  0  0  0  0  0  0  0  0
   13.0580    0.4230   22.8720 C   0  0  0  0  0  0  0  0  0  0  0  0
   11.5770   -1.4320   22.3800 C   0  0  0  0  0  0  0  0  0  0  0  0
    5.0760    1.3190   19.1410 C   0  0  0  0  0  0  0  0  0  0  0  0
    6.4900   -0.5170   19.6900 N   0  0  0  0  0  0  0  0  0  0  0  0
   12.7840   -0.7610   22.1850 C   0  0  0  0  0  0  0  0  0  0  0  0
    5.4830    1.1950   17.8270 C   0  0  0  0  0  0  0  0  0  0  0  0
    6.8160   -0.5540   18.3890 C   0  0  0  0  0  0  0  0  0  0  0  0
    6.3570    0.2640   17.4300 N   0  0  0  0  0  0  0  0  0  0  0  0
  1  2  1  0
  2  3  1  0
  2  4  1  0
  2  5  1  0
  4  6  1  0
  5  7  2  0
  5  8  1  0
  6  9  2  0
  6 10  1  0
  8 11  1  0
 10 12  2  0
 10 13  1  0
 11 14  1  0
 12 15  1  0
 13 16  2  0
 14 17  2  0
 14 18  1  0
 15 19  2  0
 16 19  1  0
 17 20  1  0
 18 21  2  0
 20 22  2  0
 21 22  1  0
M  END
>  <Name>  (128) 
x0995-0A-x1249-0A_6135

>  <original SMILES>  (128) 
CC(C)(NC(=O)c1ccccc1)C(=O)NCc1ccncn1

>  <synthon>  (128) 
[Xe]c1ccccc1

>  <ref_pdb>  (128) 
p/x0995-0A-x1249-0A-6135.holo_minimised.pdb

>  <ref_mols>  (128) 
x0995_0A,x1249_0A

>  <IFP_score>  (128) 
0.5

>  <SuCOS_score>  (128) 
0.6419443187624726

>  <AttchPnts_score>  (128) 
3

>  <Docking_score>  (128) 
-5.09986305

>  <LE_score>  (128) 
-0.2318119568181818

>  <EnergyRatio_score>  (128) 
4.0177094882072435

>  <cmpd_id>  (128) 
['ENAMINE:Z2410333783']

$$$$

     RDKit          3D

 22 23  0  0  0  0  0  0  0  0999 V2000
    6.9450   -1.2260   22.2380 C   0  0  0  0  0  0  0  0  0  0  0  0
    6.3970    0.1840   21.9720 C   0  0  0  0  0  0  0  0  0  0  0  0
    5.1080    0.2580   22.7900 C   0  0  0  0  0  0  0  0  0  0  0  0
    7.4680    1.2370   22.4890 C   0  0  0  0  0  0  0  0  0  0  0  0
    6.1730    0.2910   20.4450 C   0  0  0  0  0  0  0  0  0  0  0  0
    8.3170    2.0200   21.6440 O   0  0  0  0  0  0  0  0  0  0  0  0
    7.5190    1.3350   23.8420 N   0  0  0  0  0  0  0  0  0  0  0  0
    5.3300    1.1900   19.7390 C   0  0  0  0  0  0  0  0  0  0  0  0
    6.8900   -0.5860   19.7440 N   0  0  0  0  0  0  0  0  0  0  0  0
    8.4400    0.5920   24.5030 C   0  0  0  0  0  0  0  0  0  0  0  0
    5.3170    1.1150   18.3450 C   0  0  0  0  0  0  0  0  0  0  0  0
    6.8000   -0.5770   18.4120 C   0  0  0  0  0  0  0  0  0  0  0  0
    9.7720    0.9870   24.6490 C   0  0  0  0  0  0  0  0  0  0  0  0
    6.0570    0.2340   17.6570 N   0  0  0  0  0  0  0  0  0  0  0  0
   10.0630    0.9050   25.9720 F   0  0  0  0  0  0  0  0  0  0  0  0
    9.7800    2.3420   24.4240 F   0  0  0  0  0  0  0  0  0  0  0  0
   10.7510    0.3550   23.8670 C   0  0  0  0  0  0  0  0  0  0  0  0
   10.4630   -0.8320   23.2150 C   0  0  0  0  0  0  0  0  0  0  0  0
   12.0350    0.9090   23.7250 C   0  0  0  0  0  0  0  0  0  0  0  0
   11.4720   -1.4160   22.4480 C   0  0  0  0  0  0  0  0  0  0  0  0
   13.0330    0.3180   22.9570 C   0  0  0  0  0  0  0  0  0  0  0  0
   12.7480   -0.8770   22.2980 C   0  0  0  0  0  0  0  0  0  0  0  0
  2  1  1  0
  2  3  1  0
  2  4  1  0
  2  5  1  0
  4  6  2  0
  4  7  1  0
  5  8  2  0
  5  9  1  0
  7 10  1  0
  8 11  1  0
  9 12  2  0
 10 13  1  0
 11 14  2  0
 12 14  1  0
 13 15  1  0
 13 16  1  0
 13 17  1  0
 17 18  2  0
 17 19  1  0
 18 20  1  0
 19 21  2  0
 20 22  2  0
 21 22  1  0
M  END
>  <Name>  (129) 
x0995-0A-x1249-0A_5864

>  <original SMILES>  (129) 
CC(C)(C(=O)NCC(F)(F)c1ccccc1)c1ccncn1

>  <synthon>  (129) 
[Xe]c1ccccc1

>  <ref_pdb>  (129) 
p/x0995-0A-x1249-0A-5864.holo_minimised.pdb

>  <ref_mols>  (129) 
x0995_0A,x1249_0A

>  <IFP_score>  (129) 
0.5773502691896257

>  <SuCOS_score>  (129) 
0.560378488973101

>  <AttchPnts_score>  (129) 
4

>  <Docking_score>  (129) 
-6.19145775

>  <LE_score>  (129) 
-0.2814298977272727

>  <EnergyRatio_score>  (129) 
3.6076838897293055

>  <cmpd_id>  (129) 
['ENAMINE:Z4485649138']

$$$$

     RDKit          3D

 21 22  0  0  0  0  0  0  0  0999 V2000
    7.8700    2.5110   23.9570 C   0  0  0  0  0  0  0  0  0  0  0  0
    9.1990    2.1080   24.2180 O   0  0  0  0  0  0  0  0  0  0  0  0
    9.3020    0.7610   24.6230 C   0  0  1  0  0  0  0  0  0  0  0  0
    9.4390    0.8440   26.1530 C   0  0  0  0  0  0  0  0  0  0  0  0
    7.9040    0.1460   24.2200 C   0  0  0  0  0  0  0  0  0  0  0  0
   10.4660    0.1370   23.8260 C   0  0  0  0  0  0  0  0  0  0  0  0
    7.5570    0.1990   22.7810 N   0  0  0  0  0  0  0  0  0  0  0  0
   11.7520    0.9180   23.7730 C   0  0  0  0  0  0  0  0  0  0  0  0
   10.4270   -1.0830   23.1440 C   0  0  0  0  0  0  0  0  0  0  0  0
    6.1720    0.2800   22.5300 C   0  0  0  0  0  0  0  0  0  0  0  0
   12.8670    0.4460   23.0670 C   0  0  0  0  0  0  0  0  0  0  0  0
   11.5510   -1.5460   22.4400 C   0  0  0  0  0  0  0  0  0  0  0  0
    5.4770    0.9700   23.2610 O   0  0  0  0  0  0  0  0  0  0  0  0
    5.6060   -0.4130   21.5180 N   0  0  0  0  0  0  0  0  0  0  0  0
   12.7370   -0.7870   22.4090 C   0  0  0  0  0  0  0  0  0  0  0  0
    5.7650   -0.0300   20.2210 C   0  0  0  0  0  0  0  0  0  0  0  0
    5.0710    0.9800   19.5110 C   0  0  0  0  0  0  0  0  0  0  0  0
    6.7160   -0.7650   19.6250 N   0  0  0  0  0  0  0  0  0  0  0  0
    5.4200    1.1710   18.1930 C   0  0  0  0  0  0  0  0  0  0  0  0
    6.9690   -0.4900   18.3380 C   0  0  0  0  0  0  0  0  0  0  0  0
    6.3800    0.4370   17.5810 N   0  0  0  0  0  0  0  0  0  0  0  0
  1  2  1  0
  3  2  1  0
  3  4  1  1
  3  5  1  0
  3  6  1  0
  5  7  1  0
  6  8  2  0
  6  9  1  0
  7 10  1  0
  8 11  1  0
  9 12  2  0
 10 13  2  0
 10 14  1  0
 11 15  2  0
 12 15  1  0
 14 16  1  0
 16 17  2  0
 16 18  1  0
 17 19  1  0
 18 20  2  0
 19 21  2  0
 20 21  1  0
M  END
>  <Name>  (130) 
x0995-0A-x1249-0A_5172

>  <original SMILES>  (130) 
COC(C)(CNC(=O)Nc1ccncn1)c1ccccc1

>  <synthon>  (130) 
[Xe]c1ccccc1

>  <ref_pdb>  (130) 
p/x0995-0A-x1249-0A-5172.holo_minimised.pdb

>  <ref_mols>  (130) 
x0995_0A,x1249_0A

>  <IFP_score>  (130) 
0.5773502691896257

>  <SuCOS_score>  (130) 
0.5917371679489702

>  <AttchPnts_score>  (130) 
2

>  <Docking_score>  (130) 
-5.10561705

>  <LE_score>  (130) 
-0.24312462142857144

>  <EnergyRatio_score>  (130) 
3.1964329078339895

>  <cmpd_id>  (130) 
['ENAMINE:Z2293571453']

$$$$

     RDKit          3D

 22 23  0  0  0  0  0  0  0  0999 V2000
    8.6300    0.4500   27.1560 C   0  0  0  0  0  0  0  0  0  0  0  0
    7.7950    0.0800   25.9720 C   0  0  0  0  0  0  0  0  0  0  0  0
    8.3830    0.6260   24.7300 N   0  0  0  0  0  0  0  0  0  0  0  0
    9.7900    1.1120   24.8030 C   0  0  0  0  0  0  0  0  0  0  0  0
    7.5730    1.5010   24.0320 C   0  0  2  0  0  0  0  0  0  0  0  0
   10.8010    0.3880   23.8860 C   0  0  0  0  0  0  0  0  0  0  0  0
    6.4140    1.8580   24.7150 C   0  0  0  0  0  0  0  0  0  0  0  0
    7.1540    0.9360   22.6500 C   0  0  0  0  0  0  0  0  0  0  0  0
   10.4740   -0.7580   23.1670 C   0  0  0  0  0  0  0  0  0  0  0  0
   12.0970    0.8950   23.7680 C   0  0  0  0  0  0  0  0  0  0  0  0
    6.1140    1.5620   22.2150 N   0  0  0  0  0  0  0  0  0  0  0  0
   11.4190   -1.3910   22.3520 C   0  0  0  0  0  0  0  0  0  0  0  0
   13.0460    0.2710   22.9570 C   0  0  0  0  0  0  0  0  0  0  0  0
    5.1060    0.7720   21.4930 C   0  0  0  0  0  0  0  0  0  0  0  0
   12.7120   -0.8770   22.2440 C   0  0  0  0  0  0  0  0  0  0  0  0
    4.0640    0.3600   21.9710 O   0  0  0  0  0  0  0  0  0  0  0  0
    5.4620    0.5490   20.1720 C   0  0  0  0  0  0  0  0  0  0  0  0
    5.0070    1.4230   19.2100 C   0  0  0  0  0  0  0  0  0  0  0  0
    6.2450   -0.4980   19.8900 N   0  0  0  0  0  0  0  0  0  0  0  0
    5.3980    1.1960   17.9280 C   0  0  0  0  0  0  0  0  0  0  0  0
    6.5670   -0.6290   18.5920 C   0  0  0  0  0  0  0  0  0  0  0  0
    6.1830    0.1750   17.5900 N   0  0  0  0  0  0  0  0  0  0  0  0
  1  2  1  0
  2  3  1  0
  3  4  1  0
  3  5  1  0
  4  6  1  0
  5  7  1  1
  5  8  1  0
  6  9  2  0
  6 10  1  0
  8 11  1  0
  9 12  1  0
 10 13  2  0
 11 14  1  0
 12 15  2  0
 13 15  1  0
 14 16  2  0
 14 17  1  0
 17 18  2  0
 17 19  1  0
 18 20  1  0
 19 21  2  0
 20 22  2  0
 21 22  1  0
M  END
>  <Name>  (131) 
x0995-0A-x1249-0A_1581

>  <original SMILES>  (131) 
CCN(Cc1ccccc1)C(C)CNC(=O)c1ccncn1

>  <synthon>  (131) 
[Xe]c1ccccc1

>  <ref_pdb>  (131) 
p/x0995-0A-x1249-0A-1581.holo_minimised.pdb

>  <ref_mols>  (131) 
x0995_0A,x1249_0A

>  <IFP_score>  (131) 
0.5773502691896257

>  <SuCOS_score>  (131) 
0.6371218320570231

>  <AttchPnts_score>  (131) 
1

>  <Docking_score>  (131) 
-4.70554972

>  <LE_score>  (131) 
-0.21388862363636363

>  <EnergyRatio_score>  (131) 
3.316361179631451

>  <cmpd_id>  (131) 
['ENAMINE:PV-000658409350']

$$$$

     RDKit          3D

 21 22  0  0  0  0  0  0  0  0999 V2000
    8.3480    1.2810   21.6100 C   0  0  0  0  0  0  0  0  0  0  0  0
    7.2900    1.2150   22.6960 C   0  0  0  0  0  0  0  0  0  0  0  0
    7.8130    1.2080   24.1240 C   0  0  0  0  0  0  0  0  0  0  0  0
    5.7630    1.1520   22.5240 C   0  0  2  0  0  0  0  0  0  0  0  0
    8.8390    1.7850   24.4530 O   0  0  0  0  0  0  0  0  0  0  0  0
    5.1890    1.0790   23.8870 N   0  0  0  0  0  0  0  0  0  0  0  0
    5.2150    0.2250   21.6190 C   0  0  1  0  0  0  0  0  0  0  0  0
    9.8470    0.8930   24.8960 C   0  0  0  0  0  0  0  0  0  0  0  0
    3.8310    0.6560   21.5980 O   0  0  0  0  0  0  0  0  0  0  0  0
    5.5580    0.2870   20.2810 C   0  0  0  0  0  0  0  0  0  0  0  0
   10.8700    0.3250   23.9660 C   0  0  0  0  0  0  0  0  0  0  0  0
    4.9750    1.2220   19.4320 C   0  0  0  0  0  0  0  0  0  0  0  0
    6.4770   -0.6030   19.8310 N   0  0  0  0  0  0  0  0  0  0  0  0
   10.5890   -0.8920   23.3300 C   0  0  0  0  0  0  0  0  0  0  0  0
   12.0920    0.9600   23.7070 C   0  0  0  0  0  0  0  0  0  0  0  0
    5.3820    1.2060   18.1010 C   0  0  0  0  0  0  0  0  0  0  0  0
    6.7890   -0.5230   18.5180 C   0  0  0  0  0  0  0  0  0  0  0  0
   11.5110   -1.4640   22.4560 C   0  0  0  0  0  0  0  0  0  0  0  0
   13.0190    0.3870   22.8300 C   0  0  0  0  0  0  0  0  0  0  0  0
    6.2840    0.3430   17.6250 N   0  0  0  0  0  0  0  0  0  0  0  0
   12.7260   -0.8270   22.2050 C   0  0  0  0  0  0  0  0  0  0  0  0
  1  2  2  3
  2  3  1  0
  2  4  1  0
  3  5  1  0
  4  6  1  1
  4  7  1  0
  5  8  1  0
  7  9  1  6
  7 10  1  0
  8 11  1  0
 10 12  2  0
 10 13  1  0
 11 14  2  0
 11 15  1  0
 12 16  1  0
 13 17  2  0
 14 18  1  0
 15 19  2  0
 16 20  2  0
 17 20  1  0
 18 21  2  0
 19 21  1  0
M  END
>  <Name>  (132) 
x0995-0A-x1249-0A_1479

>  <original SMILES>  (132) 
C=C(COCc1ccccc1)C(N)C(O)c1ccncn1

>  <synthon>  (132) 
[Xe]c1ccccc1

>  <ref_pdb>  (132) 
p/x0995-0A-x1249-0A-1479.holo_minimised.pdb

>  <ref_mols>  (132) 
x0995_0A,x1249_0A

>  <IFP_score>  (132) 
0.5773502691896257

>  <SuCOS_score>  (132) 
0.626580807606697

>  <AttchPnts_score>  (132) 
1

>  <Docking_score>  (132) 
-5.35625553

>  <LE_score>  (132) 
-0.25505978714285715

>  <EnergyRatio_score>  (132) 
4.636211349500861

>  <cmpd_id>  (132) 
['CHEMSPACE-BB:CSMB00112955195']

$$$$

     RDKit          3D

 21 22  0  0  0  0  0  0  0  0999 V2000
    8.6040    2.9280   22.5660 C   0  0  0  0  0  0  0  0  0  0  0  0
    7.4360    2.1310   23.1010 C   0  0  2  0  0  0  0  0  0  0  0  0
    7.6420    1.6100   24.5220 C   0  0  0  0  0  0  0  0  0  0  0  0
    7.1240    1.0210   22.1670 N   0  0  0  0  0  0  0  0  0  0  0  0
    8.6930    0.6210   24.6750 N   0  0  0  0  0  0  0  0  0  0  0  0
    8.3560    0.3440   21.6140 C   0  0  0  0  0  0  0  0  0  0  0  0
    5.8770    1.0130   21.4020 C   0  0  0  0  0  0  0  0  0  0  0  0
   10.0270    0.9320   24.8930 C   0  0  0  0  0  0  0  0  0  0  0  0
    4.7760    1.3080   21.8810 O   0  0  0  0  0  0  0  0  0  0  0  0
    5.9640    0.7070   20.0810 C   0  0  0  0  0  0  0  0  0  0  0  0
   10.8980    0.1740   24.1000 C   0  0  0  0  0  0  0  0  0  0  0  0
    5.2910    1.5030   19.1810 C   0  0  0  0  0  0  0  0  0  0  0  0
    6.7190   -0.3330   19.6970 N   0  0  0  0  0  0  0  0  0  0  0  0
   10.4060   -0.8100   23.2340 C   0  0  0  0  0  0  0  0  0  0  0  0
   12.2730    0.3570   24.1350 C   0  0  0  0  0  0  0  0  0  0  0  0
    5.4620    1.2010   17.8540 C   0  0  0  0  0  0  0  0  0  0  0  0
    6.8060   -0.5390   18.3830 C   0  0  0  0  0  0  0  0  0  0  0  0
   11.2790   -1.5590   22.4390 C   0  0  0  0  0  0  0  0  0  0  0  0
   13.1460   -0.3830   23.3540 C   0  0  0  0  0  0  0  0  0  0  0  0
    6.2230    0.1880   17.4330 N   0  0  0  0  0  0  0  0  0  0  0  0
   12.6310   -1.3470   22.4940 C   0  0  0  0  0  0  0  0  0  0  0  0
  2  1  1  6
  2  3  1  0
  2  4  1  0
  3  5  1  0
  4  6  1  0
  4  7  1  0
  5  8  1  0
  7  9  2  0
  7 10  1  0
  8 11  1  0
 10 12  2  0
 10 13  1  0
 11 14  2  0
 11 15  1  0
 12 16  1  0
 13 17  2  0
 14 18  1  0
 15 19  2  0
 16 20  2  0
 17 20  1  0
 18 21  2  0
 19 21  1  0
M  END
>  <Name>  (133) 
x0995-0A-x1249-0A_1164

>  <original SMILES>  (133) 
CC(CNCc1ccccc1)N(C)C(=O)c1ccncn1

>  <synthon>  (133) 
[Xe]c1ccccc1

>  <ref_pdb>  (133) 
p/x0995-0A-x1249-0A-1164.holo_minimised.pdb

>  <ref_mols>  (133) 
x0995_0A,x1249_0A

>  <IFP_score>  (133) 
0.5773502691896257

>  <SuCOS_score>  (133) 
0.5935265766119548

>  <AttchPnts_score>  (133) 
1

>  <Docking_score>  (133) 
-5.06244755

>  <LE_score>  (133) 
-0.24106893095238094

>  <EnergyRatio_score>  (133) 
2.795673317816449

>  <cmpd_id>  (133) 
['ENAMINE:PV-000861456742']

$$$$

     RDKit          3D

 21 22  0  0  0  0  0  0  0  0999 V2000
    5.7590    2.9720   21.8930 C   0  0  0  0  0  0  0  0  0  0  0  0
    6.8520    2.8560   22.7830 O   0  0  0  0  0  0  0  0  0  0  0  0
    7.5790    1.5990   22.8020 C   0  0  2  0  0  0  0  0  0  0  0  0
    8.8790    1.6810   21.9750 C   0  0  0  0  0  0  0  0  0  0  0  0
    6.7450    0.3450   22.4170 C   0  0  0  0  0  0  0  0  0  0  0  0
    7.9280    1.4040   24.2770 C   0  0  0  0  0  0  0  0  0  0  0  0
    5.6180    0.5820   21.5390 N   0  0  0  0  0  0  0  0  0  0  0  0
    9.2640    1.7810   24.5100 O   0  0  0  0  0  0  0  0  0  0  0  0
    5.7830    0.4370   20.1880 C   0  0  0  0  0  0  0  0  0  0  0  0
    9.9400    0.7320   25.1440 C   0  0  0  0  0  0  0  0  0  0  0  0
    5.1800    1.3640   19.3420 C   0  0  0  0  0  0  0  0  0  0  0  0
    6.5320   -0.5890   19.7380 N   0  0  0  0  0  0  0  0  0  0  0  0
   10.8940    0.0650   24.1550 C   0  0  0  0  0  0  0  0  0  0  0  0
    5.3530    1.2720   17.9780 C   0  0  0  0  0  0  0  0  0  0  0  0
    6.6740   -0.6550   18.4130 C   0  0  0  0  0  0  0  0  0  0  0  0
   12.2480    0.4150   24.0890 C   0  0  0  0  0  0  0  0  0  0  0  0
   10.4370   -0.9310   23.2900 C   0  0  0  0  0  0  0  0  0  0  0  0
    6.1650    0.1740   17.5030 N   0  0  0  0  0  0  0  0  0  0  0  0
   13.1350   -0.1800   23.2230 C   0  0  0  0  0  0  0  0  0  0  0  0
   11.3150   -1.5440   22.4040 C   0  0  0  0  0  0  0  0  0  0  0  0
   12.6540   -1.1690   22.3720 C   0  0  0  0  0  0  0  0  0  0  0  0
  1  2  1  0
  3  2  1  0
  3  4  1  6
  3  5  1  0
  3  6  1  0
  5  7  1  0
  6  8  1  0
  7  9  1  0
  8 10  1  0
  9 11  2  0
  9 12  1  0
 10 13  1  0
 11 14  1  0
 12 15  2  0
 13 16  2  0
 13 17  1  0
 14 18  2  0
 15 18  1  0
 16 19  1  0
 17 20  2  0
 19 21  2  0
 20 21  1  0
M  END
>  <Name>  (134) 
x0995-0A-x1249-0A_760

>  <original SMILES>  (134) 
COC(C)(CNc1ccncn1)COCc1ccccc1

>  <synthon>  (134) 
[Xe]c1ccccc1

>  <ref_pdb>  (134) 
p/x0995-0A-x1249-0A-760.holo_minimised.pdb

>  <ref_mols>  (134) 
x0995_0A,x1249_0A

>  <IFP_score>  (134) 
0.5773502691896257

>  <SuCOS_score>  (134) 
0.5825940252606968

>  <AttchPnts_score>  (134) 
1

>  <Docking_score>  (134) 
-4.54667044

>  <LE_score>  (134) 
-0.2165081161904762

>  <EnergyRatio_score>  (134) 
2.418802310942748

>  <cmpd_id>  (134) 
['CHEMSPACE-BB:CSMB00022914550']

$$$$

     RDKit          3D

 19 20  0  0  0  0  0  0  0  0999 V2000
    5.4250   -0.3490   22.0860 O   0  0  0  0  0  0  0  0  0  0  0  0
    5.9960    0.6440   21.6510 C   0  0  1  0  0  0  0  0  0  0  0  0
    7.4990    0.9320   21.9100 C   0  0  0  0  0  0  0  0  0  0  0  0
    5.9790    0.5390   20.1460 C   0  0  0  0  0  0  0  0  0  0  0  0
    7.8310    1.8450   23.1240 C   0  0  0  0  0  0  0  0  0  0  0  0
    5.2610    1.3800   19.3100 C   0  0  0  0  0  0  0  0  0  0  0  0
    6.7570   -0.4430   19.6530 N   0  0  0  0  0  0  0  0  0  0  0  0
    7.5880    1.0660   24.3960 C   0  0  0  0  0  0  0  0  0  0  0  0
    5.4070    1.1870   17.9680 C   0  0  0  0  0  0  0  0  0  0  0  0
    6.8180   -0.5450   18.3220 C   0  0  0  0  0  0  0  0  0  0  0  0
    8.5450    0.3590   24.7530 O   0  0  0  0  0  0  0  0  0  0  0  0
    6.1880    0.2320   17.4420 N   0  0  0  0  0  0  0  0  0  0  0  0
    9.8270    0.9790   24.9260 C   0  0  0  0  0  0  0  0  0  0  0  0
   10.8020    0.4100   23.9110 C   0  0  0  0  0  0  0  0  0  0  0  0
   12.0120    1.0370   23.6550 C   0  0  0  0  0  0  0  0  0  0  0  0
   10.4710   -0.7700   23.2170 C   0  0  0  0  0  0  0  0  0  0  0  0
   12.8810    0.4960   22.7170 C   0  0  0  0  0  0  0  0  0  0  0  0
   11.3470   -1.3090   22.2710 C   0  0  0  0  0  0  0  0  0  0  0  0
   12.5610   -0.6710   22.0190 C   0  0  0  0  0  0  0  0  0  0  0  0
  2  1  1  1
  2  3  1  0
  2  4  1  0
  3  5  1  0
  4  6  2  0
  4  7  1  0
  5  8  1  0
  6  9  1  0
  7 10  2  0
  8 11  1  0
  9 12  2  0
 10 12  1  0
 11 13  1  0
 13 14  1  0
 14 15  2  0
 14 16  1  0
 15 17  1  0
 16 18  2  0
 17 19  2  0
 18 19  1  0
M  END
>  <Name>  (135) 
x0995-0A-x1249-0A_529

>  <original SMILES>  (135) 
OC(CCCOCc1ccccc1)c1ccncn1

>  <synthon>  (135) 
[Xe]c1ccccc1

>  <ref_pdb>  (135) 
p/x0995-0A-x1249-0A-529.holo_minimised.pdb

>  <ref_mols>  (135) 
x0995_0A,x1249_0A

>  <IFP_score>  (135) 
0.5773502691896257

>  <SuCOS_score>  (135) 
0.5543727481815839

>  <AttchPnts_score>  (135) 
0

>  <Docking_score>  (135) 
-5.06740141

>  <LE_score>  (135) 
-0.26670533736842106

>  <EnergyRatio_score>  (135) 
3.7677593888897483

>  <cmpd_id>  (135) 
['CHEMSPACE-BB:CSMB00032212226']

$$$$

     RDKit          3D

 21 22  0  0  0  0  0  0  0  0999 V2000
    8.4720    2.5500   23.1280 C   0  0  0  0  0  0  0  0  0  0  0  0
    7.9390    1.1610   23.5150 C   0  0  1  0  0  0  0  0  0  0  0  0
    8.5380    0.7140   24.8640 C   0  0  0  0  0  0  0  0  0  0  0  0
    6.4840    1.0950   23.4210 N   0  0  0  0  0  0  0  0  0  0  0  0
    9.9790    0.9560   24.8910 N   0  0  0  0  0  0  0  0  0  0  0  0
    5.9050    0.1580   22.5690 C   0  0  0  0  0  0  0  0  0  0  0  0
   10.8730    0.2140   24.1020 C   0  0  0  0  0  0  0  0  0  0  0  0
    6.0530   -1.0490   22.7650 O   0  0  0  0  0  0  0  0  0  0  0  0
    5.1760    0.7380   21.5360 N   0  0  0  0  0  0  0  0  0  0  0  0
   12.3670    0.3480   24.1400 C   0  0  0  0  0  0  0  0  0  0  0  0
   10.3840   -0.7360   23.1970 C   0  0  0  0  0  0  0  0  0  0  0  0
    4.5970    2.0600   21.7860 C   0  0  0  0  0  0  0  0  0  0  0  0
    5.5540    0.5790   20.1560 C   0  0  0  0  0  0  0  0  0  0  0  0
   13.1970   -0.4060   23.3410 C   0  0  0  0  0  0  0  0  0  0  0  0
   11.2490   -1.4850   22.3970 C   0  0  0  0  0  0  0  0  0  0  0  0
    5.0620    1.4130   19.1620 C   0  0  0  0  0  0  0  0  0  0  0  0
    6.4230   -0.4040   19.8260 N   0  0  0  0  0  0  0  0  0  0  0  0
   12.6320   -1.3140   22.4720 C   0  0  0  0  0  0  0  0  0  0  0  0
    5.4770    1.2430   17.8520 C   0  0  0  0  0  0  0  0  0  0  0  0
    6.7710   -0.5010   18.5320 C   0  0  0  0  0  0  0  0  0  0  0  0
    6.3520    0.2710   17.5290 N   0  0  0  0  0  0  0  0  0  0  0  0
  2  1  1  1
  2  3  1  0
  2  4  1  0
  3  5  1  0
  4  6  1  0
  5  7  1  0
  6  8  2  0
  6  9  1  0
  7 10  2  0
  7 11  1  0
  9 12  1  0
  9 13  1  0
 10 14  1  0
 11 15  2  0
 13 16  2  0
 13 17  1  0
 14 18  2  0
 15 18  1  0
 16 19  1  0
 17 20  2  0
 19 21  2  0
 20 21  1  0
M  END
>  <Name>  (136) 
x0995-0A-x1249-0A_405

>  <original SMILES>  (136) 
CC(CNc1ccccc1)NC(=O)N(C)c1ccncn1

>  <synthon>  (136) 
[Xe]c1ccccc1

>  <ref_pdb>  (136) 
p/x0995-0A-x1249-0A-405.holo_minimised.pdb

>  <ref_mols>  (136) 
x0995_0A,x1249_0A

>  <IFP_score>  (136) 
0.5773502691896257

>  <SuCOS_score>  (136) 
0.5956941393352437

>  <AttchPnts_score>  (136) 
2

>  <Docking_score>  (136) 
-5.38090706

>  <LE_score>  (136) 
-0.25623366952380955

>  <EnergyRatio_score>  (136) 
2.274128263730007

>  <cmpd_id>  (136) 
['ENAMINE:Z3373945048']

$$$$

     RDKit          3D

 25 27  0  0  0  0  0  0  0  0999 V2000
    8.1230    2.5290   26.2090 C   0  0  0  0  0  0  0  0  0  0  0  0
    8.8180    1.2380   25.8990 C   0  0  0  0  0  0  0  0  0  0  0  0
    8.4040    0.1020   26.7270 N   0  0  0  0  0  0  0  0  0  0  0  0
    8.6720   -1.1650   26.1110 C   0  0  0  0  0  0  0  0  0  0  0  0
    7.4460    0.4090   27.7950 C   0  0  0  0  0  0  0  0  0  0  0  0
    7.8680   -2.1070   26.1040 O   0  0  0  0  0  0  0  0  0  0  0  0
    9.9920   -1.2900   25.4480 N   0  0  0  0  0  0  0  0  0  0  0  0
    6.4250   -0.5820   28.2610 C   0  0  0  0  0  0  0  0  0  0  0  0
    7.3960    1.6730   28.4730 C   0  0  0  0  0  0  0  0  0  0  0  0
   11.1490   -0.6350   25.7880 C   0  0  0  0  0  0  0  0  0  0  0  0
   10.2550   -2.5140   24.6950 C   0  0  0  0  0  0  0  0  0  0  0  0
    5.5170   -0.2490   29.2720 C   0  0  0  0  0  0  0  0  0  0  0  0
    6.4530    1.9760   29.4960 C   0  0  0  0  0  0  0  0  0  0  0  0
   12.3800   -1.1270   25.3540 C   0  0  0  0  0  0  0  0  0  0  0  0
   11.1010   -2.2950   23.6040 C   0  0  0  0  0  0  0  0  0  0  0  0
    5.5280    1.0080   29.8780 C   0  0  0  0  0  0  0  0  0  0  0  0
    6.4170    3.3160   30.1820 C   0  0  0  0  0  0  0  0  0  0  0  0
   12.3830   -1.6390   23.9720 N   0  0  0  0  0  0  0  0  0  0  0  0
   12.7870   -0.6220   22.9880 C   0  0  0  0  0  0  0  0  0  0  0  0
   12.2690    0.7920   23.2220 C   0  0  0  0  0  0  0  0  0  0  0  0
   10.8290    0.9440   23.7010 C   0  0  0  0  0  0  0  0  0  0  0  0
   13.0350    1.9150   23.0210 C   0  0  0  0  0  0  0  0  0  0  0  0
   10.3250    2.3740   23.9220 C   0  0  0  0  0  0  0  0  0  0  0  0
   12.5120    3.3410   23.2400 C   0  0  0  0  0  0  0  0  0  0  0  0
   11.2340    3.5340   23.6660 C   0  0  0  0  0  0  0  0  0  0  0  0
  1  2  1  0
  2  3  1  0
  3  4  1  0
  3  5  1  0
  4  6  2  0
  4  7  1  0
  5  8  2  0
  5  9  1  0
  7 10  1  0
  7 11  1  0
  8 12  1  0
  9 13  2  0
 10 14  1  0
 11 15  1  0
 12 16  2  0
 13 16  1  0
 13 17  1  0
 14 18  1  0
 15 18  1  0
 18 19  1  0
 19 20  1  0
 20 21  2  0
 20 22  1  0
 21 23  1  0
 22 24  2  0
 23 25  2  0
 24 25  1  0
M  END
>  <Name>  (137) 
x0354-0A-x0946-0A_358

>  <original SMILES>  (137) 
CCN(C(=O)N1CCN(Cc2ccccc2)CC1)c1cccc(C)c1

>  <synthon>  (137) 
[Xe]c1ccccc1

>  <ref_pdb>  (137) 
p/x0354-0A-x0946-0A-358.holo_minimised.pdb

>  <ref_mols>  (137) 
x0354_0A,x0946_0A

>  <IFP_score>  (137) 
0.5

>  <SuCOS_score>  (137) 
0.5697139922948457

>  <AttchPnts_score>  (137) 
0

>  <Docking_score>  (137) 
-4.55116844

>  <LE_score>  (137) 
-0.18204673759999998

>  <EnergyRatio_score>  (137) 
3.389650642853682

>  <cmpd_id>  (137) 
['ENAMINE:PV-002865920867']

$$$$

     RDKit          3D

 25 27  0  0  0  0  0  0  0  0999 V2000
   14.3310   -2.3340   26.2580 N   0  0  0  0  0  0  0  0  0  0  0  0
   13.4380   -1.7680   25.7980 C   0  0  0  0  0  0  0  0  0  0  0  0
   12.3570   -1.0360   25.0730 C   0  0  2  0  0  0  0  0  0  0  0  0
   11.1250   -0.7960   25.7250 C   0  0  0  0  0  0  0  0  0  0  0  0
   12.3590   -1.4640   23.8070 N   0  0  0  0  0  0  0  0  0  0  0  0
   10.1540   -1.8680   25.5890 N   0  0  0  0  0  0  0  0  0  0  0  0
   11.1520   -2.1570   23.3310 C   0  0  0  0  0  0  0  0  0  0  0  0
   12.8740   -0.4320   22.9240 C   0  0  0  0  0  0  0  0  0  0  0  0
    8.8180   -1.6030   25.9210 C   0  0  0  0  0  0  0  0  0  0  0  0
   10.4500   -2.8300   24.5210 C   0  0  0  0  0  0  0  0  0  0  0  0
   12.2490    0.8180   23.1050 C   0  0  0  0  0  0  0  0  0  0  0  0
    7.9240   -2.3780   25.5620 O   0  0  0  0  0  0  0  0  0  0  0  0
    8.5140   -0.4550   26.6640 C   0  0  0  0  0  0  0  0  0  0  0  0
   13.0230    1.9680   22.9810 C   0  0  0  0  0  0  0  0  0  0  0  0
   10.8970    0.9470   23.3970 C   0  0  0  0  0  0  0  0  0  0  0  0
    7.4370   -0.6130   27.6060 O   0  0  0  0  0  0  0  0  0  0  0  0
   12.5890    3.2920   23.1130 C   0  0  0  0  0  0  0  0  0  0  0  0
   10.3330    2.3550   23.5540 C   0  0  0  0  0  0  0  0  0  0  0  0
    7.0860    0.4670   28.3730 C   0  0  0  0  0  0  0  0  0  0  0  0
   11.2720    3.5400   23.3960 C   0  0  0  0  0  0  0  0  0  0  0  0
    7.9310    1.7010   28.5560 C   0  0  0  0  0  0  0  0  0  0  0  0
    5.8460    0.3820   29.0210 C   0  0  0  0  0  0  0  0  0  0  0  0
    7.4320    2.8220   29.4240 C   0  0  0  0  0  0  0  0  0  0  0  0
    5.3590    1.4150   29.8390 C   0  0  0  0  0  0  0  0  0  0  0  0
    6.0730    2.5990   30.0650 C   0  0  0  0  0  0  0  0  0  0  0  0
  1  2  3  0
  3  2  1  1
  3  4  1  0
  3  5  1  0
  4  6  1  0
  5  7  1  0
  5  8  1  0
  6  9  1  0
  6 10  1  0
  7 10  1  0
  8 11  1  0
  9 12  2  0
  9 13  1  0
 11 14  2  0
 11 15  1  0
 13 16  1  0
 14 17  1  0
 15 18  2  0
 16 19  1  0
 17 20  2  0
 18 20  1  0
 19 21  2  0
 19 22  1  0
 21 23  1  0
 22 24  2  0
 23 25  2  0
 24 25  1  0
M  END
>  <Name>  (138) 
x0354-0A-x0946-0A_100

>  <original SMILES>  (138) 
N#CC1CN(C(=O)COc2ccccc2)CCN1Cc1ccccc1

>  <synthon>  (138) 
[Xe]c1ccccc1

>  <ref_pdb>  (138) 
p/x0354-0A-x0946-0A-100.holo_minimised.pdb

>  <ref_mols>  (138) 
x0354_0A,x0946_0A

>  <IFP_score>  (138) 
0.5

>  <SuCOS_score>  (138) 
0.622948958680555

>  <AttchPnts_score>  (138) 
1

>  <Docking_score>  (138) 
-4.07799149

>  <LE_score>  (138) 
-0.1631196596

>  <EnergyRatio_score>  (138) 
3.0338882094717152

>  <cmpd_id>  (138) 
['ENAMINE:Z1204319576']

$$$$

     RDKit          3D

 21 22  0  0  0  0  0  0  0  0999 V2000
    9.6430    1.6070   30.5560 C   0  0  0  0  0  0  0  0  0  0  0  0
    8.5330    1.4690   29.6740 O   0  0  0  0  0  0  0  0  0  0  0  0
    8.9140    1.1440   28.3250 C   0  0  0  0  0  0  0  0  0  0  0  0
    7.7870    0.5140   27.4720 C   0  0  0  0  0  0  0  0  0  0  0  0
    8.1830   -0.4980   26.5750 N   0  0  0  0  0  0  0  0  0  0  0  0
    7.3440   -1.7150   26.4360 C   0  0  0  0  0  0  0  0  0  0  0  0
    8.8730    0.0570   25.4010 C   0  0  0  0  0  0  0  0  0  0  0  0
    8.1210   -3.0460   26.2130 C   0  0  0  0  0  0  0  0  0  0  0  0
    8.1430    0.3530   24.3020 O   0  0  0  0  0  0  0  0  0  0  0  0
   10.2360    0.2670   25.4510 N   0  0  0  0  0  0  0  0  0  0  0  0
    7.8090   -4.2010   26.9240 C   0  0  0  0  0  0  0  0  0  0  0  0
    9.1190   -3.0230   25.2900 N   0  0  0  0  0  0  0  0  0  0  0  0
   11.0740   -0.2030   24.3520 C   0  0  0  0  0  0  0  0  0  0  0  0
    8.6250   -5.4320   26.6480 C   0  0  0  0  0  0  0  0  0  0  0  0
    9.8430   -4.1500   25.0560 C   0  0  0  0  0  0  0  0  0  0  0  0
   12.2570    0.4880   24.0790 C   0  0  0  0  0  0  0  0  0  0  0  0
   10.7400   -1.3130   23.5610 C   0  0  0  0  0  0  0  0  0  0  0  0
    9.6380   -5.3520   25.7010 C   0  0  0  0  0  0  0  0  0  0  0  0
   13.0930    0.0730   23.0340 C   0  0  0  0  0  0  0  0  0  0  0  0
   11.5750   -1.7220   22.5140 C   0  0  0  0  0  0  0  0  0  0  0  0
   12.7580   -1.0290   22.2450 C   0  0  0  0  0  0  0  0  0  0  0  0
  1  2  1  0
  2  3  1  0
  3  4  1  0
  4  5  1  0
  5  6  1  0
  5  7  1  0
  6  8  1  0
  7  9  2  0
  7 10  1  0
  8 11  2  0
  8 12  1  0
 10 13  1  0
 11 14  1  0
 12 15  2  0
 13 16  2  0
 13 17  1  0
 14 18  2  0
 15 18  1  0
 16 19  1  0
 17 20  2  0
 19 21  2  0
 20 21  1  0
M  END
>  <Name>  (139) 
x0072-0A-x0305-0A_13777

>  <original SMILES>  (139) 
COCCN(Cc1ccccn1)C(=O)Nc1ccccc1

>  <synthon>  (139) 
[Xe]c1ccccn1

>  <ref_pdb>  (139) 
p/x0072-0A-x0305-0A-13777.holo_minimised.pdb

>  <ref_mols>  (139) 
x0072_0A,x0305_0A

>  <IFP_score>  (139) 
0.6666666666666666

>  <SuCOS_score>  (139) 
0.5558052504996289

>  <AttchPnts_score>  (139) 
1

>  <Docking_score>  (139) 
-4.81793737

>  <LE_score>  (139) 
-0.22942558904761906

>  <EnergyRatio_score>  (139) 
2.6020154198336107

>  <cmpd_id>  (139) 
['MOLPORT:009-072-366', 'ENAMINE:Z594294860']

$$$$

     RDKit          3D

 19 20  0  0  0  0  0  0  0  0999 V2000
    9.2000   -4.1480   25.2720 N   0  0  0  0  0  0  0  0  0  0  0  0
    8.1660   -3.8430   25.7080 C   0  0  0  0  0  0  0  0  0  0  0  0
    7.7080   -2.5640   25.6260 N   0  0  0  0  0  0  0  0  0  0  0  0
    7.2720   -4.8940   26.3930 C   0  0  0  0  0  0  0  0  0  0  0  0
    8.7330   -1.5790   25.1230 N   0  0  0  0  0  0  0  0  0  0  0  0
    7.7980   -5.5340   27.4950 C   0  0  0  0  0  0  0  0  0  0  0  0
    6.0340   -5.1100   25.8740 N   0  0  0  0  0  0  0  0  0  0  0  0
    8.9600   -0.4810   25.9420 C   0  0  0  0  0  0  0  0  0  0  0  0
    7.0060   -6.4710   28.1430 C   0  0  0  0  0  0  0  0  0  0  0  0
    5.2860   -6.0290   26.5200 C   0  0  0  0  0  0  0  0  0  0  0  0
    8.0590   -0.1490   26.9980 O   0  0  0  0  0  0  0  0  0  0  0  0
   10.1130    0.1780   25.5630 N   0  0  0  0  0  0  0  0  0  0  0  0
    5.7260   -6.7180   27.6380 C   0  0  0  0  0  0  0  0  0  0  0  0
   10.9550   -0.1790   24.4750 C   0  0  0  0  0  0  0  0  0  0  0  0
   10.7300   -1.4330   23.6450 C   0  0  0  0  0  0  0  0  0  0  0  0
   12.0550    0.6460   24.1280 C   0  0  0  0  0  0  0  0  0  0  0  0
   11.5500   -1.7990   22.5800 C   0  0  0  0  0  0  0  0  0  0  0  0
   12.8730    0.2590   23.0490 C   0  0  0  0  0  0  0  0  0  0  0  0
   12.6750   -0.8950   22.2860 C   0  0  0  0  0  0  0  0  0  0  0  0
  1  2  2  3
  2  3  1  0
  2  4  1  0
  3  5  1  0
  4  6  2  0
  4  7  1  0
  5  8  1  0
  6  9  1  0
  7 10  2  0
  8 11  2  0
  8 12  1  0
  9 13  2  0
 10 13  1  0
 12 14  1  0
 14 15  2  0
 14 16  1  0
 15 17  1  0
 16 18  2  0
 17 19  2  0
 18 19  1  0
M  END
>  <Name>  (140) 
x0072-0A-x0305-0A_10893

>  <original SMILES>  (140) 
N=C(NNC(=O)Nc1ccccc1)c1ccccn1

>  <synthon>  (140) 
[Xe]c1ccccn1

>  <ref_pdb>  (140) 
p/x0072-0A-x0305-0A-10893.holo_minimised.pdb

>  <ref_mols>  (140) 
x0072_0A,x0305_0A

>  <IFP_score>  (140) 
0.6666666666666666

>  <SuCOS_score>  (140) 
0.5569161171427308

>  <AttchPnts_score>  (140) 
4

>  <Docking_score>  (140) 
-5.10561752

>  <LE_score>  (140) 
-0.2687167115789474

>  <EnergyRatio_score>  (140) 
4.028601741400347

>  <cmpd_id>  (140) 
['MOLPORT:002-920-076']

$$$$

     RDKit          3D

 22 23  0  0  0  0  0  0  0  0999 V2000
    7.9730    1.7070   23.1550 C   0  0  0  0  0  0  0  0  0  0  0  0
    7.6990    0.4350   22.3260 C   0  0  2  0  0  0  0  0  0  0  0  0
    9.0300   -0.1470   22.0670 N   0  0  0  0  0  0  0  0  0  0  0  0
    7.0010    0.5290   20.9600 C   0  0  0  0  0  0  0  0  0  0  0  0
    9.8220   -0.7420   23.0500 C   0  0  0  0  0  0  0  0  0  0  0  0
    7.4390   -0.3270   19.9850 C   0  0  0  0  0  0  0  0  0  0  0  0
    5.9550    1.4340   20.6530 C   0  0  0  0  0  0  0  0  0  0  0  0
   11.1270   -1.1230   22.6190 C   0  0  0  0  0  0  0  0  0  0  0  0
    6.8900   -0.3340   18.6970 C   0  0  0  0  0  0  0  0  0  0  0  0
    5.3960    1.4400   19.3630 C   0  0  0  0  0  0  0  0  0  0  0  0
   12.3540   -0.4990   23.0890 O   0  0  0  0  0  0  0  0  0  0  0  0
    5.8630    0.5540   18.3740 C   0  0  0  0  0  0  0  0  0  0  0  0
   12.1540    0.9020   23.2660 C   0  0  0  0  0  0  0  0  0  0  0  0
   10.9230    1.2820   23.9850 C   0  0  0  0  0  0  0  0  0  0  0  0
   13.0030    1.9210   22.8210 C   0  0  0  0  0  0  0  0  0  0  0  0
   10.5790    2.5940   24.2140 C   0  0  0  0  0  0  0  0  0  0  0  0
   12.6130    3.2550   23.0740 C   0  0  0  0  0  0  0  0  0  0  0  0
   11.4210    3.6000   23.7530 C   0  0  0  0  0  0  0  0  0  0  0  0
   10.9680    5.2830   24.0330 S   0  0  0  0  0  0  0  0  0  0  0  0
    9.6190    5.4260   23.0160 N   0  0  0  0  0  0  0  0  0  0  0  0
   12.0010    6.1480   23.5200 O   0  0  0  0  0  0  0  0  0  0  0  0
   10.4610    5.4280   25.3760 O   0  0  0  0  0  0  0  0  0  0  0  0
  2  1  1  6
  2  3  1  0
  2  4  1  0
  3  5  1  0
  4  6  2  0
  4  7  1  0
  5  8  1  0
  6  9  1  0
  7 10  2  0
  8 11  1  0
  9 12  2  0
 10 12  1  0
 11 13  1  0
 13 14  2  0
 13 15  1  0
 14 16  1  0
 15 17  2  0
 16 18  2  0
 17 18  1  0
 18 19  1  0
 19 20  1  0
 19 21  2  0
 19 22  2  0
M  END
>  <Name>  (141) 
x0946-0A-x0967-0A_8606

>  <original SMILES>  (141) 
CC(NCCOc1ccc(S(N)(=O)=O)cc1)c1ccccc1

>  <synthon>  (141) 
[Xe]c1ccccc1

>  <ref_pdb>  (141) 
p/x0946-0A-x0967-0A-8606.holo_minimised.pdb

>  <ref_mols>  (141) 
x0946_0A,x0967_0A

>  <IFP_score>  (141) 
0.5773502691896257

>  <SuCOS_score>  (141) 
0.5605352373677513

>  <AttchPnts_score>  (141) 
2

>  <Docking_score>  (141) 
-5.69174623

>  <LE_score>  (141) 
-0.2587157377272727

>  <EnergyRatio_score>  (141) 
3.8554964473998035

>  <cmpd_id>  (141) 
['ENAMINE:Z195552676']

$$$$

     RDKit          3D

 24 25  0  0  0  0  0  0  0  0999 V2000
    8.0230    5.8070   24.6580 C   0  0  0  0  0  0  0  0  0  0  0  0
    8.7150    5.1410   23.4680 C   0  0  0  0  0  0  0  0  0  0  0  0
    8.5640    6.0730   22.2970 C   0  0  0  0  0  0  0  0  0  0  0  0
    7.8980    3.8060   23.1900 C   0  0  0  0  0  0  0  0  0  0  0  0
   10.4450    5.0260   23.9590 S   0  0  0  0  0  0  0  0  0  0  0  0
    8.5780    2.6690   22.5850 N   0  0  0  0  0  0  0  0  0  0  0  0
   10.3860    5.2510   25.3790 O   0  0  0  0  0  0  0  0  0  0  0  0
   11.2530    5.9070   23.1470 O   0  0  0  0  0  0  0  0  0  0  0  0
   11.1790    3.4050   23.7640 C   0  0  0  0  0  0  0  0  0  0  0  0
    8.1750    1.3520   22.8460 C   0  0  0  0  0  0  0  0  0  0  0  0
   12.4480    3.2840   23.1810 C   0  0  0  0  0  0  0  0  0  0  0  0
   10.5290    2.2390   24.1880 C   0  0  0  0  0  0  0  0  0  0  0  0
    8.8920    0.5180   23.3830 O   0  0  0  0  0  0  0  0  0  0  0  0
    6.7500    0.9260   22.4480 C   0  0  0  0  0  0  0  0  0  0  0  0
   13.0570    2.0260   23.0130 C   0  0  0  0  0  0  0  0  0  0  0  0
   11.1430    0.9880   24.0190 C   0  0  0  0  0  0  0  0  0  0  0  0
    6.5040    0.7910   20.9640 C   0  0  0  0  0  0  0  0  0  0  0  0
   12.3980    0.8840   23.4330 C   0  0  0  0  0  0  0  0  0  0  0  0
    7.2790   -0.0630   20.1610 C   0  0  0  0  0  0  0  0  0  0  0  0
    5.4810    1.5350   20.3680 C   0  0  0  0  0  0  0  0  0  0  0  0
   13.2260   -0.8100   23.1970 Br  0  0  0  0  0  0  0  0  0  0  0  0
    7.0270   -0.1600   18.7890 C   0  0  0  0  0  0  0  0  0  0  0  0
    5.2340    1.4340   19.0030 C   0  0  0  0  0  0  0  0  0  0  0  0
    6.0050    0.5900   18.2150 C   0  0  0  0  0  0  0  0  0  0  0  0
  2  1  1  0
  2  3  1  0
  2  4  1  0
  2  5  1  0
  4  6  1  0
  5  7  2  0
  5  8  2  0
  5  9  1  0
  6 10  1  0
  9 11  2  0
  9 12  1  0
 10 13  2  0
 10 14  1  0
 11 15  1  0
 12 16  2  0
 14 17  1  0
 15 18  2  0
 16 18  1  0
 17 19  2  0
 17 20  1  0
 18 21  1  0
 19 22  1  0
 20 23  2  0
 22 24  2  0
 23 24  1  0
M  END
>  <Name>  (142) 
x0946-0A-x0967-0A_7364

>  <original SMILES>  (142) 
CC(C)(CNC(=O)Cc1ccccc1)S(=O)(=O)c1ccc(Br)cc1

>  <synthon>  (142) 
[Xe]c1ccccc1

>  <ref_pdb>  (142) 
p/x0946-0A-x0967-0A-7364.holo_minimised.pdb

>  <ref_mols>  (142) 
x0946_0A,x0967_0A

>  <IFP_score>  (142) 
0.5345224838248488

>  <SuCOS_score>  (142) 
0.6211576143785307

>  <AttchPnts_score>  (142) 
3

>  <Docking_score>  (142) 
-6.07313871

>  <LE_score>  (142) 
-0.25304744625000003

>  <EnergyRatio_score>  (142) 
3.3544163281959922

>  <cmpd_id>  (142) 
['ENAMINE:Z1228382654']

$$$$

     RDKit          3D

 21 22  0  0  0  0  0  0  0  0999 V2000
    6.8820    3.5500   23.8350 O   0  0  0  0  0  0  0  0  0  0  0  0
    7.9060    3.5300   23.1480 C   0  0  0  0  0  0  0  0  0  0  0  0
    8.2170    2.4770   22.3250 N   0  0  0  0  0  0  0  0  0  0  0  0
    8.8630    4.6950   23.1730 C   0  0  0  0  0  0  0  0  0  0  0  0
    7.9640    1.1200   22.8480 C   0  0  0  0  0  0  0  0  0  0  0  0
    8.5450    5.7860   22.7040 O   0  0  0  0  0  0  0  0  0  0  0  0
   10.1110    4.4840   23.7660 N   0  0  0  0  0  0  0  0  0  0  0  0
    6.6580    0.5200   22.3920 C   0  0  0  0  0  0  0  0  0  0  0  0
   10.8590    3.2390   23.6770 C   0  0  0  0  0  0  0  0  0  0  0  0
    6.4390    0.5590   21.0070 C   0  0  0  0  0  0  0  0  0  0  0  0
   12.1260    3.3180   23.0800 C   0  0  0  0  0  0  0  0  0  0  0  0
   10.3820    2.0180   24.1460 C   0  0  0  0  0  0  0  0  0  0  0  0
    7.1920   -0.2470   20.1540 C   0  0  0  0  0  0  0  0  0  0  0  0
    5.4590    1.4060   20.4700 C   0  0  0  0  0  0  0  0  0  0  0  0
   12.9050    2.1560   22.9460 C   0  0  0  0  0  0  0  0  0  0  0  0
   11.1510    0.8680   24.0140 C   0  0  0  0  0  0  0  0  0  0  0  0
    6.9730   -0.2100   18.7810 C   0  0  0  0  0  0  0  0  0  0  0  0
    5.2440    1.4390   19.0960 C   0  0  0  0  0  0  0  0  0  0  0  0
   12.4030    0.9330   23.4130 C   0  0  0  0  0  0  0  0  0  0  0  0
    5.9990    0.6340   18.2490 C   0  0  0  0  0  0  0  0  0  0  0  0
   13.3860   -0.6710   23.2540 Br  0  0  0  0  0  0  0  0  0  0  0  0
  1  2  2  0
  2  3  1  0
  2  4  1  0
  3  5  1  0
  4  6  2  0
  4  7  1  0
  5  8  1  0
  7  9  1  0
  8 10  1  0
  9 11  2  0
  9 12  1  0
 10 13  2  0
 10 14  1  0
 11 15  1  0
 12 16  2  0
 13 17  1  0
 14 18  2  0
 15 19  2  0
 16 19  1  0
 17 20  2  0
 18 20  1  0
 19 21  1  0
M  END
>  <Name>  (143) 
x0946-0A-x0967-0A_6277

>  <original SMILES>  (143) 
O=C(NCCc1ccccc1)C(=O)Nc1ccc(Br)cc1

>  <synthon>  (143) 
[Xe]c1ccccc1

>  <ref_pdb>  (143) 
p/x0946-0A-x0967-0A-6277.holo_minimised.pdb

>  <ref_mols>  (143) 
x0946_0A,x0967_0A

>  <IFP_score>  (143) 
0.7071067811865476

>  <SuCOS_score>  (143) 
0.5511165021302307

>  <AttchPnts_score>  (143) 
5

>  <Docking_score>  (143) 
-5.58763456

>  <LE_score>  (143) 
-0.2660778361904762

>  <EnergyRatio_score>  (143) 
2.299724826854857

>  <cmpd_id>  (143) 
['MOLPORT:001-896-453']

$$$$

     RDKit          3D

 24 26  0  0  0  0  0  0  0  0999 V2000
   11.5250    6.0080   23.1740 O   0  0  0  0  0  0  0  0  0  0  0  0
   10.8260    5.1260   24.0800 S   0  0  0  0  0  0  0  0  0  0  0  0
   10.6940    5.4420   25.4800 O   0  0  0  0  0  0  0  0  0  0  0  0
    9.3110    4.8620   23.4590 N   0  0  0  0  0  0  0  0  0  0  0  0
   11.4960    3.4870   23.8380 C   0  0  0  0  0  0  0  0  0  0  0  0
    8.8510    3.5710   23.3290 C   0  0  0  0  0  0  0  0  0  0  0  0
   10.8150    2.3450   24.2930 C   0  0  0  0  0  0  0  0  0  0  0  0
   12.7120    3.2990   23.1870 C   0  0  0  0  0  0  0  0  0  0  0  0
    8.3410    2.9260   24.2940 N   0  0  0  0  0  0  0  0  0  0  0  0
    9.0290    3.0650   22.1060 N   0  0  0  0  0  0  0  0  0  0  0  0
   11.3290    1.0610   24.0930 C   0  0  0  0  0  0  0  0  0  0  0  0
   13.2280    2.0030   22.9860 C   0  0  0  0  0  0  0  0  0  0  0  0
    8.0100    1.6220   23.9670 C   0  0  0  0  0  0  0  0  0  0  0  0
    8.0770    2.0730   21.7290 C   0  0  0  0  0  0  0  0  0  0  0  0
   12.5340    0.8920   23.4370 C   0  0  0  0  0  0  0  0  0  0  0  0
    7.2920    1.4910   22.8130 N   0  0  0  0  0  0  0  0  0  0  0  0
   13.2100   -0.8550   23.1730 Br  0  0  0  0  0  0  0  0  0  0  0  0
    6.6890    0.2740   22.3560 C   0  0  0  0  0  0  0  0  0  0  0  0
    6.3680    0.4350   20.8760 C   0  0  0  0  0  0  0  0  0  0  0  0
    7.2000   -0.3830   19.9760 C   0  0  0  0  0  0  0  0  0  0  0  0
    5.3790    1.2840   20.3660 C   0  0  0  0  0  0  0  0  0  0  0  0
    6.9570   -0.2710   18.6060 C   0  0  0  0  0  0  0  0  0  0  0  0
    5.1800    1.3560   18.9930 C   0  0  0  0  0  0  0  0  0  0  0  0
    5.9670    0.5830   18.1180 C   0  0  0  0  0  0  0  0  0  0  0  0
  1  2  2  0
  2  3  2  0
  2  4  1  0
  2  5  1  0
  4  6  1  0
  5  7  2  0
  5  8  1  0
  6  9  2  0
  6 10  1  0
  7 11  1  0
  8 12  2  0
  9 13  1  0
 10 14  1  0
 11 15  2  0
 12 15  1  0
 13 16  1  0
 14 16  1  0
 15 17  1  0
 16 18  1  0
 18 19  1  0
 19 20  2  0
 19 21  1  0
 20 22  1  0
 21 23  2  0
 22 24  2  0
 23 24  1  0
M  END
>  <Name>  (144) 
x0946-0A-x0967-0A_2413

>  <original SMILES>  (144) 
O=S(=O)(NC1=NCN(Cc2ccccc2)CN1)c1ccc(Br)cc1

>  <synthon>  (144) 
[Xe]c1ccccc1

>  <ref_pdb>  (144) 
p/x0946-0A-x0967-0A-2413.holo_minimised.pdb

>  <ref_mols>  (144) 
x0946_0A,x0967_0A

>  <IFP_score>  (144) 
0.7745966692414834

>  <SuCOS_score>  (144) 
0.607472929912545

>  <AttchPnts_score>  (144) 
3

>  <Docking_score>  (144) 
-6.59912395

>  <LE_score>  (144) 
-0.2749634979166667

>  <EnergyRatio_score>  (144) 
3.8046272016144878

>  <cmpd_id>  (144) 
['MOLPORT:006-386-361']

$$$$

     RDKit          3D

 22 23  0  0  0  0  0  0  0  0999 V2000
    9.7570    5.6820   22.9500 N   0  0  0  0  0  0  0  0  0  0  0  0
   10.9810    5.3520   24.0540 S   0  0  0  0  0  0  0  0  0  0  0  0
   10.3740    5.4610   25.3570 O   0  0  0  0  0  0  0  0  0  0  0  0
   12.0990    6.1540   23.6440 O   0  0  0  0  0  0  0  0  0  0  0  0
   11.4080    3.6350   23.7520 C   0  0  0  0  0  0  0  0  0  0  0  0
   12.6910    3.4030   23.0390 C   0  0  0  0  0  0  0  0  0  0  0  0
   10.6150    2.5540   24.1540 C   0  0  0  0  0  0  0  0  0  0  0  0
   13.0140    1.9260   22.8010 C   0  0  0  0  0  0  0  0  0  0  0  0
   10.9940    1.2200   23.8930 C   0  0  0  0  0  0  0  0  0  0  0  0
   12.1800    0.8960   23.2160 C   0  0  0  0  0  0  0  0  0  0  0  0
   12.6080   -0.3660   22.9130 O   0  0  0  0  0  0  0  0  0  0  0  0
   11.7360   -1.3410   22.2920 C   0  0  0  0  0  0  0  0  0  0  0  0
   10.4340   -0.8360   21.9740 C   0  0  0  0  0  0  0  0  0  0  0  0
    9.4040   -0.7030   22.9300 C   0  0  0  0  0  0  0  0  0  0  0  0
    8.1180   -0.9260   22.3380 O   0  0  0  0  0  0  0  0  0  0  0  0
    7.1860    0.1670   22.4300 C   0  0  0  0  0  0  0  0  0  0  0  0
    6.6670    0.4270   21.0240 C   0  0  0  0  0  0  0  0  0  0  0  0
    7.3070   -0.4390   19.9650 C   0  0  0  0  0  0  0  0  0  0  0  0
    5.6830    1.3630   20.6470 C   0  0  0  0  0  0  0  0  0  0  0  0
    6.9400   -0.3230   18.6480 C   0  0  0  0  0  0  0  0  0  0  0  0
    5.3020    1.4880   19.2910 C   0  0  0  0  0  0  0  0  0  0  0  0
    5.8850    0.6930   18.2910 C   0  0  0  0  0  0  0  0  0  0  0  0
  2  1  1  0
  2  3  2  0
  2  4  2  0
  2  5  1  0
  5  6  2  0
  5  7  1  0
  6  8  1  0
  7  9  2  0
  8 10  2  0
  9 10  1  0
 10 11  1  0
 11 12  1  0
 12 13  1  0
 13 14  1  0
 14 15  1  0
 15 16  1  0
 16 17  1  0
 17 18  2  0
 17 19  1  0
 18 20  1  0
 19 21  2  0
 20 22  2  0
 21 22  1  0
M  END
>  <Name>  (145) 
x0946-0A-x0967-0A_1287

>  <original SMILES>  (145) 
NS(=O)(=O)c1ccc(OCCCOCc2ccccc2)cc1

>  <synthon>  (145) 
[Xe]c1ccccc1

>  <ref_pdb>  (145) 
p/x0946-0A-x0967-0A-1287.holo_minimised.pdb

>  <ref_mols>  (145) 
x0946_0A,x0967_0A

>  <IFP_score>  (145) 
0.5773502691896257

>  <SuCOS_score>  (145) 
0.5601499272005654

>  <AttchPnts_score>  (145) 
1

>  <Docking_score>  (145) 
-5.53328276

>  <LE_score>  (145) 
-0.2515128527272727

>  <EnergyRatio_score>  (145) 
4.358939463793091

>  <cmpd_id>  (145) 
['CHEMSPACE-BB:CSMB00015069404']

$$$$

     RDKit          3D

 22 23  0  0  0  0  0  0  0  0999 V2000
   10.5140    2.1490   23.5430 C   0  0  0  0  0  0  0  0  0  0  0  0
    9.8520    1.6620   22.2450 C   0  0  1  0  0  0  0  0  0  0  0  0
   10.1610    0.1990   22.0130 C   0  0  0  0  0  0  0  0  0  0  0  0
    8.4830    1.8940   22.2080 N   0  0  0  0  0  0  0  0  0  0  0  0
    9.8550   -0.7810   22.9380 C   0  0  0  0  0  0  0  0  0  0  0  0
    7.6950    1.2190   23.0480 C   0  0  0  0  0  0  0  0  0  0  0  0
    9.3300   -0.5390   24.2060 C   0  0  0  0  0  0  0  0  0  0  0  0
   10.1410   -2.0430   22.4500 N   0  0  0  0  0  0  0  0  0  0  0  0
    7.9200    1.2020   24.2450 O   0  0  0  0  0  0  0  0  0  0  0  0
    6.5800    0.4830   22.6220 C   0  0  0  0  0  0  0  0  0  0  0  0
    9.0790   -1.6310   25.0150 C   0  0  0  0  0  0  0  0  0  0  0  0
    9.8540   -3.1270   23.3460 C   0  0  0  0  0  0  0  0  0  0  0  0
    6.5740   -0.8620   22.9490 C   0  0  0  0  0  0  0  0  0  0  0  0
    5.4180    1.1830   23.3110 C   0  0  0  0  0  0  0  0  0  0  0  0
    6.4260    0.5120   21.0880 C   0  0  0  0  0  0  0  0  0  0  0  0
    9.3350   -2.9370   24.6070 C   0  0  0  0  0  0  0  0  0  0  0  0
    5.4770    1.3210   20.4490 C   0  0  0  0  0  0  0  0  0  0  0  0
    7.2620   -0.3040   20.3160 C   0  0  0  0  0  0  0  0  0  0  0  0
    5.3530    1.3260   19.0620 C   0  0  0  0  0  0  0  0  0  0  0  0
    7.1220   -0.2920   18.8100 C   0  0  0  0  0  0  0  0  0  0  0  0
    6.1630    0.5340   18.2460 C   0  0  0  0  0  0  0  0  0  0  0  0
    5.9920    0.5870   16.9100 O   0  0  0  0  0  0  0  0  0  0  0  0
  2  1  1  1
  2  3  1  0
  2  4  1  0
  3  5  1  0
  4  6  1  0
  5  7  2  0
  5  8  1  0
  6  9  2  0
  6 10  1  0
  7 11  1  0
  8 12  2  0
 10 13  1  0
 10 14  1  0
 10 15  1  0
 11 16  2  0
 12 16  1  0
 15 17  2  0
 15 18  1  0
 17 19  1  0
 18 20  2  0
 19 21  2  0
 20 21  1  0
 21 22  1  0
M  END
>  <Name>  (146) 
x0967-0A-x1077-0A_2395

>  <original SMILES>  (146) 
CC(Cc1ccccn1)NC(=O)C(C)(C)c1ccc(O)cc1

>  <synthon>  (146) 
[Xe]c1ccccn1

>  <ref_pdb>  (146) 
p/x0967-0A-x1077-0A-2395.holo_minimised.pdb

>  <ref_mols>  (146) 
x0967_0A,x1077_0A

>  <IFP_score>  (146) 
0.7453559924999299

>  <SuCOS_score>  (146) 
0.5783258956953453

>  <AttchPnts_score>  (146) 
2

>  <Docking_score>  (146) 
-6.02573442

>  <LE_score>  (146) 
-0.2738970190909091

>  <EnergyRatio_score>  (146) 
4.035991200977461

>  <cmpd_id>  (146) 
['ENAMINE:Z2500729816']

$$$$

     RDKit          3D

 19 20  0  0  0  0  0  0  0  0999 V2000
    7.8720    1.1560   24.3440 O   0  0  0  0  0  0  0  0  0  0  0  0
    7.6120    1.1480   23.1580 C   0  0  0  0  0  0  0  0  0  0  0  0
    6.3720    0.4070   22.6440 C   0  0  0  0  0  0  0  0  0  0  0  0
    8.4090    1.7770   22.2540 N   0  0  0  0  0  0  0  0  0  0  0  0
    6.2580    0.4780   21.1190 C   0  0  0  0  0  0  0  0  0  0  0  0
    9.8190    1.4140   22.2900 C   0  0  0  0  0  0  0  0  0  0  0  0
    5.3510    1.3590   20.5460 C   0  0  0  0  0  0  0  0  0  0  0  0
    7.0410   -0.3290   20.2910 C   0  0  0  0  0  0  0  0  0  0  0  0
   10.0530    0.0690   21.9600 C   0  0  0  0  0  0  0  0  0  0  0  0
    5.2250    1.4300   19.1660 C   0  0  0  0  0  0  0  0  0  0  0  0
    6.9100   -0.2530   18.9130 C   0  0  0  0  0  0  0  0  0  0  0  0
    9.8330   -0.8820   22.9580 C   0  0  0  0  0  0  0  0  0  0  0  0
    6.0040    0.6230   18.3520 C   0  0  0  0  0  0  0  0  0  0  0  0
    9.3230   -0.5490   24.2080 C   0  0  0  0  0  0  0  0  0  0  0  0
   10.1630   -2.1390   22.6020 N   0  0  0  0  0  0  0  0  0  0  0  0
    5.8390    0.7310   17.0180 O   0  0  0  0  0  0  0  0  0  0  0  0
    9.1370   -1.5720   25.1360 C   0  0  0  0  0  0  0  0  0  0  0  0
    9.9720   -3.1040   23.5200 C   0  0  0  0  0  0  0  0  0  0  0  0
    9.4700   -2.8740   24.7800 C   0  0  0  0  0  0  0  0  0  0  0  0
  1  2  2  0
  2  3  1  0
  2  4  1  0
  3  5  1  0
  4  6  1  0
  5  7  2  0
  5  8  1  0
  6  9  1  0
  7 10  1  0
  8 11  2  0
  9 12  1  0
 10 13  2  0
 11 13  1  0
 12 14  2  0
 12 15  1  0
 13 16  1  0
 14 17  1  0
 15 18  2  0
 17 19  2  0
 18 19  1  0
M  END
>  <Name>  (147) 
x0967-0A-x1077-0A_2183

>  <original SMILES>  (147) 
O=C(Cc1ccc(O)cc1)NCCc1ccccn1

>  <synthon>  (147) 
[Xe]c1ccccn1

>  <ref_pdb>  (147) 
p/x0967-0A-x1077-0A-2183.holo_minimised.pdb

>  <ref_mols>  (147) 
x0967_0A,x1077_0A

>  <IFP_score>  (147) 
0.816496580927726

>  <SuCOS_score>  (147) 
0.5639630583400268

>  <AttchPnts_score>  (147) 
2

>  <Docking_score>  (147) 
-5.8214221

>  <LE_score>  (147) 
-0.30639063684210527

>  <EnergyRatio_score>  (147) 
3.816303242949465

>  <cmpd_id>  (147) 
['ENAMINE:Z135587038']

$$$$

     RDKit          3D

 18 19  0  0  0  0  0  0  0  0999 V2000
   10.7750    1.7410   22.5880 C   0  0  0  0  0  0  0  0  0  0  0  0
    9.6010    0.8770   22.1210 C   0  0  2  0  0  0  0  0  0  0  0  0
    8.3350    1.6500   22.1850 N   0  0  0  0  0  0  0  0  0  0  0  0
    9.5560   -0.4160   22.9280 C   0  0  0  0  0  0  0  0  0  0  0  0
    7.4270    0.9870   23.0960 C   0  0  0  0  0  0  0  0  0  0  0  0
    9.0950   -0.4530   24.2410 C   0  0  0  0  0  0  0  0  0  0  0  0
    9.9910   -1.5300   22.2910 N   0  0  0  0  0  0  0  0  0  0  0  0
    6.3410    0.3980   22.4240 C   0  0  0  0  0  0  0  0  0  0  0  0
    9.0710   -1.6510   24.9210 C   0  0  0  0  0  0  0  0  0  0  0  0
    9.9650   -2.6980   22.9640 C   0  0  0  0  0  0  0  0  0  0  0  0
    6.2490    0.4530   21.0300 C   0  0  0  0  0  0  0  0  0  0  0  0
    9.5120   -2.7990   24.2830 C   0  0  0  0  0  0  0  0  0  0  0  0
    7.0680   -0.3350   20.2140 C   0  0  0  0  0  0  0  0  0  0  0  0
    5.3110    1.3150   20.4410 C   0  0  0  0  0  0  0  0  0  0  0  0
    6.9500   -0.2650   18.8290 C   0  0  0  0  0  0  0  0  0  0  0  0
    5.1920    1.3850   19.0570 C   0  0  0  0  0  0  0  0  0  0  0  0
    6.0130    0.5920   18.2620 C   0  0  0  0  0  0  0  0  0  0  0  0
    5.9120    0.6410   16.9160 O   0  0  0  0  0  0  0  0  0  0  0  0
  2  1  1  1
  2  3  1  0
  2  4  1  0
  3  5  1  0
  4  6  2  0
  4  7  1  0
  5  8  1  0
  6  9  1  0
  7 10  2  0
  8 11  1  0
  9 12  2  0
 10 12  1  0
 11 13  2  0
 11 14  1  0
 13 15  1  0
 14 16  2  0
 15 17  2  0
 16 17  1  0
 17 18  1  0
M  END
>  <Name>  (148) 
x0967-0A-x1077-0A_1676

>  <original SMILES>  (148) 
CC(NCCc1ccc(O)cc1)c1ccccn1

>  <synthon>  (148) 
[Xe]c1ccccn1

>  <ref_pdb>  (148) 
p/x0967-0A-x1077-0A-1676.holo_minimised.pdb

>  <ref_mols>  (148) 
x0967_0A,x1077_0A

>  <IFP_score>  (148) 
0.6324555320336759

>  <SuCOS_score>  (148) 
0.5694244457899557

>  <AttchPnts_score>  (148) 
1

>  <Docking_score>  (148) 
-5.54632711

>  <LE_score>  (148) 
-0.3081292838888889

>  <EnergyRatio_score>  (148) 
2.9895635885115124

>  <cmpd_id>  (148) 
['ENAMINE:Z1555987801', 'CHEMSPACE-BB:CSMB00000844974']

$$$$

     RDKit          3D

 23 24  0  0  0  0  0  0  0  0999 V2000
    7.9010    1.0750   25.8950 C   0  0  0  0  0  0  0  0  0  0  0  0
    8.2480   -0.1950   26.6850 C   0  0  0  0  0  0  0  0  0  0  0  0
    9.4290   -0.1330   27.4130 C   0  0  0  0  0  0  0  0  0  0  0  0
    8.2650   -1.4430   26.0980 C   0  0  0  0  0  0  0  0  0  0  0  0
    7.1570   -0.4360   27.6010 O   0  0  0  0  0  0  0  0  0  0  0  0
    9.3060   -1.5920   25.2410 N   0  0  0  0  0  0  0  0  0  0  0  0
    6.7520    0.5850   28.3900 C   0  0  0  0  0  0  0  0  0  0  0  0
    9.0840   -1.7440   23.6370 S   0  0  0  0  0  0  0  0  0  0  0  0
    7.4540    1.7850   28.4690 C   0  0  0  0  0  0  0  0  0  0  0  0
    5.5940    0.4440   29.1610 C   0  0  0  0  0  0  0  0  0  0  0  0
    9.1090   -3.1530   23.2990 O   0  0  0  0  0  0  0  0  0  0  0  0
    8.0430   -0.8270   23.2420 O   0  0  0  0  0  0  0  0  0  0  0  0
   10.6110   -1.0090   23.3340 C   0  0  0  0  0  0  0  0  0  0  0  0
    7.0500    2.8450   29.2760 C   0  0  0  0  0  0  0  0  0  0  0  0
    5.1680    1.4880   29.9800 C   0  0  0  0  0  0  0  0  0  0  0  0
   11.0390    0.0620   24.0960 C   0  0  0  0  0  0  0  0  0  0  0  0
   11.4220   -1.4860   22.3520 C   0  0  0  0  0  0  0  0  0  0  0  0
    5.8980    2.6700   30.0280 C   0  0  0  0  0  0  0  0  0  0  0  0
   12.2770    0.6990   23.9020 N   0  0  0  0  0  0  0  0  0  0  0  0
   12.6400   -0.8680   22.1730 C   0  0  0  0  0  0  0  0  0  0  0  0
   13.1760    0.2290   22.8770 C   0  0  0  0  0  0  0  0  0  0  0  0
   13.5960   -1.3250   21.1630 C   0  0  0  0  0  0  0  0  0  0  0  0
   14.3040   -1.7210   20.3880 N   0  0  0  0  0  0  0  0  0  0  0  0
  1  2  1  0
  2  3  1  0
  2  4  1  0
  2  5  1  0
  4  6  1  0
  5  7  1  0
  8  6  1  0
  7  9  2  0
  7 10  1  0
  8 11  2  0
  8 12  2  0
  8 13  1  0
  9 14  1  0
 10 15  2  0
 13 16  2  0
 13 17  1  0
 14 18  2  0
 15 18  1  0
 16 19  1  0
 17 20  2  0
 19 21  2  0
 20 21  1  0
 20 22  1  0
 22 23  3  0
M  END
>  <Name>  (149) 
x0305-0A-x0354-0A_1413

>  <original SMILES>  (149) 
CC(C)(CNS(=O)(=O)c1cncc(C#N)c1)Oc1ccccc1

>  <synthon>  (149) 
[Xe]c1ccccc1

>  <ref_pdb>  (149) 
p/x0305-0A-x0354-0A-1413.holo_minimised.pdb

>  <ref_mols>  (149) 
x0305_0A,x0354_0A

>  <IFP_score>  (149) 
0.816496580927726

>  <SuCOS_score>  (149) 
0.6395372949940833

>  <AttchPnts_score>  (149) 
1

>  <Docking_score>  (149) 
-4.09475851

>  <LE_score>  (149) 
-0.17803297869565218

>  <EnergyRatio_score>  (149) 
4.554184149134261

>  <cmpd_id>  (149) 
['ENAMINE:Z2169815424']

$$$$

     RDKit          3D

 20 21  0  0  0  0  0  0  0  0999 V2000
    4.8960   -1.5850   27.7660 C   0  0  0  0  0  0  0  0  0  0  0  0
    6.0340   -0.6710   27.6690 N   0  0  0  0  0  0  0  0  0  0  0  0
    6.7370   -0.6490   26.4050 C   0  0  0  0  0  0  0  0  0  0  0  0
    6.0950    0.4480   28.4710 C   0  0  0  0  0  0  0  0  0  0  0  0
    8.1950   -0.2350   26.6330 C   0  0  0  0  0  0  0  0  0  0  0  0
    7.1670    1.5130   28.3550 C   0  0  0  0  0  0  0  0  0  0  0  0
    5.1290    0.6340   29.4470 C   0  0  0  0  0  0  0  0  0  0  0  0
    9.0600   -0.7020   25.6820 C   0  0  0  0  0  0  0  0  0  0  0  0
    7.1090    2.6840   29.2800 C   0  0  0  0  0  0  0  0  0  0  0  0
    5.1270    1.7520   30.2870 C   0  0  0  0  0  0  0  0  0  0  0  0
   10.1510    0.2380   25.4390 N   0  0  0  0  0  0  0  0  0  0  0  0
    6.0910    2.7570   30.2080 C   0  0  0  0  0  0  0  0  0  0  0  0
   10.9760   -0.1190   24.4250 C   0  0  0  0  0  0  0  0  0  0  0  0
   10.6850   -1.4390   23.7690 C   0  0  0  0  0  0  0  0  0  0  0  0
   12.0020    0.6530   24.0210 N   0  0  0  0  0  0  0  0  0  0  0  0
   11.5170   -1.8520   22.7300 C   0  0  0  0  0  0  0  0  0  0  0  0
   12.7800    0.1870   23.0030 C   0  0  0  0  0  0  0  0  0  0  0  0
   12.5780   -1.0370   22.3470 C   0  0  0  0  0  0  0  0  0  0  0  0
   13.4140   -1.4570   21.3380 C   0  0  0  0  0  0  0  0  0  0  0  0
   14.1270   -1.8310   20.5270 N   0  0  0  0  0  0  0  0  0  0  0  0
  1  2  1  0
  2  3  1  0
  2  4  1  0
  3  5  1  0
  4  6  2  0
  4  7  1  0
  5  8  1  0
  6  9  1  0
  7 10  2  0
  8 11  1  0
  9 12  2  0
 10 12  1  0
 11 13  1  0
 13 14  2  0
 13 15  1  0
 14 16  1  0
 15 17  2  0
 16 18  2  0
 17 18  1  0
 18 19  1  0
 19 20  3  0
M  END
>  <Name>  (150) 
x0305-0A-x0354-0A_315

>  <original SMILES>  (150) 
CN(CCCNc1ccc(C#N)cn1)c1ccccc1

>  <synthon>  (150) 
[Xe]c1ccccc1

>  <ref_pdb>  (150) 
p/x0305-0A-x0354-0A-315.holo_minimised.pdb

>  <ref_mols>  (150) 
x0305_0A,x0354_0A

>  <IFP_score>  (150) 
0.7071067811865476

>  <SuCOS_score>  (150) 
0.6453255385450003

>  <AttchPnts_score>  (150) 
1

>  <Docking_score>  (150) 
-3.67726874

>  <LE_score>  (150) 
-0.18386343700000002

>  <EnergyRatio_score>  (150) 
2.971792148043834

>  <cmpd_id>  (150) 
['MOLPORT:004-335-964']

$$$$

     RDKit          3D

 25 27  0  0  0  0  0  0  0  0999 V2000
    5.9920    5.0970   29.9590 O   0  0  0  0  0  0  0  0  0  0  0  0
    6.3750    4.2920   29.1130 C   0  0  0  0  0  0  0  0  0  0  0  0
    6.2660    2.7810   29.0880 C   0  0  0  0  0  0  0  0  0  0  0  0
    7.0840    4.6160   27.8220 C   0  0  0  0  0  0  0  0  0  0  0  0
    7.4430    2.3090   28.2720 C   0  0  0  0  0  0  0  0  0  0  0  0
    5.3690    1.8420   29.5980 C   0  0  0  0  0  0  0  0  0  0  0  0
    6.6460    3.9110   26.6880 C   0  0  0  0  0  0  0  0  0  0  0  0
    8.1450    5.5270   27.7070 C   0  0  0  0  0  0  0  0  0  0  0  0
    7.6150    0.9760   28.0190 C   0  0  0  0  0  0  0  0  0  0  0  0
    5.5970    0.4850   29.3030 C   0  0  0  0  0  0  0  0  0  0  0  0
    7.2990    4.0770   25.3070 C   0  0  0  0  0  0  0  0  0  0  0  0
    8.8100    5.7440   26.4670 C   0  0  0  0  0  0  0  0  0  0  0  0
    6.7050    0.0760   28.5170 C   0  0  0  0  0  0  0  0  0  0  0  0
    8.4420    5.0590   25.2870 C   0  0  0  0  0  0  0  0  0  0  0  0
    9.1600    5.2690   24.0020 N   0  0  0  0  0  0  0  0  0  0  0  0
   10.8490    5.2650   24.1270 S   0  0  0  0  0  0  0  0  0  0  0  0
   11.1510    5.5380   25.5080 O   0  0  0  0  0  0  0  0  0  0  0  0
   11.3680    6.1300   23.1080 O   0  0  0  0  0  0  0  0  0  0  0  0
   11.4240    3.6050   23.7980 C   0  0  0  0  0  0  0  0  0  0  0  0
   12.7300    3.3920   23.0880 C   0  0  0  0  0  0  0  0  0  0  0  0
   10.7030    2.4650   24.1900 C   0  0  0  0  0  0  0  0  0  0  0  0
   13.1810    2.0880   22.8510 C   0  0  0  0  0  0  0  0  0  0  0  0
   11.2080    1.1810   23.9220 C   0  0  0  0  0  0  0  0  0  0  0  0
   12.4250    0.9980   23.2660 C   0  0  0  0  0  0  0  0  0  0  0  0
   13.0550   -0.7570   22.9420 Br  0  0  0  0  0  0  0  0  0  0  0  0
  1  2  2  0
  2  3  1  0
  2  4  1  0
  3  5  2  0
  3  6  1  0
  4  7  2  0
  4  8  1  0
  5  9  1  0
  6 10  2  0
  7 11  1  0
  8 12  2  0
  9 13  2  0
 10 13  1  0
 11 14  2  0
 12 14  1  0
 14 15  1  0
 16 15  1  0
 16 17  2  0
 16 18  2  0
 16 19  1  0
 19 20  2  0
 19 21  1  0
 20 22  1  0
 21 23  2  0
 22 24  2  0
 23 24  1  0
 24 25  1  0
M  END
>  <Name>  (151) 
x0946-0A-x0354-0A_6002

>  <original SMILES>  (151) 
O=C(c1ccccc1)c1ccc(NS(=O)(=O)c2ccc(Br)cc2)cc1

>  <synthon>  (151) 
[Xe]c1ccccc1

>  <ref_pdb>  (151) 
p/x0946-0A-x0354-0A-6002.holo_minimised.pdb

>  <ref_mols>  (151) 
x0946_0A,x0354_0A

>  <IFP_score>  (151) 
0.7071067811865476

>  <SuCOS_score>  (151) 
0.5513006403799907

>  <AttchPnts_score>  (151) 
2

>  <Docking_score>  (151) 
-3.94414902

>  <LE_score>  (151) 
-0.1577659608

>  <EnergyRatio_score>  (151) 
4.138528914391092

>  <cmpd_id>  (151) 
['MOLPORT:002-828-845']

$$$$

     RDKit          3D

 22 23  0  0  0  0  0  0  0  0999 V2000
    7.9550    1.0570   26.0460 C   0  0  0  0  0  0  0  0  0  0  0  0
    8.3660   -0.1940   26.5270 C   0  0  2  0  0  0  0  0  0  0  0  0
    8.6190   -1.2050   25.5920 C   0  0  0  0  0  0  0  0  0  0  0  0
    7.4200   -0.6100   27.5480 O   0  0  0  0  0  0  0  0  0  0  0  0
    9.6930   -0.8730   24.6370 N   0  0  0  0  0  0  0  0  0  0  0  0
    6.8960    0.3810   28.3440 C   0  0  0  0  0  0  0  0  0  0  0  0
   10.5790    0.1250   25.2450 C   0  0  0  0  0  0  0  0  0  0  0  0
    5.6780    0.2270   29.1960 C   0  0  0  0  0  0  0  0  0  0  0  0
    7.5410    1.6280   28.3690 C   0  0  0  0  0  0  0  0  0  0  0  0
   11.2730    1.1360   24.4060 C   0  0  0  0  0  0  0  0  0  0  0  0
    5.2190    1.3490   30.0000 C   0  0  0  0  0  0  0  0  0  0  0  0
    7.0640    2.6820   29.1560 C   0  0  0  0  0  0  0  0  0  0  0  0
   12.3770    0.8780   23.5540 C   0  0  0  0  0  0  0  0  0  0  0  0
   10.8220    2.4620   24.4800 C   0  0  0  0  0  0  0  0  0  0  0  0
    5.9290    2.5530   29.9590 C   0  0  0  0  0  0  0  0  0  0  0  0
   12.9800    1.9090   22.8450 C   0  0  0  0  0  0  0  0  0  0  0  0
   11.4290    3.4940   23.7690 C   0  0  0  0  0  0  0  0  0  0  0  0
   12.5140    3.2220   22.9460 C   0  0  0  0  0  0  0  0  0  0  0  0
   10.8110    5.1590   23.9480 S   0  0  0  0  0  0  0  0  0  0  0  0
    9.4590    5.1790   22.9580 N   0  0  0  0  0  0  0  0  0  0  0  0
   11.7570    6.0660   23.3600 O   0  0  0  0  0  0  0  0  0  0  0  0
   10.3740    5.3120   25.3140 O   0  0  0  0  0  0  0  0  0  0  0  0
  2  1  1  6
  2  3  1  0
  2  4  1  0
  3  5  1  0
  4  6  1  0
  5  7  1  0
  6  8  2  0
  6  9  1  0
  7 10  1  0
  8 11  1  0
  9 12  2  0
 10 13  2  0
 10 14  1  0
 11 15  2  0
 12 15  1  0
 13 16  1  0
 14 17  2  0
 16 18  2  0
 17 18  1  0
 17 19  1  0
 19 20  1  0
 19 21  2  0
 19 22  2  0
M  END
>  <Name>  (152) 
x0946-0A-x0354-0A_4222

>  <original SMILES>  (152) 
CC(CNCc1cccc(S(N)(=O)=O)c1)Oc1ccccc1

>  <synthon>  (152) 
[Xe]c1ccccc1

>  <ref_pdb>  (152) 
p/x0946-0A-x0354-0A-4222.holo_minimised.pdb

>  <ref_mols>  (152) 
x0946_0A,x0354_0A

>  <IFP_score>  (152) 
1.0

>  <SuCOS_score>  (152) 
0.6313911791705906

>  <AttchPnts_score>  (152) 
2

>  <Docking_score>  (152) 
-4.15652323

>  <LE_score>  (152) 
-0.18893287409090911

>  <EnergyRatio_score>  (152) 
4.0227110005106095

>  <cmpd_id>  (152) 
['ENAMINE:Z2827043019']

$$$$

     RDKit          3D

 22 23  0  0  0  0  0  0  0  0999 V2000
    9.8250    0.2340   27.3040 C   0  0  0  0  0  0  0  0  0  0  0  0
    8.6130    0.0590   26.4030 C   0  0  2  0  0  0  0  0  0  0  0  0
    7.4820   -0.2850   27.2390 O   0  0  0  0  0  0  0  0  0  0  0  0
    8.8790   -1.0970   25.4010 C   0  0  0  0  0  0  0  0  0  0  0  0
    7.0040    0.6090   28.1690 C   0  0  0  0  0  0  0  0  0  0  0  0
    8.3400   -2.3670   25.7540 O   0  0  0  0  0  0  0  0  0  0  0  0
    9.5740   -0.9750   24.1470 N   0  0  0  0  0  0  0  0  0  0  0  0
    7.7650    1.7780   28.3100 C   0  0  0  0  0  0  0  0  0  0  0  0
    5.8450    0.3960   28.9320 C   0  0  0  0  0  0  0  0  0  0  0  0
    9.6860   -2.1630   23.4200 C   0  0  0  0  0  0  0  0  0  0  0  0
   10.9080   -0.3430   23.8820 C   0  0  2  0  0  0  0  0  0  0  0  0
    7.3610    2.7540   29.2280 C   0  0  0  0  0  0  0  0  0  0  0  0
    5.4520    1.3850   29.8480 C   0  0  0  0  0  0  0  0  0  0  0  0
   11.9190   -0.9760   24.7190 C   0  0  0  0  0  0  0  0  0  0  0  0
   11.3090    1.0990   23.6050 C   0  0  0  0  0  0  0  0  0  0  0  0
    6.2050    2.5580   29.9950 C   0  0  0  0  0  0  0  0  0  0  0  0
   10.5950    2.2730   23.8180 C   0  0  0  0  0  0  0  0  0  0  0  0
   12.5840    1.1780   23.0710 C   0  0  0  0  0  0  0  0  0  0  0  0
   11.1960    3.5070   23.4900 C   0  0  0  0  0  0  0  0  0  0  0  0
   13.1780    2.3810   22.7460 C   0  0  0  0  0  0  0  0  0  0  0  0
   13.5780   -0.4100   22.7620 Br  0  0  0  0  0  0  0  0  0  0  0  0
   12.4840    3.5570   22.9560 C   0  0  0  0  0  0  0  0  0  0  0  0
  2  1  1  1
  2  3  1  0
  2  4  1  0
  3  5  1  0
  4  6  2  0
  4  7  1  0
  5  8  2  0
  5  9  1  0
  7 10  1  0
  7 11  1  0
  8 12  1  0
  9 13  2  0
 11 14  1  1
 11 15  1  0
 12 16  2  0
 13 16  1  0
 15 17  2  0
 15 18  1  0
 17 19  1  0
 18 20  2  0
 18 21  1  0
 19 22  2  0
 20 22  1  0
M  END
>  <Name>  (153) 
x0946-0A-x0354-0A_1042

>  <original SMILES>  (153) 
CC(Oc1ccccc1)C(=O)N(C)C(C)c1ccccc1Br

>  <synthon>  (153) 
[Xe]c1ccccc1

>  <ref_pdb>  (153) 
p/x0946-0A-x0354-0A-1042.holo_minimised.pdb

>  <ref_mols>  (153) 
x0946_0A,x0354_0A

>  <IFP_score>  (153) 
0.5

>  <SuCOS_score>  (153) 
0.5692158657998444

>  <AttchPnts_score>  (153) 
2

>  <Docking_score>  (153) 
-3.97251439

>  <LE_score>  (153) 
-0.18056883590909092

>  <EnergyRatio_score>  (153) 
4.192507550070113

>  <cmpd_id>  (153) 
['ENAMINE:Z342652570']

$$$$

     RDKit          3D

 23 24  0  0  0  0  0  0  0  0999 V2000
   10.0390    0.3400   26.3870 C   0  0  0  0  0  0  0  0  0  0  0  0
   10.6340   -0.0370   25.1810 C   0  0  2  0  0  0  0  0  0  0  0  0
   11.2870    0.9690   24.4150 C   0  0  0  0  0  0  0  0  0  0  0  0
    9.6950   -0.9200   24.4560 N   0  0  0  0  0  0  0  0  0  0  0  0
   12.4060    0.7240   23.5830 C   0  0  0  0  0  0  0  0  0  0  0  0
   10.8080    2.3070   24.5010 C   0  0  0  0  0  0  0  0  0  0  0  0
   10.4270   -1.9540   23.7040 C   0  0  0  0  0  0  0  0  0  0  0  0
    8.6560   -1.4660   25.4060 C   0  0  0  0  0  0  0  0  0  0  0  0
   13.0320    1.8400   22.8610 C   0  0  0  0  0  0  0  0  0  0  0  0
   11.4210    3.3700   23.8050 C   0  0  0  0  0  0  0  0  0  0  0  0
    7.6680   -0.4220   26.0140 C   0  0  0  0  0  0  0  0  0  0  0  0
   12.5220    3.1400   22.9940 C   0  0  0  0  0  0  0  0  0  0  0  0
   10.7970    5.0310   23.9730 S   0  0  0  0  0  0  0  0  0  0  0  0
    7.4350   -0.6470   27.4250 O   0  0  0  0  0  0  0  0  0  0  0  0
    9.4330    5.0260   22.9850 N   0  0  0  0  0  0  0  0  0  0  0  0
   10.2960    5.2020   25.3150 O   0  0  0  0  0  0  0  0  0  0  0  0
   11.7560    5.9460   23.4030 O   0  0  0  0  0  0  0  0  0  0  0  0
    7.0460    0.4390   28.1900 C   0  0  0  0  0  0  0  0  0  0  0  0
    7.6640    1.7620   28.2030 C   0  0  0  0  0  0  0  0  0  0  0  0
    5.9450    0.2240   29.0290 C   0  0  0  0  0  0  0  0  0  0  0  0
    7.1480    2.7630   29.0400 C   0  0  0  0  0  0  0  0  0  0  0  0
    5.4550    1.2480   29.8550 C   0  0  0  0  0  0  0  0  0  0  0  0
    6.0510    2.5090   29.8640 C   0  0  0  0  0  0  0  0  0  0  0  0
  2  1  1  1
  2  3  1  0
  2  4  1  0
  3  5  2  0
  3  6  1  0
  4  7  1  0
  4  8  1  0
  5  9  1  0
  6 10  2  0
  8 11  1  0
  9 12  2  0
 10 12  1  0
 10 13  1  0
 11 14  1  0
 13 15  1  0
 13 16  2  0
 13 17  2  0
 14 18  1  0
 18 19  2  0
 18 20  1  0
 19 21  1  0
 20 22  2  0
 21 23  2  0
 22 23  1  0
M  END
>  <Name>  (154) 
x0946-0A-x0354-0A_65

>  <original SMILES>  (154) 
CC(c1cccc(S(N)(=O)=O)c1)N(C)CCOc1ccccc1

>  <synthon>  (154) 
[Xe]c1ccccc1

>  <ref_pdb>  (154) 
p/x0946-0A-x0354-0A-65.holo_minimised.pdb

>  <ref_mols>  (154) 
x0946_0A,x0354_0A

>  <IFP_score>  (154) 
1.0

>  <SuCOS_score>  (154) 
0.6436108787704311

>  <AttchPnts_score>  (154) 
1

>  <Docking_score>  (154) 
-4.66609144

>  <LE_score>  (154) 
-0.20287354086956522

>  <EnergyRatio_score>  (154) 
2.9606470273498093

>  <cmpd_id>  (154) 
['MOLPORT:020-150-811']

$$$$

     RDKit          3D

 22 23  0  0  0  0  0  0  0  0999 V2000
    9.9810    1.4740   21.4450 N   0  0  0  0  0  0  0  0  0  0  0  0
    9.8820    0.4860   22.0220 C   0  0  0  0  0  0  0  0  0  0  0  0
    9.7180   -0.6570   22.8540 C   0  0  0  0  0  0  0  0  0  0  0  0
    8.9630   -0.5080   23.9990 C   0  0  0  0  0  0  0  0  0  0  0  0
   10.3120   -1.8100   22.4710 N   0  0  0  0  0  0  0  0  0  0  0  0
    8.7800   -1.5810   24.8260 C   0  0  0  0  0  0  0  0  0  0  0  0
   10.1240   -2.8540   23.2970 C   0  0  0  0  0  0  0  0  0  0  0  0
    7.9460   -1.3740   26.0630 C   0  0  0  0  0  0  0  0  0  0  0  0
    9.3770   -2.8010   24.4720 C   0  0  0  0  0  0  0  0  0  0  0  0
    8.0890   -0.0010   26.5320 N   0  0  0  0  0  0  0  0  0  0  0  0
    7.4170    1.0750   25.9640 C   0  0  0  0  0  0  0  0  0  0  0  0
    8.1850    2.3820   26.0790 C   0  0  0  0  0  0  0  0  0  0  0  0
    8.0230    3.1910   24.7880 C   0  0  0  0  0  0  0  0  0  0  0  0
    8.4750    4.6780   24.8550 C   0  0  0  0  0  0  0  0  0  0  0  0
    9.8940    4.8240   25.0240 O   0  0  0  0  0  0  0  0  0  0  0  0
   10.6450    4.8490   23.7970 C   0  0  0  0  0  0  0  0  0  0  0  0
   11.3780    3.5280   23.5820 C   0  0  0  0  0  0  0  0  0  0  0  0
   12.5780    3.4830   22.8650 C   0  0  0  0  0  0  0  0  0  0  0  0
   10.8760    2.3180   24.0920 C   0  0  0  0  0  0  0  0  0  0  0  0
   13.2530    2.2730   22.6590 C   0  0  0  0  0  0  0  0  0  0  0  0
   11.5540    1.1120   23.8830 C   0  0  0  0  0  0  0  0  0  0  0  0
   12.7420    1.0890   23.1610 C   0  0  0  0  0  0  0  0  0  0  0  0
  1  2  3  0
  2  3  1  0
  3  4  2  0
  3  5  1  0
  4  6  1  0
  5  7  2  0
  6  8  1  0
  6  9  2  0
  7  9  1  0
  8 10  1  0
 10 11  1  0
 11 12  1  0
 12 13  1  0
 13 14  1  0
 14 15  1  0
 15 16  1  0
 16 17  1  0
 17 18  2  0
 17 19  1  0
 18 20  1  0
 19 21  2  0
 20 22  2  0
 21 22  1  0
M  END
>  <Name>  (155) 
x1077-0A-x0946-0A_616

>  <original SMILES>  (155) 
N#Cc1cc(CNCCCCOCc2ccccc2)ccn1

>  <synthon>  (155) 
[Xe]c1ccccc1

>  <ref_pdb>  (155) 
p/x1077-0A-x0946-0A-616.holo_minimised.pdb

>  <ref_mols>  (155) 
x1077_0A,x0946_0A

>  <IFP_score>  (155) 
0.6666666666666666

>  <SuCOS_score>  (155) 
0.5876813606242101

>  <AttchPnts_score>  (155) 
1

>  <Docking_score>  (155) 
-4.68078852

>  <LE_score>  (155) 
-0.21276311454545455

>  <EnergyRatio_score>  (155) 
3.2692139146133363

>  <cmpd_id>  (155) 
['CHEMSPACE-BB:CSMB00017691588']

$$$$

     RDKit          3D

 21 22  0  0  0  0  0  0  0  0999 V2000
   10.3290   -5.5950   24.9960 N   0  0  0  0  0  0  0  0  0  0  0  0
    9.0870   -5.4640   25.2370 C   0  0  0  0  0  0  0  0  0  0  0  0
    8.6720   -5.4780   26.5260 N   0  0  0  0  0  0  0  0  0  0  0  0
    8.1030   -5.3020   24.0940 C   0  0  0  0  0  0  0  0  0  0  0  0
    8.2390   -3.8880   23.5130 C   0  0  0  0  0  0  0  0  0  0  0  0
    6.9940   -3.1390   23.9570 C   0  0  0  0  0  0  0  0  0  0  0  0
    5.9640   -3.1190   22.8510 C   0  0  0  0  0  0  0  0  0  0  0  0
    7.2990   -1.6950   24.3950 C   0  0  0  0  0  0  0  0  0  0  0  0
    6.4540   -2.2490   21.7090 C   0  0  0  0  0  0  0  0  0  0  0  0
    6.4310   -0.7090   23.6250 C   0  0  0  0  0  0  0  0  0  0  0  0
    6.6290   -0.8840   22.1870 N   0  0  0  0  0  0  0  0  0  0  0  0
    7.5370   -0.0090   21.6210 C   0  0  0  0  0  0  0  0  0  0  0  0
    7.3200    0.6170   20.5870 O   0  0  0  0  0  0  0  0  0  0  0  0
    8.8070    0.1020   22.3930 N   0  0  0  0  0  0  0  0  0  0  0  0
    9.5300   -1.1750   22.3880 C   0  0  0  0  0  0  0  0  0  0  0  0
   10.8540   -0.9910   22.7860 C   0  0  0  0  0  0  0  0  0  0  0  0
   11.1820    0.0770   23.6270 C   0  0  0  0  0  0  0  0  0  0  0  0
   11.8530   -1.8750   22.3430 C   0  0  0  0  0  0  0  0  0  0  0  0
   12.4910    0.2660   24.0280 C   0  0  0  0  0  0  0  0  0  0  0  0
   13.1850   -1.7220   22.7230 C   0  0  0  0  0  0  0  0  0  0  0  0
   13.5450   -0.6790   23.5560 C   0  0  0  0  0  0  0  0  0  0  0  0
  1  2  2  3
  2  3  1  0
  2  4  1  0
  4  5  1  0
  5  6  1  0
  6  7  1  0
  6  8  1  0
  7  9  1  0
  8 10  1  0
  9 11  1  0
 10 11  1  0
 11 12  1  0
 12 13  2  0
 12 14  1  0
 14 15  1  0
 15 16  1  0
 16 17  2  0
 16 18  1  0
 17 19  1  0
 18 20  2  0
 19 21  2  0
 20 21  1  0
M  END
>  <Name>  (156) 
x0991-0A-x0072-0A_160

>  <original SMILES>  (156) 
N=C(N)CCC1CCN(C(=O)NCc2ccccc2)CC1

>  <synthon>  (156) 
[Xe]c1ccccc1

>  <ref_pdb>  (156) 
p/x0991-0A-x0072-0A-160.holo_minimised.pdb

>  <ref_mols>  (156) 
x0991_0A,x0072_0A

>  <IFP_score>  (156) 
0.6123724356957945

>  <SuCOS_score>  (156) 
0.6750649583686957

>  <AttchPnts_score>  (156) 
3

>  <Docking_score>  (156) 
-5.92511559

>  <LE_score>  (156) 
-0.2821483614285714

>  <EnergyRatio_score>  (156) 
2.8865453753414796

>  <cmpd_id>  (156) 
['CHEMSPACE-BB:CSMB00016963707']

$$$$

     RDKit          3D

 22 24  0  0  0  0  0  0  0  0999 V2000
    8.6980    0.1770   23.0510 C   0  0  0  0  0  0  0  0  0  0  0  0
    9.2690   -1.1360   23.5480 C   0  0  1  0  0  0  0  0  0  0  0  0
    9.1680   -2.3600   22.6620 C   0  0  0  0  0  0  0  0  0  0  0  0
   10.7640   -0.9740   23.7130 C   0  0  0  0  0  0  0  0  0  0  0  0
    9.9680   -1.9970   21.5860 C   0  0  0  0  0  0  0  0  0  0  0  0
   11.3660    0.2960   24.2000 C   0  0  0  0  0  0  0  0  0  0  0  0
   11.6290   -2.0470   23.4170 C   0  0  0  0  0  0  0  0  0  0  0  0
   11.1210   -2.3320   21.4630 O   0  0  0  0  0  0  0  0  0  0  0  0
    9.2640   -1.1900   20.7520 O   0  0  0  0  0  0  0  0  0  0  0  0
   12.7370    0.3550   24.3440 C   0  0  0  0  0  0  0  0  0  0  0  0
   12.9990   -1.9280   23.5820 C   0  0  0  0  0  0  0  0  0  0  0  0
    7.8730   -1.1750   21.0220 C   0  0  0  0  0  0  0  0  0  0  0  0
   13.5390   -0.7410   24.0450 C   0  0  0  0  0  0  0  0  0  0  0  0
    7.2290   -0.4180   20.0800 C   0  0  0  0  0  0  0  0  0  0  0  0
    7.6440   -0.2750   18.7630 C   0  0  0  0  0  0  0  0  0  0  0  0
    6.0470    0.3470   20.2340 C   0  0  0  0  0  0  0  0  0  0  0  0
    6.7680    0.5410   18.1020 N   0  0  0  0  0  0  0  0  0  0  0  0
    5.8080    0.9160   18.9760 C   0  0  0  0  0  0  0  0  0  0  0  0
    5.0910    0.6290   21.4050 C   0  0  0  0  0  0  0  0  0  0  0  0
    4.7320    1.7180   18.7800 N   0  0  0  0  0  0  0  0  0  0  0  0
    4.0510    1.4460   21.0880 C   0  0  0  0  0  0  0  0  0  0  0  0
    3.9190    1.9400   19.8270 C   0  0  0  0  0  0  0  0  0  0  0  0
  2  1  1  6
  2  3  1  0
  2  4  1  0
  3  5  1  0
  4  6  2  0
  4  7  1  0
  5  8  2  0
  5  9  1  0
  6 10  1  0
  7 11  2  0
  9 12  1  0
 10 13  2  0
 11 13  1  0
 12 14  1  0
 14 15  2  0
 14 16  1  0
 15 17  1  0
 16 18  2  0
 17 18  1  0
 16 19  1  0
 18 20  1  0
 19 21  2  0
 20 22  2  0
 21 22  1  0
M  END
>  <Name>  (157) 
x0072-0A-x1093-0A_2157

>  <original SMILES>  (157) 
CC(CC(=O)OCc1c[nH]c2ncccc12)c1ccccc1

>  <synthon>  (157) 
[Xe]c1c[nH]c2ncccc12

>  <ref_pdb>  (157) 
p/x0072-0A-x1093-0A-2157.holo_minimised.pdb

>  <ref_mols>  (157) 
x0072_0A,x1093_0A

>  <IFP_score>  (157) 
0.5

>  <SuCOS_score>  (157) 
0.5650396529241628

>  <AttchPnts_score>  (157) 
3

>  <Docking_score>  (157) 
-4.15890646

>  <LE_score>  (157) 
-0.18904120272727273

>  <EnergyRatio_score>  (157) 
4.461590897500134

>  <cmpd_id>  (157) 
['ENAMINE:PV-003548121404']

$$$$

     RDKit          3D

 22 23  0  0  0  0  0  0  0  0999 V2000
    5.6880    0.7150   23.2860 O   0  0  0  0  0  0  0  0  0  0  0  0
    6.6620    0.9490   22.5870 C   0  0  0  0  0  0  0  0  0  0  0  0
    7.9530    1.3760   23.1820 N   0  0  0  0  0  0  0  0  0  0  0  0
    6.5230    0.7970   21.1020 C   0  0  0  0  0  0  0  0  0  0  0  0
    8.7140    2.5460   22.8510 C   0  0  0  0  0  0  0  0  0  0  0  0
    7.3270   -0.0470   20.3240 C   0  0  0  0  0  0  0  0  0  0  0  0
    5.5160    1.5570   20.4930 C   0  0  0  0  0  0  0  0  0  0  0  0
    8.0430    3.9270   22.9180 C   0  0  0  0  0  0  0  0  0  0  0  0
    7.1260   -0.1170   18.9380 C   0  0  0  0  0  0  0  0  0  0  0  0
    5.3140    1.4890   19.1170 C   0  0  0  0  0  0  0  0  0  0  0  0
    9.0030    5.1730   23.1040 C   0  0  0  0  0  0  0  0  0  0  0  0
    6.1200    0.6590   18.3500 C   0  0  0  0  0  0  0  0  0  0  0  0
   10.3110    4.9930   24.1300 S   0  0  0  0  0  0  0  0  0  0  0  0
    5.9520    0.5890   17.0110 O   0  0  0  0  0  0  0  0  0  0  0  0
    9.6900    4.9280   25.4180 O   0  0  0  0  0  0  0  0  0  0  0  0
   11.2940    6.0260   23.9370 O   0  0  0  0  0  0  0  0  0  0  0  0
   11.1800    3.4800   23.7560 C   0  0  0  0  0  0  0  0  0  0  0  0
   12.3900    3.5160   23.0650 C   0  0  0  0  0  0  0  0  0  0  0  0
   10.6790    2.2320   24.1540 C   0  0  0  0  0  0  0  0  0  0  0  0
   13.0730    2.3460   22.7890 C   0  0  0  0  0  0  0  0  0  0  0  0
   11.3760    1.0610   23.8590 C   0  0  0  0  0  0  0  0  0  0  0  0
   12.5840    1.1000   23.1740 C   0  0  0  0  0  0  0  0  0  0  0  0
  1  2  2  0
  2  3  1  0
  2  4  1  0
  3  5  1  0
  4  6  2  0
  4  7  1  0
  5  8  1  0
  6  9  1  0
  7 10  2  0
  8 11  1  0
  9 12  2  0
 10 12  1  0
 13 11  1  0
 12 14  1  0
 13 15  2  0
 13 16  2  0
 13 17  1  0
 17 18  2  0
 17 19  1  0
 18 20  1  0
 19 21  2  0
 20 22  2  0
 21 22  1  0
M  END
>  <Name>  (158) 
x0967-0A-x0946-0A_5497

>  <original SMILES>  (158) 
O=C(NCCCS(=O)(=O)c1ccccc1)c1ccc(O)cc1

>  <synthon>  (158) 
[Xe]c1ccccc1

>  <ref_pdb>  (158) 
p/x0967-0A-x0946-0A-5497.holo_minimised.pdb

>  <ref_mols>  (158) 
x0967_0A,x0946_0A

>  <IFP_score>  (158) 
0.5976143046671968

>  <SuCOS_score>  (158) 
0.5585156420784357

>  <AttchPnts_score>  (158) 
1

>  <Docking_score>  (158) 
-5.99591732

>  <LE_score>  (158) 
-0.2725416963636364

>  <EnergyRatio_score>  (158) 
3.683558868880683

>  <cmpd_id>  (158) 
['ENAMINE:Z1633003369']

$$$$

     RDKit          3D

 24 26  0  0  0  0  0  0  0  0999 V2000
    8.4140    1.8360   20.6310 O   0  0  0  0  0  0  0  0  0  0  0  0
    7.9720    2.3920   21.6110 C   0  0  0  0  0  0  0  0  0  0  0  0
    7.7690    3.7870   21.9460 N   0  0  0  0  0  0  0  0  0  0  0  0
    7.5690    1.7050   22.7530 C   0  0  0  0  0  0  0  0  0  0  0  0
    8.6060    3.9980   22.9850 C   0  0  0  0  0  0  0  0  0  0  0  0
    8.3690    2.5740   24.0490 S   0  0  0  0  0  0  0  0  0  0  0  0
    6.7340    0.6260   22.5950 C   0  0  0  0  0  0  0  0  0  0  0  0
    9.4130    4.9850   23.1150 N   0  0  0  0  0  0  0  0  0  0  0  0
    6.4490    0.5060   21.2140 C   0  0  0  0  0  0  0  0  0  0  0  0
   10.4580    5.0000   24.2860 S   0  0  0  0  0  0  0  0  0  0  0  0
    7.2230   -0.3060   20.3750 C   0  0  0  0  0  0  0  0  0  0  0  0
    5.3880    1.2490   20.6590 C   0  0  0  0  0  0  0  0  0  0  0  0
    9.7410    4.9230   25.5280 O   0  0  0  0  0  0  0  0  0  0  0  0
   11.4370    6.0450   24.1030 O   0  0  0  0  0  0  0  0  0  0  0  0
   11.2600    3.4590   23.9100 C   0  0  0  0  0  0  0  0  0  0  0  0
    6.9480   -0.3600   19.0030 C   0  0  0  0  0  0  0  0  0  0  0  0
    5.1140    1.1930   19.2890 C   0  0  0  0  0  0  0  0  0  0  0  0
   12.5790    3.4650   23.1090 C   0  0  0  0  0  0  0  0  0  0  0  0
   10.7400    2.2370   24.3160 C   0  0  0  0  0  0  0  0  0  0  0  0
    5.9020    0.3910   18.4700 C   0  0  0  0  0  0  0  0  0  0  0  0
   13.1490    2.2090   22.8810 C   0  0  0  0  0  0  0  0  0  0  0  0
   11.3740    1.0390   24.0230 C   0  0  0  0  0  0  0  0  0  0  0  0
    5.6880    0.3170   17.1330 O   0  0  0  0  0  0  0  0  0  0  0  0
   12.5730    1.0220   23.3120 C   0  0  0  0  0  0  0  0  0  0  0  0
  1  2  2  0
  2  3  1  0
  2  4  1  0
  3  5  1  0
  4  6  1  0
  5  6  1  0
  4  7  2  3
  5  8  2  3
  7  9  1  0
 10  8  1  0
  9 11  2  0
  9 12  1  0
 10 13  2  0
 10 14  2  0
 10 15  1  0
 11 16  1  0
 12 17  2  0
 15 18  2  0
 15 19  1  0
 16 20  2  0
 17 20  1  0
 18 21  1  0
 19 22  2  0
 20 23  1  0
 21 24  2  0
 22 24  1  0
M  END
>  <Name>  (159) 
x0967-0A-x0946-0A_2149

>  <original SMILES>  (159) 
O=C1NC(=NS(=O)(=O)c2ccccc2)SC1=Cc1ccc(O)cc1

>  <synthon>  (159) 
[Xe]c1ccccc1

>  <ref_pdb>  (159) 
p/x0967-0A-x0946-0A-2149.holo_minimised.pdb

>  <ref_mols>  (159) 
x0967_0A,x0946_0A

>  <IFP_score>  (159) 
0.9128709291752769

>  <SuCOS_score>  (159) 
0.575259653247571

>  <AttchPnts_score>  (159) 
2

>  <Docking_score>  (159) 
-6.65219831

>  <LE_score>  (159) 
-0.27717492958333334

>  <EnergyRatio_score>  (159) 
4.325375243792171

>  <cmpd_id>  (159) 
['MOLPORT:002-177-814']

$$$$

     RDKit          3D

 21 22  0  0  0  0  0  0  0  0999 V2000
    9.5260    1.4910   20.9800 O   0  0  0  0  0  0  0  0  0  0  0  0
    9.2420    2.1030   21.9680 C   0  0  0  0  0  0  0  0  0  0  0  0
    9.1930    3.4580   22.1010 N   0  0  0  0  0  0  0  0  0  0  0  0
    8.8400    1.4090   23.2210 C   0  0  0  0  0  0  0  0  0  0  0  0
    8.9710    4.1390   23.3590 C   0  0  0  0  0  0  0  0  0  0  0  0
    8.1860    2.0650   24.0150 O   0  0  0  0  0  0  0  0  0  0  0  0
    9.1240    0.0860   23.4610 C   0  0  0  0  0  0  0  0  0  0  0  0
   10.0620    5.1840   23.6090 C   0  0  0  0  0  0  0  0  0  0  0  0
    9.5410   -0.8100   22.3310 C   0  0  0  0  0  0  0  0  0  0  0  0
    9.0180   -0.4420   24.7410 C   0  0  0  0  0  0  0  0  0  0  0  0
   10.9100    4.7500   24.3640 O   0  0  0  0  0  0  0  0  0  0  0  0
    9.7960   -2.1440   22.5960 C   0  0  0  0  0  0  0  0  0  0  0  0
    9.2820   -1.7820   24.9490 C   0  0  0  0  0  0  0  0  0  0  0  0
   11.5620    3.5530   23.9110 C   0  0  0  0  0  0  0  0  0  0  0  0
    9.6600   -2.6170   23.8910 C   0  0  0  0  0  0  0  0  0  0  0  0
   10.9500    2.3940   24.4070 C   0  0  0  0  0  0  0  0  0  0  0  0
   12.6900    3.4050   23.0890 C   0  0  0  0  0  0  0  0  0  0  0  0
   11.4430    1.1190   24.1060 C   0  0  0  0  0  0  0  0  0  0  0  0
   13.1770    2.1200   22.7950 C   0  0  0  0  0  0  0  0  0  0  0  0
   12.5570    0.9860   23.2980 C   0  0  0  0  0  0  0  0  0  0  0  0
   13.2250   -0.7380   22.8950 Br  0  0  0  0  0  0  0  0  0  0  0  0
  1  2  2  0
  2  3  1  0
  2  4  1  0
  3  5  1  0
  4  6  2  0
  4  7  1  0
  5  8  1  0
  7  9  2  0
  7 10  1  0
  8 11  1  0
  9 12  1  0
 10 13  2  0
 11 14  1  0
 12 15  2  0
 13 15  1  0
 14 16  2  0
 14 17  1  0
 16 18  1  0
 17 19  2  0
 18 20  2  0
 19 20  1  0
 20 21  1  0
M  END
>  <Name>  (160) 
x0946-0A-x2193-0A_3315

>  <original SMILES>  (160) 
O=C(NCCOc1ccc(Br)cc1)C(=O)c1ccccc1

>  <synthon>  (160) 
[Xe]c1ccccc1

>  <ref_pdb>  (160) 
p/x0946-0A-x2193-0A-3315.holo_minimised.pdb

>  <ref_mols>  (160) 
x0946_0A,x2193_0A

>  <IFP_score>  (160) 
0.5773502691896257

>  <SuCOS_score>  (160) 
0.564162942680678

>  <AttchPnts_score>  (160) 
4

>  <Docking_score>  (160) 
-4.80290699

>  <LE_score>  (160) 
-0.22870985666666668

>  <EnergyRatio_score>  (160) 
4.835621061079109

>  <cmpd_id>  (160) 
['ENAMINE:Z1941662308']

$$$$

     RDKit          3D

 21 22  0  0  0  0  0  0  0  0999 V2000
    3.5420    5.2180   23.3240 C   0  0  0  0  0  0  0  0  0  0  0  0
    2.9480    4.1480   23.4080 O   0  0  0  0  0  0  0  0  0  0  0  0
    1.9520    4.0920   22.3800 N   0  0  0  0  0  0  0  0  0  0  0  0
    0.8120    5.0210   22.5670 C   0  0  0  0  0  0  0  0  0  0  0  0
    2.4210    3.8400   20.9570 C   0  0  0  0  0  0  0  0  0  0  0  0
    0.1230    5.0190   23.9270 C   0  0  0  0  0  0  0  0  0  0  0  0
    1.8600    4.2990   19.9460 O   0  0  0  0  0  0  0  0  0  0  0  0
    3.5660    3.0180   20.8110 C   0  0  0  0  0  0  0  0  0  0  0  0
   -1.2520    4.8210   23.8240 C   0  0  0  0  0  0  0  0  0  0  0  0
    0.7390    3.9690   24.8460 C   0  0  0  0  0  0  0  0  0  0  0  0
    4.4500    3.0920   21.6600 O   0  0  0  0  0  0  0  0  0  0  0  0
    3.6170    2.1960   19.7240 N   0  0  0  0  0  0  0  0  0  0  0  0
   -1.5780    3.4840   23.7110 C   0  0  0  0  0  0  0  0  0  0  0  0
    0.7470    2.7180   24.2580 C   0  0  0  0  0  0  0  0  0  0  0  0
    4.6550    1.2800   19.4810 C   0  0  0  0  0  0  0  0  0  0  0  0
   -0.3750    2.5800   23.4460 C   0  0  0  0  0  0  0  0  0  0  0  0
    5.2540    1.3280   18.2490 C   0  0  0  0  0  0  0  0  0  0  0  0
    5.1850    0.3010   20.3010 C   0  0  0  0  0  0  0  0  0  0  0  0
    6.2460    0.5550   17.7990 N   0  0  0  0  0  0  0  0  0  0  0  0
    6.1970   -0.5290   19.9290 N   0  0  0  0  0  0  0  0  0  0  0  0
    6.6720   -0.3500   18.6830 C   0  0  0  0  0  0  0  0  0  0  0  0
  1  2  1  0
  2  3  1  0
  3  4  1  0
  3  5  1  0
  4  6  1  0
  5  7  2  0
  5  8  1  0
  6  9  1  0
  6 10  1  0
  8 11  2  0
  8 12  1  0
  9 13  1  0
 10 14  1  0
 12 15  1  0
 13 16  1  0
 14 16  1  0
 15 17  2  0
 15 18  1  0
 17 19  1  0
 18 20  2  0
 19 21  2  0
 20 21  1  0
M  END
>  <Name>  (161) 
x0995-0A-x0540-0A_1782

>  <original SMILES>  (161) 
CON(CC1CCCCC1)C(=O)C(=O)Nc1cncnc1

>  <synthon>  (161) 
[Xe]C1CCCCC1

>  <ref_pdb>  (161) 
p/x0995-0A-x0540-0A-1782.holo_minimised.pdb

>  <ref_mols>  (161) 
x0995_0A,x0540_0A

>  <IFP_score>  (161) 
0.5

>  <SuCOS_score>  (161) 
0.6518092509697465

>  <AttchPnts_score>  (161) 
3

>  <Docking_score>  (161) 
-3.88158298

>  <LE_score>  (161) 
-0.18483728476190478

>  <EnergyRatio_score>  (161) 
4.680749256173113

>  <cmpd_id>  (161) 
['ENAMINE:Z2173825040']

$$$$

     RDKit          3D

 23 24  0  0  0  0  0  0  0  0999 V2000
   13.9000   -2.4500   24.7940 C   0  0  0  0  0  0  0  0  0  0  0  0
   13.4210   -1.1090   24.8640 O   0  0  0  0  0  0  0  0  0  0  0  0
   13.4360   -0.3750   23.7100 C   0  0  0  0  0  0  0  0  0  0  0  0
   14.0480   -0.6770   22.6980 O   0  0  0  0  0  0  0  0  0  0  0  0
   12.6080    0.8890   23.7550 C   0  0  0  0  0  0  0  0  0  0  0  0
   13.0790    2.0120   23.0550 C   0  0  0  0  0  0  0  0  0  0  0  0
   11.4010    0.9850   24.4530 C   0  0  0  0  0  0  0  0  0  0  0  0
   12.3380    3.1840   23.0540 C   0  0  0  0  0  0  0  0  0  0  0  0
   10.6690    2.1710   24.4390 C   0  0  0  0  0  0  0  0  0  0  0  0
   11.1400    3.2830   23.7200 C   0  0  0  0  0  0  0  0  0  0  0  0
   10.4100    4.4680   23.6520 C   0  0  0  0  0  0  0  0  0  0  0  0
    9.1940    4.4180   23.0200 C   0  0  0  0  0  0  0  0  0  0  0  0
    8.6560    3.2080   22.4630 C   0  0  0  0  0  0  0  0  0  0  0  0
    7.5210    3.1500   21.9930 O   0  0  0  0  0  0  0  0  0  0  0  0
    9.5040    2.0790   22.5030 N   0  0  0  0  0  0  0  0  0  0  0  0
    9.3140    0.8620   21.7850 C   0  0  2  0  0  0  0  0  0  0  0  0
    8.2040    0.6840   20.9580 C   0  0  0  0  0  0  0  0  0  0  0  0
    9.3780   -0.4040   22.6450 C   0  0  0  0  0  0  0  0  0  0  0  0
    8.6740   -0.5010   23.8290 C   0  0  0  0  0  0  0  0  0  0  0  0
   10.1460   -1.4320   22.1770 N   0  0  0  0  0  0  0  0  0  0  0  0
    8.7280   -1.6680   24.5770 C   0  0  0  0  0  0  0  0  0  0  0  0
   10.1940   -2.5580   22.9140 C   0  0  0  0  0  0  0  0  0  0  0  0
    9.5080   -2.7200   24.1030 C   0  0  0  0  0  0  0  0  0  0  0  0
  1  2  1  0
  2  3  1  0
  3  4  2  0
  3  5  1  0
  5  6  2  0
  5  7  1  0
  6  8  1  0
  7  9  2  0
  8 10  2  0
  9 10  1  0
 10 11  1  0
 11 12  2  3
 12 13  1  0
 13 14  2  0
 13 15  1  0
 15 16  1  0
 16 17  1  1
 16 18  1  0
 18 19  2  0
 18 20  1  0
 19 21  1  0
 20 22  2  0
 21 23  2  0
 22 23  1  0
M  END
>  <Name>  (162) 
x0161-0A-x1077-0A_1271

>  <original SMILES>  (162) 
COC(=O)c1ccc(C=CC(=O)NC(C)c2ccccn2)cc1

>  <synthon>  (162) 
[Xe]c1ccccn1

>  <ref_pdb>  (162) 
p/x0161-0A-x1077-0A-1271.holo_minimised.pdb

>  <ref_mols>  (162) 
x0161_0A,x1077_0A

>  <IFP_score>  (162) 
0.6324555320336759

>  <SuCOS_score>  (162) 
0.5944628410204185

>  <AttchPnts_score>  (162) 
3

>  <Docking_score>  (162) 
-5.71817064

>  <LE_score>  (162) 
-0.2486161147826087

>  <EnergyRatio_score>  (162) 
3.676778733023321

>  <cmpd_id>  (162) 
['MOLPORT:044-280-168']

$$$$

     RDKit          3D

 26 27  0  0  0  0  0  0  0  0999 V2000
   13.8780   -2.2780   24.7440 C   0  0  0  0  0  0  0  0  0  0  0  0
   13.3890   -0.9320   24.8260 O   0  0  0  0  0  0  0  0  0  0  0  0
   13.4670   -0.2430   23.6440 C   0  0  0  0  0  0  0  0  0  0  0  0
   14.1090   -0.6170   22.6800 O   0  0  0  0  0  0  0  0  0  0  0  0
   12.6340    1.0380   23.6790 C   0  0  0  0  0  0  0  0  0  0  0  0
   11.4710    1.1740   24.4450 C   0  0  0  0  0  0  0  0  0  0  0  0
   13.0630    2.1150   22.8890 C   0  0  0  0  0  0  0  0  0  0  0  0
   10.7320    2.3650   24.4060 C   0  0  0  0  0  0  0  0  0  0  0  0
   12.3250    3.3030   22.8470 C   0  0  0  0  0  0  0  0  0  0  0  0
   11.1440    3.4350   23.5970 C   0  0  0  0  0  0  0  0  0  0  0  0
   10.3630    4.6040   23.5170 C   0  0  1  0  0  0  0  0  0  0  0  0
    9.0550    4.2110   23.3340 N   0  0  0  0  0  0  0  0  0  0  0  0
   10.3600    5.5950   24.6880 C   0  0  0  0  0  0  0  0  0  0  0  0
    8.6910    3.0310   22.5420 C   0  0  0  0  0  0  0  0  0  0  0  0
   11.6040    5.8140   25.1870 F   0  0  0  0  0  0  0  0  0  0  0  0
    9.8870    6.8000   24.2930 F   0  0  0  0  0  0  0  0  0  0  0  0
    9.5550    5.2210   25.7040 F   0  0  0  0  0  0  0  0  0  0  0  0
    7.6410    2.9730   21.9090 O   0  0  0  0  0  0  0  0  0  0  0  0
    9.5850    1.9950   22.5610 N   0  0  0  0  0  0  0  0  0  0  0  0
    9.2830    0.6750   21.9830 C   0  0  0  0  0  0  0  0  0  0  0  0
    9.4280   -0.4670   22.7890 C   0  0  0  0  0  0  0  0  0  0  0  0
    8.9360   -0.4100   24.1720 C   0  0  0  0  0  0  0  0  0  0  0  0
    9.9930   -1.5940   22.3180 N   0  0  0  0  0  0  0  0  0  0  0  0
    9.0560   -1.5320   24.9950 C   0  0  0  0  0  0  0  0  0  0  0  0
   10.0910   -2.6600   23.1510 C   0  0  0  0  0  0  0  0  0  0  0  0
    9.6450   -2.6830   24.4760 C   0  0  0  0  0  0  0  0  0  0  0  0
  1  2  1  0
  2  3  1  0
  3  4  2  0
  3  5  1  0
  5  6  2  0
  5  7  1  0
  6  8  1  0
  7  9  2  0
  8 10  2  0
  9 10  1  0
 10 11  1  0
 11 12  1  1
 11 13  1  0
 12 14  1  0
 13 15  1  0
 13 16  1  0
 13 17  1  0
 14 18  2  0
 14 19  1  0
 19 20  1  0
 20 21  1  0
 21 22  2  0
 21 23  1  0
 22 24  1  0
 23 25  2  0
 24 26  2  0
 25 26  1  0
M  END
>  <Name>  (163) 
x0161-0A-x1077-0A_1239

>  <original SMILES>  (163) 
COC(=O)c1ccc(C(NC(=O)NCc2ccccn2)C(F)(F)F)cc1

>  <synthon>  (163) 
[Xe]c1ccccn1

>  <ref_pdb>  (163) 
p/x0161-0A-x1077-0A-1239.holo_minimised.pdb

>  <ref_mols>  (163) 
x0161_0A,x1077_0A

>  <IFP_score>  (163) 
0.6324555320336759

>  <SuCOS_score>  (163) 
0.6366342287396649

>  <AttchPnts_score>  (163) 
6

>  <Docking_score>  (163) 
-6.40389061

>  <LE_score>  (163) 
-0.24630348500000002

>  <EnergyRatio_score>  (163) 
4.827949434093414

>  <cmpd_id>  (163) 
['ENAMINE:Z1728425024']

$$$$

     RDKit          3D

 22 23  0  0  0  0  0  0  0  0999 V2000
   13.9470   -2.4780   24.6640 C   0  0  0  0  0  0  0  0  0  0  0  0
   13.4520   -1.1460   24.8090 O   0  0  0  0  0  0  0  0  0  0  0  0
   13.4280   -0.4050   23.6690 C   0  0  0  0  0  0  0  0  0  0  0  0
   14.0090   -0.6490   22.6270 O   0  0  0  0  0  0  0  0  0  0  0  0
   12.5370    0.8310   23.8650 C   0  0  0  0  0  0  0  0  0  0  0  0
   12.9720    2.0950   23.1390 C   0  0  0  0  0  0  0  0  0  0  0  0
   11.3860    0.8550   24.6500 C   0  0  0  0  0  0  0  0  0  0  0  0
   12.1770    3.2190   23.3020 C   0  0  0  0  0  0  0  0  0  0  0  0
   10.6360    2.0310   24.7650 C   0  0  0  0  0  0  0  0  0  0  0  0
   11.0190    3.2030   24.0980 C   0  0  0  0  0  0  0  0  0  0  0  0
   10.2500    4.3510   24.1950 C   0  0  0  0  0  0  0  0  0  0  0  0
    9.8730    4.5370   22.9250 C   0  0  0  0  0  0  0  0  0  0  0  0
    9.1840    3.3830   22.4010 C   0  0  0  0  0  0  0  0  0  0  0  0
    7.9980    3.4410   22.0790 O   0  0  0  0  0  0  0  0  0  0  0  0
    9.9630    2.0740   22.2740 N   0  0  0  0  0  0  0  0  0  0  0  0
    9.0640    0.9450   21.9100 C   0  0  0  0  0  0  0  0  0  0  0  0
    9.3060   -0.2790   22.5880 C   0  0  0  0  0  0  0  0  0  0  0  0
    8.6490   -0.4350   23.8030 C   0  0  0  0  0  0  0  0  0  0  0  0
   10.1070   -1.2760   22.1070 N   0  0  0  0  0  0  0  0  0  0  0  0
    8.7980   -1.6180   24.5370 C   0  0  0  0  0  0  0  0  0  0  0  0
   10.2420   -2.4150   22.8360 C   0  0  0  0  0  0  0  0  0  0  0  0
    9.6080   -2.6340   24.0520 C   0  0  0  0  0  0  0  0  0  0  0  0
  1  2  1  0
  2  3  1  0
  3  4  2  0
  3  5  1  0
  5  6  2  0
  5  7  1  0
  6  8  1  0
  7  9  2  0
  8 10  2  0
  9 10  1  0
 10 11  1  0
 11 12  1  0
 12 13  1  0
 13 14  2  0
 13 15  1  0
 15 16  1  0
 16 17  1  0
 17 18  2  0
 17 19  1  0
 18 20  1  0
 19 21  2  0
 20 22  2  0
 21 22  1  0
M  END
>  <Name>  (164) 
x0161-0A-x1077-0A_1108

>  <original SMILES>  (164) 
COC(=O)c1ccc(CCC(=O)NCc2ccccn2)cc1

>  <synthon>  (164) 
[Xe]c1ccccn1

>  <ref_pdb>  (164) 
p/x0161-0A-x1077-0A-1108.holo_minimised.pdb

>  <ref_mols>  (164) 
x0161_0A,x1077_0A

>  <IFP_score>  (164) 
0.6324555320336759

>  <SuCOS_score>  (164) 
0.5637472956201455

>  <AttchPnts_score>  (164) 
3

>  <Docking_score>  (164) 
-4.83682537

>  <LE_score>  (164) 
-0.21985569863636362

>  <EnergyRatio_score>  (164) 
4.882593721216155

>  <cmpd_id>  (164) 
['ENAMINE:Z1167120515']

$$$$

     RDKit          3D

 23 24  0  0  0  0  0  0  0  0999 V2000
   13.7840   -2.2540   24.5910 C   0  0  0  0  0  0  0  0  0  0  0  0
   13.2270   -0.9360   24.6840 O   0  0  0  0  0  0  0  0  0  0  0  0
   13.3110   -0.1980   23.5410 C   0  0  0  0  0  0  0  0  0  0  0  0
   13.9190   -0.5230   22.5330 O   0  0  0  0  0  0  0  0  0  0  0  0
   12.6150    1.0160   23.6500 C   0  0  0  0  0  0  0  0  0  0  0  0
   13.0860    2.1610   23.0040 C   0  0  0  0  0  0  0  0  0  0  0  0
   11.4390    1.0790   24.4180 C   0  0  0  0  0  0  0  0  0  0  0  0
   12.4070    3.3840   23.1050 C   0  0  0  0  0  0  0  0  0  0  0  0
   10.7240    2.2880   24.5500 C   0  0  0  0  0  0  0  0  0  0  0  0
   11.1520    3.4640   23.9260 C   0  0  0  0  0  0  0  0  0  0  0  0
   10.3760    4.5880   24.1410 O   0  0  0  0  0  0  0  0  0  0  0  0
    9.1760    4.8110   23.3730 C   0  0  0  0  0  0  0  0  0  0  0  0
    8.3460    3.5510   23.4420 C   0  0  1  0  0  0  0  0  0  0  0  0
    7.1070    4.0730   23.6570 O   0  0  0  0  0  0  0  0  0  0  0  0
    8.4570    2.5570   22.3380 C   0  0  0  0  0  0  0  0  0  0  0  0
    9.6240    1.8040   22.4320 N   0  0  0  0  0  0  0  0  0  0  0  0
    9.5550    0.5200   21.7890 C   0  0  0  0  0  0  0  0  0  0  0  0
    9.5020   -0.6340   22.5540 C   0  0  0  0  0  0  0  0  0  0  0  0
    8.7480   -0.6370   23.7170 C   0  0  0  0  0  0  0  0  0  0  0  0
   10.1800   -1.7230   22.1450 N   0  0  0  0  0  0  0  0  0  0  0  0
    8.6640   -1.7670   24.4960 C   0  0  0  0  0  0  0  0  0  0  0  0
   10.1020   -2.9300   22.9660 C   0  0  0  0  0  0  0  0  0  0  0  0
    9.3410   -2.9240   24.1220 C   0  0  0  0  0  0  0  0  0  0  0  0
  1  2  1  0
  2  3  1  0
  3  4  2  0
  3  5  1  0
  5  6  2  0
  5  7  1  0
  6  8  1  0
  7  9  2  0
  8 10  2  0
  9 10  1  0
 10 11  1  0
 11 12  1  0
 12 13  1  0
 13 14  1  6
 13 15  1  0
 15 16  1  0
 16 17  1  0
 17 18  1  0
 18 19  2  0
 18 20  1  0
 19 21  1  0
 20 22  2  0
 21 23  2  0
 22 23  1  0
M  END
>  <Name>  (165) 
x0161-0A-x1077-0A_974

>  <original SMILES>  (165) 
COC(=O)c1ccc(OCC(O)CNCc2ccccn2)cc1

>  <synthon>  (165) 
[Xe]c1ccccn1

>  <ref_pdb>  (165) 
p/x0161-0A-x1077-0A-974.holo_minimised.pdb

>  <ref_mols>  (165) 
x0161_0A,x1077_0A

>  <IFP_score>  (165) 
0.6324555320336759

>  <SuCOS_score>  (165) 
0.6005522461289943

>  <AttchPnts_score>  (165) 
2

>  <Docking_score>  (165) 
-5.16354513

>  <LE_score>  (165) 
-0.22450196217391305

>  <EnergyRatio_score>  (165) 
3.79447722964416

>  <cmpd_id>  (165) 
['ENAMINE:Z55682273']

$$$$

     RDKit          3D

 24 26  0  0  0  0  0  0  0  0999 V2000
    8.7570    1.7010   24.8760 O   0  0  0  0  0  0  0  0  0  0  0  0
    8.5500    2.1910   23.7740 C   0  0  0  0  0  0  0  0  0  0  0  0
    8.7800    1.5080   22.5520 C   0  0  0  0  0  0  0  0  0  0  0  0
    8.0240    3.4560   23.5950 N   0  0  0  0  0  0  0  0  0  0  0  0
    9.1580    0.2090   22.2250 C   0  0  0  0  0  0  0  0  0  0  0  0
    8.4160    2.6720   21.4390 S   0  0  0  0  0  0  0  0  0  0  0  0
    7.2390    3.3200   22.5460 C   0  0  0  0  0  0  0  0  0  0  0  0
    8.9110    4.6970   23.2960 N   0  0  0  0  0  0  0  0  0  0  0  0
    9.3780   -0.8510   23.0680 C   0  0  0  0  0  0  0  0  0  0  0  0
    5.6270    3.6450   22.2770 S   0  0  0  0  0  0  0  0  0  0  0  0
   10.3600    5.0470   24.1300 S   0  0  0  0  0  0  0  0  0  0  0  0
    8.8020   -0.8370   24.3240 C   0  0  0  0  0  0  0  0  0  0  0  0
   10.1770   -1.9550   22.5790 N   0  0  0  0  0  0  0  0  0  0  0  0
   10.0000    5.2760   25.5110 O   0  0  0  0  0  0  0  0  0  0  0  0
   11.0520    6.0690   23.3740 O   0  0  0  0  0  0  0  0  0  0  0  0
   11.2530    3.5320   23.9130 C   0  0  0  0  0  0  0  0  0  0  0  0
    9.0190   -2.0580   25.2110 C   0  0  0  0  0  0  0  0  0  0  0  0
   10.3350   -3.0530   23.4600 C   0  0  0  0  0  0  0  0  0  0  0  0
   12.3840    3.4570   23.1220 C   0  0  0  0  0  0  0  0  0  0  0  0
   10.7990    2.3980   24.5610 C   0  0  0  0  0  0  0  0  0  0  0  0
    9.7750   -3.1180   24.7350 C   0  0  0  0  0  0  0  0  0  0  0  0
   13.0600    2.2480   22.9760 C   0  0  0  0  0  0  0  0  0  0  0  0
   11.4590    1.1910   24.4180 C   0  0  0  0  0  0  0  0  0  0  0  0
   12.5970    1.1180   23.6210 C   0  0  0  0  0  0  0  0  0  0  0  0
  1  2  2  0
  2  3  1  0
  2  4  1  0
  3  5  2  3
  3  6  1  0
  4  7  1  0
  6  7  1  0
  4  8  1  0
  5  9  1  0
  7 10  2  0
 11  8  1  0
  9 12  2  0
  9 13  1  0
 11 14  2  0
 11 15  2  0
 11 16  1  0
 12 17  1  0
 13 18  2  0
 16 19  2  0
 16 20  1  0
 17 21  2  0
 18 21  1  0
 19 22  1  0
 20 23  2  0
 22 24  2  0
 23 24  1  0
M  END
>  <Name>  (166) 
x0161-0A-x1077-0A_918

>  <original SMILES>  (166) 
O=C1C(=Cc2ccccn2)SC(=S)N1NS(=O)(=O)c1ccccc1

>  <synthon>  (166) 
[Xe]c1ccccn1

>  <ref_pdb>  (166) 
p/x0161-0A-x1077-0A-918.holo_minimised.pdb

>  <ref_mols>  (166) 
x0161_0A,x1077_0A

>  <IFP_score>  (166) 
0.5163977794943222

>  <SuCOS_score>  (166) 
0.5843288263867993

>  <AttchPnts_score>  (166) 
2

>  <Docking_score>  (166) 
-5.48109961

>  <LE_score>  (166) 
-0.22837915041666668

>  <EnergyRatio_score>  (166) 
4.744791417116511

>  <cmpd_id>  (166) 
['MOLPORT:000-401-905']

$$$$

     RDKit          3D

 24 25  0  0  0  0  0  0  0  0999 V2000
   13.8300   -2.2840   24.5920 C   0  0  0  0  0  0  0  0  0  0  0  0
   13.4170   -0.9200   24.7160 O   0  0  0  0  0  0  0  0  0  0  0  0
   13.4390   -0.2040   23.5560 C   0  0  0  0  0  0  0  0  0  0  0  0
   14.0230   -0.5180   22.5350 O   0  0  0  0  0  0  0  0  0  0  0  0
   12.6850    0.9630   23.6680 C   0  0  0  0  0  0  0  0  0  0  0  0
   13.1470    2.1590   23.0830 C   0  0  0  0  0  0  0  0  0  0  0  0
   11.4680    0.9520   24.3590 C   0  0  0  0  0  0  0  0  0  0  0  0
   12.4020    3.3460   23.1720 C   0  0  0  0  0  0  0  0  0  0  0  0
   10.6880    2.1020   24.4720 C   0  0  0  0  0  0  0  0  0  0  0  0
   11.1060    3.2960   23.8970 C   0  0  0  0  0  0  0  0  0  0  0  0
   10.2300    4.5340   23.9950 C   0  0  0  0  0  0  0  0  0  0  0  0
    8.8880    4.1630   23.5140 C   0  0  0  0  0  0  0  0  0  0  0  0
    8.5350    2.8000   22.9930 C   0  0  0  0  0  0  0  0  0  0  0  0
    9.1880    2.3760   22.0520 O   0  0  0  0  0  0  0  0  0  0  0  0
    7.5110    2.0650   23.5960 N   0  0  0  0  0  0  0  0  0  0  0  0
    7.6880    0.7620   24.6750 S   0  0  0  0  0  0  0  0  0  0  0  0
    6.3440    0.2320   24.7910 O   0  0  0  0  0  0  0  0  0  0  0  0
    8.3510    1.2280   25.8700 O   0  0  0  0  0  0  0  0  0  0  0  0
    8.6630   -0.5420   23.9540 C   0  0  0  0  0  0  0  0  0  0  0  0
    8.6390   -1.8010   24.5470 C   0  0  0  0  0  0  0  0  0  0  0  0
    9.4720   -0.4100   22.8140 C   0  0  0  0  0  0  0  0  0  0  0  0
    9.3890   -2.8540   24.0230 C   0  0  0  0  0  0  0  0  0  0  0  0
   10.2070   -1.4260   22.2870 N   0  0  0  0  0  0  0  0  0  0  0  0
   10.1490   -2.6190   22.9030 C   0  0  0  0  0  0  0  0  0  0  0  0
  1  2  1  0
  2  3  1  0
  3  4  2  0
  3  5  1  0
  5  6  2  0
  5  7  1  0
  6  8  1  0
  7  9  2  0
  8 10  2  0
  9 10  1  0
 10 11  1  0
 11 12  2  3
 12 13  1  0
 13 14  2  0
 13 15  1  0
 16 15  1  0
 16 17  2  0
 16 18  2  0
 16 19  1  0
 19 20  2  0
 19 21  1  0
 20 22  1  0
 21 23  2  0
 22 24  2  0
 23 24  1  0
M  END
>  <Name>  (167) 
x0161-0A-x1077-0A_29

>  <original SMILES>  (167) 
COC(=O)c1ccc(C=CC(=O)NS(=O)(=O)c2cccnc2)cc1

>  <synthon>  (167) 
[Xe]c1cccnc1

>  <ref_pdb>  (167) 
p/x0161-0A-x1077-0A-29.holo_minimised.pdb

>  <ref_mols>  (167) 
x0161_0A,x1077_0A

>  <IFP_score>  (167) 
0.6324555320336759

>  <SuCOS_score>  (167) 
0.5958496278920402

>  <AttchPnts_score>  (167) 
3

>  <Docking_score>  (167) 
-5.42261362

>  <LE_score>  (167) 
-0.22594223416666667

>  <EnergyRatio_score>  (167) 
3.277420530534072

>  <cmpd_id>  (167) 
['MOLPORT:044-220-930']

$$$$

     RDKit          3D

 22 23  0  0  0  0  0  0  0  0999 V2000
    8.0490   -4.2010   26.1580 C   0  0  0  0  0  0  0  0  0  0  0  0
    7.9210   -3.4790   24.9090 O   0  0  0  0  0  0  0  0  0  0  0  0
    8.6370   -2.2970   24.7350 C   0  0  1  0  0  0  0  0  0  0  0  0
    9.2960   -2.0060   23.3690 C   0  0  0  0  0  0  0  0  0  0  0  0
    7.7330   -1.1400   25.1600 C   0  0  0  0  0  0  0  0  0  0  0  0
   10.7370   -1.6200   23.4850 C   0  0  0  0  0  0  0  0  0  0  0  0
    8.3050   -0.0670   25.8840 N   0  0  0  0  0  0  0  0  0  0  0  0
   11.1110   -0.5310   24.4330 C   0  0  0  0  0  0  0  0  0  0  0  0
   11.7370   -2.2360   22.7470 C   0  0  0  0  0  0  0  0  0  0  0  0
    9.0900   -0.3660   27.0740 C   0  0  0  0  0  0  0  0  0  0  0  0
    8.2490    1.2730   25.2620 C   0  0  1  0  0  0  0  0  0  0  0  0
   12.4590   -0.1790   24.5490 C   0  0  0  0  0  0  0  0  0  0  0  0
   13.0680   -1.8500   22.9030 C   0  0  0  0  0  0  0  0  0  0  0  0
    9.6480    1.9050   25.2400 C   0  0  0  0  0  0  0  0  0  0  0  0
    7.6910    1.2470   23.8160 C   0  0  0  0  0  0  0  0  0  0  0  0
   13.4240   -0.8340   23.8020 C   0  0  0  0  0  0  0  0  0  0  0  0
    6.3160    0.9830   23.7280 N   0  0  0  0  0  0  0  0  0  0  0  0
    5.5110    0.9710   24.9600 C   0  0  0  0  0  0  0  0  0  0  0  0
    5.6330    1.6980   22.6250 C   0  0  0  0  0  0  0  0  0  0  0  0
    4.1640    0.3060   24.6290 C   0  0  0  0  0  0  0  0  0  0  0  0
    4.2670    1.0360   22.3990 C   0  0  0  0  0  0  0  0  0  0  0  0
    3.5120    1.0890   23.6190 O   0  0  0  0  0  0  0  0  0  0  0  0
  1  2  1  0
  2  3  1  0
  3  4  1  6
  3  5  1  0
  4  6  1  0
  5  7  1  0
  6  8  2  0
  6  9  1  0
  7 10  1  0
  7 11  1  0
  8 12  1  0
  9 13  2  0
 11 14  1  6
 11 15  1  0
 12 16  2  0
 13 16  1  0
 15 17  1  0
 17 18  1  0
 17 19  1  0
 18 20  1  0
 19 21  1  0
 20 22  1  0
 21 22  1  0
M  END
>  <Name>  (168) 
x0072-0A-x1249-0A_6049

>  <original SMILES>  (168) 
COC(Cc1ccccc1)CN(C)C(C)CN1CCOCC1

>  <synthon>  (168) 
[Xe]N1CCOCC1

>  <ref_pdb>  (168) 
p/x0072-0A-x1249-0A-6049.holo_minimised.pdb

>  <ref_mols>  (168) 
x0072_0A,x1249_0A

>  <IFP_score>  (168) 
0.5773502691896257

>  <SuCOS_score>  (168) 
0.5502851835599433

>  <AttchPnts_score>  (168) 
0

>  <Docking_score>  (168) 
-4.07718611

>  <LE_score>  (168) 
-0.18532664136363639

>  <EnergyRatio_score>  (168) 
2.361713198675316

>  <cmpd_id>  (168) 
['ENAMINE:Z2274434221']

$$$$

     RDKit          3D

 22 23  0  0  0  0  0  0  0  0999 V2000
    7.9350   -3.6220   22.8820 O   0  0  0  0  0  0  0  0  0  0  0  0
    8.9160   -3.0390   23.7710 S   0  0  0  0  0  0  0  0  0  0  0  0
   10.0890   -3.7640   24.1970 O   0  0  0  0  0  0  0  0  0  0  0  0
    9.4600   -1.4860   23.1130 C   0  0  0  0  0  0  0  0  0  0  0  0
    8.1500   -2.5200   25.1620 N   0  0  0  0  0  0  0  0  0  0  0  0
   10.8240   -1.0980   23.4080 C   0  0  0  0  0  0  0  0  0  0  0  0
    7.9460   -3.5720   26.2500 C   0  0  0  0  0  0  0  0  0  0  0  0
    7.0760   -1.4400   24.9380 C   0  0  0  0  0  0  0  0  0  0  0  0
   11.8560   -1.8750   22.6730 C   0  0  0  0  0  0  0  0  0  0  0  0
   11.1540   -0.0900   24.3110 C   0  0  0  0  0  0  0  0  0  0  0  0
    8.4830   -4.9750   25.9590 C   0  0  0  0  0  0  0  0  0  0  0  0
    7.4710   -0.0430   24.6970 C   0  0  0  0  0  0  0  0  0  0  0  0
   13.3180   -1.6270   22.8700 C   0  0  0  0  0  0  0  0  0  0  0  0
   12.5040    0.1700   24.5120 C   0  0  0  0  0  0  0  0  0  0  0  0
    7.5200   -5.9450   26.4270 O   0  0  0  0  0  0  0  0  0  0  0  0
    6.2500    0.7360   24.4150 N   0  0  0  0  0  0  0  0  0  0  0  0
   13.5200   -0.5180   23.8750 C   0  0  0  0  0  0  0  0  0  0  0  0
    5.1560    0.8960   25.3800 C   0  0  0  0  0  0  0  0  0  0  0  0
    5.9590    1.3120   23.0710 C   0  0  0  0  0  0  0  0  0  0  0  0
    3.9910    0.3770   24.8290 C   0  0  0  0  0  0  0  0  0  0  0  0
    4.7160    0.8440   22.6090 C   0  0  0  0  0  0  0  0  0  0  0  0
    3.7010    1.0580   23.6020 O   0  0  0  0  0  0  0  0  0  0  0  0
  1  2  2  0
  2  3  2  0
  2  4  1  0
  2  5  1  0
  4  6  1  0
  5  7  1  0
  5  8  1  0
  6  9  2  0
  6 10  1  0
  7 11  1  0
  8 12  1  0
  9 13  1  0
 10 14  2  0
 11 15  1  0
 12 16  1  0
 13 17  2  0
 14 17  1  0
 16 18  1  0
 16 19  1  0
 18 20  1  0
 19 21  1  0
 20 22  1  0
 21 22  1  0
M  END
>  <Name>  (169) 
x0072-0A-x1249-0A_5488

>  <original SMILES>  (169) 
O=S(=O)(Cc1ccccc1)N(CCO)CCN1CCOCC1

>  <synthon>  (169) 
[Xe]N1CCOCC1

>  <ref_pdb>  (169) 
p/x0072-0A-x1249-0A-5488.holo_minimised.pdb

>  <ref_mols>  (169) 
x0072_0A,x1249_0A

>  <IFP_score>  (169) 
0.6666666666666666

>  <SuCOS_score>  (169) 
0.5687633322083999

>  <AttchPnts_score>  (169) 
0

>  <Docking_score>  (169) 
-4.15160322

>  <LE_score>  (169) 
-0.1887092372727273

>  <EnergyRatio_score>  (169) 
4.109477851242315

>  <cmpd_id>  (169) 
['MOLPORT:027-934-800']

$$$$

     RDKit          3D

 22 23  0  0  0  0  0  0  0  0999 V2000
    8.0870   -4.3980   26.1590 C   0  0  0  0  0  0  0  0  0  0  0  0
    8.1790   -3.8070   24.8440 O   0  0  0  0  0  0  0  0  0  0  0  0
    8.5790   -2.4850   24.7920 C   0  0  1  0  0  0  0  0  0  0  0  0
    9.1420   -1.8850   23.4750 C   0  0  0  0  0  0  0  0  0  0  0  0
    7.4080   -1.7320   25.3870 C   0  0  0  0  0  0  0  0  0  0  0  0
   10.6210   -1.5660   23.5350 C   0  0  0  0  0  0  0  0  0  0  0  0
    6.1500   -2.3950   25.5850 O   0  0  0  0  0  0  0  0  0  0  0  0
    7.5790   -0.4010   25.7670 N   0  0  0  0  0  0  0  0  0  0  0  0
   11.0890   -0.5050   24.4830 C   0  0  0  0  0  0  0  0  0  0  0  0
   11.5720   -2.2160   22.7500 C   0  0  0  0  0  0  0  0  0  0  0  0
    8.4120    0.4270   24.9250 N   0  0  0  0  0  0  0  0  0  0  0  0
   12.4600   -0.2160   24.5470 C   0  0  0  0  0  0  0  0  0  0  0  0
   12.9310   -1.8870   22.8590 C   0  0  0  0  0  0  0  0  0  0  0  0
    7.7390    1.4420   24.1250 C   0  0  0  0  0  0  0  0  0  0  0  0
   13.3670   -0.8980   23.7570 C   0  0  0  0  0  0  0  0  0  0  0  0
    8.4500    2.5590   23.5780 O   0  0  0  0  0  0  0  0  0  0  0  0
    6.2720    1.2540   23.9050 N   0  0  0  0  0  0  0  0  0  0  0  0
    5.3890    1.0900   25.0570 C   0  0  0  0  0  0  0  0  0  0  0  0
    5.7080    1.5830   22.6100 C   0  0  0  0  0  0  0  0  0  0  0  0
    4.0700    0.3860   24.6850 C   0  0  0  0  0  0  0  0  0  0  0  0
    4.3400    0.9140   22.3990 C   0  0  0  0  0  0  0  0  0  0  0  0
    3.4850    1.0100   23.5410 O   0  0  0  0  0  0  0  0  0  0  0  0
  1  2  1  0
  2  3  1  0
  3  4  1  6
  3  5  1  0
  4  6  1  0
  5  7  2  0
  5  8  1  0
  6  9  2  0
  6 10  1  0
  8 11  1  0
  9 12  1  0
 10 13  2  0
 11 14  1  0
 12 15  2  0
 13 15  1  0
 14 16  2  0
 14 17  1  0
 17 18  1  0
 17 19  1  0
 18 20  1  0
 19 21  1  0
 20 22  1  0
 21 22  1  0
M  END
>  <Name>  (170) 
x0072-0A-x1249-0A_2919

>  <original SMILES>  (170) 
COC(Cc1ccccc1)C(=O)NNC(=O)N1CCOCC1

>  <synthon>  (170) 
[Xe]N1CCOCC1

>  <ref_pdb>  (170) 
p/x0072-0A-x1249-0A-2919.holo_minimised.pdb

>  <ref_mols>  (170) 
x0072_0A,x1249_0A

>  <IFP_score>  (170) 
0.5773502691896257

>  <SuCOS_score>  (170) 
0.5982968817884412

>  <AttchPnts_score>  (170) 
3

>  <Docking_score>  (170) 
-4.26410103

>  <LE_score>  (170) 
-0.1938227740909091

>  <EnergyRatio_score>  (170) 
3.958815546745381

>  <cmpd_id>  (170) 
['ENAMINE:Z2255206670']

$$$$
