ver_1.2
     RDKit          3D

 14 15  0  0  0  0  0  0  0  0999 V2000
    3.0286    1.5015   -0.1127 C   0  0  0  0  0  0  0  0  0  0  0  0
    2.2018    0.3256   -0.0699 N   0  0  0  0  0  0  0  0  0  0  0  0
    2.6332   -0.9379   -0.0628 C   0  0  0  0  0  0  0  0  0  0  0  0
    1.5895   -1.7853   -0.0188 N   0  0  0  0  0  0  0  0  0  0  0  0
    0.4586   -1.0283    0.0026 C   0  0  0  0  0  0  0  0  0  0  0  0
    0.8619    0.3129   -0.0303 C   0  0  0  0  0  0  0  0  0  0  0  0
   -0.1366    1.2477   -0.0155 C   0  0  0  0  0  0  0  0  0  0  0  0
    0.2041    2.4631   -0.0446 O   0  0  0  0  0  0  0  0  0  0  0  0
   -1.4590    0.9489    0.0281 N   0  0  0  0  0  0  0  0  0  0  0  0
   -1.8029   -0.3496    0.0585 C   0  0  0  0  0  0  0  0  0  0  0  0
   -3.0094   -0.6985    0.0995 O   0  0  0  0  0  0  0  0  0  0  0  0
   -0.8645   -1.3053    0.0459 N   0  0  0  0  0  0  0  0  0  0  0  0
   -1.2562   -2.7029    0.0793 C   0  0  0  0  0  0  0  0  0  0  0  0
   -2.4490    2.0080    0.0406 C   0  0  0  0  0  0  0  0  0  0  0  0
  1  2  1  0
  2  3  1  0
  3  4  2  0
  4  5  1  0
  5  6  2  0
  6  7  1  0
  7  8  2  0
  7  9  1  0
  9 10  1  0
 10 11  2  0
 10 12  1  0
 12 13  1  0
  9 14  1  0
  6  2  1  0
 12  5  1  0
M  END
>  <ref_url>  (1) 
https://github.com/matteoferla/Fragment-hit-follow-up-chemistry

>  <submitter_name>  (1) 
Matteo

>  <submitter_email>  (1) 
matteo.ferla@stats.ox.ac.uk

>  <submitter_institution>  (1) 
Oxford

>  <generation_date>  (1) 
2023-7-18

>  <method>  (1) 
XX01ZVNS2B_stolen-hits

>  <pdb_code>  (1) 
PDB code

>  <description>  (1) 
PDB description

$$$$
E5X_1
     RDKit          3D

 11 11  0  0  0  0  0  0  0  0999 V2000
   -5.5820   -8.6380  -72.7430 C   0  0  0  0  0  0  0  0  0  0  0  0
   -4.9330  -10.9350  -71.3120 C   0  0  0  0  0  0  0  0  0  0  0  0
   -5.9780   -8.7640  -71.4140 C   0  0  0  0  0  0  0  0  0  0  0  0
   -4.8620   -9.6610  -73.3440 C   0  0  0  0  0  0  0  0  0  0  0  0
   -5.6490   -9.9140  -70.6990 C   0  0  0  0  0  0  0  0  0  0  0  0
   -4.5400  -10.8120  -72.6330 C   0  0  0  0  0  0  0  0  0  0  0  0
   -5.8950   -7.4970  -73.4800 C   0  0  0  0  0  0  0  0  0  0  0  0
   -4.6060  -12.0800  -70.6130 C   0  0  0  0  0  0  0  0  0  0  0  0
   -6.1320   -7.8690  -74.8410 O   0  0  0  0  0  0  0  0  0  0  0  0
   -4.2280  -13.1010  -71.2300 O   0  0  0  0  0  0  0  0  0  0  0  0
   -4.6920  -12.0880  -69.3670 O   0  0  0  0  0  0  0  0  0  0  0  0
  1  3  2  0
  1  4  1  0
  1  7  1  0
  2  5  2  0
  2  6  1  0
  2  8  1  0
  3  5  1  0
  4  6  2  0
  7  9  1  0
  8 10  1  0
  8 11  2  0
A    1
 CAD
A    2
 CAE
A    3
 CAF
A    4
 CAG
A    5
 CAH
A    6
 CAI
A    7
 CAJ
A    8
 CAK
A    9
 OAA
A   10
 OAB
A   11
 OAC
M  END
>  <pdb_code>  (2) 
6L4Z

>  <description>  (2) 
Chain F, Genome polyprotein [Zika virus]

>  <ref_pdb>  (2) 
x0404_0B

>  <ref_mols>  (2) 
x0404_0B

>  <original SMILES>  (2) 
O=C(O)c1ccc(CO)cc1

$$$$
7HS_1
     RDKit          3D

 24 23  0  0  0  0  0  0  0  0999 V2000
   -6.6370    3.8330  -13.2180 N   0  0  0  0  0  0  0  0  0  0  0  0
   -8.0170    4.3160  -13.1460 C   0  0  2  0  0  0  0  0  0  0  0  0
   -4.8530    2.2970  -13.6080 C   0  0  0  0  0  0  0  0  0  0  0  0
   -6.3550    2.6210  -13.6800 C   0  0  0  0  0  0  0  0  0  0  0  0
  -10.1450    5.6570  -15.9580 C   0  0  2  0  0  0  0  0  0  0  0  0
  -11.4250    6.3150  -15.4000 C   0  0  0  0  0  0  0  0  0  0  0  0
  -10.3950    4.7990  -17.2170 C   0  0  0  0  0  0  0  0  0  0  0  0
   -9.0640    4.5260  -17.9040 C   0  0  0  0  0  0  0  0  0  0  0  0
   -8.3270    5.8260  -18.1940 C   0  0  0  0  0  0  0  0  0  0  0  0
   -6.1470    5.4510  -19.3590 C   0  0  0  0  0  0  0  0  0  0  0  0
   -8.3860    5.1280  -14.3710 C   0  0  0  0  0  0  0  0  0  0  0  0
   -7.6080    5.9200  -14.8980 O   0  0  0  0  0  0  0  0  0  0  0  0
   -9.6070    4.8980  -14.8200 N   0  0  0  0  0  0  0  0  0  0  0  0
   -6.8800    5.5590  -18.2360 N   0  0  0  0  0  0  0  0  0  0  0  0
   -6.7270    5.5860  -20.5720 N   0  0  0  0  0  0  0  0  0  0  0  0
   -4.8260    5.2170  -19.2600 N   0  0  0  0  0  0  0  0  0  0  0  0
   -7.2100    1.8390  -14.1130 O   0  0  0  0  0  0  0  0  0  0  0  0
  -11.2970    7.1160  -14.4700 O   0  0  0  0  0  0  0  0  0  0  0  0
   -8.1420    5.1970  -11.8920 C   0  0  0  0  0  0  0  0  0  0  0  0
   -9.1190    4.5220  -10.9290 C   0  0  0  0  0  0  0  0  0  0  0  0
   -8.3910    3.4800  -10.0900 C   0  0  0  0  0  0  0  0  0  0  0  0
   -9.4160    2.6980   -9.2780 C   0  0  0  0  0  0  0  0  0  0  0  0
   -8.9350    2.5000   -7.9070 N   0  0  0  0  0  0  0  0  0  0  0  0
  -12.3990    5.2320  -15.5970 S   0  0  0  0  0  0  0  0  0  0  0  0
  1  2  1  0
  1  4  1  0
  2 11  1  0
  2 19  1  1
  3  4  1  0
  4 17  2  0
  5  6  1  0
  5  7  1  6
  5 13  1  0
  6 18  2  0
  6 24  1  0
  7  8  1  0
  8  9  1  0
  9 14  1  0
 10 14  1  0
 10 15  1  0
 10 16  2  0
 11 12  2  0
 11 13  1  0
 19 20  1  0
 20 21  1  0
 21 22  1  0
 22 23  1  0
A    1
 N  
A    2
 CA 
A    3
 CAA
A    4
 CAB
A    5
 CAN
A    6
 CAO
A    7
 CAQ
A    8
 CAR
A    9
 CAS
A   10
 CAU
A   11
 C  
A   12
 O  
A   13
 NAM
A   14
 NAT
A   15
 NAV
A   16
 NAW
A   17
 OAC
A   18
 OAX
A   19
 CB 
A   20
 CG 
A   21
 CD 
A   22
 CE 
A   23
 NZ 
A   24
 X  
M  END
>  <pdb_code>  (3) 
5H6V

>  <description>  (3) 
Chain B, Genome polyprotein [Zika virus]

>  <ref_pdb>  (3) 
x0404_0B

>  <ref_mols>  (3) 
x0404_0B

>  <original SMILES>  (3) 
CC(=O)N[C@@H](CCCCN)C(=O)N[C@@H](CCCNC(=N)N)C(=O)S

$$$$
DUU_3
     RDKit          3D

101102  0  0  0  0  0  0  0  0999 V2000
   -4.9560    3.1760  -14.0740 C   0  0  1  0  0  0  0  0  0  0  0  0
   -6.5050    3.1870  -14.0040 C   0  0  0  0  0  0  0  0  0  0  0  0
   -7.1480    4.5290  -13.8430 N   0  0  0  0  0  0  0  0  0  0  0  0
   -8.5760    4.7840  -13.7400 C   0  0  1  0  0  0  0  0  0  0  0  0
   -8.7130    5.6530  -12.4820 C   0  0  1  0  0  0  0  0  0  0  0  0
   -8.0660    4.9080  -11.2580 C   0  0  2  0  0  0  0  0  0  0  0  0
   -8.8740    3.6300  -10.8070 C   0  0  1  0  0  0  0  0  0  0  0  0
   -8.3680    3.2240   -9.4080 C   0  0  2  0  0  0  0  0  0  0  0  0
   -8.8970    1.9560   -8.9370 N   0  0  0  0  0  0  0  0  0  0  0  0
   -9.0770    5.4740  -15.0200 C   0  0  0  0  0  0  0  0  0  0  0  0
   -8.8880    6.6320  -15.2430 O   0  0  0  0  0  0  0  0  0  0  0  0
   -9.7930    4.6100  -15.9820 N   0  0  0  0  0  0  0  0  0  0  0  0
  -10.2990    5.1910  -17.2740 C   0  0  2  0  0  0  0  0  0  0  0  0
   -9.3270    4.7360  -18.4090 C   0  0  1  0  0  0  0  0  0  0  0  0
   -7.8550    5.1030  -17.9670 C   0  0  1  0  0  0  0  0  0  0  0  0
   -6.9870    5.4500  -19.1810 C   0  0  1  0  0  0  0  0  0  0  0  0
   -5.6070    5.9370  -18.7820 C   0  0  1  0  0  0  0  0  0  0  0  0
   -4.7870    5.3910  -19.8650 N   0  0  0  0  0  0  0  0  0  0  0  0
   -3.3520    5.1690  -19.7650 C   0  0  0  0  0  0  0  0  0  0  0  0
   -2.7140    5.4460  -18.7010 N   0  0  0  0  0  0  0  0  0  0  0  0
   -5.5310    7.4720  -18.7220 C   0  0  0  0  0  0  0  0  0  0  0  0
   -5.7860    8.0560  -17.7080 O   0  0  0  0  0  0  0  0  0  0  0  0
   -5.1060    8.1870  -19.9260 N   0  0  0  0  0  0  0  0  0  0  0  0
   -5.0150    9.6420  -19.9120 C   0  0  2  0  0  0  0  0  0  0  0  0
   -4.5490   10.1030  -21.3300 C   0  0  2  0  0  0  0  0  0  0  0  0
   -3.0520    9.6750  -21.6110 C   0  0  1  0  0  0  0  0  0  0  0  0
   -2.1650   10.0430  -20.3620 C   0  0  0  0  0  0  0  0  0  0  0  0
   -2.2510   11.0820  -19.7720 O   0  0  0  0  0  0  0  0  0  0  0  0
   -1.2150    9.0230  -19.9230 N   0  0  0  0  0  0  0  0  0  0  0  0
   -0.3420    9.2420  -18.7540 C   0  0  1  0  0  0  0  0  0  0  0  0
   -1.0240    8.5040  -17.5530 C   0  0  0  0  0  0  0  0  0  0  0  0
   -2.2280    9.0410  -17.0680 C   0  0  0  0  0  0  0  0  0  0  0  0
   -2.8680    8.4160  -15.9980 C   0  0  0  0  0  0  0  0  0  0  0  0
   -2.3290    7.2640  -15.4210 C   0  0  0  0  0  0  0  0  0  0  0  0
   -1.1300    6.7160  -15.9180 C   0  0  0  0  0  0  0  0  0  0  0  0
   -0.4850    7.3400  -16.9940 C   0  0  0  0  0  0  0  0  0  0  0  0
   -3.1040    6.6300  -14.2450 C   0  0  2  0  0  0  0  0  0  0  0  0
   -3.7440    5.2970  -14.7260 C   0  0  0  0  0  0  0  0  0  0  0  0
   -3.7350    4.9910  -15.8960 O   0  0  0  0  0  0  0  0  0  0  0  0
   -4.3700    4.4400  -13.6850 N   0  0  0  0  0  0  0  0  0  0  0  0
   -7.1190    2.1670  -14.0720 O   0  0  0  0  0  0  0  0  0  0  0  0
   -4.5260    2.0420  -13.1270 C   0  0  2  0  0  0  0  0  0  0  0  0
   -3.0820    2.1400  -12.5680 C   0  0  2  0  0  0  0  0  0  0  0  0
   -3.0420    1.3160  -11.2240 C   0  0  2  0  0  0  0  0  0  0  0  0
   -1.5430    0.9910  -10.9330 C   0  0  2  0  0  0  0  0  0  0  0  0
   -1.4100    0.3860   -9.6100 N   0  0  0  0  0  0  0  0  0  0  0  0
   -2.6500    4.6260  -20.9190 S   0  0  0  0  0  0  0  0  0  0  0  0
   -8.5560    1.3020   -9.4340 H   0  0  0  0  0  0  0  0  0  0  0  0
   -8.6570    1.8310   -8.0890 H   0  0  0  0  0  0  0  0  0  0  0  0
   -0.6860    0.7150   -9.2120 H   0  0  0  0  0  0  0  0  0  0  0  0
   -4.6480    3.0350  -14.9830 H   0  0  0  0  0  0  0  0  0  0  0  0
   -6.6270    5.2110  -13.8080 H   0  0  0  0  0  0  0  0  0  0  0  0
   -9.1170    3.9830  -13.6600 H   0  0  0  0  0  0  0  0  0  0  0  0
   -8.2600    6.5000  -12.6220 H   0  0  0  0  0  0  0  0  0  0  0  0
   -9.6530    5.8170  -12.3010 H   0  0  0  0  0  0  0  0  0  0  0  0
   -8.0220    5.5240  -10.5100 H   0  0  0  0  0  0  0  0  0  0  0  0
   -7.1680    4.6340  -11.5030 H   0  0  0  0  0  0  0  0  0  0  0  0
   -9.8220    3.8330  -10.7690 H   0  0  0  0  0  0  0  0  0  0  0  0
   -8.7250    2.9050  -11.4350 H   0  0  0  0  0  0  0  0  0  0  0  0
   -8.6240    3.9150   -8.7770 H   0  0  0  0  0  0  0  0  0  0  0  0
   -7.4000    3.1580   -9.4400 H   0  0  0  0  0  0  0  0  0  0  0  0
   -9.9210    3.7780  -15.8040 H   0  0  0  0  0  0  0  0  0  0  0  0
  -10.3110    6.1590  -17.2190 H   0  0  0  0  0  0  0  0  0  0  0  0
  -11.1940    4.8650  -17.4550 H   0  0  0  0  0  0  0  0  0  0  0  0
   -9.4020    3.7780  -18.5420 H   0  0  0  0  0  0  0  0  0  0  0  0
   -9.5480    5.1950  -19.2350 H   0  0  0  0  0  0  0  0  0  0  0  0
   -7.8850    5.8660  -17.3700 H   0  0  0  0  0  0  0  0  0  0  0  0
   -7.4650    4.3450  -17.5040 H   0  0  0  0  0  0  0  0  0  0  0  0
   -6.8890    4.6560  -19.7310 H   0  0  0  0  0  0  0  0  0  0  0  0
   -7.4270    6.1460  -19.6920 H   0  0  0  0  0  0  0  0  0  0  0  0
   -5.3300    5.6560  -17.8970 H   0  0  0  0  0  0  0  0  0  0  0  0
   -5.1760    5.1880  -20.6030 H   0  0  0  0  0  0  0  0  0  0  0  0
   -3.1360    5.7850  -17.9980 H   0  0  0  0  0  0  0  0  0  0  0  0
   -1.8000    4.4870  -20.8780 H   0  0  0  0  0  0  0  0  0  0  0  0
   -3.0790    4.4360  -21.6380 H   0  0  0  0  0  0  0  0  0  0  0  0
   -4.9090    7.7500  -20.6390 H   0  0  0  0  0  0  0  0  0  0  0  0
   -4.3720    9.9270  -19.2450 H   0  0  0  0  0  0  0  0  0  0  0  0
   -5.8820   10.0250  -19.7080 H   0  0  0  0  0  0  0  0  0  0  0  0
   -4.6170   11.0700  -21.3860 H   0  0  0  0  0  0  0  0  0  0  0  0
   -5.1240    9.7000  -21.9990 H   0  0  0  0  0  0  0  0  0  0  0  0
   -3.0120    8.7180  -21.7660 H   0  0  0  0  0  0  0  0  0  0  0  0
   -2.7210   10.1440  -22.3930 H   0  0  0  0  0  0  0  0  0  0  0  0
   -1.1640    8.2810  -20.3540 H   0  0  0  0  0  0  0  0  0  0  0  0
    0.5400    8.8740  -18.9200 H   0  0  0  0  0  0  0  0  0  0  0  0
   -0.2640   10.1910  -18.5660 H   0  0  0  0  0  0  0  0  0  0  0  0
   -2.5920    9.8030  -17.4550 H   0  0  0  0  0  0  0  0  0  0  0  0
   -3.6610    8.7700  -15.6650 H   0  0  0  0  0  0  0  0  0  0  0  0
   -0.7710    5.9480  -15.5370 H   0  0  0  0  0  0  0  0  0  0  0  0
    0.3010    6.9810  -17.3370 H   0  0  0  0  0  0  0  0  0  0  0  0
   -3.7990    7.2370  -13.9480 H   0  0  0  0  0  0  0  0  0  0  0  0
   -2.4940    6.4530  -13.5120 H   0  0  0  0  0  0  0  0  0  0  0  0
   -4.3830    4.6920  -12.8630 H   0  0  0  0  0  0  0  0  0  0  0  0
   -4.6010    1.2050  -13.6110 H   0  0  0  0  0  0  0  0  0  0  0  0
   -5.1370    2.0350  -12.3740 H   0  0  0  0  0  0  0  0  0  0  0  0
   -2.8560    3.0680  -12.3940 H   0  0  0  0  0  0  0  0  0  0  0  0
   -2.4530    1.7670  -13.2040 H   0  0  0  0  0  0  0  0  0  0  0  0
   -3.5480    0.4940  -11.3220 H   0  0  0  0  0  0  0  0  0  0  0  0
   -3.4160    1.8410  -10.5000 H   0  0  0  0  0  0  0  0  0  0  0  0
   -1.0250    1.8110  -10.9630 H   0  0  0  0  0  0  0  0  0  0  0  0
   -1.2120    0.3750  -11.6030 H   0  0  0  0  0  0  0  0  0  0  0  0
   -1.3050   -0.4920   -9.7240 H   0  0  0  0  0  0  0  0  0  0  0  0
  1  2  1  0
  1 40  1  0
  1 42  1  0
  1 51  1  6
  2  3  1  0
  2 41  1  0
  3 52  1  0
  3  4  1  0
  4  5  1  0
  4 53  1  1
  4 10  1  0
  5  6  1  0
  5 54  1  6
  5 55  1  0
  6  7  1  0
  6 56  1  1
  6 57  1  0
  7  8  1  0
  7 58  1  1
  7 59  1  0
  8  9  1  0
  8 60  1  1
  8 61  1  0
  9 48  1  0
  9 49  1  0
 10 11  1  0
 10 12  1  0
 12 13  1  0
 12 62  1  0
 13 14  1  0
 13 63  1  1
 13 64  1  0
 14 65  1  6
 14 66  1  0
 14 15  1  0
 15 16  1  0
 15 67  1  1
 15 68  1  0
 16 69  1  6
 16 70  1  0
 16 17  1  0
 17 18  1  0
 17 21  1  0
 17 71  1  1
 18 72  1  0
 18 19  1  0
 19 20  1  0
 19 47  1  0
 20 73  1  0
 21 22  1  0
 21 23  1  0
 23 76  1  0
 23 24  1  0
 24 77  1  1
 24 78  1  0
 24 25  1  0
 25 26  1  0
 25 79  1  1
 25 80  1  0
 26 81  1  6
 26 82  1  0
 26 27  1  0
 27 28  1  0
 27 29  1  0
 29 83  1  0
 29 30  1  0
 30 31  1  0
 30 84  1  6
 30 85  1  0
 31 32  1  0
 31 36  1  0
 32 33  1  0
 32 86  1  0
 33 34  1  0
 33 87  1  0
 34 35  1  0
 34 37  1  0
 35 36  1  0
 35 88  1  0
 36 89  1  0
 37 38  1  0
 37 90  1  1
 37 91  1  0
 38 39  1  0
 38 40  1  0
 40 92  1  0
 42 43  1  0
 42 93  1  6
 42 94  1  0
 43 44  1  0
 43 95  1  1
 43 96  1  0
 44 45  1  0
 44 97  1  6
 44 98  1  0
 45 46  1  0
 45 99  1  1
 45100  1  0
 46 50  1  0
 46101  1  0
 47 74  1  0
 47 75  1  0
A    1
 C01
A    2
 C02
A    3
 N03
A    4
 C04
A    5
 C05
A    6
 C06
A    7
 C07
A    8
 C08
A    9
 N09
A   10
 C10
A   11
 O11
A   12
 N12
A   13
 C13
A   14
 C14
A   15
 C15
A   16
 C16
A   17
 C17
A   18
 N18
A   19
 C19
A   20
 N20
A   21
 C22
A   22
 O23
A   23
 N24
A   24
 C25
A   25
 C26
A   26
 C27
A   27
 C28
A   28
 O29
A   29
 N30
A   30
 C31
A   31
 C32
A   32
 C33
A   33
 C34
A   34
 C35
A   35
 C36
A   36
 C37
A   37
 C38
A   38
 C39
A   39
 O40
A   40
 N41
A   41
 O42
A   42
 C43
A   43
 C44
A   44
 C45
A   45
 C46
A   46
 N47
A   47
 X  
A   48
 H1 
A   49
 H2 
A   50
 H4 
A   51
H011
A   52
H031
A   53
H041
A   54
H051
A   55
H052
A   56
H061
A   57
H062
A   58
H071
A   59
H072
A   60
H081
A   61
H082
A   62
H121
A   63
H131
A   64
H132
A   65
H141
A   66
H142
A   67
H151
A   68
H152
A   69
H161
A   70
H162
A   71
H171
A   72
H181
A   73
H201
A   74
H212
A   75
H212
A   76
H241
A   77
H251
A   78
H252
A   79
H261
A   80
H262
A   81
H271
A   82
H272
A   83
H301
A   84
H311
A   85
H312
A   86
H331
A   87
H341
A   88
H361
A   89
H371
A   90
H381
A   91
H382
A   92
H411
A   93
H431
A   94
H432
A   95
H441
A   96
H442
A   97
H451
A   98
H452
A   99
H461
A  100
H462
A  101
H471
M  END
>  <pdb_code>  (4) 
6KK3

>  <description>  (4) 
Chain B, Genome polyprotein [Zika virus]

>  <ref_pdb>  (4) 
x0404_0B

>  <ref_mols>  (4) 
x0404_0B

>  <original SMILES>  (4) 
[H]NC(N([H])[C@@]1([H])C(O)N([H])C([H])([H])C([H])([H])C([H])([H])C(O)N([H])C([H])([H])C2C([H])C([H])C(C([H])C2[H])C([H])([H])C(O)N([H])[C@@]([H])(C([H])([H])C([H])([H])C([H])([H])C([H])([H])N([H])[H])C(O)N([H])[C@@]([H])(C([H])([H])C([H])([H])C([H])([H])C([H])([H])N([H])[H])C(O)N([H])C([H])([H])C([H])([H])C([H])([H])C1([H])[H])[SH]([H])[H]

$$$$
PBZ_1
     RDKit          3D

 10 10  0  0  0  0  0  0  0  0999 V2000
   -9.2400   13.1790  -35.7030 C   0  0  0  0  0  0  0  0  0  0  0  0
   -9.1010   14.0670  -36.7490 N   0  0  0  0  0  0  0  0  0  0  0  0
   -8.7390   13.4840  -34.4350 C   0  0  0  0  0  0  0  0  0  0  0  0
   -9.3170   10.8370  -31.2250 N   0  0  0  0  0  0  0  0  0  0  0  0
   -8.8820   12.5950  -33.3910 C   0  0  0  0  0  0  0  0  0  0  0  0
  -10.0600    9.1950  -32.6410 N   0  0  0  0  0  0  0  0  0  0  0  0
   -9.5090   11.3680  -33.5850 C   0  0  0  0  0  0  0  0  0  0  0  0
  -10.0060   11.0580  -34.8460 C   0  0  0  0  0  0  0  0  0  0  0  0
   -9.8790   11.9490  -35.8910 C   0  0  0  0  0  0  0  0  0  0  0  0
   -9.6550   10.4080  -32.4590 C   0  0  0  0  0  0  0  0  0  0  0  0
  1  2  1  0
  1  3  2  0
  1  9  1  0
  3  5  1  0
  4 10  1  0
  5  7  2  0
  6 10  2  0
  7  8  1  0
  7 10  1  0
  8  9  2  0
M  CHG  1   6   1
A    1
 C1 
A    2
 N1 
A    3
 C2 
A    4
 N2 
A    5
 C3 
A    6
 N3 
A    7
 C4 
A    8
 C5 
A    9
 C6 
A   10
 C7 
M  END
>  <pdb_code>  (5) 
7VXX

>  <description>  (5) 
Chain B, Serine protease NS3 [Zika virus]

>  <ref_pdb>  (5) 
x0404_0B

>  <ref_mols>  (5) 
x0404_0B

>  <original SMILES>  (5) 
NC(=[NH2+])c1ccc(N)cc1

$$$$
BEZ_1
     RDKit          3D

  9  9  0  0  0  0  0  0  0  0999 V2000
  -48.5760   27.3660  -71.0910 C   0  0  2  0  0  0  0  0  0  0  0  0
  -48.3880   28.4650  -72.1860 C   0  0  0  0  0  0  0  0  0  0  0  0
  -47.9270   27.7350  -69.8980 O   0  0  0  0  0  0  0  0  0  0  0  0
  -48.7740   29.7660  -71.8630 C   0  0  0  0  0  0  0  0  0  0  0  0
  -48.6390   30.8320  -72.7450 C   0  0  0  0  0  0  0  0  0  0  0  0
  -48.1010   30.6050  -73.9970 C   0  0  0  0  0  0  0  0  0  0  0  0
  -47.7040   29.3250  -74.3540 C   0  0  0  0  0  0  0  0  0  0  0  0
  -47.8400   28.2560  -73.4600 C   0  0  0  0  0  0  0  0  0  0  0  0
  -49.0600   25.6960  -71.2410 S   0  0  0  0  0  0  0  0  0  0  0  0
  1  2  1  0
  1  3  1  6
  1  9  1  0
  2  4  1  0
  2  8  1  0
  4  5  1  0
  5  6  1  0
  6  7  1  0
  7  8  1  0
A    1
 C  
A    2
 C1 
A    3
 O1 
A    4
 C2 
A    5
 C3 
A    6
 C4 
A    7
 C5 
A    8
 C6 
A    9
 X  
M  END
>  <pdb_code>  (6) 
5YOD

>  <description>  (6) 
Chain B, NS3 protease [Zika virus]

>  <ref_pdb>  (6) 
x0404_0B

>  <ref_mols>  (6) 
x0404_0B

>  <original SMILES>  (6) 
O[C@H](S)C1CCCCC1

$$$$
BEZ_2
     RDKit          3D

  9  9  0  0  0  0  0  0  0  0999 V2000
   -2.8360   30.3320  -70.0250 C   0  0  2  0  0  0  0  0  0  0  0  0
   -2.6490   31.5180  -71.0250 C   0  0  0  0  0  0  0  0  0  0  0  0
   -3.1360   30.9000  -68.7810 O   0  0  0  0  0  0  0  0  0  0  0  0
   -3.1830   32.7630  -70.6920 C   0  0  0  0  0  0  0  0  0  0  0  0
   -3.0770   33.8840  -71.5200 C   0  0  0  0  0  0  0  0  0  0  0  0
   -2.4330   33.8070  -72.7350 C   0  0  0  0  0  0  0  0  0  0  0  0
   -1.9080   32.5720  -73.0770 C   0  0  0  0  0  0  0  0  0  0  0  0
   -2.0090   31.4400  -72.2490 C   0  0  0  0  0  0  0  0  0  0  0  0
   -2.0700   29.0490  -69.9170 S   0  0  0  0  0  0  0  0  0  0  0  0
  1  2  1  0
  1  3  1  1
  1  9  1  0
  2  4  1  0
  2  8  1  0
  4  5  1  0
  5  6  1  0
  6  7  1  0
  7  8  1  0
A    1
 C  
A    2
 C1 
A    3
 O1 
A    4
 C2 
A    5
 C3 
A    6
 C4 
A    7
 C5 
A    8
 C6 
A    9
 X  
M  END
>  <pdb_code>  (7) 
5YOD

>  <description>  (7) 
Chain B, NS3 protease [Zika virus]

>  <ref_pdb>  (7) 
x0404_0B

>  <ref_mols>  (7) 
x0404_0B

>  <original SMILES>  (7) 
O[C@H](S)C1CCCCC1

$$$$
BEZ_3
     RDKit          3D

  9  9  0  0  0  0  0  0  0  0999 V2000
  -11.1420    5.7450  -15.5770 C   0  0  2  0  0  0  0  0  0  0  0  0
   -9.8990    5.5680  -16.5310 C   0  0  0  0  0  0  0  0  0  0  0  0
  -10.9410    4.9750  -14.4200 O   0  0  0  0  0  0  0  0  0  0  0  0
   -8.6520    5.8790  -15.9870 C   0  0  0  0  0  0  0  0  0  0  0  0
   -7.4490    5.7570  -16.6780 C   0  0  0  0  0  0  0  0  0  0  0  0
   -7.4500    5.2950  -17.9790 C   0  0  0  0  0  0  0  0  0  0  0  0
   -8.6670    4.9640  -18.5610 C   0  0  0  0  0  0  0  0  0  0  0  0
   -9.8770    5.0900  -17.8530 C   0  0  0  0  0  0  0  0  0  0  0  0
  -12.8080    6.2140  -15.8870 S   0  0  0  0  0  0  0  0  0  0  0  0
  1  2  1  0
  1  3  1  6
  1  9  1  0
  2  4  1  0
  2  8  1  0
  4  5  1  0
  5  6  1  0
  6  7  1  0
  7  8  1  0
A    1
 C  
A    2
 C1 
A    3
 O1 
A    4
 C2 
A    5
 C3 
A    6
 C4 
A    7
 C5 
A    8
 C6 
A    9
 X  
M  END
>  <pdb_code>  (8) 
5YOD

>  <description>  (8) 
Chain B, NS3 protease [Zika virus]

>  <ref_pdb>  (8) 
x0404_0B

>  <ref_mols>  (8) 
x0404_0B

>  <original SMILES>  (8) 
O[C@H](S)C1CCCCC1

$$$$
BEZ_4
     RDKit          3D

  9  9  0  0  0  0  0  0  0  0999 V2000
  -48.1590   10.4890  -38.0880 C   0  0  2  0  0  0  0  0  0  0  0  0
  -48.0330    9.2720  -37.1790 C   0  0  0  0  0  0  0  0  0  0  0  0
  -47.8660   10.0820  -39.3950 O   0  0  0  0  0  0  0  0  0  0  0  0
  -48.4530    8.0220  -37.5980 C   0  0  0  0  0  0  0  0  0  0  0  0
  -48.3230    6.9350  -36.7480 C   0  0  0  0  0  0  0  0  0  0  0  0
  -47.7780    7.1010  -35.4850 C   0  0  0  0  0  0  0  0  0  0  0  0
  -47.3600    8.3530  -35.0680 C   0  0  0  0  0  0  0  0  0  0  0  0
  -47.4870    9.4380  -35.9160 C   0  0  0  0  0  0  0  0  0  0  0  0
  -47.6830   11.5230  -37.6640 S   0  0  0  0  0  0  0  0  0  0  0  0
  1  2  1  0
  1  3  1  6
  1  9  1  0
  2  4  1  0
  2  8  1  0
  4  5  1  0
  5  6  1  0
  6  7  1  0
  7  8  1  0
A    1
 C  
A    2
 C1 
A    3
 O1 
A    4
 C2 
A    5
 C3 
A    6
 C4 
A    7
 C5 
A    8
 C6 
A    9
 X  
M  END
>  <pdb_code>  (9) 
5YOD

>  <description>  (9) 
Chain B, NS3 protease [Zika virus]

>  <ref_pdb>  (9) 
x0404_0B

>  <ref_mols>  (9) 
x0404_0B

>  <original SMILES>  (9) 
O[C@H](S)C1CCCCC1

$$$$
EDO_1
     RDKit          3D

  4  3  0  0  0  0  0  0  0  0999 V2000
  -18.3840   15.7530  -21.7770 C   0  0  0  0  0  0  0  0  0  0  0  0
  -18.7320   14.5500  -22.4750 O   0  0  0  0  0  0  0  0  0  0  0  0
  -17.0760   16.4080  -22.1110 C   0  0  0  0  0  0  0  0  0  0  0  0
  -16.0750   16.3030  -21.1090 O   0  0  0  0  0  0  0  0  0  0  0  0
  1  2  1  0
  1  3  1  0
  3  4  1  0
A    1
 C1 
A    2
 O1 
A    3
 C2 
A    4
 O2 
M  END
>  <pdb_code>  (10) 
6UM3

>  <description>  (10) 
Chain A, NS2B-NS3 PROTEASE fusion [Zika virus]

>  <ref_pdb>  (10) 
x0404_0B

>  <ref_mols>  (10) 
x0404_0B

>  <original SMILES>  (10) 
OCCO

$$$$
YO1_1
     RDKit          3D

 42 46  0  0  0  0  0  0  0  0999 V2000
  -18.9400   -8.1310  -10.4320 S   0  0  1  0  0  0  0  0  0  0  0  0
  -15.6160  -10.6670    0.0560 S   0  0  1  0  0  0  0  0  0  0  0  0
  -19.6800   -5.3100  -13.3680 S   0  0  0  0  0  0  0  0  0  0  0  0
  -14.3210  -10.0170   -3.6110 S   0  0  0  0  0  0  0  0  0  0  0  0
  -19.8290   -9.0600  -11.1020 O   0  0  0  0  0  0  0  0  0  0  0  0
  -17.7020   -8.9040  -10.2100 O   0  0  0  0  0  0  0  0  0  0  0  0
  -15.7670  -12.1210   -0.0690 O   0  0  0  0  0  0  0  0  0  0  0  0
  -15.2860  -10.5300    1.4800 O   0  0  0  0  0  0  0  0  0  0  0  0
  -18.7800   -6.7110  -11.3500 N   0  0  0  0  0  0  0  0  0  0  0  0
  -14.3270  -10.1070   -0.9290 N   0  0  0  0  0  0  0  0  0  0  0  0
  -22.2570   -6.7330   -5.3630 N   0  0  0  0  0  0  0  0  0  0  0  0
  -20.9810   -7.7420   -1.4400 N   0  0  0  0  0  0  0  0  0  0  0  0
  -23.3090   -6.1160   -5.3130 N   0  0  0  0  0  0  0  0  0  0  0  0
  -21.8250   -7.2590   -0.7210 N   0  0  0  0  0  0  0  0  0  0  0  0
  -25.9880   -4.7110   -4.1230 N   0  0  0  0  0  0  0  0  0  0  0  0
  -24.2990   -5.9570    0.5730 N   0  0  0  0  0  0  0  0  0  0  0  0
  -20.7800   -7.3720  -12.8430 N   0  0  0  0  0  0  0  0  0  0  0  0
  -13.5030  -11.9720   -2.4950 N   0  0  0  0  0  0  0  0  0  0  0  0
  -19.7850   -7.7730   -8.8900 C   0  0  0  0  0  0  0  0  0  0  0  0
  -17.1810   -9.8130   -0.3280 C   0  0  0  0  0  0  0  0  0  0  0  0
  -21.0490   -6.9830   -9.0650 C   0  0  0  0  0  0  0  0  0  0  0  0
  -17.6100   -9.6950   -1.7860 C   0  0  0  0  0  0  0  0  0  0  0  0
  -19.3240   -8.2310   -7.5110 C   0  0  0  0  0  0  0  0  0  0  0  0
  -18.0590   -9.2210    0.7820 C   0  0  0  0  0  0  0  0  0  0  0  0
  -21.4340   -7.0660   -6.4900 C   0  0  0  0  0  0  0  0  0  0  0  0
  -19.7760   -8.4090   -1.0220 C   0  0  0  0  0  0  0  0  0  0  0  0
  -21.8560   -6.6380   -7.8530 C   0  0  0  0  0  0  0  0  0  0  0  0
  -18.9100   -8.9910   -2.1350 C   0  0  0  0  0  0  0  0  0  0  0  0
  -20.1610   -7.8640   -6.2960 C   0  0  0  0  0  0  0  0  0  0  0  0
  -19.3670   -8.5160    0.4440 C   0  0  0  0  0  0  0  0  0  0  0  0
  -23.7090   -6.0090   -3.9210 C   0  0  0  0  0  0  0  0  0  0  0  0
  -22.8910   -6.6630   -1.4810 C   0  0  0  0  0  0  0  0  0  0  0  0
  -24.9470   -5.3410   -3.3270 C   0  0  0  0  0  0  0  0  0  0  0  0
  -24.0990   -5.9940   -0.8620 C   0  0  0  0  0  0  0  0  0  0  0  0
  -22.7080   -6.6480   -2.9890 C   0  0  0  0  0  0  0  0  0  0  0  0
  -25.1180   -5.3450   -1.7990 C   0  0  0  0  0  0  0  0  0  0  0  0
  -19.7160   -6.5090  -12.4400 C   0  0  0  0  0  0  0  0  0  0  0  0
  -14.0620  -10.6850   -2.2430 C   0  0  0  0  0  0  0  0  0  0  0  0
  -20.7950   -5.4910  -14.3950 C   0  0  0  0  0  0  0  0  0  0  0  0
  -13.8890  -10.9900   -4.6890 C   0  0  0  0  0  0  0  0  0  0  0  0
  -21.4700   -6.7310  -14.1090 C   0  0  0  0  0  0  0  0  0  0  0  0
  -13.3890  -12.1810   -4.0460 C   0  0  0  0  0  0  0  0  0  0  0  0
  1  5  2  0
  1  6  2  0
  1  9  1  6
  1 19  1  0
  2  7  2  0
  2  8  2  0
  2 10  1  6
  2 20  1  0
  3 37  1  0
  3 39  1  0
  4 38  1  0
  4 40  1  0
  9 37  1  0
 10 38  1  0
 11 13  2  3
 11 25  1  0
 12 14  2  3
 12 26  1  0
 13 31  1  0
 14 32  1  0
 15 33  1  0
 16 34  1  0
 17 37  2  0
 17 41  1  0
 18 38  2  0
 18 42  1  0
 19 23  1  0
 19 21  2  0
 20 22  2  0
 20 24  1  0
 21 27  1  0
 22 28  1  0
 23 29  2  0
 24 30  2  0
 25 27  2  0
 25 29  1  0
 26 28  2  0
 26 30  1  0
 31 35  1  0
 31 33  2  0
 32 35  2  0
 32 34  1  0
 33 36  1  0
 34 36  2  0
 39 41  2  0
 40 42  2  0
A    1
 S01
A    2
 S02
A    3
 S03
A    4
 S04
A    5
 O05
A    6
 O06
A    7
 O07
A    8
 O08
A    9
 N09
A   10
 N10
A   11
 N11
A   12
 N12
A   13
 N13
A   14
 N14
A   15
 N15
A   16
 N16
A   17
 N17
A   18
 N18
A   19
 C19
A   20
 C20
A   21
 C21
A   22
 C22
A   23
 C23
A   24
 C24
A   25
 C25
A   26
 C26
A   27
 C27
A   28
 C28
A   29
 C29
A   30
 C30
A   31
 C31
A   32
 C32
A   33
 C33
A   34
 C34
A   35
 C35
A   36
 C36
A   37
 C37
A   38
 C38
A   39
 C39
A   40
 C40
A   41
 C41
A   42
 C42
M  END
>  <pdb_code>  (11) 
7M1V

>  <description>  (11) 
Chain A, Core protein [Zika virus]

>  <ref_pdb>  (11) 
x0404_0B

>  <ref_mols>  (11) 
x0404_0B

>  <original SMILES>  (11) 
Nc1cc(N)c(N=Nc2ccc(S(=O)(=O)Nc3nccs3)cc2)cc1N=Nc1ccc(S(=O)(=O)Nc2nccs2)cc1

$$$$
DMS_1
     RDKit          3D

  4  3  0  0  0  0  0  0  0  0999 V2000
   -2.7390   -2.9930   -2.9320 O   0  0  0  0  0  0  0  0  0  0  0  0
   -1.1830   -0.8820   -2.6990 C   0  0  0  0  0  0  0  0  0  0  0  0
   -0.2860   -3.1710   -3.8010 C   0  0  0  0  0  0  0  0  0  0  0  0
   -1.3470   -2.6380   -2.4940 S   0  0  0  0  0  0  0  0  0  0  0  0
  1  4  2  0
  4  2  1  6
  3  4  1  0
A    1
 O  
A    2
 C1 
A    3
 C2 
A    4
 S  
M  END
>  <pdb_code>  (12) 
7M1V

>  <description>  (12) 
Chain A, Core protein [Zika virus]

>  <ref_pdb>  (12) 
x0404_0B

>  <ref_mols>  (12) 
x0404_0B

>  <original SMILES>  (12) 
CS(C)=O

$$$$
EDO_2
     RDKit          3D

  4  3  0  0  0  0  0  0  0  0999 V2000
   -9.3900    3.4280   -8.5490 C   0  0  0  0  0  0  0  0  0  0  0  0
   -9.2070    4.4080   -9.5400 O   0  0  0  0  0  0  0  0  0  0  0  0
   -8.9630    3.9050   -7.2140 C   0  0  0  0  0  0  0  0  0  0  0  0
   -9.3790    5.2410   -6.9020 O   0  0  0  0  0  0  0  0  0  0  0  0
  1  2  1  0
  1  3  1  0
  3  4  1  0
A    1
 C1 
A    2
 O1 
A    3
 C2 
A    4
 O2 
M  END
>  <pdb_code>  (13) 
7M1V

>  <description>  (13) 
Chain A, Core protein [Zika virus]

>  <ref_pdb>  (13) 
x0404_0B

>  <ref_mols>  (13) 
x0404_0B

>  <original SMILES>  (13) 
OCCO

$$$$
EDO_3
     RDKit          3D

  4  3  0  0  0  0  0  0  0  0999 V2000
  -22.1100  -18.5110  -19.9600 C   0  0  0  0  0  0  0  0  0  0  0  0
  -20.8240  -18.6900  -19.3270 O   0  0  0  0  0  0  0  0  0  0  0  0
  -22.3880  -17.2220  -20.6780 C   0  0  0  0  0  0  0  0  0  0  0  0
  -22.2420  -16.0520  -19.8850 O   0  0  0  0  0  0  0  0  0  0  0  0
  1  2  1  0
  1  3  1  0
  3  4  1  0
A    1
 C1 
A    2
 O1 
A    3
 C2 
A    4
 O2 
M  END
>  <pdb_code>  (14) 
7M1V

>  <description>  (14) 
Chain A, Core protein [Zika virus]

>  <ref_pdb>  (14) 
x0404_0B

>  <ref_mols>  (14) 
x0404_0B

>  <original SMILES>  (14) 
OCCO

$$$$
EDO_4
     RDKit          3D

  4  3  0  0  0  0  0  0  0  0999 V2000
   -4.8920   12.0070  -16.7190 C   0  0  0  0  0  0  0  0  0  0  0  0
   -3.7830   11.3590  -17.3010 O   0  0  0  0  0  0  0  0  0  0  0  0
   -4.6050   12.9470  -15.6040 C   0  0  0  0  0  0  0  0  0  0  0  0
   -5.1730   14.2740  -15.7120 O   0  0  0  0  0  0  0  0  0  0  0  0
  1  2  1  0
  1  3  1  0
  3  4  1  0
A    1
 C1 
A    2
 O1 
A    3
 C2 
A    4
 O2 
M  END
>  <pdb_code>  (15) 
7M1V

>  <description>  (15) 
Chain A, Core protein [Zika virus]

>  <ref_pdb>  (15) 
x0404_0B

>  <ref_mols>  (15) 
x0404_0B

>  <original SMILES>  (15) 
OCCO

$$$$
EBN_1
     RDKit          3D

 41 42  0  0  0  0  0  0  0  0999 V2000
   -6.8110    3.9230  -12.7650 N   0  0  0  0  0  0  0  0  0  0  0  0
   -8.2270    4.2900  -12.5430 C   0  0  2  0  0  0  0  0  0  0  0  0
   -7.4780    4.4140  -18.8340 C   0  0  0  0  0  0  0  0  0  0  0  0
   -6.4610    5.5220  -18.9110 C   0  0  1  0  0  0  0  0  0  0  0  0
   -3.9850    4.9850  -19.4950 C   0  0  0  0  0  0  0  0  0  0  0  0
   -6.0790    5.9530  -17.5040 C   0  0  0  0  0  0  0  0  0  0  0  0
   -7.3260    6.4760  -16.8060 C   0  0  0  0  0  0  0  0  0  0  0  0
   -8.3070    5.3510  -16.7130 C   0  0  2  0  0  0  0  0  0  0  0  0
   -8.7190    4.9480  -18.0930 C   0  0  0  0  0  0  0  0  0  0  0  0
   -9.4770    5.7660  -15.8530 C   0  0  0  0  0  0  0  0  0  0  0  0
   -6.4240    2.8250  -13.4690 C   0  0  0  0  0  0  0  0  0  0  0  0
   -4.8830    2.6810  -13.6650 C   0  0  2  0  0  0  0  0  0  0  0  0
   -4.2030    1.6000  -12.7790 C   0  0  0  0  0  0  0  0  0  0  0  0
   -3.5460    2.1430  -11.4840 C   0  0  0  0  0  0  0  0  0  0  0  0
   -8.5470    5.4110  -13.5500 C   0  0  0  0  0  0  0  0  0  0  0  0
   -8.1940    6.5740  -13.3520 O   0  0  0  0  0  0  0  0  0  0  0  0
   -5.3110    5.1520  -19.7780 N   0  0  0  0  0  0  0  0  0  0  0  0
   -3.1320    4.7400  -20.5010 N   0  0  0  0  0  0  0  0  0  0  0  0
   -3.4900    5.0590  -18.2460 N   0  0  0  0  0  0  0  0  0  0  0  0
   -9.1710    4.9710  -14.6670 N   0  0  0  0  0  0  0  0  0  0  0  0
   -7.1950    1.9880  -13.9650 O   0  0  0  0  0  0  0  0  0  0  0  0
   -8.4860    4.6610  -11.0890 C   0  0  0  0  0  0  0  0  0  0  0  0
   -2.0090    1.9380  -11.4950 C   0  0  0  0  0  0  0  0  0  0  0  0
   -1.5970    0.4460  -11.4540 C   0  0  0  0  0  0  0  0  0  0  0  0
   -3.7900    4.7130  -14.5100 C   0  0  0  0  0  0  0  0  0  0  0  0
   -3.0450    5.9840  -14.0710 C   0  0  0  0  0  0  0  0  0  0  0  0
   -3.4860    7.1030  -14.7380 C   0  0  0  0  0  0  0  0  0  0  0  0
   -2.8140    7.5120  -15.8800 C   0  0  0  0  0  0  0  0  0  0  0  0
   -3.2480    8.6300  -16.5530 C   0  0  0  0  0  0  0  0  0  0  0  0
   -4.3440    9.3170  -16.0570 C   0  0  0  0  0  0  0  0  0  0  0  0
   -5.0150    8.9100  -14.9080 C   0  0  0  0  0  0  0  0  0  0  0  0
   -4.5790    7.7870  -14.2340 C   0  0  0  0  0  0  0  0  0  0  0  0
   -1.3830   -0.0340  -10.0780 N   0  0  0  0  0  0  0  0  0  0  0  0
   -4.2000    3.9650  -13.4760 N   0  0  0  0  0  0  0  0  0  0  0  0
   -3.9560    4.4300  -15.6990 O   0  0  0  0  0  0  0  0  0  0  0  0
   -8.3270    3.3660  -10.2960 C   0  0  0  0  0  0  0  0  0  0  0  0
   -8.8000    3.5630   -8.8650 C   0  0  0  0  0  0  0  0  0  0  0  0
   -9.1310    2.2090   -8.2590 C   0  0  0  0  0  0  0  0  0  0  0  0
  -10.3130    2.3100   -7.3830 N   0  0  0  0  0  0  0  0  0  0  0  0
   -4.8810   10.6990  -16.8660 Cl  0  0  0  0  0  0  0  0  0  0  0  0
   -6.4280    9.8280  -14.3100 Cl  0  0  0  0  0  0  0  0  0  0  0  0
  1  2  1  0
  1 11  1  0
  2 15  1  0
  2 22  1  1
  3  4  1  0
  3  9  1  0
  4  6  1  0
  4 17  1  1
  5 18  1  0
  5 19  2  0
  5 17  1  0
  6  7  1  0
  7  8  1  0
  8  9  1  0
  8 10  1  1
 10 20  1  0
 11 21  2  0
 11 12  1  0
 12 13  1  1
 12 34  1  0
 13 14  1  0
 14 23  1  0
 15 16  2  0
 15 20  1  0
 22 36  1  0
 23 24  1  0
 24 33  1  0
 25 26  1  0
 25 34  1  0
 25 35  2  0
 26 27  1  0
 27 28  2  0
 27 32  1  0
 28 29  1  0
 29 30  2  0
 30 31  1  0
 30 40  1  0
 31 32  2  0
 31 41  1  0
 36 37  1  0
 37 38  1  0
 38 39  1  0
A    1
 N  
A    2
 CA 
A    3
 CAA
A    4
 CAB
A    5
 CAD
A    6
 CAG
A    7
 CAH
A    8
 CAI
A    9
 CAJ
A   10
 CAK
A   11
 CAV
A   12
 CAX
A   13
 CAY
A   14
 CAZ
A   15
 C  
A   16
 O  
A   17
 NAC
A   18
 NAE
A   19
 NAF
A   20
 NAL
A   21
 OAW
A   22
 CB 
A   23
 CBA
A   24
 CBB
A   25
 CBE
A   26
 CBG
A   27
 CBH
A   28
 CBI
A   29
 CBJ
A   30
 CBK
A   31
 CBM
A   32
 CBO
A   33
 NBC
A   34
 NBD
A   35
 OBF
A   36
 CG 
A   37
 CD 
A   38
 CE 
A   39
 NZ 
A   40
CLL 
A   41
CLN 
M  END
>  <pdb_code>  (16) 
2YOL

>  <description>  (16) 
Chain A, Serine Protease Subunit Ns2b, Serine Protease Ns3 [West Nile virus]

>  <ref_pdb>  (16) 
x0404_0B

>  <ref_mols>  (16) 
x0404_0B

>  <original SMILES>  (16) 
N=C(N)N[C@H]1CC[C@H](CNC(=O)[C@H](CCCCN)NC(=O)[C@H](CCCCN)NC(=O)Cc2ccc(Cl)c(Cl)c2)CC1

$$$$
NKK_1
     RDKit          3D

 42 43  0  0  0  0  0  0  0  0999 V2000
    3.7190   30.9130  -12.2790 N   0  0  0  0  0  0  0  0  0  0  0  0
    3.6400   29.5270  -12.7650 C   0  0  2  0  0  0  0  0  0  0  0  0
    3.2100   31.2560  -11.0970 C   0  0  0  0  0  0  0  0  0  0  0  0
    6.1190   28.3660  -10.1120 C   0  0  2  0  0  0  0  0  0  0  0  0
    5.7830   28.9710   -8.7470 C   0  0  0  0  0  0  0  0  0  0  0  0
    7.6230   28.4390  -10.3820 C   0  0  0  0  0  0  0  0  0  0  0  0
    7.9800   27.7640  -11.7090 C   0  0  0  0  0  0  0  0  0  0  0  0
    9.4930   27.7890  -11.9410 C   0  0  0  0  0  0  0  0  0  0  0  0
    9.8700   27.1540  -13.2820 C   0  0  0  0  0  0  0  0  0  0  0  0
    5.1410   28.4690   -6.4280 C   0  0  2  0  0  0  0  0  0  0  0  0
    6.1980   27.9710   -5.4410 C   0  0  0  0  0  0  0  0  0  0  0  0
    3.7860   27.8470   -6.0820 C   0  0  0  0  0  0  0  0  0  0  0  0
    2.6850   28.2920   -7.0460 C   0  0  0  0  0  0  0  0  0  0  0  0
    4.3330   28.5840  -11.7780 C   0  0  0  0  0  0  0  0  0  0  0  0
    3.9540   27.4240  -11.6290 O   0  0  0  0  0  0  0  0  0  0  0  0
    5.3640   29.1150  -11.1260 N   0  0  0  0  0  0  0  0  0  0  0  0
    9.4410   25.7490  -13.3120 N   0  0  0  0  0  0  0  0  0  0  0  0
    5.5130   28.0820   -7.7960 N   0  0  0  0  0  0  0  0  0  0  0  0
    2.6060   30.4750  -10.3650 O   0  0  0  0  0  0  0  0  0  0  0  0
    5.7710   30.1920   -8.5920 O   0  0  0  0  0  0  0  0  0  0  0  0
    7.4350   28.6280   -5.7160 O   0  0  0  0  0  0  0  0  0  0  0  0
    4.2910   29.3990  -14.1420 C   0  0  0  0  0  0  0  0  0  0  0  0
    2.4400   29.7970   -6.9260 C   0  0  0  0  0  0  0  0  0  0  0  0
    0.2260   30.4030   -7.7250 C   0  0  0  0  0  0  0  0  0  0  0  0
    3.3660   33.7260  -11.6590 C   0  0  0  0  0  0  0  0  0  0  0  0
    3.5010   35.0580  -11.2770 C   0  0  0  0  0  0  0  0  0  0  0  0
    3.6460   35.3910   -9.9350 C   0  0  0  0  0  0  0  0  0  0  0  0
    3.6520   34.3870   -8.9710 C   0  0  0  0  0  0  0  0  0  0  0  0
    3.5110   33.0580   -9.3530 C   0  0  0  0  0  0  0  0  0  0  0  0
    3.3720   32.7250  -10.6970 C   0  0  0  0  0  0  0  0  0  0  0  0
    3.8210   34.7140   -7.6310 C   0  0  0  0  0  0  0  0  0  0  0  0
    3.9830   36.0430   -7.2540 C   0  0  0  0  0  0  0  0  0  0  0  0
    3.8060   36.7200   -9.5590 C   0  0  0  0  0  0  0  0  0  0  0  0
    3.9750   37.0460   -8.2170 C   0  0  0  0  0  0  0  0  0  0  0  0
    1.5210   30.2450   -7.9800 N   0  0  0  0  0  0  0  0  0  0  0  0
   -0.2640   30.1400   -6.5150 N   0  0  0  0  0  0  0  0  0  0  0  0
   -0.5640   30.8800   -8.6830 N   0  0  0  0  0  0  0  0  0  0  0  0
    3.4150   30.0160  -15.2340 C   0  0  0  0  0  0  0  0  0  0  0  0
    4.0220   29.7280  -16.6080 C   0  0  0  0  0  0  0  0  0  0  0  0
    3.1200   30.2180  -17.7420 C   0  0  0  0  0  0  0  0  0  0  0  0
    3.7270   29.8410  -19.0260 N   0  0  0  0  0  0  0  0  0  0  0  0
    6.4070   26.5640   -5.5970 S   0  0  0  0  0  0  0  0  0  0  0  0
  1  2  1  0
  1  3  1  0
  2 14  1  0
  2 22  1  6
  3 19  2  0
  3 30  1  0
  4  5  1  0
  4  6  1  6
  4 16  1  0
  5 18  1  0
  5 20  2  0
  6  7  1  0
  7  8  1  0
  8  9  1  0
  9 17  1  0
 10 12  1  1
 10 11  1  0
 10 18  1  0
 11 21  2  0
 11 42  1  0
 12 13  1  0
 13 23  1  0
 14 15  2  0
 14 16  1  0
 22 38  1  0
 23 35  1  0
 24 36  1  0
 24 37  2  0
 24 35  1  0
 25 30  2  0
 25 26  1  0
 26 27  2  0
 27 28  1  0
 27 33  1  0
 28 31  1  0
 28 29  2  0
 29 30  1  0
 31 32  2  0
 32 34  1  0
 33 34  2  0
 38 39  1  0
 39 40  1  0
 40 41  1  0
A    1
 N  
A    2
 CA 
A    3
 CAA
A    4
 CAM
A    5
 CAN
A    6
 CAP
A    7
 CAQ
A    8
 CAR
A    9
 CAS
A   10
 CAV
A   11
 CAW
A   12
 CAY
A   13
 CAZ
A   14
 C  
A   15
 O  
A   16
 NAL
A   17
 NAT
A   18
 NAU
A   19
 OAB
A   20
 OAO
A   21
 OAX
A   22
 CB 
A   23
 CBA
A   24
 CBC
A   25
 CBF
A   26
 CBG
A   27
 CBH
A   28
 CBI
A   29
 CBJ
A   30
 CBK
A   31
 CBL
A   32
 CBM
A   33
 CBN
A   34
 CBO
A   35
 NBB
A   36
 NBD
A   37
 NBE
A   38
 CG 
A   39
 CD 
A   40
 CE 
A   41
 NZ 
A   42
 X  
M  END
>  <pdb_code>  (17) 
3E90

>  <description>  (17) 
Chain B, NS3 protease [West Nile virus]

>  <ref_pdb>  (17) 
x0404_0B

>  <ref_mols>  (17) 
x0404_0B

>  <original SMILES>  (17) 
N=C(N)NCCC[C@H](NC(=O)[C@H](CCCCN)NC(=O)[C@H](CCCCN)NC(=O)c1ccc2ccccc2c1)C(=O)S

$$$$
NKK_2
     RDKit          3D

 42 43  0  0  0  0  0  0  0  0999 V2000
   -4.2440    4.2690  -14.0760 N   0  0  0  0  0  0  0  0  0  0  0  0
   -4.7020    2.8770  -13.9770 C   0  0  2  0  0  0  0  0  0  0  0  0
   -4.4440    5.0130  -15.1620 C   0  0  0  0  0  0  0  0  0  0  0  0
   -8.1880    4.2020  -13.1950 C   0  0  2  0  0  0  0  0  0  0  0  0
   -8.6320    5.3230  -14.1340 C   0  0  0  0  0  0  0  0  0  0  0  0
   -8.5200    4.6050  -11.7560 C   0  0  0  0  0  0  0  0  0  0  0  0
   -8.2990    3.4700  -10.7520 C   0  0  0  0  0  0  0  0  0  0  0  0
   -8.7150    3.9070   -9.3460 C   0  0  0  0  0  0  0  0  0  0  0  0
   -8.5180    2.7890   -8.3210 C   0  0  0  0  0  0  0  0  0  0  0  0
  -10.3210    6.0860  -15.7120 C   0  0  2  0  0  0  0  0  0  0  0  0
  -11.8270    6.1920  -15.4750 C   0  0  0  0  0  0  0  0  0  0  0  0
  -10.0080    5.6520  -17.1470 C   0  0  0  0  0  0  0  0  0  0  0  0
   -8.5040    5.3880  -17.2540 C   0  0  0  0  0  0  0  0  0  0  0  0
   -6.2220    2.8640  -13.7940 C   0  0  0  0  0  0  0  0  0  0  0  0
   -6.8920    1.8590  -14.0260 O   0  0  0  0  0  0  0  0  0  0  0  0
   -6.7410    4.0150  -13.3810 N   0  0  0  0  0  0  0  0  0  0  0  0
   -9.3330    1.6290   -8.7040 N   0  0  0  0  0  0  0  0  0  0  0  0
   -9.7710    5.0930  -14.7830 N   0  0  0  0  0  0  0  0  0  0  0  0
   -4.9750    4.5970  -16.1910 O   0  0  0  0  0  0  0  0  0  0  0  0
   -7.9500    6.3350  -14.2800 O   0  0  0  0  0  0  0  0  0  0  0  0
  -12.3450    7.2030  -16.3420 O   0  0  0  0  0  0  0  0  0  0  0  0
   -3.9810    2.2120  -12.8030 C   0  0  0  0  0  0  0  0  0  0  0  0
   -8.0290    4.9720  -18.6470 C   0  0  0  0  0  0  0  0  0  0  0  0
   -5.8480    4.5880  -19.6660 C   0  0  0  0  0  0  0  0  0  0  0  0
   -2.9030    6.7410  -14.1510 C   0  0  0  0  0  0  0  0  0  0  0  0
   -2.3770    8.0260  -14.0860 C   0  0  0  0  0  0  0  0  0  0  0  0
   -2.8490    9.0160  -14.9400 C   0  0  0  0  0  0  0  0  0  0  0  0
   -3.8500    8.7170  -15.8580 C   0  0  0  0  0  0  0  0  0  0  0  0
   -4.3740    7.4310  -15.9240 C   0  0  0  0  0  0  0  0  0  0  0  0
   -3.9010    6.4390  -15.0720 C   0  0  0  0  0  0  0  0  0  0  0  0
   -4.3320    9.7120  -16.7010 C   0  0  0  0  0  0  0  0  0  0  0  0
   -3.8110   10.9990  -16.6270 C   0  0  0  0  0  0  0  0  0  0  0  0
   -2.3250   10.3030  -14.8670 C   0  0  0  0  0  0  0  0  0  0  0  0
   -2.8060   11.2960  -15.7130 C   0  0  0  0  0  0  0  0  0  0  0  0
   -6.5640    4.8570  -18.5800 N   0  0  0  0  0  0  0  0  0  0  0  0
   -6.4570    4.4130  -20.8350 N   0  0  0  0  0  0  0  0  0  0  0  0
   -4.5220    4.5190  -19.5740 N   0  0  0  0  0  0  0  0  0  0  0  0
   -2.4820    2.2120  -13.1090 C   0  0  0  0  0  0  0  0  0  0  0  0
   -1.6340    1.7450  -11.9240 C   0  0  0  0  0  0  0  0  0  0  0  0
   -1.9490    0.3040  -11.5220 C   0  0  0  0  0  0  0  0  0  0  0  0
   -1.0680   -0.0700  -10.4060 N   0  0  0  0  0  0  0  0  0  0  0  0
  -12.4790    4.9390  -15.7190 S   0  0  0  0  0  0  0  0  0  0  0  0
  1  2  1  0
  1  3  1  0
  2 14  1  0
  2 22  1  1
  3 19  2  0
  3 30  1  0
  4  5  1  0
  4  6  1  1
  4 16  1  0
  5 18  1  0
  5 20  2  0
  6  7  1  0
  7  8  1  0
  8  9  1  0
  9 17  1  0
 10 12  1  6
 10 11  1  0
 10 18  1  0
 11 21  2  0
 11 42  1  0
 12 13  1  0
 13 23  1  0
 14 15  2  0
 14 16  1  0
 22 38  1  0
 23 35  1  0
 24 36  1  0
 24 37  2  0
 24 35  1  0
 25 30  2  0
 25 26  1  0
 26 27  2  0
 27 28  1  0
 27 33  1  0
 28 31  1  0
 28 29  2  0
 29 30  1  0
 31 32  2  0
 32 34  1  0
 33 34  2  0
 38 39  1  0
 39 40  1  0
 40 41  1  0
A    1
 N  
A    2
 CA 
A    3
 CAA
A    4
 CAM
A    5
 CAN
A    6
 CAP
A    7
 CAQ
A    8
 CAR
A    9
 CAS
A   10
 CAV
A   11
 CAW
A   12
 CAY
A   13
 CAZ
A   14
 C  
A   15
 O  
A   16
 NAL
A   17
 NAT
A   18
 NAU
A   19
 OAB
A   20
 OAO
A   21
 OAX
A   22
 CB 
A   23
 CBA
A   24
 CBC
A   25
 CBF
A   26
 CBG
A   27
 CBH
A   28
 CBI
A   29
 CBJ
A   30
 CBK
A   31
 CBL
A   32
 CBM
A   33
 CBN
A   34
 CBO
A   35
 NBB
A   36
 NBD
A   37
 NBE
A   38
 CG 
A   39
 CD 
A   40
 CE 
A   41
 NZ 
A   42
 X  
M  END
>  <pdb_code>  (18) 
3E90

>  <description>  (18) 
Chain B, NS3 protease [West Nile virus]

>  <ref_pdb>  (18) 
x0404_0B

>  <ref_mols>  (18) 
x0404_0B

>  <original SMILES>  (18) 
N=C(N)NCCC[C@H](NC(=O)[C@H](CCCCN)NC(=O)[C@H](CCCCN)NC(=O)c1ccc2ccccc2c1)C(=O)S

$$$$
GOL_1
     RDKit          3D

  6  5  0  0  0  0  0  0  0  0999 V2000
   -8.8610    4.2220  -12.6740 C   0  0  0  0  0  0  0  0  0  0  0  0
   -9.1730    2.9560  -12.1380 O   0  0  0  0  0  0  0  0  0  0  0  0
   -8.1790    4.1570  -14.0550 C   0  0  2  0  0  0  0  0  0  0  0  0
   -7.4290    2.9740  -14.2990 O   0  0  0  0  0  0  0  0  0  0  0  0
   -7.4440    5.4510  -14.4450 C   0  0  0  0  0  0  0  0  0  0  0  0
   -8.1880    6.5960  -14.0760 O   0  0  0  0  0  0  0  0  0  0  0  0
  1  2  1  0
  1  3  1  0
  3  4  1  1
  3  5  1  0
  5  6  1  0
A    1
 C1 
A    2
 O1 
A    3
 C2 
A    4
 O2 
A    5
 C3 
A    6
 O3 
M  END
>  <pdb_code>  (19) 
3LKW

>  <description>  (19) 
Chain A, fusion protein of nonstructural protein 2B and nonstructural protein 3 [Dengue virus 1 Nauru/West Pac/1974]

>  <ref_pdb>  (19) 
x0404_0B

>  <ref_mols>  (19) 
x0404_0B

>  <original SMILES>  (19) 
OCC(O)CO

$$$$
ADP_1
     RDKit          3D

 27 29  0  0  0  0  0  0  0  0999 V2000
  -37.1760  -12.7630    3.0620 P   0  0  0  0  0  0  0  0  0  0  0  0
  -39.2820  -10.8530    2.9060 P   0  0  0  0  0  0  0  0  0  0  0  0
  -35.2650  -12.6000    1.2110 C   0  0  0  0  0  0  0  0  0  0  0  0
  -36.2580  -13.3690    1.8840 O   0  0  0  0  0  0  0  0  0  0  0  0
  -34.5900  -13.4580    0.1450 C   0  0  1  0  0  0  0  0  0  0  0  0
  -33.9370  -14.5700    0.7670 O   0  0  0  0  0  0  0  0  0  0  0  0
  -35.5800  -14.0450   -0.8590 C   0  0  1  0  0  0  0  0  0  0  0  0
  -35.0190  -13.9120   -2.1670 O   0  0  0  0  0  0  0  0  0  0  0  0
  -35.6760  -15.5140   -0.4950 C   0  0  1  0  0  0  0  0  0  0  0  0
  -35.9680  -16.3350   -1.6280 O   0  0  0  0  0  0  0  0  0  0  0  0
  -34.2900  -15.7770    0.0800 C   0  0  2  0  0  0  0  0  0  0  0  0
  -31.3080  -19.8320    1.4740 N   0  0  0  0  0  0  0  0  0  0  0  0
  -38.0010  -13.8900    3.6220 O   0  0  0  0  0  0  0  0  0  0  0  0
  -40.5210  -11.2190    2.1160 O   0  0  0  0  0  0  0  0  0  0  0  0
  -31.1070  -18.8850    0.5310 C   0  0  0  0  0  0  0  0  0  0  0  0
  -36.3190  -11.9390    3.9820 O   0  0  0  0  0  0  0  0  0  0  0  0
  -39.3540  -11.2360    4.3700 O   0  0  0  0  0  0  0  0  0  0  0  0
  -31.9910  -17.8930    0.2930 N   0  0  0  0  0  0  0  0  0  0  0  0
  -38.1350  -11.7610    2.2360 O   0  0  0  0  0  0  0  0  0  0  0  0
  -38.8080   -9.4500    2.6550 O   0  0  0  0  0  0  0  0  0  0  0  0
  -33.1510  -17.7870    1.0040 C   0  0  0  0  0  0  0  0  0  0  0  0
  -33.4380  -18.7840    2.0490 C   0  0  0  0  0  0  0  0  0  0  0  0
  -32.4210  -19.8510    2.2560 C   0  0  0  0  0  0  0  0  0  0  0  0
  -32.5930  -20.8150    3.1950 N   0  0  0  0  0  0  0  0  0  0  0  0
  -34.6310  -18.4470    2.5800 N   0  0  0  0  0  0  0  0  0  0  0  0
  -35.0680  -17.3330    1.9370 C   0  0  0  0  0  0  0  0  0  0  0  0
  -34.1890  -16.9440    0.9940 N   0  0  0  0  0  0  0  0  0  0  0  0
  1  4  1  0
  1 13  1  0
  1 16  2  0
  1 19  1  0
  2 14  1  0
  2 17  1  0
  2 19  1  0
  2 20  2  0
  5  3  1  1
  3  4  1  0
  5  6  1  0
  5  7  1  0
  6 11  1  0
  7  8  1  6
  7  9  1  0
  9 10  1  6
  9 11  1  0
 11 27  1  1
 12 15  2  0
 12 23  1  0
 15 18  1  0
 18 21  2  0
 21 22  1  0
 21 27  1  0
 22 23  2  0
 22 25  1  0
 23 24  1  0
 25 26  2  0
 26 27  1  0
A    1
 PA 
A    2
 PB 
A    3
 C5'
A    4
 O5'
A    5
 C4'
A    6
 O4'
A    7
 C3'
A    8
 O3'
A    9
 C2'
A   10
 O2'
A   11
 C1'
A   12
 N1 
A   13
 O1A
A   14
 O1B
A   15
 C2 
A   16
 O2A
A   17
 O2B
A   18
 N3 
A   19
 O3A
A   20
 O3B
A   21
 C4 
A   22
 C5 
A   23
 C6 
A   24
 N6 
A   25
 N7 
A   26
 C8 
A   27
 N9 
M  END
>  <pdb_code>  (20) 
2WHX

>  <description>  (20) 
Chain A, Serine Protease/ntpase/helicase Ns3 [dengue virus type 4]

>  <ref_pdb>  (20) 
x0404_0B

>  <ref_mols>  (20) 
x0404_0B

>  <original SMILES>  (20) 
Nc1ncnc2c1ncn2[C@@H]1O[C@H](COP(=O)(O)OP(=O)(O)O)[C@@H](O)[C@H]1O

$$$$
GOL_2
     RDKit          3D

  6  5  0  0  0  0  0  0  0  0999 V2000
  -35.0380   -5.1390   25.7870 C   0  0  0  0  0  0  0  0  0  0  0  0
  -34.8870   -5.4750   27.1500 O   0  0  0  0  0  0  0  0  0  0  0  0
  -35.3780   -6.4020   25.0050 C   0  0  1  0  0  0  0  0  0  0  0  0
  -36.6940   -6.3080   24.5000 O   0  0  0  0  0  0  0  0  0  0  0  0
  -34.3630   -6.5980   23.8830 C   0  0  0  0  0  0  0  0  0  0  0  0
  -34.9120   -6.1940   22.6540 O   0  0  0  0  0  0  0  0  0  0  0  0
  1  2  1  0
  1  3  1  0
  3  4  1  6
  3  5  1  0
  5  6  1  0
A    1
 C1 
A    2
 O1 
A    3
 C2 
A    4
 O2 
A    5
 C3 
A    6
 O3 
M  END
>  <pdb_code>  (21) 
2WZQ

>  <description>  (21) 
Chain A, Ns3 Protease-helicase [Dengue virus]

>  <ref_pdb>  (21) 
x0404_0B

>  <ref_mols>  (21) 
x0404_0B

>  <original SMILES>  (21) 
OCC(O)CO

$$$$
GOL_3
     RDKit          3D

  6  5  0  0  0  0  0  0  0  0999 V2000
  -32.7060    4.3810    7.0770 C   0  0  0  0  0  0  0  0  0  0  0  0
  -33.5630    3.2830    6.8630 O   0  0  0  0  0  0  0  0  0  0  0  0
  -32.9030    5.3720    5.9380 C   0  0  1  0  0  0  0  0  0  0  0  0
  -32.0540    5.0130    4.8690 O   0  0  0  0  0  0  0  0  0  0  0  0
  -34.3530    5.2960    5.4790 C   0  0  0  0  0  0  0  0  0  0  0  0
  -34.5180    6.0170    4.2770 O   0  0  0  0  0  0  0  0  0  0  0  0
  1  2  1  0
  1  3  1  0
  3  4  1  6
  3  5  1  0
  5  6  1  0
A    1
 C1 
A    2
 O1 
A    3
 C2 
A    4
 O2 
A    5
 C3 
A    6
 O3 
M  END
>  <pdb_code>  (22) 
5YVJ

>  <description>  (22) 
Chain B, Genome polyprotein [dengue virus type 4]

>  <ref_pdb>  (22) 
x0404_0B

>  <ref_mols>  (22) 
x0404_0B

>  <original SMILES>  (22) 
OCC(O)CO

$$$$
EPE_1
     RDKit          3D

 15 16  0  0  0  0  0  0  0  0999 V2000
  -32.1220   -0.8530   13.1380 N   0  0  0  0  0  0  0  0  0  0  0  0
  -32.4380    2.2140    9.3610 O   0  0  0  0  0  0  0  0  0  0  0  0
  -33.1690   -1.3540   14.0260 C   0  0  0  0  0  0  0  0  0  0  0  0
  -32.4740    1.8110   11.2270 O   0  0  0  0  0  0  0  0  0  0  0  0
  -33.0410   -0.6490   15.3700 C   0  0  0  0  0  0  0  0  0  0  0  0
  -32.8010    0.4600    8.9560 O   0  0  0  0  0  0  0  0  0  0  0  0
  -31.7290   -0.0390   15.4930 N   0  0  0  0  0  0  0  0  0  0  0  0
  -30.5750   -0.7790   15.0330 C   0  0  0  0  0  0  0  0  0  0  0  0
  -30.8450   -1.3530   13.6550 C   0  0  0  0  0  0  0  0  0  0  0  0
  -31.5990    1.4000   15.6570 C   0  0  0  0  0  0  0  0  0  0  0  0
  -31.4820    2.1180   14.3180 C   0  0  0  0  0  0  0  0  0  0  0  0
  -30.9340    3.4010   14.5070 O   0  0  0  0  0  0  0  0  0  0  0  0
  -32.3020   -1.3080   11.7530 C   0  0  0  0  0  0  0  0  0  0  0  0
  -33.0390   -0.2500   10.9380 C   0  0  0  0  0  0  0  0  0  0  0  0
  -32.0490    1.0050   10.0860 S   0  0  2  0  0  0  0  0  0  0  0  0
  1  3  1  0
  1  9  1  0
  1 13  1  0
  2  6  1  0
  2 15  1  0
  3  5  1  0
 15  4  1  1
  5  7  1  0
  6 15  1  0
  7  8  1  0
  7 10  1  0
  8  9  1  0
 10 11  1  0
 11 12  1  0
 13 14  1  0
 14 15  1  0
A    1
 N1 
A    2
 O1S
A    3
 C2 
A    4
 O2S
A    5
 C3 
A    6
 O3S
A    7
 N4 
A    8
 C5 
A    9
 C6 
A   10
 C7 
A   11
 C8 
A   12
 O8 
A   13
 C9 
A   14
 C10
A   15
 S  
M  END
>  <pdb_code>  (23) 
5YVW

>  <description>  (23) 
Chain B, Genome polyprotein [dengue virus type 4]

>  <ref_pdb>  (23) 
x0404_0B

>  <ref_mols>  (23) 
x0404_0B

>  <original SMILES>  (23) 
OCCN1CCN(CCS2(O)OO2)CC1

$$$$
GOL_4
     RDKit          3D

  6  5  0  0  0  0  0  0  0  0999 V2000
  -30.7050    2.8060   11.5900 C   0  0  0  0  0  0  0  0  0  0  0  0
  -31.2300    3.2670   12.8150 O   0  0  0  0  0  0  0  0  0  0  0  0
  -29.2090    2.5550   11.7430 C   0  0  1  0  0  0  0  0  0  0  0  0
  -28.9070    2.3300   13.1020 O   0  0  0  0  0  0  0  0  0  0  0  0
  -28.8110    1.3320   10.9260 C   0  0  0  0  0  0  0  0  0  0  0  0
  -29.1150    1.5560    9.5670 O   0  0  0  0  0  0  0  0  0  0  0  0
  1  2  1  0
  1  3  1  0
  3  4  1  1
  3  5  1  0
  5  6  1  0
A    1
 C1 
A    2
 O1 
A    3
 C2 
A    4
 O2 
A    5
 C3 
A    6
 O3 
M  END
>  <pdb_code>  (24) 
5YVU

>  <description>  (24) 
Chain B, Genome polyprotein [dengue virus type 4]

>  <ref_pdb>  (24) 
x0404_0B

>  <ref_mols>  (24) 
x0404_0B

>  <original SMILES>  (24) 
OCC(O)CO

$$$$
GOL_5
     RDKit          3D

  6  5  0  0  0  0  0  0  0  0999 V2000
  -16.8870   14.1290   -5.3920 C   0  0  0  0  0  0  0  0  0  0  0  0
  -17.2820   15.4680   -5.5990 O   0  0  0  0  0  0  0  0  0  0  0  0
  -16.5510   13.5230   -6.7490 C   0  0  1  0  0  0  0  0  0  0  0  0
  -16.3380   14.5660   -7.6630 O   0  0  0  0  0  0  0  0  0  0  0  0
  -15.3160   12.6310   -6.6750 C   0  0  0  0  0  0  0  0  0  0  0  0
  -14.4060   12.9930   -7.6820 O   0  0  0  0  0  0  0  0  0  0  0  0
  1  2  1  0
  1  3  1  0
  3  4  1  6
  3  5  1  0
  5  6  1  0
A    1
 C1 
A    2
 O1 
A    3
 C2 
A    4
 O2 
A    5
 C3 
A    6
 O3 
M  END
>  <pdb_code>  (25) 
2FOM

>  <description>  (25) 
Chain B, polyprotein [dengue virus type 2]

>  <ref_pdb>  (25) 
x0404_0B

>  <ref_mols>  (25) 
x0404_0B

>  <original SMILES>  (25) 
OCC(O)CO

$$$$
GOL_6
     RDKit          3D

  6  5  0  0  0  0  0  0  0  0999 V2000
  -21.1470   -6.8080   -7.8750 C   0  0  0  0  0  0  0  0  0  0  0  0
  -21.6950   -7.4580   -6.7570 O   0  0  0  0  0  0  0  0  0  0  0  0
  -20.3720   -7.8550   -8.6410 C   0  0  1  0  0  0  0  0  0  0  0  0
  -21.1450   -9.0380   -8.6750 O   0  0  0  0  0  0  0  0  0  0  0  0
  -20.1930   -7.3730  -10.0590 C   0  0  0  0  0  0  0  0  0  0  0  0
  -19.3360   -8.2850  -10.6960 O   0  0  0  0  0  0  0  0  0  0  0  0
  1  2  1  0
  1  3  1  0
  3  4  1  6
  3  5  1  0
  5  6  1  0
A    1
 C1 
A    2
 O1 
A    3
 C2 
A    4
 O2 
A    5
 C3 
A    6
 O3 
M  END
>  <pdb_code>  (26) 
2FOM

>  <description>  (26) 
Chain B, polyprotein [dengue virus type 2]

>  <ref_pdb>  (26) 
x0404_0B

>  <ref_mols>  (26) 
x0404_0B

>  <original SMILES>  (26) 
OCC(O)CO

$$$$
JVJ_1
     RDKit          3D

 33 37  0  0  0  0  0  0  0  0999 V2000
  -10.6200    0.9510  -11.2510 N   0  0  0  0  0  0  0  0  0  0  0  0
  -10.2830   -0.3060  -11.9650 C   0  0  0  0  0  0  0  0  0  0  0  0
  -10.3570   -1.5400  -11.0740 C   0  0  0  0  0  0  0  0  0  0  0  0
  -10.4560   -1.4160   -9.6500 C   0  0  0  0  0  0  0  0  0  0  0  0
  -10.5620   -2.5880   -8.8260 C   0  0  0  0  0  0  0  0  0  0  0  0
  -10.6070   -3.7910   -9.5200 C   0  0  0  0  0  0  0  0  0  0  0  0
  -10.7470   -5.0150   -8.7550 C   0  0  0  0  0  0  0  0  0  0  0  0
   -9.7170   -5.3010   -7.9570 N   0  0  0  0  0  0  0  0  0  0  0  0
   -9.6610   -6.4790   -7.2880 C   0  0  0  0  0  0  0  0  0  0  0  0
  -10.7300   -7.4220   -7.3230 C   0  0  0  0  0  0  0  0  0  0  0  0
  -10.6790   -8.5900   -6.4920 O   0  0  0  0  0  0  0  0  0  0  0  0
  -11.6450   -9.6850   -6.6700 C   0  0  0  0  0  0  0  0  0  0  0  0
  -12.5330   -9.7730   -5.4120 C   0  0  2  0  0  0  0  0  0  0  0  0
  -11.7420  -10.5470   -4.3350 C   0  0  0  0  0  0  0  0  0  0  0  0
  -12.6110  -10.7170   -3.0530 C   0  0  0  0  0  0  0  0  0  0  0  0
  -13.9830  -11.2120   -3.3820 N   0  0  0  0  0  0  0  0  0  0  0  0
  -14.7860  -10.4850   -4.4720 C   0  0  0  0  0  0  0  0  0  0  0  0
  -13.9220  -10.3960   -5.7510 C   0  0  0  0  0  0  0  0  0  0  0  0
  -11.7710   -7.1420   -8.1670 N   0  0  0  0  0  0  0  0  0  0  0  0
  -11.7730   -5.9510   -8.9570 C   0  0  0  0  0  0  0  0  0  0  0  0
  -12.9670   -5.6630   -9.8590 C   0  0  0  0  0  0  0  0  0  0  0  0
  -13.8220   -6.7810  -10.2520 C   0  0  0  0  0  0  0  0  0  0  0  0
  -14.9840   -6.6380  -11.0420 C   0  0  0  0  0  0  0  0  0  0  0  0
  -15.3110   -5.3210  -11.4190 C   0  0  0  0  0  0  0  0  0  0  0  0
  -16.5450   -5.0590  -12.2100 C   0  0  0  0  0  0  0  0  0  0  0  0
  -16.6800   -4.0810  -13.2000 C   0  0  0  0  0  0  0  0  0  0  0  0
  -18.0210   -4.1600  -13.6050 C   0  0  0  0  0  0  0  0  0  0  0  0
  -18.7200   -5.1950  -12.9100 O   0  0  0  0  0  0  0  0  0  0  0  0
  -17.7830   -5.7410  -11.9900 C   0  0  0  0  0  0  0  0  0  0  0  0
  -14.5300   -4.1250  -10.9910 C   0  0  0  0  0  0  0  0  0  0  0  0
  -13.3290   -4.3120  -10.1930 C   0  0  0  0  0  0  0  0  0  0  0  0
  -10.4710   -3.9490  -10.9430 C   0  0  0  0  0  0  0  0  0  0  0  0
  -10.3190   -2.7890  -11.7230 C   0  0  0  0  0  0  0  0  0  0  0  0
  1  2  1  0
  2  3  1  0
  3  4  2  0
  3 33  1  0
  4  5  1  0
  5  6  2  0
  6  7  1  0
  6 32  1  0
  7  8  2  0
  7 20  1  0
  8  9  1  0
  9 10  2  0
 10 11  1  0
 10 19  1  0
 11 12  1  0
 13 12  1  6
 13 14  1  0
 13 18  1  0
 14 15  1  0
 15 16  1  0
 16 17  1  0
 17 18  1  0
 19 20  2  0
 20 21  1  0
 21 22  2  0
 21 31  1  0
 22 23  1  0
 23 24  2  0
 24 25  1  0
 24 30  1  0
 25 26  1  0
 25 29  2  0
 26 27  2  0
 27 28  1  0
 28 29  1  0
 30 31  2  0
 32 33  2  0
A    1
 N1 
A    2
 C2 
A    3
 C3 
A    4
 C4 
A    5
 C5 
A    6
 C6 
A    7
 C7 
A    8
 N8 
A    9
 C9 
A   10
 C10
A   11
 O11
A   12
 C12
A   13
 C13
A   14
 C14
A   15
 C15
A   16
 N16
A   17
 C17
A   18
 C18
A   19
 N19
A   20
 C20
A   21
 C21
A   22
 C22
A   23
 C23
A   24
 C24
A   25
 C25
A   26
 C26
A   27
 C27
A   28
 O28
A   29
 C29
A   30
 C30
A   31
 C31
A   32
 C32
A   33
 C33
M  END
>  <pdb_code>  (27) 
6MO0

>  <description>  (27) 
Chain A, FLAVIVIRUS_NS2B/Peptidase S7 [dengue virus type 2]

>  <ref_pdb>  (27) 
x0404_0B

>  <ref_mols>  (27) 
x0404_0B

>  <original SMILES>  (27) 
NCc1ccc(-c2ncc(OCC3CCNCC3)nc2-c2ccc(-c3ccoc3)cc2)cc1

$$$$
JVJ_2
     RDKit          3D

 33 37  0  0  0  0  0  0  0  0999 V2000
  -45.8650   12.4700  -49.5280 N   0  0  0  0  0  0  0  0  0  0  0  0
  -44.4400   12.8070  -49.4720 C   0  0  0  0  0  0  0  0  0  0  0  0
  -44.1590   13.8680  -50.5350 C   0  0  0  0  0  0  0  0  0  0  0  0
  -45.1810   14.4430  -51.3170 C   0  0  0  0  0  0  0  0  0  0  0  0
  -44.7990   15.4240  -52.2680 C   0  0  0  0  0  0  0  0  0  0  0  0
  -43.4680   15.7850  -52.4280 C   0  0  0  0  0  0  0  0  0  0  0  0
  -43.1640   16.8490  -53.3680 C   0  0  0  0  0  0  0  0  0  0  0  0
  -43.4610   16.6430  -54.6640 N   0  0  0  0  0  0  0  0  0  0  0  0
  -43.1670   17.6060  -55.6040 C   0  0  0  0  0  0  0  0  0  0  0  0
  -42.6020   18.8300  -55.1660 C   0  0  0  0  0  0  0  0  0  0  0  0
  -42.3060   19.8000  -56.1050 O   0  0  0  0  0  0  0  0  0  0  0  0
  -41.5700   20.9120  -55.4970 C   0  0  0  0  0  0  0  0  0  0  0  0
  -42.2270   22.2730  -55.7480 C   0  0  2  0  0  0  0  0  0  0  0  0
  -42.2630   22.4270  -57.2750 C   0  0  0  0  0  0  0  0  0  0  0  0
  -42.7090   23.8400  -57.6950 C   0  0  0  0  0  0  0  0  0  0  0  0
  -42.0060   24.9470  -56.9740 N   0  0  0  0  0  0  0  0  0  0  0  0
  -41.9690   24.7310  -55.4830 C   0  0  0  0  0  0  0  0  0  0  0  0
  -41.2820   23.3640  -55.1890 C   0  0  0  0  0  0  0  0  0  0  0  0
  -42.3410   19.0910  -53.8380 N   0  0  0  0  0  0  0  0  0  0  0  0
  -42.5620   18.0760  -52.9000 C   0  0  0  0  0  0  0  0  0  0  0  0
  -42.2530   18.4600  -51.4230 C   0  0  0  0  0  0  0  0  0  0  0  0
  -41.2510   19.4510  -51.0930 C   0  0  0  0  0  0  0  0  0  0  0  0
  -41.0750   19.9090  -49.7430 C   0  0  0  0  0  0  0  0  0  0  0  0
  -41.8820   19.3920  -48.6680 C   0  0  0  0  0  0  0  0  0  0  0  0
  -41.7450   19.8280  -47.1940 C   0  0  0  0  0  0  0  0  0  0  0  0
  -42.0110   18.9960  -46.0660 C   0  0  0  0  0  0  0  0  0  0  0  0
  -41.8080   19.8370  -44.9250 C   0  0  0  0  0  0  0  0  0  0  0  0
  -41.4450   21.1980  -45.2830 O   0  0  0  0  0  0  0  0  0  0  0  0
  -41.3740   21.1690  -46.7150 C   0  0  0  0  0  0  0  0  0  0  0  0
  -42.9040   18.4170  -49.0050 C   0  0  0  0  0  0  0  0  0  0  0  0
  -43.0860   17.9830  -50.3740 C   0  0  0  0  0  0  0  0  0  0  0  0
  -42.3800   15.2470  -51.7030 C   0  0  0  0  0  0  0  0  0  0  0  0
  -42.7890   14.2300  -50.7690 C   0  0  0  0  0  0  0  0  0  0  0  0
  1  2  1  0
  2  3  1  0
  3  4  2  0
  3 33  1  0
  4  5  1  0
  5  6  2  0
  6  7  1  0
  6 32  1  0
  7  8  2  0
  7 20  1  0
  8  9  1  0
  9 10  2  0
 10 11  1  0
 10 19  1  0
 11 12  1  0
 13 12  1  6
 13 14  1  0
 13 18  1  0
 14 15  1  0
 15 16  1  0
 16 17  1  0
 17 18  1  0
 19 20  2  0
 20 21  1  0
 21 22  2  0
 21 31  1  0
 22 23  1  0
 23 24  2  0
 24 25  1  0
 24 30  1  0
 25 26  1  0
 25 29  2  0
 26 27  2  0
 27 28  1  0
 28 29  1  0
 30 31  2  0
 32 33  2  0
A    1
 N1 
A    2
 C2 
A    3
 C3 
A    4
 C4 
A    5
 C5 
A    6
 C6 
A    7
 C7 
A    8
 N8 
A    9
 C9 
A   10
 C10
A   11
 O11
A   12
 C12
A   13
 C13
A   14
 C14
A   15
 C15
A   16
 N16
A   17
 C17
A   18
 C18
A   19
 N19
A   20
 C20
A   21
 C21
A   22
 C22
A   23
 C23
A   24
 C24
A   25
 C25
A   26
 C26
A   27
 C27
A   28
 O28
A   29
 C29
A   30
 C30
A   31
 C31
A   32
 C32
A   33
 C33
M  END
>  <pdb_code>  (28) 
6MO0

>  <description>  (28) 
Chain A, FLAVIVIRUS_NS2B/Peptidase S7 [dengue virus type 2]

>  <ref_pdb>  (28) 
x0404_0B

>  <ref_mols>  (28) 
x0404_0B

>  <original SMILES>  (28) 
NCc1ccc(-c2ncc(OCC3CCNCC3)nc2-c2ccc(-c3ccoc3)cc2)cc1

$$$$
GOL_7
     RDKit          3D

  6  5  0  0  0  0  0  0  0  0999 V2000
  -16.2860    6.2830   -2.9690 C   0  0  0  0  0  0  0  0  0  0  0  0
  -15.4240    5.2920   -3.4560 O   0  0  0  0  0  0  0  0  0  0  0  0
  -16.1080    7.5470   -3.8110 C   0  0  1  0  0  0  0  0  0  0  0  0
  -15.7480    7.4260   -5.2290 O   0  0  0  0  0  0  0  0  0  0  0  0
  -17.4740    8.1940   -3.6350 C   0  0  0  0  0  0  0  0  0  0  0  0
  -18.3720    7.6630   -4.6140 O   0  0  0  0  0  0  0  0  0  0  0  0
  1  2  1  0
  1  3  1  0
  3  4  1  6
  3  5  1  0
  5  6  1  0
A    1
 C1 
A    2
 O1 
A    3
 C2 
A    4
 O2 
A    5
 C3 
A    6
 O3 
M  END
>  <pdb_code>  (29) 
3WOJ

>  <description>  (29) 
Crystal structure of the DAP BII [Pseudoxanthomonas mexicana]

>  <ref_pdb>  (29) 
x0404_0B

>  <ref_mols>  (29) 
x0404_0B

>  <original SMILES>  (29) 
OCC(O)CO

$$$$
GOL_8
     RDKit          3D

  6  5  0  0  0  0  0  0  0  0999 V2000
  -43.0100  -28.0820   24.9840 C   0  0  0  0  0  0  0  0  0  0  0  0
  -43.7990  -27.9680   23.8010 O   0  0  0  0  0  0  0  0  0  0  0  0
  -42.6570  -29.5120   25.5000 C   0  0  1  0  0  0  0  0  0  0  0  0
  -42.6160  -30.4820   24.4380 O   0  0  0  0  0  0  0  0  0  0  0  0
  -41.3530  -29.4280   26.3830 C   0  0  0  0  0  0  0  0  0  0  0  0
  -40.3010  -30.3640   26.1110 O   0  0  0  0  0  0  0  0  0  0  0  0
  1  2  1  0
  1  3  1  0
  3  4  1  6
  3  5  1  0
  5  6  1  0
A    1
 C1 
A    2
 O1 
A    3
 C2 
A    4
 O2 
A    5
 C3 
A    6
 O3 
M  END
>  <pdb_code>  (30) 
3WOJ

>  <description>  (30) 
Crystal structure of the DAP BII [Pseudoxanthomonas mexicana]

>  <ref_pdb>  (30) 
x0404_0B

>  <ref_mols>  (30) 
x0404_0B

>  <original SMILES>  (30) 
OCC(O)CO

$$$$
GOL_9
     RDKit          3D

  6  5  0  0  0  0  0  0  0  0999 V2000
  -28.9020   -4.3060   -9.7190 C   0  0  0  0  0  0  0  0  0  0  0  0
  -28.9180   -5.7150   -9.4560 O   0  0  0  0  0  0  0  0  0  0  0  0
  -28.2500   -3.7260   -8.4770 C   0  0  1  0  0  0  0  0  0  0  0  0
  -27.0740   -4.5130   -8.2390 O   0  0  0  0  0  0  0  0  0  0  0  0
  -27.9550   -2.2780   -8.7740 C   0  0  0  0  0  0  0  0  0  0  0  0
  -27.2580   -1.6000   -7.7490 O   0  0  0  0  0  0  0  0  0  0  0  0
  1  2  1  0
  1  3  1  0
  3  4  1  6
  3  5  1  0
  5  6  1  0
A    1
 C1 
A    2
 O1 
A    3
 C2 
A    4
 O2 
A    5
 C3 
A    6
 O3 
M  END
>  <pdb_code>  (31) 
3WOJ

>  <description>  (31) 
Crystal structure of the DAP BII [Pseudoxanthomonas mexicana]

>  <ref_pdb>  (31) 
x0404_0B

>  <ref_mols>  (31) 
x0404_0B

>  <original SMILES>  (31) 
OCC(O)CO

$$$$
GOL_10
     RDKit          3D

  6  5  0  0  0  0  0  0  0  0999 V2000
  -18.6750   -9.7240    4.6780 C   0  0  0  0  0  0  0  0  0  0  0  0
  -18.8400  -10.7550    3.6580 O   0  0  0  0  0  0  0  0  0  0  0  0
  -19.3710   -8.4230    4.2490 C   0  0  1  0  0  0  0  0  0  0  0  0
  -20.6780   -8.6880    3.7550 O   0  0  0  0  0  0  0  0  0  0  0  0
  -19.5320   -7.5340    5.4370 C   0  0  0  0  0  0  0  0  0  0  0  0
  -19.9930   -6.2860    5.0000 O   0  0  0  0  0  0  0  0  0  0  0  0
  1  2  1  0
  1  3  1  0
  3  4  1  1
  3  5  1  0
  5  6  1  0
A    1
 C1 
A    2
 O1 
A    3
 C2 
A    4
 O2 
A    5
 C3 
A    6
 O3 
M  END
>  <pdb_code>  (32) 
3WOJ

>  <description>  (32) 
Crystal structure of the DAP BII [Pseudoxanthomonas mexicana]

>  <ref_pdb>  (32) 
x0404_0B

>  <ref_mols>  (32) 
x0404_0B

>  <original SMILES>  (32) 
OCC(O)CO

$$$$
GOL_11
     RDKit          3D

  6  5  0  0  0  0  0  0  0  0999 V2000
  -27.6040  -24.0760    7.3460 C   0  0  0  0  0  0  0  0  0  0  0  0
  -28.0000  -24.9910    8.4490 O   0  0  0  0  0  0  0  0  0  0  0  0
  -27.0130  -22.8810    8.0570 C   0  0  1  0  0  0  0  0  0  0  0  0
  -25.8910  -23.3660    8.7110 O   0  0  0  0  0  0  0  0  0  0  0  0
  -26.5610  -21.6310    7.2660 C   0  0  0  0  0  0  0  0  0  0  0  0
  -26.9920  -21.8340    6.0110 O   0  0  0  0  0  0  0  0  0  0  0  0
  1  2  1  0
  1  3  1  0
  3  4  1  6
  3  5  1  0
  5  6  1  0
A    1
 C1 
A    2
 O1 
A    3
 C2 
A    4
 O2 
A    5
 C3 
A    6
 O3 
M  END
>  <pdb_code>  (33) 
3WOJ

>  <description>  (33) 
Crystal structure of the DAP BII [Pseudoxanthomonas mexicana]

>  <ref_pdb>  (33) 
x0404_0B

>  <ref_mols>  (33) 
x0404_0B

>  <original SMILES>  (33) 
OCC(O)CO

$$$$
GOL_12
     RDKit          3D

  6  5  0  0  0  0  0  0  0  0999 V2000
   10.7150   14.8290    2.5410 C   0  0  0  0  0  0  0  0  0  0  0  0
   11.1560   13.4640    2.3390 O   0  0  0  0  0  0  0  0  0  0  0  0
   11.8310   15.8490    2.3650 C   0  0  1  0  0  0  0  0  0  0  0  0
   11.8650   16.3330    1.0110 O   0  0  0  0  0  0  0  0  0  0  0  0
   11.6840   17.0180    3.3440 C   0  0  0  0  0  0  0  0  0  0  0  0
   11.3170   18.2670    2.7090 O   0  0  0  0  0  0  0  0  0  0  0  0
  1  2  1  0
  1  3  1  0
  3  4  1  6
  3  5  1  0
  5  6  1  0
A    1
 C1 
A    2
 O1 
A    3
 C2 
A    4
 O2 
A    5
 C3 
A    6
 O3 
M  END
>  <pdb_code>  (34) 
3WOJ

>  <description>  (34) 
Crystal structure of the DAP BII [Pseudoxanthomonas mexicana]

>  <ref_pdb>  (34) 
x0404_0B

>  <ref_mols>  (34) 
x0404_0B

>  <original SMILES>  (34) 
OCC(O)CO

$$$$
GOL_13
     RDKit          3D

  6  5  0  0  0  0  0  0  0  0999 V2000
  -21.1030  -15.9200  -20.4100 C   0  0  0  0  0  0  0  0  0  0  0  0
  -20.4920  -15.8820  -21.7240 O   0  0  0  0  0  0  0  0  0  0  0  0
  -21.3350  -14.5040  -19.9030 C   0  0  1  0  0  0  0  0  0  0  0  0
  -22.5130  -13.9180  -20.5300 O   0  0  0  0  0  0  0  0  0  0  0  0
  -21.4820  -14.6620  -18.4040 C   0  0  0  0  0  0  0  0  0  0  0  0
  -21.8670  -13.3670  -17.9720 O   0  0  0  0  0  0  0  0  0  0  0  0
  1  2  1  0
  1  3  1  0
  3  4  1  6
  3  5  1  0
  5  6  1  0
A    1
 C1 
A    2
 O1 
A    3
 C2 
A    4
 O2 
A    5
 C3 
A    6
 O3 
M  END
>  <pdb_code>  (35) 
3WOJ

>  <description>  (35) 
Crystal structure of the DAP BII [Pseudoxanthomonas mexicana]

>  <ref_pdb>  (35) 
x0404_0B

>  <ref_mols>  (35) 
x0404_0B

>  <original SMILES>  (35) 
OCC(O)CO

$$$$
GOL_14
     RDKit          3D

  6  5  0  0  0  0  0  0  0  0999 V2000
  -25.5880   -6.1560  -27.6360 C   0  0  0  0  0  0  0  0  0  0  0  0
  -25.4570   -4.9570  -26.8690 O   0  0  0  0  0  0  0  0  0  0  0  0
  -27.0000   -6.1980  -28.1640 C   0  0  1  0  0  0  0  0  0  0  0  0
  -27.1280   -7.4350  -28.8120 O   0  0  0  0  0  0  0  0  0  0  0  0
  -27.9880   -6.1020  -27.0060 C   0  0  0  0  0  0  0  0  0  0  0  0
  -28.8870   -5.1240  -27.4990 O   0  0  0  0  0  0  0  0  0  0  0  0
  1  2  1  0
  1  3  1  0
  3  4  1  1
  3  5  1  0
  5  6  1  0
A    1
 C1 
A    2
 O1 
A    3
 C2 
A    4
 O2 
A    5
 C3 
A    6
 O3 
M  END
>  <pdb_code>  (36) 
3WOO

>  <description>  (36) 
Crystal structure of the DAP BII hexapeptide complex I [Pseudoxanthomonas mexicana]

>  <ref_pdb>  (36) 
x0404_0B

>  <ref_mols>  (36) 
x0404_0B

>  <original SMILES>  (36) 
OCC(O)CO

$$$$
GOL_15
     RDKit          3D

  6  5  0  0  0  0  0  0  0  0999 V2000
  -20.6380   25.1980  -18.3170 C   0  0  0  0  0  0  0  0  0  0  0  0
  -19.8230   26.1500  -18.9920 O   0  0  0  0  0  0  0  0  0  0  0  0
  -19.8600   24.4330  -17.2250 C   0  0  1  0  0  0  0  0  0  0  0  0
  -19.2420   25.3420  -16.2710 O   0  0  0  0  0  0  0  0  0  0  0  0
  -20.8180   23.5350  -16.4440 C   0  0  0  0  0  0  0  0  0  0  0  0
  -21.9560   23.1990  -17.2580 O   0  0  0  0  0  0  0  0  0  0  0  0
  1  2  1  0
  1  3  1  0
  3  4  1  1
  3  5  1  0
  5  6  1  0
A    1
 C1 
A    2
 O1 
A    3
 C2 
A    4
 O2 
A    5
 C3 
A    6
 O3 
M  END
>  <pdb_code>  (37) 
3WOO

>  <description>  (37) 
Crystal structure of the DAP BII hexapeptide complex I [Pseudoxanthomonas mexicana]

>  <ref_pdb>  (37) 
x0404_0B

>  <ref_mols>  (37) 
x0404_0B

>  <original SMILES>  (37) 
OCC(O)CO

$$$$
GOL_16
     RDKit          3D

  6  5  0  0  0  0  0  0  0  0999 V2000
  -16.7420   21.5450  -15.1700 C   0  0  0  0  0  0  0  0  0  0  0  0
  -15.9140   22.7170  -15.1850 O   0  0  0  0  0  0  0  0  0  0  0  0
  -17.2830   21.3200  -13.7630 C   0  0  1  0  0  0  0  0  0  0  0  0
  -18.0640   20.1060  -13.7930 O   0  0  0  0  0  0  0  0  0  0  0  0
  -16.0800   21.3440  -12.7790 C   0  0  0  0  0  0  0  0  0  0  0  0
  -15.3530   20.0970  -12.7940 O   0  0  0  0  0  0  0  0  0  0  0  0
  1  2  1  0
  1  3  1  0
  3  4  1  6
  3  5  1  0
  5  6  1  0
A    1
 C1 
A    2
 O1 
A    3
 C2 
A    4
 O2 
A    5
 C3 
A    6
 O3 
M  END
>  <pdb_code>  (38) 
3WOO

>  <description>  (38) 
Crystal structure of the DAP BII hexapeptide complex I [Pseudoxanthomonas mexicana]

>  <ref_pdb>  (38) 
x0404_0B

>  <ref_mols>  (38) 
x0404_0B

>  <original SMILES>  (38) 
OCC(O)CO

$$$$
GOL_17
     RDKit          3D

  6  5  0  0  0  0  0  0  0  0999 V2000
  -50.4980  -24.2930   30.8590 C   0  0  0  0  0  0  0  0  0  0  0  0
  -50.9290  -23.0100   31.2870 O   0  0  0  0  0  0  0  0  0  0  0  0
  -49.2940  -24.1270   29.9400 C   0  0  1  0  0  0  0  0  0  0  0  0
  -48.4330  -25.2220   30.2430 O   0  0  0  0  0  0  0  0  0  0  0  0
  -49.6730  -24.1680   28.4540 C   0  0  0  0  0  0  0  0  0  0  0  0
  -49.5130  -25.4850   27.8930 O   0  0  0  0  0  0  0  0  0  0  0  0
  1  2  1  0
  1  3  1  0
  3  4  1  6
  3  5  1  0
  5  6  1  0
A    1
 C1 
A    2
 O1 
A    3
 C2 
A    4
 O2 
A    5
 C3 
A    6
 O3 
M  END
>  <pdb_code>  (39) 
3WOO

>  <description>  (39) 
Crystal structure of the DAP BII hexapeptide complex I [Pseudoxanthomonas mexicana]

>  <ref_pdb>  (39) 
x0404_0B

>  <ref_mols>  (39) 
x0404_0B

>  <original SMILES>  (39) 
OCC(O)CO

$$$$
GOL_18
     RDKit          3D

  6  5  0  0  0  0  0  0  0  0999 V2000
  -49.4700   -9.9160   26.9560 C   0  0  0  0  0  0  0  0  0  0  0  0
  -48.8730   -8.6170   26.8050 O   0  0  0  0  0  0  0  0  0  0  0  0
  -50.4560   -9.8460   28.1150 C   0  0  1  0  0  0  0  0  0  0  0  0
  -51.2260   -8.6130   28.1050 O   0  0  0  0  0  0  0  0  0  0  0  0
  -51.3940  -11.0400   28.0910 C   0  0  0  0  0  0  0  0  0  0  0  0
  -52.1990  -11.0600   29.2800 O   0  0  0  0  0  0  0  0  0  0  0  0
  1  2  1  0
  1  3  1  0
  3  4  1  6
  3  5  1  0
  5  6  1  0
A    1
 C1 
A    2
 O1 
A    3
 C2 
A    4
 O2 
A    5
 C3 
A    6
 O3 
M  END
>  <pdb_code>  (40) 
3WOO

>  <description>  (40) 
Crystal structure of the DAP BII hexapeptide complex I [Pseudoxanthomonas mexicana]

>  <ref_pdb>  (40) 
x0404_0B

>  <ref_mols>  (40) 
x0404_0B

>  <original SMILES>  (40) 
OCC(O)CO

$$$$
GOL_19
     RDKit          3D

  6  5  0  0  0  0  0  0  0  0999 V2000
  -29.7110   -4.6630  -11.6190 C   0  0  0  0  0  0  0  0  0  0  0  0
  -30.0800   -6.0560  -11.5630 O   0  0  0  0  0  0  0  0  0  0  0  0
  -28.9860   -4.3500  -10.3290 C   0  0  1  0  0  0  0  0  0  0  0  0
  -27.8250   -5.1600  -10.0860 O   0  0  0  0  0  0  0  0  0  0  0  0
  -28.5550   -2.8940  -10.3510 C   0  0  0  0  0  0  0  0  0  0  0  0
  -28.0040   -2.4940   -9.1090 O   0  0  0  0  0  0  0  0  0  0  0  0
  1  2  1  0
  1  3  1  0
  3  4  1  6
  3  5  1  0
  5  6  1  0
A    1
 C1 
A    2
 O1 
A    3
 C2 
A    4
 O2 
A    5
 C3 
A    6
 O3 
M  END
>  <pdb_code>  (41) 
3WOO

>  <description>  (41) 
Crystal structure of the DAP BII hexapeptide complex I [Pseudoxanthomonas mexicana]

>  <ref_pdb>  (41) 
x0404_0B

>  <ref_mols>  (41) 
x0404_0B

>  <original SMILES>  (41) 
OCC(O)CO

$$$$
GOL_20
     RDKit          3D

  6  5  0  0  0  0  0  0  0  0999 V2000
   11.8830   25.8490  -17.0170 C   0  0  0  0  0  0  0  0  0  0  0  0
   12.5380   24.7190  -17.6100 O   0  0  0  0  0  0  0  0  0  0  0  0
   10.8570   26.4280  -17.9730 C   0  0  1  0  0  0  0  0  0  0  0  0
   10.5010   27.7320  -17.4970 O   0  0  0  0  0  0  0  0  0  0  0  0
   11.3890   26.4720  -19.4110 C   0  0  0  0  0  0  0  0  0  0  0  0
   12.0430   27.7130  -19.7120 O   0  0  0  0  0  0  0  0  0  0  0  0
  1  2  1  0
  1  3  1  0
  3  4  1  1
  3  5  1  0
  5  6  1  0
A    1
 C1 
A    2
 O1 
A    3
 C2 
A    4
 O2 
A    5
 C3 
A    6
 O3 
M  END
>  <pdb_code>  (42) 
3WOO

>  <description>  (42) 
Crystal structure of the DAP BII hexapeptide complex I [Pseudoxanthomonas mexicana]

>  <ref_pdb>  (42) 
x0404_0B

>  <ref_mols>  (42) 
x0404_0B

>  <original SMILES>  (42) 
OCC(O)CO

$$$$
GOL_21
     RDKit          3D

  6  5  0  0  0  0  0  0  0  0999 V2000
  -40.0210  -30.8080   24.9080 C   0  0  0  0  0  0  0  0  0  0  0  0
  -41.3840  -31.2550   24.7890 O   0  0  0  0  0  0  0  0  0  0  0  0
  -39.4440  -30.3240   23.5500 C   0  0  1  0  0  0  0  0  0  0  0  0
  -40.1520  -29.1340   23.2450 O   0  0  0  0  0  0  0  0  0  0  0  0
  -37.9490  -29.9560   23.5620 C   0  0  0  0  0  0  0  0  0  0  0  0
  -37.3670  -29.6100   22.2760 O   0  0  0  0  0  0  0  0  0  0  0  0
  1  2  1  0
  1  3  1  0
  3  4  1  1
  3  5  1  0
  5  6  1  0
A    1
 C1 
A    2
 O1 
A    3
 C2 
A    4
 O2 
A    5
 C3 
A    6
 O3 
M  END
>  <pdb_code>  (43) 
3WOO

>  <description>  (43) 
Crystal structure of the DAP BII hexapeptide complex I [Pseudoxanthomonas mexicana]

>  <ref_pdb>  (43) 
x0404_0B

>  <ref_mols>  (43) 
x0404_0B

>  <original SMILES>  (43) 
OCC(O)CO

$$$$
GOL_22
     RDKit          3D

  6  5  0  0  0  0  0  0  0  0999 V2000
    2.3110   10.1800  -29.5350 C   0  0  0  0  0  0  0  0  0  0  0  0
    3.5990   10.6450  -30.0320 O   0  0  0  0  0  0  0  0  0  0  0  0
    2.1830   10.4330  -28.0440 C   0  0  1  0  0  0  0  0  0  0  0  0
    3.0280   11.5370  -27.6400 O   0  0  0  0  0  0  0  0  0  0  0  0
    0.7870   10.8550  -27.5870 C   0  0  0  0  0  0  0  0  0  0  0  0
    0.7190   10.6750  -26.1710 O   0  0  0  0  0  0  0  0  0  0  0  0
  1  2  1  0
  1  3  1  0
  3  4  1  6
  3  5  1  0
  5  6  1  0
A    1
 C1 
A    2
 O1 
A    3
 C2 
A    4
 O2 
A    5
 C3 
A    6
 O3 
M  END
>  <pdb_code>  (44) 
3WOO

>  <description>  (44) 
Crystal structure of the DAP BII hexapeptide complex I [Pseudoxanthomonas mexicana]

>  <ref_pdb>  (44) 
x0404_0B

>  <ref_mols>  (44) 
x0404_0B

>  <original SMILES>  (44) 
OCC(O)CO

$$$$
GOL_23
     RDKit          3D

  6  5  0  0  0  0  0  0  0  0999 V2000
   -8.2420   18.9200  -24.9830 C   0  0  0  0  0  0  0  0  0  0  0  0
   -8.5230   18.7570  -23.5580 O   0  0  0  0  0  0  0  0  0  0  0  0
   -8.8870   17.8220  -25.8400 C   0  0  1  0  0  0  0  0  0  0  0  0
  -10.4430   17.8570  -25.8450 O   0  0  0  0  0  0  0  0  0  0  0  0
   -8.0820   17.7540  -27.2040 C   0  0  0  0  0  0  0  0  0  0  0  0
   -6.8690   18.5970  -27.4290 O   0  0  0  0  0  0  0  0  0  0  0  0
  1  2  1  0
  1  3  1  0
  3  4  1  6
  3  5  1  0
  5  6  1  0
A    1
 C1 
A    2
 O1 
A    3
 C2 
A    4
 O2 
A    5
 C3 
A    6
 O3 
M  END
>  <pdb_code>  (45) 
3WOO

>  <description>  (45) 
Crystal structure of the DAP BII hexapeptide complex I [Pseudoxanthomonas mexicana]

>  <ref_pdb>  (45) 
x0404_0B

>  <ref_mols>  (45) 
x0404_0B

>  <original SMILES>  (45) 
OCC(O)CO

$$$$
GOL_24
     RDKit          3D

  6  5  0  0  0  0  0  0  0  0999 V2000
  -20.0820  -12.4300    3.7460 C   0  0  0  0  0  0  0  0  0  0  0  0
  -19.8180  -13.2720    2.5940 O   0  0  0  0  0  0  0  0  0  0  0  0
  -20.4760  -11.1090    3.1320 C   0  0  1  0  0  0  0  0  0  0  0  0
  -21.6890  -11.3660    2.3910 O   0  0  0  0  0  0  0  0  0  0  0  0
  -20.6560  -10.1720    4.2620 C   0  0  0  0  0  0  0  0  0  0  0  0
  -21.0930   -8.9580    3.7440 O   0  0  0  0  0  0  0  0  0  0  0  0
  1  2  1  0
  1  3  1  0
  3  4  1  1
  3  5  1  0
  5  6  1  0
A    1
 C1 
A    2
 O1 
A    3
 C2 
A    4
 O2 
A    5
 C3 
A    6
 O3 
M  END
>  <pdb_code>  (46) 
3WOO

>  <description>  (46) 
Crystal structure of the DAP BII hexapeptide complex I [Pseudoxanthomonas mexicana]

>  <ref_pdb>  (46) 
x0404_0B

>  <ref_mols>  (46) 
x0404_0B

>  <original SMILES>  (46) 
OCC(O)CO

$$$$
GOL_25
     RDKit          3D

  6  5  0  0  0  0  0  0  0  0999 V2000
  -11.4610   -4.7820  -40.7960 C   0  0  0  0  0  0  0  0  0  0  0  0
  -10.1660   -4.6120  -40.2740 O   0  0  0  0  0  0  0  0  0  0  0  0
  -12.1300   -4.6090  -39.4880 C   0  0  1  0  0  0  0  0  0  0  0  0
  -11.2830   -3.6990  -38.8010 O   0  0  0  0  0  0  0  0  0  0  0  0
  -13.4650   -3.9610  -39.6150 C   0  0  0  0  0  0  0  0  0  0  0  0
  -14.1440   -4.1940  -38.3790 O   0  0  0  0  0  0  0  0  0  0  0  0
  1  2  1  0
  1  3  1  0
  3  4  1  1
  3  5  1  0
  5  6  1  0
A    1
 C1 
A    2
 O1 
A    3
 C2 
A    4
 O2 
A    5
 C3 
A    6
 O3 
M  END
>  <pdb_code>  (47) 
3WOO

>  <description>  (47) 
Crystal structure of the DAP BII hexapeptide complex I [Pseudoxanthomonas mexicana]

>  <ref_pdb>  (47) 
x0404_0B

>  <ref_mols>  (47) 
x0404_0B

>  <original SMILES>  (47) 
OCC(O)CO

$$$$
MLT_1
     RDKit          3D

  9  8  0  0  0  0  0  0  0  0999 V2000
    0.8210  -18.3460  -50.4980 C   0  0  0  0  0  0  0  0  0  0  0  0
    0.2650  -17.4340  -51.1860 O   0  0  0  0  0  0  0  0  0  0  0  0
    1.9830  -19.1590  -51.0760 C   0  0  1  0  0  0  0  0  0  0  0  0
    0.3990  -18.5430  -49.3140 O   0  0  0  0  0  0  0  0  0  0  0  0
    1.9030  -20.5970  -50.6410 C   0  0  0  0  0  0  0  0  0  0  0  0
    1.9770  -19.1980  -52.4690 O   0  0  0  0  0  0  0  0  0  0  0  0
    2.9380  -21.5410  -51.2380 C   0  0  0  0  0  0  0  0  0  0  0  0
    3.7930  -22.0870  -50.4650 O   0  0  0  0  0  0  0  0  0  0  0  0
    2.9250  -21.8160  -52.4770 O   0  0  0  0  0  0  0  0  0  0  0  0
  1  2  1  0
  1  3  1  0
  1  4  2  0
  3  5  1  0
  3  6  1  6
  5  7  1  0
  7  8  1  0
  7  9  2  0
A    1
 C1 
A    2
 O1 
A    3
 C2 
A    4
 O2 
A    5
 C3 
A    6
 O3 
A    7
 C4 
A    8
 O4 
A    9
 O5 
M  END
>  <pdb_code>  (48) 
6KXR

>  <description>  (48) 
Crystal structure of wild type Alp1U from the biosynthesis of kinamycins [Streptomyces ambofaciens ATCC 23877]

>  <ref_pdb>  (48) 
x0404_0B

>  <ref_mols>  (48) 
x0404_0B

>  <original SMILES>  (48) 
O=C(O)C[C@@H](O)C(=O)O

$$$$
