ver_1.2
     RDKit          2D

 11 11  0  0  0  0  0  0  0  0999 V2000
    3.0000    0.0000    0.0000 C   0  0  0  0  0  0  0  0  0  0  0  0
    1.5000    0.0000    0.0000 C   0  0  0  0  0  0  0  0  0  0  0  0
    0.7500   -1.2990    0.0000 C   0  0  0  0  0  0  0  0  0  0  0  0
   -0.7500   -1.2990    0.0000 C   0  0  0  0  0  0  0  0  0  0  0  0
   -1.5000   -2.5981    0.0000 O   0  0  0  0  0  0  0  0  0  0  0  0
   -1.5000    0.0000    0.0000 C   0  0  0  0  0  0  0  0  0  0  0  0
   -0.7500    1.2990    0.0000 C   0  0  0  0  0  0  0  0  0  0  0  0
    0.7500    1.2990    0.0000 C   0  0  0  0  0  0  0  0  0  0  0  0
    0.4895    2.7762    0.0000 C   0  0  0  0  0  0  0  0  0  0  0  0
    2.1595    1.8121    0.0000 C   0  0  0  0  0  0  0  0  0  0  0  0
   -1.5000    2.5981    0.0000 C   0  0  0  0  0  0  0  0  0  0  0  0
  1  2  1  0
  2  3  2  0
  3  4  1  0
  4  5  2  0
  4  6  1  0
  6  7  2  0
  7  8  1  0
  8  9  1  0
  8 10  1  0
  7 11  1  0
  8  2  1  0
M  END
>  <ref_url>  (1) 
https://doi.org/10.1101/2022.01.26.477782

>  <submitter_name>  (1) 
Daren Fearon

>  <submitter_email>  (1) 
daren.fearon@diamond.ac.uk

>  <submitter_institution>  (1) 
Diamond Light Source

>  <generation_date>  (1) 
2022-02-02

>  <method>  (1) 
T. Croll docking

>  <default_ref_mols>  (1) 
x0107_0A

$$$$
s-217622
     RDKit          3D

 37 41  0  0  0  0  0  0  0  0999 V2000
    6.3130   -4.1220   24.8390 C   0  0  0  0  0  0  0  0  0  0  0  0
    6.0350    1.0430   17.1420 N   0  0  0  0  0  0  0  0  0  0  0  0
    5.6880   -2.7090   19.7650 O   0  0  0  0  0  0  0  0  0  0  0  0
   10.8920   -2.0560   21.9100 C   0  0  0  0  0  0  0  0  0  0  0  0
    5.8520   -7.6810   25.0300 N   0  0  0  0  0  0  0  0  0  0  0  0
    8.5850    0.6790   20.5440 O   0  0  0  0  0  0  0  0  0  0  0  0
    7.6090   -6.4650   23.8800 C   0  0  0  0  0  0  0  0  0  0  0  0
    5.2890    0.9740   19.2940 N   0  0  0  0  0  0  0  0  0  0  0  0
   13.1460   -0.8210   23.0350 C   0  0  0  0  0  0  0  0  0  0  0  0
    7.9420   -2.7050   23.6780 N   0  0  0  0  0  0  0  0  0  0  0  0
    4.7220   -5.8650   25.8760 C   0  0  0  0  0  0  0  0  0  0  0  0
    4.7580   -7.2390   25.7860 N   0  0  0  0  0  0  0  0  0  0  0  0
    5.1080    1.9660   17.3040 C   0  0  0  0  0  0  0  0  0  0  0  0
    4.6420    1.9370   18.5950 N   0  0  0  0  0  0  0  0  0  0  0  0
    5.8460   -5.4120   25.1310 C   0  0  0  0  0  0  0  0  0  0  0  0
    6.7200   -2.5640   21.7310 N   0  0  0  0  0  0  0  0  0  0  0  0
   10.7250   -0.9010   22.7080 C   0  0  0  0  0  0  0  0  0  0  0  0
    8.2680   -0.9100   22.1580 N   0  0  0  0  0  0  0  0  0  0  0  0
    6.4580   -6.5610   24.6700 C   0  0  0  0  0  0  0  0  0  0  0  0
    7.1990   -1.0470   20.0920 N   0  0  0  0  0  0  0  0  0  0  0  0
    7.4620   -4.0000   24.0300 C   0  0  0  0  0  0  0  0  0  0  0  0
   12.1640   -2.5950   21.6960 C   0  0  0  0  0  0  0  0  0  0  0  0
   11.8680   -0.2950   23.2680 C   0  0  0  0  0  0  0  0  0  0  0  0
   13.2860   -1.9760   22.2550 C   0  0  0  0  0  0  0  0  0  0  0  0
    8.1050   -5.1790   23.5590 C   0  0  0  0  0  0  0  0  0  0  0  0
    6.1140    0.4720   18.3890 C   0  0  0  0  0  0  0  0  0  0  0  0
    7.6420   -2.0690   22.5820 C   0  0  0  0  0  0  0  0  0  0  0  0
    6.4770   -2.1300   20.4870 C   0  0  0  0  0  0  0  0  0  0  0  0
    8.0390   -0.3500   20.9160 C   0  0  0  0  0  0  0  0  0  0  0  0
    3.8000   -8.1920   26.3550 C   0  0  0  0  0  0  0  0  0  0  0  0
    3.6430    2.8070   19.2240 C   0  0  0  0  0  0  0  0  0  0  0  0
    9.3370   -0.3110   22.9930 C   0  0  0  0  0  0  0  0  0  0  0  0
    7.1070   -0.6290   18.6640 C   0  0  0  0  0  0  0  0  0  0  0  0
    9.5210   -5.0640   22.5390 Cl  0  0  0  0  0  0  0  0  0  0  0  0
   12.3050   -3.7100   20.9450 F   0  0  0  0  0  0  0  0  0  0  0  0
   11.7430    0.8100   24.0340 F   0  0  0  0  0  0  0  0  0  0  0  0
   14.5050   -2.4960   22.0380 F   0  0  0  0  0  0  0  0  0  0  0  0
  1 15  1  0
  1 21  2  0
  2 13  2  0
  2 26  1  0
  3 28  2  0
  4 17  2  0
  4 22  1  0
  5 12  1  0
  5 19  2  0
  6 29  2  0
  7 19  1  0
  7 25  2  0
  8 14  1  0
  8 26  2  0
  9 23  2  0
  9 24  1  0
 10 21  1  0
 10 27  2  0
 11 12  1  0
 11 15  2  0
 12 30  1  0
 13 14  1  0
 14 31  1  0
 15 19  1  0
 16 27  1  0
 16 28  1  0
 17 23  1  0
 17 32  1  0
 18 27  1  0
 18 29  1  0
 18 32  1  0
 20 28  1  0
 20 29  1  0
 20 33  1  0
 21 25  1  0
 22 24  2  0
 22 35  1  0
 23 36  1  0
 24 37  1  0
 25 34  1  0
 26 33  1  0
M  END
>  <ID>  (1) 
s-217622

>  <original SMILES>  (1) 
Cn1cnc(Cn2c(=O)[nH]/c(=N\c3cc4cn(C)nc4cc3Cl)n(Cc3cc(F)c(F)cc3F)c2=O)n1

>  <ref_mols>  (1) 
x0107_0A

>  <ref_pdb>  (1) 
s217622_pdb/mpro_s217622_no_lig.pdb

$$$$
