ver_1.2
     RDKit          3D

 14 15  0  0  0  0  0  0  0  0999 V2000
    3.0365    1.3398    0.0079 C   0  0  0  0  0  0  0  0  0  0  0  0
    2.2051    0.1514   -0.0085 N   0  0  0  0  0  0  0  0  0  0  0  0
    2.5950   -1.1335   -0.0327 C   0  0  0  0  0  0  0  0  0  0  0  0
    1.4707   -1.8696   -0.0398 N   0  0  0  0  0  0  0  0  0  0  0  0
    0.3884   -1.0765   -0.0206 C   0  0  0  0  0  0  0  0  0  0  0  0
    0.8551    0.2184   -0.0005 C   0  0  0  0  0  0  0  0  0  0  0  0
   -0.0297    1.2800    0.0223 C   0  0  0  0  0  0  0  0  0  0  0  0
    0.3836    2.4728    0.0409 O   0  0  0  0  0  0  0  0  0  0  0  0
   -1.3514    1.0491    0.0250 N   0  0  0  0  0  0  0  0  0  0  0  0
   -1.8088   -0.2166    0.0053 C   0  0  0  0  0  0  0  0  0  0  0  0
   -3.0559   -0.4631    0.0073 O   0  0  0  0  0  0  0  0  0  0  0  0
   -0.9440   -1.2467   -0.0168 N   0  0  0  0  0  0  0  0  0  0  0  0
   -1.4136   -2.6398   -0.0386 C   0  0  0  0  0  0  0  0  0  0  0  0
   -2.3312    2.1343    0.0487 C   0  0  0  0  0  0  0  0  0  0  0  0
  1  2  1  0
  2  3  1  0
  3  4  2  0
  4  5  1  0
  5  6  2  0
  6  7  1  0
  7  8  2  0
  7  9  1  0
  9 10  1  0
 10 11  2  0
 10 12  1  0
 12 13  1  0
  9 14  1  0
  6  2  1  0
 12  5  1  0
M  END
>  <ref_url>  (1) 
https://github.com/matteoferla/EV-D68-3C-protease

>  <submitter_name>  (1) 
Matteo Ferla

>  <submitter_email>  (1) 
matteo.ferla@stats.ox.ac.uk

>  <submitter_institution>  (1) 
University of Oxford

>  <generation_date>  (1) 
2023-01-01

>  <method>  (1) 
Manual-Submission

>  <Confidence>  (1) 
Human assigned score

>  <∆∆G>  (1) 
Protein-centric difference in Gibbs free energy between single snapshot of bond and unbound—PyRosetta ref2015 scorefunction

>  <comRMSD>  (1) 
Deviation from hits

>  <N_constrained_atoms>  (1) 
Atoms that were free

$$$$
BBV-39947300
     RDKit          3D

 25 26  0  0  0  0  0  0  0  0999 V2000
   -6.6564   -4.1757   -8.9085 O   0  0  0  0  0  0  0  0  0  0  0  0
   -7.7833   -4.3453   -8.1585 C   0  0  0  0  0  0  0  0  0  0  0  0
   -8.6796   -3.2875   -8.0811 C   0  0  0  0  0  0  0  0  0  0  0  0
   -9.8390   -3.4325   -7.3367 C   0  0  0  0  0  0  0  0  0  0  0  0
  -10.0833   -4.6336   -6.6792 C   0  0  0  0  0  0  0  0  0  0  0  0
   -9.1655   -5.6878   -6.7614 C   0  0  0  0  0  0  0  0  0  0  0  0
   -7.9928   -5.5679   -7.5016 C   0  0  0  0  0  0  0  0  0  0  0  0
   -7.0183   -6.5876   -7.6256 N   0  0  0  0  0  0  0  0  0  0  0  0
   -7.1104   -7.7492   -6.7243 C   0  0  0  0  0  0  0  0  0  0  0  0
   -6.3896   -7.6066   -5.4260 C   0  0  0  0  0  0  0  0  0  0  0  0
   -5.5369   -8.4336   -4.7290 C   0  0  0  0  0  0  0  0  0  0  0  0
   -5.1833   -7.7392   -3.5470 C   0  0  0  0  0  0  0  0  0  0  0  0
   -5.8406   -6.5340   -3.5999 C   0  0  0  0  0  0  0  0  0  0  0  0
   -6.5778   -6.4423   -4.7386 O   0  0  0  0  0  0  0  0  0  0  0  0
   -6.7597   -4.8596   -9.6077 H   0  0  0  0  0  0  0  0  0  0  0  0
   -8.4708   -2.3608   -8.6013 H   0  0  0  0  0  0  0  0  0  0  0  0
  -10.5502   -2.6127   -7.2696 H   0  0  0  0  0  0  0  0  0  0  0  0
  -10.9920   -4.7530   -6.0958 H   0  0  0  0  0  0  0  0  0  0  0  0
   -9.4056   -6.6016   -6.2246 H   0  0  0  0  0  0  0  0  0  0  0  0
   -6.1006   -6.1662   -7.4939 H   0  0  0  0  0  0  0  0  0  0  0  0
   -8.1602   -7.9518   -6.4822 H   0  0  0  0  0  0  0  0  0  0  0  0
   -6.7148   -8.6343   -7.2356 H   0  0  0  0  0  0  0  0  0  0  0  0
   -5.2137   -9.4150   -5.0376 H   0  0  0  0  0  0  0  0  0  0  0  0
   -4.5270   -8.0753   -2.7550 H   0  0  0  0  0  0  0  0  0  0  0  0
   -5.8860   -5.6766   -2.9407 H   0  0  0  0  0  0  0  0  0  0  0  0
  1  2  1  0
  2  3  2  0
  3  4  1  0
  4  5  2  0
  5  6  1  0
  6  7  2  0
  7  8  1  0
  8  9  1  0
  9 10  1  0
 10 11  2  0
 11 12  1  0
 12 13  2  0
 13 14  1  0
  7  2  1  0
 14 10  1  0
  1 15  1  0
  3 16  1  0
  4 17  1  0
  5 18  1  0
  6 19  1  0
  8 20  1  0
  9 21  1  0
  9 22  1  0
 11 23  1  0
 12 24  1  0
 13 25  1  0
M  END
>  <ref_pdb>  (1) 
X0147_0A

>  <ref_mols>  (1) 
x1604_0A

>  <original SMILES>  (1) 
Oc1ccccc1NCc1ccco1

>  <Confidence>  (1) 
4.0

>  <∆∆G>  (1) 
-6.239384

>  <comRMSD>  (1) 
0.478129

>  <N_constrained_atoms>  (1) 
10.0

$$$$
Z4915012350
     RDKit          3D

 36 37  0  0  0  0  0  0  0  0999 V2000
   -7.5683   -3.9369   -8.5758 C   0  0  0  0  0  0  0  0  0  0  0  0
   -8.6255   -4.1315   -7.7332 C   0  0  0  0  0  0  0  0  0  0  0  0
   -9.6268   -3.1489   -7.6455 C   0  0  0  0  0  0  0  0  0  0  0  0
  -10.7051   -3.3751   -6.7880 C   0  0  0  0  0  0  0  0  0  0  0  0
  -11.6834   -2.3901   -6.7339 N   0  0  0  0  0  0  0  0  0  0  0  0
  -12.1889   -1.7549   -5.5178 C   0  0  0  0  0  0  0  0  0  0  0  0
  -11.1734   -2.0547   -4.4730 C   0  0  0  0  0  0  0  0  0  0  0  0
  -11.5660   -1.2837   -2.9097 P   0  0  0  0  0  5  0  0  0  0  0  0
  -10.0045   -1.0366   -2.0935 C   0  0  0  0  0  0  0  0  0  0  0  0
  -12.1700    0.3458   -3.2891 C   0  0  0  0  0  0  0  0  0  0  0  0
  -12.5313   -2.0801   -2.0847 O   0  0  0  0  0  0  0  0  0  0  0  0
  -10.7453   -4.5547   -6.0523 C   0  0  0  0  0  0  0  0  0  0  0  0
  -11.5496   -5.2163   -5.1177 C   0  0  0  0  0  0  0  0  0  0  0  0
  -12.7223   -4.6372   -4.6871 C   0  0  0  0  0  0  0  0  0  0  0  0
  -11.0694   -6.5299   -4.6475 N   0  0  0  0  0  0  0  0  0  0  0  0
   -9.8919   -6.6252   -5.3767 O   0  0  0  0  0  0  0  0  0  0  0  0
   -9.7063   -5.4517   -6.2069 C   0  0  0  0  0  0  0  0  0  0  0  0
   -8.6560   -5.3014   -7.0044 N   0  0  0  0  0  0  0  0  0  0  0  0
   -6.6403   -4.2852   -8.1321 H   0  0  0  0  0  0  0  0  0  0  0  0
   -7.6965   -4.4660   -9.5195 H   0  0  0  0  0  0  0  0  0  0  0  0
   -7.5027   -2.8839   -8.7746 H   0  0  0  0  0  0  0  0  0  0  0  0
   -9.5823   -2.2371   -8.2202 H   0  0  0  0  0  0  0  0  0  0  0  0
  -12.4284   -2.5007   -7.4250 H   0  0  0  0  0  0  0  0  0  0  0  0
  -13.1649   -2.1860   -5.2735 H   0  0  0  0  0  0  0  0  0  0  0  0
  -12.2904   -0.6726   -5.6330 H   0  0  0  0  0  0  0  0  0  0  0  0
  -10.2485   -1.5998   -4.8526 H   0  0  0  0  0  0  0  0  0  0  0  0
  -10.9367   -3.0921   -4.2812 H   0  0  0  0  0  0  0  0  0  0  0  0
  -10.0063   -1.4782   -1.0890 H   0  0  0  0  0  0  0  0  0  0  0  0
   -9.1853   -1.5030   -2.6563 H   0  0  0  0  0  0  0  0  0  0  0  0
   -9.7776    0.0317   -2.0049 H   0  0  0  0  0  0  0  0  0  0  0  0
  -11.3963    1.1000   -3.0992 H   0  0  0  0  0  0  0  0  0  0  0  0
  -13.0300    0.6015   -2.6504 H   0  0  0  0  0  0  0  0  0  0  0  0
  -12.4831    0.4232   -4.3353 H   0  0  0  0  0  0  0  0  0  0  0  0
  -13.1757   -4.0392   -5.4895 H   0  0  0  0  0  0  0  0  0  0  0  0
  -12.5315   -3.9528   -3.8546 H   0  0  0  0  0  0  0  0  0  0  0  0
  -13.4389   -5.3929   -4.3426 H   0  0  0  0  0  0  0  0  0  0  0  0
  1  2  1  0
  2  3  2  0
  3  4  1  0
  4  5  1  0
  5  6  1  0
  6  7  1  0
  7  8  1  0
  8  9  1  0
  8 10  1  0
  8 11  2  0
  4 12  2  0
 12 13  1  0
 13 14  1  0
 13 15  2  0
 15 16  1  0
 16 17  1  0
 17 18  2  0
 18  2  1  0
 17 12  1  0
  1 19  1  0
  1 20  1  0
  1 21  1  0
  3 22  1  0
  5 23  1  0
  6 24  1  0
  6 25  1  0
  7 26  1  0
  7 27  1  0
  9 28  1  0
  9 29  1  0
  9 30  1  0
 10 31  1  0
 10 32  1  0
 10 33  1  0
 14 34  1  0
 14 35  1  0
 14 36  1  0
M  END
>  <ref_pdb>  (2) 
X0147_0A

>  <ref_mols>  (2) 
x1594_0A,x1140_0A

>  <original SMILES>  (2) 
CC1=CC(NCCP(C)(C)=O)=C2C(C)=NOC2=N1

>  <Confidence>  (2) 
4.0

>  <∆∆G>  (2) 
-6.307861

>  <comRMSD>  (2) 
0.488421

>  <N_constrained_atoms>  (2) 
8.0

$$$$
PV-002744867915
     RDKit          3D

 19 20  0  0  0  0  0  0  0  0999 V2000
   -6.4121   -6.0998   -8.7815 C   0  0  0  0  0  0  0  0  0  0  0  0
   -7.2305   -5.0654   -8.5315 N   0  0  0  0  0  0  0  0  0  0  0  0
   -8.4055   -5.1064   -7.7598 C   0  0  0  0  0  0  0  0  0  0  0  0
   -9.0583   -3.8883   -7.6887 C   0  0  0  0  0  0  0  0  0  0  0  0
  -10.2445   -3.7412   -6.9724 N   0  0  0  0  0  0  0  0  0  0  0  0
  -10.4209   -4.8850   -6.1389 C   0  0  0  0  0  0  0  0  0  0  0  0
   -9.3627   -5.6568   -6.0423 N   0  0  0  0  0  0  0  0  0  0  0  0
   -9.4836   -6.7445   -5.2706 N   0  0  0  0  0  0  0  0  0  0  0  0
  -10.6862   -6.8550   -4.7226 C   0  0  0  0  0  0  0  0  0  0  0  0
  -11.1784   -8.1287   -3.6900 Cl  0  0  0  0  0  0  0  0  0  0  0  0
  -11.8056   -5.4969   -5.1858 S   0  0  0  0  0  0  0  0  0  0  0  0
   -8.2017   -3.1148   -8.4595 C   0  0  0  0  0  0  0  0  0  0  0  0
   -7.0773   -3.8200   -8.9761 N   0  0  0  0  0  0  0  0  0  0  0  0
   -6.3591   -6.2825   -9.8546 H   0  0  0  0  0  0  0  0  0  0  0  0
   -6.7907   -7.0142   -8.3184 H   0  0  0  0  0  0  0  0  0  0  0  0
   -5.4023   -5.9154   -8.4148 H   0  0  0  0  0  0  0  0  0  0  0  0
   -8.7516   -6.0241   -7.2789 H   0  0  0  0  0  0  0  0  0  0  0  0
  -10.4151   -2.8170   -6.5864 H   0  0  0  0  0  0  0  0  0  0  0  0
   -8.2770   -2.0549   -8.7190 H   0  0  0  0  0  0  0  0  0  0  0  0
  1  2  1  0
  2  3  1  0
  3  4  2  0
  4  5  1  0
  5  6  1  0
  6  7  2  0
  7  8  1  0
  8  9  2  0
  9 10  1  0
  9 11  1  0
  4 12  1  0
 12 13  2  0
 13  2  1  0
 11  6  1  0
  1 14  1  0
  1 15  1  0
  1 16  1  0
  3 17  1  0
  5 18  1  0
 12 19  1  0
M  END
>  <ref_pdb>  (3) 
X0147_0A

>  <ref_mols>  (3) 
x0147_0A

>  <original SMILES>  (3) 
Cn2cc(Nc1nnc(Cl)s1)cn2

>  <Confidence>  (3) 
4.0

>  <∆∆G>  (3) 
-2.563635

>  <comRMSD>  (3) 
1.209574

>  <N_constrained_atoms>  (3) 
9.0

$$$$
BBV-109267590
     RDKit          3D

 12 13  0  0  0  0  0  0  0  0999 V2000
   -7.4046   -6.9836   -6.6550 Cl  0  0  0  0  0  0  0  0  0  0  0  0
   -7.7806   -5.4959   -7.3475 C   0  0  0  0  0  0  0  0  0  0  0  0
   -6.9908   -5.0079   -8.3174 N   0  0  0  0  0  0  0  0  0  0  0  0
   -7.2399   -3.8908   -8.8548 N   0  0  0  0  0  0  0  0  0  0  0  0
   -8.2216   -3.1510   -8.5468 N   0  0  0  0  0  0  0  0  0  0  0  0
   -9.0691   -3.5848   -7.5714 C   0  0  0  0  0  0  0  0  0  0  0  0
  -10.1883   -2.9670   -7.0757 N   0  0  0  0  0  0  0  0  0  0  0  0
  -10.6475   -3.7862   -6.1556 C   0  0  0  0  0  0  0  0  0  0  0  0
   -9.8651   -4.9062   -6.0470 N   0  0  0  0  0  0  0  0  0  0  0  0
   -8.8581   -4.7772   -6.9516 C   0  0  0  0  0  0  0  0  0  0  0  0
  -11.5287   -3.6256   -5.5447 H   0  0  0  0  0  0  0  0  0  0  0  0
  -10.0172   -5.6792   -5.4085 H   0  0  0  0  0  0  0  0  0  0  0  0
  1  2  1  0
  2  3  2  0
  3  4  1  0
  4  5  2  0
  5  6  1  0
  6  7  1  0
  7  8  2  0
  8  9  1  0
  9 10  1  0
 10  2  1  0
 10  6  2  0
  8 11  1  0
  9 12  1  0
M  END
>  <ref_pdb>  (4) 
X0147_0A

>  <ref_mols>  (4) 
x1594_0A

>  <original SMILES>  (4) 
Clc1nnnc2nc[nH]c12

>  <Confidence>  (4) 
4.0

>  <∆∆G>  (4) 
-0.669821

>  <comRMSD>  (4) 
0.573629

>  <N_constrained_atoms>  (4) 
6.0

$$$$
BBV-47667311
     RDKit          3D

 34 35  0  0  0  0  0  0  0  0999 V2000
   -6.3687   -7.2447   -8.2884 C   0  0  0  0  0  0  0  0  0  0  0  0
   -6.8599   -8.0567   -7.2650 C   0  0  0  0  0  0  0  0  0  0  0  0
   -7.0458   -9.4172   -7.3845 C   0  0  0  0  0  0  0  0  0  0  0  0
   -7.5372   -9.9525   -6.2205 C   0  0  0  0  0  0  0  0  0  0  0  0
   -7.6786   -8.9304   -5.3395 O   0  0  0  0  0  0  0  0  0  0  0  0
   -7.2699   -7.7760   -5.9753 C   0  0  0  0  0  0  0  0  0  0  0  0
   -7.3407   -6.5078   -5.2134 C   0  0  0  0  0  0  0  0  0  0  0  0
   -7.5687   -5.3002   -5.8938 N   0  0  0  0  0  0  0  0  0  0  0  0
   -8.4676   -5.3472   -7.0275 C   0  0  1  0  0  0  0  0  0  0  0  0
   -9.8207   -5.0789   -6.5202 C   0  0  0  0  0  0  0  0  0  0  0  0
  -10.8438   -4.4393   -7.1107 C   0  0  0  0  0  0  0  0  0  0  0  0
  -10.3640   -3.1848   -7.5314 C   0  0  0  0  0  0  0  0  0  0  0  0
   -8.8325   -3.1062   -7.6453 C   0  0  0  0  0  0  0  0  0  0  0  0
   -8.1339   -4.3371   -8.1157 C   0  0  1  0  0  0  0  0  0  0  0  0
   -6.7396   -4.1159   -8.3642 O   0  0  0  0  0  0  0  0  0  0  0  0
   -6.8657   -6.2709   -8.2920 H   0  0  0  0  0  0  0  0  0  0  0  0
   -6.5233   -7.7065   -9.2708 H   0  0  0  0  0  0  0  0  0  0  0  0
   -5.2933   -7.0816   -8.1621 H   0  0  0  0  0  0  0  0  0  0  0  0
   -6.8357  -10.0062   -8.2650 H   0  0  0  0  0  0  0  0  0  0  0  0
   -7.8169  -10.9413   -5.8818 H   0  0  0  0  0  0  0  0  0  0  0  0
   -6.4020   -6.4304   -4.6541 H   0  0  0  0  0  0  0  0  0  0  0  0
   -8.1293   -6.6256   -4.4617 H   0  0  0  0  0  0  0  0  0  0  0  0
   -6.6880   -4.8873   -6.1665 H   0  0  0  0  0  0  0  0  0  0  0  0
   -8.4220   -6.3459   -7.4677 H   0  0  0  0  0  0  0  0  0  0  0  0
  -10.2483   -6.0430   -6.2177 H   0  0  0  0  0  0  0  0  0  0  0  0
   -9.6651   -4.5615   -5.5662 H   0  0  0  0  0  0  0  0  0  0  0  0
  -11.2522   -5.0224   -7.9367 H   0  0  0  0  0  0  0  0  0  0  0  0
  -11.6572   -4.2958   -6.3882 H   0  0  0  0  0  0  0  0  0  0  0  0
  -10.6900   -2.4303   -6.8047 H   0  0  0  0  0  0  0  0  0  0  0  0
  -10.8267   -2.8952   -8.4752 H   0  0  0  0  0  0  0  0  0  0  0  0
   -8.5632   -2.2811   -8.3156 H   0  0  0  0  0  0  0  0  0  0  0  0
   -8.4512   -2.8227   -6.6633 H   0  0  0  0  0  0  0  0  0  0  0  0
   -8.5489   -4.6378   -9.0542 H   0  0  0  0  0  0  0  0  0  0  0  0
   -6.7185   -3.3498   -8.9686 H   0  0  0  0  0  0  0  0  0  0  0  0
  1  2  1  0
  2  3  1  0
  3  4  2  0
  4  5  1  0
  5  6  1  0
  6  7  1  0
  7  8  1  0
  8  9  1  0
  9 10  1  0
 10 11  1  0
 11 12  1  0
 12 13  1  0
 13 14  1  0
 14 15  1  0
  6  2  2  0
 14  9  1  0
  1 16  1  0
  1 17  1  0
  1 18  1  0
  3 19  1  0
  4 20  1  0
  7 21  1  0
  7 22  1  0
  8 23  1  0
  9 24  1  1
 10 25  1  0
 10 26  1  0
 11 27  1  0
 11 28  1  0
 12 29  1  0
 12 30  1  0
 13 31  1  0
 13 32  1  0
 14 33  1  6
 15 34  1  0
M  END
>  <ref_pdb>  (5) 
X0147_0A

>  <ref_mols>  (5) 
x1604_0A,x0771_1A

>  <original SMILES>  (5) 
Cc1ccoc1CN[C@@H]1CCCC[C@H]1O

>  <Confidence>  (5) 
4.0

>  <∆∆G>  (5) 
-3.955231

>  <comRMSD>  (5) 
1.989056

>  <N_constrained_atoms>  (5) 
19.0

$$$$
Z2590396248
     RDKit          3D

 27 28  0  0  0  0  0  0  0  0999 V2000
   -9.3612   -2.7297   -7.8452 C   0  0  0  0  0  0  0  0  0  0  0  0
   -9.4152   -3.2971   -6.5933 C   0  0  0  0  0  0  0  0  0  0  0  0
  -10.0540   -2.6758   -5.5319 C   0  0  0  0  0  0  0  0  0  0  0  0
   -9.9196   -3.6692   -4.1483 S   0  0  0  0  0  0  0  0  0  0  0  0
   -9.0331   -4.8294   -5.0672 C   0  0  0  0  0  0  0  0  0  0  0  0
   -8.5422   -6.1070   -4.4058 C   0  0  0  0  0  0  0  0  0  0  0  0
   -7.7495   -6.8623   -5.3499 N   0  0  0  0  0  0  0  0  0  0  0  0
   -6.7055   -7.6210   -4.8830 C   0  0  0  0  0  0  0  0  0  0  0  0
   -6.0847   -8.5319   -5.9266 C   0  0  0  0  0  0  0  0  0  0  0  0
   -6.4731   -9.9444   -5.6370 C   0  0  0  0  0  0  0  0  0  0  0  0
   -7.2180   -9.9082   -4.5111 N   0  0  0  0  0  0  0  0  0  0  0  0
   -7.1544   -8.6746   -3.8688 C   0  0  0  0  0  0  0  0  0  0  0  0
   -7.4214   -8.4949   -2.6934 O   0  0  0  0  0  0  0  0  0  0  0  0
   -8.8345   -4.5195   -6.3310 N   0  0  0  0  0  0  0  0  0  0  0  0
  -10.3622   -2.7101   -8.2810 H   0  0  0  0  0  0  0  0  0  0  0  0
   -8.7032   -3.2991   -8.5151 H   0  0  0  0  0  0  0  0  0  0  0  0
   -8.9897   -1.7062   -7.7925 H   0  0  0  0  0  0  0  0  0  0  0  0
  -10.5682   -1.7241   -5.5168 H   0  0  0  0  0  0  0  0  0  0  0  0
   -7.9606   -5.9868   -3.4967 H   0  0  0  0  0  0  0  0  0  0  0  0
   -9.4020   -6.7329   -4.1289 H   0  0  0  0  0  0  0  0  0  0  0  0
   -7.5835   -6.4269   -6.2467 H   0  0  0  0  0  0  0  0  0  0  0  0
   -5.8964   -7.0344   -4.4209 H   0  0  0  0  0  0  0  0  0  0  0  0
   -4.9884   -8.4414   -5.9515 H   0  0  0  0  0  0  0  0  0  0  0  0
   -6.4384   -8.2386   -6.9229 H   0  0  0  0  0  0  0  0  0  0  0  0
   -7.0634  -10.3624   -6.4664 H   0  0  0  0  0  0  0  0  0  0  0  0
   -5.5736  -10.5661   -5.5115 H   0  0  0  0  0  0  0  0  0  0  0  0
   -7.5775  -10.7180   -4.0097 H   0  0  0  0  0  0  0  0  0  0  0  0
  1  2  1  0
  2  3  2  0
  3  4  1  0
  4  5  1  0
  5  6  1  0
  6  7  1  0
  7  8  1  0
  8  9  1  0
  9 10  1  0
 10 11  1  0
 11 12  1  0
 12 13  2  0
  5 14  2  0
 14  2  1  0
 12  8  1  0
  1 15  1  0
  1 16  1  0
  1 17  1  0
  3 18  1  0
  6 19  1  0
  6 20  1  0
  7 21  1  0
  8 22  1  0
  9 23  1  0
  9 24  1  0
 10 25  1  0
 10 26  1  0
 11 27  1  0
M  END
>  <ref_pdb>  (6) 
X0147_0A

>  <ref_mols>  (6) 
x0771_1A

>  <original SMILES>  (6) 
C1CNC(=O)C1NCC2=NC(C)=CS2

>  <Confidence>  (6) 
4.0

>  <∆∆G>  (6) 
-3.994118

>  <comRMSD>  (6) 
2.8215

>  <N_constrained_atoms>  (6) 
12.0

$$$$
Z412153446
     RDKit          3D

 35 36  0  0  0  0  0  0  0  0999 V2000
   -8.6768   -3.1710   -8.0794 N   0  0  0  0  0  0  0  0  0  0  0  0
   -7.7609   -4.1827   -8.2439 C   0  0  0  0  0  0  0  0  0  0  0  0
   -6.8881   -4.1571   -9.0931 O   0  0  0  0  0  0  0  0  0  0  0  0
   -7.8606   -5.2335   -7.3660 C   0  0  0  0  0  0  0  0  0  0  0  0
   -8.7280   -5.0515   -6.3047 C   0  0  0  0  0  0  0  0  0  0  0  0
   -8.8990   -6.0418   -5.3726 C   0  0  0  0  0  0  0  0  0  0  0  0
   -8.1353   -7.3062   -5.5222 C   0  0  0  0  0  0  0  0  0  0  0  0
   -7.2729   -7.4523   -6.5855 C   0  0  0  0  0  0  0  0  0  0  0  0
   -6.6573   -8.6854   -6.5163 N   0  0  0  0  0  0  0  0  0  0  0  0
   -6.5388   -9.3374   -5.2884 C   0  0  0  0  0  0  0  0  0  0  0  0
   -6.4497  -10.5327   -5.1719 O   0  0  0  0  0  0  0  0  0  0  0  0
   -6.5718   -8.4842   -4.1419 N   0  0  0  0  0  0  0  0  0  0  0  0
   -5.3729   -7.8924   -3.5915 C   0  0  0  0  0  0  0  0  0  0  0  0
   -5.0874   -8.1203   -2.2294 C   0  0  0  0  0  0  0  0  0  0  0  0
   -5.9735   -8.9798   -1.5523 C   0  0  0  0  0  0  0  0  0  0  0  0
   -5.6369   -9.1777   -0.1995 C   0  0  0  0  0  0  0  0  0  0  0  0
   -4.4081   -8.4915    0.4302 C   0  0  0  0  0  0  0  0  0  0  0  0
   -3.9689   -8.7255    2.0813 Cl  0  0  0  0  0  0  0  0  0  0  0  0
   -3.6512   -7.6687   -0.3960 C   0  0  0  0  0  0  0  0  0  0  0  0
   -4.0029   -7.5172   -1.6511 C   0  0  0  0  0  0  0  0  0  0  0  0
   -7.1206   -6.4261   -7.5311 C   0  0  0  0  0  0  0  0  0  0  0  0
   -9.1266   -2.8373   -8.9299 H   0  0  0  0  0  0  0  0  0  0  0  0
   -9.1875   -3.0584   -7.2138 H   0  0  0  0  0  0  0  0  0  0  0  0
   -9.2802   -4.1193   -6.2120 H   0  0  0  0  0  0  0  0  0  0  0  0
   -9.5831   -5.9057   -4.5366 H   0  0  0  0  0  0  0  0  0  0  0  0
   -8.2820   -8.0812   -4.7783 H   0  0  0  0  0  0  0  0  0  0  0  0
   -6.8341   -9.3053   -7.2878 H   0  0  0  0  0  0  0  0  0  0  0  0
   -7.4261   -7.9640   -4.0037 H   0  0  0  0  0  0  0  0  0  0  0  0
   -5.4276   -6.8145   -3.7801 H   0  0  0  0  0  0  0  0  0  0  0  0
   -4.5272   -8.2612   -4.1892 H   0  0  0  0  0  0  0  0  0  0  0  0
   -6.8299   -9.4502   -2.0130 H   0  0  0  0  0  0  0  0  0  0  0  0
   -6.1743   -9.7989    0.5032 H   0  0  0  0  0  0  0  0  0  0  0  0
   -2.7716   -7.1576   -0.0086 H   0  0  0  0  0  0  0  0  0  0  0  0
   -3.3981   -6.8776   -2.2701 H   0  0  0  0  0  0  0  0  0  0  0  0
   -6.4474   -6.5192   -8.3824 H   0  0  0  0  0  0  0  0  0  0  0  0
  1  2  1  0
  2  3  2  0
  2  4  1  0
  4  5  2  0
  5  6  1  0
  6  7  2  0
  7  8  1  0
  8  9  1  0
  9 10  1  0
 10 11  2  0
 10 12  1  0
 12 13  1  0
 13 14  1  0
 14 15  2  0
 15 16  1  0
 16 17  2  0
 17 18  1  0
 17 19  1  0
 19 20  2  0
  8 21  2  0
 21  4  1  0
 20 14  1  0
  1 22  1  0
  1 23  1  0
  5 24  1  0
  6 25  1  0
  7 26  1  0
  9 27  1  0
 12 28  1  0
 13 29  1  0
 13 30  1  0
 15 31  1  0
 16 32  1  0
 19 33  1  0
 20 34  1  0
 21 35  1  0
M  END
>  <ref_pdb>  (7) 
X0147_0A

>  <ref_mols>  (7) 
x1140_0A,x0771_1A

>  <original SMILES>  (7) 
C2(Cl)=CC=C(CNC(=O)NC1=CC(C(N)=O)=CC=C1)C=C2

>  <Confidence>  (7) 
4.0

>  <∆∆G>  (7) 
-7.987554

>  <comRMSD>  (7) 
1.097166

>  <N_constrained_atoms>  (7) 
23.0

$$$$
horrorshow
     RDKit          3D

 56 60  0  0  0  0  0  0  0  0999 V2000
   -6.4093    0.7858   -1.2341 C   0  0  0  0  0  0  0  0  0  0  0  0
   -6.5125   -0.5485   -0.8778 C   0  0  0  0  0  0  0  0  0  0  0  0
   -6.0572   -0.9134    0.1872 O   0  0  0  0  0  0  0  0  0  0  0  0
   -7.1367   -1.3956   -1.7799 C   0  0  0  0  0  0  0  0  0  0  0  0
   -7.2806   -2.7336   -1.3892 C   0  0  0  0  0  0  0  0  0  0  0  0
   -6.4062   -3.8195   -2.0351 C   0  0  0  0  0  0  0  0  0  0  0  0
   -6.0076   -3.7172   -3.2073 O   0  0  0  0  0  0  0  0  0  0  0  0
   -6.0248   -5.0274   -1.2134 C   0  0  0  0  0  0  0  0  0  0  0  0
   -4.6424   -5.6968   -1.5135 C   0  0  0  0  0  0  0  0  0  0  0  0
   -4.9004   -7.0512   -1.9429 C   0  0  0  0  0  0  0  0  0  0  0  0
   -6.1423   -7.2686   -2.2692 C   0  0  0  0  0  0  0  0  0  0  0  0
   -6.3663   -7.9351   -3.4521 C   0  0  0  0  0  0  0  0  0  0  0  0
   -6.1471   -9.2659   -3.5686 C   0  0  0  0  0  0  0  0  0  0  0  0
   -6.5311   -9.6400   -4.9868 C   0  0  0  0  0  0  0  0  0  0  0  0
   -6.9946   -8.3067   -5.5008 C   0  0  0  0  0  0  0  0  0  0  0  0
   -6.8607   -7.3550   -4.6338 C   0  0  0  0  0  0  0  0  0  0  0  0
   -7.2858   -6.0083   -5.1103 C   0  0  0  0  0  0  0  0  0  0  0  0
   -7.6407   -6.2434   -6.6256 C   0  0  0  0  0  0  0  0  0  0  0  0
   -7.6023   -7.8113   -6.7154 C   0  0  0  0  0  0  0  0  0  0  0  0
   -6.8468   -5.6134   -7.7555 N   0  0  0  0  0  0  0  0  0  0  0  0
   -7.2298   -4.4272   -8.0100 N   0  0  0  0  0  0  0  0  0  0  0  0
   -8.5389   -4.3427   -7.5605 C   0  0  0  0  0  0  0  0  0  0  0  0
   -9.4452   -3.3451   -7.8365 C   0  0  0  0  0  0  0  0  0  0  0  0
  -10.7267   -3.4532   -7.2999 C   0  0  0  0  0  0  0  0  0  0  0  0
  -11.0675   -4.5554   -6.5010 C   0  0  0  0  0  0  0  0  0  0  0  0
  -10.1368   -5.5520   -6.2192 C   0  0  0  0  0  0  0  0  0  0  0  0
   -8.8786   -5.4232   -6.7506 C   0  0  0  0  0  0  0  0  0  0  0  0
   -7.0405   -7.3446   -1.1469 N   0  0  0  0  0  0  0  0  0  0  0  0
   -7.2454   -5.9373   -0.8236 C   0  0  0  0  0  0  0  0  0  0  0  0
   -6.3211    1.4150   -0.3435 H   0  0  0  0  0  0  0  0  0  0  0  0
   -5.5270    0.9593   -1.8561 H   0  0  0  0  0  0  0  0  0  0  0  0
   -7.2930    1.0998   -1.7962 H   0  0  0  0  0  0  0  0  0  0  0  0
   -7.9726   -0.9858   -2.3251 H   0  0  0  0  0  0  0  0  0  0  0  0
   -6.3525   -1.4533   -2.5407 H   0  0  0  0  0  0  0  0  0  0  0  0
   -8.3211   -3.0064   -1.5939 H   0  0  0  0  0  0  0  0  0  0  0  0
   -7.1572   -2.7877   -0.3140 H   0  0  0  0  0  0  0  0  0  0  0  0
   -5.8220   -4.5848   -0.2888 H   0  0  0  0  0  0  0  0  0  0  0  0
   -3.9892   -5.7211   -0.6346 H   0  0  0  0  0  0  0  0  0  0  0  0
   -4.1089   -5.1506   -2.2979 H   0  0  0  0  0  0  0  0  0  0  0  0
   -4.2485   -7.2876   -2.7933 H   0  0  0  0  0  0  0  0  0  0  0  0
   -4.6105   -7.7381   -1.1346 H   0  0  0  0  0  0  0  0  0  0  0  0
   -6.4243   -6.2623   -2.6063 H   0  0  0  0  0  0  0  0  0  0  0  0
   -5.7787   -9.9448   -2.8142 H   0  0  0  0  0  0  0  0  0  0  0  0
   -5.6610  -10.0108   -5.5365 H   0  0  0  0  0  0  0  0  0  0  0  0
   -7.3306  -10.3876   -4.9964 H   0  0  0  0  0  0  0  0  0  0  0  0
   -8.1708   -5.6801   -4.5547 H   0  0  0  0  0  0  0  0  0  0  0  0
   -6.5172   -5.2707   -4.9311 H   0  0  0  0  0  0  0  0  0  0  0  0
   -8.6032   -8.2190   -6.6547 H   0  0  0  0  0  0  0  0  0  0  0  0
   -7.0723   -8.1860   -7.5984 H   0  0  0  0  0  0  0  0  0  0  0  0
   -9.1644   -2.5049   -8.4550 H   0  0  0  0  0  0  0  0  0  0  0  0
  -11.4648   -2.6807   -7.5042 H   0  0  0  0  0  0  0  0  0  0  0  0
  -12.0749   -4.6281   -6.0919 H   0  0  0  0  0  0  0  0  0  0  0  0
  -10.4008   -6.3975   -5.5899 H   0  0  0  0  0  0  0  0  0  0  0  0
   -7.9104   -7.7758   -1.4575 H   0  0  0  0  0  0  0  0  0  0  0  0
   -8.1476   -5.5889   -1.3349 H   0  0  0  0  0  0  0  0  0  0  0  0
   -7.4555   -5.8477    0.2455 H   0  0  0  0  0  0  0  0  0  0  0  0
  1  2  1  0
  2  3  2  0
  2  4  1  0
  4  5  1  0
  5  6  1  0
  6  7  2  0
  6  8  1  0
  8  9  1  0
  9 10  1  0
 10 11  1  0
 11 12  1  0
 12 13  2  0
 13 14  1  0
 14 15  1  0
 15 16  2  0
 16 17  1  0
 17 18  1  0
 18 19  1  0
 18 20  1  0
 20 21  2  0
 21 22  1  0
 22 23  2  0
 23 24  1  0
 24 25  2  0
 25 26  1  0
 26 27  2  0
 11 28  1  0
 28 29  1  0
 29  8  1  0
 16 12  1  0
 27 18  1  0
 19 15  1  0
 27 22  1  0
  1 30  1  0
  1 31  1  0
  1 32  1  0
  4 33  1  0
  4 34  1  0
  5 35  1  0
  5 36  1  0
  8 37  1  0
  9 38  1  0
  9 39  1  0
 10 40  1  0
 10 41  1  0
 11 42  1  0
 13 43  1  0
 14 44  1  0
 14 45  1  0
 17 46  1  0
 17 47  1  0
 19 48  1  0
 19 49  1  0
 23 50  1  0
 24 51  1  0
 25 52  1  0
 26 53  1  0
 28 54  1  0
 29 55  1  0
 29 56  1  0
M  END
>  <ref_pdb>  (8) 
X0147_0A

>  <ref_mols>  (8) 
x0147_0A,x1052_0A

>  <original SMILES>  (8) 
O=C(C)CCC(=O)C5CCC(C1=CCC2=C1CC3(C2)N=NC4=C3C=CC=C4)NC5

>  <Confidence>  (8) 
4.0

>  <∆∆G>  (8) 
-4.761953

>  <comRMSD>  (8) 
0.818394

>  <N_constrained_atoms>  (8) 
23.0

$$$$
PV-005832810222
     RDKit          3D

 44 47  0  0  0  0  0  0  0  0999 V2000
   -6.9069   -4.4558   -3.7882 C   0  0  0  0  0  0  0  0  0  0  0  0
   -6.6741   -5.5381   -2.9704 C   0  0  0  0  0  0  0  0  0  0  0  0
   -7.7029   -5.8718   -2.1155 C   0  0  0  0  0  0  0  0  0  0  0  0
   -7.4613   -5.5062   -0.7432 N   0  0  0  0  0  0  0  0  0  0  0  0
   -6.9966   -6.4730    0.1070 C   0  0  0  0  0  0  0  0  0  0  0  0
   -5.6997   -6.8275    0.1819 O   0  0  0  0  0  0  0  0  0  0  0  0
   -8.0099   -7.1483    1.0218 C   0  0  0  0  0  0  0  0  0  0  0  0
   -7.5527   -7.8029    2.2581 C   0  0  0  0  0  0  0  0  0  0  0  0
   -8.5862   -8.4603    3.1396 C   0  0  0  0  0  0  0  0  0  0  0  0
   -9.9070   -8.5019    2.8940 N   0  0  0  0  0  0  0  0  0  0  0  0
  -10.2293   -7.8690    1.7301 C   0  0  0  0  0  0  0  0  0  0  0  0
  -11.5050   -7.7592    1.2373 N   0  0  0  0  0  0  0  0  0  0  0  0
  -11.5958   -7.0904    0.0660 N   0  0  0  0  0  0  0  0  0  0  0  0
  -10.3247   -6.7711   -0.1799 C   0  0  0  0  0  0  0  0  0  0  0  0
   -9.4003   -7.2057    0.7882 C   0  0  0  0  0  0  0  0  0  0  0  0
   -6.2354   -6.6906   -3.7818 N   0  0  0  0  0  0  0  0  0  0  0  0
   -6.1150   -7.9666   -3.2467 C   0  0  0  0  0  0  0  0  0  0  0  0
   -6.6306   -8.9592   -3.7529 O   0  0  0  0  0  0  0  0  0  0  0  0
   -5.3023   -8.1009   -1.9675 C   0  0  0  0  0  0  0  0  0  0  0  0
   -6.0336   -8.9469   -1.0331 C   0  0  0  0  0  0  0  0  0  0  0  0
   -5.4922   -9.2213    0.2312 C   0  0  0  0  0  0  0  0  0  0  0  0
   -4.1599   -8.6279    0.5920 C   0  0  0  0  0  0  0  0  0  0  0  0
   -3.5519   -7.8325   -0.3969 C   0  0  0  0  0  0  0  0  0  0  0  0
   -4.0794   -7.5508   -1.6624 C   0  0  0  0  0  0  0  0  0  0  0  0
   -2.3634   -7.3739    0.0584 O   0  0  0  0  0  0  0  0  0  0  0  0
   -2.4126   -7.7561    1.4527 C   0  0  0  0  0  0  0  0  0  0  0  0
   -3.4378   -8.7381    1.7352 O   0  0  0  0  0  0  0  0  0  0  0  0
   -7.9030   -4.0426   -3.6075 H   0  0  0  0  0  0  0  0  0  0  0  0
   -6.8502   -4.7322   -4.8447 H   0  0  0  0  0  0  0  0  0  0  0  0
   -6.1736   -3.6733   -3.5842 H   0  0  0  0  0  0  0  0  0  0  0  0
   -5.8136   -5.2718   -2.3451 H   0  0  0  0  0  0  0  0  0  0  0  0
   -8.6119   -5.3455   -2.4308 H   0  0  0  0  0  0  0  0  0  0  0  0
   -7.9104   -6.9481   -2.1577 H   0  0  0  0  0  0  0  0  0  0  0  0
   -7.9856   -4.7328   -0.3706 H   0  0  0  0  0  0  0  0  0  0  0  0
   -6.4846   -7.8056    2.5178 H   0  0  0  0  0  0  0  0  0  0  0  0
   -8.2757   -8.9571    4.0675 H   0  0  0  0  0  0  0  0  0  0  0  0
  -12.3485   -8.1237    1.6647 H   0  0  0  0  0  0  0  0  0  0  0  0
  -10.0301   -6.2129   -1.0690 H   0  0  0  0  0  0  0  0  0  0  0  0
   -5.6773   -6.4834   -4.5993 H   0  0  0  0  0  0  0  0  0  0  0  0
   -6.9937   -9.3653   -1.3094 H   0  0  0  0  0  0  0  0  0  0  0  0
   -6.0315   -9.8557    0.9447 H   0  0  0  0  0  0  0  0  0  0  0  0
   -3.5367   -6.9267   -2.3551 H   0  0  0  0  0  0  0  0  0  0  0  0
   -1.4350   -8.1663    1.7333 H   0  0  0  0  0  0  0  0  0  0  0  0
   -2.6031   -6.8567    2.0513 H   0  0  0  0  0  0  0  0  0  0  0  0
  1  2  1  0
  2  3  1  0
  3  4  1  0
  4  5  1  0
  5  6  2  0
  5  7  1  0
  7  8  2  0
  8  9  1  0
  9 10  2  0
 10 11  1  0
 11 12  1  0
 12 13  1  0
 13 14  2  0
 14 15  1  0
  2 16  1  0
 16 17  1  0
 17 18  2  0
 17 19  1  0
 19 20  2  0
 20 21  1  0
 21 22  2  0
 22 23  1  0
 23 24  2  0
 23 25  1  0
 25 26  1  0
 26 27  1  0
 15  7  1  0
 24 19  1  0
 15 11  2  0
 27 22  1  0
  1 28  1  0
  1 29  1  0
  1 30  1  0
  2 31  1  0
  3 32  1  0
  3 33  1  0
  4 34  1  0
  8 35  1  0
  9 36  1  0
 12 37  1  0
 14 38  1  0
 16 39  1  0
 20 40  1  0
 21 41  1  0
 24 42  1  0
 26 43  1  0
 26 44  1  0
M  END
>  <ref_pdb>  (9) 
X0147_0A

>  <ref_mols>  (9) 
x1594_0A,x1140_0A

>  <original SMILES>  (9) 
CC(CNC(=O)C1=CC=NC2=C1C=NN2)NC(=O)C4=CC=C3OCOC3=C4

>  <Confidence>  (9) 
3.0

>  <∆∆G>  (9) 
-2.716282

>  <comRMSD>  (9) 
0.451925

>  <N_constrained_atoms>  (9) 
15.0

$$$$
Z2600009240
     RDKit          3D

 44 46  0  0  0  0  0  0  0  0999 V2000
   -4.8461   -8.2200   -1.4133 C   0  0  0  0  0  0  0  0  0  0  0  0
   -5.5921   -7.1057   -1.2718 N   0  0  0  0  0  0  0  0  0  0  0  0
   -5.4923   -5.9271   -2.0395 C   0  0  0  0  0  0  0  0  0  0  0  0
   -6.4044   -5.0149   -1.6099 C   0  0  0  0  0  0  0  0  0  0  0  0
   -6.6083   -3.7335   -2.1197 C   0  0  0  0  0  0  0  0  0  0  0  0
   -6.2298   -3.6040   -3.4157 O   0  0  0  0  0  0  0  0  0  0  0  0
   -7.2011   -2.6813   -1.2471 N   0  0  0  0  0  0  0  0  0  0  0  0
   -7.2666   -1.4861   -1.6927 N   0  0  0  0  0  0  0  0  0  0  0  0
   -6.6361   -0.4917   -0.9622 C   0  0  0  0  0  0  0  0  0  0  0  0
   -5.8901   -0.7324   -0.0120 O   0  0  0  0  0  0  0  0  0  0  0  0
   -6.9503    0.7769   -1.3974 N   0  0  0  0  0  0  0  0  0  0  0  0
   -6.3985    1.8771   -0.9091 C   0  0  0  0  0  0  0  0  0  0  0  0
   -4.9072    2.2311   -0.8117 C   0  0  0  0  0  0  0  0  0  0  0  0
   -4.6335    3.6934   -0.7279 C   0  0  0  0  0  0  0  0  0  0  0  0
   -4.7053    4.1584    0.6429 N   0  0  0  0  0  0  0  0  0  0  0  0
   -5.8749    4.3896    1.3020 C   0  0  0  0  0  0  0  0  0  0  0  0
   -5.5951    4.8168    2.6037 C   0  0  0  0  0  0  0  0  0  0  0  0
   -4.2554    4.8504    2.7407 C   0  0  0  0  0  0  0  0  0  0  0  0
   -3.5159    5.2528    3.9873 C   0  0  0  0  0  0  0  0  0  0  0  0
   -2.0467    5.1940    3.8441 C   0  0  0  0  0  0  0  0  0  0  0  0
   -1.4433    4.8240    2.7112 C   0  0  0  0  0  0  0  0  0  0  0  0
   -2.2878    4.4342    1.5036 C   0  0  0  0  0  0  0  0  0  0  0  0
   -3.6651    4.4493    1.5357 C   0  0  0  0  0  0  0  0  0  0  0  0
   -7.0766   -5.6461   -0.5662 N   0  0  0  0  0  0  0  0  0  0  0  0
   -6.5768   -6.9020   -0.3710 N   0  0  0  0  0  0  0  0  0  0  0  0
   -4.7231   -8.4584   -2.4739 H   0  0  0  0  0  0  0  0  0  0  0  0
   -3.8456   -8.0831   -0.9864 H   0  0  0  0  0  0  0  0  0  0  0  0
   -5.3081   -9.0790   -0.9183 H   0  0  0  0  0  0  0  0  0  0  0  0
   -4.7781   -5.7840   -2.8617 H   0  0  0  0  0  0  0  0  0  0  0  0
   -8.0088   -2.9309   -0.6790 H   0  0  0  0  0  0  0  0  0  0  0  0
   -7.2659   -1.4100   -2.7202 H   0  0  0  0  0  0  0  0  0  0  0  0
   -7.4549    0.8376   -2.2748 H   0  0  0  0  0  0  0  0  0  0  0  0
   -6.8004    2.6911   -1.5288 H   0  0  0  0  0  0  0  0  0  0  0  0
   -6.9069    1.9867    0.0423 H   0  0  0  0  0  0  0  0  0  0  0  0
   -4.4890    1.7391    0.0763 H   0  0  0  0  0  0  0  0  0  0  0  0
   -4.3979    1.8299   -1.6881 H   0  0  0  0  0  0  0  0  0  0  0  0
   -5.3710    4.2425   -1.3316 H   0  0  0  0  0  0  0  0  0  0  0  0
   -3.6362    3.9140   -1.1247 H   0  0  0  0  0  0  0  0  0  0  0  0
   -6.9185    4.2904    0.9751 H   0  0  0  0  0  0  0  0  0  0  0  0
   -6.3250    5.0783    3.3776 H   0  0  0  0  0  0  0  0  0  0  0  0
   -4.0232    5.5566    4.9088 H   0  0  0  0  0  0  0  0  0  0  0  0
   -1.4406    5.4677    4.7012 H   0  0  0  0  0  0  0  0  0  0  0  0
   -0.3657    4.7955    2.6390 H   0  0  0  0  0  0  0  0  0  0  0  0
   -1.8948    4.1242    0.5513 H   0  0  0  0  0  0  0  0  0  0  0  0
  1  2  1  0
  2  3  1  0
  3  4  2  0
  4  5  1  0
  5  6  2  0
  5  7  1  0
  7  8  1  0
  8  9  1  0
  9 10  2  0
  9 11  1  0
 11 12  1  0
 12 13  1  0
 13 14  1  0
 14 15  1  0
 15 16  1  0
 16 17  2  0
 17 18  1  0
 18 19  2  0
 19 20  1  0
 20 21  2  0
 21 22  1  0
 22 23  2  0
  4 24  1  0
 24 25  2  0
 25  2  1  0
 23 15  1  0
 23 18  1  0
  1 26  1  0
  1 27  1  0
  1 28  1  0
  3 29  1  0
  7 30  1  0
  8 31  1  0
 11 32  1  0
 12 33  1  0
 12 34  1  0
 13 35  1  0
 13 36  1  0
 14 37  1  0
 14 38  1  0
 16 39  1  0
 17 40  1  0
 19 41  1  0
 20 42  1  0
 21 43  1  0
 22 44  1  0
M  END
>  <ref_pdb>  (10) 
X0147_0A

>  <ref_mols>  (10) 
x1052_0A,x1454_0B

>  <original SMILES>  (10) 
CN1C=C(C(=O)NNC(=O)NCCCN2C=CC3=CC=CC=C32)N=N1

>  <Confidence>  (10) 
3.0

>  <∆∆G>  (10) 
-9.49301

>  <comRMSD>  (10) 
1.231638

>  <N_constrained_atoms>  (10) 
17.0

$$$$
Z5231077604
     RDKit          3D

 41 42  0  0  0  0  0  0  0  0999 V2000
  -11.2270   -2.5259   -6.9608 C   0  0  0  0  0  0  0  0  0  0  0  0
  -10.1383   -3.3259   -6.6427 C   0  0  0  0  0  0  0  0  0  0  0  0
   -9.2604   -3.6518   -7.6722 C   0  0  0  0  0  0  0  0  0  0  0  0
   -8.1724   -4.4542   -7.3740 C   0  0  0  0  0  0  0  0  0  0  0  0
   -7.2020   -4.8237   -8.4893 C   0  0  0  0  0  0  0  0  0  0  0  0
   -7.9924   -4.8998   -6.0530 C   0  0  0  0  0  0  0  0  0  0  0  0
   -8.8675   -4.5722   -4.9669 C   0  0  0  0  0  0  0  0  0  0  0  0
   -8.5332   -5.1082   -3.5478 C   0  0  0  0  0  0  0  0  0  0  0  0
   -8.4943   -4.4994   -2.2895 C   0  0  0  0  0  0  0  0  0  0  0  0
   -6.8339   -5.5039   -3.8009 S   0  0  0  0  0  6  0  0  0  0  0  0
   -6.7834   -6.4543   -4.8729 O   0  0  0  0  0  0  0  0  0  0  0  0
   -6.1858   -4.2165   -3.7621 O   0  0  0  0  0  0  0  0  0  0  0  0
   -6.3268   -6.4194   -2.4711 N   0  0  0  0  0  0  0  0  0  0  0  0
   -5.1716   -7.3103   -2.7516 C   0  0  0  0  0  0  0  0  0  0  0  0
   -5.1319   -8.3496   -1.8664 C   0  0  0  0  0  0  0  0  0  0  0  0
   -4.2385   -8.0939   -0.6564 C   0  0  0  0  0  0  0  0  0  0  0  0
   -2.9393   -7.5478   -0.9383 C   0  0  0  0  0  0  0  0  0  0  0  0
   -2.2794   -7.3847    0.2321 O   0  0  0  0  0  0  0  0  0  0  0  0
   -3.0853   -7.8024    1.2634 N   0  0  0  0  0  0  0  0  0  0  0  0
   -4.2318   -8.2164    0.7125 C   0  0  0  0  0  0  0  0  0  0  0  0
   -5.6459   -8.8894    1.7064 Br  0  0  0  0  0  0  0  0  0  0  0  0
   -9.9632   -3.7672   -5.3136 C   0  0  0  0  0  0  0  0  0  0  0  0
  -11.3174   -1.6953   -6.2532 H   0  0  0  0  0  0  0  0  0  0  0  0
  -11.1216   -2.1079   -7.9685 H   0  0  0  0  0  0  0  0  0  0  0  0
  -12.1505   -3.1114   -6.9334 H   0  0  0  0  0  0  0  0  0  0  0  0
   -9.4080   -3.3045   -8.6694 H   0  0  0  0  0  0  0  0  0  0  0  0
   -6.7443   -5.8056   -8.4415 H   0  0  0  0  0  0  0  0  0  0  0  0
   -7.7047   -4.7717   -9.4534 H   0  0  0  0  0  0  0  0  0  0  0  0
   -6.3851   -4.1072   -8.5166 H   0  0  0  0  0  0  0  0  0  0  0  0
   -7.1575   -5.5317   -5.7486 H   0  0  0  0  0  0  0  0  0  0  0  0
   -9.0278   -6.0831   -3.4435 H   0  0  0  0  0  0  0  0  0  0  0  0
   -8.8201   -3.4548   -2.3509 H   0  0  0  0  0  0  0  0  0  0  0  0
   -9.0738   -4.9427   -1.4803 H   0  0  0  0  0  0  0  0  0  0  0  0
   -7.4517   -4.4805   -1.9479 H   0  0  0  0  0  0  0  0  0  0  0  0
   -6.0782   -5.7530   -1.7341 H   0  0  0  0  0  0  0  0  0  0  0  0
   -5.2760   -7.6942   -3.7760 H   0  0  0  0  0  0  0  0  0  0  0  0
   -4.2280   -6.7541   -2.7142 H   0  0  0  0  0  0  0  0  0  0  0  0
   -6.1445   -8.5554   -1.5002 H   0  0  0  0  0  0  0  0  0  0  0  0
   -4.8316   -9.2584   -2.3911 H   0  0  0  0  0  0  0  0  0  0  0  0
   -2.4137   -7.2609   -1.8302 H   0  0  0  0  0  0  0  0  0  0  0  0
  -10.6861   -3.4703   -4.5550 H   0  0  0  0  0  0  0  0  0  0  0  0
  1  2  1  0
  2  3  2  0
  3  4  1  0
  4  5  1  0
  4  6  2  0
  6  7  1  0
  7  8  1  0
  8  9  1  0
  8 10  1  0
 10 11  2  0
 10 12  2  0
 10 13  1  0
 13 14  1  0
 14 15  1  0
 15 16  1  0
 16 17  2  0
 17 18  1  0
 18 19  1  0
 19 20  2  0
 20 21  1  0
  7 22  2  0
 22  2  1  0
 20 16  1  0
  1 23  1  0
  1 24  1  0
  1 25  1  0
  3 26  1  0
  5 27  1  0
  5 28  1  0
  5 29  1  0
  6 30  1  0
  8 31  1  0
  9 32  1  0
  9 33  1  0
  9 34  1  0
 13 35  1  0
 14 36  1  0
 14 37  1  0
 15 38  1  0
 15 39  1  0
 17 40  1  0
 22 41  1  0
M  END
>  <ref_pdb>  (11) 
X0147_0A

>  <ref_mols>  (11) 
x1594_0A,x1604_0A,x1140_0A

>  <original SMILES>  (11) 
CC1=CC(C)=CC(C(C)S(=O)(=O)NCCC2=CON=C2Br)=C1

>  <Confidence>  (11) 
3.0

>  <∆∆G>  (11) 
-7.013421

>  <comRMSD>  (11) 
1.761213

>  <N_constrained_atoms>  (11) 
27.0

$$$$
Z402454428
     RDKit          3D

 42 44  0  0  0  0  0  0  0  0999 V2000
   -8.3272   -7.6941    3.4754 C   0  0  0  0  0  0  0  0  0  0  0  0
   -9.1885   -7.7716    2.6052 O   0  0  0  0  0  0  0  0  0  0  0  0
   -9.1994   -6.7585    1.6889 C   0  0  0  0  0  0  0  0  0  0  0  0
   -8.1247   -6.5285    0.8350 C   0  0  0  0  0  0  0  0  0  0  0  0
   -8.2180   -5.4590   -0.0623 C   0  0  0  0  0  0  0  0  0  0  0  0
   -7.0563   -5.1765   -0.9933 C   0  0  0  0  0  0  0  0  0  0  0  0
   -7.3746   -5.7225   -2.2778 N   0  0  0  0  0  0  0  0  0  0  0  0
   -6.5608   -5.4001   -3.3238 C   0  0  0  0  0  0  0  0  0  0  0  0
   -6.5657   -4.2779   -3.8354 O   0  0  0  0  0  0  0  0  0  0  0  0
   -5.7460   -6.5109   -3.6884 N   0  0  0  0  0  0  0  0  0  0  0  0
   -5.8948   -7.8384   -3.3216 C   0  0  0  0  0  0  0  0  0  0  0  0
   -5.4004   -8.1181   -1.9334 C   0  0  0  0  0  0  0  0  0  0  0  0
   -6.0962   -8.8356   -0.9495 C   0  0  0  0  0  0  0  0  0  0  0  0
   -5.5405   -9.0535    0.3675 C   0  0  0  0  0  0  0  0  0  0  0  0
   -4.2923   -8.5346    0.6411 C   0  0  0  0  0  0  0  0  0  0  0  0
   -3.5886   -7.7846   -0.4325 C   0  0  0  0  0  0  0  0  0  0  0  0
   -4.1339   -7.5893   -1.6713 C   0  0  0  0  0  0  0  0  0  0  0  0
   -2.3893   -7.3609    0.0176 O   0  0  0  0  0  0  0  0  0  0  0  0
   -2.4773   -7.6895    1.4297 C   0  0  0  0  0  0  0  0  0  0  0  0
   -3.5611   -8.5947    1.7802 O   0  0  0  0  0  0  0  0  0  0  0  0
   -9.3648   -4.6514   -0.1043 C   0  0  0  0  0  0  0  0  0  0  0  0
  -10.4295   -4.8976    0.7490 C   0  0  0  0  0  0  0  0  0  0  0  0
  -10.3415   -5.9536    1.6466 C   0  0  0  0  0  0  0  0  0  0  0  0
  -11.3831   -6.2084    2.5003 O   0  0  0  0  0  0  0  0  0  0  0  0
   -7.3331   -7.5319    3.0451 H   0  0  0  0  0  0  0  0  0  0  0  0
   -8.3157   -8.6375    4.0261 H   0  0  0  0  0  0  0  0  0  0  0  0
   -8.5372   -6.8855    4.1824 H   0  0  0  0  0  0  0  0  0  0  0  0
   -7.2343   -7.1429    0.8541 H   0  0  0  0  0  0  0  0  0  0  0  0
   -6.7755   -4.1359   -1.1247 H   0  0  0  0  0  0  0  0  0  0  0  0
   -6.1534   -5.6849   -0.6369 H   0  0  0  0  0  0  0  0  0  0  0  0
   -8.3584   -5.7617   -2.5077 H   0  0  0  0  0  0  0  0  0  0  0  0
   -4.8438   -6.2985   -4.1202 H   0  0  0  0  0  0  0  0  0  0  0  0
   -5.3167   -8.4362   -4.0454 H   0  0  0  0  0  0  0  0  0  0  0  0
   -6.9372   -8.1639   -3.4272 H   0  0  0  0  0  0  0  0  0  0  0  0
   -7.0832   -9.2399   -1.1784 H   0  0  0  0  0  0  0  0  0  0  0  0
   -6.0887   -9.6081    1.1209 H   0  0  0  0  0  0  0  0  0  0  0  0
   -3.5865   -7.0362   -2.4251 H   0  0  0  0  0  0  0  0  0  0  0  0
   -1.5255   -8.1443    1.7310 H   0  0  0  0  0  0  0  0  0  0  0  0
   -2.6025   -6.7535    1.9880 H   0  0  0  0  0  0  0  0  0  0  0  0
   -9.4271   -3.8225   -0.8065 H   0  0  0  0  0  0  0  0  0  0  0  0
  -11.3119   -4.2638    0.7034 H   0  0  0  0  0  0  0  0  0  0  0  0
  -11.0712   -6.1187    3.4167 H   0  0  0  0  0  0  0  0  0  0  0  0
  1  2  1  0
  2  3  1  0
  3  4  2  0
  4  5  1  0
  5  6  1  0
  6  7  1  0
  7  8  1  0
  8  9  2  0
  8 10  1  0
 10 11  1  0
 11 12  1  0
 12 13  2  0
 13 14  1  0
 14 15  2  0
 15 16  1  0
 16 17  2  0
 16 18  1  0
 18 19  1  0
 19 20  1  0
  5 21  2  0
 21 22  1  0
 22 23  2  0
 23 24  1  0
 23  3  1  0
 17 12  1  0
 20 15  1  0
  1 25  1  0
  1 26  1  0
  1 27  1  0
  4 28  1  0
  6 29  1  0
  6 30  1  0
  7 31  1  0
 10 32  1  0
 11 33  1  0
 11 34  1  0
 13 35  1  0
 14 36  1  0
 17 37  1  0
 19 38  1  0
 19 39  1  0
 21 40  1  0
 22 41  1  0
 24 42  1  0
M  END
>  <ref_pdb>  (12) 
X0147_0A

>  <ref_mols>  (12) 
x1140_0A,x1604_0A

>  <original SMILES>  (12) 
O(C3=CC(CNC(=O)NCC2=CC=C1OCOC1=C2)=CC=C3O)C

>  <Confidence>  (12) 
3.0

>  <∆∆G>  (12) 
-5.621207

>  <comRMSD>  (12) 
0.350625

>  <N_constrained_atoms>  (12) 
15.0

$$$$
Z2233605725
     RDKit          3D

 36 37  0  0  0  0  0  0  0  0999 V2000
   -6.5451    0.8507   -1.1268 C   0  0  0  0  0  0  0  0  0  0  0  0
   -6.4951   -0.5011   -0.8154 C   0  0  0  0  0  0  0  0  0  0  0  0
   -6.2147   -0.8538    0.3130 O   0  0  0  0  0  0  0  0  0  0  0  0
   -6.7557   -1.3856   -1.8378 C   0  0  0  0  0  0  0  0  0  0  0  0
   -7.1653   -2.6774   -1.4724 C   0  0  0  0  0  0  0  0  0  0  0  0
   -6.5510   -3.8245   -2.2756 C   0  0  0  0  0  0  0  0  0  0  0  0
   -6.3129   -3.7274   -3.4859 O   0  0  0  0  0  0  0  0  0  0  0  0
   -6.2385   -5.0427   -1.5526 N   0  0  0  0  0  0  0  0  0  0  0  0
   -7.2591   -5.8011   -1.0163 C   0  0  0  0  0  0  0  0  0  0  0  0
   -6.8614   -7.2724   -0.6912 C   0  0  0  0  0  0  0  0  0  0  0  0
   -6.1191   -7.9831   -1.8058 C   0  0  0  0  0  0  0  0  0  0  0  0
   -6.5014   -8.2459   -3.1348 C   0  0  0  0  0  0  0  0  0  0  0  0
   -6.4873   -9.5714   -3.5269 C   0  0  0  0  0  0  0  0  0  0  0  0
   -6.9356   -9.5106   -4.9244 N   0  0  0  0  0  0  0  0  0  0  0  0
   -7.1551   -8.2735   -5.2310 N   0  0  0  0  0  0  0  0  0  0  0  0
   -6.8942   -7.4249   -4.1326 N   0  0  0  0  0  0  0  0  0  0  0  0
   -4.8813   -7.1471   -1.9077 C   0  0  0  0  0  0  0  0  0  0  0  0
   -5.3645   -5.8214   -2.4300 C   0  0  0  0  0  0  0  0  0  0  0  0
   -6.4541    1.4615   -0.2240 H   0  0  0  0  0  0  0  0  0  0  0  0
   -5.7320    1.1287   -1.8053 H   0  0  0  0  0  0  0  0  0  0  0  0
   -7.4936    1.0920   -1.6178 H   0  0  0  0  0  0  0  0  0  0  0  0
   -6.0707   -1.3521   -2.6684 H   0  0  0  0  0  0  0  0  0  0  0  0
   -7.6658   -0.9447   -2.2557 H   0  0  0  0  0  0  0  0  0  0  0  0
   -6.9648   -2.8245   -0.4224 H   0  0  0  0  0  0  0  0  0  0  0  0
   -8.2508   -2.7377   -1.6001 H   0  0  0  0  0  0  0  0  0  0  0  0
   -7.5906   -5.3810   -0.0556 H   0  0  0  0  0  0  0  0  0  0  0  0
   -8.1164   -5.7067   -1.6724 H   0  0  0  0  0  0  0  0  0  0  0  0
   -6.2418   -7.2802    0.2148 H   0  0  0  0  0  0  0  0  0  0  0  0
   -7.7707   -7.8411   -0.4545 H   0  0  0  0  0  0  0  0  0  0  0  0
   -5.7941   -8.9431   -1.3837 H   0  0  0  0  0  0  0  0  0  0  0  0
   -6.2128  -10.4489   -2.9343 H   0  0  0  0  0  0  0  0  0  0  0  0
   -7.0785  -10.2414   -5.6125 H   0  0  0  0  0  0  0  0  0  0  0  0
   -4.3968   -7.0209   -0.9295 H   0  0  0  0  0  0  0  0  0  0  0  0
   -4.1547   -7.5774   -2.6102 H   0  0  0  0  0  0  0  0  0  0  0  0
   -5.9139   -5.9714   -3.3614 H   0  0  0  0  0  0  0  0  0  0  0  0
   -4.5155   -5.2177   -2.7045 H   0  0  0  0  0  0  0  0  0  0  0  0
  1  2  1  0
  2  3  2  0
  2  4  1  0
  4  5  1  0
  5  6  1  0
  6  7  2  0
  6  8  1  0
  8  9  1  0
  9 10  1  0
 10 11  1  0
 11 12  1  0
 12 13  2  0
 13 14  1  0
 14 15  1  0
 15 16  2  0
 11 17  1  0
 17 18  1  0
 18  8  1  0
 16 12  1  0
  1 19  1  0
  1 20  1  0
  1 21  1  0
  4 22  1  0
  4 23  1  0
  5 24  1  0
  5 25  1  0
  9 26  1  0
  9 27  1  0
 10 28  1  0
 10 29  1  0
 11 30  1  0
 13 31  1  0
 14 32  1  0
 17 33  1  0
 17 34  1  0
 18 35  1  0
 18 36  1  0
M  END
>  <ref_pdb>  (13) 
X0147_0A

>  <ref_mols>  (13) 
x0147_0A

>  <original SMILES>  (13) 
CC(=O)CCC(=O)N1CCC(C2=CNN=N2)CC1

>  <Confidence>  (13) 
3.0

>  <∆∆G>  (13) 
-5.651372

>  <comRMSD>  (13) 
0.630015

>  <N_constrained_atoms>  (13) 
18.0

$$$$
nan
     RDKit          3D

 12 13  0  0  0  0  0  0  0  0999 V2000
   -5.4927   -6.9473   -0.2519 C   0  0  0  0  0  0  0  0  0  0  0  0
   -3.2429   -7.9662    0.0883 C   0  0  0  0  0  0  0  0  0  0  0  0
   -4.7131   -7.9679    0.5195 C   0  0  1  0  0  0  0  0  0  0  0  0
   -2.5295   -7.6385    1.4001 C   0  0  2  0  0  0  0  0  0  0  0  0
   -4.6163   -7.5680    1.9972 C   0  0  1  0  0  0  0  0  0  0  0  0
   -2.6311   -8.8169    2.3765 C   0  0  2  0  0  0  0  0  0  0  0  0
   -4.0783   -8.7049    2.8694 C   0  0  2  0  0  0  0  0  0  0  0  0
   -5.0421   -6.2514   -1.1497 O   0  0  0  0  0  0  0  0  0  0  0  0
   -3.4600   -6.6937    1.9868 O   0  0  0  0  0  0  0  0  0  0  0  0
   -6.7753   -6.8952    0.1835 O   0  0  0  0  0  0  0  0  0  0  0  0
   -1.7349   -8.5944    3.4584 O   0  0  0  0  0  0  0  0  0  0  0  0
   -4.8041   -9.9023    2.6827 O   0  0  0  0  0  0  0  0  0  0  0  0
  3  1  1  6
  1  8  2  0
  1 10  1  0
  2  3  1  0
  4  2  1  6
  3  5  1  0
  4  6  1  0
  4  9  1  0
  5  7  1  0
  5  9  1  6
  6  7  1  0
  6 11  1  1
  7 12  1  6
M  END
>  <ref_pdb>  (14) 
X0147_0A

>  <ref_mols>  (14) 
x0147_0A

>  <original SMILES>  (14) 
OC1C(O)C2OC1CC2C(=O)O

>  <Confidence>  (14) 
3.0

>  <∆∆G>  (14) 
nan

>  <comRMSD>  (14) 
nan

>  <N_constrained_atoms>  (14) 
nan

$$$$
nan
     RDKit          3D

 13 16  0  0  0  0  0  0  0  0999 V2000
   -4.0897   -9.0196    1.8444 C   0  0  0  0  0  0  0  0  0  0  0  0
   -4.7350   -8.1241   -1.0745 C   0  0  0  0  0  0  0  0  0  0  0  0
   -5.9923   -6.9046    0.5616 C   0  0  0  0  0  0  0  0  0  0  0  0
   -3.0066   -8.6974    0.7933 C   0  0  1  0  0  0  0  0  0  0  0  0
   -4.1835   -7.5560    2.3246 C   0  0  2  0  0  0  0  0  0  0  0  0
   -3.7124   -7.6114   -0.0599 C   0  0  2  0  0  0  0  0  0  0  0  0
   -4.5323   -6.8162    1.0069 C   0  0  1  0  0  0  0  0  0  0  0  0
   -5.9029   -7.1460   -0.9453 C   0  0  2  0  0  0  0  0  0  0  0  0
   -1.9456   -7.9755    1.6176 C   0  0  1  0  0  0  0  0  0  0  0  0
   -2.7306   -7.2141    2.6393 C   0  0  2  0  0  0  0  0  0  0  0  0
   -7.1945   -7.6809   -1.5397 C   0  0  0  0  0  0  0  0  0  0  0  0
   -1.8529   -8.2805    3.0121 O   0  0  0  0  0  0  0  0  0  0  0  0
   -7.6697   -9.1874   -0.7301 Cl  0  0  0  0  0  0  0  0  0  0  0  0
  4  1  1  1
  5  1  1  6
  6  2  1  6
  2  8  1  0
  7  3  1  6
  3  8  1  0
  4  6  1  0
  4  9  1  0
  5  7  1  0
  5 10  1  0
  6  7  1  0
  8 11  1  1
  9 10  1  0
  9 12  1  1
 10 12  1  1
 11 13  1  0
M  END
>  <ref_pdb>  (15) 
X0147_0A

>  <ref_mols>  (15) 
x0147_0A

>  <original SMILES>  (15) 
ClCC1CC2C3CC(C4OC43)C2C1

>  <Confidence>  (15) 
3.0

>  <∆∆G>  (15) 
nan

>  <comRMSD>  (15) 
nan

>  <N_constrained_atoms>  (15) 
nan

$$$$
nan
     RDKit          3D

 11 13  0  0  0  0  0  0  0  0999 V2000
   -6.0475   -7.4053   -0.3653 C   0  0  0  0  0  0  0  0  0  0  0  0
   -2.0912   -9.1694    2.0847 C   0  0  0  0  0  0  0  0  0  0  0  0
   -2.7803   -8.4158    3.2505 C   0  0  0  0  0  0  0  0  0  0  0  0
   -2.2142   -6.8673    1.5541 C   0  0  0  0  0  0  0  0  0  0  0  0
   -4.7363   -7.1567    0.2498 C   0  0  2  0  0  0  0  0  0  0  0  0
   -2.3531   -8.2396    0.8764 C   0  0  2  0  0  0  0  0  0  0  0  0
   -3.3449   -7.1552    2.5540 C   0  0  1  0  0  0  0  0  0  0  0  0
   -3.8404   -8.3390    0.5478 C   0  0  1  0  0  0  0  0  0  0  0  0
   -4.5067   -7.6106    1.6747 C   0  0  2  0  0  0  0  0  0  0  0  0
   -5.9841   -8.1270   -1.5336 N   0  0  0  0  0  0  0  0  0  0  0  0
   -7.0931   -7.0099    0.1444 O   0  0  0  0  0  0  0  0  0  0  0  0
  5  1  1  6
  1 10  1  0
  1 11  2  0
  2  3  1  0
  6  2  1  1
  7  3  1  1
  4  6  1  0
  4  7  1  0
  5  8  1  0
  5  9  1  0
  8  6  1  1
  9  7  1  1
  8  9  1  0
M  END
>  <ref_pdb>  (16) 
X0147_0A

>  <ref_mols>  (16) 
x0147_0A

>  <original SMILES>  (16) 
NC(=O)[C@H]1[C@H]2[C@@H]1[C@@H]3CC[C@H]2C3

>  <Confidence>  (16) 
3.0

>  <∆∆G>  (16) 
nan

>  <comRMSD>  (16) 
nan

>  <N_constrained_atoms>  (16) 
nan

$$$$
nan
     RDKit          3D

 11 12  0  0  0  0  0  0  0  0999 V2000
   -2.2874   -7.9804    2.8730 C   0  0  0  0  0  0  0  0  0  0  0  0
   -2.0874   -6.7724    1.9556 C   0  0  0  0  0  0  0  0  0  0  0  0
   -4.6594   -8.2239    2.0664 C   0  0  0  0  0  0  0  0  0  0  0  0
   -3.2591   -8.8387    2.0645 C   0  0  1  0  0  0  0  0  0  0  0  0
   -2.9918   -7.1169    0.7732 C   0  0  2  0  0  0  0  0  0  0  0  0
   -4.4626   -6.9934    1.1771 C   0  0  1  0  0  0  0  0  0  0  0  0
   -4.9812   -8.4765   -0.9636 N   0  0  0  0  0  0  0  0  0  0  0  0
   -6.8842   -7.2145    0.2209 O   0  0  0  0  0  0  0  0  0  0  0  0
   -5.1642   -5.9141   -1.0968 O   0  0  0  0  0  0  0  0  0  0  0  0
   -2.8282   -8.5553    0.7144 O   0  0  0  0  0  0  0  0  0  0  0  0
   -5.5198   -7.0305   -0.2398 S   0  0  0  0  0  0  0  0  0  0  0  0
  1  2  1  0
  4  1  1  1
  5  2  1  1
  3  4  1  0
  3  6  1  0
  4 10  1  0
  5  6  1  0
  5 10  1  0
  6 11  1  6
  7 11  1  0
  8 11  2  0
  9 11  2  0
M  END
>  <ref_pdb>  (17) 
X0147_0A

>  <ref_mols>  (17) 
x0147_0A

>  <original SMILES>  (17) 
NS(=O)(=O)C1CC2CCC1O2

>  <Confidence>  (17) 
3.0

>  <∆∆G>  (17) 
nan

>  <comRMSD>  (17) 
nan

>  <N_constrained_atoms>  (17) 
nan

$$$$
nan
     RDKit          3D

 23 25  0  0  0  0  0  0  0  0999 V2000
   -3.5518  -12.7312    2.2785 C   0  0  0  0  0  0  0  0  0  0  0  0
   -3.6774  -11.3464    2.2850 C   0  0  0  0  0  0  0  0  0  0  0  0
   -2.2926  -13.2692    2.4901 C   0  0  0  0  0  0  0  0  0  0  0  0
   -2.5557  -10.5533    2.4998 C   0  0  0  0  0  0  0  0  0  0  0  0
   -1.3412  -11.1887    2.7017 C   0  0  0  0  0  0  0  0  0  0  0  0
   -5.6903   -7.4640   -0.3048 C   0  0  0  0  0  0  0  0  0  0  0  0
   -4.4895   -7.1327    2.7409 C   0  0  0  0  0  0  0  0  0  0  0  0
   -4.1344   -8.6102    3.0006 C   0  0  0  0  0  0  0  0  0  0  0  0
   -2.4956   -6.7910    1.2963 C   0  0  0  0  0  0  0  0  0  0  0  0
   -3.4413   -8.5727    0.0600 C   0  0  0  0  0  0  0  0  0  0  0  0
   -2.3786   -8.3183    1.1481 C   0  0  2  0  0  0  0  0  0  0  0  0
   -4.0100   -6.6418    1.3687 C   0  0  1  0  0  0  0  0  0  0  0  0
   -2.7149   -9.0280    2.5036 C   0  0  2  0  0  0  0  0  0  0  0  0
   -5.5919   -5.6132   -2.1556 C   0  0  0  0  0  0  0  0  0  0  0  0
   -5.2040   -7.4096   -3.8679 C   0  0  0  0  0  0  0  0  0  0  0  0
   -7.4908   -7.0994   -2.8767 C   0  0  0  0  0  0  0  0  0  0  0  0
   -5.9873   -7.0150   -2.6177 C   0  0  0  0  0  0  0  0  0  0  0  0
   -1.1800  -12.5311    2.7023 N   0  0  0  0  0  0  0  0  0  0  0  0
   -4.4605   -7.5566    0.3205 N   0  0  0  0  0  0  0  0  0  0  0  0
   -6.7004   -7.0029    0.2214 O   0  0  0  0  0  0  0  0  0  0  0  0
   -1.7420   -8.5844    3.4666 O   0  0  0  0  0  0  0  0  0  0  0  0
   -5.6495   -7.9473   -1.5849 O   0  0  0  0  0  0  0  0  0  0  0  0
    0.2382  -10.1648    3.0025 Br  0  0  0  0  0  0  0  0  0  0  0  0
  1  2  2  0
  1  3  1  0
  2  4  1  0
  3 18  2  0
  4  5  2  0
  4 13  1  0
  5 18  1  0
  5 23  1  0
  6 19  1  0
  6 20  2  0
  6 22  1  0
  7  8  1  0
 12  7  1  1
  8 13  1  0
  9 11  1  0
  9 12  1  0
 11 10  1  6
 10 19  1  0
 11 13  1  0
 12 19  1  0
 13 21  1  1
 14 17  1  0
 15 17  1  0
 16 17  1  0
 17 22  1  0
M  END
>  <ref_pdb>  (18) 
X0147_0A

>  <ref_mols>  (18) 
x0147_0A

>  <original SMILES>  (18) 
CC(C)(C)OC(=O)N1CC2CC1CCC2(O)C=3C=CC=NC3Br

>  <Confidence>  (18) 
3.0

>  <∆∆G>  (18) 
nan

>  <comRMSD>  (18) 
nan

>  <N_constrained_atoms>  (18) 
nan

$$$$
CSMB06267640292
     RDKit          3D

 30 30  0  0  0  0  0  0  0  0999 V2000
   -7.7267   -3.6875   -8.6466 C   0  0  0  0  0  0  0  0  0  0  0  0
   -8.5401   -4.2214   -7.6996 C   0  0  0  0  0  0  0  0  0  0  0  0
   -8.2079   -5.4261   -7.2544 N   0  0  0  0  0  0  0  0  0  0  0  0
   -9.3081   -5.8923   -6.1267 S   0  0  0  0  0  0  0  0  0  0  0  0
  -10.2435   -4.4946   -6.2187 C   0  0  0  0  0  0  0  0  0  0  0  0
  -11.7923   -4.2313   -5.1704 Br  0  0  0  0  0  0  0  0  0  0  0  0
   -9.7264   -3.6336   -7.1211 C   0  0  0  0  0  0  0  0  0  0  0  0
  -10.4078   -2.3197   -7.3505 C   0  0  0  0  0  0  0  0  0  0  0  0
  -11.8516   -2.5844   -7.3451 N   0  0  0  0  0  0  0  0  0  0  0  0
  -12.5032   -2.5480   -8.6649 C   0  0  0  0  0  0  0  0  0  0  0  0
  -13.9178   -1.9646   -8.7304 C   0  0  1  0  0  0  0  0  0  0  0  0
  -14.1799   -1.1047   -7.5377 C   0  0  0  0  0  0  0  0  0  0  0  0
  -14.1482   -1.0354  -10.2779 S   0  0  0  0  0  6  0  0  0  0  0  0
  -12.6257   -0.6952  -10.9258 N   0  0  0  0  0  0  0  0  0  0  0  0
  -14.7116    0.2556   -9.9617 O   0  0  0  0  0  0  0  0  0  0  0  0
  -14.7871   -1.8945  -11.2452 O   0  0  0  0  0  0  0  0  0  0  0  0
   -7.7575   -4.2837   -9.5564 H   0  0  0  0  0  0  0  0  0  0  0  0
   -8.0414   -2.6664   -8.8745 H   0  0  0  0  0  0  0  0  0  0  0  0
   -6.6963   -3.6686   -8.3144 H   0  0  0  0  0  0  0  0  0  0  0  0
  -10.0790   -1.8773   -8.2876 H   0  0  0  0  0  0  0  0  0  0  0  0
  -10.2018   -1.5952   -6.5800 H   0  0  0  0  0  0  0  0  0  0  0  0
  -12.2959   -2.0698   -6.6011 H   0  0  0  0  0  0  0  0  0  0  0  0
  -11.8555   -2.0412   -9.3751 H   0  0  0  0  0  0  0  0  0  0  0  0
  -12.5725   -3.5853   -9.0134 H   0  0  0  0  0  0  0  0  0  0  0  0
  -14.6776   -2.7578   -8.7692 H   0  0  0  0  0  0  0  0  0  0  0  0
  -14.4103   -0.0673   -7.8141 H   0  0  0  0  0  0  0  0  0  0  0  0
  -13.2995   -1.0759   -6.8821 H   0  0  0  0  0  0  0  0  0  0  0  0
  -15.0111   -1.5186   -6.9516 H   0  0  0  0  0  0  0  0  0  0  0  0
  -12.3677    0.2786  -10.7042 H   0  0  0  0  0  0  0  0  0  0  0  0
  -11.8900   -1.3773  -10.6726 H   0  0  0  0  0  0  0  0  0  0  0  0
  1  2  1  0
  2  3  2  0
  3  4  1  0
  4  5  1  0
  5  6  1  0
  5  7  2  0
  7  8  1  0
  8  9  1  0
  9 10  1  0
 10 11  1  0
 11 12  1  0
 11 13  1  0
 13 14  1  0
 13 15  2  0
 13 16  2  0
  7  2  1  0
  1 17  1  0
  1 18  1  0
  1 19  1  0
  8 20  1  0
  8 21  1  0
  9 22  1  0
 10 23  1  0
 10 24  1  0
 11 25  1  6
 12 26  1  0
 12 27  1  0
 12 28  1  0
 14 29  1  0
 14 30  1  0
M  END
>  <ref_pdb>  (19) 
X0147_0A

>  <ref_mols>  (19) 
x1594_0A

>  <original SMILES>  (19) 
C[C@H](CNCc1c(C)nsc1Br)S(=O)(=O)N

>  <Confidence>  (19) 
3.0

>  <∆∆G>  (19) 
-6.13592

>  <comRMSD>  (19) 
1.332737

>  <N_constrained_atoms>  (19) 
8.0

$$$$
PV-007100776493
     RDKit          3D

 23 23  0  0  0  0  0  0  0  0999 V2000
   -8.0162   -4.3360   -5.8490 C   0  0  0  0  0  0  0  0  0  0  0  0
   -8.7107   -4.3019   -4.6707 C   0  0  0  0  0  0  0  0  0  0  0  0
   -9.9423   -4.9143   -4.8209 C   0  0  0  0  0  0  0  0  0  0  0  0
  -10.6070   -5.3628   -3.8853 O   0  0  0  0  0  0  0  0  0  0  0  0
  -10.2678   -4.9137   -6.2418 N   0  0  0  0  0  0  0  0  0  0  0  0
   -9.1569   -4.8312   -7.0723 C   0  0  0  0  0  0  0  0  0  0  0  0
   -8.9656   -3.6954   -8.0110 C   0  0  0  0  0  0  0  0  0  0  0  0
   -7.4866   -3.9396   -8.8329 S   0  0  0  0  0  0  0  0  0  0  0  0
   -7.0755   -5.3786   -8.0989 N   0  0  0  0  0  0  0  0  0  0  0  0
   -8.0794   -5.7242   -7.1602 C   0  0  0  0  0  0  0  0  0  0  0  0
   -7.9099   -7.2963   -6.1125 Br  0  0  0  0  0  0  0  0  0  0  0  0
   -7.5870   -4.8264   -3.3593 S   0  0  0  0  0  6  0  0  0  0  0  0
   -6.8913   -6.2668   -3.8808 N   0  0  0  0  0  0  0  0  0  0  0  0
   -6.4516   -3.9248   -3.3788 O   0  0  0  0  0  0  0  0  0  0  0  0
   -8.2778   -5.1720   -2.1373 O   0  0  0  0  0  0  0  0  0  0  0  0
   -8.4358   -5.0796   -6.5215 H   0  0  0  0  0  0  0  0  0  0  0  0
   -8.0399   -3.3661   -6.3477 H   0  0  0  0  0  0  0  0  0  0  0  0
   -6.9920   -4.6149   -5.6404 H   0  0  0  0  0  0  0  0  0  0  0  0
   -8.9038   -3.2492   -4.4388 H   0  0  0  0  0  0  0  0  0  0  0  0
  -11.0770   -4.3713   -6.5443 H   0  0  0  0  0  0  0  0  0  0  0  0
   -9.6968   -2.8846   -8.0912 H   0  0  0  0  0  0  0  0  0  0  0  0
   -7.3540   -7.0250   -3.4024 H   0  0  0  0  0  0  0  0  0  0  0  0
   -5.8941   -6.2492   -3.6415 H   0  0  0  0  0  0  0  0  0  0  0  0
  1  2  1  0
  2  3  1  0
  3  4  2  0
  3  5  1  0
  5  6  1  0
  6  7  2  0
  7  8  1  0
  8  9  1  0
  9 10  2  0
 10 11  1  0
  2 12  1  0
 12 13  1  0
 12 14  2  0
 12 15  2  0
 10  6  1  0
  1 16  1  0
  1 17  1  0
  1 18  1  0
  2 19  1  0
  5 20  1  0
  7 21  1  0
 13 22  1  0
 13 23  1  0
M  END
>  <ref_pdb>  (20) 
X0147_0A

>  <ref_mols>  (20) 
x1594_0A,x1140_0A

>  <original SMILES>  (20) 
CC(C(=O)NC1=CSN=C1Br)S(N)(=O)=O

>  <Confidence>  (20) 
3.0

>  <∆∆G>  (20) 
-0.583799

>  <comRMSD>  (20) 
1.403422

>  <N_constrained_atoms>  (20) 
14.0

$$$$
Z1851719803
     RDKit          3D

 52 53  0  0  0  0  0  0  0  0999 V2000
   -9.2448   -2.7110   -7.9505 C   0  0  0  0  0  0  0  0  0  0  0  0
   -8.9343   -3.1328   -6.8654 O   0  0  0  0  0  0  0  0  0  0  0  0
   -8.2432   -4.3083   -6.8355 C   0  0  0  0  0  0  0  0  0  0  0  0
   -7.4793   -4.5974   -7.7648 O   0  0  0  0  0  0  0  0  0  0  0  0
   -8.4594   -5.1420   -5.7080 C   0  0  0  0  0  0  0  0  0  0  0  0
   -7.4626   -5.0139   -4.6932 C   0  0  0  0  0  0  0  0  0  0  0  0
   -7.6286   -4.6473   -3.1628 C   0  0  0  0  0  0  0  0  0  0  0  0
   -7.2140   -3.2512   -2.8586 N   0  0  0  0  0  0  0  0  0  0  0  0
   -7.4218   -2.6269   -1.6245 C   0  0  0  0  0  0  0  0  0  0  0  0
   -8.1321   -3.0953   -0.7310 O   0  0  0  0  0  0  0  0  0  0  0  0
   -6.6608   -1.2742   -1.4592 C   0  0  0  0  0  0  0  0  0  0  0  0
   -7.5419   -0.0704   -1.3086 C   0  0  0  0  0  0  0  0  0  0  0  0
   -8.8938    0.0592   -1.6194 C   0  0  0  0  0  0  0  0  0  0  0  0
   -9.6574    1.2716   -1.4397 C   0  0  0  0  0  0  0  0  0  0  0  0
   -9.0532    2.4130   -0.9276 C   0  0  0  0  0  0  0  0  0  0  0  0
   -7.5863    2.2206   -0.6046 C   0  0  0  0  0  0  0  0  0  0  0  0
   -6.9062    1.0519   -0.7899 C   0  0  0  0  0  0  0  0  0  0  0  0
   -5.5780    0.7968   -0.5112 C   0  0  0  0  0  0  0  0  0  0  0  0
   -5.1404    1.2465    0.6636 N   0  0  0  0  0  0  0  0  0  0  0  0
   -4.7503    0.0595   -1.4234 O   0  0  0  0  0  0  0  0  0  0  0  0
   -6.8511   -5.5559   -2.1959 C   0  0  0  0  0  0  0  0  0  0  0  0
   -7.3725   -5.8509   -0.7667 C   0  0  0  0  0  0  0  0  0  0  0  0
   -6.4319   -6.8207    0.0056 C   0  0  0  0  0  0  0  0  0  0  0  0
   -5.2562   -7.3508   -0.5299 C   0  0  0  0  0  0  0  0  0  0  0  0
   -4.3931   -8.1990    0.1033 O   0  0  0  0  0  0  0  0  0  0  0  0
   -3.0575   -7.7188    0.2318 C   0  0  0  0  0  0  0  0  0  0  0  0
   -4.8842   -7.0126   -1.8144 C   0  0  0  0  0  0  0  0  0  0  0  0
   -5.6458   -6.1497   -2.6224 C   0  0  0  0  0  0  0  0  0  0  0  0
   -9.0386   -1.6436   -8.0477 H   0  0  0  0  0  0  0  0  0  0  0  0
   -8.6409   -3.2420   -8.6924 H   0  0  0  0  0  0  0  0  0  0  0  0
  -10.3034   -2.8899   -8.1648 H   0  0  0  0  0  0  0  0  0  0  0  0
   -9.4760   -5.2554   -5.3567 H   0  0  0  0  0  0  0  0  0  0  0  0
   -8.2650   -6.1350   -6.1335 H   0  0  0  0  0  0  0  0  0  0  0  0
   -6.7912   -4.2981   -5.0699 H   0  0  0  0  0  0  0  0  0  0  0  0
   -6.9144   -5.9642   -4.6996 H   0  0  0  0  0  0  0  0  0  0  0  0
   -8.6894   -4.7576   -2.9126 H   0  0  0  0  0  0  0  0  0  0  0  0
   -7.1061   -2.6194   -3.6344 H   0  0  0  0  0  0  0  0  0  0  0  0
   -6.0129   -1.1301   -2.3325 H   0  0  0  0  0  0  0  0  0  0  0  0
   -6.0036   -1.3387   -0.5883 H   0  0  0  0  0  0  0  0  0  0  0  0
   -9.4049   -0.8193   -2.0285 H   0  0  0  0  0  0  0  0  0  0  0  0
  -10.7167    1.4201   -1.6699 H   0  0  0  0  0  0  0  0  0  0  0  0
   -9.5640    3.3522   -0.7691 H   0  0  0  0  0  0  0  0  0  0  0  0
   -7.0429    3.0783   -0.1950 H   0  0  0  0  0  0  0  0  0  0  0  0
   -5.1812    0.6761    1.5154 H   0  0  0  0  0  0  0  0  0  0  0  0
   -4.9947    2.2383    0.7682 H   0  0  0  0  0  0  0  0  0  0  0  0
   -8.2887   -5.4422   -0.3437 H   0  0  0  0  0  0  0  0  0  0  0  0
   -6.7808   -7.0510    1.0165 H   0  0  0  0  0  0  0  0  0  0  0  0
   -2.4142   -8.4591    0.7189 H   0  0  0  0  0  0  0  0  0  0  0  0
   -2.6634   -7.5549   -0.7657 H   0  0  0  0  0  0  0  0  0  0  0  0
   -3.0184   -6.7595    0.7632 H   0  0  0  0  0  0  0  0  0  0  0  0
   -3.9642   -7.4288   -2.2234 H   0  0  0  0  0  0  0  0  0  0  0  0
   -5.2689   -5.9499   -3.6188 H   0  0  0  0  0  0  0  0  0  0  0  0
  1  2  1  0
  2  3  1  0
  3  4  2  0
  3  5  1  0
  5  6  1  0
  6  7  1  0
  7  8  1  0
  8  9  1  0
  9 10  2  0
  9 11  1  0
 11 12  1  0
 12 13  2  0
 13 14  1  0
 14 15  2  0
 15 16  1  0
 16 17  2  0
 17 18  1  0
 18 19  1  0
 18 20  2  0
  7 21  1  0
 21 22  2  0
 22 23  1  0
 23 24  2  0
 24 25  1  0
 25 26  1  0
 24 27  1  0
 27 28  2  0
 17 12  1  0
 28 21  1  0
  1 29  1  0
  1 30  1  0
  1 31  1  0
  5 32  1  0
  5 33  1  0
  6 34  1  0
  6 35  1  0
  7 36  1  0
  8 37  1  0
 11 38  1  0
 11 39  1  0
 13 40  1  0
 14 41  1  0
 15 42  1  0
 16 43  1  0
 19 44  1  0
 19 45  1  0
 22 46  1  0
 23 47  1  0
 26 48  1  0
 26 49  1  0
 26 50  1  0
 27 51  1  0
 28 52  1  0
M  END
>  <ref_pdb>  (21) 
X0147_0A

>  <ref_mols>  (21) 
x0771_1A,x1052_0A

>  <original SMILES>  (21) 
	COC(=O)CCC(NC(=O)CC1=CC=CC=C1C(N)=O)C2=CC=C(OC)C=C2

>  <Confidence>  (21) 
2.0

>  <∆∆G>  (21) 
-8.53276

>  <comRMSD>  (21) 
1.571288

>  <N_constrained_atoms>  (21) 
21.0

$$$$
Z2600009240
     RDKit          3D

 44 46  0  0  0  0  0  0  0  0999 V2000
   -4.8295   -8.2082   -1.4077 C   0  0  0  0  0  0  0  0  0  0  0  0
   -5.5905   -7.1057   -1.2700 N   0  0  0  0  0  0  0  0  0  0  0  0
   -5.5098   -5.9283   -2.0437 C   0  0  0  0  0  0  0  0  0  0  0  0
   -6.4319   -5.0214   -1.6167 C   0  0  0  0  0  0  0  0  0  0  0  0
   -6.6444   -3.7437   -2.1397 C   0  0  0  0  0  0  0  0  0  0  0  0
   -6.2510   -3.6254   -3.4303 O   0  0  0  0  0  0  0  0  0  0  0  0
   -7.2644   -2.6919   -1.2830 N   0  0  0  0  0  0  0  0  0  0  0  0
   -7.2783   -1.4865   -1.7080 N   0  0  0  0  0  0  0  0  0  0  0  0
   -6.6525   -0.5324   -0.9192 C   0  0  0  0  0  0  0  0  0  0  0  0
   -5.9448   -0.8270    0.0410 O   0  0  0  0  0  0  0  0  0  0  0  0
   -6.8940    0.7649   -1.2895 N   0  0  0  0  0  0  0  0  0  0  0  0
   -6.0253    1.7016   -0.9567 C   0  0  0  0  0  0  0  0  0  0  0  0
   -6.1993    3.2250   -0.9665 C   0  0  0  0  0  0  0  0  0  0  0  0
   -4.8710    3.9067   -1.0373 C   0  0  0  0  0  0  0  0  0  0  0  0
   -4.2749    4.1762    0.2687 N   0  0  0  0  0  0  0  0  0  0  0  0
   -3.8364    3.2120    1.1581 C   0  0  0  0  0  0  0  0  0  0  0  0
   -3.3201    3.8525    2.2879 C   0  0  0  0  0  0  0  0  0  0  0  0
   -3.4421    5.1820    2.1028 C   0  0  0  0  0  0  0  0  0  0  0  0
   -3.0045    6.2310    3.0907 C   0  0  0  0  0  0  0  0  0  0  0  0
   -3.2589    7.6144    2.6349 C   0  0  0  0  0  0  0  0  0  0  0  0
   -3.8270    7.9093    1.4579 C   0  0  0  0  0  0  0  0  0  0  0  0
   -4.2408    6.7699    0.5119 C   0  0  0  0  0  0  0  0  0  0  0  0
   -4.0371    5.4330    0.8576 C   0  0  0  0  0  0  0  0  0  0  0  0
   -7.0915   -5.6561   -0.5673 N   0  0  0  0  0  0  0  0  0  0  0  0
   -6.5754   -6.9088   -0.3684 N   0  0  0  0  0  0  0  0  0  0  0  0
   -4.6808   -8.4339   -2.4702 H   0  0  0  0  0  0  0  0  0  0  0  0
   -3.8390   -8.0656   -0.9618 H   0  0  0  0  0  0  0  0  0  0  0  0
   -5.2901   -9.0823   -0.9335 H   0  0  0  0  0  0  0  0  0  0  0  0
   -4.7983   -5.7797   -2.8669 H   0  0  0  0  0  0  0  0  0  0  0  0
   -8.0998   -2.9305   -0.7551 H   0  0  0  0  0  0  0  0  0  0  0  0
   -7.2382   -1.3879   -2.7314 H   0  0  0  0  0  0  0  0  0  0  0  0
   -7.4360    0.8979   -2.1335 H   0  0  0  0  0  0  0  0  0  0  0  0
   -5.1839    1.5537   -1.6435 H   0  0  0  0  0  0  0  0  0  0  0  0
   -5.6501    1.3405   -0.0038 H   0  0  0  0  0  0  0  0  0  0  0  0
   -6.8152    3.5193   -1.8253 H   0  0  0  0  0  0  0  0  0  0  0  0
   -6.7266    3.5420   -0.0600 H   0  0  0  0  0  0  0  0  0  0  0  0
   -4.1732    3.2733   -1.6055 H   0  0  0  0  0  0  0  0  0  0  0  0
   -4.9705    4.8574   -1.5744 H   0  0  0  0  0  0  0  0  0  0  0  0
   -3.8371    2.1149    1.1002 H   0  0  0  0  0  0  0  0  0  0  0  0
   -2.8920    3.3762    3.1727 H   0  0  0  0  0  0  0  0  0  0  0  0
   -2.5412    5.9830    4.0520 H   0  0  0  0  0  0  0  0  0  0  0  0
   -2.9683    8.4264    3.2976 H   0  0  0  0  0  0  0  0  0  0  0  0
   -3.9941    8.9439    1.1723 H   0  0  0  0  0  0  0  0  0  0  0  0
   -4.7069    6.9078   -0.4629 H   0  0  0  0  0  0  0  0  0  0  0  0
  1  2  1  0
  2  3  1  0
  3  4  2  0
  4  5  1  0
  5  6  2  0
  5  7  1  0
  7  8  1  0
  8  9  1  0
  9 10  2  0
  9 11  1  0
 11 12  1  0
 12 13  1  0
 13 14  1  0
 14 15  1  0
 15 16  1  0
 16 17  2  0
 17 18  1  0
 18 19  2  0
 19 20  1  0
 20 21  2  0
 21 22  1  0
 22 23  2  0
  4 24  1  0
 24 25  2  0
 25  2  1  0
 23 15  1  0
 23 18  1  0
  1 26  1  0
  1 27  1  0
  1 28  1  0
  3 29  1  0
  7 30  1  0
  8 31  1  0
 11 32  1  0
 12 33  1  0
 12 34  1  0
 13 35  1  0
 13 36  1  0
 14 37  1  0
 14 38  1  0
 16 39  1  0
 17 40  1  0
 19 41  1  0
 20 42  1  0
 21 43  1  0
 22 44  1  0
M  END
>  <ref_pdb>  (22) 
X0147_0A

>  <ref_mols>  (22) 
x1052_0A,x1454_0B

>  <original SMILES>  (22) 
	CN1C=C(C(=O)NNC(=O)NCCCN2C=CC3=CC=CC=C32)N=N1

>  <Confidence>  (22) 
2.0

>  <∆∆G>  (22) 
-8.809126

>  <comRMSD>  (22) 
0.210889

>  <N_constrained_atoms>  (22) 
14.0

$$$$
Z5230078753
     RDKit          3D

 37 39  0  0  0  0  0  0  0  0999 V2000
   -7.8994   -6.2738   -4.0883 O   0  0  0  0  0  0  0  0  0  0  0  0
   -6.9333   -5.4961   -3.3369 S   0  0  0  0  0  6  0  0  0  0  0  0
   -6.5112   -4.1668   -3.7484 O   0  0  0  0  0  0  0  0  0  0  0  0
   -7.3535   -5.4765   -1.5885 C   0  0  0  0  0  0  0  0  0  0  0  0
   -7.5676   -4.1631   -1.2190 C   0  0  0  0  0  0  0  0  0  0  0  0
   -6.6418   -3.2090   -1.6092 C   0  0  0  0  0  0  0  0  0  0  0  0
   -6.8150   -1.8703   -1.2635 C   0  0  0  0  0  0  0  0  0  0  0  0
   -8.0280   -1.4712   -0.4588 C   0  0  0  0  0  0  0  0  0  0  0  0
   -8.9287   -2.4682   -0.0960 C   0  0  0  0  0  0  0  0  0  0  0  0
   -8.7075   -3.8072   -0.4695 C   0  0  0  0  0  0  0  0  0  0  0  0
  -10.0280   -1.8873    0.6711 C   0  0  0  0  0  0  0  0  0  0  0  0
   -9.6149   -0.9178    1.6472 O   0  0  0  0  0  0  0  0  0  0  0  0
   -9.0905    0.2639    1.0361 C   0  0  0  0  0  0  0  0  0  0  0  0
   -8.3064   -0.1583   -0.0543 C   0  0  0  0  0  0  0  0  0  0  0  0
   -5.5184   -6.4648   -3.2882 N   0  0  0  0  0  0  0  0  0  0  0  0
   -5.6526   -7.9411   -3.1886 C   0  0  0  0  0  0  0  0  0  0  0  0
   -5.4652   -8.3584   -1.7315 C   0  0  0  0  0  0  0  0  0  0  0  0
   -6.5753   -9.1598   -1.2516 C   0  0  0  0  0  0  0  0  0  0  0  0
   -6.3646   -9.5092    0.0396 O   0  0  0  0  0  0  0  0  0  0  0  0
   -5.1474   -8.9689    0.4488 N   0  0  0  0  0  0  0  0  0  0  0  0
   -4.6338   -8.2998   -0.5935 C   0  0  0  0  0  0  0  0  0  0  0  0
   -3.0113   -7.4764   -0.3511 Br  0  0  0  0  0  0  0  0  0  0  0  0
   -6.5213   -5.9127   -1.0255 H   0  0  0  0  0  0  0  0  0  0  0  0
   -8.2421   -6.0930   -1.4317 H   0  0  0  0  0  0  0  0  0  0  0  0
   -5.7834   -3.5183   -2.1859 H   0  0  0  0  0  0  0  0  0  0  0  0
   -6.0870   -1.1225   -1.5708 H   0  0  0  0  0  0  0  0  0  0  0  0
   -9.4266   -4.5683   -0.1727 H   0  0  0  0  0  0  0  0  0  0  0  0
  -10.5759   -2.6866    1.1842 H   0  0  0  0  0  0  0  0  0  0  0  0
  -10.7101   -1.3854    0.0021 H   0  0  0  0  0  0  0  0  0  0  0  0
   -9.9308    0.8339    0.6154 H   0  0  0  0  0  0  0  0  0  0  0  0
   -8.7428    0.8824    1.8539 H   0  0  0  0  0  0  0  0  0  0  0  0
   -8.4343    0.3408   -1.0071 H   0  0  0  0  0  0  0  0  0  0  0  0
   -7.3086    0.1982    0.2296 H   0  0  0  0  0  0  0  0  0  0  0  0
   -4.8094   -6.0342   -2.6864 H   0  0  0  0  0  0  0  0  0  0  0  0
   -4.8302   -8.3919   -3.7569 H   0  0  0  0  0  0  0  0  0  0  0  0
   -6.5316   -8.2270   -3.7430 H   0  0  0  0  0  0  0  0  0  0  0  0
   -7.4563   -9.4592   -1.8064 H   0  0  0  0  0  0  0  0  0  0  0  0
  1  2  2  0
  2  3  2  0
  2  4  1  0
  4  5  1  0
  5  6  2  0
  6  7  1  0
  7  8  2  0
  8  9  1  0
  9 10  2  0
  9 11  1  0
 11 12  1  0
 12 13  1  0
 13 14  1  0
  2 15  1  0
 15 16  1  0
 16 17  1  0
 17 18  2  0
 18 19  1  0
 19 20  1  0
 20 21  2  0
 21 22  1  0
 10  5  1  0
 21 17  1  0
 14  8  1  0
  4 23  1  0
  4 24  1  0
  6 25  1  0
  7 26  1  0
 10 27  1  0
 11 28  1  0
 11 29  1  0
 13 30  1  0
 13 31  1  0
 14 32  1  0
 14 33  1  0
 15 34  1  0
 16 35  1  0
 16 36  1  0
 18 37  1  0
M  END
>  <ref_pdb>  (23) 
X0147_0A

>  <ref_mols>  (23) 
x1594_0A,x1140_0A

>  <original SMILES>  (23) 
O=S(=O)(CC1=CC=C2CCOCC2=C1)NCC1=CON=C1Br

>  <Confidence>  (23) 
nan

>  <∆∆G>  (23) 
-4.161729

>  <comRMSD>  (23) 
0.7712

>  <N_constrained_atoms>  (23) 
13.0

$$$$
