ver_1.2
     RDKit          

  1  0  0  0  0  0  0  0  0  0999 V2000
    0.0000    0.0000    0.0000 C   0  0  0  0  0  0  0  0  0  0  0  0
M  END
>  <ref_mols>  (1) 
Fragments that bits overlap with above a score threshold of 0.6.

>  <ref_url>  (1) 
https://github.com/Waztom/xchem-xCOS

>  <submitter_name>  (1) 
WT

>  <submitter_email>  (1) 
warren.thompson@diamond.ac.uk

>  <submitter_institution>  (1) 
Diamond Light Source

>  <generation_date>  (1) 
2021-11-24

>  <method>  (1) 
xCOS

>  <N_hits>  (1) 
The number of fragments that bits overlap with above a score threshold of 0.6.

>  <Score_1>  (1) 
The score is scaled by the number of bit atoms

>  <Score_2>  (1) 
The score is scaled by the number of bit atoms penalised by the fraction of feats matched the to total number feats clustered within a 1.0 angstrom threshold

>  <Score_3>  (1) 
The score is determined by the fraction of matching features to the clustered features within a 1.0 angstrom threshold.

$$$$
PHIPA-x10046_0A
     RDKit          3D

 24 26  0  0  0  0  0  0  0  0999 V2000
  -16.3800   17.3350   25.8990 N   0  0  0  0  0  0  0  0  0  0  0  0
  -12.2960   21.9320   27.8770 C   0  0  0  0  0  0  0  0  0  0  0  0
  -13.5970   21.9480   27.3450 O   0  0  0  0  0  0  0  0  0  0  0  0
  -14.1950   20.7420   27.0230 C   0  0  0  0  0  0  0  0  0  0  0  0
  -22.7270   11.5690   25.5600 C   0  0  0  0  0  0  0  0  0  0  0  0
  -23.6380   11.8670   26.6100 C   0  0  0  0  0  0  0  0  0  0  0  0
  -22.9920   12.6890   27.4440 C   0  0  0  0  0  0  0  0  0  0  0  0
  -18.1860   13.5990   24.7480 C   0  0  0  0  0  0  0  0  0  0  0  0
  -18.0970   15.1010   24.9630 C   0  0  0  0  0  0  0  0  0  0  0  0
  -14.2700   18.5090   26.1100 C   0  0  0  0  0  0  0  0  0  0  0  0
  -13.5190   19.6380   26.4800 C   0  0  0  0  0  0  0  0  0  0  0  0
  -15.5760   20.7160   27.2270 C   0  0  0  0  0  0  0  0  0  0  0  0
  -16.3080   19.5770   26.8770 C   0  0  0  0  0  0  0  0  0  0  0  0
  -15.6550   18.4880   26.3050 C   0  0  0  0  0  0  0  0  0  0  0  0
  -17.0930   16.5560   26.8310 C   0  0  0  0  0  0  0  0  0  0  0  0
  -18.7640   14.6780   27.3630 C   0  0  0  0  0  0  0  0  0  0  0  0
  -18.8400   13.1580   27.0520 C   0  0  0  0  0  0  0  0  0  0  0  0
  -20.3350   12.4210   25.0850 C   0  0  2  0  0  0  0  0  0  0  0  0
  -21.5800   12.2670   25.8430 C   0  0  1  0  0  0  0  0  0  0  0  0
  -17.8390   15.3850   26.3920 N   0  0  0  0  0  0  0  0  0  0  0  0
  -19.2250   13.0480   25.6400 N   0  0  0  0  0  0  0  0  0  0  0  0
  -17.0690   16.8410   28.0300 O   0  0  0  0  0  0  0  0  0  0  0  0
  -20.2880   12.0460   23.9320 O   0  0  0  0  0  0  0  0  0  0  0  0
  -21.7170   12.9560   27.0060 O   0  0  0  0  0  0  0  0  0  0  0  0
  3  2  1  0
  4  3  1  0
  6  5  1  0
  7  6  1  0
  9  8  1  0
 11 10  1  0
 11  4  1  0
 12  4  1  0
 13 12  1  0
 14  1  1  0
 14 13  1  0
 14 10  1  0
 15  1  1  0
 17 16  1  0
 19  5  1  6
 19 18  1  0
 20  9  1  0
 20 16  1  0
 20 15  1  0
 21 18  1  0
 21 17  1  0
 21  8  1  0
 22 15  1  0
 18 23  1  6
 24  7  1  0
 24 19  1  0
M  END
>  <original SMILES>  (2) 
COC1CCC(NC(O)N2CCN(C(O)C3CCCO3)CC2)CC1

>  <ref_pdb>  (2) 
x20899_0A

>  <ref_mols>  (2) 
x20899_0A,x20767_0A,x20706_0A

>  <N_hits>  (2) 
3

>  <Score_1>  (2) 
22.2711

>  <Score_2>  (2) 
1.2606

>  <Score_3>  (2) 
0.0566

$$$$
PHIPA-x10036_0A
     RDKit          3D

 20 21  0  0  0  0  0  0  0  0999 V2000
  -16.1270   17.0470   25.8860 N   0  0  0  0  0  0  0  0  0  0  0  0
  -14.1910   19.6390   24.0620 C   0  0  0  0  0  0  0  0  0  0  0  0
  -16.8070   16.6170   28.0060 O   0  0  0  0  0  0  0  0  0  0  0  0
  -13.6300   19.1680   25.4180 C   0  0  0  0  0  0  0  0  0  0  0  0
  -23.6100   11.8360   26.5440 C   0  0  0  0  0  0  0  0  0  0  0  0
  -23.0060   12.7430   27.3620 C   0  0  0  0  0  0  0  0  0  0  0  0
  -18.0460   13.4470   24.8040 C   0  0  0  0  0  0  0  0  0  0  0  0
  -17.9050   14.9580   24.8820 C   0  0  0  0  0  0  0  0  0  0  0  0
  -14.6590   18.9080   26.5210 C   0  0  0  0  0  0  0  0  0  0  0  0
  -16.0190   18.4880   25.9620 C   0  0  0  0  0  0  0  0  0  0  0  0
  -16.9590   16.4070   26.7920 C   0  0  0  0  0  0  0  0  0  0  0  0
  -18.9370   14.8520   27.2140 C   0  0  0  0  0  0  0  0  0  0  0  0
  -18.8880   13.3070   27.0680 C   0  0  0  0  0  0  0  0  0  0  0  0
  -20.2550   12.3440   25.1100 C   0  0  0  0  0  0  0  0  0  0  0  0
  -21.5220   12.2310   25.8450 C   0  0  2  0  0  0  0  0  0  0  0  0
  -22.6400   11.4920   25.5580 C   0  0  0  0  0  0  0  0  0  0  0  0
  -18.0330   15.5500   26.2450 N   0  0  0  0  0  0  0  0  0  0  0  0
  -19.1650   13.0280   25.6550 N   0  0  0  0  0  0  0  0  0  0  0  0
  -20.1880   11.8690   23.9900 O   0  0  0  0  0  0  0  0  0  0  0  0
  -21.7140   13.0010   26.9500 O   0  0  0  0  0  0  0  0  0  0  0  0
  4  2  1  0
  6  5  1  0
  8  7  1  0
  9  4  1  0
 10  9  1  0
 10  1  1  0
 11  3  1  0
 11  1  1  0
 13 12  1  0
 15 14  1  6
 16  5  1  0
 16 15  1  0
 17 12  1  0
 17  8  1  0
 17 11  1  0
 18 14  1  0
 18 13  1  0
 18  7  1  0
 19 14  1  0
 20  6  1  0
 20 15  1  0
M  END
>  <original SMILES>  (3) 
CCCCNC(O)N1CCN(C(O)C2CCCO2)CC1

>  <ref_pdb>  (3) 
x20552_0A

>  <ref_mols>  (3) 
x20552_0A,x20899_0A,x20767_0A,x20706_0A,x20710_0A

>  <N_hits>  (3) 
5

>  <Score_1>  (3) 
25.4575

>  <Score_2>  (3) 
1.2008

>  <Score_3>  (3) 
0.0472

$$$$
PHIPA-x11100_0A
     RDKit          3D

 20 22  0  0  0  0  0  0  0  0999 V2000
  -16.3060   16.9980   25.6720 N   0  0  0  0  0  0  0  0  0  0  0  0
  -16.8660   16.2400   26.6310 C   0  0  0  0  0  0  0  0  0  0  0  0
  -16.6810   16.4880   27.8150 O   0  0  0  0  0  0  0  0  0  0  0  0
  -15.2310   17.9410   25.9510 C   0  0  0  0  0  0  0  0  0  0  0  0
  -23.5420   11.8640   26.4720 C   0  0  0  0  0  0  0  0  0  0  0  0
  -22.9540   12.7460   27.2590 C   0  0  0  0  0  0  0  0  0  0  0  0
  -18.0580   13.3660   24.6980 C   0  0  0  0  0  0  0  0  0  0  0  0
  -17.9530   14.8550   24.8420 C   0  0  0  0  0  0  0  0  0  0  0  0
  -15.7830   19.2730   26.4110 C   0  0  0  0  0  0  0  0  0  0  0  0
  -15.4240   20.5560   25.7430 C   0  0  0  0  0  0  0  0  0  0  0  0
  -16.6810   19.8450   25.3990 C   0  0  0  0  0  0  0  0  0  0  0  0
  -18.6500   14.6420   27.1790 C   0  0  0  0  0  0  0  0  0  0  0  0
  -18.8130   13.1380   26.9670 C   0  0  0  0  0  0  0  0  0  0  0  0
  -20.2110   12.2960   25.0130 C   0  0  0  0  0  0  0  0  0  0  0  0
  -21.4660   12.1760   25.7700 C   0  0  2  0  0  0  0  0  0  0  0  0
  -22.5990   11.4800   25.5090 C   0  0  0  0  0  0  0  0  0  0  0  0
  -17.6640   15.2010   26.2380 N   0  0  0  0  0  0  0  0  0  0  0  0
  -19.1310   12.8680   25.5600 N   0  0  0  0  0  0  0  0  0  0  0  0
  -20.1990   11.8740   23.8670 O   0  0  0  0  0  0  0  0  0  0  0  0
  -21.6470   12.9630   26.8630 O   0  0  0  0  0  0  0  0  0  0  0  0
  2  1  1  0
  3  2  1  0
  4  1  1  0
  6  5  1  0
  8  7  1  0
  9  4  1  0
 10  9  1  0
 11 10  1  0
 11  9  1  0
 13 12  1  0
 15 14  1  6
 16  5  1  0
 16 15  1  0
 17 12  1  0
 17  8  1  0
 17  2  1  0
 18 14  1  0
 18 13  1  0
 18  7  1  0
 19 14  1  0
 20  6  1  0
 20 15  1  0
M  END
>  <original SMILES>  (4) 
OC(NCC1CC1)N1CCN(C(O)C2CCCO2)CC1

>  <ref_pdb>  (4) 
x20706_0A

>  <ref_mols>  (4) 
x20706_0A,x20899_0A,x20767_0A

>  <N_hits>  (4) 
3

>  <Score_1>  (4) 
21.8059

>  <Score_2>  (4) 
1.2343

>  <Score_3>  (4) 
0.0566

$$$$
PHIPA-x11158_0A
     RDKit          3D

 20 21  0  0  0  0  0  0  0  0999 V2000
  -16.2990   16.8210   25.6220 N   0  0  0  0  0  0  0  0  0  0  0  0
  -17.0920   20.9630   25.5870 C   0  0  0  0  0  0  0  0  0  0  0  0
  -16.6960   19.6120   25.3440 O   0  0  0  0  0  0  0  0  0  0  0  0
  -15.8100   19.1270   26.3310 C   0  0  0  0  0  0  0  0  0  0  0  0
  -23.0650   12.7800   27.3730 C   0  0  0  0  0  0  0  0  0  0  0  0
  -18.1540   13.2260   24.7200 C   0  0  0  0  0  0  0  0  0  0  0  0
  -17.8990   14.7030   24.8310 C   0  0  0  0  0  0  0  0  0  0  0  0
  -15.2550   17.7970   25.8960 C   0  0  0  0  0  0  0  0  0  0  0  0
  -16.8540   16.1010   26.6130 C   0  0  0  0  0  0  0  0  0  0  0  0
  -18.6680   14.5860   27.1910 C   0  0  0  0  0  0  0  0  0  0  0  0
  -18.8840   13.1100   26.9990 C   0  0  0  0  0  0  0  0  0  0  0  0
  -20.3640   12.2920   25.0870 C   0  0  0  0  0  0  0  0  0  0  0  0
  -21.5960   12.1900   25.8680 C   0  0  2  0  0  0  0  0  0  0  0  0
  -22.7300   11.5000   25.6460 C   0  0  0  0  0  0  0  0  0  0  0  0
  -23.6500   11.9020   26.6300 C   0  0  0  0  0  0  0  0  0  0  0  0
  -17.6640   15.0750   26.2330 N   0  0  0  0  0  0  0  0  0  0  0  0
  -19.2540   12.8460   25.6070 N   0  0  0  0  0  0  0  0  0  0  0  0
  -16.6390   16.3330   27.7920 O   0  0  0  0  0  0  0  0  0  0  0  0
  -20.3660   11.8780   23.9370 O   0  0  0  0  0  0  0  0  0  0  0  0
  -21.7680   12.9950   26.9530 O   0  0  0  0  0  0  0  0  0  0  0  0
  3  2  1  0
  4  3  1  0
  7  6  1  0
  8  4  1  0
  8  1  1  0
  9  1  1  0
 11 10  1  0
 13 12  1  6
 14 13  1  0
 15 14  1  0
 15  5  1  0
 16 10  1  0
 16  9  1  0
 16  7  1  0
 17 12  1  0
 17 11  1  0
 17  6  1  0
 18  9  1  0
 19 12  1  0
 20  5  1  0
 20 13  1  0
M  END
>  <original SMILES>  (5) 
COCCNC(O)N1CCN(C(O)C2CCCO2)CC1

>  <ref_pdb>  (5) 
x20710_0A

>  <ref_mols>  (5) 
x20710_0A,x20706_0A,x20899_0A,x20566_0A,x20767_0A,x20175_0A

>  <N_hits>  (5) 
6

>  <Score_1>  (5) 
25.5535

>  <Score_2>  (5) 
1.4464

>  <Score_3>  (5) 
0.0566

$$$$
PHIPA-x10039_0A
     RDKit          3D

 25 27  0  0  0  0  0  0  0  0999 V2000
  -16.5640   17.3490   25.9100 N   0  0  0  0  0  0  0  0  0  0  0  0
  -13.8380   22.7610   27.7100 C   0  0  0  0  0  0  0  0  0  0  0  0
  -13.4450   21.8520   26.7180 O   0  0  0  0  0  0  0  0  0  0  0  0
  -14.2280   20.7210   26.6470 C   0  0  2  0  0  0  0  0  0  0  0  0
  -20.3470   12.3170   25.1460 C   0  0  2  0  0  0  0  0  0  0  0  0
  -21.6270   12.2000   25.8260 C   0  0  2  0  0  0  0  0  0  0  0  0
  -23.0890   12.7120   27.3430 C   0  0  0  0  0  0  0  0  0  0  0  0
  -23.7170   11.8730   26.5110 C   0  0  0  0  0  0  0  0  0  0  0  0
  -22.7720   11.5220   25.5130 C   0  0  0  0  0  0  0  0  0  0  0  0
  -14.3810   18.3430   26.3820 C   0  0  0  0  0  0  0  0  0  0  0  0
  -13.6090   19.4780   26.5860 C   0  0  0  0  0  0  0  0  0  0  0  0
  -15.6320   20.8760   26.5570 C   0  0  0  0  0  0  0  0  0  0  0  0
  -16.3950   19.7200   26.3590 C   0  0  0  0  0  0  0  0  0  0  0  0
  -15.7710   18.4520   26.2460 C   0  0  1  0  0  0  0  0  0  0  0  0
  -17.0780   16.4520   26.8640 C   0  0  0  0  0  0  0  0  0  0  0  0
  -17.9880   15.0290   24.9680 C   0  0  0  0  0  0  0  0  0  0  0  0
  -18.2080   13.5280   24.8070 C   0  0  0  0  0  0  0  0  0  0  0  0
  -18.9380   13.2850   27.0880 C   0  0  0  0  0  0  0  0  0  0  0  0
  -18.9740   14.8080   27.3280 C   0  0  0  0  0  0  0  0  0  0  0  0
  -17.7310   19.8210   26.2830 F   0  0  0  0  0  0  0  0  0  0  0  0
  -18.1290   15.5800   26.3560 N   0  0  0  0  0  0  0  0  0  0  0  0
  -19.2950   13.0900   25.6860 N   0  0  0  0  0  0  0  0  0  0  0  0
  -21.7910   12.9300   26.9440 O   0  0  0  0  0  0  0  0  0  0  0  0
  -20.2340   11.7820   24.0710 O   0  0  0  0  0  0  0  0  0  0  0  0
  -16.6630   16.4270   28.0270 O   0  0  0  0  0  0  0  0  0  0  0  0
  3  2  1  0
  4  3  1  6
  6  5  1  0
  8  7  1  0
  9  8  1  0
  6  9  1  6
 11 10  1  0
 11  4  1  0
 12  4  1  0
 13 12  1  0
 14 13  1  0
 14  1  1  6
 14 10  1  0
 15  1  1  0
 17 16  1  0
 19 18  1  0
 20 13  1  0
 21 16  1  0
 21 19  1  0
 21 15  1  0
 22 18  1  0
 22 17  1  0
 22  5  1  0
 23  7  1  0
 23  6  1  0
  5 24  1  6
 25 15  1  0
M  END
>  <original SMILES>  (6) 
COC1CCC(NC(O)N2CCN(C(O)C3CCCO3)CC2)C(F)C1

>  <ref_pdb>  (6) 
x20767_0A

>  <ref_mols>  (6) 
x20767_0A,x20899_0A,x20706_0A

>  <N_hits>  (6) 
3

>  <Score_1>  (6) 
22.5758

>  <Score_2>  (6) 
1.2779

>  <Score_3>  (6) 
0.0566

$$$$
PHIPA-x11117_0A
     RDKit          3D

 22 24  0  0  0  0  0  0  0  0999 V2000
  -16.2690   16.9890   25.7300 N   0  0  0  0  0  0  0  0  0  0  0  0
  -16.9950   16.3280   26.6500 C   0  0  0  0  0  0  0  0  0  0  0  0
  -17.0240   16.6840   27.8250 O   0  0  0  0  0  0  0  0  0  0  0  0
  -15.6220   18.2420   26.0550 C   0  0  0  0  0  0  0  0  0  0  0  0
  -22.5020   11.4800   25.3470 C   0  0  0  0  0  0  0  0  0  0  0  0
  -23.4760   11.8050   26.3060 C   0  0  0  0  0  0  0  0  0  0  0  0
  -22.9250   12.6530   27.1460 C   0  0  0  0  0  0  0  0  0  0  0  0
  -17.9080   13.3250   24.7350 C   0  0  0  0  0  0  0  0  0  0  0  0
  -17.8370   14.8300   24.8250 C   0  0  0  0  0  0  0  0  0  0  0  0
  -16.4740   19.4150   25.8100 C   0  0  0  0  0  0  0  0  0  0  0  0
  -15.9540   20.6570   25.3160 C   0  0  0  0  0  0  0  0  0  0  0  0
  -17.0280   21.5630   25.1420 C   0  0  0  0  0  0  0  0  0  0  0  0
  -18.2430   21.0630   25.4700 C   0  0  0  0  0  0  0  0  0  0  0  0
  -18.7280   14.6740   27.1260 C   0  0  0  0  0  0  0  0  0  0  0  0
  -18.8010   13.1640   26.9410 C   0  0  0  0  0  0  0  0  0  0  0  0
  -20.0980   12.2690   24.9570 C   0  0  0  0  0  0  0  0  0  0  0  0
  -21.3850   12.1620   25.6800 C   0  0  1  0  0  0  0  0  0  0  0  0
  -17.7180   15.2560   26.2240 N   0  0  0  0  0  0  0  0  0  0  0  0
  -19.0400   12.8540   25.5280 N   0  0  0  0  0  0  0  0  0  0  0  0
  -20.0290   11.8540   23.8110 O   0  0  0  0  0  0  0  0  0  0  0  0
  -21.6160   12.8970   26.8050 O   0  0  0  0  0  0  0  0  0  0  0  0
  -18.2130   19.4590   26.0320 S   0  0  0  0  0  0  0  0  0  0  0  0
  2  1  1  0
  3  2  1  0
  4  1  1  0
  6  5  1  0
  7  6  1  0
  9  8  1  0
 10  4  1  0
 11 10  1  0
 12 11  1  0
 13 12  1  0
 15 14  1  0
 17  5  1  0
 17 16  1  6
 18 14  1  0
 18  9  1  0
 18  2  1  0
 19 16  1  0
 19 15  1  0
 19  8  1  0
 20 16  1  0
 21  7  1  0
 21 17  1  0
 22 13  1  0
 22 10  1  0
M  END
>  <original SMILES>  (7) 
OC(NCC1CCCS1)N1CCN(C(O)C2CCCO2)CC1

>  <ref_pdb>  (7) 
x20706_0A

>  <ref_mols>  (7) 
x20706_0A,x20899_0A,x20767_0A

>  <N_hits>  (7) 
3

>  <Score_1>  (7) 
21.3028

>  <Score_2>  (7) 
1.0049

>  <Score_3>  (7) 
0.0472

$$$$
PHIPA-x11588_0A
     RDKit          3D

 24 26  0  0  0  0  0  0  0  0999 V2000
  -23.5260   13.2790   28.2250 C   0  0  0  0  0  0  0  0  0  0  0  0
  -14.8770   17.6260   26.0860 C   0  0  0  0  0  0  0  0  0  0  0  0
  -15.0550   19.1200   26.2130 C   0  0  1  0  0  0  0  0  0  0  0  0
  -14.4450   19.8520   27.2170 C   0  0  0  0  0  0  0  0  0  0  0  0
  -14.6170   21.2200   27.2840 C   0  0  0  0  0  0  0  0  0  0  0  0
  -15.3800   21.8280   26.3260 C   0  0  0  0  0  0  0  0  0  0  0  0
  -15.7770   19.8220   25.2850 C   0  0  0  0  0  0  0  0  0  0  0  0
  -18.7460   14.7590   27.0150 C   0  0  0  0  0  0  0  0  0  0  0  0
  -18.8110   13.2480   26.9120 C   0  0  0  0  0  0  0  0  0  0  0  0
  -22.9520   12.6310   27.0240 C   0  0  0  0  0  0  0  0  0  0  0  0
  -23.4560   11.8050   26.0960 C   0  0  0  0  0  0  0  0  0  0  0  0
  -22.4220   11.5260   25.1810 C   0  0  0  0  0  0  0  0  0  0  0  0
  -21.3410   12.2270   25.5720 C   0  0  0  0  0  0  0  0  0  0  0  0
  -20.0480   12.3130   24.9510 C   0  0  2  0  0  0  0  0  0  0  0  0
  -17.7990   13.3030   24.7360 C   0  0  0  0  0  0  0  0  0  0  0  0
  -17.7550   14.8160   24.7540 C   0  0  0  0  0  0  0  0  0  0  0  0
  -16.8940   16.2990   26.5610 C   0  0  0  0  0  0  0  0  0  0  0  0
  -18.9660   12.8740   25.5050 N   0  0  0  0  0  0  0  0  0  0  0  0
  -17.7220   15.3240   26.1270 N   0  0  0  0  0  0  0  0  0  0  0  0
  -16.0770   16.9040   25.6760 N   0  0  0  0  0  0  0  0  0  0  0  0
  -15.9620   21.1550   25.3220 N   0  0  0  0  0  0  0  0  0  0  0  0
  -19.9890   11.9130   23.8000 O   0  0  0  0  0  0  0  0  0  0  0  0
  -16.9010   16.6320   27.7430 O   0  0  0  0  0  0  0  0  0  0  0  0
  -21.6420   12.9080   26.7380 O   0  0  0  0  0  0  0  0  0  0  0  0
  3  2  1  6
  4  3  1  0
  5  4  1  0
  6  5  1  0
  7  3  1  0
  9  8  1  0
 10  1  1  0
 11 10  1  0
 12 11  1  0
 13 12  1  0
 14 13  1  0
 16 15  1  0
 18 15  1  0
 18 14  1  0
 18  9  1  0
 19 17  1  0
 19 16  1  0
 19  8  1  0
 20 17  1  0
 20  2  1  0
 21  7  1  0
 21  6  1  0
 14 22  1  6
 23 17  1  0
 24 10  1  0
 24 13  1  0
M  END
>  <original SMILES>  (8) 
CC1CCC(C(O)N2CCN(C(O)NCC3CCCNC3)CC2)O1

>  <ref_pdb>  (8) 
x20706_0A

>  <ref_mols>  (8) 
x20706_0A,x20899_0A,x20651_0A,x20801_0A

>  <N_hits>  (8) 
4

>  <Score_1>  (8) 
24.2000

>  <Score_2>  (8) 
1.3698

>  <Score_3>  (8) 
0.0566

$$$$
PHIPA-x11246_0A
     RDKit          3D

 22 23  0  0  0  0  0  0  0  0999 V2000
  -18.9520   12.8670   25.4990 N   0  0  0  0  0  0  0  0  0  0  0  0
  -23.5060   13.2670   28.2310 C   0  0  0  0  0  0  0  0  0  0  0  0
  -19.9500   11.8470   23.7840 O   0  0  0  0  0  0  0  0  0  0  0  0
  -22.9460   12.5910   27.0360 C   0  0  0  0  0  0  0  0  0  0  0  0
  -15.2920   19.1360   26.0470 C   0  0  0  0  0  0  0  0  0  0  0  0
  -17.6630   14.7860   24.7500 C   0  0  0  0  0  0  0  0  0  0  0  0
  -17.8040   13.2850   24.6880 C   0  0  0  0  0  0  0  0  0  0  0  0
  -23.4490   11.7730   26.1070 C   0  0  0  0  0  0  0  0  0  0  0  0
  -22.4230   11.4990   25.1870 C   0  0  0  0  0  0  0  0  0  0  0  0
  -21.3270   12.1660   25.6070 C   0  0  1  0  0  0  0  0  0  0  0  0
  -20.0090   12.2740   24.9260 C   0  0  2  0  0  0  0  0  0  0  0  0
  -18.7740   13.2280   26.9110 C   0  0  0  0  0  0  0  0  0  0  0  0
  -18.6460   14.7310   27.0250 C   0  0  0  0  0  0  0  0  0  0  0  0
  -16.7100   16.1910   26.5920 C   0  0  0  0  0  0  0  0  0  0  0  0
  -14.8650   17.7050   26.0430 C   0  0  0  0  0  0  0  0  0  0  0  0
  -15.6680   19.5450   24.8520 F   0  0  0  0  0  0  0  0  0  0  0  0
  -16.2950   19.3640   26.8880 F   0  0  0  0  0  0  0  0  0  0  0  0
  -14.3270   19.9570   26.4200 F   0  0  0  0  0  0  0  0  0  0  0  0
  -17.5630   15.2250   26.1480 N   0  0  0  0  0  0  0  0  0  0  0  0
  -15.9500   16.8110   25.6780 N   0  0  0  0  0  0  0  0  0  0  0  0
  -16.6830   16.5080   27.7700 O   0  0  0  0  0  0  0  0  0  0  0  0
  -21.6200   12.8440   26.7670 O   0  0  0  0  0  0  0  0  0  0  0  0
  4  2  1  0
  7  6  1  0
  7  1  1  0
  8  4  1  0
  9  8  1  0
 10  9  1  6
 11 10  1  0
 11  3  1  6
 11  1  1  0
 12  1  1  0
 13 12  1  0
 15  5  1  0
  5 16  1  0
 17  5  1  0
 18  5  1  0
 19 14  1  0
 19 13  1  0
 19  6  1  0
 20 14  1  0
 20 15  1  0
 21 14  1  0
 22  4  1  0
 22 10  1  0
M  END
>  <original SMILES>  (9) 
CC1CCC(C(O)N2CCN(C(O)NCC(F)(F)F)CC2)O1

>  <ref_pdb>  (9) 
x20706_0A

>  <ref_mols>  (9) 
x20706_0A,x20651_0A,x20899_0A,x20801_0A

>  <N_hits>  (9) 
4

>  <Score_1>  (9) 
24.8409

>  <Score_2>  (9) 
1.1717

>  <Score_3>  (9) 
0.0472

$$$$
PHIPA-x10071_1A
     RDKit          3D

 24 26  0  0  0  0  0  0  0  0999 V2000
  -16.6430   17.8880   26.8550 N   0  0  0  0  0  0  0  0  0  0  0  0
  -17.5800   17.0930   25.9580 C   0  0  2  0  0  0  0  0  0  0  0  0
  -18.5340   17.7140   25.3520 O   0  0  0  0  0  0  0  0  0  0  0  0
  -16.4140   19.2950   27.0110 C   0  0  2  0  0  0  0  0  0  0  0  0
  -21.8990   12.3470   25.6100 C   0  0  2  0  0  0  0  0  0  0  0  0
  -23.2520   11.8230   25.4180 C   0  0  0  0  0  0  0  0  0  0  0  0
  -23.8020   11.4990   26.8990 C   0  0  0  0  0  0  0  0  0  0  0  0
  -22.7960   11.8490   27.8140 C   0  0  0  0  0  0  0  0  0  0  0  0
  -18.2900   13.5570   23.9130 C   0  0  0  0  0  0  0  0  0  0  0  0
  -17.1000   14.5990   24.4760 C   0  0  0  0  0  0  0  0  0  0  0  0
  -16.0800   20.0290   25.8560 C   0  0  0  0  0  0  0  0  0  0  0  0
  -15.4450   21.2720   25.9440 C   0  0  0  0  0  0  0  0  0  0  0  0
  -15.1540   21.7950   27.2020 C   0  0  0  0  0  0  0  0  0  0  0  0
  -15.5220   21.1200   28.3900 C   0  0  0  0  0  0  0  0  0  0  0  0
  -16.1700   19.8710   28.2630 C   0  0  0  0  0  0  0  0  0  0  0  0
  -18.1330   14.4740   26.9710 C   0  0  0  0  0  0  0  0  0  0  0  0
  -18.5890   12.9790   26.5400 C   0  0  0  0  0  0  0  0  0  0  0  0
  -20.7080   12.6960   24.6180 C   0  0  1  0  0  0  0  0  0  0  0  0
  -14.4920   22.9410   27.2570 F   0  0  0  0  0  0  0  0  0  0  0  0
  -16.5750   19.2260   29.3350 F   0  0  0  0  0  0  0  0  0  0  0  0
  -17.4010   15.4060   25.8960 N   0  0  0  0  0  0  0  0  0  0  0  0
  -19.2890   13.0540   25.0240 N   0  0  0  0  0  0  0  0  0  0  0  0
  -20.9480   12.6170   23.4300 O   0  0  0  0  0  0  0  0  0  0  0  0
  -21.6750   12.3670   27.0920 O   0  0  0  0  0  0  0  0  0  0  0  0
  2  1  1  0
  2  3  1  1
  4  1  1  1
  5  6  1  6
  7  6  1  0
  8  7  1  0
 10  9  1  0
 11  4  1  0
 12 11  1  0
 13 12  1  0
 14 13  1  0
 15  4  1  0
 15 14  1  0
 17 16  1  0
 18  5  1  0
 19 13  1  0
 20 15  1  0
 21 16  1  0
 21 10  1  0
 21  2  1  0
 22 18  1  0
 22 17  1  0
 22  9  1  0
 18 23  1  6
 24  5  1  0
 24  8  1  0
M  END
>  <original SMILES>  (10) 
OC(NC1CCC(F)CC1F)N1CCN(C(O)C2CCCO2)CC1

>  <ref_pdb>  (10) 
x20076_0A

>  <ref_mols>  (10) 
x20076_0A,x20561_0A

>  <N_hits>  (10) 
2

>  <Score_1>  (10) 
16.5005

>  <Score_2>  (10) 
0.0000

>  <Score_3>  (10) 
0.0000

$$$$
PHIPA-x11181_0A
     RDKit          3D

 21 22  0  0  0  0  0  0  0  0999 V2000
  -16.2230   16.9740   25.6840 N   0  0  0  0  0  0  0  0  0  0  0  0
  -17.1910   20.9850   25.5420 C   0  0  0  0  0  0  0  0  0  0  0  0
  -16.7050   19.6900   25.3650 O   0  0  0  0  0  0  0  0  0  0  0  0
  -15.8360   19.2690   26.3830 C   0  0  0  0  0  0  0  0  0  0  0  0
  -23.0150   12.6120   27.3120 C   0  0  0  0  0  0  0  0  0  0  0  0
  -23.4820   13.3130   28.5360 C   0  0  0  0  0  0  0  0  0  0  0  0
  -18.0480   13.3870   24.7360 C   0  0  0  0  0  0  0  0  0  0  0  0
  -17.8630   14.8870   24.8790 C   0  0  0  0  0  0  0  0  0  0  0  0
  -15.2120   17.9830   25.9670 C   0  0  0  0  0  0  0  0  0  0  0  0
  -16.8100   16.2700   26.6780 C   0  0  0  0  0  0  0  0  0  0  0  0
  -18.6710   14.7270   27.1730 C   0  0  0  0  0  0  0  0  0  0  0  0
  -18.8430   13.2250   26.9900 C   0  0  0  0  0  0  0  0  0  0  0  0
  -20.2150   12.3180   25.0340 C   0  0  0  0  0  0  0  0  0  0  0  0
  -21.5130   12.1630   25.7640 C   0  0  2  0  0  0  0  0  0  0  0  0
  -22.6430   11.4770   25.4500 C   0  0  0  0  0  0  0  0  0  0  0  0
  -23.5920   11.7750   26.4400 C   0  0  0  0  0  0  0  0  0  0  0  0
  -17.6160   15.2390   26.2830 N   0  0  0  0  0  0  0  0  0  0  0  0
  -19.1500   12.9320   25.5890 N   0  0  0  0  0  0  0  0  0  0  0  0
  -16.6380   16.5400   27.8660 O   0  0  0  0  0  0  0  0  0  0  0  0
  -20.1800   11.8860   23.8920 O   0  0  0  0  0  0  0  0  0  0  0  0
  -21.7170   12.8760   26.9180 O   0  0  0  0  0  0  0  0  0  0  0  0
  3  2  1  0
  4  3  1  0
  6  5  1  0
  8  7  1  0
  9  4  1  0
  9  1  1  0
 10  1  1  0
 12 11  1  0
 14 13  1  6
 15 14  1  0
 16 15  1  0
 16  5  1  0
 17 11  1  0
 17 10  1  0
 17  8  1  0
 18 13  1  0
 18 12  1  0
 18  7  1  0
 19 10  1  0
 20 13  1  0
 21  5  1  0
 21 14  1  0
M  END
>  <original SMILES>  (11) 
COCCNC(O)N1CCN(C(O)C2CCC(C)O2)CC1

>  <ref_pdb>  (11) 
x20706_0A

>  <ref_mols>  (11) 
x20706_0A,x20710_0A,x20899_0A,x20651_0A,x20767_0A,x20175_0A

>  <N_hits>  (11) 
6

>  <Score_1>  (11) 
27.1896

>  <Score_2>  (11) 
1.7955

>  <Score_3>  (11) 
0.0660

$$$$
PHIPA-x11546_0A
     RDKit          3D

 22 23  0  0  0  0  0  0  0  0999 V2000
  -16.7920   16.2540   26.4850 C   0  0  0  0  0  0  0  0  0  0  0  0
  -22.9160   12.4820   26.9210 C   0  0  0  0  0  0  0  0  0  0  0  0
  -17.7750   13.2990   24.6700 C   0  0  0  0  0  0  0  0  0  0  0  0
  -17.7570   14.8110   24.6920 C   0  0  0  0  0  0  0  0  0  0  0  0
  -14.9120   17.6960   25.9060 C   0  0  0  0  0  0  0  0  0  0  0  0
  -15.2450   19.1590   26.0100 C   0  0  0  0  0  0  0  0  0  0  0  0
  -18.7080   14.7520   26.9460 C   0  0  0  0  0  0  0  0  0  0  0  0
  -18.7460   13.2370   26.8660 C   0  0  0  0  0  0  0  0  0  0  0  0
  -19.9740   12.2340   24.9010 C   0  0  2  0  0  0  0  0  0  0  0  0
  -21.2870   12.0990   25.5020 C   0  0  0  0  0  0  0  0  0  0  0  0
  -22.3550   11.3850   25.0930 C   0  0  0  0  0  0  0  0  0  0  0  0
  -23.3890   11.6300   26.0060 C   0  0  0  0  0  0  0  0  0  0  0  0
  -16.2360   19.3920   26.8700 F   0  0  0  0  0  0  0  0  0  0  0  0
  -14.2060   19.8850   26.4260 F   0  0  0  0  0  0  0  0  0  0  0  0
  -15.6170   19.6750   24.8380 F   0  0  0  0  0  0  0  0  0  0  0  0
  -16.0560   16.8630   25.5590 N   0  0  0  0  0  0  0  0  0  0  0  0
  -17.6840   15.3160   26.0630 N   0  0  0  0  0  0  0  0  0  0  0  0
  -18.9130   12.8340   25.4660 N   0  0  0  0  0  0  0  0  0  0  0  0
  -16.6820   16.5500   27.6800 O   0  0  0  0  0  0  0  0  0  0  0  0
  -19.8730   11.8280   23.7500 O   0  0  0  0  0  0  0  0  0  0  0  0
  -21.6150   12.7900   26.6390 O   0  0  0  0  0  0  0  0  0  0  0  0
  -23.7320   13.1280   28.2550 Cl  0  0  0  0  0  0  0  0  0  0  0  0
  4  3  1  0
  6  5  1  0
  8  7  1  0
 10  9  1  0
 11 10  1  0
 12 11  1  0
 12  2  1  0
  6 13  1  0
 14  6  1  0
 15  6  1  0
 16  1  1  0
 16  5  1  0
 17  7  1  0
 17  4  1  0
 17  1  1  0
 18  9  1  0
 18  8  1  0
 18  3  1  0
 19  1  1  0
  9 20  1  6
 21  2  1  0
 21 10  1  0
 22  2  1  0
M  END
>  <original SMILES>  (12) 
OC(NCC(F)(F)F)N1CCN(C(O)C2CCC(Cl)O2)CC1

>  <ref_pdb>  (12) 
x20706_0A

>  <ref_mols>  (12) 
x20706_0A,x20529_0A,x20651_0A,x20801_0A

>  <N_hits>  (12) 
4

>  <Score_1>  (12) 
24.3923

>  <Score_2>  (12) 
0.9205

>  <Score_3>  (12) 
0.0377

$$$$
PHIPA-x10041_0A
     RDKit          3D

 25 28  0  0  0  0  0  0  0  0999 V2000
  -16.5270   17.5100   25.9460 N   0  0  0  0  0  0  0  0  0  0  0  0
  -16.9360   16.5610   26.9350 C   0  0  0  0  0  0  0  0  0  0  0  0
  -16.4570   16.5640   28.0570 O   0  0  0  0  0  0  0  0  0  0  0  0
  -15.5650   18.5330   26.0720 C   0  0  0  0  0  0  0  0  0  0  0  0
  -20.3740   12.4040   25.1910 C   0  0  2  0  0  0  0  0  0  0  0  0
  -21.6280   12.2180   25.9140 C   0  0  2  0  0  0  0  0  0  0  0  0
  -22.7600   11.5160   25.5820 C   0  0  0  0  0  0  0  0  0  0  0  0
  -23.7230   11.8340   26.5820 C   0  0  0  0  0  0  0  0  0  0  0  0
  -23.1050   12.6770   27.4470 C   0  0  0  0  0  0  0  0  0  0  0  0
  -18.7900   13.1680   26.9440 C   0  0  0  0  0  0  0  0  0  0  0  0
  -18.4850   14.5850   27.4520 C   0  0  0  0  0  0  0  0  0  0  0  0
  -14.2190   20.2490   25.8820 C   0  0  0  0  0  0  0  0  0  0  0  0
  -13.4610   21.3640   25.4960 C   0  0  0  0  0  0  0  0  0  0  0  0
  -12.6300   21.9450   26.4580 C   0  0  0  0  0  0  0  0  0  0  0  0
  -12.5490   21.4420   27.7710 C   0  0  0  0  0  0  0  0  0  0  0  0
  -13.2990   20.3300   28.1790 C   0  0  0  0  0  0  0  0  0  0  0  0
  -14.1200   19.7600   27.2120 C   0  0  0  0  0  0  0  0  0  0  0  0
  -17.9800   15.1980   25.0160 C   0  0  0  0  0  0  0  0  0  0  0  0
  -18.4580   13.8040   24.6800 C   0  0  0  0  0  0  0  0  0  0  0  0
  -15.1530   19.4400   25.1610 N   0  0  0  0  0  0  0  0  0  0  0  0
  -17.9950   15.6090   26.4480 N   0  0  0  0  0  0  0  0  0  0  0  0
  -19.4440   13.3270   25.6470 N   0  0  0  0  0  0  0  0  0  0  0  0
  -14.9680   18.6670   27.3480 O   0  0  0  0  0  0  0  0  0  0  0  0
  -20.1760   11.8190   24.1620 O   0  0  0  0  0  0  0  0  0  0  0  0
  -21.8060   12.9190   27.0490 O   0  0  0  0  0  0  0  0  0  0  0  0
  2  1  1  0
  3  2  1  0
  4  1  1  0
  6  5  1  0
  6  7  1  6
  8  7  1  0
  9  8  1  0
 11 10  1  0
 13 12  1  0
 14 13  1  0
 15 14  1  0
 16 15  1  0
 17 12  1  0
 17 16  1  0
 19 18  1  0
 20 12  1  0
 20  4  1  0
 21 18  1  0
 21 11  1  0
 21  2  1  0
 22 19  1  0
 22 10  1  0
 22  5  1  0
 23 17  1  0
 23  4  1  0
  5 24  1  6
 25  9  1  0
 25  6  1  0
M  END
>  <original SMILES>  (13) 
OC(NC1NC2CCCCC2O1)N1CCN(C(O)C2CCCO2)CC1

>  <ref_pdb>  (13) 
x20899_0A

>  <ref_mols>  (13) 
x20899_0A,x20767_0A,x20706_0A

>  <N_hits>  (13) 
3

>  <Score_1>  (13) 
21.1987

>  <Score_2>  (13) 
1.3999

>  <Score_3>  (13) 
0.0660

$$$$
PHIPA-x11201_0A
     RDKit          3D

 21 23  0  0  0  0  0  0  0  0999 V2000
  -19.1180   12.9810   25.4650 N   0  0  0  0  0  0  0  0  0  0  0  0
  -23.5070   13.2610   28.3550 C   0  0  0  0  0  0  0  0  0  0  0  0
  -20.0910   11.9080   23.7720 O   0  0  0  0  0  0  0  0  0  0  0  0
  -23.0030   12.5950   27.1270 C   0  0  0  0  0  0  0  0  0  0  0  0
  -14.4890   18.7190   25.4540 C   0  0  0  0  0  0  0  0  0  0  0  0
  -14.7530   19.4880   24.2110 C   0  0  0  0  0  0  0  0  0  0  0  0
  -14.1700   20.1740   25.3960 C   0  0  0  0  0  0  0  0  0  0  0  0
  -18.6920   14.6540   27.1910 C   0  0  0  0  0  0  0  0  0  0  0  0
  -18.7960   13.1700   26.8850 C   0  0  0  0  0  0  0  0  0  0  0  0
  -23.5590   11.8150   26.1900 C   0  0  0  0  0  0  0  0  0  0  0  0
  -22.5680   11.5330   25.2350 C   0  0  0  0  0  0  0  0  0  0  0  0
  -21.4450   12.1710   25.6310 C   0  0  1  0  0  0  0  0  0  0  0  0
  -20.1520   12.3310   24.9160 C   0  0  2  0  0  0  0  0  0  0  0  0
  -18.1800   13.6360   24.5450 C   0  0  0  0  0  0  0  0  0  0  0  0
  -17.1340   14.3990   25.3060 C   0  0  0  0  0  0  0  0  0  0  0  0
  -16.9930   16.3230   26.7810 C   0  0  0  0  0  0  0  0  0  0  0  0
  -15.6440   18.3140   26.3520 C   0  0  0  0  0  0  0  0  0  0  0  0
  -17.7570   15.3180   26.2640 N   0  0  0  0  0  0  0  0  0  0  0  0
  -16.3150   17.0940   25.9090 N   0  0  0  0  0  0  0  0  0  0  0  0
  -16.9390   16.5240   27.9850 O   0  0  0  0  0  0  0  0  0  0  0  0
  -21.6810   12.8280   26.8140 O   0  0  0  0  0  0  0  0  0  0  0  0
  4  2  1  0
  6  5  1  0
  7  6  1  0
  7  5  1  0
  9  8  1  0
  9  1  1  0
 10  4  1  0
 11 10  1  0
 12 11  1  6
 13 12  1  0
 13  3  1  6
 13  1  1  0
 14  1  1  0
 15 14  1  0
  5 17  1  0
 18 16  1  0
 18 15  1  0
 18  8  1  0
 19 16  1  0
 19 17  1  0
 20 16  1  0
 21  4  1  0
 21 12  1  0
M  END
>  <original SMILES>  (14) 
CC1CCC(C(O)N2CCN(C(O)NCC3CC3)CC2)O1

>  <ref_pdb>  (14) 
x20552_0A

>  <ref_mols>  (14) 
x20552_0A,x20767_0A,x20899_0A,x20706_0A,x20651_0A

>  <N_hits>  (14) 
5

>  <Score_1>  (14) 
23.5607

>  <Score_2>  (14) 
1.1114

>  <Score_3>  (14) 
0.0472

$$$$
PHIPA-x11161_0A
     RDKit          3D

 21 22  0  0  0  0  0  0  0  0999 V2000
  -15.9440   16.8550   25.7280 N   0  0  0  0  0  0  0  0  0  0  0  0
  -16.6630   16.2020   26.6720 C   0  0  0  0  0  0  0  0  0  0  0  0
  -16.5730   16.5020   27.8600 O   0  0  0  0  0  0  0  0  0  0  0  0
  -14.8690   17.7580   26.0890 C   0  0  0  0  0  0  0  0  0  0  0  0
  -18.7180   13.2170   27.0080 C   0  0  0  0  0  0  0  0  0  0  0  0
  -18.5470   14.7190   27.1590 C   0  0  0  0  0  0  0  0  0  0  0  0
  -15.3120   19.1820   26.1170 C   0  0  0  0  0  0  0  0  0  0  0  0
  -17.6490   14.7960   24.8580 C   0  0  0  0  0  0  0  0  0  0  0  0
  -17.7650   13.2950   24.7940 C   0  0  0  0  0  0  0  0  0  0  0  0
  -19.9700   12.3110   24.9870 C   0  0  0  0  0  0  0  0  0  0  0  0
  -21.2880   12.2180   25.6810 C   0  0  2  0  0  0  0  0  0  0  0  0
  -22.3950   11.5000   25.3650 C   0  0  0  0  0  0  0  0  0  0  0  0
  -23.3840   11.8480   26.3180 C   0  0  0  0  0  0  0  0  0  0  0  0
  -22.8400   12.7330   27.1340 C   0  0  0  0  0  0  0  0  0  0  0  0
  -14.3180   20.0090   26.4370 F   0  0  0  0  0  0  0  0  0  0  0  0
  -15.7940   19.5680   24.9620 F   0  0  0  0  0  0  0  0  0  0  0  0
  -16.2580   19.3950   26.9980 F   0  0  0  0  0  0  0  0  0  0  0  0
  -17.4910   15.2090   26.2570 N   0  0  0  0  0  0  0  0  0  0  0  0
  -18.9160   12.8810   25.5950 N   0  0  0  0  0  0  0  0  0  0  0  0
  -19.9060   11.8840   23.8410 O   0  0  0  0  0  0  0  0  0  0  0  0
  -21.5410   12.9880   26.7820 O   0  0  0  0  0  0  0  0  0  0  0  0
  2  1  1  0
  3  2  1  0
  4  1  1  0
  6  5  1  0
  7  4  1  0
  9  8  1  0
 11 10  1  6
 12 11  1  0
 13 12  1  0
 14 13  1  0
  7 15  1  0
 16  7  1  0
 17  7  1  0
 18  8  1  0
 18  6  1  0
 18  2  1  0
 19 10  1  0
 19  9  1  0
 19  5  1  0
 20 10  1  0
 21 14  1  0
 21 11  1  0
M  END
>  <original SMILES>  (15) 
OC(NCC(F)(F)F)N1CCN(C(O)C2CCCO2)CC1

>  <ref_pdb>  (15) 
x20706_0A

>  <ref_mols>  (15) 
x20706_0A,x20899_0A,x20801_0A

>  <N_hits>  (15) 
3

>  <Score_1>  (15) 
23.1750

>  <Score_2>  (15) 
1.3118

>  <Score_3>  (15) 
0.0566

$$$$
PHIPA-x11205_0A
     RDKit          3D

 21 23  0  0  0  0  0  0  0  0999 V2000
  -16.4050   17.0270   25.7950 N   0  0  0  0  0  0  0  0  0  0  0  0
  -16.9800   16.2290   26.7030 C   0  0  0  0  0  0  0  0  0  0  0  0
  -16.8060   16.4230   27.8980 O   0  0  0  0  0  0  0  0  0  0  0  0
  -15.1090   17.6530   26.0310 C   0  0  0  0  0  0  0  0  0  0  0  0
  -23.5660   11.7350   26.2030 C   0  0  0  0  0  0  0  0  0  0  0  0
  -23.0070   12.5240   27.1200 C   0  0  1  0  0  0  0  0  0  0  0  0
  -18.1210   13.4610   24.5600 C   0  0  0  0  0  0  0  0  0  0  0  0
  -18.0360   14.9470   24.8260 C   0  0  0  0  0  0  0  0  0  0  0  0
  -15.1180   19.1180   25.6390 C   0  0  0  0  0  0  0  0  0  0  0  0
  -14.6690   19.4530   24.2610 C   0  0  0  0  0  0  0  0  0  0  0  0
  -13.8280   19.8330   25.4300 C   0  0  0  0  0  0  0  0  0  0  0  0
  -18.7240   14.5440   27.1450 C   0  0  0  0  0  0  0  0  0  0  0  0
  -18.7750   13.0560   26.8620 C   0  0  0  0  0  0  0  0  0  0  0  0
  -20.1740   12.2470   24.9120 C   0  0  2  0  0  0  0  0  0  0  0  0
  -21.4530   12.0870   25.6460 C   0  0  2  0  0  0  0  0  0  0  0  0
  -22.5800   11.4390   25.2580 C   0  0  0  0  0  0  0  0  0  0  0  0
  -17.7620   15.2040   26.2470 N   0  0  0  0  0  0  0  0  0  0  0  0
  -19.1070   12.8440   25.4510 N   0  0  0  0  0  0  0  0  0  0  0  0
  -20.1600   11.8760   23.7590 O   0  0  0  0  0  0  0  0  0  0  0  0
  -21.6780   12.7630   26.8290 O   0  0  0  0  0  0  0  0  0  0  0  0
  -23.6420   13.2510   28.4170 Cl  0  0  0  0  0  0  0  0  0  0  0  0
  2  1  1  0
  3  2  1  0
  4  1  1  0
  6  5  1  0
  8  7  1  0
  9  4  1  0
 10  9  1  0
 11 10  1  0
 11  9  1  0
 13 12  1  0
 15 14  1  0
 16  5  1  0
 15 16  1  6
 17 12  1  0
 17  8  1  0
 17  2  1  0
 18 14  1  0
 18 13  1  0
 18  7  1  0
 14 19  1  6
 20  6  1  0
 20 15  1  0
  6 21  1  6
M  END
>  <original SMILES>  (16) 
OC(NCC1CC1)N1CCN(C(O)C2CCC(Cl)O2)CC1

>  <ref_pdb>  (16) 
x20552_0A

>  <ref_mols>  (16) 
x20552_0A,x20706_0A,x20899_0A,x20651_0A,x20801_0A

>  <N_hits>  (16) 
5

>  <Score_1>  (16) 
22.9902

>  <Score_2>  (16) 
1.0844

>  <Score_3>  (16) 
0.0472

$$$$
PHIPA-x11585_0A
     RDKit          3D

 23 25  0  0  0  0  0  0  0  0999 V2000
  -16.5900   16.4330   26.7030 C   0  0  1  0  0  0  0  0  0  0  0  0
  -20.3180   12.5280   25.2600 C   0  0  2  0  0  0  0  0  0  0  0  0
  -21.4970   12.3950   26.0550 C   0  0  1  0  0  0  0  0  0  0  0  0
  -21.8710   13.0050   27.2400 C   0  0  0  0  0  0  0  0  0  0  0  0
  -23.2500   12.8180   27.5010 C   0  0  0  0  0  0  0  0  0  0  0  0
  -23.8260   11.9330   26.6700 C   0  0  0  0  0  0  0  0  0  0  0  0
  -18.5110   14.0400   24.7140 C   0  0  0  0  0  0  0  0  0  0  0  0
  -18.3070   15.4500   25.2130 C   0  0  0  0  0  0  0  0  0  0  0  0
  -14.7430   17.7940   25.8120 C   0  0  0  0  0  0  0  0  0  0  0  0
  -14.8790   19.2680   26.1070 C   0  0  0  0  0  0  0  0  0  0  0  0
  -14.0120   19.9270   26.9610 C   0  0  0  0  0  0  0  0  0  0  0  0
  -14.1700   21.2720   27.2010 C   0  0  0  0  0  0  0  0  0  0  0  0
  -15.1950   21.9330   26.5740 C   0  0  0  0  0  0  0  0  0  0  0  0
  -15.8780   20.0200   25.5210 C   0  0  0  0  0  0  0  0  0  0  0  0
  -17.5830   14.2180   27.1830 C   0  0  0  0  0  0  0  0  0  0  0  0
  -18.9830   13.6430   27.0820 C   0  0  0  0  0  0  0  0  0  0  0  0
  -16.0250   17.1170   25.6880 N   0  0  0  0  0  0  0  0  0  0  0  0
  -16.0550   21.3350   25.7360 N   0  0  0  0  0  0  0  0  0  0  0  0
  -17.4420   15.4360   26.3860 N   0  0  0  0  0  0  0  0  0  0  0  0
  -19.3200   13.3210   25.6920 N   0  0  0  0  0  0  0  0  0  0  0  0
  -16.2860   16.6510   27.8750 O   0  0  0  0  0  0  0  0  0  0  0  0
  -20.2900   12.0020   24.1500 O   0  0  0  0  0  0  0  0  0  0  0  0
  -22.7530   11.3680   25.4830 S   0  0  0  0  0  0  0  0  0  0  0  0
  3  2  1  0
  3  4  1  6
  5  4  1  0
  6  5  1  0
  8  7  1  0
 10  9  1  0
 11 10  1  0
 12 11  1  0
 13 12  1  0
 14 10  1  0
 16 15  1  0
 17  1  1  0
 17  9  1  0
 18 14  1  0
 18 13  1  0
 19 15  1  0
 19  8  1  0
 19  1  1  0
 20 16  1  0
 20  7  1  0
 20  2  1  0
  1 21  1  6
  2 22  1  6
 23  6  1  0
 23  3  1  0
M  END
>  <original SMILES>  (17) 
OC(NCC1CCCNC1)N1CCN(C(O)C2CCCS2)CC1

>  <ref_pdb>  (17) 
x20899_0A

>  <ref_mols>  (17) 
x20899_0A,x20552_0A,x20370_0A,x20706_0A

>  <N_hits>  (17) 
4

>  <Score_1>  (17) 
22.1634

>  <Score_2>  (17) 
1.4636

>  <Score_3>  (17) 
0.0660

$$$$
PHIPA-x10052_0A
     RDKit          3D

 19 20  0  0  0  0  0  0  0  0999 V2000
  -16.2240   17.0850   26.0580 N   0  0  0  0  0  0  0  0  0  0  0  0
  -14.6690   18.7980   25.2490 C   0  0  0  0  0  0  0  0  0  0  0  0
  -16.9630   16.7170   28.1810 O   0  0  0  0  0  0  0  0  0  0  0  0
  -15.7200   18.4490   26.3180 C   0  0  0  0  0  0  0  0  0  0  0  0
  -23.1130   12.7050   27.4870 C   0  0  0  0  0  0  0  0  0  0  0  0
  -18.2460   13.5760   24.7750 C   0  0  0  0  0  0  0  0  0  0  0  0
  -17.8930   15.0290   25.0530 C   0  0  0  0  0  0  0  0  0  0  0  0
  -16.8840   19.4630   26.3180 C   0  0  0  0  0  0  0  0  0  0  0  0
  -17.0530   16.4790   26.9910 C   0  0  0  0  0  0  0  0  0  0  0  0
  -18.7330   14.6300   27.4730 C   0  0  0  0  0  0  0  0  0  0  0  0
  -18.8780   13.1580   27.0520 C   0  0  0  0  0  0  0  0  0  0  0  0
  -20.3730   12.4220   25.1950 C   0  0  2  0  0  0  0  0  0  0  0  0
  -21.6150   12.2820   25.9450 C   0  0  2  0  0  0  0  0  0  0  0  0
  -22.7350   11.5690   25.6170 C   0  0  0  0  0  0  0  0  0  0  0  0
  -23.7000   11.8610   26.6140 C   0  0  0  0  0  0  0  0  0  0  0  0
  -18.0600   15.5290   26.4570 N   0  0  0  0  0  0  0  0  0  0  0  0
  -19.3480   13.2160   25.6550 N   0  0  0  0  0  0  0  0  0  0  0  0
  -20.2730   11.8940   24.1150 O   0  0  0  0  0  0  0  0  0  0  0  0
  -21.8100   12.9910   27.1050 O   0  0  0  0  0  0  0  0  0  0  0  0
  4  2  1  0
  4  1  1  0
  7  6  1  0
  8  4  1  0
  9  3  1  0
  9  1  1  0
 11 10  1  0
 13 12  1  0
 13 14  1  6
 15 14  1  0
 15  5  1  0
 16  7  1  0
 16 10  1  0
 16  9  1  0
 17 12  1  0
 17 11  1  0
 17  6  1  0
 12 18  1  6
 19  5  1  0
 19 13  1  0
M  END
>  <original SMILES>  (18) 
CC(C)NC(O)N1CCN(C(O)C2CCCO2)CC1

>  <ref_pdb>  (18) 
x20552_0A

>  <ref_mols>  (18) 
x20552_0A,x20899_0A,x20706_0A,x20767_0A

>  <N_hits>  (18) 
4

>  <Score_1>  (18) 
21.5540

>  <Score_2>  (18) 
1.2200

>  <Score_3>  (18) 
0.0566

$$$$
PHIPA-x11564_0A
     RDKit          3D

 20 22  0  0  0  0  0  0  0  0999 V2000
  -16.7260   16.2560   26.8850 C   0  0  0  0  0  0  0  0  0  0  0  0
  -21.7740   12.9870   27.2160 C   0  0  0  0  0  0  0  0  0  0  0  0
  -23.1490   12.8340   27.5340 C   0  0  0  0  0  0  0  0  0  0  0  0
  -23.7840   11.9560   26.7370 C   0  0  0  0  0  0  0  0  0  0  0  0
  -18.6000   13.9810   24.6000 C   0  0  0  0  0  0  0  0  0  0  0  0
  -17.3230   14.5740   25.1430 C   0  0  0  0  0  0  0  0  0  0  0  0
  -15.5870   18.3540   26.3270 C   0  0  0  0  0  0  0  0  0  0  0  0
  -14.3530   18.6700   25.5370 C   0  0  0  0  0  0  0  0  0  0  0  0
  -13.9180   20.0890   25.4080 C   0  0  0  0  0  0  0  0  0  0  0  0
  -14.4770   19.3680   24.2280 C   0  0  0  0  0  0  0  0  0  0  0  0
  -18.3590   14.4770   27.3600 C   0  0  0  0  0  0  0  0  0  0  0  0
  -18.5860   13.0560   26.8920 C   0  0  0  0  0  0  0  0  0  0  0  0
  -20.3050   12.4170   25.1760 C   0  0  2  0  0  0  0  0  0  0  0  0
  -21.4620   12.3430   26.0230 C   0  0  2  0  0  0  0  0  0  0  0  0
  -16.1070   17.0360   25.9900 N   0  0  0  0  0  0  0  0  0  0  0  0
  -17.5430   15.2520   26.4180 N   0  0  0  0  0  0  0  0  0  0  0  0
  -19.2180   13.0780   25.5740 N   0  0  0  0  0  0  0  0  0  0  0  0
  -16.6160   16.4580   28.0910 O   0  0  0  0  0  0  0  0  0  0  0  0
  -20.3710   11.9750   24.0410 O   0  0  0  0  0  0  0  0  0  0  0  0
  -22.7860   11.3730   25.4980 S   0  0  0  0  0  0  0  0  0  0  0  0
  3  2  1  0
  4  3  1  0
  6  5  1  0
  8  7  1  0
  9  8  1  0
 10  9  1  0
 10  8  1  0
 12 11  1  0
 14 13  1  0
 14  2  1  6
 15  1  1  0
 15  7  1  0
 16  6  1  0
 16  1  1  0
 16 11  1  0
 17 13  1  0
 17 12  1  0
 17  5  1  0
 18  1  1  0
 13 19  1  6
 20  4  1  0
 20 14  1  0
M  END
>  <original SMILES>  (19) 
OC(NCC1CC1)N1CCN(C(O)C2CCCS2)CC1

>  <ref_pdb>  (19) 
x20552_0A

>  <ref_mols>  (19) 
x20552_0A,x20899_0A,x20767_0A,x20706_0A,x20370_0A

>  <N_hits>  (19) 
5

>  <Score_1>  (19) 
22.7896

>  <Score_2>  (19) 
1.2900

>  <Score_3>  (19) 
0.0566

$$$$
PHIPA-x11185_0A
     RDKit          3D

 21 22  0  0  0  0  0  0  0  0999 V2000
  -16.3320   16.9970   25.5950 N   0  0  0  0  0  0  0  0  0  0  0  0
  -16.9460   21.0760   25.3640 C   0  0  0  0  0  0  0  0  0  0  0  0
  -16.6870   19.6890   25.3190 O   0  0  0  0  0  0  0  0  0  0  0  0
  -15.7440   19.2680   26.2780 C   0  0  0  0  0  0  0  0  0  0  0  0
  -23.0180   12.5950   27.2830 C   0  0  0  0  0  0  0  0  0  0  0  0
  -18.9050   13.2280   26.9100 C   0  0  0  0  0  0  0  0  0  0  0  0
  -18.7580   14.7300   27.0790 C   0  0  0  0  0  0  0  0  0  0  0  0
  -15.2400   17.9160   25.8850 C   0  0  0  0  0  0  0  0  0  0  0  0
  -16.8710   16.2300   26.5660 C   0  0  0  0  0  0  0  0  0  0  0  0
  -17.9620   14.8710   24.7600 C   0  0  0  0  0  0  0  0  0  0  0  0
  -18.1210   13.3770   24.6360 C   0  0  0  0  0  0  0  0  0  0  0  0
  -20.2930   12.3470   24.9770 C   0  0  0  0  0  0  0  0  0  0  0  0
  -21.5570   12.1790   25.7240 C   0  0  2  0  0  0  0  0  0  0  0  0
  -22.6950   11.5160   25.4030 C   0  0  0  0  0  0  0  0  0  0  0  0
  -23.6260   11.8000   26.4050 C   0  0  0  0  0  0  0  0  0  0  0  0
  -17.7230   15.2420   26.1640 N   0  0  0  0  0  0  0  0  0  0  0  0
  -19.2050   12.9210   25.5100 N   0  0  0  0  0  0  0  0  0  0  0  0
  -16.6300   16.4200   27.7500 O   0  0  0  0  0  0  0  0  0  0  0  0
  -20.3060   11.9770   23.8190 O   0  0  0  0  0  0  0  0  0  0  0  0
  -21.7260   12.8590   26.9090 O   0  0  0  0  0  0  0  0  0  0  0  0
  -23.5140   13.2730   28.6540 Cl  0  0  0  0  0  0  0  0  0  0  0  0
  3  2  1  0
  4  3  1  0
  7  6  1  0
  8  4  1  0
  8  1  1  0
  9  1  1  0
 11 10  1  0
 13 12  1  6
 14 13  1  0
 15 14  1  0
 15  5  1  0
 16 10  1  0
 16  9  1  0
 16  7  1  0
 17 12  1  0
 17 11  1  0
 17  6  1  0
 18  9  1  0
 19 12  1  0
 20  5  1  0
 20 13  1  0
 21  5  1  0
M  END
>  <original SMILES>  (20) 
COCCNC(O)N1CCN(C(O)C2CCC(Cl)O2)CC1

>  <ref_pdb>  (20) 
x20710_0A

>  <ref_mols>  (20) 
x20710_0A,x20706_0A,x20899_0A,x20651_0A,x20767_0A,x20175_0A

>  <N_hits>  (20) 
6

>  <Score_1>  (20) 
26.7836

>  <Score_2>  (20) 
1.5161

>  <Score_3>  (20) 
0.0566

$$$$
