untitled-dbase-35785_0
  -OEChem-06162310163D

 32 34  0     1  0  0  0  0  0999 V2000
  -13.7151   14.8066  -37.3823 C   0  0  0  0  0  0  0  0  0  0  0  0
  -13.5360   13.7795  -38.5262 C   0  0  0  0  0  0  0  0  0  0  0  0
  -11.5540   16.1813  -37.5617 C   0  0  0  0  0  0  0  0  0  0  0  0
  -11.2443   14.4569  -39.4698 C   0  0  0  0  0  0  0  0  0  0  0  0
  -10.0968   14.0520  -35.8646 C   0  0  0  0  0  0  0  0  0  0  0  0
   -8.6685   14.5163  -36.1018 C   0  0  0  0  0  0  0  0  0  0  0  0
   -9.2385   15.3380  -38.2217 C   0  0  0  0  0  0  0  0  0  0  0  0
  -13.0732   16.1348  -37.8202 C   0  0  1  0  0  0  0  0  0  0  0  0
  -12.7727   14.4631  -39.6742 C   0  0  2  0  0  0  0  0  0  0  0  0
  -10.7298   14.9500  -38.0743 C   0  0  0  0  0  0  0  0  0  0  0  0
  -10.7991   13.8099  -37.1270 N   0  0  0  0  0  0  0  0  0  0  0  0
  -12.4373   17.0507  -40.2494 O   0  0  0  0  0  0  0  0  0  0  0  0
  -14.7795   16.1859  -39.8480 O   0  0  0  0  0  0  0  0  0  0  0  0
   -8.6580   15.6579  -36.9564 O   0  0  0  0  0  0  0  0  0  0  0  0
  -13.3554   16.1510  -39.5859 S   0  0  0  0  0  0  0  0  0  0  0  0
  -14.7934   14.9680  -37.2464 H   0  0  0  0  0  0  0  0  0  0  0  0
  -13.3571   14.4564  -36.4106 H   0  0  0  0  0  0  0  0  0  0  0  0
  -13.0855   12.8342  -38.2136 H   0  0  0  0  0  0  0  0  0  0  0  0
  -14.5379   13.5090  -38.8870 H   0  0  0  0  0  0  0  0  0  0  0  0
  -11.1528   17.0953  -38.0179 H   0  0  0  0  0  0  0  0  0  0  0  0
  -11.3882   16.3022  -36.4829 H   0  0  0  0  0  0  0  0  0  0  0  0
  -10.8750   13.4484  -39.6892 H   0  0  0  0  0  0  0  0  0  0  0  0
  -10.7943   15.0856  -40.2511 H   0  0  0  0  0  0  0  0  0  0  0  0
  -10.1042   13.1484  -35.2469 H   0  0  0  0  0  0  0  0  0  0  0  0
  -10.6363   14.8205  -35.3007 H   0  0  0  0  0  0  0  0  0  0  0  0
   -8.1617   14.7591  -35.1599 H   0  0  0  0  0  0  0  0  0  0  0  0
   -8.0929   13.7245  -36.5917 H   0  0  0  0  0  0  0  0  0  0  0  0
   -8.6640   14.5047  -38.6422 H   0  0  0  0  0  0  0  0  0  0  0  0
   -9.1069   16.1892  -38.9031 H   0  0  0  0  0  0  0  0  0  0  0  0
  -13.5726   16.9999  -37.3746 H   0  0  0  0  0  0  0  0  0  0  0  0
  -13.0397   14.0504  -40.6505 H   0  0  0  0  0  0  0  0  0  0  0  0
  -10.4750   12.9384  -37.5195 H   0  0  0  0  0  0  0  0  0  0  0  0
  1  2  1  0  0  0  0
  1  8  1  0  0  0  0
  2  9  1  0  0  0  0
  3  8  1  0  0  0  0
  3 10  1  0  0  0  0
  4  9  1  0  0  0  0
  4 10  1  0  0  0  0
  5  6  1  0  0  0  0
  5 11  1  0  0  0  0
  6 14  1  0  0  0  0
  7 10  1  0  0  0  0
  7 14  1  0  0  0  0
  8 15  1  0  0  0  0
  9 15  1  0  0  0  0
 10 11  1  0  0  0  0
 12 15  2  0  0  0  0
 13 15  2  0  0  0  0
  1 16  1  0  0  0  0
  1 17  1  0  0  0  0
  2 18  1  0  0  0  0
  2 19  1  0  0  0  0
  3 20  1  0  0  0  0
  3 21  1  0  0  0  0
  4 22  1  0  0  0  0
  4 23  1  0  0  0  0
  5 24  1  0  0  0  0
  5 25  1  0  0  0  0
  6 26  1  0  0  0  0
  6 27  1  0  0  0  0
  7 28  1  0  0  0  0
  7 29  1  0  0  0  0
  8 30  1  0  0  0  0
  9 31  1  0  0  0  0
 11 32  1  0  0  0  0
M  END
> <id>
EN300-1645395

> <smiles>
O=S1(=O)C2CCC1CC3(COCCN3)C2

> <IUPAC Name>
8lambda6-thiaspiro[bicyclo[3.2.1]octane-3,3'-morpholine]-8,8-dione

> <CAS>
2171642-61-6

> <URL>
https://www.enaminestore.com/catalog/EN300-1645395

> <ROCS_ShapeQuery>
x1247relevant_x1083L0AP1_x1305L0BP1_

> <ROCS_TanimotoCombo>
0.933 

> <ROCS_ShapeTanimoto>
0.488 

> <ROCS_ColorTanimoto>
0.445 

> <ROCS_RefTversky>
0.413 

> <ROCS_RefColorTversky>
0.484 

> <ROCS_RefTverskyCombo>
0.897 

> <ROCS_FitTversky>
1.584 

> <ROCS_FitColorTversky>
0.848 

> <ROCS_FitTverskyCombo>
2.432 

> <ROCS_ColorScore>
-10.328

> <ROCS_Overlap>
1216.491

> <ROCS_Rank>
1                   

$$$$
untitled-dbase-32054_2
  -OEChem-06162310163D

 36 39  0     0  0  0  0  0  0999 V2000
  -14.1907   15.5752  -39.2717 C   0  0  0  0  0  0  0  0  0  0  0  0
  -11.9543   16.6847  -39.1394 C   0  0  0  0  0  0  0  0  0  0  0  0
  -13.2599   16.2158  -37.0362 C   0  0  0  0  0  0  0  0  0  0  0  0
  -12.1001   14.2849  -39.7675 C   0  0  0  0  0  0  0  0  0  0  0  0
  -13.4192   13.8077  -37.6785 C   0  0  0  0  0  0  0  0  0  0  0  0
   -9.5696   13.4128  -36.2857 C   0  0  0  0  0  0  0  0  0  0  0  0
   -8.4279   14.4144  -36.4289 C   0  0  0  0  0  0  0  0  0  0  0  0
  -10.2470   15.9111  -36.6669 C   0  0  0  0  0  0  0  0  0  0  0  0
  -13.3591   16.6249  -38.5162 C   0  0  0  0  0  0  0  0  0  0  0  0
  -13.5128   14.1997  -39.1625 C   0  0  0  0  0  0  0  0  0  0  0  0
  -11.2436   15.3187  -38.9902 C   0  0  0  0  0  0  0  0  0  0  0  0
  -12.5666   14.8406  -36.9035 C   0  0  0  0  0  0  0  0  0  0  0  0
  -11.1135   14.9048  -37.4789 C   0  0  0  0  0  0  0  0  0  0  0  0
  -10.4935   13.5523  -37.4060 N   0  0  0  0  0  0  0  0  0  0  0  0
   -8.8604   15.6871  -36.9141 O   0  0  0  0  0  0  0  0  0  0  0  0
  -15.2046   15.5286  -38.8564 H   0  0  0  0  0  0  0  0  0  0  0  0
  -14.2917   15.8625  -40.3252 H   0  0  0  0  0  0  0  0  0  0  0  0
  -12.0330   16.9436  -40.2027 H   0  0  0  0  0  0  0  0  0  0  0  0
  -11.3672   17.4842  -38.6766 H   0  0  0  0  0  0  0  0  0  0  0  0
  -12.7264   16.9825  -36.4655 H   0  0  0  0  0  0  0  0  0  0  0  0
  -14.2663   16.1633  -36.6017 H   0  0  0  0  0  0  0  0  0  0  0  0
  -11.6255   13.2970  -39.7555 H   0  0  0  0  0  0  0  0  0  0  0  0
  -12.1651   14.5796  -40.8228 H   0  0  0  0  0  0  0  0  0  0  0  0
  -14.4261   13.7600  -37.2439 H   0  0  0  0  0  0  0  0  0  0  0  0
  -12.9961   12.8011  -37.5805 H   0  0  0  0  0  0  0  0  0  0  0  0
   -9.1691   12.3991  -36.2679 H   0  0  0  0  0  0  0  0  0  0  0  0
  -10.0940   13.5692  -35.3437 H   0  0  0  0  0  0  0  0  0  0  0  0
   -7.9494   14.5779  -35.4464 H   0  0  0  0  0  0  0  0  0  0  0  0
   -7.6329   14.0243  -37.0951 H   0  0  0  0  0  0  0  0  0  0  0  0
  -10.4983   16.9454  -36.9247 H   0  0  0  0  0  0  0  0  0  0  0  0
  -10.3934   15.8136  -35.5927 H   0  0  0  0  0  0  0  0  0  0  0  0
  -13.8427   17.6046  -38.5992 H   0  0  0  0  0  0  0  0  0  0  0  0
  -14.1044   13.4542  -39.7055 H   0  0  0  0  0  0  0  0  0  0  0  0
  -10.2538   15.3806  -39.4553 H   0  0  0  0  0  0  0  0  0  0  0  0
  -12.5569   14.5706  -35.8387 H   0  0  0  0  0  0  0  0  0  0  0  0
   -9.9853   13.3815  -38.2742 H   0  0  0  0  0  0  0  0  0  0  0  0
  1  9  1  0  0  0  0
  1 10  1  0  0  0  0
  2  9  1  0  0  0  0
  2 11  1  0  0  0  0
  3  9  1  0  0  0  0
  3 12  1  0  0  0  0
  4 10  1  0  0  0  0
  4 11  1  0  0  0  0
  5 10  1  0  0  0  0
  5 12  1  0  0  0  0
  6  7  1  0  0  0  0
  6 14  1  0  0  0  0
  7 15  1  0  0  0  0
  8 13  1  0  0  0  0
  8 15  1  0  0  0  0
 11 13  1  0  0  0  0
 12 13  1  0  0  0  0
 13 14  1  0  0  0  0
  1 16  1  0  0  0  0
  1 17  1  0  0  0  0
  2 18  1  0  0  0  0
  2 19  1  0  0  0  0
  3 20  1  0  0  0  0
  3 21  1  0  0  0  0
  4 22  1  0  0  0  0
  4 23  1  0  0  0  0
  5 24  1  0  0  0  0
  5 25  1  0  0  0  0
  6 26  1  0  0  0  0
  6 27  1  0  0  0  0
  7 28  1  0  0  0  0
  7 29  1  0  0  0  0
  8 30  1  0  0  0  0
  8 31  1  0  0  0  0
  9 32  1  0  0  0  0
 10 33  1  0  0  0  0
 11 34  1  0  0  0  0
 12 35  1  0  0  0  0
 14 36  1  0  0  0  0
M  END
> <id>
EN300-9509223

> <smiles>
C1COCC2(N1)C3CC4CC(C3)CC2C4

> <IUPAC Name>
spiro[adamantane-2,3'-morpholine]

> <CAS>
180258-93-9

> <URL>
https://www.enaminestore.com/catalog/EN300-9509223

> <ROCS_ShapeQuery>
x1247relevant_x1083L0AP1_x1305L0BP1_

> <ROCS_TanimotoCombo>
0.933 

> <ROCS_ShapeTanimoto>
0.523 

> <ROCS_ColorTanimoto>
0.410 

> <ROCS_RefTversky>
0.437 

> <ROCS_RefColorTversky>
0.441 

> <ROCS_RefTverskyCombo>
0.878 

> <ROCS_FitTversky>
1.604 

> <ROCS_FitColorTversky>
0.853 

> <ROCS_FitTverskyCombo>
2.457 

> <ROCS_ColorScore>
-9.388

> <ROCS_Overlap>
1286.631

> <ROCS_Rank>
2                   

$$$$
untitled-dbase-32001_2
  -OEChem-06162310163D

 36 39  0     0  0  0  0  0  0999 V2000
  -14.1907   15.5752  -39.2717 C   0  0  0  0  0  0  0  0  0  0  0  0
  -11.9543   16.6847  -39.1394 C   0  0  0  0  0  0  0  0  0  0  0  0
  -13.2599   16.2158  -37.0362 C   0  0  0  0  0  0  0  0  0  0  0  0
  -12.1001   14.2849  -39.7675 C   0  0  0  0  0  0  0  0  0  0  0  0
  -13.4192   13.8077  -37.6785 C   0  0  0  0  0  0  0  0  0  0  0  0
   -9.5696   13.4128  -36.2857 C   0  0  0  0  0  0  0  0  0  0  0  0
   -8.4279   14.4144  -36.4289 C   0  0  0  0  0  0  0  0  0  0  0  0
  -10.2470   15.9111  -36.6669 C   0  0  0  0  0  0  0  0  0  0  0  0
  -13.3591   16.6249  -38.5162 C   0  0  0  0  0  0  0  0  0  0  0  0
  -13.5128   14.1997  -39.1625 C   0  0  0  0  0  0  0  0  0  0  0  0
  -11.2436   15.3187  -38.9902 C   0  0  0  0  0  0  0  0  0  0  0  0
  -12.5666   14.8406  -36.9035 C   0  0  0  0  0  0  0  0  0  0  0  0
  -11.1135   14.9048  -37.4789 C   0  0  0  0  0  0  0  0  0  0  0  0
  -10.4935   13.5523  -37.4060 N   0  0  0  0  0  0  0  0  0  0  0  0
   -8.8604   15.6871  -36.9141 O   0  0  0  0  0  0  0  0  0  0  0  0
  -15.2046   15.5286  -38.8564 H   0  0  0  0  0  0  0  0  0  0  0  0
  -14.2917   15.8625  -40.3252 H   0  0  0  0  0  0  0  0  0  0  0  0
  -12.0330   16.9436  -40.2027 H   0  0  0  0  0  0  0  0  0  0  0  0
  -11.3672   17.4842  -38.6766 H   0  0  0  0  0  0  0  0  0  0  0  0
  -12.7264   16.9825  -36.4655 H   0  0  0  0  0  0  0  0  0  0  0  0
  -14.2663   16.1633  -36.6017 H   0  0  0  0  0  0  0  0  0  0  0  0
  -11.6255   13.2970  -39.7555 H   0  0  0  0  0  0  0  0  0  0  0  0
  -12.1651   14.5796  -40.8228 H   0  0  0  0  0  0  0  0  0  0  0  0
  -14.4261   13.7600  -37.2439 H   0  0  0  0  0  0  0  0  0  0  0  0
  -12.9961   12.8011  -37.5805 H   0  0  0  0  0  0  0  0  0  0  0  0
   -9.1691   12.3991  -36.2679 H   0  0  0  0  0  0  0  0  0  0  0  0
  -10.0940   13.5692  -35.3437 H   0  0  0  0  0  0  0  0  0  0  0  0
   -7.9494   14.5779  -35.4464 H   0  0  0  0  0  0  0  0  0  0  0  0
   -7.6329   14.0243  -37.0951 H   0  0  0  0  0  0  0  0  0  0  0  0
  -10.4983   16.9454  -36.9247 H   0  0  0  0  0  0  0  0  0  0  0  0
  -10.3934   15.8136  -35.5927 H   0  0  0  0  0  0  0  0  0  0  0  0
  -13.8427   17.6046  -38.5992 H   0  0  0  0  0  0  0  0  0  0  0  0
  -14.1044   13.4542  -39.7055 H   0  0  0  0  0  0  0  0  0  0  0  0
  -10.2538   15.3806  -39.4553 H   0  0  0  0  0  0  0  0  0  0  0  0
  -12.5569   14.5706  -35.8387 H   0  0  0  0  0  0  0  0  0  0  0  0
   -9.9853   13.3815  -38.2742 H   0  0  0  0  0  0  0  0  0  0  0  0
  1  9  1  0  0  0  0
  1 10  1  0  0  0  0
  2  9  1  0  0  0  0
  2 11  1  0  0  0  0
  3  9  1  0  0  0  0
  3 12  1  0  0  0  0
  4 10  1  0  0  0  0
  4 11  1  0  0  0  0
  5 10  1  0  0  0  0
  5 12  1  0  0  0  0
  6  7  1  0  0  0  0
  6 14  1  0  0  0  0
  7 15  1  0  0  0  0
  8 13  1  0  0  0  0
  8 15  1  0  0  0  0
 11 13  1  0  0  0  0
 12 13  1  0  0  0  0
 13 14  1  0  0  0  0
  1 16  1  0  0  0  0
  1 17  1  0  0  0  0
  2 18  1  0  0  0  0
  2 19  1  0  0  0  0
  3 20  1  0  0  0  0
  3 21  1  0  0  0  0
  4 22  1  0  0  0  0
  4 23  1  0  0  0  0
  5 24  1  0  0  0  0
  5 25  1  0  0  0  0
  6 26  1  0  0  0  0
  6 27  1  0  0  0  0
  7 28  1  0  0  0  0
  7 29  1  0  0  0  0
  8 30  1  0  0  0  0
  8 31  1  0  0  0  0
  9 32  1  0  0  0  0
 10 33  1  0  0  0  0
 11 34  1  0  0  0  0
 12 35  1  0  0  0  0
 14 36  1  0  0  0  0
M  END
> <id>
EN300-26871880

> <smiles>
Cl.C1COCC2(N1)C3CC4CC(C3)CC2C4

> <MDLNUMBER>
MFCD32692049

> <IUPAC Name>
spiro[adamantane-2,3'-morpholine] hydrochloride

> <CAS>
2445793-36-0

> <Purity>
95

> <URL>
https://www.enaminestore.com/catalog/EN300-26871880

> <Saltdate>
Cl

> <ROCS_ShapeQuery>
x1247relevant_x1083L0AP1_x1305L0BP1_

> <ROCS_TanimotoCombo>
0.933 

> <ROCS_ShapeTanimoto>
0.523 

> <ROCS_ColorTanimoto>
0.410 

> <ROCS_RefTversky>
0.437 

> <ROCS_RefColorTversky>
0.441 

> <ROCS_RefTverskyCombo>
0.878 

> <ROCS_FitTversky>
1.604 

> <ROCS_FitColorTversky>
0.853 

> <ROCS_FitTverskyCombo>
2.457 

> <ROCS_ColorScore>
-9.388

> <ROCS_Overlap>
1286.631

> <ROCS_Rank>
3                   

$$$$
untitled-dbase-18569_5
  -OEChem-06162310163D

 30 32  0     1  0  0  0  0  0999 V2000
  -13.5226   14.9781  -39.8978 C   0  0  0  0  0  0  0  0  0  0  0  0
  -14.3849   14.8918  -38.6490 C   0  0  0  0  0  0  0  0  0  0  0  0
  -11.1266   14.9066  -39.0237 C   0  0  0  0  0  0  0  0  0  0  0  0
  -12.5346   14.5214  -36.9436 C   0  0  0  0  0  0  0  0  0  0  0  0
   -9.4049   13.4266  -36.1967 C   0  0  0  0  0  0  0  0  0  0  0  0
   -8.3808   14.5305  -36.4414 C   0  0  0  0  0  0  0  0  0  0  0  0
  -10.3535   15.8109  -36.7691 C   0  0  0  0  0  0  0  0  0  0  0  0
  -12.3080   15.7961  -39.4590 C   0  0  2  0  0  0  0  0  0  0  0  0
  -13.5191   15.5296  -37.5704 C   0  0  1  0  0  0  0  0  0  0  0  0
  -11.0894   14.6442  -37.4935 C   0  0  0  0  0  0  0  0  0  0  0  0
  -10.3516   13.3784  -37.2997 N   0  0  0  0  0  0  0  0  0  0  0  0
   -8.9458   15.7252  -36.9832 O   0  0  0  0  0  0  0  0  0  0  0  0
  -12.7886   16.5183  -38.3134 O   0  0  0  0  0  0  0  0  0  0  0  0
  -13.2691   14.0244  -40.3675 H   0  0  0  0  0  0  0  0  0  0  0  0
  -14.0754   15.5460  -40.6582 H   0  0  0  0  0  0  0  0  0  0  0  0
  -15.2765   15.5112  -38.8036 H   0  0  0  0  0  0  0  0  0  0  0  0
  -14.7487   13.8944  -38.3974 H   0  0  0  0  0  0  0  0  0  0  0  0
  -11.1285   13.9841  -39.6064 H   0  0  0  0  0  0  0  0  0  0  0  0
  -10.2100   15.4416  -39.2992 H   0  0  0  0  0  0  0  0  0  0  0  0
  -12.5135   14.7189  -35.8650 H   0  0  0  0  0  0  0  0  0  0  0  0
  -12.9161   13.5028  -37.0703 H   0  0  0  0  0  0  0  0  0  0  0  0
   -8.9014   12.4688  -36.0781 H   0  0  0  0  0  0  0  0  0  0  0  0
   -9.9383   13.6344  -35.2698 H   0  0  0  0  0  0  0  0  0  0  0  0
   -7.8319   14.7808  -35.5081 H   0  0  0  0  0  0  0  0  0  0  0  0
   -7.6110   14.1738  -37.1539 H   0  0  0  0  0  0  0  0  0  0  0  0
  -10.6891   16.7732  -37.1615 H   0  0  0  0  0  0  0  0  0  0  0  0
  -10.5603   15.8062  -35.6949 H   0  0  0  0  0  0  0  0  0  0  0  0
  -11.9919   16.4910  -40.2363 H   0  0  0  0  0  0  0  0  0  0  0  0
  -14.1244   16.0023  -36.8020 H   0  0  0  0  0  0  0  0  0  0  0  0
   -9.8742   13.0620  -38.1341 H   0  0  0  0  0  0  0  0  0  0  0  0
  1  2  1  0  0  0  0
  1  8  1  0  0  0  0
  2  9  1  0  0  0  0
  3  8  1  0  0  0  0
  3 10  1  0  0  0  0
  4  9  1  0  0  0  0
  4 10  1  0  0  0  0
  5  6  1  0  0  0  0
  5 11  1  0  0  0  0
  6 12  1  0  0  0  0
  7 10  1  0  0  0  0
  7 12  1  0  0  0  0
  8 13  1  0  0  0  0
  9 13  1  0  0  0  0
 10 11  1  0  0  0  0
  1 14  1  0  0  0  0
  1 15  1  0  0  0  0
  2 16  1  0  0  0  0
  2 17  1  0  0  0  0
  3 18  1  0  0  0  0
  3 19  1  0  0  0  0
  4 20  1  0  0  0  0
  4 21  1  0  0  0  0
  5 22  1  0  0  0  0
  5 23  1  0  0  0  0
  6 24  1  0  0  0  0
  6 25  1  0  0  0  0
  7 26  1  0  0  0  0
  7 27  1  0  0  0  0
  8 28  1  0  0  0  0
  9 29  1  0  0  0  0
 11 30  1  0  0  0  0
M  END
> <id>
EN300-1645397

> <smiles>
C1CC2CC3(COCCN3)CC1O2

> <IUPAC Name>
8-oxaspiro[bicyclo[3.2.1]octane-3,3'-morpholine]

> <CAS>
2171764-83-1

> <URL>
https://www.enaminestore.com/catalog/EN300-1645397

> <ROCS_ShapeQuery>
x1247relevant_x1083L0AP1_x1305L0BP1_

> <ROCS_TanimotoCombo>
0.925 

> <ROCS_ShapeTanimoto>
0.487 

> <ROCS_ColorTanimoto>
0.438 

> <ROCS_RefTversky>
0.406 

> <ROCS_RefColorTversky>
0.467 

> <ROCS_RefTverskyCombo>
0.873 

> <ROCS_FitTversky>
1.687 

> <ROCS_FitColorTversky>
0.877 

> <ROCS_FitTverskyCombo>
2.564 

> <ROCS_ColorScore>
-9.947

> <ROCS_Overlap>
1195.055

> <ROCS_Rank>
4                   

$$$$
untitled-dbase-30817_66
  -OEChem-06162310163D

 40 41  0     1  0  0  0  0  0999 V2000
   -9.6437   14.7917  -37.1360 C   0  0  0  0  0  0  0  0  0  0  0  0
  -13.7198   15.5116  -37.2584 C   0  0  0  0  0  0  0  0  0  0  0  0
  -13.6316   14.1481  -37.9600 C   0  0  0  0  0  0  0  0  0  0  0  0
  -11.4317   16.4595  -37.7286 C   0  0  0  0  0  0  0  0  0  0  0  0
  -11.2895   14.2159  -38.8873 C   0  0  0  0  0  0  0  0  0  0  0  0
  -12.9094   16.4748  -38.1526 C   0  0  1  0  0  0  0  0  0  0  0  0
  -12.7776   14.4019  -39.2214 C   0  0  2  0  0  0  0  0  0  0  0  0
  -13.0968   15.8679  -39.5516 C   0  0  0  0  0  0  0  0  0  0  0  0
  -10.2636   14.2184  -34.6527 C   0  0  0  0  0  0  0  0  0  0  0  0
  -10.2051   11.7791  -35.2490 C   0  0  0  0  0  0  0  0  0  0  0  0
   -8.0581   13.0612  -35.0150 C   0  0  0  0  0  0  0  0  0  0  0  0
  -12.2692   16.4926  -40.6696 C   0  0  0  0  0  0  0  0  0  0  0  0
   -9.5252   13.1338  -35.4357 C   0  0  0  0  0  0  0  0  0  0  0  0
  -10.8057   15.1299  -37.8427 N   0  0  0  0  0  0  0  0  0  0  0  0
   -8.7704   15.5963  -36.8160 O   0  0  0  0  0  0  0  0  0  0  0  0
  -14.4700   15.9677  -39.9455 O   0  0  0  0  0  0  0  0  0  0  0  0
   -9.5844   13.4577  -36.8295 O   0  0  0  0  0  0  0  0  0  0  0  0
  -10.9601   16.3763  -40.3959 F   0  0  0  0  0  0  0  0  0  0  0  0
  -12.5244   15.8751  -41.8339 F   0  0  0  0  0  0  0  0  0  0  0  0
  -12.5707   17.7948  -40.7953 F   0  0  0  0  0  0  0  0  0  0  0  0
  -14.7676   15.8302  -37.2053 H   0  0  0  0  0  0  0  0  0  0  0  0
  -13.3413   15.4677  -36.2320 H   0  0  0  0  0  0  0  0  0  0  0  0
  -13.2044   13.3795  -37.3073 H   0  0  0  0  0  0  0  0  0  0  0  0
  -14.6376   13.8147  -38.2414 H   0  0  0  0  0  0  0  0  0  0  0  0
  -10.8405   17.1486  -38.3419 H   0  0  0  0  0  0  0  0  0  0  0  0
  -11.3447   16.8095  -36.6935 H   0  0  0  0  0  0  0  0  0  0  0  0
  -11.1025   13.1836  -38.5683 H   0  0  0  0  0  0  0  0  0  0  0  0
  -10.6678   14.3818  -39.7746 H   0  0  0  0  0  0  0  0  0  0  0  0
  -13.3169   17.4889  -38.0792 H   0  0  0  0  0  0  0  0  0  0  0  0
  -13.0770   13.7175  -40.0224 H   0  0  0  0  0  0  0  0  0  0  0  0
   -9.7787   15.1924  -34.7842 H   0  0  0  0  0  0  0  0  0  0  0  0
  -11.3081   14.3044  -34.9696 H   0  0  0  0  0  0  0  0  0  0  0  0
  -10.2444   14.0062  -33.5776 H   0  0  0  0  0  0  0  0  0  0  0  0
   -9.6786   10.9979  -35.8091 H   0  0  0  0  0  0  0  0  0  0  0  0
  -11.2298   11.7999  -35.6372 H   0  0  0  0  0  0  0  0  0  0  0  0
  -10.2396   11.4863  -34.1946 H   0  0  0  0  0  0  0  0  0  0  0  0
   -7.5282   12.2833  -35.5766 H   0  0  0  0  0  0  0  0  0  0  0  0
   -7.5445   14.0145  -35.1767 H   0  0  0  0  0  0  0  0  0  0  0  0
   -7.9692   12.7930  -33.9561 H   0  0  0  0  0  0  0  0  0  0  0  0
  -14.5267   15.5726  -40.8271 H   0  0  0  0  0  0  0  0  0  0  0  0
  1 14  1  0  0  0  0
  1 15  2  0  0  0  0
  1 17  1  0  0  0  0
  2  3  1  0  0  0  0
  2  6  1  0  0  0  0
  3  7  1  0  0  0  0
  4  6  1  0  0  0  0
  4 14  1  0  0  0  0
  5  7  1  0  0  0  0
  5 14  1  0  0  0  0
  6  8  1  0  0  0  0
  7  8  1  0  0  0  0
  8 12  1  0  0  0  0
  8 16  1  0  0  0  0
  9 13  1  0  0  0  0
 10 13  1  0  0  0  0
 11 13  1  0  0  0  0
 12 18  1  0  0  0  0
 12 19  1  0  0  0  0
 12 20  1  0  0  0  0
 13 17  1  0  0  0  0
  2 21  1  0  0  0  0
  2 22  1  0  0  0  0
  3 23  1  0  0  0  0
  3 24  1  0  0  0  0
  4 25  1  0  0  0  0
  4 26  1  0  0  0  0
  5 27  1  0  0  0  0
  5 28  1  0  0  0  0
  6 29  1  0  0  0  0
  7 30  1  0  0  0  0
  9 31  1  0  0  0  0
  9 32  1  0  0  0  0
  9 33  1  0  0  0  0
 10 34  1  0  0  0  0
 10 35  1  0  0  0  0
 10 36  1  0  0  0  0
 11 37  1  0  0  0  0
 11 38  1  0  0  0  0
 11 39  1  0  0  0  0
 16 40  1  0  0  0  0
M  END
> <id>
EN300-26665937

> <smiles>
CC(C)(C)OC(=O)N1CC2CCC(C1)C2(O)C(F)(F)F

> <IUPAC Name>
tert-butyl 8-hydroxy-8-(trifluoromethyl)-3-azabicyclo[3.2.1]octane-3-carboxylate

> <CAS>
2413886-80-1

> <URL>
https://www.enaminestore.com/catalog/EN300-26665937

> <ROCS_ShapeQuery>
x1247relevant_x1083L0AP1_x1305L0BP1_

> <ROCS_TanimotoCombo>
0.903 

> <ROCS_ShapeTanimoto>
0.533 

> <ROCS_ColorTanimoto>
0.369 

> <ROCS_RefTversky>
0.468 

> <ROCS_RefColorTversky>
0.402 

> <ROCS_RefTverskyCombo>
0.870 

> <ROCS_FitTversky>
1.357 

> <ROCS_FitColorTversky>
0.821 

> <ROCS_FitTverskyCombo>
2.178 

> <ROCS_ColorScore>
-8.539

> <ROCS_Overlap>
1382.990

> <ROCS_Rank>
5                   

$$$$
untitled-dbase-36279_2
  -OEChem-06162310163D

 29 31  0     1  0  0  0  0  0999 V2000
  -13.5182   14.4892  -39.3636 C   0  0  0  0  0  0  0  0  0  0  0  0
  -13.5266   14.0619  -37.8901 C   0  0  0  0  0  0  0  0  0  0  0  0
  -13.1175   16.3870  -37.9853 C   0  0  0  0  0  0  0  0  0  0  0  0
  -11.2228   15.4620  -39.1166 C   0  0  0  0  0  0  0  0  0  0  0  0
   -9.8361   13.4701  -36.3033 C   0  0  0  0  0  0  0  0  0  0  0  0
   -8.6182   14.3880  -36.3723 C   0  0  0  0  0  0  0  0  0  0  0  0
  -10.2919   16.0127  -36.7958 C   0  0  0  0  0  0  0  0  0  0  0  0
  -12.7125   15.7981  -39.3350 C   0  0  1  0  0  0  0  0  0  0  0  0
  -12.6645   15.1460  -37.2070 C   0  0  2  0  0  0  0  0  0  0  0  0
  -11.1615   15.0271  -37.6194 C   0  0  1  0  0  0  0  0  0  0  0  0
  -10.6633   13.6445  -37.4925 N   0  0  0  0  0  0  0  0  0  0  0  0
   -8.9126   15.6742  -36.9230 O   0  0  0  0  0  0  0  0  0  0  0  0
  -13.0650   13.7317  -40.0104 H   0  0  0  0  0  0  0  0  0  0  0  0
  -14.5423   14.6663  -39.7100 H   0  0  0  0  0  0  0  0  0  0  0  0
  -14.5517   14.0907  -37.5003 H   0  0  0  0  0  0  0  0  0  0  0  0
  -13.1538   13.0437  -37.7505 H   0  0  0  0  0  0  0  0  0  0  0  0
  -12.5750   17.3016  -37.7323 H   0  0  0  0  0  0  0  0  0  0  0  0
  -14.1934   16.5768  -37.9051 H   0  0  0  0  0  0  0  0  0  0  0  0
  -10.8861   14.6812  -39.8067 H   0  0  0  0  0  0  0  0  0  0  0  0
  -10.6044   16.3485  -39.2969 H   0  0  0  0  0  0  0  0  0  0  0  0
   -9.5118   12.4298  -36.2323 H   0  0  0  0  0  0  0  0  0  0  0  0
  -10.4211   13.6903  -35.4072 H   0  0  0  0  0  0  0  0  0  0  0  0
   -8.2134   14.5476  -35.3552 H   0  0  0  0  0  0  0  0  0  0  0  0
   -7.7974   13.9238  -36.9566 H   0  0  0  0  0  0  0  0  0  0  0  0
  -10.4428   17.0455  -37.1257 H   0  0  0  0  0  0  0  0  0  0  0  0
  -10.5380   15.9750  -35.7341 H   0  0  0  0  0  0  0  0  0  0  0  0
  -12.8903   16.4369  -40.2021 H   0  0  0  0  0  0  0  0  0  0  0  0
  -12.8330   15.2037  -36.1256 H   0  0  0  0  0  0  0  0  0  0  0  0
  -10.1064   13.4190  -38.3196 H   0  0  0  0  0  0  0  0  0  0  0  0
  1  2  1  0  0  0  0
  1  8  1  0  0  0  0
  2  9  1  0  0  0  0
  3  8  1  0  0  0  0
  3  9  1  0  0  0  0
  4  8  1  0  0  0  0
  4 10  1  0  0  0  0
  5  6  1  0  0  0  0
  5 11  1  0  0  0  0
  6 12  1  0  0  0  0
  7 10  1  0  0  0  0
  7 12  1  0  0  0  0
  9 10  1  0  0  0  0
 10 11  1  0  0  0  0
  1 13  1  0  0  0  0
  1 14  1  0  0  0  0
  2 15  1  0  0  0  0
  2 16  1  0  0  0  0
  3 17  1  0  0  0  0
  3 18  1  0  0  0  0
  4 19  1  0  0  0  0
  4 20  1  0  0  0  0
  5 21  1  0  0  0  0
  5 22  1  0  0  0  0
  6 23  1  0  0  0  0
  6 24  1  0  0  0  0
  7 25  1  0  0  0  0
  7 26  1  0  0  0  0
  8 27  1  0  0  0  0
  9 28  1  0  0  0  0
 11 29  1  0  0  0  0
M  END
> <id>
EN300-1645430

> <smiles>
C1CC2CC1CC32COCCN3

> <IUPAC Name>
spiro[bicyclo[2.2.1]heptane-2,3'-morpholine]

> <CAS>
1855009-37-8

> <URL>
https://www.enaminestore.com/catalog/EN300-1645430

> <ROCS_ShapeQuery>
x1247relevant_x1083L0AP1_x1305L0BP1_

> <ROCS_TanimotoCombo>
0.903 

> <ROCS_ShapeTanimoto>
0.470 

> <ROCS_ColorTanimoto>
0.433 

> <ROCS_RefTversky>
0.392 

> <ROCS_RefColorTversky>
0.456 

> <ROCS_RefTverskyCombo>
0.849 

> <ROCS_FitTversky>
1.731 

> <ROCS_FitColorTversky>
0.893 

> <ROCS_FitTverskyCombo>
2.624 

> <ROCS_ColorScore>
-9.708

> <ROCS_Overlap>
1152.327

> <ROCS_Rank>
6                   

$$$$
untitled-dbase-35787_2
  -OEChem-06162310163D

 31 33  0     1  0  0  0  0  0999 V2000
  -13.2836   16.2446  -37.2735 C   0  0  0  0  0  0  0  0  0  0  0  0
  -13.4623   13.9040  -38.0139 C   0  0  0  0  0  0  0  0  0  0  0  0
  -13.0867   16.7119  -38.7233 C   0  0  0  0  0  0  0  0  0  0  0  0
  -13.4417   14.4461  -39.4525 C   0  0  0  0  0  0  0  0  0  0  0  0
   -9.7136   13.4726  -36.2409 C   0  0  0  0  0  0  0  0  0  0  0  0
  -11.2018   15.2493  -39.1209 C   0  0  0  0  0  0  0  0  0  0  0  0
   -8.5682   14.4768  -36.3381 C   0  0  0  0  0  0  0  0  0  0  0  0
  -10.3569   15.9577  -36.8080 C   0  0  0  0  0  0  0  0  0  0  0  0
  -12.6489   14.8495  -37.1044 C   0  0  0  0  0  0  0  0  0  0  0  0
  -11.1663   14.8908  -37.5968 C   0  0  1  0  0  0  0  0  0  0  0  0
  -10.5482   13.5506  -37.4360 N   0  0  0  0  0  0  0  0  0  0  0  0
  -12.5613   15.6287  -39.5793 N   0  0  0  0  0  0  0  0  0  0  0  0
   -8.9577   15.7144  -36.9383 O   0  0  0  0  0  0  0  0  0  0  0  0
  -12.8532   16.9692  -36.5735 H   0  0  0  0  0  0  0  0  0  0  0  0
  -14.3558   16.1958  -37.0412 H   0  0  0  0  0  0  0  0  0  0  0  0
  -14.4991   13.8456  -37.6588 H   0  0  0  0  0  0  0  0  0  0  0  0
  -13.0693   12.8822  -37.9835 H   0  0  0  0  0  0  0  0  0  0  0  0
  -14.0397   17.0747  -39.1279 H   0  0  0  0  0  0  0  0  0  0  0  0
  -12.4077   17.5731  -38.7569 H   0  0  0  0  0  0  0  0  0  0  0  0
  -13.1115   13.6600  -40.1426 H   0  0  0  0  0  0  0  0  0  0  0  0
  -14.4588   14.7073  -39.7702 H   0  0  0  0  0  0  0  0  0  0  0  0
   -9.3127   12.4633  -36.1231 H   0  0  0  0  0  0  0  0  0  0  0  0
  -10.3182   13.6957  -35.3599 H   0  0  0  0  0  0  0  0  0  0  0  0
  -10.5075   16.0688  -39.3455 H   0  0  0  0  0  0  0  0  0  0  0  0
  -10.8584   14.4124  -39.7428 H   0  0  0  0  0  0  0  0  0  0  0  0
   -8.1220   14.6787  -35.3415 H   0  0  0  0  0  0  0  0  0  0  0  0
   -7.7519   14.0522  -36.9535 H   0  0  0  0  0  0  0  0  0  0  0  0
  -10.5284   16.9572  -37.2009 H   0  0  0  0  0  0  0  0  0  0  0  0
  -10.6261   15.9595  -35.7505 H   0  0  0  0  0  0  0  0  0  0  0  0
  -12.7145   14.5242  -36.0591 H   0  0  0  0  0  0  0  0  0  0  0  0
   -9.9868   13.3247  -38.2480 H   0  0  0  0  0  0  0  0  0  0  0  0
  1  3  1  0  0  0  0
  1  9  1  0  0  0  0
  2  4  1  0  0  0  0
  2  9  1  0  0  0  0
  3 12  1  0  0  0  0
  4 12  1  0  0  0  0
  5  7  1  0  0  0  0
  5 11  1  0  0  0  0
  6 10  1  0  0  0  0
  6 12  1  0  0  0  0
  7 13  1  0  0  0  0
  8 10  1  0  0  0  0
  8 13  1  0  0  0  0
  9 10  1  0  0  0  0
 10 11  1  0  0  0  0
  1 14  1  0  0  0  0
  1 15  1  0  0  0  0
  2 16  1  0  0  0  0
  2 17  1  0  0  0  0
  3 18  1  0  0  0  0
  3 19  1  0  0  0  0
  4 20  1  0  0  0  0
  4 21  1  0  0  0  0
  5 22  1  0  0  0  0
  5 23  1  0  0  0  0
  6 24  1  0  0  0  0
  6 25  1  0  0  0  0
  7 26  1  0  0  0  0
  7 27  1  0  0  0  0
  8 28  1  0  0  0  0
  8 29  1  0  0  0  0
  9 30  1  0  0  0  0
 11 31  1  0  0  0  0
M  END
> <id>
EN300-1645422

> <smiles>
C1COCC2(CN3CCC2CC3)N1

> <IUPAC Name>
4-azaspiro[bicyclo[2.2.2]octane-2,3'-morpholine]

> <CAS>
2172070-79-8

> <URL>
https://www.enaminestore.com/catalog/EN300-1645422

> <ROCS_ShapeQuery>
x1247relevant_x1083L0AP1_x1305L0BP1_

> <ROCS_TanimotoCombo>
0.897 

> <ROCS_ShapeTanimoto>
0.486 

> <ROCS_ColorTanimoto>
0.411 

> <ROCS_RefTversky>
0.405 

> <ROCS_RefColorTversky>
0.450 

> <ROCS_RefTverskyCombo>
0.856 

> <ROCS_FitTversky>
1.688 

> <ROCS_FitColorTversky>
0.827 

> <ROCS_FitTverskyCombo>
2.514 

> <ROCS_ColorScore>
-9.592

> <ROCS_Overlap>
1192.220

> <ROCS_Rank>
7                   

$$$$
untitled-dbase-35495_0
  -OEChem-06162310163D

 32 34  0     1  0  0  0  0  0999 V2000
  -12.8476   17.0300  -38.1002 C   0  0  0  0  0  0  0  0  0  0  0  0
  -13.8435   16.1242  -37.3371 C   0  0  0  0  0  0  0  0  0  0  0  0
  -11.0302   15.3571  -38.7909 C   0  0  0  0  0  0  0  0  0  0  0  0
  -12.6859   13.8390  -37.5044 C   0  0  0  0  0  0  0  0  0  0  0  0
   -8.9378   13.8425  -37.1815 C   0  0  0  0  0  0  0  0  0  0  0  0
   -9.9343   15.8074  -35.9584 C   0  0  0  0  0  0  0  0  0  0  0  0
  -12.2309   16.2109  -39.2482 C   0  0  1  0  0  0  0  0  0  0  0  0
  -13.8392   14.7358  -38.0010 C   0  0  2  0  0  0  0  0  0  0  0  0
  -11.2672   14.4962  -37.5080 C   0  0  0  0  0  0  0  0  0  0  0  0
   -8.8963   14.7064  -35.9375 C   0  0  0  0  0  0  0  0  0  0  0  0
  -10.2981   13.3787  -37.4409 N   0  0  0  0  0  0  0  0  0  0  0  0
  -13.0635   13.9689  -40.4398 O   0  0  0  0  0  0  0  0  0  0  0  0
  -14.6745   15.9066  -40.2264 O   0  0  0  0  0  0  0  0  0  0  0  0
  -11.2182   15.3018  -36.3129 O   0  0  0  0  0  0  0  0  0  0  0  0
   -9.0925   13.9279  -34.8419 F   0  0  0  0  0  0  0  0  0  0  0  0
   -7.6617   15.2518  -35.8063 F   0  0  0  0  0  0  0  0  0  0  0  0
  -13.5656   15.1216  -39.7246 S   0  0  0  0  0  0  0  0  0  0  0  0
  -13.4048   17.8777  -38.5191 H   0  0  0  0  0  0  0  0  0  0  0  0
  -12.0888   17.4610  -37.4403 H   0  0  0  0  0  0  0  0  0  0  0  0
  -13.6253   16.0771  -36.2658 H   0  0  0  0  0  0  0  0  0  0  0  0
  -14.8452   16.5642  -37.4250 H   0  0  0  0  0  0  0  0  0  0  0  0
  -10.7474   14.6993  -39.6235 H   0  0  0  0  0  0  0  0  0  0  0  0
  -10.1832   16.0361  -38.6465 H   0  0  0  0  0  0  0  0  0  0  0  0
  -12.9259   13.5169  -36.4817 H   0  0  0  0  0  0  0  0  0  0  0  0
  -12.6782   12.9298  -38.1208 H   0  0  0  0  0  0  0  0  0  0  0  0
   -8.5347   14.3873  -38.0427 H   0  0  0  0  0  0  0  0  0  0  0  0
   -8.2922   12.9695  -37.0363 H   0  0  0  0  0  0  0  0  0  0  0  0
  -10.0219   16.2547  -34.9629 H   0  0  0  0  0  0  0  0  0  0  0  0
   -9.6475   16.6147  -36.6393 H   0  0  0  0  0  0  0  0  0  0  0  0
  -11.9636   16.8364  -40.1043 H   0  0  0  0  0  0  0  0  0  0  0  0
  -14.8022   14.2279  -37.9001 H   0  0  0  0  0  0  0  0  0  0  0  0
  -10.3181   12.8462  -38.3100 H   0  0  0  0  0  0  0  0  0  0  0  0
  1  2  1  0  0  0  0
  1  7  1  0  0  0  0
  2  8  1  0  0  0  0
  3  7  1  0  0  0  0
  3  9  1  0  0  0  0
  4  8  1  0  0  0  0
  4  9  1  0  0  0  0
  5 10  1  0  0  0  0
  5 11  1  0  0  0  0
  6 10  1  0  0  0  0
  6 14  1  0  0  0  0
  7 17  1  0  0  0  0
  8 17  1  0  0  0  0
  9 11  1  0  0  0  0
  9 14  1  0  0  0  0
 10 15  1  0  0  0  0
 10 16  1  0  0  0  0
 12 17  2  0  0  0  0
 13 17  2  0  0  0  0
  1 18  1  0  0  0  0
  1 19  1  0  0  0  0
  2 20  1  0  0  0  0
  2 21  1  0  0  0  0
  3 22  1  0  0  0  0
  3 23  1  0  0  0  0
  4 24  1  0  0  0  0
  4 25  1  0  0  0  0
  5 26  1  0  0  0  0
  5 27  1  0  0  0  0
  6 28  1  0  0  0  0
  6 29  1  0  0  0  0
  7 30  1  0  0  0  0
  8 31  1  0  0  0  0
 11 32  1  0  0  0  0
M  END
> <id>
EN300-1279477

> <smiles>
FC1(F)CNC2(CC3CCC(C2)S3(=O)=O)OC1

> <IUPAC Name>
5',5'-difluoro-8lambda6-thiaspiro[bicyclo[3.2.1]octane-3,2'-[1,3]oxazinane]-8,8-dione

> <CAS>
2171872-29-8

> <URL>
https://www.enaminestore.com/catalog/EN300-1279477

> <ROCS_ShapeQuery>
x1247relevant_x1083L0AP1_x1305L0BP1_

> <ROCS_TanimotoCombo>
0.895 

> <ROCS_ShapeTanimoto>
0.524 

> <ROCS_ColorTanimoto>
0.372 

> <ROCS_RefTversky>
0.445 

> <ROCS_RefColorTversky>
0.426 

> <ROCS_RefTverskyCombo>
0.871 

> <ROCS_FitTversky>
1.511 

> <ROCS_FitColorTversky>
0.746 

> <ROCS_FitTverskyCombo>
2.257 

> <ROCS_ColorScore>
-9.086

> <ROCS_Overlap>
1311.670

> <ROCS_Rank>
8                   

$$$$
untitled-dbase-42084_1
  -OEChem-06162310163D

 35 38  0     0  0  0  0  0  0999 V2000
   -9.1272   15.2312  -36.3111 C   0  0  0  0  0  0  0  0  0  0  0  0
  -10.6124   15.5032  -36.1436 C   0  0  0  0  0  0  0  0  0  0  0  0
  -14.0541   15.6879  -39.4328 C   0  0  0  0  0  0  0  0  0  0  0  0
  -13.5901   15.7513  -36.9698 C   0  0  0  0  0  0  0  0  0  0  0  0
  -12.0333   16.8912  -38.5801 C   0  0  0  0  0  0  0  0  0  0  0  0
  -13.3336   13.6106  -38.2383 C   0  0  0  0  0  0  0  0  0  0  0  0
  -11.7628   14.7523  -39.8357 C   0  0  0  0  0  0  0  0  0  0  0  0
   -9.0574   13.9602  -37.1401 C   0  0  0  0  0  0  0  0  0  0  0  0
  -13.5018   16.5472  -38.2831 C   0  0  0  0  0  0  0  0  0  0  0  0
  -13.2335   14.3934  -39.5581 C   0  0  0  0  0  0  0  0  0  0  0  0
  -12.7630   14.4520  -37.0745 C   0  0  0  0  0  0  0  0  0  0  0  0
  -11.1900   15.6004  -38.6753 C   0  0  0  0  0  0  0  0  0  0  0  0
  -11.2675   14.7943  -37.3376 C   0  0  0  0  0  0  0  0  0  0  0  0
  -10.4434   13.5631  -37.4136 N   0  0  0  0  0  0  0  0  0  0  0  0
   -8.6241   16.0718  -36.7994 H   0  0  0  0  0  0  0  0  0  0  0  0
   -8.6547   15.0739  -35.3348 H   0  0  0  0  0  0  0  0  0  0  0  0
  -10.9646   15.1738  -35.1634 H   0  0  0  0  0  0  0  0  0  0  0  0
  -10.7834   16.5868  -36.1993 H   0  0  0  0  0  0  0  0  0  0  0  0
  -15.1085   15.4475  -39.2492 H   0  0  0  0  0  0  0  0  0  0  0  0
  -14.0157   16.2500  -40.3740 H   0  0  0  0  0  0  0  0  0  0  0  0
  -13.2489   16.3684  -36.1322 H   0  0  0  0  0  0  0  0  0  0  0  0
  -14.6386   15.5056  -36.7570 H   0  0  0  0  0  0  0  0  0  0  0  0
  -11.9660   17.4465  -39.5240 H   0  0  0  0  0  0  0  0  0  0  0  0
  -11.6365   17.5533  -37.8023 H   0  0  0  0  0  0  0  0  0  0  0  0
  -14.3825   13.3597  -38.0347 H   0  0  0  0  0  0  0  0  0  0  0  0
  -12.8002   12.6567  -38.3251 H   0  0  0  0  0  0  0  0  0  0  0  0
  -11.1732   13.8387  -39.9749 H   0  0  0  0  0  0  0  0  0  0  0  0
  -11.6884   15.3140  -40.7754 H   0  0  0  0  0  0  0  0  0  0  0  0
   -8.5114   14.1189  -38.0758 H   0  0  0  0  0  0  0  0  0  0  0  0
   -8.5402   13.1666  -36.5899 H   0  0  0  0  0  0  0  0  0  0  0  0
  -14.0879   17.4690  -38.1988 H   0  0  0  0  0  0  0  0  0  0  0  0
  -13.6284   13.7852  -40.3797 H   0  0  0  0  0  0  0  0  0  0  0  0
  -12.8805   13.8894  -36.1372 H   0  0  0  0  0  0  0  0  0  0  0  0
  -10.1533   15.8630  -38.9070 H   0  0  0  0  0  0  0  0  0  0  0  0
  -10.4888   13.2016  -38.3674 H   0  0  0  0  0  0  0  0  0  0  0  0
  1  2  1  0  0  0  0
  1  8  1  0  0  0  0
  2 13  1  0  0  0  0
  3  9  1  0  0  0  0
  3 10  1  0  0  0  0
  4  9  1  0  0  0  0
  4 11  1  0  0  0  0
  5  9  1  0  0  0  0
  5 12  1  0  0  0  0
  6 10  1  0  0  0  0
  6 11  1  0  0  0  0
  7 10  1  0  0  0  0
  7 12  1  0  0  0  0
  8 14  1  0  0  0  0
 11 13  1  0  0  0  0
 12 13  1  0  0  0  0
 13 14  1  0  0  0  0
  1 15  1  0  0  0  0
  1 16  1  0  0  0  0
  2 17  1  0  0  0  0
  2 18  1  0  0  0  0
  3 19  1  0  0  0  0
  3 20  1  0  0  0  0
  4 21  1  0  0  0  0
  4 22  1  0  0  0  0
  5 23  1  0  0  0  0
  5 24  1  0  0  0  0
  6 25  1  0  0  0  0
  6 26  1  0  0  0  0
  7 27  1  0  0  0  0
  7 28  1  0  0  0  0
  8 29  1  0  0  0  0
  8 30  1  0  0  0  0
  9 31  1  0  0  0  0
 10 32  1  0  0  0  0
 11 33  1  0  0  0  0
 12 34  1  0  0  0  0
 14 35  1  0  0  0  0
M  END
> <id>
EN300-8643570

> <smiles>
C1CNC2(C1)C3CC4CC(C3)CC2C4

> <MDLNUMBER>
MFCD20661792

> <IUPAC Name>
spiro[adamantane-2,2'-pyrrolidine]

> <CAS>
59831-69-5

> <URL>
https://www.enaminestore.com/catalog/EN300-8643570

> <ROCS_ShapeQuery>
x1247relevant_x1083L0AP1_x1305L0BP1_

> <ROCS_TanimotoCombo>
0.894 

> <ROCS_ShapeTanimoto>
0.517 

> <ROCS_ColorTanimoto>
0.377 

> <ROCS_RefTversky>
0.429 

> <ROCS_RefColorTversky>
0.404 

> <ROCS_RefTverskyCombo>
0.833 

> <ROCS_FitTversky>
1.662 

> <ROCS_FitColorTversky>
0.851 

> <ROCS_FitTverskyCombo>
2.513 

> <ROCS_ColorScore>
-8.574

> <ROCS_Overlap>
1261.552

> <ROCS_Rank>
9                   

$$$$
untitled-dbase-41108_1
  -OEChem-06162310163D

 35 38  0     0  0  0  0  0  0999 V2000
   -9.1272   15.2312  -36.3111 C   0  0  0  0  0  0  0  0  0  0  0  0
  -10.6124   15.5032  -36.1436 C   0  0  0  0  0  0  0  0  0  0  0  0
  -14.0541   15.6879  -39.4328 C   0  0  0  0  0  0  0  0  0  0  0  0
  -13.5901   15.7513  -36.9698 C   0  0  0  0  0  0  0  0  0  0  0  0
  -12.0333   16.8912  -38.5801 C   0  0  0  0  0  0  0  0  0  0  0  0
  -13.3336   13.6106  -38.2383 C   0  0  0  0  0  0  0  0  0  0  0  0
  -11.7628   14.7523  -39.8357 C   0  0  0  0  0  0  0  0  0  0  0  0
   -9.0574   13.9602  -37.1401 C   0  0  0  0  0  0  0  0  0  0  0  0
  -13.5018   16.5472  -38.2831 C   0  0  0  0  0  0  0  0  0  0  0  0
  -13.2335   14.3934  -39.5581 C   0  0  0  0  0  0  0  0  0  0  0  0
  -12.7630   14.4520  -37.0745 C   0  0  0  0  0  0  0  0  0  0  0  0
  -11.1900   15.6004  -38.6753 C   0  0  0  0  0  0  0  0  0  0  0  0
  -11.2675   14.7943  -37.3376 C   0  0  0  0  0  0  0  0  0  0  0  0
  -10.4434   13.5631  -37.4136 N   0  0  0  0  0  0  0  0  0  0  0  0
   -8.6241   16.0718  -36.7994 H   0  0  0  0  0  0  0  0  0  0  0  0
   -8.6547   15.0739  -35.3348 H   0  0  0  0  0  0  0  0  0  0  0  0
  -10.9646   15.1738  -35.1634 H   0  0  0  0  0  0  0  0  0  0  0  0
  -10.7834   16.5868  -36.1993 H   0  0  0  0  0  0  0  0  0  0  0  0
  -15.1085   15.4475  -39.2492 H   0  0  0  0  0  0  0  0  0  0  0  0
  -14.0157   16.2500  -40.3740 H   0  0  0  0  0  0  0  0  0  0  0  0
  -13.2489   16.3684  -36.1322 H   0  0  0  0  0  0  0  0  0  0  0  0
  -14.6386   15.5056  -36.7570 H   0  0  0  0  0  0  0  0  0  0  0  0
  -11.9660   17.4465  -39.5240 H   0  0  0  0  0  0  0  0  0  0  0  0
  -11.6365   17.5533  -37.8023 H   0  0  0  0  0  0  0  0  0  0  0  0
  -14.3825   13.3597  -38.0347 H   0  0  0  0  0  0  0  0  0  0  0  0
  -12.8002   12.6567  -38.3251 H   0  0  0  0  0  0  0  0  0  0  0  0
  -11.1732   13.8387  -39.9749 H   0  0  0  0  0  0  0  0  0  0  0  0
  -11.6884   15.3140  -40.7754 H   0  0  0  0  0  0  0  0  0  0  0  0
   -8.5114   14.1189  -38.0758 H   0  0  0  0  0  0  0  0  0  0  0  0
   -8.5402   13.1666  -36.5899 H   0  0  0  0  0  0  0  0  0  0  0  0
  -14.0879   17.4690  -38.1988 H   0  0  0  0  0  0  0  0  0  0  0  0
  -13.6284   13.7852  -40.3797 H   0  0  0  0  0  0  0  0  0  0  0  0
  -12.8805   13.8894  -36.1372 H   0  0  0  0  0  0  0  0  0  0  0  0
  -10.1533   15.8630  -38.9070 H   0  0  0  0  0  0  0  0  0  0  0  0
  -10.4888   13.2016  -38.3674 H   0  0  0  0  0  0  0  0  0  0  0  0
  1  2  1  0  0  0  0
  1  8  1  0  0  0  0
  2 13  1  0  0  0  0
  3  9  1  0  0  0  0
  3 10  1  0  0  0  0
  4  9  1  0  0  0  0
  4 11  1  0  0  0  0
  5  9  1  0  0  0  0
  5 12  1  0  0  0  0
  6 10  1  0  0  0  0
  6 11  1  0  0  0  0
  7 10  1  0  0  0  0
  7 12  1  0  0  0  0
  8 14  1  0  0  0  0
 11 13  1  0  0  0  0
 12 13  1  0  0  0  0
 13 14  1  0  0  0  0
  1 15  1  0  0  0  0
  1 16  1  0  0  0  0
  2 17  1  0  0  0  0
  2 18  1  0  0  0  0
  3 19  1  0  0  0  0
  3 20  1  0  0  0  0
  4 21  1  0  0  0  0
  4 22  1  0  0  0  0
  5 23  1  0  0  0  0
  5 24  1  0  0  0  0
  6 25  1  0  0  0  0
  6 26  1  0  0  0  0
  7 27  1  0  0  0  0
  7 28  1  0  0  0  0
  8 29  1  0  0  0  0
  8 30  1  0  0  0  0
  9 31  1  0  0  0  0
 10 32  1  0  0  0  0
 11 33  1  0  0  0  0
 12 34  1  0  0  0  0
 14 35  1  0  0  0  0
M  END
> <id>
EN300-27685046

> <smiles>
Cl.C1CNC2(C1)C3CC4CC(C3)CC2C4

> <IUPAC Name>
spiro[adamantane-2,2'-pyrrolidine] hydrochloride

> <CAS>
158833-10-4

> <Purity>
95

> <URL>
https://www.enaminestore.com/catalog/EN300-27685046

> <Saltdate>
Cl

> <ROCS_ShapeQuery>
x1247relevant_x1083L0AP1_x1305L0BP1_

> <ROCS_TanimotoCombo>
0.894 

> <ROCS_ShapeTanimoto>
0.517 

> <ROCS_ColorTanimoto>
0.377 

> <ROCS_RefTversky>
0.429 

> <ROCS_RefColorTversky>
0.404 

> <ROCS_RefTverskyCombo>
0.833 

> <ROCS_FitTversky>
1.662 

> <ROCS_FitColorTversky>
0.851 

> <ROCS_FitTverskyCombo>
2.513 

> <ROCS_ColorScore>
-8.574

> <ROCS_Overlap>
1261.552

> <ROCS_Rank>
10                  

$$$$
untitled-dbase-18571_1
  -OEChem-06162310163D

 27 29  0     1  0  0  0  0  0999 V2000
  -13.4234   16.2168  -39.5251 C   0  0  0  0  0  0  0  0  0  0  0  0
  -14.0568   16.2062  -38.1427 C   0  0  0  0  0  0  0  0  0  0  0  0
  -11.0835   15.3488  -39.0306 C   0  0  0  0  0  0  0  0  0  0  0  0
  -12.1210   15.3582  -36.7276 C   0  0  0  0  0  0  0  0  0  0  0  0
   -9.1206   13.5403  -37.1726 C   0  0  0  0  0  0  0  0  0  0  0  0
   -8.8743   14.8310  -36.4299 C   0  0  0  0  0  0  0  0  0  0  0  0
  -12.5014   15.0009  -39.5216 C   0  0  1  0  0  0  0  0  0  0  0  0
  -13.4292   14.9970  -37.4570 C   0  0  2  0  0  0  0  0  0  0  0  0
  -10.8625   15.0062  -37.5430 C   0  0  0  0  0  0  0  0  0  0  0  0
  -10.5653   13.5724  -37.3598 N   0  0  0  0  0  0  0  0  0  0  0  0
   -9.7517   15.7749  -37.0516 O   0  0  0  0  0  0  0  0  0  0  0  0
  -13.1257   14.1269  -38.5631 O   0  0  0  0  0  0  0  0  0  0  0  0
  -14.2099   16.0809  -40.2773 H   0  0  0  0  0  0  0  0  0  0  0  0
  -12.9077   17.1505  -39.7675 H   0  0  0  0  0  0  0  0  0  0  0  0
  -13.9196   17.1383  -37.5875 H   0  0  0  0  0  0  0  0  0  0  0  0
  -15.1376   16.0518  -38.2478 H   0  0  0  0  0  0  0  0  0  0  0  0
  -10.3833   14.7630  -39.6425 H   0  0  0  0  0  0  0  0  0  0  0  0
  -10.8849   16.4116  -39.2186 H   0  0  0  0  0  0  0  0  0  0  0  0
  -12.1320   16.4252  -36.4719 H   0  0  0  0  0  0  0  0  0  0  0  0
  -12.1094   14.7879  -35.7882 H   0  0  0  0  0  0  0  0  0  0  0  0
   -8.6163   13.5521  -38.1468 H   0  0  0  0  0  0  0  0  0  0  0  0
   -8.7878   12.6611  -36.6132 H   0  0  0  0  0  0  0  0  0  0  0  0
   -9.1416   14.7545  -35.3700 H   0  0  0  0  0  0  0  0  0  0  0  0
   -7.8419   15.1785  -36.5163 H   0  0  0  0  0  0  0  0  0  0  0  0
  -12.4624   14.5244  -40.4983 H   0  0  0  0  0  0  0  0  0  0  0  0
  -14.1270   14.5145  -36.7769 H   0  0  0  0  0  0  0  0  0  0  0  0
  -10.8356   13.0236  -38.1709 H   0  0  0  0  0  0  0  0  0  0  0  0
  1  2  1  0  0  0  0
  1  7  1  0  0  0  0
  2  8  1  0  0  0  0
  3  7  1  0  0  0  0
  3  9  1  0  0  0  0
  4  8  1  0  0  0  0
  4  9  1  0  0  0  0
  5  6  1  0  0  0  0
  5 10  1  0  0  0  0
  6 11  1  0  0  0  0
  7 12  1  0  0  0  0
  8 12  1  0  0  0  0
  9 10  1  0  0  0  0
  9 11  1  0  0  0  0
  1 13  1  0  0  0  0
  1 14  1  0  0  0  0
  2 15  1  0  0  0  0
  2 16  1  0  0  0  0
  3 17  1  0  0  0  0
  3 18  1  0  0  0  0
  4 19  1  0  0  0  0
  4 20  1  0  0  0  0
  5 21  1  0  0  0  0
  5 22  1  0  0  0  0
  6 23  1  0  0  0  0
  6 24  1  0  0  0  0
  7 25  1  0  0  0  0
  8 26  1  0  0  0  0
 10 27  1  0  0  0  0
M  END
> <id>
EN300-1645415

> <smiles>
C1COC2(CC3CCC(C2)O3)N1

> <IUPAC Name>
8-oxaspiro[bicyclo[3.2.1]octane-3,2'-[1,3]oxazolidine]

> <CAS>
2171964-42-2

> <URL>
https://www.enaminestore.com/catalog/EN300-1645415

> <ROCS_ShapeQuery>
x1247relevant_x1083L0AP1_x1305L0BP1_

> <ROCS_TanimotoCombo>
0.891 

> <ROCS_ShapeTanimoto>
0.468 

> <ROCS_ColorTanimoto>
0.422 

> <ROCS_RefTversky>
0.392 

> <ROCS_RefColorTversky>
0.455 

> <ROCS_RefTverskyCombo>
0.848 

> <ROCS_FitTversky>
1.708 

> <ROCS_FitColorTversky>
0.854 

> <ROCS_FitTverskyCombo>
2.561 

> <ROCS_ColorScore>
-9.698

> <ROCS_Overlap>
1152.628

> <ROCS_Rank>
11                  

$$$$
untitled-dbase-41604_2
  -OEChem-06162310163D

 34 36  0     1  0  0  0  0  0999 V2000
  -12.7833   14.3020  -39.7690 C   0  0  0  0  0  0  0  0  0  0  0  0
  -13.6342   13.8575  -38.5775 C   0  0  0  0  0  0  0  0  0  0  0  0
  -11.1322   15.9217  -38.6456 C   0  0  0  0  0  0  0  0  0  0  0  0
  -12.5378   15.1772  -36.6602 C   0  0  0  0  0  0  0  0  0  0  0  0
   -9.3176   13.5459  -37.8520 C   0  0  0  0  0  0  0  0  0  0  0  0
   -8.3996   14.2680  -36.8783 C   0  0  0  0  0  0  0  0  0  0  0  0
  -10.1067   15.7709  -36.3094 C   0  0  0  0  0  0  0  0  0  0  0  0
  -12.4322   15.7607  -39.4660 C   0  0  2  0  0  0  0  0  0  0  0  0
  -13.7019   15.0910  -37.6735 C   0  0  1  0  0  0  0  0  0  0  0  0
  -11.1127   15.1368  -37.2956 C   0  0  0  0  0  0  0  0  0  0  0  0
  -14.7379   16.5669  -39.3273 C   0  0  0  0  0  0  0  0  0  0  0  0
  -10.7261   13.7191  -37.4886 N   0  0  0  0  0  0  0  0  0  0  0  0
  -13.5222   16.2291  -38.5918 N   0  0  0  0  0  0  0  0  0  0  0  0
   -8.7659   15.6432  -36.7854 O   0  0  0  0  0  0  0  0  0  0  0  0
  -11.9037   13.6693  -39.9182 H   0  0  0  0  0  0  0  0  0  0  0  0
  -13.3827   14.2345  -40.6851 H   0  0  0  0  0  0  0  0  0  0  0  0
  -14.6365   13.5864  -38.9311 H   0  0  0  0  0  0  0  0  0  0  0  0
  -13.2251   12.9770  -38.0738 H   0  0  0  0  0  0  0  0  0  0  0  0
  -10.2734   15.6381  -39.2675 H   0  0  0  0  0  0  0  0  0  0  0  0
  -10.9988   16.9925  -38.4364 H   0  0  0  0  0  0  0  0  0  0  0  0
  -12.6496   16.1232  -36.1085 H   0  0  0  0  0  0  0  0  0  0  0  0
  -12.6675   14.3959  -35.9027 H   0  0  0  0  0  0  0  0  0  0  0  0
   -9.1593   13.9321  -38.8647 H   0  0  0  0  0  0  0  0  0  0  0  0
   -9.0696   12.4805  -37.8880 H   0  0  0  0  0  0  0  0  0  0  0  0
   -8.4917   13.8282  -35.8801 H   0  0  0  0  0  0  0  0  0  0  0  0
   -7.3480   14.1879  -37.1793 H   0  0  0  0  0  0  0  0  0  0  0  0
  -10.3265   16.8322  -36.1326 H   0  0  0  0  0  0  0  0  0  0  0  0
  -10.1544   15.2710  -35.3353 H   0  0  0  0  0  0  0  0  0  0  0  0
  -12.3429   16.3555  -40.3828 H   0  0  0  0  0  0  0  0  0  0  0  0
  -14.6489   15.1410  -37.1240 H   0  0  0  0  0  0  0  0  0  0  0  0
  -15.5106   16.9081  -38.6227 H   0  0  0  0  0  0  0  0  0  0  0  0
  -14.5195   17.3685  -40.0482 H   0  0  0  0  0  0  0  0  0  0  0  0
  -15.0995   15.6783  -39.8656 H   0  0  0  0  0  0  0  0  0  0  0  0
  -11.2973   13.3222  -38.2358 H   0  0  0  0  0  0  0  0  0  0  0  0
  1  2  1  0  0  0  0
  1  8  1  0  0  0  0
  2  9  1  0  0  0  0
  3  8  1  0  0  0  0
  3 10  1  0  0  0  0
  4  9  1  0  0  0  0
  4 10  1  0  0  0  0
  5  6  1  0  0  0  0
  5 12  1  0  0  0  0
  6 14  1  0  0  0  0
  7 10  1  0  0  0  0
  7 14  1  0  0  0  0
  8 13  1  0  0  0  0
  9 13  1  0  0  0  0
 10 12  1  0  0  0  0
 11 13  1  0  0  0  0
  1 15  1  0  0  0  0
  1 16  1  0  0  0  0
  2 17  1  0  0  0  0
  2 18  1  0  0  0  0
  3 19  1  0  0  0  0
  3 20  1  0  0  0  0
  4 21  1  0  0  0  0
  4 22  1  0  0  0  0
  5 23  1  0  0  0  0
  5 24  1  0  0  0  0
  6 25  1  0  0  0  0
  6 26  1  0  0  0  0
  7 27  1  0  0  0  0
  7 28  1  0  0  0  0
  8 29  1  0  0  0  0
  9 30  1  0  0  0  0
 11 31  1  0  0  0  0
 11 32  1  0  0  0  0
 11 33  1  0  0  0  0
 12 34  1  0  0  0  0
M  END
> <id>
EN300-1645436

> <smiles>
CN1C2CCC1CC3(COCCN3)C2

> <IUPAC Name>
8-methyl-8-azaspiro[bicyclo[3.2.1]octane-3,3'-morpholine]

> <CAS>
2171642-66-1

> <URL>
https://www.enaminestore.com/catalog/EN300-1645436

> <ROCS_ShapeQuery>
x1247relevant_x1083L0AP1_x1305L0BP1_

> <ROCS_TanimotoCombo>
0.890 

> <ROCS_ShapeTanimoto>
0.495 

> <ROCS_ColorTanimoto>
0.394 

> <ROCS_RefTversky>
0.415 

> <ROCS_RefColorTversky>
0.433 

> <ROCS_RefTverskyCombo>
0.849 

> <ROCS_FitTversky>
1.635 

> <ROCS_FitColorTversky>
0.814 

> <ROCS_FitTverskyCombo>
2.450 

> <ROCS_ColorScore>
-9.227

> <ROCS_Overlap>
1222.099

> <ROCS_Rank>
12                  

$$$$
untitled-dbase-16925_0
  -OEChem-06162310163D

 29 31  0     1  0  0  0  0  0999 V2000
   -9.3131   15.8892  -36.3312 C   0  0  0  0  0  0  0  0  0  0  0  0
   -8.5787   14.5833  -36.6095 C   0  0  0  0  0  0  0  0  0  0  0  0
  -13.5122   14.5605  -39.4249 C   0  0  0  0  0  0  0  0  0  0  0  0
  -12.0692   14.8840  -39.8064 C   0  0  0  0  0  0  0  0  0  0  0  0
  -10.8083   15.6356  -36.1429 C   0  0  0  0  0  0  0  0  0  0  0  0
  -12.9079   14.5018  -36.9863 C   0  0  0  0  0  0  0  0  0  0  0  0
   -9.2420   13.8013  -37.7391 C   0  0  0  0  0  0  0  0  0  0  0  0
  -13.6502   15.2713  -38.0811 C   0  0  1  0  0  0  0  0  0  0  0  0
  -11.5784   15.6697  -38.5873 C   0  0  2  0  0  0  0  0  0  0  0  0
  -11.4209   14.8114  -37.3029 C   0  0  1  0  0  0  0  0  0  0  0  0
  -10.6581   13.5698  -37.4620 N   0  0  0  0  0  0  0  0  0  0  0  0
  -12.7859   16.4132  -38.2706 O   0  0  0  0  0  0  0  0  0  0  0  0
   -8.9005   16.3645  -35.4342 H   0  0  0  0  0  0  0  0  0  0  0  0
   -9.1513   16.5870  -37.1607 H   0  0  0  0  0  0  0  0  0  0  0  0
   -7.5339   14.7925  -36.8649 H   0  0  0  0  0  0  0  0  0  0  0  0
   -8.5676   13.9720  -35.6982 H   0  0  0  0  0  0  0  0  0  0  0  0
  -14.1934   14.9938  -40.1655 H   0  0  0  0  0  0  0  0  0  0  0  0
  -13.7099   13.4864  -39.3626 H   0  0  0  0  0  0  0  0  0  0  0  0
  -11.4729   14.0009  -40.0467 H   0  0  0  0  0  0  0  0  0  0  0  0
  -12.0714   15.5320  -40.6912 H   0  0  0  0  0  0  0  0  0  0  0  0
  -10.9506   15.0961  -35.1962 H   0  0  0  0  0  0  0  0  0  0  0  0
  -11.3235   16.5975  -36.0307 H   0  0  0  0  0  0  0  0  0  0  0  0
  -13.1900   14.8884  -35.9998 H   0  0  0  0  0  0  0  0  0  0  0  0
  -13.1580   13.4350  -37.0024 H   0  0  0  0  0  0  0  0  0  0  0  0
   -9.1139   14.3245  -38.6938 H   0  0  0  0  0  0  0  0  0  0  0  0
   -8.7408   12.8323  -37.8411 H   0  0  0  0  0  0  0  0  0  0  0  0
  -14.6718   15.5566  -37.8209 H   0  0  0  0  0  0  0  0  0  0  0  0
  -10.7452   16.3394  -38.8119 H   0  0  0  0  0  0  0  0  0  0  0  0
  -11.0627   12.9913  -38.1958 H   0  0  0  0  0  0  0  0  0  0  0  0
  1  2  1  0  0  0  0
  1  5  1  0  0  0  0
  2  7  1  0  0  0  0
  3  4  1  0  0  0  0
  3  8  1  0  0  0  0
  4  9  1  0  0  0  0
  5 10  1  0  0  0  0
  6  8  1  0  0  0  0
  6 10  1  0  0  0  0
  7 11  1  0  0  0  0
  8 12  1  0  0  0  0
  9 10  1  0  0  0  0
  9 12  1  0  0  0  0
 10 11  1  0  0  0  0
  1 13  1  0  0  0  0
  1 14  1  0  0  0  0
  2 15  1  0  0  0  0
  2 16  1  0  0  0  0
  3 17  1  0  0  0  0
  3 18  1  0  0  0  0
  4 19  1  0  0  0  0
  4 20  1  0  0  0  0
  5 21  1  0  0  0  0
  5 22  1  0  0  0  0
  6 23  1  0  0  0  0
  6 24  1  0  0  0  0
  7 25  1  0  0  0  0
  7 26  1  0  0  0  0
  8 27  1  0  0  0  0
  9 28  1  0  0  0  0
 11 29  1  0  0  0  0
M  END
> <id>
EN300-1461633

> <smiles>
C1CC2OC1CC32CCCCN3

> <IUPAC Name>
7-oxaspiro[bicyclo[2.2.1]heptane-2,2'-piperidine]

> <CAS>
2167345-79-9

> <URL>
https://www.enaminestore.com/catalog/EN300-1461633

> <ROCS_ShapeQuery>
x1247relevant_x1083L0AP1_x1305L0BP1_

> <ROCS_TanimotoCombo>
0.889 

> <ROCS_ShapeTanimoto>
0.466 

> <ROCS_ColorTanimoto>
0.423 

> <ROCS_RefTversky>
0.390 

> <ROCS_RefColorTversky>
0.450 

> <ROCS_RefTverskyCombo>
0.840 

> <ROCS_FitTversky>
1.719 

> <ROCS_FitColorTversky>
0.877 

> <ROCS_FitTverskyCombo>
2.596 

> <ROCS_ColorScore>
-9.564

> <ROCS_Overlap>
1146.354

> <ROCS_Rank>
13                  

$$$$
untitled-dbase-41429_1
  -OEChem-06162310163D

 32 34  0     1  0  0  0  0  0999 V2000
  -13.8292   16.1448  -37.3405 C   0  0  0  0  0  0  0  0  0  0  0  0
  -12.8326   17.0355  -38.1206 C   0  0  0  0  0  0  0  0  0  0  0  0
   -8.9154   14.6628  -35.8765 C   0  0  0  0  0  0  0  0  0  0  0  0
  -12.6862   13.8506  -37.4888 C   0  0  0  0  0  0  0  0  0  0  0  0
  -11.0302   15.3432  -38.8030 C   0  0  0  0  0  0  0  0  0  0  0  0
   -8.9389   13.8315  -37.1512 C   0  0  0  0  0  0  0  0  0  0  0  0
   -9.9110   15.8058  -35.9745 C   0  0  0  0  0  0  0  0  0  0  0  0
  -13.8375   14.7487  -37.9880 C   0  0  2  0  0  0  0  0  0  0  0  0
  -12.2286   16.1992  -39.2627 C   0  0  1  0  0  0  0  0  0  0  0  0
  -11.2637   14.4996  -37.5079 C   0  0  0  0  0  0  0  0  0  0  0  0
  -10.2986   13.3782  -37.4392 N   0  0  0  0  0  0  0  0  0  0  0  0
  -14.6805   15.8987  -40.2215 O   0  0  0  0  0  0  0  0  0  0  0  0
  -13.0829   13.9487  -40.4228 O   0  0  0  0  0  0  0  0  0  0  0  0
  -11.2052   15.3211  -36.3227 O   0  0  0  0  0  0  0  0  0  0  0  0
  -13.5731   15.1128  -39.7178 S   0  0  0  0  0  0  0  0  0  0  0  0
  -13.6025   16.1078  -36.2707 H   0  0  0  0  0  0  0  0  0  0  0  0
  -14.8286   16.5902  -37.4262 H   0  0  0  0  0  0  0  0  0  0  0  0
  -13.3882   17.8811  -38.5464 H   0  0  0  0  0  0  0  0  0  0  0  0
  -12.0677   17.4717  -37.4707 H   0  0  0  0  0  0  0  0  0  0  0  0
   -9.1382   14.0370  -35.0060 H   0  0  0  0  0  0  0  0  0  0  0  0
   -7.9073   15.0734  -35.7375 H   0  0  0  0  0  0  0  0  0  0  0  0
  -12.9454   13.5209  -36.4766 H   0  0  0  0  0  0  0  0  0  0  0  0
  -12.6742   12.9403  -38.1043 H   0  0  0  0  0  0  0  0  0  0  0  0
  -10.7501   14.6813  -39.6328 H   0  0  0  0  0  0  0  0  0  0  0  0
  -10.1785   16.0172  -38.6411 H   0  0  0  0  0  0  0  0  0  0  0  0
   -8.5793   14.4356  -37.9915 H   0  0  0  0  0  0  0  0  0  0  0  0
   -8.2568   12.9776  -37.0702 H   0  0  0  0  0  0  0  0  0  0  0  0
   -9.9607   16.3757  -35.0418 H   0  0  0  0  0  0  0  0  0  0  0  0
   -9.5980   16.5054  -36.7562 H   0  0  0  0  0  0  0  0  0  0  0  0
  -14.8026   14.2475  -37.8771 H   0  0  0  0  0  0  0  0  0  0  0  0
  -11.9615   16.8147  -40.1266 H   0  0  0  0  0  0  0  0  0  0  0  0
  -10.2942   12.8977  -38.3398 H   0  0  0  0  0  0  0  0  0  0  0  0
  1  2  1  0  0  0  0
  1  8  1  0  0  0  0
  2  9  1  0  0  0  0
  3  6  1  0  0  0  0
  3  7  1  0  0  0  0
  4  8  1  0  0  0  0
  4 10  1  0  0  0  0
  5  9  1  0  0  0  0
  5 10  1  0  0  0  0
  6 11  1  0  0  0  0
  7 14  1  0  0  0  0
  8 15  1  0  0  0  0
  9 15  1  0  0  0  0
 10 11  1  0  0  0  0
 10 14  1  0  0  0  0
 12 15  2  0  0  0  0
 13 15  2  0  0  0  0
  1 16  1  0  0  0  0
  1 17  1  0  0  0  0
  2 18  1  0  0  0  0
  2 19  1  0  0  0  0
  3 20  1  0  0  0  0
  3 21  1  0  0  0  0
  4 22  1  0  0  0  0
  4 23  1  0  0  0  0
  5 24  1  0  0  0  0
  5 25  1  0  0  0  0
  6 26  1  0  0  0  0
  6 27  1  0  0  0  0
  7 28  1  0  0  0  0
  7 29  1  0  0  0  0
  8 30  1  0  0  0  0
  9 31  1  0  0  0  0
 11 32  1  0  0  0  0
M  END
> <id>
EN300-1278466

> <smiles>
O=S1(=O)C2CCC1CC3(C2)NCCCO3

> <IUPAC Name>
8lambda6-thiaspiro[bicyclo[3.2.1]octane-3,2'-[1,3]oxazinane]-8,8-dione

> <CAS>
2167135-27-3

> <URL>
https://www.enaminestore.com/catalog/EN300-1278466

> <ROCS_ShapeQuery>
x1247relevant_x1083L0AP1_x1305L0BP1_

> <ROCS_TanimotoCombo>
0.889 

> <ROCS_ShapeTanimoto>
0.518 

> <ROCS_ColorTanimoto>
0.371 

> <ROCS_RefTversky>
0.430 

> <ROCS_RefColorTversky>
0.425 

> <ROCS_RefTverskyCombo>
0.856 

> <ROCS_FitTversky>
1.644 

> <ROCS_FitColorTversky>
0.745 

> <ROCS_FitTverskyCombo>
2.389 

> <ROCS_ColorScore>
-9.075

> <ROCS_Overlap>
1266.773

> <ROCS_Rank>
14                  

$$$$
untitled-dbase-35066_1
  -OEChem-06162310163D

 36 39  0     1  0  0  0  0  0999 V2000
  -13.8419   16.1246  -37.3365 C   0  0  0  0  0  0  0  0  0  0  0  0
  -12.8462   17.0301  -38.1003 C   0  0  0  0  0  0  0  0  0  0  0  0
   -8.6424   14.0004  -34.5970 C   0  0  0  0  0  0  0  0  0  0  0  0
   -7.6156   14.9047  -35.2163 C   0  0  0  0  0  0  0  0  0  0  0  0
  -12.6846   13.8392  -37.5040 C   0  0  0  0  0  0  0  0  0  0  0  0
  -11.0295   15.3570  -38.7916 C   0  0  0  0  0  0  0  0  0  0  0  0
   -8.9326   13.8358  -37.1704 C   0  0  0  0  0  0  0  0  0  0  0  0
   -9.9257   15.7977  -35.9543 C   0  0  0  0  0  0  0  0  0  0  0  0
  -13.8382   14.7360  -38.0001 C   0  0  2  0  0  0  0  0  0  0  0  0
  -12.2305   16.2108  -39.2486 C   0  0  1  0  0  0  0  0  0  0  0  0
   -8.9310   14.6726  -35.9206 C   0  0  0  0  0  0  0  0  0  0  0  0
  -11.2660   14.4967  -37.5084 C   0  0  0  0  0  0  0  0  0  0  0  0
  -10.2955   13.3790  -37.4414 N   0  0  0  0  0  0  0  0  0  0  0  0
  -13.0636   13.9683  -40.4390 O   0  0  0  0  0  0  0  0  0  0  0  0
  -14.6747   15.9060  -40.2258 O   0  0  0  0  0  0  0  0  0  0  0  0
  -11.2180   15.3041  -36.3117 O   0  0  0  0  0  0  0  0  0  0  0  0
  -13.5654   15.1214  -39.7240 S   0  0  0  0  0  0  0  0  0  0  0  0
  -13.6214   16.0763  -36.2661 H   0  0  0  0  0  0  0  0  0  0  0  0
  -14.8435   16.5648  -37.4232 H   0  0  0  0  0  0  0  0  0  0  0  0
  -13.4041   17.8774  -38.5198 H   0  0  0  0  0  0  0  0  0  0  0  0
  -12.0874   17.4627  -37.4410 H   0  0  0  0  0  0  0  0  0  0  0  0
   -8.4374   12.9370  -34.5918 H   0  0  0  0  0  0  0  0  0  0  0  0
   -9.1582   14.3559  -33.7139 H   0  0  0  0  0  0  0  0  0  0  0  0
   -7.4395   15.8647  -34.7446 H   0  0  0  0  0  0  0  0  0  0  0  0
   -6.7209   14.4457  -35.6216 H   0  0  0  0  0  0  0  0  0  0  0  0
  -12.9473   13.4977  -36.4966 H   0  0  0  0  0  0  0  0  0  0  0  0
  -12.6634   12.9352  -38.1287 H   0  0  0  0  0  0  0  0  0  0  0  0
  -10.7393   14.7066  -39.6268 H   0  0  0  0  0  0  0  0  0  0  0  0
  -10.1834   16.0346  -38.6159 H   0  0  0  0  0  0  0  0  0  0  0  0
   -8.5756   14.4070  -38.0352 H   0  0  0  0  0  0  0  0  0  0  0  0
   -8.2503   12.9853  -37.0608 H   0  0  0  0  0  0  0  0  0  0  0  0
   -9.9731   16.3110  -34.9887 H   0  0  0  0  0  0  0  0  0  0  0  0
   -9.6528   16.5540  -36.6985 H   0  0  0  0  0  0  0  0  0  0  0  0
  -14.8008   14.2279  -37.9012 H   0  0  0  0  0  0  0  0  0  0  0  0
  -11.9626   16.8375  -40.1040 H   0  0  0  0  0  0  0  0  0  0  0  0
  -10.3023   12.8814  -38.3323 H   0  0  0  0  0  0  0  0  0  0  0  0
  1  2  1  0  0  0  0
  1  9  1  0  0  0  0
  2 10  1  0  0  0  0
  3  4  1  0  0  0  0
  3 11  1  0  0  0  0
  4 11  1  0  0  0  0
  5  9  1  0  0  0  0
  5 12  1  0  0  0  0
  6 10  1  0  0  0  0
  6 12  1  0  0  0  0
  7 11  1  0  0  0  0
  7 13  1  0  0  0  0
  8 11  1  0  0  0  0
  8 16  1  0  0  0  0
  9 17  1  0  0  0  0
 10 17  1  0  0  0  0
 12 13  1  0  0  0  0
 12 16  1  0  0  0  0
 14 17  2  0  0  0  0
 15 17  2  0  0  0  0
  1 18  1  0  0  0  0
  1 19  1  0  0  0  0
  2 20  1  0  0  0  0
  2 21  1  0  0  0  0
  3 22  1  0  0  0  0
  3 23  1  0  0  0  0
  4 24  1  0  0  0  0
  4 25  1  0  0  0  0
  5 26  1  0  0  0  0
  5 27  1  0  0  0  0
  6 28  1  0  0  0  0
  6 29  1  0  0  0  0
  7 30  1  0  0  0  0
  7 31  1  0  0  0  0
  8 32  1  0  0  0  0
  8 33  1  0  0  0  0
  9 34  1  0  0  0  0
 10 35  1  0  0  0  0
 13 36  1  0  0  0  0
M  END
> <id>
EN300-1278853

> <smiles>
O=S1(=O)C2CCC1CC3(C2)NCC4(CC4)CO3

> <IUPAC Name>
8lambda6-dispiro[8lambda6-thiabicyclo[3.2.1]octane-3,2'-[1,3]oxazinane-5',1''-cyclopropane]-8,8-dione

> <URL>
https://www.enaminestore.com/catalog/EN300-1278853

> <ROCS_ShapeQuery>
x1247relevant_x1083L0AP1_x1305L0BP1_

> <ROCS_TanimotoCombo>
0.886 

> <ROCS_ShapeTanimoto>
0.514 

> <ROCS_ColorTanimoto>
0.372 

> <ROCS_RefTversky>
0.439 

> <ROCS_RefColorTversky>
0.426 

> <ROCS_RefTverskyCombo>
0.865 

> <ROCS_FitTversky>
1.498 

> <ROCS_FitColorTversky>
0.745 

> <ROCS_FitTverskyCombo>
2.243 

> <ROCS_ColorScore>
-9.082

> <ROCS_Overlap>
1294.391

> <ROCS_Rank>
15                  

$$$$
untitled-dbase-17118_2
  -OEChem-06162310163D

 38 40  0     1  0  0  0  0  0999 V2000
  -13.8435   16.1442  -37.3441 C   0  0  0  0  0  0  0  0  0  0  0  0
  -12.8524   17.0422  -38.1218 C   0  0  0  0  0  0  0  0  0  0  0  0
   -8.7906   15.0250  -36.3353 C   0  0  0  0  0  0  0  0  0  0  0  0
  -12.6843   13.8569  -37.4749 C   0  0  0  0  0  0  0  0  0  0  0  0
  -11.0249   15.3690  -38.7833 C   0  0  0  0  0  0  0  0  0  0  0  0
   -8.9245   13.7894  -37.2217 C   0  0  0  0  0  0  0  0  0  0  0  0
  -13.8358   14.7462  -37.9872 C   0  0  2  0  0  0  0  0  0  0  0  0
  -12.2307   16.2074  -39.2555 C   0  0  1  0  0  0  0  0  0  0  0  0
  -11.2633   14.5028  -37.5058 C   0  0  0  0  0  0  0  0  0  0  0  0
  -10.0531   15.2999  -35.5103 C   0  0  0  0  0  0  0  0  0  0  0  0
  -10.2878   14.2431  -34.4215 C   0  0  0  0  0  0  0  0  0  0  0  0
   -9.9343   16.6723  -34.8349 C   0  0  0  0  0  0  0  0  0  0  0  0
  -10.3057   13.3891  -37.4469 N   0  0  0  0  0  0  0  0  0  0  0  0
  -13.0463   13.9415  -40.4093 O   0  0  0  0  0  0  0  0  0  0  0  0
  -14.6691   15.8738  -40.2357 O   0  0  0  0  0  0  0  0  0  0  0  0
  -11.2072   15.3736  -36.3551 O   0  0  0  0  0  0  0  0  0  0  0  0
  -13.5578   15.1037  -39.7163 S   0  0  0  0  0  0  0  0  0  0  0  0
  -13.6223   16.1150  -36.2744 H   0  0  0  0  0  0  0  0  0  0  0  0
  -14.8465   16.5798  -37.4361 H   0  0  0  0  0  0  0  0  0  0  0  0
  -13.4147   17.8795  -38.5557 H   0  0  0  0  0  0  0  0  0  0  0  0
  -12.0963   17.4906  -37.4693 H   0  0  0  0  0  0  0  0  0  0  0  0
   -7.9105   14.9210  -35.6806 H   0  0  0  0  0  0  0  0  0  0  0  0
   -8.5775   15.8884  -36.9891 H   0  0  0  0  0  0  0  0  0  0  0  0
  -12.9407   13.5455  -36.4613 H   0  0  0  0  0  0  0  0  0  0  0  0
  -12.6730   12.9365  -38.0740 H   0  0  0  0  0  0  0  0  0  0  0  0
  -10.7185   14.7296  -39.6214 H   0  0  0  0  0  0  0  0  0  0  0  0
  -10.1915   16.0595  -38.5979 H   0  0  0  0  0  0  0  0  0  0  0  0
   -8.4490   13.9954  -38.2081 H   0  0  0  0  0  0  0  0  0  0  0  0
   -8.3329   12.9363  -36.8141 H   0  0  0  0  0  0  0  0  0  0  0  0
  -14.7983   14.2388  -37.8826 H   0  0  0  0  0  0  0  0  0  0  0  0
  -11.9644   16.8236  -40.1197 H   0  0  0  0  0  0  0  0  0  0  0  0
  -11.1917   14.4862  -33.8699 H   0  0  0  0  0  0  0  0  0  0  0  0
   -9.4409   14.2301  -33.7412 H   0  0  0  0  0  0  0  0  0  0  0  0
  -10.3969   13.2658  -34.8832 H   0  0  0  0  0  0  0  0  0  0  0  0
  -10.8294   16.8639  -34.2518 H   0  0  0  0  0  0  0  0  0  0  0  0
   -9.8238   17.4382  -35.5958 H   0  0  0  0  0  0  0  0  0  0  0  0
   -9.0663   16.6775  -34.1833 H   0  0  0  0  0  0  0  0  0  0  0  0
  -10.3444   12.8650  -38.3274 H   0  0  0  0  0  0  0  0  0  0  0  0
  1  2  1  0  0  0  0
  1  7  1  0  0  0  0
  2  8  1  0  0  0  0
  3  6  1  0  0  0  0
  3 10  1  0  0  0  0
  4  7  1  0  0  0  0
  4  9  1  0  0  0  0
  5  8  1  0  0  0  0
  5  9  1  0  0  0  0
  6 13  1  0  0  0  0
  7 17  1  0  0  0  0
  8 17  1  0  0  0  0
  9 13  1  0  0  0  0
  9 16  1  0  0  0  0
 10 11  1  0  0  0  0
 10 12  1  0  0  0  0
 10 16  1  0  0  0  0
 14 17  2  0  0  0  0
 15 17  2  0  0  0  0
  1 18  1  0  0  0  0
  1 19  1  0  0  0  0
  2 20  1  0  0  0  0
  2 21  1  0  0  0  0
  3 22  1  0  0  0  0
  3 23  1  0  0  0  0
  4 24  1  0  0  0  0
  4 25  1  0  0  0  0
  5 26  1  0  0  0  0
  5 27  1  0  0  0  0
  6 28  1  0  0  0  0
  6 29  1  0  0  0  0
  7 30  1  0  0  0  0
  8 31  1  0  0  0  0
 11 32  1  0  0  0  0
 11 33  1  0  0  0  0
 11 34  1  0  0  0  0
 12 35  1  0  0  0  0
 12 36  1  0  0  0  0
 12 37  1  0  0  0  0
 13 38  1  0  0  0  0
M  END
> <id>
EN300-1279829

> <smiles>
CC1(C)CCNC2(CC3CCC(C2)S3(=O)=O)O1

> <IUPAC Name>
6',6'-dimethyl-8lambda6-thiaspiro[bicyclo[3.2.1]octane-3,2'-[1,3]oxazinane]-8,8-dione

> <CAS>
2172115-46-5

> <URL>
https://www.enaminestore.com/catalog/EN300-1279829

> <ROCS_ShapeQuery>
x1247relevant_x1083L0AP1_x1305L0BP1_

> <ROCS_TanimotoCombo>
0.883 

> <ROCS_ShapeTanimoto>
0.527 

> <ROCS_ColorTanimoto>
0.356 

> <ROCS_RefTversky>
0.445 

> <ROCS_RefColorTversky>
0.424 

> <ROCS_RefTverskyCombo>
0.869 

> <ROCS_FitTversky>
1.537 

> <ROCS_FitColorTversky>
0.691 

> <ROCS_FitTverskyCombo>
2.227 

> <ROCS_ColorScore>
-9.066

> <ROCS_Overlap>
1311.393

> <ROCS_Rank>
16                  

$$$$
untitled-dbase-24926_3
  -OEChem-06162310163D

 26 29  0     1  0  0  0  0  0999 V2000
  -11.0836   13.9168  -36.0500 C   0  0  0  0  0  0  0  0  0  0  0  0
   -9.8523   13.6374  -36.9043 C   0  0  0  0  0  0  0  0  0  0  0  0
  -12.3552   14.0004  -38.9423 C   0  0  0  0  0  0  0  0  0  0  0  0
  -11.9051   14.9770  -36.7815 C   0  0  2  0  0  0  0  0  0  0  0  0
  -13.0770   14.4524  -37.6610 C   0  0  1  0  0  0  0  0  0  0  0  0
  -11.7158   15.3818  -39.1668 C   0  0  2  0  0  0  0  0  0  0  0  0
  -10.9545   15.6321  -37.8308 C   0  0  2  0  0  0  0  0  0  0  0  0
  -13.8392   15.6902  -38.1312 C   0  0  1  0  0  0  0  0  0  0  0  0
  -12.9274   16.3131  -39.1411 C   0  0  2  0  0  0  0  0  0  0  0  0
   -9.6044   14.9265  -37.6792 C   0  0  1  0  0  0  0  0  0  0  0  0
  -14.2004   15.7766  -39.5126 O   0  0  0  0  0  0  0  0  0  0  0  0
   -8.7254   15.7577  -36.9203 O   0  0  0  0  0  0  0  0  0  0  0  0
  -11.6602   12.9826  -35.8998 H   0  0  0  0  0  0  0  0  0  0  0  0
  -10.7993   14.2557  -35.0350 H   0  0  0  0  0  0  0  0  0  0  0  0
   -8.9849   13.3899  -36.2699 H   0  0  0  0  0  0  0  0  0  0  0  0
  -10.0000   12.7783  -37.5760 H   0  0  0  0  0  0  0  0  0  0  0  0
  -11.6370   13.1899  -38.7925 H   0  0  0  0  0  0  0  0  0  0  0  0
  -13.0425   13.7075  -39.7439 H   0  0  0  0  0  0  0  0  0  0  0  0
  -12.2584   15.7376  -36.0647 H   0  0  0  0  0  0  0  0  0  0  0  0
  -13.7114   13.6998  -37.1866 H   0  0  0  0  0  0  0  0  0  0  0  0
  -11.1083   15.4791  -40.0706 H   0  0  0  0  0  0  0  0  0  0  0  0
  -10.8554   16.7164  -37.6413 H   0  0  0  0  0  0  0  0  0  0  0  0
  -14.3309   16.2928  -37.3872 H   0  0  0  0  0  0  0  0  0  0  0  0
  -12.7483   17.3744  -39.1419 H   0  0  0  0  0  0  0  0  0  0  0  0
   -9.1150   14.7248  -38.6361 H   0  0  0  0  0  0  0  0  0  0  0  0
   -8.5854   16.5695  -37.4365 H   0  0  0  0  0  0  0  0  0  0  0  0
  1  2  1  0  0  0  0
  1  4  1  0  0  0  0
  2 10  1  0  0  0  0
  3  5  1  0  0  0  0
  3  6  1  0  0  0  0
  4  5  1  0  0  0  0
  4  7  1  0  0  0  0
  5  8  1  0  0  0  0
  6  7  1  0  0  0  0
  6  9  1  0  0  0  0
  7 10  1  0  0  0  0
  8  9  1  0  0  0  0
  8 11  1  0  0  0  0
  9 11  1  0  0  0  0
 10 12  1  0  0  0  0
  1 13  1  0  0  0  0
  1 14  1  0  0  0  0
  2 15  1  0  0  0  0
  2 16  1  0  0  0  0
  3 17  1  0  0  0  0
  3 18  1  0  0  0  0
  4 19  1  0  0  0  0
  5 20  1  0  0  0  0
  6 21  1  0  0  0  0
  7 22  1  0  0  0  0
  8 23  1  0  0  0  0
  9 24  1  0  0  0  0
 10 25  1  0  0  0  0
 12 26  1  0  0  0  0
M  END
> <id>
EN300-6490397

> <smiles>
OC1CCC2C3CC(C4OC43)C12

> <MDLNUMBER>
MFCD31736525

> <IUPAC Name>
9-oxatetracyclo[5.3.1.0^{2,6}.0^{8,10}]undecan-3-ol

> <Purity>
95

> <URL>
https://www.enaminestore.com/catalog/EN300-6490397

> <ROCS_ShapeQuery>
x1247relevant_x1083L0AP1_x1305L0BP1_

> <ROCS_TanimotoCombo>
0.882 

> <ROCS_ShapeTanimoto>
0.487 

> <ROCS_ColorTanimoto>
0.395 

> <ROCS_RefTversky>
0.404 

> <ROCS_RefColorTversky>
0.560 

> <ROCS_RefTverskyCombo>
0.963 

> <ROCS_FitTversky>
1.741 

> <ROCS_FitColorTversky>
0.573 

> <ROCS_FitTverskyCombo>
2.314 

> <ROCS_ColorScore>
-12.217

> <ROCS_Overlap>
1186.304

> <ROCS_Rank>
17                  

$$$$
untitled-dbase-16688_0
  -OEChem-06162310163D

 34 36  0     1  0  0  0  0  0999 V2000
  -13.9210   16.1362  -37.5164 C   0  0  0  0  0  0  0  0  0  0  0  0
  -12.9723   16.9627  -38.3867 C   0  0  0  0  0  0  0  0  0  0  0  0
  -12.7063   13.8703  -37.4681 C   0  0  0  0  0  0  0  0  0  0  0  0
  -11.1385   15.2465  -38.9255 C   0  0  0  0  0  0  0  0  0  0  0  0
   -8.9553   13.9275  -37.2135 C   0  0  0  0  0  0  0  0  0  0  0  0
   -9.9488   16.0085  -36.1933 C   0  0  0  0  0  0  0  0  0  0  0  0
  -13.8365   14.7212  -38.0949 C   0  0  2  0  0  0  0  0  0  0  0  0
  -12.4209   15.9643  -39.4079 C   0  0  1  0  0  0  0  0  0  0  0  0
  -11.2950   14.5229  -37.5543 C   0  0  0  0  0  0  0  0  0  0  0  0
   -8.9002   14.9237  -36.0731 C   0  0  0  0  0  0  0  0  0  0  0  0
  -14.5846   15.3165  -40.3468 C   0  0  0  0  0  0  0  0  0  0  0  0
  -10.3155   13.4334  -37.3891 N   0  0  0  0  0  0  0  0  0  0  0  0
  -13.4583   14.9225  -39.5045 N   0  0  0  0  0  0  0  0  0  0  0  0
  -11.2348   15.4547  -36.4564 O   0  0  0  0  0  0  0  0  0  0  0  0
   -9.0676   14.2696  -34.8944 F   0  0  0  0  0  0  0  0  0  0  0  0
   -7.6686   15.4900  -36.0269 F   0  0  0  0  0  0  0  0  0  0  0  0
  -13.6632   16.1823  -36.4543 H   0  0  0  0  0  0  0  0  0  0  0  0
  -14.9393   16.5310  -37.6161 H   0  0  0  0  0  0  0  0  0  0  0  0
  -13.5411   17.7532  -38.8914 H   0  0  0  0  0  0  0  0  0  0  0  0
  -12.1895   17.4540  -37.8017 H   0  0  0  0  0  0  0  0  0  0  0  0
  -12.9592   13.6681  -36.4185 H   0  0  0  0  0  0  0  0  0  0  0  0
  -12.7034   12.8998  -37.9857 H   0  0  0  0  0  0  0  0  0  0  0  0
  -10.8649   14.5108  -39.6956 H   0  0  0  0  0  0  0  0  0  0  0  0
  -10.3242   15.9780  -38.8977 H   0  0  0  0  0  0  0  0  0  0  0  0
   -8.5788   14.3804  -38.1379 H   0  0  0  0  0  0  0  0  0  0  0  0
   -8.2976   13.0813  -36.9880 H   0  0  0  0  0  0  0  0  0  0  0  0
  -10.0175   16.5661  -35.2537 H   0  0  0  0  0  0  0  0  0  0  0  0
   -9.6860   16.7338  -36.9696 H   0  0  0  0  0  0  0  0  0  0  0  0
  -14.7835   14.1804  -37.9854 H   0  0  0  0  0  0  0  0  0  0  0  0
  -12.2128   16.4417  -40.3724 H   0  0  0  0  0  0  0  0  0  0  0  0
  -14.2393   15.4507  -41.3825 H   0  0  0  0  0  0  0  0  0  0  0  0
  -15.3566   14.5335  -40.3163 H   0  0  0  0  0  0  0  0  0  0  0  0
  -15.0066   16.2621  -39.9756 H   0  0  0  0  0  0  0  0  0  0  0  0
  -10.3501   12.8060  -38.1920 H   0  0  0  0  0  0  0  0  0  0  0  0
  1  2  1  0  0  0  0
  1  7  1  0  0  0  0
  2  8  1  0  0  0  0
  3  7  1  0  0  0  0
  3  9  1  0  0  0  0
  4  8  1  0  0  0  0
  4  9  1  0  0  0  0
  5 10  1  0  0  0  0
  5 12  1  0  0  0  0
  6 10  1  0  0  0  0
  6 14  1  0  0  0  0
  7 13  1  0  0  0  0
  8 13  1  0  0  0  0
  9 12  1  0  0  0  0
  9 14  1  0  0  0  0
 10 15  1  0  0  0  0
 10 16  1  0  0  0  0
 11 13  1  0  0  0  0
  1 17  1  0  0  0  0
  1 18  1  0  0  0  0
  2 19  1  0  0  0  0
  2 20  1  0  0  0  0
  3 21  1  0  0  0  0
  3 22  1  0  0  0  0
  4 23  1  0  0  0  0
  4 24  1  0  0  0  0
  5 25  1  0  0  0  0
  5 26  1  0  0  0  0
  6 27  1  0  0  0  0
  6 28  1  0  0  0  0
  7 29  1  0  0  0  0
  8 30  1  0  0  0  0
 11 31  1  0  0  0  0
 11 32  1  0  0  0  0
 11 33  1  0  0  0  0
 12 34  1  0  0  0  0
M  END
> <id>
EN300-1279448

> <smiles>
CN1C2CCC1CC3(C2)NCC(F)(F)CO3

> <IUPAC Name>
5',5'-difluoro-8-methyl-8-azaspiro[bicyclo[3.2.1]octane-3,2'-[1,3]oxazinane]

> <CAS>
2168980-98-9

> <URL>
https://www.enaminestore.com/catalog/EN300-1279448

> <ROCS_ShapeQuery>
x1247relevant_x1083L0AP1_x1305L0BP1_

> <ROCS_TanimotoCombo>
0.880 

> <ROCS_ShapeTanimoto>
0.534 

> <ROCS_ColorTanimoto>
0.346 

> <ROCS_RefTversky>
0.448 

> <ROCS_RefColorTversky>
0.394 

> <ROCS_RefTverskyCombo>
0.842 

> <ROCS_FitTversky>
1.559 

> <ROCS_FitColorTversky>
0.740 

> <ROCS_FitTverskyCombo>
2.298 

> <ROCS_ColorScore>
-8.389

> <ROCS_Overlap>
1321.263

> <ROCS_Rank>
18                  

$$$$
untitled-dbase-43436_0
  -OEChem-06162310163D

 38 40  0     1  0  0  0  0  0999 V2000
  -12.8275   17.0364  -38.1268 C   0  0  0  0  0  0  0  0  0  0  0  0
  -13.8251   16.1515  -37.3417 C   0  0  0  0  0  0  0  0  0  0  0  0
  -11.0321   15.3359  -38.8082 C   0  0  0  0  0  0  0  0  0  0  0  0
  -12.6892   13.8532  -37.4853 C   0  0  0  0  0  0  0  0  0  0  0  0
   -8.9451   13.8246  -37.1322 C   0  0  0  0  0  0  0  0  0  0  0  0
   -9.9109   15.8196  -35.9853 C   0  0  0  0  0  0  0  0  0  0  0  0
  -12.2287   16.1946  -39.2677 C   0  0  1  0  0  0  0  0  0  0  0  0
  -13.8391   14.7532  -37.9844 C   0  0  2  0  0  0  0  0  0  0  0  0
   -8.8909   14.6791  -35.8507 C   0  0  0  0  0  0  0  0  0  0  0  0
  -11.2650   14.4987  -37.5089 C   0  0  0  0  0  0  0  0  0  0  0  0
   -9.2225   13.8249  -34.6102 C   0  0  0  0  0  0  0  0  0  0  0  0
   -7.4804   15.2634  -35.6797 C   0  0  0  0  0  0  0  0  0  0  0  0
  -10.3028   13.3762  -37.4420 N   0  0  0  0  0  0  0  0  0  0  0  0
  -14.6838   15.8987  -40.2198 O   0  0  0  0  0  0  0  0  0  0  0  0
  -13.0929   13.9431  -40.4186 O   0  0  0  0  0  0  0  0  0  0  0  0
  -11.2041   15.3230  -36.3265 O   0  0  0  0  0  0  0  0  0  0  0  0
  -13.5777   15.1110  -39.7160 S   0  0  0  0  0  0  0  0  0  0  0  0
  -13.3803   17.8833  -38.5533 H   0  0  0  0  0  0  0  0  0  0  0  0
  -12.0589   17.4697  -37.4797 H   0  0  0  0  0  0  0  0  0  0  0  0
  -13.5994   16.1188  -36.2714 H   0  0  0  0  0  0  0  0  0  0  0  0
  -14.8237   16.5991  -37.4285 H   0  0  0  0  0  0  0  0  0  0  0  0
  -10.7651   14.6624  -39.6334 H   0  0  0  0  0  0  0  0  0  0  0  0
  -10.1763   16.0077  -38.6859 H   0  0  0  0  0  0  0  0  0  0  0  0
  -12.9231   13.5473  -36.4563 H   0  0  0  0  0  0  0  0  0  0  0  0
  -12.6936   12.9352  -38.0882 H   0  0  0  0  0  0  0  0  0  0  0  0
   -8.5376   14.3842  -37.9835 H   0  0  0  0  0  0  0  0  0  0  0  0
   -8.3073   12.9398  -37.0170 H   0  0  0  0  0  0  0  0  0  0  0  0
  -10.0110   16.3597  -35.0367 H   0  0  0  0  0  0  0  0  0  0  0  0
   -9.5949   16.5614  -36.7261 H   0  0  0  0  0  0  0  0  0  0  0  0
  -11.9627   16.8051  -40.1349 H   0  0  0  0  0  0  0  0  0  0  0  0
  -14.8056   14.2555  -37.8670 H   0  0  0  0  0  0  0  0  0  0  0  0
   -9.1767   14.4509  -33.7267 H   0  0  0  0  0  0  0  0  0  0  0  0
   -8.4996   13.0214  -34.5301 H   0  0  0  0  0  0  0  0  0  0  0  0
  -10.2195   13.4142  -34.7194 H   0  0  0  0  0  0  0  0  0  0  0  0
   -7.4458   15.8647  -34.7760 H   0  0  0  0  0  0  0  0  0  0  0  0
   -7.2402   15.8839  -36.5380 H   0  0  0  0  0  0  0  0  0  0  0  0
   -6.7608   14.4533  -35.6045 H   0  0  0  0  0  0  0  0  0  0  0  0
  -10.3031   12.8593  -38.3207 H   0  0  0  0  0  0  0  0  0  0  0  0
  1  2  1  0  0  0  0
  1  7  1  0  0  0  0
  2  8  1  0  0  0  0
  3  7  1  0  0  0  0
  3 10  1  0  0  0  0
  4  8  1  0  0  0  0
  4 10  1  0  0  0  0
  5  9  1  0  0  0  0
  5 13  1  0  0  0  0
  6  9  1  0  0  0  0
  6 16  1  0  0  0  0
  7 17  1  0  0  0  0
  8 17  1  0  0  0  0
  9 11  1  0  0  0  0
  9 12  1  0  0  0  0
 10 13  1  0  0  0  0
 10 16  1  0  0  0  0
 14 17  2  0  0  0  0
 15 17  2  0  0  0  0
  1 18  1  0  0  0  0
  1 19  1  0  0  0  0
  2 20  1  0  0  0  0
  2 21  1  0  0  0  0
  3 22  1  0  0  0  0
  3 23  1  0  0  0  0
  4 24  1  0  0  0  0
  4 25  1  0  0  0  0
  5 26  1  0  0  0  0
  5 27  1  0  0  0  0
  6 28  1  0  0  0  0
  6 29  1  0  0  0  0
  7 30  1  0  0  0  0
  8 31  1  0  0  0  0
 11 32  1  0  0  0  0
 11 33  1  0  0  0  0
 11 34  1  0  0  0  0
 12 35  1  0  0  0  0
 12 36  1  0  0  0  0
 12 37  1  0  0  0  0
 13 38  1  0  0  0  0
M  END
> <id>
EN300-1278600

> <smiles>
CC1(C)CNC2(CC3CCC(C2)S3(=O)=O)OC1

> <IUPAC Name>
5',5'-dimethyl-8lambda6-thiaspiro[bicyclo[3.2.1]octane-3,2'-[1,3]oxazinane]-8,8-dione

> <CAS>
2171809-87-1

> <URL>
https://www.enaminestore.com/catalog/EN300-1278600

> <ROCS_ShapeQuery>
x1247relevant_x1083L0AP1_x1305L0BP1_

> <ROCS_TanimotoCombo>
0.878 

> <ROCS_ShapeTanimoto>
0.522 

> <ROCS_ColorTanimoto>
0.356 

> <ROCS_RefTversky>
0.442 

> <ROCS_RefColorTversky>
0.424 

> <ROCS_RefTverskyCombo>
0.866 

> <ROCS_FitTversky>
1.530 

> <ROCS_FitColorTversky>
0.691 

> <ROCS_FitTverskyCombo>
2.220 

> <ROCS_ColorScore>
-9.072

> <ROCS_Overlap>
1302.990

> <ROCS_Rank>
19                  

$$$$
untitled-dbase-35049_1
  -OEChem-06162310163D

 35 38  0     1  0  0  0  0  0999 V2000
   -8.7267   14.4816  -36.0231 C   0  0  0  0  0  0  0  0  0  0  0  0
  -13.2336   13.5837  -38.5410 C   0  0  0  0  0  0  0  0  0  0  0  0
  -11.6583   15.0699  -39.8173 C   0  0  0  0  0  0  0  0  0  0  0  0
   -8.9986   13.7932  -37.3536 C   0  0  0  0  0  0  0  0  0  0  0  0
  -13.9892   15.8312  -39.3344 C   0  0  0  0  0  0  0  0  0  0  0  0
  -13.6675   15.4733  -36.9729 C   0  0  0  0  0  0  0  0  0  0  0  0
  -12.1535   16.9027  -38.1961 C   0  0  0  0  0  0  0  0  0  0  0  0
   -9.6176   15.7020  -35.8660 C   0  0  0  0  0  0  0  0  0  0  0  0
  -13.1180   14.6090  -39.6803 C   0  0  0  0  0  0  0  0  0  0  0  0
  -12.7646   14.2384  -37.2243 C   0  0  2  0  0  0  0  0  0  0  0  0
  -11.2028   15.7158  -38.4918 C   0  0  1  0  0  0  0  0  0  0  0  0
  -11.2692   14.6931  -37.3073 C   0  0  0  0  0  0  0  0  0  0  0  0
  -10.4216   13.5002  -37.4927 N   0  0  0  0  0  0  0  0  0  0  0  0
  -13.5576   16.4592  -38.0681 N   0  0  0  0  0  0  0  0  0  0  0  0
  -10.9846   15.3409  -36.0469 O   0  0  0  0  0  0  0  0  0  0  0  0
   -8.8839   13.7854  -35.1924 H   0  0  0  0  0  0  0  0  0  0  0  0
   -7.6755   14.7964  -35.9946 H   0  0  0  0  0  0  0  0  0  0  0  0
  -14.2754   13.2564  -38.4409 H   0  0  0  0  0  0  0  0  0  0  0  0
  -12.6444   12.6889  -38.7680 H   0  0  0  0  0  0  0  0  0  0  0  0
  -11.0137   14.2255  -40.0897 H   0  0  0  0  0  0  0  0  0  0  0  0
  -11.5739   15.7996  -40.6338 H   0  0  0  0  0  0  0  0  0  0  0  0
   -8.6859   14.4448  -38.1757 H   0  0  0  0  0  0  0  0  0  0  0  0
   -8.4071   12.8767  -37.4417 H   0  0  0  0  0  0  0  0  0  0  0  0
  -13.9442   16.5698  -40.1444 H   0  0  0  0  0  0  0  0  0  0  0  0
  -15.0429   15.5355  -39.2567 H   0  0  0  0  0  0  0  0  0  0  0  0
  -14.7129   15.1561  -36.8721 H   0  0  0  0  0  0  0  0  0  0  0  0
  -13.4127   15.9512  -36.0197 H   0  0  0  0  0  0  0  0  0  0  0  0
  -11.8495   17.4270  -37.2814 H   0  0  0  0  0  0  0  0  0  0  0  0
  -12.0793   17.6500  -38.9975 H   0  0  0  0  0  0  0  0  0  0  0  0
   -9.4812   16.1771  -34.8898 H   0  0  0  0  0  0  0  0  0  0  0  0
   -9.3667   16.4485  -36.6258 H   0  0  0  0  0  0  0  0  0  0  0  0
  -13.4595   14.1633  -40.6213 H   0  0  0  0  0  0  0  0  0  0  0  0
  -12.9248   13.5354  -36.3975 H   0  0  0  0  0  0  0  0  0  0  0  0
  -10.1853   16.1098  -38.5940 H   0  0  0  0  0  0  0  0  0  0  0  0
  -10.5865   13.1290  -38.4318 H   0  0  0  0  0  0  0  0  0  0  0  0
  1  4  1  0  0  0  0
  1  8  1  0  0  0  0
  2  9  1  0  0  0  0
  2 10  1  0  0  0  0
  3  9  1  0  0  0  0
  3 11  1  0  0  0  0
  4 13  1  0  0  0  0
  5  9  1  0  0  0  0
  5 14  1  0  0  0  0
  6 10  1  0  0  0  0
  6 14  1  0  0  0  0
  7 11  1  0  0  0  0
  7 14  1  0  0  0  0
  8 15  1  0  0  0  0
 10 12  1  0  0  0  0
 11 12  1  0  0  0  0
 12 13  1  0  0  0  0
 12 15  1  0  0  0  0
  1 16  1  0  0  0  0
  1 17  1  0  0  0  0
  2 18  1  0  0  0  0
  2 19  1  0  0  0  0
  3 20  1  0  0  0  0
  3 21  1  0  0  0  0
  4 22  1  0  0  0  0
  4 23  1  0  0  0  0
  5 24  1  0  0  0  0
  5 25  1  0  0  0  0
  6 26  1  0  0  0  0
  6 27  1  0  0  0  0
  7 28  1  0  0  0  0
  7 29  1  0  0  0  0
  8 30  1  0  0  0  0
  8 31  1  0  0  0  0
  9 32  1  0  0  0  0
 10 33  1  0  0  0  0
 11 34  1  0  0  0  0
 13 35  1  0  0  0  0
M  END
> <id>
EN300-1278457

> <smiles>
C1CNC2(OC1)C3CC4CC2CN(C4)C3

> <IUPAC Name>
5'-azaspiro[1,3-oxazinane-2,2'-tricyclo[3.3.1.1,3,7]decane]

> <CAS>
2168862-90-4

> <URL>
https://www.enaminestore.com/catalog/EN300-1278457

> <ROCS_ShapeQuery>
x1247relevant_x1083L0AP1_x1305L0BP1_

> <ROCS_TanimotoCombo>
0.878 

> <ROCS_ShapeTanimoto>
0.526 

> <ROCS_ColorTanimoto>
0.353 

> <ROCS_RefTversky>
0.440 

> <ROCS_RefColorTversky>
0.408 

> <ROCS_RefTverskyCombo>
0.847 

> <ROCS_FitTversky>
1.595 

> <ROCS_FitColorTversky>
0.722 

> <ROCS_FitTverskyCombo>
2.317 

> <ROCS_ColorScore>
-8.699

> <ROCS_Overlap>
1294.726

> <ROCS_Rank>
20                  

$$$$
untitled-dbase-18413_0
  -OEChem-06162310163D

 29 31  0     1  0  0  0  0  0999 V2000
  -13.3220   16.7207  -37.5753 C   0  0  0  0  0  0  0  0  0  0  0  0
  -12.4270   17.0563  -38.7923 C   0  0  0  0  0  0  0  0  0  0  0  0
  -12.6267   14.3079  -37.0571 C   0  0  0  0  0  0  0  0  0  0  0  0
  -11.1199   14.8744  -39.1071 C   0  0  0  0  0  0  0  0  0  0  0  0
   -9.6155   13.7450  -36.1012 C   0  0  0  0  0  0  0  0  0  0  0  0
   -9.4190   15.2282  -36.2818 C   0  0  0  0  0  0  0  0  0  0  0  0
  -13.7085   15.2326  -37.6519 C   0  0  2  0  0  0  0  0  0  0  0  0
  -12.2521   15.7793  -39.6340 C   0  0  1  0  0  0  0  0  0  0  0  0
  -11.1875   14.5559  -37.5903 C   0  0  0  0  0  0  0  0  0  0  0  0
  -10.3199   13.3935  -37.3255 N   0  0  0  0  0  0  0  0  0  0  0  0
  -13.6882   13.5277  -39.7092 O   0  0  0  0  0  0  0  0  0  0  0  0
  -14.8799   15.7427  -39.9740 O   0  0  0  0  0  0  0  0  0  0  0  0
  -10.6417   15.6827  -36.8676 O   0  0  0  0  0  0  0  0  0  0  0  0
  -13.8144   14.9380  -39.4127 S   0  0  0  0  0  0  0  0  0  0  0  0
  -12.8425   16.9784  -36.6258 H   0  0  0  0  0  0  0  0  0  0  0  0
  -14.2303   17.3342  -37.6362 H   0  0  0  0  0  0  0  0  0  0  0  0
  -12.9370   17.8192  -39.3944 H   0  0  0  0  0  0  0  0  0  0  0  0
  -11.4690   17.4933  -38.4934 H   0  0  0  0  0  0  0  0  0  0  0  0
  -12.6354   14.4320  -35.9661 H   0  0  0  0  0  0  0  0  0  0  0  0
  -12.9154   13.2678  -37.2564 H   0  0  0  0  0  0  0  0  0  0  0  0
  -11.1394   13.9409  -39.6850 H   0  0  0  0  0  0  0  0  0  0  0  0
  -10.1628   15.3638  -39.3328 H   0  0  0  0  0  0  0  0  0  0  0  0
   -8.6740   13.2023  -35.9812 H   0  0  0  0  0  0  0  0  0  0  0  0
  -10.2536   13.5335  -35.2362 H   0  0  0  0  0  0  0  0  0  0  0  0
   -9.2498   15.7508  -35.3366 H   0  0  0  0  0  0  0  0  0  0  0  0
   -8.5974   15.4566  -36.9704 H   0  0  0  0  0  0  0  0  0  0  0  0
  -14.6840   15.0365  -37.1994 H   0  0  0  0  0  0  0  0  0  0  0  0
  -12.1150   16.0014  -40.6959 H   0  0  0  0  0  0  0  0  0  0  0  0
   -9.6286   13.3096  -38.0718 H   0  0  0  0  0  0  0  0  0  0  0  0
  1  2  1  0  0  0  0
  1  7  1  0  0  0  0
  2  8  1  0  0  0  0
  3  7  1  0  0  0  0
  3  9  1  0  0  0  0
  4  8  1  0  0  0  0
  4  9  1  0  0  0  0
  5  6  1  0  0  0  0
  5 10  1  0  0  0  0
  6 13  1  0  0  0  0
  7 14  1  0  0  0  0
  8 14  1  0  0  0  0
  9 10  1  0  0  0  0
  9 13  1  0  0  0  0
 11 14  2  0  0  0  0
 12 14  2  0  0  0  0
  1 15  1  0  0  0  0
  1 16  1  0  0  0  0
  2 17  1  0  0  0  0
  2 18  1  0  0  0  0
  3 19  1  0  0  0  0
  3 20  1  0  0  0  0
  4 21  1  0  0  0  0
  4 22  1  0  0  0  0
  5 23  1  0  0  0  0
  5 24  1  0  0  0  0
  6 25  1  0  0  0  0
  6 26  1  0  0  0  0
  7 27  1  0  0  0  0
  8 28  1  0  0  0  0
 10 29  1  0  0  0  0
M  END
> <id>
EN300-1645413

> <smiles>
O=S1(=O)C2CCC1CC3(C2)NCCO3

> <IUPAC Name>
8lambda6-thiaspiro[bicyclo[3.2.1]octane-3,2'-[1,3]oxazolidine]-8,8-dione

> <CAS>
2172070-76-5

> <URL>
https://www.enaminestore.com/catalog/EN300-1645413

> <ROCS_ShapeQuery>
x1247relevant_x1083L0AP1_x1305L0BP1_

> <ROCS_TanimotoCombo>
0.875 

> <ROCS_ShapeTanimoto>
0.509 

> <ROCS_ColorTanimoto>
0.367 

> <ROCS_RefTversky>
0.421 

> <ROCS_RefColorTversky>
0.421 

> <ROCS_RefTverskyCombo>
0.843 

> <ROCS_FitTversky>
1.687 

> <ROCS_FitColorTversky>
0.738 

> <ROCS_FitTverskyCombo>
2.425 

> <ROCS_ColorScore>
-8.995

> <ROCS_Overlap>
1239.529

> <ROCS_Rank>
21                  

$$$$
untitled-dbase-17115_2
  -OEChem-06162310163D

 41 44  0     1  0  0  0  0  0999 V2000
   -9.3556   14.6580  -35.4998 C   0  0  0  0  0  0  0  0  0  0  0  0
  -13.3985   14.1723  -37.1734 C   0  0  0  0  0  0  0  0  0  0  0  0
  -12.5328   13.8848  -39.5119 C   0  0  0  0  0  0  0  0  0  0  0  0
   -9.8993   13.3583  -36.0856 C   0  0  0  0  0  0  0  0  0  0  0  0
  -14.2183   15.6624  -39.0068 C   0  0  0  0  0  0  0  0  0  0  0  0
  -12.7930   16.5948  -37.3007 C   0  0  0  0  0  0  0  0  0  0  0  0
  -11.9621   16.3151  -39.5479 C   0  0  0  0  0  0  0  0  0  0  0  0
  -13.7674   14.2301  -38.6642 C   0  0  0  0  0  0  0  0  0  0  0  0
  -12.2778   15.1943  -36.8887 C   0  0  2  0  0  0  0  0  0  0  0  0
  -11.4154   14.9059  -39.2105 C   0  0  1  0  0  0  0  0  0  0  0  0
  -10.9895   14.8470  -37.7049 C   0  0  0  0  0  0  0  0  0  0  0  0
   -8.9546   15.6673  -36.5806 C   0  0  0  0  0  0  0  0  0  0  0  0
   -8.6743   17.0293  -35.9330 C   0  0  0  0  0  0  0  0  0  0  0  0
   -7.6983   15.2230  -37.3426 C   0  0  0  0  0  0  0  0  0  0  0  0
  -10.4799   13.4982  -37.4166 N   0  0  0  0  0  0  0  0  0  0  0  0
  -13.1491   16.6456  -38.7334 N   0  0  0  0  0  0  0  0  0  0  0  0
  -10.0045   15.8848  -37.5295 O   0  0  0  0  0  0  0  0  0  0  0  0
  -10.0923   15.0950  -34.8083 H   0  0  0  0  0  0  0  0  0  0  0  0
   -8.4761   14.4042  -34.8847 H   0  0  0  0  0  0  0  0  0  0  0  0
  -14.2801   14.4100  -36.5654 H   0  0  0  0  0  0  0  0  0  0  0  0
  -13.0902   13.1592  -36.8932 H   0  0  0  0  0  0  0  0  0  0  0  0
  -12.2023   12.8603  -39.3081 H   0  0  0  0  0  0  0  0  0  0  0  0
  -12.7915   13.9216  -40.5776 H   0  0  0  0  0  0  0  0  0  0  0  0
   -9.0722   12.6126  -36.1408 H   0  0  0  0  0  0  0  0  0  0  0  0
  -10.6317   12.8836  -35.3900 H   0  0  0  0  0  0  0  0  0  0  0  0
  -14.5126   15.7245  -40.0623 H   0  0  0  0  0  0  0  0  0  0  0  0
  -15.1147   15.9252  -38.4307 H   0  0  0  0  0  0  0  0  0  0  0  0
  -13.6710   16.8617  -36.6982 H   0  0  0  0  0  0  0  0  0  0  0  0
  -12.0441   17.3650  -37.0826 H   0  0  0  0  0  0  0  0  0  0  0  0
  -11.1900   17.0803  -39.3998 H   0  0  0  0  0  0  0  0  0  0  0  0
  -12.2240   16.3701  -40.6129 H   0  0  0  0  0  0  0  0  0  0  0  0
  -14.5772   13.5235  -38.8777 H   0  0  0  0  0  0  0  0  0  0  0  0
  -12.0830   15.2004  -35.8161 H   0  0  0  0  0  0  0  0  0  0  0  0
  -10.5499   14.7107  -39.8553 H   0  0  0  0  0  0  0  0  0  0  0  0
   -8.3901   17.7441  -36.7004 H   0  0  0  0  0  0  0  0  0  0  0  0
   -7.8655   16.9295  -35.2142 H   0  0  0  0  0  0  0  0  0  0  0  0
   -9.5686   17.3802  -35.4251 H   0  0  0  0  0  0  0  0  0  0  0  0
   -7.4534   15.9661  -38.0948 H   0  0  0  0  0  0  0  0  0  0  0  0
   -7.8884   14.2680  -37.8219 H   0  0  0  0  0  0  0  0  0  0  0  0
   -6.8723   15.1235  -36.6457 H   0  0  0  0  0  0  0  0  0  0  0  0
   -9.7606   13.2618  -38.1103 H   0  0  0  0  0  0  0  0  0  0  0  0
  1  4  1  0  0  0  0
  1 12  1  0  0  0  0
  2  8  1  0  0  0  0
  2  9  1  0  0  0  0
  3  8  1  0  0  0  0
  3 10  1  0  0  0  0
  4 15  1  0  0  0  0
  5  8  1  0  0  0  0
  5 16  1  0  0  0  0
  6  9  1  0  0  0  0
  6 16  1  0  0  0  0
  7 10  1  0  0  0  0
  7 16  1  0  0  0  0
  9 11  1  0  0  0  0
 10 11  1  0  0  0  0
 11 15  1  0  0  0  0
 11 17  1  0  0  0  0
 12 13  1  0  0  0  0
 12 14  1  0  0  0  0
 12 17  1  0  0  0  0
  1 18  1  0  0  0  0
  1 19  1  0  0  0  0
  2 20  1  0  0  0  0
  2 21  1  0  0  0  0
  3 22  1  0  0  0  0
  3 23  1  0  0  0  0
  4 24  1  0  0  0  0
  4 25  1  0  0  0  0
  5 26  1  0  0  0  0
  5 27  1  0  0  0  0
  6 28  1  0  0  0  0
  6 29  1  0  0  0  0
  7 30  1  0  0  0  0
  7 31  1  0  0  0  0
  8 32  1  0  0  0  0
  9 33  1  0  0  0  0
 10 34  1  0  0  0  0
 13 35  1  0  0  0  0
 13 36  1  0  0  0  0
 13 37  1  0  0  0  0
 14 38  1  0  0  0  0
 14 39  1  0  0  0  0
 14 40  1  0  0  0  0
 15 41  1  0  0  0  0
M  END
> <id>
EN300-1279820

> <smiles>
CC1(C)CCNC2(O1)C3CC4CC2CN(C4)C3

> <IUPAC Name>
6,6-dimethyl-5'-azaspiro[1,3-oxazinane-2,2'-tricyclo[3.3.1.1,3,7]decane]

> <CAS>
2172115-38-5

> <URL>
https://www.enaminestore.com/catalog/EN300-1279820

> <ROCS_ShapeQuery>
x1247relevant_x1083L0AP1_x1305L0BP1_

> <ROCS_TanimotoCombo>
0.873 

> <ROCS_ShapeTanimoto>
0.533 

> <ROCS_ColorTanimoto>
0.340 

> <ROCS_RefTversky>
0.453 

> <ROCS_RefColorTversky>
0.408 

> <ROCS_RefTverskyCombo>
0.861 

> <ROCS_FitTversky>
1.495 

> <ROCS_FitColorTversky>
0.672 

> <ROCS_FitTverskyCombo>
2.167 

> <ROCS_ColorScore>
-8.723

> <ROCS_Overlap>
1337.283

> <ROCS_Rank>
22                  

$$$$
untitled-dbase-43919_168
  -OEChem-06162310163D

 35 36  0     1  0  0  0  0  0999 V2000
  -10.4736   15.3447  -36.4787 C   0  0  0  0  0  0  0  0  0  0  0  0
  -12.5050   14.1122  -39.1923 C   0  0  0  0  0  0  0  0  0  0  0  0
  -12.8748   14.6374  -36.9126 C   0  0  0  0  0  0  0  0  0  0  0  0
  -13.6078   14.6457  -38.2655 C   0  0  1  0  0  0  0  0  0  0  0  0
  -11.5084   15.1954  -38.7718 C   0  0  1  0  0  0  0  0  0  0  0  0
  -13.7394   16.1073  -38.7593 C   0  0  1  0  0  0  0  0  0  0  0  0
  -12.2797   16.4841  -39.1214 C   0  0  2  0  0  0  0  0  0  0  0  0
   -8.2688   14.3727  -37.5047 C   0  0  0  0  0  0  0  0  0  0  0  0
   -7.7513   16.6480  -38.4342 C   0  0  0  0  0  0  0  0  0  0  0  0
   -7.4754   16.2086  -35.9768 C   0  0  0  0  0  0  0  0  0  0  0  0
   -8.2844   15.8756  -37.2295 C   0  0  0  0  0  0  0  0  0  0  0  0
  -11.5338   15.0610  -37.3132 N   0  0  0  0  0  0  0  0  0  0  0  0
  -10.2960   14.8188  -35.3826 O   0  0  0  0  0  0  0  0  0  0  0  0
  -14.6073   16.1558  -39.8798 O   0  0  0  0  0  0  0  0  0  0  0  0
  -12.1134   16.7804  -40.4981 O   0  0  0  0  0  0  0  0  0  0  0  0
   -9.6400   16.2862  -37.0193 O   0  0  0  0  0  0  0  0  0  0  0  0
  -12.1741   13.1011  -38.9304 H   0  0  0  0  0  0  0  0  0  0  0  0
  -12.7713   14.1448  -40.2537 H   0  0  0  0  0  0  0  0  0  0  0  0
  -13.2928   15.3291  -36.1754 H   0  0  0  0  0  0  0  0  0  0  0  0
  -12.8051   13.6335  -36.4810 H   0  0  0  0  0  0  0  0  0  0  0  0
  -14.5354   14.0703  -38.2880 H   0  0  0  0  0  0  0  0  0  0  0  0
  -10.5093   15.1174  -39.2055 H   0  0  0  0  0  0  0  0  0  0  0  0
  -14.1441   16.7525  -37.9722 H   0  0  0  0  0  0  0  0  0  0  0  0
  -11.9172   17.3353  -38.5344 H   0  0  0  0  0  0  0  0  0  0  0  0
   -8.6507   13.8146  -36.6423 H   0  0  0  0  0  0  0  0  0  0  0  0
   -8.8741   14.1165  -38.3803 H   0  0  0  0  0  0  0  0  0  0  0  0
   -7.2462   14.0169  -37.6747 H   0  0  0  0  0  0  0  0  0  0  0  0
   -7.7608   17.7269  -38.2412 H   0  0  0  0  0  0  0  0  0  0  0  0
   -8.3855   16.4862  -39.3134 H   0  0  0  0  0  0  0  0  0  0  0  0
   -6.7283   16.3496  -38.6850 H   0  0  0  0  0  0  0  0  0  0  0  0
   -7.4865   17.2866  -35.7792 H   0  0  0  0  0  0  0  0  0  0  0  0
   -7.8667   15.6916  -35.0947 H   0  0  0  0  0  0  0  0  0  0  0  0
   -6.4236   15.9288  -36.1064 H   0  0  0  0  0  0  0  0  0  0  0  0
  -14.6614   17.0859  -40.1561 H   0  0  0  0  0  0  0  0  0  0  0  0
  -12.4670   16.0241  -40.9955 H   0  0  0  0  0  0  0  0  0  0  0  0
  1 12  1  0  0  0  0
  1 13  2  0  0  0  0
  1 16  1  0  0  0  0
  2  4  1  0  0  0  0
  2  5  1  0  0  0  0
  3  4  1  6  0  0  0
  3 12  1  0  0  0  0
  4  6  1  0  0  0  0
  5  7  1  0  0  0  0
  5 12  1  6  0  0  0
  6  7  1  0  0  0  0
  6 14  1  1  0  0  0
  7 15  1  1  0  0  0
  8 11  1  0  0  0  0
  9 11  1  0  0  0  0
 10 11  1  0  0  0  0
 11 16  1  0  0  0  0
  2 17  1  0  0  0  0
  2 18  1  0  0  0  0
  3 19  1  0  0  0  0
  3 20  1  0  0  0  0
  4 21  1  0  0  0  0
  5 22  1  0  0  0  0
  6 23  1  0  0  0  0
  7 24  1  0  0  0  0
  8 25  1  0  0  0  0
  8 26  1  0  0  0  0
  8 27  1  0  0  0  0
  9 28  1  0  0  0  0
  9 29  1  0  0  0  0
  9 30  1  0  0  0  0
 10 31  1  0  0  0  0
 10 32  1  0  0  0  0
 10 33  1  0  0  0  0
 14 34  1  0  0  0  0
 15 35  1  0  0  0  0
M  END
> <id>
EN300-7254121

> <smiles>
CC(C)(C)OC(=O)N1C[C@@H]2C[C@H]1[C@@H](O)[C@H]2O |&1:9,11,12,14,r|

> <IUPAC Name>
rac-tert-butyl (1R,4R,5R,6S)-5,6-dihydroxy-2-azabicyclo[2.2.1]heptane-2-carboxylate

> <CAS>
2639390-14-8

> <URL>
https://www.enaminestore.com/catalog/EN300-7254121

> <ROCS_ShapeQuery>
x1247relevant_x1083L0AP1_x1305L0BP1_

> <ROCS_TanimotoCombo>
0.872 

> <ROCS_ShapeTanimoto>
0.496 

> <ROCS_ColorTanimoto>
0.376 

> <ROCS_RefTversky>
0.425 

> <ROCS_RefColorTversky>
0.438 

> <ROCS_RefTverskyCombo>
0.863 

> <ROCS_FitTversky>
1.504 

> <ROCS_FitColorTversky>
0.728 

> <ROCS_FitTverskyCombo>
2.232 

> <ROCS_ColorScore>
-9.352

> <ROCS_Overlap>
1253.815

> <ROCS_Rank>
23                  

$$$$
untitled-dbase-26701_21
  -OEChem-06162310163D

 39 41  0     1  0  0  0  0  0999 V2000
  -10.1331   14.8728  -36.2597 C   0  0  0  0  0  0  0  0  0  0  0  0
  -13.6479   16.4305  -38.1554 C   0  0  0  0  0  0  0  0  0  0  0  0
  -13.4205   14.7775  -39.8474 C   0  0  0  0  0  0  0  0  0  0  0  0
  -12.6237   14.9735  -36.3022 C   0  0  0  0  0  0  0  0  0  0  0  0
  -12.9006   16.1694  -39.4806 C   0  0  2  0  0  0  0  0  0  0  0  0
  -13.6152   15.0515  -37.4558 C   0  0  2  0  0  0  0  0  0  0  0  0
  -12.9692   14.1567  -38.5371 C   0  0  2  0  0  0  0  0  0  0  0  0
  -11.4846   14.5647  -38.3828 C   0  0  1  0  0  0  0  0  0  0  0  0
  -11.4086   15.8986  -39.1710 C   0  0  1  0  0  0  0  0  0  0  0  0
   -8.5035   13.0073  -37.1139 C   0  0  0  0  0  0  0  0  0  0  0  0
   -7.4048   14.7101  -38.5980 C   0  0  0  0  0  0  0  0  0  0  0  0
   -6.9774   14.7463  -36.1233 C   0  0  0  0  0  0  0  0  0  0  0  0
   -8.0014   14.4468  -37.2171 C   0  0  0  0  0  0  0  0  0  0  0  0
  -11.3324   14.7970  -36.9467 N   0  0  0  0  0  0  0  0  0  0  0  0
  -10.6471   15.7205  -40.4058 N   0  0  0  0  0  0  0  0  0  0  0  0
   -9.9953   14.5696  -35.0767 O   0  0  0  0  0  0  0  0  0  0  0  0
   -9.1157   15.3308  -37.0529 O   0  0  0  0  0  0  0  0  0  0  0  0
  -13.1935   17.2312  -37.5633 H   0  0  0  0  0  0  0  0  0  0  0  0
  -14.6870   16.7116  -38.3645 H   0  0  0  0  0  0  0  0  0  0  0  0
  -14.5078   14.7500  -39.9774 H   0  0  0  0  0  0  0  0  0  0  0  0
  -12.9432   14.3319  -40.7236 H   0  0  0  0  0  0  0  0  0  0  0  0
  -12.6173   15.8589  -35.6594 H   0  0  0  0  0  0  0  0  0  0  0  0
  -12.8028   14.0887  -35.6816 H   0  0  0  0  0  0  0  0  0  0  0  0
  -13.0727   16.9418  -40.2339 H   0  0  0  0  0  0  0  0  0  0  0  0
  -14.6209   14.7301  -37.1678 H   0  0  0  0  0  0  0  0  0  0  0  0
  -13.1610   13.0894  -38.4063 H   0  0  0  0  0  0  0  0  0  0  0  0
  -10.7780   13.8060  -38.7344 H   0  0  0  0  0  0  0  0  0  0  0  0
  -10.9608   16.7057  -38.6053 H   0  0  0  0  0  0  0  0  0  0  0  0
   -8.9325   12.8142  -36.1242 H   0  0  0  0  0  0  0  0  0  0  0  0
   -9.2641   12.7901  -37.8710 H   0  0  0  0  0  0  0  0  0  0  0  0
   -7.6791   12.2958  -37.2376 H   0  0  0  0  0  0  0  0  0  0  0  0
   -7.0433   15.7418  -38.6765 H   0  0  0  0  0  0  0  0  0  0  0  0
   -8.1627   14.5883  -39.3803 H   0  0  0  0  0  0  0  0  0  0  0  0
   -6.5718   14.0334  -38.8140 H   0  0  0  0  0  0  0  0  0  0  0  0
   -6.6171   15.7788  -36.1971 H   0  0  0  0  0  0  0  0  0  0  0  0
   -7.3996   14.5982  -35.1241 H   0  0  0  0  0  0  0  0  0  0  0  0
   -6.0962   14.1031  -36.2279 H   0  0  0  0  0  0  0  0  0  0  0  0
  -10.6854   16.5694  -40.9176 H   0  0  0  0  0  0  0  0  0  0  0  0
   -9.7116   15.4984  -40.1619 H   0  0  0  0  0  0  0  0  0  0  0  0
  1 14  1  0  0  0  0
  1 16  2  0  0  0  0
  1 17  1  0  0  0  0
  2  5  1  0  0  0  0
  2  6  1  0  0  0  0
  3  5  1  0  0  0  0
  3  7  1  0  0  0  0
  4  6  1  0  0  0  0
  4 14  1  0  0  0  0
  5  9  1  0  0  0  0
  6  7  1  0  0  0  0
  7  8  1  0  0  0  0
  8  9  1  0  0  0  0
  8 14  1  0  0  0  0
  9 15  1  0  0  0  0
 10 13  1  0  0  0  0
 11 13  1  0  0  0  0
 12 13  1  0  0  0  0
 13 17  1  0  0  0  0
  2 18  1  0  0  0  0
  2 19  1  0  0  0  0
  3 20  1  0  0  0  0
  3 21  1  0  0  0  0
  4 22  1  0  0  0  0
  4 23  1  0  0  0  0
  5 24  1  0  0  0  0
  6 25  1  0  0  0  0
  7 26  1  0  0  0  0
  8 27  1  0  0  0  0
  9 28  1  0  0  0  0
 10 29  1  0  0  0  0
 10 30  1  0  0  0  0
 10 31  1  0  0  0  0
 11 32  1  0  0  0  0
 11 33  1  0  0  0  0
 11 34  1  0  0  0  0
 12 35  1  0  0  0  0
 12 36  1  0  0  0  0
 12 37  1  0  0  0  0
 15 38  1  0  0  0  0
 15 39  1  0  0  0  0
M  END
> <id>
EN300-7426844

> <smiles>
Cl.CC(C)(C)OC(=O)N1CC2CC3CC2C1C3N

> <MDLNUMBER>
MFCD31924532

> <IUPAC Name>
tert-butyl 2-amino-4-azatricyclo[4.2.1.0,3,7]nonane-4-carboxylate hydrochloride

> <CAS>
2344680-16-4

> <Purity>
95

> <URL>
https://www.enaminestore.com/catalog/EN300-7426844

> <Saltdate>
Cl

> <ROCS_ShapeQuery>
x1247relevant_x1083L0AP1_x1305L0BP1_

> <ROCS_TanimotoCombo>
0.872 

> <ROCS_ShapeTanimoto>
0.523 

> <ROCS_ColorTanimoto>
0.349 

> <ROCS_RefTversky>
0.447 

> <ROCS_RefColorTversky>
0.460 

> <ROCS_RefTverskyCombo>
0.908 

> <ROCS_FitTversky>
1.483 

> <ROCS_FitColorTversky>
0.590 

> <ROCS_FitTverskyCombo>
2.073 

> <ROCS_ColorScore>
-9.937

> <ROCS_Overlap>
1319.269

> <ROCS_Rank>
24                  

$$$$
untitled-dbase-26532_21
  -OEChem-06162310163D

 39 41  0     1  0  0  0  0  0999 V2000
  -10.1331   14.8728  -36.2597 C   0  0  0  0  0  0  0  0  0  0  0  0
  -13.6479   16.4305  -38.1554 C   0  0  0  0  0  0  0  0  0  0  0  0
  -13.4205   14.7775  -39.8474 C   0  0  0  0  0  0  0  0  0  0  0  0
  -12.6237   14.9735  -36.3022 C   0  0  0  0  0  0  0  0  0  0  0  0
  -12.9006   16.1694  -39.4806 C   0  0  2  0  0  0  0  0  0  0  0  0
  -13.6152   15.0515  -37.4558 C   0  0  2  0  0  0  0  0  0  0  0  0
  -12.9692   14.1567  -38.5371 C   0  0  2  0  0  0  0  0  0  0  0  0
  -11.4846   14.5647  -38.3828 C   0  0  1  0  0  0  0  0  0  0  0  0
  -11.4086   15.8986  -39.1710 C   0  0  1  0  0  0  0  0  0  0  0  0
   -8.5035   13.0073  -37.1139 C   0  0  0  0  0  0  0  0  0  0  0  0
   -7.4048   14.7101  -38.5980 C   0  0  0  0  0  0  0  0  0  0  0  0
   -6.9774   14.7463  -36.1233 C   0  0  0  0  0  0  0  0  0  0  0  0
   -8.0014   14.4468  -37.2171 C   0  0  0  0  0  0  0  0  0  0  0  0
  -11.3324   14.7970  -36.9467 N   0  0  0  0  0  0  0  0  0  0  0  0
  -10.6471   15.7205  -40.4058 N   0  0  0  0  0  0  0  0  0  0  0  0
   -9.9953   14.5696  -35.0767 O   0  0  0  0  0  0  0  0  0  0  0  0
   -9.1157   15.3308  -37.0529 O   0  0  0  0  0  0  0  0  0  0  0  0
  -13.1935   17.2312  -37.5633 H   0  0  0  0  0  0  0  0  0  0  0  0
  -14.6870   16.7116  -38.3645 H   0  0  0  0  0  0  0  0  0  0  0  0
  -14.5078   14.7500  -39.9774 H   0  0  0  0  0  0  0  0  0  0  0  0
  -12.9432   14.3319  -40.7236 H   0  0  0  0  0  0  0  0  0  0  0  0
  -12.6173   15.8589  -35.6594 H   0  0  0  0  0  0  0  0  0  0  0  0
  -12.8028   14.0887  -35.6816 H   0  0  0  0  0  0  0  0  0  0  0  0
  -13.0727   16.9418  -40.2339 H   0  0  0  0  0  0  0  0  0  0  0  0
  -14.6209   14.7301  -37.1678 H   0  0  0  0  0  0  0  0  0  0  0  0
  -13.1610   13.0894  -38.4063 H   0  0  0  0  0  0  0  0  0  0  0  0
  -10.7780   13.8060  -38.7344 H   0  0  0  0  0  0  0  0  0  0  0  0
  -10.9608   16.7057  -38.6053 H   0  0  0  0  0  0  0  0  0  0  0  0
   -8.9325   12.8142  -36.1242 H   0  0  0  0  0  0  0  0  0  0  0  0
   -9.2641   12.7901  -37.8710 H   0  0  0  0  0  0  0  0  0  0  0  0
   -7.6791   12.2958  -37.2376 H   0  0  0  0  0  0  0  0  0  0  0  0
   -7.0433   15.7418  -38.6765 H   0  0  0  0  0  0  0  0  0  0  0  0
   -8.1627   14.5883  -39.3803 H   0  0  0  0  0  0  0  0  0  0  0  0
   -6.5718   14.0334  -38.8140 H   0  0  0  0  0  0  0  0  0  0  0  0
   -6.6171   15.7788  -36.1971 H   0  0  0  0  0  0  0  0  0  0  0  0
   -7.3996   14.5982  -35.1241 H   0  0  0  0  0  0  0  0  0  0  0  0
   -6.0962   14.1031  -36.2279 H   0  0  0  0  0  0  0  0  0  0  0  0
  -10.6854   16.5694  -40.9176 H   0  0  0  0  0  0  0  0  0  0  0  0
   -9.7116   15.4984  -40.1619 H   0  0  0  0  0  0  0  0  0  0  0  0
  1 14  1  0  0  0  0
  1 16  2  0  0  0  0
  1 17  1  0  0  0  0
  2  5  1  0  0  0  0
  2  6  1  0  0  0  0
  3  5  1  0  0  0  0
  3  7  1  0  0  0  0
  4  6  1  0  0  0  0
  4 14  1  0  0  0  0
  5  9  1  0  0  0  0
  6  7  1  0  0  0  0
  7  8  1  0  0  0  0
  8  9  1  0  0  0  0
  8 14  1  0  0  0  0
  9 15  1  0  0  0  0
 10 13  1  0  0  0  0
 11 13  1  0  0  0  0
 12 13  1  0  0  0  0
 13 17  1  0  0  0  0
  2 18  1  0  0  0  0
  2 19  1  0  0  0  0
  3 20  1  0  0  0  0
  3 21  1  0  0  0  0
  4 22  1  0  0  0  0
  4 23  1  0  0  0  0
  5 24  1  0  0  0  0
  6 25  1  0  0  0  0
  7 26  1  0  0  0  0
  8 27  1  0  0  0  0
  9 28  1  0  0  0  0
 10 29  1  0  0  0  0
 10 30  1  0  0  0  0
 10 31  1  0  0  0  0
 11 32  1  0  0  0  0
 11 33  1  0  0  0  0
 11 34  1  0  0  0  0
 12 35  1  0  0  0  0
 12 36  1  0  0  0  0
 12 37  1  0  0  0  0
 15 38  1  0  0  0  0
 15 39  1  0  0  0  0
M  END
> <id>
EN300-3150146

> <smiles>
CC(C)(C)OC(=O)N1CC2CC3CC2C1C3N

> <MDLNUMBER>
MFCD31924379

> <IUPAC Name>
tert-butyl 2-amino-4-azatricyclo[4.2.1.0,3,7]nonane-4-carboxylate

> <CAS>
1876006-33-5

> <URL>
https://www.enaminestore.com/catalog/EN300-3150146

> <ROCS_ShapeQuery>
x1247relevant_x1083L0AP1_x1305L0BP1_

> <ROCS_TanimotoCombo>
0.872 

> <ROCS_ShapeTanimoto>
0.523 

> <ROCS_ColorTanimoto>
0.349 

> <ROCS_RefTversky>
0.447 

> <ROCS_RefColorTversky>
0.460 

> <ROCS_RefTverskyCombo>
0.908 

> <ROCS_FitTversky>
1.483 

> <ROCS_FitColorTversky>
0.590 

> <ROCS_FitTverskyCombo>
2.073 

> <ROCS_ColorScore>
-9.937

> <ROCS_Overlap>
1319.269

> <ROCS_Rank>
25                  

$$$$
untitled-dbase-39655_0
  -OEChem-06162310163D

 32 35  0     0  0  0  0  0  0999 V2000
  -10.2345   15.4395  -36.4149 C   0  0  0  0  0  0  0  0  0  0  0  0
  -14.1063   15.7146  -39.2862 C   0  0  0  0  0  0  0  0  0  0  0  0
  -11.9020   16.8075  -38.7961 C   0  0  0  0  0  0  0  0  0  0  0  0
  -13.3371   15.9698  -36.9117 C   0  0  0  0  0  0  0  0  0  0  0  0
  -11.9663   14.5355  -39.8558 C   0  0  0  0  0  0  0  0  0  0  0  0
  -13.3979   13.6946  -37.9779 C   0  0  0  0  0  0  0  0  0  0  0  0
   -9.2414   14.3550  -36.8462 C   0  0  0  0  0  0  0  0  0  0  0  0
  -13.3505   16.6252  -38.3053 C   0  0  0  0  0  0  0  0  0  0  0  0
  -13.4143   14.3448  -39.3720 C   0  0  0  0  0  0  0  0  0  0  0  0
  -11.1903   15.4411  -38.8787 C   0  0  0  0  0  0  0  0  0  0  0  0
  -12.6467   14.5935  -36.9775 C   0  0  0  0  0  0  0  0  0  0  0  0
  -11.1996   14.8093  -37.4662 C   0  0  0  0  0  0  0  0  0  0  0  0
  -10.3774   13.5687  -37.3569 N   0  0  0  0  0  0  0  0  0  0  0  0
  -10.5634   15.3410  -35.3731 H   0  0  0  0  0  0  0  0  0  0  0  0
   -9.9066   16.4681  -36.5835 H   0  0  0  0  0  0  0  0  0  0  0  0
  -15.1451   15.5899  -38.9575 H   0  0  0  0  0  0  0  0  0  0  0  0
  -14.1404   16.1800  -40.2790 H   0  0  0  0  0  0  0  0  0  0  0  0
  -11.9011   17.2869  -39.7829 H   0  0  0  0  0  0  0  0  0  0  0  0
  -11.3651   17.4806  -38.1179 H   0  0  0  0  0  0  0  0  0  0  0  0
  -12.8170   16.6235  -36.2010 H   0  0  0  0  0  0  0  0  0  0  0  0
  -14.3645   15.8535  -36.5449 H   0  0  0  0  0  0  0  0  0  0  0  0
  -11.4772   13.5596  -39.9526 H   0  0  0  0  0  0  0  0  0  0  0  0
  -11.9660   14.9860  -40.8561 H   0  0  0  0  0  0  0  0  0  0  0  0
  -14.4262   13.5337  -37.6312 H   0  0  0  0  0  0  0  0  0  0  0  0
  -12.9263   12.7063  -38.0355 H   0  0  0  0  0  0  0  0  0  0  0  0
   -8.5376   14.6726  -37.6240 H   0  0  0  0  0  0  0  0  0  0  0  0
   -8.6812   13.8797  -36.0366 H   0  0  0  0  0  0  0  0  0  0  0  0
  -13.8463   17.6007  -38.2494 H   0  0  0  0  0  0  0  0  0  0  0  0
  -13.9563   13.7009  -40.0737 H   0  0  0  0  0  0  0  0  0  0  0  0
  -10.1680   15.5864  -39.2472 H   0  0  0  0  0  0  0  0  0  0  0  0
  -12.6637   14.1286  -35.9841 H   0  0  0  0  0  0  0  0  0  0  0  0
  -10.1934   13.0768  -38.2288 H   0  0  0  0  0  0  0  0  0  0  0  0
  1  7  1  0  0  0  0
  1 12  1  0  0  0  0
  2  8  1  0  0  0  0
  2  9  1  0  0  0  0
  3  8  1  0  0  0  0
  3 10  1  0  0  0  0
  4  8  1  0  0  0  0
  4 11  1  0  0  0  0
  5  9  1  0  0  0  0
  5 10  1  0  0  0  0
  6  9  1  0  0  0  0
  6 11  1  0  0  0  0
  7 13  1  0  0  0  0
 10 12  1  0  0  0  0
 11 12  1  0  0  0  0
 12 13  1  0  0  0  0
  1 14  1  0  0  0  0
  1 15  1  0  0  0  0
  2 16  1  0  0  0  0
  2 17  1  0  0  0  0
  3 18  1  0  0  0  0
  3 19  1  0  0  0  0
  4 20  1  0  0  0  0
  4 21  1  0  0  0  0
  5 22  1  0  0  0  0
  5 23  1  0  0  0  0
  6 24  1  0  0  0  0
  6 25  1  0  0  0  0
  7 26  1  0  0  0  0
  7 27  1  0  0  0  0
  8 28  1  0  0  0  0
  9 29  1  0  0  0  0
 10 30  1  0  0  0  0
 11 31  1  0  0  0  0
 13 32  1  0  0  0  0
M  END
> <id>
EN300-7465485

> <smiles>
C1CC2(N1)C3CC4CC(C3)CC2C4

> <MDLNUMBER>
MFCD20547659

> <IUPAC Name>
spiro[adamantane-2,2'-azetidine]

> <CAS>
59591-93-4

> <Purity>
95

> <URL>
https://www.enaminestore.com/catalog/EN300-7465485

> <ROCS_ShapeQuery>
x1247relevant_x1083L0AP1_x1305L0BP1_

> <ROCS_TanimotoCombo>
0.872 

> <ROCS_ShapeTanimoto>
0.495 

> <ROCS_ColorTanimoto>
0.377 

> <ROCS_RefTversky>
0.412 

> <ROCS_RefColorTversky>
0.404 

> <ROCS_RefTverskyCombo>
0.816 

> <ROCS_FitTversky>
1.688 

> <ROCS_FitColorTversky>
0.849 

> <ROCS_FitTverskyCombo>
2.537 

> <ROCS_ColorScore>
-8.573

> <ROCS_Overlap>
1212.114

> <ROCS_Rank>
26                  

$$$$
untitled-dbase-16485_2
  -OEChem-06162310163D

 39 42  0     1  0  0  0  0  0999 V2000
   -9.6765   15.2276  -33.3417 C   0  0  0  0  0  0  0  0  0  0  0  0
  -12.8259   17.0517  -38.1600 C   0  0  0  0  0  0  0  0  0  0  0  0
  -13.8188   16.1842  -37.3503 C   0  0  0  0  0  0  0  0  0  0  0  0
  -10.3361   14.2189  -34.2962 C   0  0  0  0  0  0  0  0  0  0  0  0
   -9.9625   16.3228  -34.3818 C   0  0  0  0  0  0  0  0  0  0  0  0
   -8.7756   14.9978  -36.2590 C   0  0  0  0  0  0  0  0  0  0  0  0
  -11.0325   15.3385  -38.8105 C   0  0  0  0  0  0  0  0  0  0  0  0
  -12.6976   13.8784  -37.4482 C   0  0  0  0  0  0  0  0  0  0  0  0
   -8.9274   13.8273  -37.2323 C   0  0  0  0  0  0  0  0  0  0  0  0
  -12.2314   16.1852  -39.2848 C   0  0  1  0  0  0  0  0  0  0  0  0
  -13.8421   14.7736  -37.9652 C   0  0  2  0  0  0  0  0  0  0  0  0
  -10.0633   15.2111  -35.4678 C   0  0  0  0  0  0  0  0  0  0  0  0
  -11.2717   14.5044  -37.5161 C   0  0  0  0  0  0  0  0  0  0  0  0
  -10.3066   13.3881  -37.4438 N   0  0  0  0  0  0  0  0  0  0  0  0
  -14.6876   15.8679  -40.2258 O   0  0  0  0  0  0  0  0  0  0  0  0
  -13.0961   13.9082  -40.3803 O   0  0  0  0  0  0  0  0  0  0  0  0
  -11.1654   15.3978  -36.3880 O   0  0  0  0  0  0  0  0  0  0  0  0
  -13.5811   15.0919  -39.7048 S   0  0  0  0  0  0  0  0  0  0  0  0
  -10.1682   15.3539  -32.3730 H   0  0  0  0  0  0  0  0  0  0  0  0
   -8.6088   15.0444  -33.1734 H   0  0  0  0  0  0  0  0  0  0  0  0
  -13.3822   17.8871  -38.6033 H   0  0  0  0  0  0  0  0  0  0  0  0
  -12.0598   17.5005  -37.5244 H   0  0  0  0  0  0  0  0  0  0  0  0
  -13.5815   16.1703  -36.2817 H   0  0  0  0  0  0  0  0  0  0  0  0
  -14.8170   16.6330  -37.4353 H   0  0  0  0  0  0  0  0  0  0  0  0
   -9.8424   13.2451  -34.3550 H   0  0  0  0  0  0  0  0  0  0  0  0
  -11.4015   14.0566  -34.0945 H   0  0  0  0  0  0  0  0  0  0  0  0
  -10.8992   16.8590  -34.1942 H   0  0  0  0  0  0  0  0  0  0  0  0
   -9.1620   17.0579  -34.5059 H   0  0  0  0  0  0  0  0  0  0  0  0
   -7.9392   14.7946  -35.5697 H   0  0  0  0  0  0  0  0  0  0  0  0
   -8.4931   15.9005  -36.8228 H   0  0  0  0  0  0  0  0  0  0  0  0
  -10.7494   14.6673  -39.6319 H   0  0  0  0  0  0  0  0  0  0  0  0
  -10.1826   16.0135  -38.6697 H   0  0  0  0  0  0  0  0  0  0  0  0
  -12.9223   13.6124  -36.4066 H   0  0  0  0  0  0  0  0  0  0  0  0
  -12.7256   12.9413  -38.0200 H   0  0  0  0  0  0  0  0  0  0  0  0
   -8.4456   14.0660  -38.2121 H   0  0  0  0  0  0  0  0  0  0  0  0
   -8.3414   12.9619  -36.8424 H   0  0  0  0  0  0  0  0  0  0  0  0
  -11.9671   16.7782  -40.1639 H   0  0  0  0  0  0  0  0  0  0  0  0
  -14.8114   14.2847  -37.8358 H   0  0  0  0  0  0  0  0  0  0  0  0
  -10.3608   12.8222  -38.2888 H   0  0  0  0  0  0  0  0  0  0  0  0
  1  4  1  0  0  0  0
  1  5  1  0  0  0  0
  2  3  1  0  0  0  0
  2 10  1  0  0  0  0
  3 11  1  0  0  0  0
  4 12  1  0  0  0  0
  5 12  1  0  0  0  0
  6  9  1  0  0  0  0
  6 12  1  0  0  0  0
  7 10  1  0  0  0  0
  7 13  1  0  0  0  0
  8 11  1  0  0  0  0
  8 13  1  0  0  0  0
  9 14  1  0  0  0  0
 10 18  1  0  0  0  0
 11 18  1  0  0  0  0
 12 17  1  0  0  0  0
 13 14  1  0  0  0  0
 13 17  1  0  0  0  0
 15 18  2  0  0  0  0
 16 18  2  0  0  0  0
  1 19  1  0  0  0  0
  1 20  1  0  0  0  0
  2 21  1  0  0  0  0
  2 22  1  0  0  0  0
  3 23  1  0  0  0  0
  3 24  1  0  0  0  0
  4 25  1  0  0  0  0
  4 26  1  0  0  0  0
  5 27  1  0  0  0  0
  5 28  1  0  0  0  0
  6 29  1  0  0  0  0
  6 30  1  0  0  0  0
  7 31  1  0  0  0  0
  7 32  1  0  0  0  0
  8 33  1  0  0  0  0
  8 34  1  0  0  0  0
  9 35  1  0  0  0  0
  9 36  1  0  0  0  0
 10 37  1  0  0  0  0
 11 38  1  0  0  0  0
 14 39  1  0  0  0  0
M  END
> <id>
EN300-1280025

> <smiles>
O=S1(=O)C2CCC1CC3(C2)NCCC4(CCC4)O3

> <IUPAC Name>
8lambda6-dispiro[8lambda6-thiabicyclo[3.2.1]octane-3,2'-[1,3]oxazinane-6',1''-cyclobutane]-8,8-dione

> <URL>
https://www.enaminestore.com/catalog/EN300-1280025

> <ROCS_ShapeQuery>
x1247relevant_x1083L0AP1_x1305L0BP1_

> <ROCS_TanimotoCombo>
0.872 

> <ROCS_ShapeTanimoto>
0.516 

> <ROCS_ColorTanimoto>
0.355 

> <ROCS_RefTversky>
0.445 

> <ROCS_RefColorTversky>
0.423 

> <ROCS_RefTverskyCombo>
0.868 

> <ROCS_FitTversky>
1.449 

> <ROCS_FitColorTversky>
0.689 

> <ROCS_FitTverskyCombo>
2.138 

> <ROCS_ColorScore>
-9.050

> <ROCS_Overlap>
1313.432

> <ROCS_Rank>
27                  

$$$$
untitled-dbase-28062_0
  -OEChem-06162310163D

 34 36  0     1  0  0  0  0  0999 V2000
  -13.9042   16.1572  -37.5194 C   0  0  0  0  0  0  0  0  0  0  0  0
  -12.9593   16.9620  -38.4138 C   0  0  0  0  0  0  0  0  0  0  0  0
   -8.9056   14.8927  -36.0228 C   0  0  0  0  0  0  0  0  0  0  0  0
  -12.7020   13.8852  -37.4427 C   0  0  0  0  0  0  0  0  0  0  0  0
  -11.1419   15.2249  -38.9415 C   0  0  0  0  0  0  0  0  0  0  0  0
   -8.9510   13.9196  -37.1924 C   0  0  0  0  0  0  0  0  0  0  0  0
   -9.9122   16.0121  -36.2266 C   0  0  0  0  0  0  0  0  0  0  0  0
  -13.8339   14.7314  -38.0729 C   0  0  2  0  0  0  0  0  0  0  0  0
  -12.4250   15.9420  -39.4228 C   0  0  1  0  0  0  0  0  0  0  0  0
  -11.2879   14.5276  -37.5553 C   0  0  0  0  0  0  0  0  0  0  0  0
  -14.6023   15.2905  -40.3271 C   0  0  0  0  0  0  0  0  0  0  0  0
  -10.3132   13.4337  -37.3848 N   0  0  0  0  0  0  0  0  0  0  0  0
  -13.4696   14.9049  -39.4897 N   0  0  0  0  0  0  0  0  0  0  0  0
  -11.2115   15.4816  -36.4758 O   0  0  0  0  0  0  0  0  0  0  0  0
  -13.6357   16.2212  -36.4609 H   0  0  0  0  0  0  0  0  0  0  0  0
  -14.9213   16.5562  -37.6165 H   0  0  0  0  0  0  0  0  0  0  0  0
  -13.5281   17.7473  -38.9262 H   0  0  0  0  0  0  0  0  0  0  0  0
  -12.1668   17.4579  -37.8459 H   0  0  0  0  0  0  0  0  0  0  0  0
   -9.1502   14.3514  -35.1000 H   0  0  0  0  0  0  0  0  0  0  0  0
   -7.8974   15.3040  -35.9054 H   0  0  0  0  0  0  0  0  0  0  0  0
  -12.9447   13.7034  -36.3870 H   0  0  0  0  0  0  0  0  0  0  0  0
  -12.7099   12.9056  -37.9428 H   0  0  0  0  0  0  0  0  0  0  0  0
  -10.8813   14.4738  -39.7012 H   0  0  0  0  0  0  0  0  0  0  0  0
  -10.3230   15.9516  -38.9369 H   0  0  0  0  0  0  0  0  0  0  0  0
   -8.5761   14.3967  -38.1052 H   0  0  0  0  0  0  0  0  0  0  0  0
   -8.2934   13.0687  -36.9835 H   0  0  0  0  0  0  0  0  0  0  0  0
   -9.9730   16.6273  -35.3231 H   0  0  0  0  0  0  0  0  0  0  0  0
   -9.6135   16.6761  -37.0437 H   0  0  0  0  0  0  0  0  0  0  0  0
  -14.7828   14.1982  -37.9434 H   0  0  0  0  0  0  0  0  0  0  0  0
  -12.2244   16.4008  -40.3977 H   0  0  0  0  0  0  0  0  0  0  0  0
  -14.2672   15.4039  -41.3686 H   0  0  0  0  0  0  0  0  0  0  0  0
  -15.3786   14.5129  -40.2744 H   0  0  0  0  0  0  0  0  0  0  0  0
  -15.0148   16.2452  -39.9687 H   0  0  0  0  0  0  0  0  0  0  0  0
  -10.3434   12.8087  -38.1896 H   0  0  0  0  0  0  0  0  0  0  0  0
  1  2  1  0  0  0  0
  1  8  1  0  0  0  0
  2  9  1  0  0  0  0
  3  6  1  0  0  0  0
  3  7  1  0  0  0  0
  4  8  1  0  0  0  0
  4 10  1  0  0  0  0
  5  9  1  0  0  0  0
  5 10  1  0  0  0  0
  6 12  1  0  0  0  0
  7 14  1  0  0  0  0
  8 13  1  0  0  0  0
  9 13  1  0  0  0  0
 10 12  1  0  0  0  0
 10 14  1  0  0  0  0
 11 13  1  0  0  0  0
  1 15  1  0  0  0  0
  1 16  1  0  0  0  0
  2 17  1  0  0  0  0
  2 18  1  0  0  0  0
  3 19  1  0  0  0  0
  3 20  1  0  0  0  0
  4 21  1  0  0  0  0
  4 22  1  0  0  0  0
  5 23  1  0  0  0  0
  5 24  1  0  0  0  0
  6 25  1  0  0  0  0
  6 26  1  0  0  0  0
  7 27  1  0  0  0  0
  7 28  1  0  0  0  0
  8 29  1  0  0  0  0
  9 30  1  0  0  0  0
 11 31  1  0  0  0  0
 11 32  1  0  0  0  0
 11 33  1  0  0  0  0
 12 34  1  0  0  0  0
M  END
> <id>
EN300-1278438

> <smiles>
CN1C2CCC1CC3(C2)NCCCO3

> <IUPAC Name>
8-methyl-8-azaspiro[bicyclo[3.2.1]octane-3,2'-[1,3]oxazinane]

> <CAS>
2172127-96-5

> <URL>
https://www.enaminestore.com/catalog/EN300-1278438

> <ROCS_ShapeQuery>
x1247relevant_x1083L0AP1_x1305L0BP1_

> <ROCS_TanimotoCombo>
0.871 

> <ROCS_ShapeTanimoto>
0.526 

> <ROCS_ColorTanimoto>
0.346 

> <ROCS_RefTversky>
0.432 

> <ROCS_RefColorTversky>
0.394 

> <ROCS_RefTverskyCombo>
0.826 

> <ROCS_FitTversky>
1.696 

> <ROCS_FitColorTversky>
0.739 

> <ROCS_FitTverskyCombo>
2.435 

> <ROCS_ColorScore>
-8.384

> <ROCS_Overlap>
1272.278

> <ROCS_Rank>
28                  

$$$$
untitled-dbase-29795_73
  -OEChem-06162310163D

 40 41  0     1  0  0  0  0  0999 V2000
   -9.6417   14.7940  -37.1394 C   0  0  0  0  0  0  0  0  0  0  0  0
  -13.7189   15.5075  -37.2620 C   0  0  0  0  0  0  0  0  0  0  0  0
  -13.6281   14.1459  -37.9671 C   0  0  0  0  0  0  0  0  0  0  0  0
  -11.4321   16.4603  -37.7286 C   0  0  0  0  0  0  0  0  0  0  0  0
  -11.2857   14.2200  -38.8930 C   0  0  0  0  0  0  0  0  0  0  0  0
  -12.9096   16.4743  -38.1533 C   0  0  1  0  0  0  0  0  0  0  0  0
  -12.7739   14.4044  -39.2274 C   0  0  2  0  0  0  0  0  0  0  0  0
  -13.0953   15.8707  -39.5540 C   0  0  0  0  0  0  0  0  0  0  0  0
  -12.2682   16.4996  -40.6700 C   0  0  0  0  0  0  0  0  0  0  0  0
  -10.2618   14.2133  -34.6580 C   0  0  0  0  0  0  0  0  0  0  0  0
  -10.1990   11.7756  -35.2604 C   0  0  0  0  0  0  0  0  0  0  0  0
   -8.0543   13.0606  -35.0222 C   0  0  0  0  0  0  0  0  0  0  0  0
   -9.5213   13.1319  -35.4434 C   0  0  0  0  0  0  0  0  0  0  0  0
  -10.8039   15.1321  -37.8459 N   0  0  0  0  0  0  0  0  0  0  0  0
   -8.7699   15.5991  -36.8170 O   0  0  0  0  0  0  0  0  0  0  0  0
  -14.4685   15.9693  -39.9483 O   0  0  0  0  0  0  0  0  0  0  0  0
   -9.5804   13.4593  -36.8363 O   0  0  0  0  0  0  0  0  0  0  0  0
  -14.7673   15.8242  -37.2087 H   0  0  0  0  0  0  0  0  0  0  0  0
  -13.3408   15.4616  -36.2356 H   0  0  0  0  0  0  0  0  0  0  0  0
  -13.2000   13.3764  -37.3162 H   0  0  0  0  0  0  0  0  0  0  0  0
  -14.6334   13.8117  -38.2499 H   0  0  0  0  0  0  0  0  0  0  0  0
  -10.8418   17.1520  -38.3399 H   0  0  0  0  0  0  0  0  0  0  0  0
  -11.3462   16.8079  -36.6926 H   0  0  0  0  0  0  0  0  0  0  0  0
  -11.0971   13.1871  -38.5766 H   0  0  0  0  0  0  0  0  0  0  0  0
  -10.6637   14.3892  -39.7796 H   0  0  0  0  0  0  0  0  0  0  0  0
  -13.3189   17.4875  -38.0776 H   0  0  0  0  0  0  0  0  0  0  0  0
  -13.0717   13.7216  -40.0303 H   0  0  0  0  0  0  0  0  0  0  0  0
  -12.4764   15.9981  -41.6146 H   0  0  0  0  0  0  0  0  0  0  0  0
  -11.2065   16.4044  -40.4443 H   0  0  0  0  0  0  0  0  0  0  0  0
  -12.5171   17.5560  -40.7667 H   0  0  0  0  0  0  0  0  0  0  0  0
   -9.7785   15.1884  -34.7867 H   0  0  0  0  0  0  0  0  0  0  0  0
  -11.3063   14.2984  -34.9751 H   0  0  0  0  0  0  0  0  0  0  0  0
  -10.2428   13.9983  -33.5834 H   0  0  0  0  0  0  0  0  0  0  0  0
   -9.6710   10.9967  -35.8223 H   0  0  0  0  0  0  0  0  0  0  0  0
  -11.2236   11.7957  -35.6491 H   0  0  0  0  0  0  0  0  0  0  0  0
  -10.2336   11.4801  -34.2069 H   0  0  0  0  0  0  0  0  0  0  0  0
   -7.5229   12.2850  -35.5854 H   0  0  0  0  0  0  0  0  0  0  0  0
   -7.5422   14.0152  -35.1811 H   0  0  0  0  0  0  0  0  0  0  0  0
   -7.9655   12.7899  -33.9638 H   0  0  0  0  0  0  0  0  0  0  0  0
  -14.6817   16.9134  -39.9478 H   0  0  0  0  0  0  0  0  0  0  0  0
  1 14  1  0  0  0  0
  1 15  2  0  0  0  0
  1 17  1  0  0  0  0
  2  3  1  0  0  0  0
  2  6  1  0  0  0  0
  3  7  1  0  0  0  0
  4  6  1  0  0  0  0
  4 14  1  0  0  0  0
  5  7  1  0  0  0  0
  5 14  1  0  0  0  0
  6  8  1  0  0  0  0
  7  8  1  0  0  0  0
  8  9  1  0  0  0  0
  8 16  1  0  0  0  0
 10 13  1  0  0  0  0
 11 13  1  0  0  0  0
 12 13  1  0  0  0  0
 13 17  1  0  0  0  0
  2 18  1  0  0  0  0
  2 19  1  0  0  0  0
  3 20  1  0  0  0  0
  3 21  1  0  0  0  0
  4 22  1  0  0  0  0
  4 23  1  0  0  0  0
  5 24  1  0  0  0  0
  5 25  1  0  0  0  0
  6 26  1  0  0  0  0
  7 27  1  0  0  0  0
  9 28  1  0  0  0  0
  9 29  1  0  0  0  0
  9 30  1  0  0  0  0
 10 31  1  0  0  0  0
 10 32  1  0  0  0  0
 10 33  1  0  0  0  0
 11 34  1  0  0  0  0
 11 35  1  0  0  0  0
 11 36  1  0  0  0  0
 12 37  1  0  0  0  0
 12 38  1  0  0  0  0
 12 39  1  0  0  0  0
 16 40  1  0  0  0  0
M  END
> <id>
EN300-7068257

> <smiles>
CC(C)(C)OC(=O)N1CC2CCC(C1)C2(C)O

> <IUPAC Name>
tert-butyl 8-hydroxy-8-methyl-3-azabicyclo[3.2.1]octane-3-carboxylate

> <CAS>
2757917-12-5

> <URL>
https://www.enaminestore.com/catalog/EN300-7068257

> <ROCS_ShapeQuery>
x1247relevant_x1083L0AP1_x1305L0BP1_

> <ROCS_TanimotoCombo>
0.871 

> <ROCS_ShapeTanimoto>
0.501 

> <ROCS_ColorTanimoto>
0.369 

> <ROCS_RefTversky>
0.432 

> <ROCS_RefColorTversky>
0.402 

> <ROCS_RefTverskyCombo>
0.834 

> <ROCS_FitTversky>
1.470 

> <ROCS_FitColorTversky>
0.821 

> <ROCS_FitTverskyCombo>
2.291 

> <ROCS_ColorScore>
-8.539

> <ROCS_Overlap>
1274.102

> <ROCS_Rank>
29                  

$$$$
untitled-dbase-35839_0
  -OEChem-06162310163D

 38 41  0     1  0  0  0  0  0999 V2000
  -12.9604   16.9630  -38.4028 C   0  0  0  0  0  0  0  0  0  0  0  0
  -13.9129   16.1510  -37.5231 C   0  0  0  0  0  0  0  0  0  0  0  0
   -7.5830   15.2395  -35.4529 C   0  0  0  0  0  0  0  0  0  0  0  0
   -8.5722   14.4027  -34.6936 C   0  0  0  0  0  0  0  0  0  0  0  0
  -11.1386   15.2300  -38.9265 C   0  0  0  0  0  0  0  0  0  0  0  0
  -12.7120   13.8792  -37.4548 C   0  0  0  0  0  0  0  0  0  0  0  0
   -8.9504   13.9313  -37.2176 C   0  0  0  0  0  0  0  0  0  0  0  0
   -9.9318   16.0119  -36.2049 C   0  0  0  0  0  0  0  0  0  0  0  0
  -12.4169   15.9508  -39.4150 C   0  0  1  0  0  0  0  0  0  0  0  0
  -13.8383   14.7300  -38.0879 C   0  0  2  0  0  0  0  0  0  0  0  0
   -8.9186   14.9100  -36.0755 C   0  0  0  0  0  0  0  0  0  0  0  0
  -11.2968   14.5234  -37.5479 C   0  0  0  0  0  0  0  0  0  0  0  0
  -14.5863   15.3084  -40.3442 C   0  0  0  0  0  0  0  0  0  0  0  0
  -10.3147   13.4306  -37.3842 N   0  0  0  0  0  0  0  0  0  0  0  0
  -13.4613   14.9150  -39.5000 N   0  0  0  0  0  0  0  0  0  0  0  0
  -11.2276   15.4642  -36.4558 O   0  0  0  0  0  0  0  0  0  0  0  0
  -13.5247   17.7522  -38.9141 H   0  0  0  0  0  0  0  0  0  0  0  0
  -12.1730   17.4545  -37.8241 H   0  0  0  0  0  0  0  0  0  0  0  0
  -13.6530   16.2059  -36.4619 H   0  0  0  0  0  0  0  0  0  0  0  0
  -14.9290   16.5514  -37.6252 H   0  0  0  0  0  0  0  0  0  0  0  0
   -7.4092   16.2513  -35.1062 H   0  0  0  0  0  0  0  0  0  0  0  0
   -6.6975   14.7469  -35.8367 H   0  0  0  0  0  0  0  0  0  0  0  0
   -8.3481   13.3501  -34.5675 H   0  0  0  0  0  0  0  0  0  0  0  0
   -9.0601   14.8532  -33.8375 H   0  0  0  0  0  0  0  0  0  0  0  0
  -10.8713   14.4848  -39.6898 H   0  0  0  0  0  0  0  0  0  0  0  0
  -10.3206   15.9576  -38.9100 H   0  0  0  0  0  0  0  0  0  0  0  0
  -12.9638   13.6879  -36.4030 H   0  0  0  0  0  0  0  0  0  0  0  0
  -12.7137   12.9041  -37.9635 H   0  0  0  0  0  0  0  0  0  0  0  0
   -8.5920   14.4091  -38.1368 H   0  0  0  0  0  0  0  0  0  0  0  0
   -8.2872   13.0800  -37.0257 H   0  0  0  0  0  0  0  0  0  0  0  0
  -10.0036   16.6033  -35.2856 H   0  0  0  0  0  0  0  0  0  0  0  0
   -9.6569   16.7065  -37.0051 H   0  0  0  0  0  0  0  0  0  0  0  0
  -12.2068   16.4175  -40.3843 H   0  0  0  0  0  0  0  0  0  0  0  0
  -14.7884   14.1960  -37.9712 H   0  0  0  0  0  0  0  0  0  0  0  0
  -15.3290   14.4973  -40.3676 H   0  0  0  0  0  0  0  0  0  0  0  0
  -15.0501   16.2185  -39.9361 H   0  0  0  0  0  0  0  0  0  0  0  0
  -14.2271   15.5060  -41.3649 H   0  0  0  0  0  0  0  0  0  0  0  0
  -10.3518   12.8050  -38.1884 H   0  0  0  0  0  0  0  0  0  0  0  0
  1  2  1  0  0  0  0
  1  9  1  0  0  0  0
  2 10  1  0  0  0  0
  3  4  1  0  0  0  0
  3 11  1  0  0  0  0
  4 11  1  0  0  0  0
  5  9  1  0  0  0  0
  5 12  1  0  0  0  0
  6 10  1  0  0  0  0
  6 12  1  0  0  0  0
  7 11  1  0  0  0  0
  7 14  1  0  0  0  0
  8 11  1  0  0  0  0
  8 16  1  0  0  0  0
  9 15  1  0  0  0  0
 10 15  1  0  0  0  0
 12 14  1  0  0  0  0
 12 16  1  0  0  0  0
 13 15  1  0  0  0  0
  1 17  1  0  0  0  0
  1 18  1  0  0  0  0
  2 19  1  0  0  0  0
  2 20  1  0  0  0  0
  3 21  1  0  0  0  0
  3 22  1  0  0  0  0
  4 23  1  0  0  0  0
  4 24  1  0  0  0  0
  5 25  1  0  0  0  0
  5 26  1  0  0  0  0
  6 27  1  0  0  0  0
  6 28  1  0  0  0  0
  7 29  1  0  0  0  0
  7 30  1  0  0  0  0
  8 31  1  0  0  0  0
  8 32  1  0  0  0  0
  9 33  1  0  0  0  0
 10 34  1  0  0  0  0
 13 35  1  0  0  0  0
 13 36  1  0  0  0  0
 13 37  1  0  0  0  0
 14 38  1  0  0  0  0
M  END
> <id>
EN300-1278824

> <smiles>
CN1C2CCC1CC3(C2)NCC4(CC4)CO3

> <IUPAC Name>
8-methyldispiro[8-azabicyclo[3.2.1]octane-3,2'-[1,3]oxazinane-5',1''-cyclopropane]

> <URL>
https://www.enaminestore.com/catalog/EN300-1278824

> <ROCS_ShapeQuery>
x1247relevant_x1083L0AP1_x1305L0BP1_

> <ROCS_TanimotoCombo>
0.869 

> <ROCS_ShapeTanimoto>
0.523 

> <ROCS_ColorTanimoto>
0.346 

> <ROCS_RefTversky>
0.442 

> <ROCS_RefColorTversky>
0.394 

> <ROCS_RefTverskyCombo>
0.835 

> <ROCS_FitTversky>
1.543 

> <ROCS_FitColorTversky>
0.740 

> <ROCS_FitTverskyCombo>
2.283 

> <ROCS_ColorScore>
-8.387

> <ROCS_Overlap>
1301.607

> <ROCS_Rank>
30                  

$$$$
untitled-dbase-16647_0
  -OEChem-06162310163D

 39 42  0     1  0  0  0  0  0999 V2000
   -7.9550   14.7217  -33.9361 C   0  0  0  0  0  0  0  0  0  0  0  0
  -13.8327   16.1388  -37.3397 C   0  0  0  0  0  0  0  0  0  0  0  0
  -12.8362   17.0336  -38.1149 C   0  0  0  0  0  0  0  0  0  0  0  0
   -9.0453   13.8186  -34.5429 C   0  0  0  0  0  0  0  0  0  0  0  0
   -7.5106   15.0613  -35.3715 C   0  0  0  0  0  0  0  0  0  0  0  0
  -12.6858   13.8469  -37.4949 C   0  0  0  0  0  0  0  0  0  0  0  0
  -11.0307   15.3464  -38.8018 C   0  0  0  0  0  0  0  0  0  0  0  0
   -8.9388   13.8320  -37.1466 C   0  0  0  0  0  0  0  0  0  0  0  0
   -9.9180   15.8121  -35.9694 C   0  0  0  0  0  0  0  0  0  0  0  0
  -13.8380   14.7449  -37.9921 C   0  0  2  0  0  0  0  0  0  0  0  0
  -12.2297   16.2026  -39.2596 C   0  0  1  0  0  0  0  0  0  0  0  0
   -8.9318   14.6513  -35.8590 C   0  0  0  0  0  0  0  0  0  0  0  0
  -11.2643   14.4987  -37.5097 C   0  0  0  0  0  0  0  0  0  0  0  0
  -10.2983   13.3780  -37.4426 N   0  0  0  0  0  0  0  0  0  0  0  0
  -13.0792   13.9550  -40.4288 O   0  0  0  0  0  0  0  0  0  0  0  0
  -14.6800   15.9019  -40.2225 O   0  0  0  0  0  0  0  0  0  0  0  0
  -11.2108   15.3150  -36.3198 O   0  0  0  0  0  0  0  0  0  0  0  0
  -13.5721   15.1158  -39.7202 S   0  0  0  0  0  0  0  0  0  0  0  0
   -8.3493   15.5797  -33.3803 H   0  0  0  0  0  0  0  0  0  0  0  0
   -7.2103   14.2143  -33.3175 H   0  0  0  0  0  0  0  0  0  0  0  0
  -13.6103   16.0990  -36.2690 H   0  0  0  0  0  0  0  0  0  0  0  0
  -14.8330   16.5825  -37.4268 H   0  0  0  0  0  0  0  0  0  0  0  0
  -13.3915   17.8809  -38.5372 H   0  0  0  0  0  0  0  0  0  0  0  0
  -12.0717   17.4658  -37.4621 H   0  0  0  0  0  0  0  0  0  0  0  0
   -8.7314   12.7721  -34.6381 H   0  0  0  0  0  0  0  0  0  0  0  0
  -10.0124   13.8446  -34.0328 H   0  0  0  0  0  0  0  0  0  0  0  0
   -7.2218   16.1029  -35.5383 H   0  0  0  0  0  0  0  0  0  0  0  0
   -6.7029   14.4145  -35.7353 H   0  0  0  0  0  0  0  0  0  0  0  0
  -12.9220   13.5334  -36.4686 H   0  0  0  0  0  0  0  0  0  0  0  0
  -12.6844   12.9330  -38.1041 H   0  0  0  0  0  0  0  0  0  0  0  0
  -10.7568   14.6799  -39.6305 H   0  0  0  0  0  0  0  0  0  0  0  0
  -10.1790   16.0217  -38.6710 H   0  0  0  0  0  0  0  0  0  0  0  0
   -8.5370   14.4181  -37.9816 H   0  0  0  0  0  0  0  0  0  0  0  0
   -8.2930   12.9516  -37.0483 H   0  0  0  0  0  0  0  0  0  0  0  0
  -10.0237   16.3442  -35.0181 H   0  0  0  0  0  0  0  0  0  0  0  0
   -9.5885   16.5528  -36.7049 H   0  0  0  0  0  0  0  0  0  0  0  0
  -14.8027   14.2421  -37.8823 H   0  0  0  0  0  0  0  0  0  0  0  0
  -11.9640   16.8201  -40.1219 H   0  0  0  0  0  0  0  0  0  0  0  0
  -10.3027   12.8597  -38.3205 H   0  0  0  0  0  0  0  0  0  0  0  0
  1  4  1  0  0  0  0
  1  5  1  0  0  0  0
  2  3  1  0  0  0  0
  2 10  1  0  0  0  0
  3 11  1  0  0  0  0
  4 12  1  0  0  0  0
  5 12  1  0  0  0  0
  6 10  1  0  0  0  0
  6 13  1  0  0  0  0
  7 11  1  0  0  0  0
  7 13  1  0  0  0  0
  8 12  1  0  0  0  0
  8 14  1  0  0  0  0
  9 12  1  0  0  0  0
  9 17  1  0  0  0  0
 10 18  1  0  0  0  0
 11 18  1  0  0  0  0
 13 14  1  0  0  0  0
 13 17  1  0  0  0  0
 15 18  2  0  0  0  0
 16 18  2  0  0  0  0
  1 19  1  0  0  0  0
  1 20  1  0  0  0  0
  2 21  1  0  0  0  0
  2 22  1  0  0  0  0
  3 23  1  0  0  0  0
  3 24  1  0  0  0  0
  4 25  1  0  0  0  0
  4 26  1  0  0  0  0
  5 27  1  0  0  0  0
  5 28  1  0  0  0  0
  6 29  1  0  0  0  0
  6 30  1  0  0  0  0
  7 31  1  0  0  0  0
  7 32  1  0  0  0  0
  8 33  1  0  0  0  0
  8 34  1  0  0  0  0
  9 35  1  0  0  0  0
  9 36  1  0  0  0  0
 10 37  1  0  0  0  0
 11 38  1  0  0  0  0
 14 39  1  0  0  0  0
M  END
> <id>
EN300-1278908

> <smiles>
O=S1(=O)C2CCC1CC3(C2)NCC4(CCC4)CO3

> <IUPAC Name>
8lambda6-dispiro[8lambda6-thiabicyclo[3.2.1]octane-3,2'-[1,3]oxazinane-5',1''-cyclobutane]-8,8-dione

> <CAS>
2172513-36-7

> <URL>
https://www.enaminestore.com/catalog/EN300-1278908

> <ROCS_ShapeQuery>
x1247relevant_x1083L0AP1_x1305L0BP1_

> <ROCS_TanimotoCombo>
0.868 

> <ROCS_ShapeTanimoto>
0.512 

> <ROCS_ColorTanimoto>
0.357 

> <ROCS_RefTversky>
0.442 

> <ROCS_RefColorTversky>
0.424 

> <ROCS_RefTverskyCombo>
0.867 

> <ROCS_FitTversky>
1.440 

> <ROCS_FitColorTversky>
0.691 

> <ROCS_FitTverskyCombo>
2.131 

> <ROCS_ColorScore>
-9.075

> <ROCS_Overlap>
1305.643

> <ROCS_Rank>
31                  

$$$$
untitled-dbase-17913_0
  -OEChem-06162310163D

 32 34  0     1  0  0  0  0  0999 V2000
  -14.0835   15.5255  -37.3654 C   0  0  0  0  0  0  0  0  0  0  0  0
  -12.4040   17.0331  -38.4733 C   0  0  0  0  0  0  0  0  0  0  0  0
  -11.6638   15.3983  -36.7230 C   0  0  0  0  0  0  0  0  0  0  0  0
  -12.7300   13.5277  -38.0166 C   0  0  0  0  0  0  0  0  0  0  0  0
  -11.0418   15.0420  -39.1305 C   0  0  0  0  0  0  0  0  0  0  0  0
  -12.7981   16.3443  -37.1554 C   0  0  0  0  0  0  0  0  0  0  0  0
  -13.8659   14.4678  -38.4717 C   0  0  2  0  0  0  0  0  0  0  0  0
  -12.1836   15.9772  -39.5803 C   0  0  1  0  0  0  0  0  0  0  0  0
  -11.4250   14.3300  -37.8136 C   0  0  0  0  0  0  0  0  0  0  0  0
  -13.4934   15.1739  -39.8026 C   0  0  0  0  0  0  0  0  0  0  0  0
  -13.3942   14.1934  -40.9784 C   0  0  0  0  0  0  0  0  0  0  0  0
  -10.3534   13.4300  -37.3902 N   0  0  0  0  0  0  0  0  0  0  0  0
  -14.5529   16.0792  -40.1434 O   0  0  0  0  0  0  0  0  0  0  0  0
  -14.5709   13.5790  -41.1562 F   0  0  0  0  0  0  0  0  0  0  0  0
  -13.0711   14.8573  -42.0957 F   0  0  0  0  0  0  0  0  0  0  0  0
  -12.4527   13.2754  -40.7241 F   0  0  0  0  0  0  0  0  0  0  0  0
  -14.3668   15.0296  -36.4285 H   0  0  0  0  0  0  0  0  0  0  0  0
  -14.9144   16.1915  -37.6268 H   0  0  0  0  0  0  0  0  0  0  0  0
  -13.1815   17.7465  -38.7710 H   0  0  0  0  0  0  0  0  0  0  0  0
  -11.4862   17.6169  -38.3285 H   0  0  0  0  0  0  0  0  0  0  0  0
  -10.7489   15.9789  -36.5446 H   0  0  0  0  0  0  0  0  0  0  0  0
  -11.9252   14.9223  -35.7687 H   0  0  0  0  0  0  0  0  0  0  0  0
  -13.0213   13.0347  -37.0789 H   0  0  0  0  0  0  0  0  0  0  0  0
  -12.5832   12.7232  -38.7468 H   0  0  0  0  0  0  0  0  0  0  0  0
  -10.8136   14.3119  -39.9158 H   0  0  0  0  0  0  0  0  0  0  0  0
  -10.1252   15.6311  -38.9902 H   0  0  0  0  0  0  0  0  0  0  0  0
  -12.9635   17.0991  -36.3786 H   0  0  0  0  0  0  0  0  0  0  0  0
  -14.7967   13.9008  -38.5939 H   0  0  0  0  0  0  0  0  0  0  0  0
  -11.8997   16.4986  -40.5025 H   0  0  0  0  0  0  0  0  0  0  0  0
   -9.5320   13.9695  -37.2553 H   0  0  0  0  0  0  0  0  0  0  0  0
  -10.6322   12.9955  -36.5431 H   0  0  0  0  0  0  0  0  0  0  0  0
  -15.3479   15.5365  -40.2367 H   0  0  0  0  0  0  0  0  0  0  0  0
  1  6  1  0  0  0  0
  1  7  1  0  0  0  0
  2  6  1  0  0  0  0
  2  8  1  0  0  0  0
  3  6  1  0  0  0  0
  3  9  1  0  0  0  0
  4  7  1  0  0  0  0
  4  9  1  0  0  0  0
  5  8  1  0  0  0  0
  5  9  1  0  0  0  0
  7 10  1  0  0  0  0
  8 10  1  0  0  0  0
  9 12  1  0  0  0  0
 10 11  1  0  0  0  0
 10 13  1  0  0  0  0
 11 14  1  0  0  0  0
 11 15  1  0  0  0  0
 11 16  1  0  0  0  0
  1 17  1  0  0  0  0
  1 18  1  0  0  0  0
  2 19  1  0  0  0  0
  2 20  1  0  0  0  0
  3 21  1  0  0  0  0
  3 22  1  0  0  0  0
  4 23  1  0  0  0  0
  4 24  1  0  0  0  0
  5 25  1  0  0  0  0
  5 26  1  0  0  0  0
  6 27  1  0  0  0  0
  7 28  1  0  0  0  0
  8 29  1  0  0  0  0
 12 30  1  0  0  0  0
 12 31  1  0  0  0  0
 13 32  1  0  0  0  0
M  END
> <id>
EN300-89655

> <smiles>
NC1(CC2CC3C1)CC(C2)C3(O)C(F)(F)F

> <IUPAC Name>
5-amino-2-(trifluoromethyl)adamantan-2-ol

> <CAS>
1251924-11-4

> <URL>
https://www.enaminestore.com/catalog/EN300-89655

> <ROCS_ShapeQuery>
x1247relevant_x1083L0AP1_x1305L0BP1_

> <ROCS_TanimotoCombo>
0.868 

> <ROCS_ShapeTanimoto>
0.456 

> <ROCS_ColorTanimoto>
0.413 

> <ROCS_RefTversky>
0.404 

> <ROCS_RefColorTversky>
0.443 

> <ROCS_RefTverskyCombo>
0.847 

> <ROCS_FitTversky>
1.387 

> <ROCS_FitColorTversky>
0.856 

> <ROCS_FitTverskyCombo>
2.243 

> <ROCS_ColorScore>
-9.433

> <ROCS_Overlap>
1191.547

> <ROCS_Rank>
32                  

$$$$
untitled-dbase-43728_56
  -OEChem-06162310163D

 43 46  0     1  0  0  0  0  0999 V2000
  -10.1205   14.9784  -36.3944 C   0  0  0  0  0  0  0  0  0  0  0  0
  -13.1186   16.4939  -39.9995 C   0  0  0  0  0  0  0  0  0  0  0  0
  -12.9543   13.4150  -37.9403 C   0  0  0  0  0  0  0  0  0  0  0  0
  -12.8681   16.6170  -38.4972 C   0  0  1  0  0  0  0  0  0  0  0  0
  -12.7286   15.0095  -40.0254 C   0  0  2  0  0  0  0  0  0  0  0  0
  -13.6375   14.4048  -38.9015 C   0  0  2  0  0  0  0  0  0  0  0  0
  -13.9376   15.6387  -37.9906 C   0  0  1  0  0  0  0  0  0  0  0  0
  -12.4867   14.2938  -36.7550 C   0  0  2  0  0  0  0  0  0  0  0  0
  -11.4326   15.9960  -38.3042 C   0  0  2  0  0  0  0  0  0  0  0  0
  -11.2708   15.1069  -39.5553 C   0  0  2  0  0  0  0  0  0  0  0  0
  -13.6793   15.2156  -36.5570 C   0  0  2  0  0  0  0  0  0  0  0  0
   -8.8417   12.8638  -37.2764 C   0  0  0  0  0  0  0  0  0  0  0  0
   -7.4197   14.3722  -38.6948 C   0  0  0  0  0  0  0  0  0  0  0  0
   -7.0428   14.2673  -36.2139 C   0  0  0  0  0  0  0  0  0  0  0  0
   -8.0822   14.1885  -37.3311 C   0  0  0  0  0  0  0  0  0  0  0  0
  -11.3176   15.1307  -37.1035 N   0  0  0  0  0  0  0  0  0  0  0  0
  -10.0505   14.6276  -35.2181 O   0  0  0  0  0  0  0  0  0  0  0  0
  -10.4645   15.7468  -40.5385 O   0  0  0  0  0  0  0  0  0  0  0  0
  -14.8020   14.5098  -36.0487 O   0  0  0  0  0  0  0  0  0  0  0  0
   -9.0187   15.2581  -37.1589 O   0  0  0  0  0  0  0  0  0  0  0  0
  -14.1609   16.6679  -40.2886 H   0  0  0  0  0  0  0  0  0  0  0  0
  -12.4736   17.1441  -40.5985 H   0  0  0  0  0  0  0  0  0  0  0  0
  -13.7023   12.6970  -37.5792 H   0  0  0  0  0  0  0  0  0  0  0  0
  -12.1565   12.8193  -38.3909 H   0  0  0  0  0  0  0  0  0  0  0  0
  -12.9703   17.6222  -38.0822 H   0  0  0  0  0  0  0  0  0  0  0  0
  -12.8452   14.5398  -41.0046 H   0  0  0  0  0  0  0  0  0  0  0  0
  -14.5579   13.9900  -39.3258 H   0  0  0  0  0  0  0  0  0  0  0  0
  -14.9565   16.0111  -38.1472 H   0  0  0  0  0  0  0  0  0  0  0  0
  -12.2858   13.6728  -35.8770 H   0  0  0  0  0  0  0  0  0  0  0  0
  -10.6817   16.7925  -38.2874 H   0  0  0  0  0  0  0  0  0  0  0  0
  -10.8063   14.1369  -39.3605 H   0  0  0  0  0  0  0  0  0  0  0  0
  -13.4738   16.0606  -35.8914 H   0  0  0  0  0  0  0  0  0  0  0  0
   -9.3186   12.7282  -36.2991 H   0  0  0  0  0  0  0  0  0  0  0  0
   -9.6138   12.8092  -38.0507 H   0  0  0  0  0  0  0  0  0  0  0  0
   -8.1594   12.0161  -37.4076 H   0  0  0  0  0  0  0  0  0  0  0  0
   -6.8736   15.3214  -38.7386 H   0  0  0  0  0  0  0  0  0  0  0  0
   -8.1712   14.4114  -39.4917 H   0  0  0  0  0  0  0  0  0  0  0  0
   -6.7207   13.5595  -38.9172 H   0  0  0  0  0  0  0  0  0  0  0  0
   -6.4979   15.2174  -36.2530 H   0  0  0  0  0  0  0  0  0  0  0  0
   -7.5050   14.1744  -35.2258 H   0  0  0  0  0  0  0  0  0  0  0  0
   -6.2925   13.4758  -36.3232 H   0  0  0  0  0  0  0  0  0  0  0  0
  -10.5230   15.2052  -41.3414 H   0  0  0  0  0  0  0  0  0  0  0  0
  -14.5881   14.2624  -35.1343 H   0  0  0  0  0  0  0  0  0  0  0  0
  1 16  1  0  0  0  0
  1 17  2  0  0  0  0
  1 20  1  0  0  0  0
  2  4  1  0  0  0  0
  2  5  1  0  0  0  0
  3  6  1  0  0  0  0
  3  8  1  0  0  0  0
  4  7  1  0  0  0  0
  4  9  1  0  0  0  0
  5  6  1  0  0  0  0
  5 10  1  0  0  0  0
  6  7  1  0  0  0  0
  7 11  1  0  0  0  0
  8 11  1  0  0  0  0
  8 16  1  0  0  0  0
  9 10  1  0  0  0  0
  9 16  1  0  0  0  0
 10 18  1  0  0  0  0
 11 19  1  0  0  0  0
 12 15  1  0  0  0  0
 13 15  1  0  0  0  0
 14 15  1  0  0  0  0
 15 20  1  0  0  0  0
  2 21  1  0  0  0  0
  2 22  1  0  0  0  0
  3 23  1  0  0  0  0
  3 24  1  0  0  0  0
  4 25  1  0  0  0  0
  5 26  1  0  0  0  0
  6 27  1  0  0  0  0
  7 28  1  0  0  0  0
  8 29  1  0  0  0  0
  9 30  1  0  0  0  0
 10 31  1  0  0  0  0
 11 32  1  0  0  0  0
 12 33  1  0  0  0  0
 12 34  1  0  0  0  0
 12 35  1  0  0  0  0
 13 36  1  0  0  0  0
 13 37  1  0  0  0  0
 13 38  1  0  0  0  0
 14 39  1  0  0  0  0
 14 40  1  0  0  0  0
 14 41  1  0  0  0  0
 18 42  1  0  0  0  0
 19 43  1  0  0  0  0
M  END
> <id>
EN300-28229091

> <smiles>
CC(C)(C)OC(=O)N1C2CC3C4CC(C3C2O)C1C4O

> <IUPAC Name>
tert-butyl 5,11-dihydroxy-7-azatetracyclo[6.2.1.0^{2,6}.0^{4,10}]undecane-7-carboxylate

> <CAS>
2639452-29-0

> <URL>
https://www.enaminestore.com/catalog/EN300-28229091

> <ROCS_ShapeQuery>
x1247relevant_x1083L0AP1_x1305L0BP1_

> <ROCS_TanimotoCombo>
0.868 

> <ROCS_ShapeTanimoto>
0.554 

> <ROCS_ColorTanimoto>
0.314 

> <ROCS_RefTversky>
0.482 

> <ROCS_RefColorTversky>
0.503 

> <ROCS_RefTverskyCombo>
0.985 

> <ROCS_FitTversky>
1.373 

> <ROCS_FitColorTversky>
0.454 

> <ROCS_FitTverskyCombo>
1.827 

> <ROCS_ColorScore>
-11.065

> <ROCS_Overlap>
1425.077

> <ROCS_Rank>
33                  

$$$$
untitled-dbase-2414_59
  -OEChem-06162310163D

 37 38  0     1  0  0  0  0  0999 V2000
   -9.9030   14.7886  -37.3178 C   0  0  0  0  0  0  0  0  0  0  0  0
  -13.4561   14.3775  -37.8291 C   0  0  0  0  0  0  0  0  0  0  0  0
  -12.2273   15.0027  -39.7738 C   0  0  0  0  0  0  0  0  0  0  0  0
  -12.0573   16.1015  -37.0271 C   0  0  0  0  0  0  0  0  0  0  0  0
  -13.3570   15.9152  -37.8280 C   0  0  1  0  0  0  0  0  0  0  0  0
  -12.0752   14.2074  -38.4607 C   0  0  1  0  0  0  0  0  0  0  0  0
  -13.1319   16.1879  -39.3434 C   0  0  1  0  0  0  0  0  0  0  0  0
   -9.6161   13.6473  -34.9780 C   0  0  0  0  0  0  0  0  0  0  0  0
   -9.4663   11.4214  -36.1323 C   0  0  0  0  0  0  0  0  0  0  0  0
   -7.5260   13.0133  -36.2286 C   0  0  0  0  0  0  0  0  0  0  0  0
  -12.5398   17.5483  -39.6870 C   0  0  0  0  0  0  0  0  0  0  0  0
   -9.0481   12.8895  -36.1772 C   0  0  0  0  0  0  0  0  0  0  0  0
  -11.2418   15.0124  -37.5607 N   0  0  0  0  0  0  0  0  0  0  0  0
   -9.0854   15.6743  -37.0806 O   0  0  0  0  0  0  0  0  0  0  0  0
  -14.3845   16.0752  -40.0240 O   0  0  0  0  0  0  0  0  0  0  0  0
   -9.5923   13.4567  -37.3740 O   0  0  0  0  0  0  0  0  0  0  0  0
  -12.3537   17.6520  -41.0131 F   0  0  0  0  0  0  0  0  0  0  0  0
  -13.3677   18.5285  -39.2898 F   0  0  0  0  0  0  0  0  0  0  0  0
  -11.3564   17.7079  -39.0720 F   0  0  0  0  0  0  0  0  0  0  0  0
  -13.5243   13.9493  -36.8230 H   0  0  0  0  0  0  0  0  0  0  0  0
  -14.2712   13.9861  -38.4463 H   0  0  0  0  0  0  0  0  0  0  0  0
  -11.2514   15.3219  -40.1559 H   0  0  0  0  0  0  0  0  0  0  0  0
  -12.7127   14.3857  -40.5389 H   0  0  0  0  0  0  0  0  0  0  0  0
  -11.5635   17.0665  -37.1608 H   0  0  0  0  0  0  0  0  0  0  0  0
  -12.2051   15.9219  -35.9565 H   0  0  0  0  0  0  0  0  0  0  0  0
  -14.2310   16.4121  -37.4010 H   0  0  0  0  0  0  0  0  0  0  0  0
  -11.7076   13.1873  -38.5862 H   0  0  0  0  0  0  0  0  0  0  0  0
   -9.3182   14.7015  -35.0066 H   0  0  0  0  0  0  0  0  0  0  0  0
  -10.7094   13.5955  -34.9492 H   0  0  0  0  0  0  0  0  0  0  0  0
   -9.2255   13.2410  -34.0380 H   0  0  0  0  0  0  0  0  0  0  0  0
   -9.0609   10.8739  -36.9908 H   0  0  0  0  0  0  0  0  0  0  0  0
  -10.5564   11.3241  -36.1909 H   0  0  0  0  0  0  0  0  0  0  0  0
   -9.1233   10.9314  -35.2153 H   0  0  0  0  0  0  0  0  0  0  0  0
   -7.1183   12.4698  -37.0887 H   0  0  0  0  0  0  0  0  0  0  0  0
   -7.2085   14.0587  -36.2984 H   0  0  0  0  0  0  0  0  0  0  0  0
   -7.0685   12.5692  -35.3371 H   0  0  0  0  0  0  0  0  0  0  0  0
  -14.9203   16.8274  -39.7326 H   0  0  0  0  0  0  0  0  0  0  0  0
  1 13  1  0  0  0  0
  1 14  2  0  0  0  0
  1 16  1  0  0  0  0
  2  5  1  0  0  0  0
  2  6  1  0  0  0  0
  3  6  1  0  0  0  0
  3  7  1  0  0  0  0
  4  5  1  0  0  0  0
  4 13  1  0  0  0  0
  5  7  1  0  0  0  0
  6 13  1  0  0  0  0
  7 11  1  0  0  0  0
  7 15  1  0  0  0  0
  8 12  1  0  0  0  0
  9 12  1  0  0  0  0
 10 12  1  0  0  0  0
 11 17  1  0  0  0  0
 11 18  1  0  0  0  0
 11 19  1  0  0  0  0
 12 16  1  0  0  0  0
  2 20  1  0  0  0  0
  2 21  1  0  0  0  0
  3 22  1  0  0  0  0
  3 23  1  0  0  0  0
  4 24  1  0  0  0  0
  4 25  1  0  0  0  0
  5 26  1  0  0  0  0
  6 27  1  0  0  0  0
  8 28  1  0  0  0  0
  8 29  1  0  0  0  0
  8 30  1  0  0  0  0
  9 31  1  0  0  0  0
  9 32  1  0  0  0  0
  9 33  1  0  0  0  0
 10 34  1  0  0  0  0
 10 35  1  0  0  0  0
 10 36  1  0  0  0  0
 15 37  1  0  0  0  0
M  END
> <id>
EN300-89639

> <smiles>
CC(C)(C)OC(=O)N1CC2CC1CC2(O)C(F)(F)F

> <MDLNUMBER>
MFCD18791490

> <IUPAC Name>
tert-butyl 5-hydroxy-5-(trifluoromethyl)-2-azabicyclo[2.2.1]heptane-2-carboxylate

> <CAS>
1251923-83-7

> <URL>
https://www.enaminestore.com/catalog/EN300-89639

> <ROCS_ShapeQuery>
x1247relevant_x1083L0AP1_x1305L0BP1_

> <ROCS_TanimotoCombo>
0.867 

> <ROCS_ShapeTanimoto>
0.500 

> <ROCS_ColorTanimoto>
0.367 

> <ROCS_RefTversky>
0.444 

> <ROCS_RefColorTversky>
0.406 

> <ROCS_RefTverskyCombo>
0.850 

> <ROCS_FitTversky>
1.337 

> <ROCS_FitColorTversky>
0.791 

> <ROCS_FitTverskyCombo>
2.128 

> <ROCS_ColorScore>
-8.642

> <ROCS_Overlap>
1311.425

> <ROCS_Rank>
34                  

$$$$
untitled-dbase-16111_1
  -OEChem-06162310163D

 41 44  0     1  0  0  0  0  0999 V2000
  -11.6348   15.0428  -39.7982 C   0  0  0  0  0  0  0  0  0  0  0  0
  -13.2207   13.5751  -38.5217 C   0  0  0  0  0  0  0  0  0  0  0  0
  -13.9726   15.8111  -39.3535 C   0  0  0  0  0  0  0  0  0  0  0  0
  -12.1531   16.9023  -38.2084 C   0  0  0  0  0  0  0  0  0  0  0  0
  -13.6766   15.4883  -36.9832 C   0  0  0  0  0  0  0  0  0  0  0  0
   -9.0121   13.7957  -37.3486 C   0  0  0  0  0  0  0  0  0  0  0  0
   -9.6143   15.7072  -35.8565 C   0  0  0  0  0  0  0  0  0  0  0  0
  -13.0964   14.5854  -39.6731 C   0  0  0  0  0  0  0  0  0  0  0  0
  -11.1985   15.7148  -38.4792 C   0  0  1  0  0  0  0  0  0  0  0  0
  -12.7722   14.2515  -37.2091 C   0  0  2  0  0  0  0  0  0  0  0  0
   -8.6939   14.4854  -36.0063 C   0  0  0  0  0  0  0  0  0  0  0  0
  -11.2759   14.7020  -37.2897 C   0  0  0  0  0  0  0  0  0  0  0  0
   -8.9193   13.5142  -34.8298 C   0  0  0  0  0  0  0  0  0  0  0  0
   -7.2262   14.9384  -35.9940 C   0  0  0  0  0  0  0  0  0  0  0  0
  -10.4377   13.5052  -37.5024 N   0  0  0  0  0  0  0  0  0  0  0  0
  -13.5572   16.4579  -38.0913 N   0  0  0  0  0  0  0  0  0  0  0  0
  -10.9829   15.3413  -36.0304 O   0  0  0  0  0  0  0  0  0  0  0  0
  -10.9871   14.1930  -40.0448 H   0  0  0  0  0  0  0  0  0  0  0  0
  -11.5378   15.7560  -40.6277 H   0  0  0  0  0  0  0  0  0  0  0  0
  -14.2617   13.2432  -38.4303 H   0  0  0  0  0  0  0  0  0  0  0  0
  -12.6234   12.6811  -38.7288 H   0  0  0  0  0  0  0  0  0  0  0  0
  -13.9196   16.5387  -40.1734 H   0  0  0  0  0  0  0  0  0  0  0  0
  -15.0272   15.5151  -39.2844 H   0  0  0  0  0  0  0  0  0  0  0  0
  -11.8604   17.4385  -37.2966 H   0  0  0  0  0  0  0  0  0  0  0  0
  -12.0715   17.6408  -39.0174 H   0  0  0  0  0  0  0  0  0  0  0  0
  -14.7230   15.1728  -36.8871 H   0  0  0  0  0  0  0  0  0  0  0  0
  -13.4300   15.9805  -36.0351 H   0  0  0  0  0  0  0  0  0  0  0  0
   -8.6943   14.4302  -38.1850 H   0  0  0  0  0  0  0  0  0  0  0  0
   -8.4396   12.8657  -37.4492 H   0  0  0  0  0  0  0  0  0  0  0  0
   -9.4880   16.1944  -34.8833 H   0  0  0  0  0  0  0  0  0  0  0  0
   -9.3796   16.4630  -36.6148 H   0  0  0  0  0  0  0  0  0  0  0  0
  -13.4259   14.1259  -40.6114 H   0  0  0  0  0  0  0  0  0  0  0  0
  -10.1791   16.1056  -38.5756 H   0  0  0  0  0  0  0  0  0  0  0  0
  -12.9361   13.5576  -36.3758 H   0  0  0  0  0  0  0  0  0  0  0  0
   -8.6899   14.0194  -33.8964 H   0  0  0  0  0  0  0  0  0  0  0  0
   -8.2700   12.6516  -34.9453 H   0  0  0  0  0  0  0  0  0  0  0  0
   -9.9559   13.1909  -34.8230 H   0  0  0  0  0  0  0  0  0  0  0  0
   -7.0124   15.4214  -35.0476 H   0  0  0  0  0  0  0  0  0  0  0  0
   -7.0638   15.6352  -36.8080 H   0  0  0  0  0  0  0  0  0  0  0  0
   -6.5871   14.0718  -36.1178 H   0  0  0  0  0  0  0  0  0  0  0  0
  -10.6045   13.1484  -38.4428 H   0  0  0  0  0  0  0  0  0  0  0  0
  1  8  1  0  0  0  0
  1  9  1  0  0  0  0
  2  8  1  0  0  0  0
  2 10  1  0  0  0  0
  3  8  1  0  0  0  0
  3 16  1  0  0  0  0
  4  9  1  0  0  0  0
  4 16  1  0  0  0  0
  5 10  1  0  0  0  0
  5 16  1  0  0  0  0
  6 11  1  0  0  0  0
  6 15  1  0  0  0  0
  7 11  1  0  0  0  0
  7 17  1  0  0  0  0
  9 12  1  0  0  0  0
 10 12  1  0  0  0  0
 11 13  1  0  0  0  0
 11 14  1  0  0  0  0
 12 15  1  0  0  0  0
 12 17  1  0  0  0  0
  1 18  1  0  0  0  0
  1 19  1  0  0  0  0
  2 20  1  0  0  0  0
  2 21  1  0  0  0  0
  3 22  1  0  0  0  0
  3 23  1  0  0  0  0
  4 24  1  0  0  0  0
  4 25  1  0  0  0  0
  5 26  1  0  0  0  0
  5 27  1  0  0  0  0
  6 28  1  0  0  0  0
  6 29  1  0  0  0  0
  7 30  1  0  0  0  0
  7 31  1  0  0  0  0
  8 32  1  0  0  0  0
  9 33  1  0  0  0  0
 10 34  1  0  0  0  0
 13 35  1  0  0  0  0
 13 36  1  0  0  0  0
 13 37  1  0  0  0  0
 14 38  1  0  0  0  0
 14 39  1  0  0  0  0
 14 40  1  0  0  0  0
 15 41  1  0  0  0  0
M  END
> <id>
EN300-1278591

> <smiles>
CC1(C)CNC2(OC1)C3CC4CC2CN(C4)C3

> <IUPAC Name>
5,5-dimethyl-5'-azaspiro[1,3-oxazinane-2,2'-tricyclo[3.3.1.1,3,7]decane]

> <CAS>
2172225-29-3

> <URL>
https://www.enaminestore.com/catalog/EN300-1278591

> <ROCS_ShapeQuery>
x1247relevant_x1083L0AP1_x1305L0BP1_

> <ROCS_TanimotoCombo>
0.866 

> <ROCS_ShapeTanimoto>
0.527 

> <ROCS_ColorTanimoto>
0.339 

> <ROCS_RefTversky>
0.450 

> <ROCS_RefColorTversky>
0.407 

> <ROCS_RefTverskyCombo>
0.857 

> <ROCS_FitTversky>
1.486 

> <ROCS_FitColorTversky>
0.670 

> <ROCS_FitTverskyCombo>
2.156 

> <ROCS_ColorScore>
-8.705

> <ROCS_Overlap>
1326.809

> <ROCS_Rank>
35                  

$$$$
untitled-dbase-36396_3
  -OEChem-06162310163D

 37 40  0     1  0  0  0  0  0999 V2000
  -13.8197   16.1557  -37.3400 C   0  0  0  0  0  0  0  0  0  0  0  0
  -12.8345   17.0425  -38.1379 C   0  0  0  0  0  0  0  0  0  0  0  0
   -8.7437   15.0092  -36.4333 C   0  0  0  0  0  0  0  0  0  0  0  0
  -12.6740   13.8625  -37.4686 C   0  0  0  0  0  0  0  0  0  0  0  0
  -11.0242   15.3492  -38.8095 C   0  0  0  0  0  0  0  0  0  0  0  0
   -9.9043   15.9128  -36.0423 C   0  0  0  0  0  0  0  0  0  0  0  0
   -9.5840   12.8434  -35.1804 C   0  0  0  0  0  0  0  0  0  0  0  0
   -8.1935   12.4603  -36.6548 C   0  0  0  0  0  0  0  0  0  0  0  0
  -13.8283   14.7532  -37.9730 C   0  0  2  0  0  0  0  0  0  0  0  0
  -12.2294   16.1956  -39.2714 C   0  0  1  0  0  0  0  0  0  0  0  0
   -9.2267   13.5854  -36.4803 C   0  0  0  0  0  0  0  0  0  0  0  0
  -11.2527   14.5092  -37.5094 C   0  0  0  0  0  0  0  0  0  0  0  0
  -10.3092   13.3654  -37.4470 N   0  0  0  0  0  0  0  0  0  0  0  0
  -14.6838   15.8726  -40.2175 O   0  0  0  0  0  0  0  0  0  0  0  0
  -13.0782   13.9274  -40.4008 O   0  0  0  0  0  0  0  0  0  0  0  0
   -8.7926   11.6940  -35.5778 O   0  0  0  0  0  0  0  0  0  0  0  0
  -11.1808   15.3496  -36.3408 O   0  0  0  0  0  0  0  0  0  0  0  0
  -13.5711   15.0978  -39.7081 S   0  0  0  0  0  0  0  0  0  0  0  0
  -13.5868   16.1317  -36.2707 H   0  0  0  0  0  0  0  0  0  0  0  0
  -14.8223   16.5957  -37.4224 H   0  0  0  0  0  0  0  0  0  0  0  0
  -13.3984   17.8787  -38.5719 H   0  0  0  0  0  0  0  0  0  0  0  0
  -12.0687   17.4928  -37.4984 H   0  0  0  0  0  0  0  0  0  0  0  0
   -8.3279   15.3305  -37.3967 H   0  0  0  0  0  0  0  0  0  0  0  0
   -7.9449   15.1091  -35.6846 H   0  0  0  0  0  0  0  0  0  0  0  0
  -12.9025   13.5717  -36.4343 H   0  0  0  0  0  0  0  0  0  0  0  0
  -12.6813   12.9366  -38.0585 H   0  0  0  0  0  0  0  0  0  0  0  0
  -10.7537   14.6782  -39.6328 H   0  0  0  0  0  0  0  0  0  0  0  0
  -10.1800   16.0312  -38.6819 H   0  0  0  0  0  0  0  0  0  0  0  0
   -9.8755   16.0991  -34.9499 H   0  0  0  0  0  0  0  0  0  0  0  0
   -9.8141   16.9163  -36.5069 H   0  0  0  0  0  0  0  0  0  0  0  0
   -9.1984   13.2879  -34.2562 H   0  0  0  0  0  0  0  0  0  0  0  0
  -10.6313   12.5561  -35.0239 H   0  0  0  0  0  0  0  0  0  0  0  0
   -8.2100   11.8813  -37.5845 H   0  0  0  0  0  0  0  0  0  0  0  0
   -7.1590   12.7306  -36.4196 H   0  0  0  0  0  0  0  0  0  0  0  0
  -14.7923   14.2519  -37.8504 H   0  0  0  0  0  0  0  0  0  0  0  0
  -11.9713   16.8004  -40.1451 H   0  0  0  0  0  0  0  0  0  0  0  0
  -10.0074   13.1117  -38.3890 H   0  0  0  0  0  0  0  0  0  0  0  0
  1  2  1  0  0  0  0
  1  9  1  0  0  0  0
  2 10  1  0  0  0  0
  3  6  1  0  0  0  0
  3 11  1  0  0  0  0
  4  9  1  0  0  0  0
  4 12  1  0  0  0  0
  5 10  1  0  0  0  0
  5 12  1  0  0  0  0
  6 17  1  0  0  0  0
  7 11  1  0  0  0  0
  7 16  1  0  0  0  0
  8 11  1  0  0  0  0
  8 16  1  0  0  0  0
  9 18  1  0  0  0  0
 10 18  1  0  0  0  0
 11 13  1  0  0  0  0
 12 13  1  0  0  0  0
 12 17  1  0  0  0  0
 14 18  2  0  0  0  0
 15 18  2  0  0  0  0
  1 19  1  0  0  0  0
  1 20  1  0  0  0  0
  2 21  1  0  0  0  0
  2 22  1  0  0  0  0
  3 23  1  0  0  0  0
  3 24  1  0  0  0  0
  4 25  1  0  0  0  0
  4 26  1  0  0  0  0
  5 27  1  0  0  0  0
  5 28  1  0  0  0  0
  6 29  1  0  0  0  0
  6 30  1  0  0  0  0
  7 31  1  0  0  0  0
  7 32  1  0  0  0  0
  8 33  1  0  0  0  0
  8 34  1  0  0  0  0
  9 35  1  0  0  0  0
 10 36  1  0  0  0  0
 13 37  1  0  0  0  0
M  END
> <id>
EN300-1280079

> <smiles>
O=S1(=O)C2CCC1CC3(C2)NC4(COC4)CCO3

> <IUPAC Name>
8lambda6-dispiro[8lambda6-thiabicyclo[3.2.1]octane-3,2'-[1,3]oxazinane-4',3''-oxetane]-8,8-dione

> <URL>
https://www.enaminestore.com/catalog/EN300-1280079

> <ROCS_ShapeQuery>
x1247relevant_x1083L0AP1_x1305L0BP1_

> <ROCS_TanimotoCombo>
0.865 

> <ROCS_ShapeTanimoto>
0.522 

> <ROCS_ColorTanimoto>
0.343 

> <ROCS_RefTversky>
0.449 

> <ROCS_RefColorTversky>
0.423 

> <ROCS_RefTverskyCombo>
0.872 

> <ROCS_FitTversky>
1.452 

> <ROCS_FitColorTversky>
0.644 

> <ROCS_FitTverskyCombo>
2.095 

> <ROCS_ColorScore>
-9.069

> <ROCS_Overlap>
1325.854

> <ROCS_Rank>
36                  

$$$$
untitled-dbase-28080_58
  -OEChem-06162310163D

 46 48  0     1  0  0  0  0  0999 V2000
  -13.4778   17.1723  -39.8489 C   0  0  0  0  0  0  0  0  0  0  0  0
  -13.5426   13.8099  -38.6096 C   0  0  0  0  0  0  0  0  0  0  0  0
  -13.7304   14.6235  -37.3120 C   0  0  0  0  0  0  0  0  0  0  0  0
  -11.2911   14.7176  -39.4545 C   0  0  0  0  0  0  0  0  0  0  0  0
  -11.6176   16.0846  -37.2970 C   0  0  0  0  0  0  0  0  0  0  0  0
  -10.0133   13.7868  -35.9927 C   0  0  0  0  0  0  0  0  0  0  0  0
   -8.6124   14.3469  -36.1824 C   0  0  0  0  0  0  0  0  0  0  0  0
   -9.2754   15.4753  -38.1273 C   0  0  0  0  0  0  0  0  0  0  0  0
  -12.8300   14.7649  -39.5715 C   0  0  2  0  0  0  0  0  0  0  0  0
  -13.1252   15.9972  -37.6187 C   0  0  1  0  0  0  0  0  0  0  0  0
  -10.7400   14.9967  -38.0121 C   0  0  0  0  0  0  0  0  0  0  0  0
  -15.8537   16.9888  -40.9379 C   0  0  0  0  0  0  0  0  0  0  0  0
  -16.7528   18.4657  -39.1159 C   0  0  0  0  0  0  0  0  0  0  0  0
  -15.3608   19.4569  -40.9565 C   0  0  0  0  0  0  0  0  0  0  0  0
  -15.5934   18.2266  -40.0806 C   0  0  0  0  0  0  0  0  0  0  0  0
  -10.7400   13.7170  -37.2627 N   0  0  0  0  0  0  0  0  0  0  0  0
  -13.2384   16.0603  -39.0658 N   0  0  0  0  0  0  0  0  0  0  0  0
  -12.9140   17.3992  -40.9169 O   0  0  0  0  0  0  0  0  0  0  0  0
   -8.6733   15.6115  -36.8392 O   0  0  0  0  0  0  0  0  0  0  0  0
  -14.4185   17.9977  -39.2948 O   0  0  0  0  0  0  0  0  0  0  0  0
  -13.0321   12.8539  -38.4737 H   0  0  0  0  0  0  0  0  0  0  0  0
  -14.5364   13.5691  -39.0093 H   0  0  0  0  0  0  0  0  0  0  0  0
  -14.8067   14.7338  -37.1263 H   0  0  0  0  0  0  0  0  0  0  0  0
  -13.3143   14.1459  -36.4218 H   0  0  0  0  0  0  0  0  0  0  0  0
  -10.9316   13.7610  -39.8497 H   0  0  0  0  0  0  0  0  0  0  0  0
  -10.8842   15.4764  -40.1394 H   0  0  0  0  0  0  0  0  0  0  0  0
  -11.2665   17.0814  -37.5961 H   0  0  0  0  0  0  0  0  0  0  0  0
  -11.4721   16.0324  -36.2104 H   0  0  0  0  0  0  0  0  0  0  0  0
   -9.9650   12.7964  -35.5288 H   0  0  0  0  0  0  0  0  0  0  0  0
  -10.5684   14.4301  -35.3013 H   0  0  0  0  0  0  0  0  0  0  0  0
   -8.0882   14.4558  -35.2251 H   0  0  0  0  0  0  0  0  0  0  0  0
   -8.0201   13.6716  -36.8079 H   0  0  0  0  0  0  0  0  0  0  0  0
   -8.6772   14.7507  -38.6913 H   0  0  0  0  0  0  0  0  0  0  0  0
   -9.2024   16.4318  -38.6618 H   0  0  0  0  0  0  0  0  0  0  0  0
  -13.1390   14.6126  -40.6112 H   0  0  0  0  0  0  0  0  0  0  0  0
  -13.6685   16.8137  -37.1352 H   0  0  0  0  0  0  0  0  0  0  0  0
  -15.0237   16.8138  -41.6318 H   0  0  0  0  0  0  0  0  0  0  0  0
  -15.9875   16.0930  -40.3228 H   0  0  0  0  0  0  0  0  0  0  0  0
  -16.7496   17.1219  -41.5550 H   0  0  0  0  0  0  0  0  0  0  0  0
  -16.5703   19.3528  -38.4988 H   0  0  0  0  0  0  0  0  0  0  0  0
  -16.8630   17.6244  -38.4221 H   0  0  0  0  0  0  0  0  0  0  0  0
  -17.6997   18.6024  -39.6482 H   0  0  0  0  0  0  0  0  0  0  0  0
  -15.1740   20.3449  -40.3418 H   0  0  0  0  0  0  0  0  0  0  0  0
  -14.5088   19.3174  -41.6299 H   0  0  0  0  0  0  0  0  0  0  0  0
  -16.2485   19.6794  -41.5595 H   0  0  0  0  0  0  0  0  0  0  0  0
  -10.3886   12.9382  -37.8012 H   0  0  0  0  0  0  0  0  0  0  0  0
  1 17  1  0  0  0  0
  1 18  2  0  0  0  0
  1 20  1  0  0  0  0
  2  3  1  0  0  0  0
  2  9  1  0  0  0  0
  3 10  1  0  0  0  0
  4  9  1  0  0  0  0
  4 11  1  0  0  0  0
  5 10  1  0  0  0  0
  5 11  1  0  0  0  0
  6  7  1  0  0  0  0
  6 16  1  0  0  0  0
  7 19  1  0  0  0  0
  8 11  1  0  0  0  0
  8 19  1  0  0  0  0
  9 17  1  0  0  0  0
 10 17  1  0  0  0  0
 11 16  1  0  0  0  0
 12 15  1  0  0  0  0
 13 15  1  0  0  0  0
 14 15  1  0  0  0  0
 15 20  1  0  0  0  0
  2 21  1  0  0  0  0
  2 22  1  0  0  0  0
  3 23  1  0  0  0  0
  3 24  1  0  0  0  0
  4 25  1  0  0  0  0
  4 26  1  0  0  0  0
  5 27  1  0  0  0  0
  5 28  1  0  0  0  0
  6 29  1  0  0  0  0
  6 30  1  0  0  0  0
  7 31  1  0  0  0  0
  7 32  1  0  0  0  0
  8 33  1  0  0  0  0
  8 34  1  0  0  0  0
  9 35  1  0  0  0  0
 10 36  1  0  0  0  0
 12 37  1  0  0  0  0
 12 38  1  0  0  0  0
 12 39  1  0  0  0  0
 13 40  1  0  0  0  0
 13 41  1  0  0  0  0
 13 42  1  0  0  0  0
 14 43  1  0  0  0  0
 14 44  1  0  0  0  0
 14 45  1  0  0  0  0
 16 46  1  0  0  0  0
M  END
> <id>
EN300-1645387

> <smiles>
CC(C)(C)OC(=O)N1C2CCC1CC3(COCCN3)C2

> <IUPAC Name>
tert-butyl 8-azaspiro[bicyclo[3.2.1]octane-3,3'-morpholine]-8-carboxylate

> <CAS>
2171652-80-3

> <URL>
https://www.enaminestore.com/catalog/EN300-1645387

> <ROCS_ShapeQuery>
x1247relevant_x1083L0AP1_x1305L0BP1_

> <ROCS_TanimotoCombo>
0.864 

> <ROCS_ShapeTanimoto>
0.458 

> <ROCS_ColorTanimoto>
0.407 

> <ROCS_RefTversky>
0.421 

> <ROCS_RefColorTversky>
0.456 

> <ROCS_RefTverskyCombo>
0.877 

> <ROCS_FitTversky>
1.237 

> <ROCS_FitColorTversky>
0.791 

> <ROCS_FitTverskyCombo>
2.028 

> <ROCS_ColorScore>
-9.729

> <ROCS_Overlap>
1243.955

> <ROCS_Rank>
37                  

$$$$
untitled-dbase-3250_0
  -OEChem-06162310163D

 31 33  0     1  0  0  0  0  0999 V2000
  -14.1766   15.5045  -38.7044 C   0  0  0  0  0  0  0  0  0  0  0  0
  -13.6040   15.8569  -37.3164 C   0  0  0  0  0  0  0  0  0  0  0  0
  -12.3711   13.8196  -39.0770 C   0  0  0  0  0  0  0  0  0  0  0  0
  -11.1946   16.1403  -36.4068 C   0  0  0  0  0  0  0  0  0  0  0  0
  -12.9083   15.2004  -39.5423 C   0  0  2  0  0  0  0  0  0  0  0  0
  -11.9043   14.1111  -37.6469 C   0  0  2  0  0  0  0  0  0  0  0  0
  -12.0851   15.6468  -37.5284 C   0  0  1  0  0  0  0  0  0  0  0  0
  -11.8629   16.1927  -38.9762 C   0  0  0  0  0  0  0  0  0  0  0  0
  -10.4661   16.0326  -39.6043 C   0  0  0  0  0  0  0  0  0  0  0  0
  -12.2290   17.6809  -39.1719 C   0  0  0  0  0  0  0  0  0  0  0  0
  -10.4634   13.8317  -37.4159 N   0  0  0  0  0  0  0  0  0  0  0  0
   -9.7689   14.4333  -34.9845 O   0  0  0  0  0  0  0  0  0  0  0  0
   -8.6363   15.6190  -36.9115 O   0  0  0  0  0  0  0  0  0  0  0  0
   -9.8049   15.0077  -36.3143 S   0  0  0  0  0  0  0  0  0  0  0  0
  -14.8570   14.6477  -38.6557 H   0  0  0  0  0  0  0  0  0  0  0  0
  -14.7391   16.3477  -39.1185 H   0  0  0  0  0  0  0  0  0  0  0  0
  -13.8453   16.8869  -37.0334 H   0  0  0  0  0  0  0  0  0  0  0  0
  -14.0173   15.2058  -36.5380 H   0  0  0  0  0  0  0  0  0  0  0  0
  -13.1627   13.0622  -39.0902 H   0  0  0  0  0  0  0  0  0  0  0  0
  -11.5635   13.4568  -39.7206 H   0  0  0  0  0  0  0  0  0  0  0  0
  -10.8174   17.1520  -36.5703 H   0  0  0  0  0  0  0  0  0  0  0  0
  -11.7075   16.0920  -35.4411 H   0  0  0  0  0  0  0  0  0  0  0  0
  -13.0796   15.2537  -40.6200 H   0  0  0  0  0  0  0  0  0  0  0  0
  -12.4856   13.5477  -36.9074 H   0  0  0  0  0  0  0  0  0  0  0  0
   -9.7909   16.7566  -39.1613 H   0  0  0  0  0  0  0  0  0  0  0  0
  -10.5345   16.2017  -40.6734 H   0  0  0  0  0  0  0  0  0  0  0  0
  -10.1028   15.0285  -39.4144 H   0  0  0  0  0  0  0  0  0  0  0  0
  -11.4444   18.2946  -38.7472 H   0  0  0  0  0  0  0  0  0  0  0  0
  -13.1678   17.8807  -38.6705 H   0  0  0  0  0  0  0  0  0  0  0  0
  -12.3246   17.8828  -40.2316 H   0  0  0  0  0  0  0  0  0  0  0  0
  -10.3079   12.8510  -37.1453 H   0  0  0  0  0  0  0  0  0  0  0  0
  1  2  1  0  0  0  0
  1  5  1  6  0  0  0
  2  7  1  6  0  0  0
  3  5  1  0  0  0  0
  3  6  1  1  0  0  0
  4  7  1  0  0  0  0
  4 14  1  0  0  0  0
  5  8  1  0  0  0  0
  6  7  1  0  0  0  0
  6 11  1  0  0  0  0
  7  8  1  0  0  0  0
  8  9  1  0  0  0  0
  8 10  1  0  0  0  0
 11 14  1  0  0  0  0
 12 14  2  0  0  0  0
 13 14  2  0  0  0  0
  1 15  1  0  0  0  0
  1 16  1  0  0  0  0
  2 17  1  0  0  0  0
  2 18  1  0  0  0  0
  3 19  1  0  0  0  0
  3 20  1  0  0  0  0
  4 21  1  0  0  0  0
  4 22  1  0  0  0  0
  5 23  1  0  0  0  0
  6 24  1  0  0  0  0
  9 25  1  0  0  0  0
  9 26  1  0  0  0  0
  9 27  1  0  0  0  0
 10 28  1  0  0  0  0
 10 29  1  0  0  0  0
 10 30  1  0  0  0  0
 11 31  1  0  0  0  0
M  END
> <id>
EN300-84883

> <smiles>
CC1(C)[C@@H]2CC[C@@]31CS(=O)(=O)N[C@@H]3C2

> <MDLNUMBER>
MFCD00066271

> <IUPAC Name>
(1S,5R,7R)-10,10-dimethyl-3lambda6-thia-4-azatricyclo[5.2.1.0,1,5]decane-3,3-dione

> <CAS>
94594-90-8

> <URL>
https://www.enaminestore.com/catalog/EN300-84883

> <ROCS_ShapeQuery>
x1247relevant_x1083L0AP1_x1305L0BP1_

> <ROCS_TanimotoCombo>
0.864 

> <ROCS_ShapeTanimoto>
0.496 

> <ROCS_ColorTanimoto>
0.368 

> <ROCS_RefTversky>
0.414 

> <ROCS_RefColorTversky>
0.419 

> <ROCS_RefTverskyCombo>
0.834 

> <ROCS_FitTversky>
1.660 

> <ROCS_FitColorTversky>
0.751 

> <ROCS_FitTverskyCombo>
2.411 

> <ROCS_ColorScore>
-8.947

> <ROCS_Overlap>
1218.881

> <ROCS_Rank>
38                  

$$$$
untitled-dbase-14062_1
  -OEChem-06162310163D

 33 36  0     1  0  0  0  0  0999 V2000
  -11.4035   16.7059  -35.5055 C   0  0  0  0  0  0  0  0  0  0  0  0
  -10.5629   17.3191  -34.6015 C   0  0  0  0  0  0  0  0  0  0  0  0
  -10.7778   15.6181  -36.1988 C   0  0  0  0  0  0  0  0  0  0  0  0
   -9.4622   15.4883  -35.7842 C   0  0  0  0  0  0  0  0  0  0  0  0
   -8.5119   14.4598  -36.3008 C   0  0  0  0  0  0  0  0  0  0  0  0
  -13.5536   14.8143  -39.7123 C   0  0  0  0  0  0  0  0  0  0  0  0
  -12.0407   14.6781  -39.8021 C   0  0  0  0  0  0  0  0  0  0  0  0
  -13.9601   15.0522  -37.2079 C   0  0  0  0  0  0  0  0  0  0  0  0
  -12.7693   14.1462  -36.8623 C   0  0  0  0  0  0  0  0  0  0  0  0
   -9.0689   13.8535  -37.5924 C   0  0  0  0  0  0  0  0  0  0  0  0
  -13.7723   15.7691  -38.5463 C   0  0  1  0  0  0  0  0  0  0  0  0
  -11.5135   15.5049  -38.6283 C   0  0  2  0  0  0  0  0  0  0  0  0
  -11.3831   14.7186  -37.2869 C   0  0  1  0  0  0  0  0  0  0  0  0
  -10.4944   13.5301  -37.4561 N   0  0  0  0  0  0  0  0  0  0  0  0
  -12.5424   16.5041  -38.4697 O   0  0  0  0  0  0  0  0  0  0  0  0
   -9.0115   16.6055  -34.5852 S   0  0  0  0  0  0  0  0  0  0  0  0
  -12.4239   17.0342  -35.6484 H   0  0  0  0  0  0  0  0  0  0  0  0
  -10.7917   18.1491  -33.9480 H   0  0  0  0  0  0  0  0  0  0  0  0
   -7.5438   14.9357  -36.5020 H   0  0  0  0  0  0  0  0  0  0  0  0
   -8.3478   13.6647  -35.5642 H   0  0  0  0  0  0  0  0  0  0  0  0
  -13.9316   15.2583  -40.6414 H   0  0  0  0  0  0  0  0  0  0  0  0
  -14.0662   13.8555  -39.5818 H   0  0  0  0  0  0  0  0  0  0  0  0
  -11.7075   13.6363  -39.8114 H   0  0  0  0  0  0  0  0  0  0  0  0
  -11.7031   15.1287  -40.7444 H   0  0  0  0  0  0  0  0  0  0  0  0
  -14.8825   14.4590  -37.2171 H   0  0  0  0  0  0  0  0  0  0  0  0
  -14.0679   15.8025  -36.4143 H   0  0  0  0  0  0  0  0  0  0  0  0
  -12.7958   13.9129  -35.7852 H   0  0  0  0  0  0  0  0  0  0  0  0
  -12.9355   13.1806  -37.3699 H   0  0  0  0  0  0  0  0  0  0  0  0
   -8.9428   14.5713  -38.4109 H   0  0  0  0  0  0  0  0  0  0  0  0
   -8.4990   12.9619  -37.8792 H   0  0  0  0  0  0  0  0  0  0  0  0
  -14.6027   16.4591  -38.7294 H   0  0  0  0  0  0  0  0  0  0  0  0
  -10.5723   16.0074  -38.8816 H   0  0  0  0  0  0  0  0  0  0  0  0
  -10.7922   13.0034  -38.2781 H   0  0  0  0  0  0  0  0  0  0  0  0
  1  2  2  0  0  0  0
  1  3  1  0  0  0  0
  2 16  1  0  0  0  0
  3  4  2  0  0  0  0
  3 13  1  0  0  0  0
  4  5  1  0  0  0  0
  4 16  1  0  0  0  0
  5 10  1  0  0  0  0
  6  7  1  0  0  0  0
  6 11  1  0  0  0  0
  7 12  1  0  0  0  0
  8  9  1  0  0  0  0
  8 11  1  0  0  0  0
  9 13  1  0  0  0  0
 10 14  1  0  0  0  0
 11 15  1  0  0  0  0
 12 13  1  0  0  0  0
 12 15  1  0  0  0  0
 13 14  1  0  0  0  0
  1 17  1  0  0  0  0
  2 18  1  0  0  0  0
  5 19  1  0  0  0  0
  5 20  1  0  0  0  0
  6 21  1  0  0  0  0
  6 22  1  0  0  0  0
  7 23  1  0  0  0  0
  7 24  1  0  0  0  0
  8 25  1  0  0  0  0
  8 26  1  0  0  0  0
  9 27  1  0  0  0  0
  9 28  1  0  0  0  0
 10 29  1  0  0  0  0
 10 30  1  0  0  0  0
 11 31  1  0  0  0  0
 12 32  1  0  0  0  0
 14 33  1  0  0  0  0
M  END
> <id>
EN300-1075931

> <smiles>
C1CC2OC1CCC32NCCC=4SC=CC43

> <IUPAC Name>
6',7'-dihydro-5'H-8-oxaspiro[bicyclo[3.2.1]octane-2,4'-thieno[3,2-c]pyridine]

> <CAS>
2253640-62-7

> <URL>
https://www.enaminestore.com/catalog/EN300-1075931

> <ROCS_ShapeQuery>
x1247relevant_x1083L0AP1_x1305L0BP1_

> <ROCS_TanimotoCombo>
0.864 

> <ROCS_ShapeTanimoto>
0.466 

> <ROCS_ColorTanimoto>
0.397 

> <ROCS_RefTversky>
0.409 

> <ROCS_RefColorTversky>
0.436 

> <ROCS_RefTverskyCombo>
0.845 

> <ROCS_FitTversky>
1.434 

> <ROCS_FitColorTversky>
0.817 

> <ROCS_FitTverskyCombo>
2.251 

> <ROCS_ColorScore>
-9.292

> <ROCS_Overlap>
1204.291

> <ROCS_Rank>
39                  

$$$$
untitled-dbase-36211_0
  -OEChem-06162310163D

 40 42  0     1  0  0  0  0  0999 V2000
  -13.9022   16.1628  -37.5191 C   0  0  0  0  0  0  0  0  0  0  0  0
  -12.9575   16.9647  -38.4164 C   0  0  0  0  0  0  0  0  0  0  0  0
  -12.7048   13.8881  -37.4439 C   0  0  0  0  0  0  0  0  0  0  0  0
  -11.1456   15.2227  -38.9472 C   0  0  0  0  0  0  0  0  0  0  0  0
   -8.9557   13.9176  -37.1886 C   0  0  0  0  0  0  0  0  0  0  0  0
   -9.9115   16.0172  -36.2347 C   0  0  0  0  0  0  0  0  0  0  0  0
  -13.8365   14.7365  -38.0716 C   0  0  2  0  0  0  0  0  0  0  0  0
  -12.4281   15.9427  -39.4260 C   0  0  1  0  0  0  0  0  0  0  0  0
   -8.8812   14.9006  -36.0043 C   0  0  0  0  0  0  0  0  0  0  0  0
  -11.2898   14.5279  -37.5598 C   0  0  0  0  0  0  0  0  0  0  0  0
   -9.1863   14.1713  -34.6800 C   0  0  0  0  0  0  0  0  0  0  0  0
   -7.4720   15.5054  -35.9206 C   0  0  0  0  0  0  0  0  0  0  0  0
  -14.6094   15.2963  -40.3242 C   0  0  0  0  0  0  0  0  0  0  0  0
  -10.3183   13.4319  -37.3907 N   0  0  0  0  0  0  0  0  0  0  0  0
  -13.4755   14.9083  -39.4896 N   0  0  0  0  0  0  0  0  0  0  0  0
  -11.2111   15.4818  -36.4812 O   0  0  0  0  0  0  0  0  0  0  0  0
  -13.6314   16.2268  -36.4611 H   0  0  0  0  0  0  0  0  0  0  0  0
  -14.9184   16.5645  -37.6144 H   0  0  0  0  0  0  0  0  0  0  0  0
  -13.5257   17.7511  -38.9278 H   0  0  0  0  0  0  0  0  0  0  0  0
  -12.1625   17.4594  -37.8509 H   0  0  0  0  0  0  0  0  0  0  0  0
  -12.9457   13.7072  -36.3877 H   0  0  0  0  0  0  0  0  0  0  0  0
  -12.7159   12.9084  -37.9436 H   0  0  0  0  0  0  0  0  0  0  0  0
  -10.8891   14.4696  -39.7064 H   0  0  0  0  0  0  0  0  0  0  0  0
  -10.3247   15.9471  -38.9468 H   0  0  0  0  0  0  0  0  0  0  0  0
   -8.5885   14.3908  -38.1078 H   0  0  0  0  0  0  0  0  0  0  0  0
   -8.3022   13.0568  -37.0027 H   0  0  0  0  0  0  0  0  0  0  0  0
   -9.9877   16.6600  -35.3502 H   0  0  0  0  0  0  0  0  0  0  0  0
   -9.6216   16.6704  -37.0646 H   0  0  0  0  0  0  0  0  0  0  0  0
  -14.7864   14.2059  -37.9395 H   0  0  0  0  0  0  0  0  0  0  0  0
  -12.2291   16.4005  -40.4019 H   0  0  0  0  0  0  0  0  0  0  0  0
   -9.1281   14.8812  -33.8633 H   0  0  0  0  0  0  0  0  0  0  0  0
   -8.4580   13.3820  -34.5346 H   0  0  0  0  0  0  0  0  0  0  0  0
  -10.1829   13.7484  -34.7303 H   0  0  0  0  0  0  0  0  0  0  0  0
   -7.4255   16.1969  -35.0846 H   0  0  0  0  0  0  0  0  0  0  0  0
   -7.2515   16.0347  -36.8427 H   0  0  0  0  0  0  0  0  0  0  0  0
   -6.7466   14.7104  -35.7754 H   0  0  0  0  0  0  0  0  0  0  0  0
  -14.2766   15.4083  -41.3667 H   0  0  0  0  0  0  0  0  0  0  0  0
  -15.3875   14.5207  -40.2691 H   0  0  0  0  0  0  0  0  0  0  0  0
  -15.0185   16.2523  -39.9654 H   0  0  0  0  0  0  0  0  0  0  0  0
  -10.3451   12.8109  -38.1986 H   0  0  0  0  0  0  0  0  0  0  0  0
  1  2  1  0  0  0  0
  1  7  1  0  0  0  0
  2  8  1  0  0  0  0
  3  7  1  0  0  0  0
  3 10  1  0  0  0  0
  4  8  1  0  0  0  0
  4 10  1  0  0  0  0
  5  9  1  0  0  0  0
  5 14  1  0  0  0  0
  6  9  1  0  0  0  0
  6 16  1  0  0  0  0
  7 15  1  0  0  0  0
  8 15  1  0  0  0  0
  9 11  1  0  0  0  0
  9 12  1  0  0  0  0
 10 14  1  0  0  0  0
 10 16  1  0  0  0  0
 13 15  1  0  0  0  0
  1 17  1  0  0  0  0
  1 18  1  0  0  0  0
  2 19  1  0  0  0  0
  2 20  1  0  0  0  0
  3 21  1  0  0  0  0
  3 22  1  0  0  0  0
  4 23  1  0  0  0  0
  4 24  1  0  0  0  0
  5 25  1  0  0  0  0
  5 26  1  0  0  0  0
  6 27  1  0  0  0  0
  6 28  1  0  0  0  0
  7 29  1  0  0  0  0
  8 30  1  0  0  0  0
 11 31  1  0  0  0  0
 11 32  1  0  0  0  0
 11 33  1  0  0  0  0
 12 34  1  0  0  0  0
 12 35  1  0  0  0  0
 12 36  1  0  0  0  0
 13 37  1  0  0  0  0
 13 38  1  0  0  0  0
 13 39  1  0  0  0  0
 14 40  1  0  0  0  0
M  END
> <id>
EN300-1278571

> <smiles>
CN1C2CCC1CC3(C2)NCC(C)(C)CO3

> <IUPAC Name>
5',5',8-trimethyl-8-azaspiro[bicyclo[3.2.1]octane-3,2'-[1,3]oxazinane]

> <CAS>
2172459-83-3

> <URL>
https://www.enaminestore.com/catalog/EN300-1278571

> <ROCS_ShapeQuery>
x1247relevant_x1083L0AP1_x1305L0BP1_

> <ROCS_TanimotoCombo>
0.864 

> <ROCS_ShapeTanimoto>
0.532 

> <ROCS_ColorTanimoto>
0.332 

> <ROCS_RefTversky>
0.445 

> <ROCS_RefColorTversky>
0.393 

> <ROCS_RefTverskyCombo>
0.838 

> <ROCS_FitTversky>
1.578 

> <ROCS_FitColorTversky>
0.682 

> <ROCS_FitTverskyCombo>
2.260 

> <ROCS_ColorScore>
-8.381

> <ROCS_Overlap>
1311.657

> <ROCS_Rank>
40                  

$$$$
untitled-dbase-52646_13
  -OEChem-06162310163D

 24 25  0     1  0  0  0  0  0999 V2000
  -10.4497   14.8516  -36.7470 C   0  0  0  0  0  0  0  0  0  0  0  0
  -13.3347   13.8916  -38.0387 C   0  0  0  0  0  0  0  0  0  0  0  0
  -12.0401   15.3750  -39.7614 C   0  0  0  0  0  0  0  0  0  0  0  0
  -13.2574   16.4973  -37.7886 C   0  0  0  0  0  0  0  0  0  0  0  0
  -11.9948   14.2181  -38.7593 C   0  0  1  0  0  0  0  0  0  0  0  0
  -12.9884   15.1280  -37.1601 C   0  0  2  0  0  0  0  0  0  0  0  0
  -13.0583   16.4419  -39.3145 C   0  0  0  0  0  0  0  0  0  0  0  0
   -9.2183   15.0047  -37.5980 C   0  0  0  0  0  0  0  0  0  0  0  0
  -11.6122   14.7401  -37.4522 N   0  0  0  0  0  0  0  0  0  0  0  0
  -10.3823   14.8282  -35.5191 O   0  0  0  0  0  0  0  0  0  0  0  0
  -14.3262   16.1571  -39.9138 O   0  0  0  0  0  0  0  0  0  0  0  0
   -9.5399   14.9981  -38.9051 F   0  0  0  0  0  0  0  0  0  0  0  0
   -8.5917   16.1647  -37.3263 F   0  0  0  0  0  0  0  0  0  0  0  0
   -8.3525   13.9985  -37.3742 F   0  0  0  0  0  0  0  0  0  0  0  0
  -14.2492   13.9403  -38.6343 H   0  0  0  0  0  0  0  0  0  0  0  0
  -13.3337   12.9375  -37.4951 H   0  0  0  0  0  0  0  0  0  0  0  0
  -11.0430   15.8258  -39.8349 H   0  0  0  0  0  0  0  0  0  0  0  0
  -12.3004   14.9908  -40.7544 H   0  0  0  0  0  0  0  0  0  0  0  0
  -14.2759   16.8187  -37.5434 H   0  0  0  0  0  0  0  0  0  0  0  0
  -12.5687   17.2322  -37.3536 H   0  0  0  0  0  0  0  0  0  0  0  0
  -11.4231   13.3454  -39.0863 H   0  0  0  0  0  0  0  0  0  0  0  0
  -13.2622   15.0411  -36.1051 H   0  0  0  0  0  0  0  0  0  0  0  0
  -12.7637   17.4269  -39.6917 H   0  0  0  0  0  0  0  0  0  0  0  0
  -14.1850   16.1856  -40.8711 H   0  0  0  0  0  0  0  0  0  0  0  0
  1  8  1  0  0  0  0
  1  9  1  0  0  0  0
  1 10  2  0  0  0  0
  2  5  1  0  0  0  0
  2  6  1  6  0  0  0
  3  5  1  1  0  0  0
  3  7  1  0  0  0  0
  4  6  1  0  0  0  0
  4  7  1  0  0  0  0
  5  9  1  0  0  0  0
  6  9  1  0  0  0  0
  7 11  1  6  0  0  0
  8 12  1  0  0  0  0
  8 13  1  0  0  0  0
  8 14  1  0  0  0  0
  2 15  1  0  0  0  0
  2 16  1  0  0  0  0
  3 17  1  0  0  0  0
  3 18  1  0  0  0  0
  4 19  1  0  0  0  0
  4 20  1  0  0  0  0
  5 21  1  0  0  0  0
  6 22  1  0  0  0  0
  7 23  1  0  0  0  0
 11 24  1  0  0  0  0
M  END
> <id>
EN300-45377140

> <smiles>
O[C@@H]1C[C@@H]2C[C@H](C1)N2C(=O)C(F)(F)F

> <IUPAC Name>
2,2,2-trifluoro-1-[(1R,3r,5S)-3-hydroxy-6-azabicyclo[3.1.1]heptan-6-yl]ethan-1-one

> <URL>
https://www.enaminestore.com/catalog/EN300-45377140

> <ROCS_ShapeQuery>
x1247relevant_x1083L0AP1_x1305L0BP1_

> <ROCS_TanimotoCombo>
0.863 

> <ROCS_ShapeTanimoto>
0.494 

> <ROCS_ColorTanimoto>
0.370 

> <ROCS_RefTversky>
0.416 

> <ROCS_RefColorTversky>
0.395 

> <ROCS_RefTverskyCombo>
0.810 

> <ROCS_FitTversky>
1.609 

> <ROCS_FitColorTversky>
0.855 

> <ROCS_FitTverskyCombo>
2.464 

> <ROCS_ColorScore>
-8.370

> <ROCS_Overlap>
1223.931

> <ROCS_Rank>
41                  

$$$$
untitled-dbase-30666_48
  -OEChem-06162310163D

 38 40  0     1  0  0  0  0  0999 V2000
  -10.1318   14.7861  -36.3075 C   0  0  0  0  0  0  0  0  0  0  0  0
  -13.6402   14.0594  -38.7402 C   0  0  0  0  0  0  0  0  0  0  0  0
  -13.4166   16.2910  -39.5285 C   0  0  0  0  0  0  0  0  0  0  0  0
  -12.6477   14.5656  -36.4191 C   0  0  0  0  0  0  0  0  0  0  0  0
  -12.8806   14.8836  -39.7972 C   0  0  1  0  0  0  0  0  0  0  0  0
  -13.6341   14.9881  -37.5023 C   0  0  1  0  0  0  0  0  0  0  0  0
  -13.0014   16.2792  -38.0684 C   0  0  1  0  0  0  0  0  0  0  0  0
  -11.5099   15.8771  -38.0842 C   0  0  2  0  0  0  0  0  0  0  0  0
  -11.4083   15.0155  -39.3625 C   0  0  2  0  0  0  0  0  0  0  0  0
   -9.3324   12.3970  -37.0241 C   0  0  0  0  0  0  0  0  0  0  0  0
   -7.9050   13.4558  -38.7991 C   0  0  0  0  0  0  0  0  0  0  0  0
   -7.2081   13.5882  -36.3898 C   0  0  0  0  0  0  0  0  0  0  0  0
   -8.3921   13.5549  -37.3551 C   0  0  0  0  0  0  0  0  0  0  0  0
  -11.3579   15.0573  -36.8891 N   0  0  0  0  0  0  0  0  0  0  0  0
   -9.9681   14.5730  -35.1083 O   0  0  0  0  0  0  0  0  0  0  0  0
  -10.6543   15.7127  -40.3459 O   0  0  0  0  0  0  0  0  0  0  0  0
   -9.1185   14.7824  -37.2281 O   0  0  0  0  0  0  0  0  0  0  0  0
  -14.6726   13.8932  -39.0698 H   0  0  0  0  0  0  0  0  0  0  0  0
  -13.1822   13.0829  -38.5542 H   0  0  0  0  0  0  0  0  0  0  0  0
  -12.9138   17.0691  -40.1109 H   0  0  0  0  0  0  0  0  0  0  0  0
  -14.5000   16.3709  -39.6649 H   0  0  0  0  0  0  0  0  0  0  0  0
  -12.8616   15.0660  -35.4683 H   0  0  0  0  0  0  0  0  0  0  0  0
  -12.6125   13.4852  -36.2507 H   0  0  0  0  0  0  0  0  0  0  0  0
  -13.0174   14.5429  -40.8257 H   0  0  0  0  0  0  0  0  0  0  0  0
  -14.6467   15.1332  -37.1138 H   0  0  0  0  0  0  0  0  0  0  0  0
  -13.2207   17.1775  -37.4869 H   0  0  0  0  0  0  0  0  0  0  0  0
  -10.8183   16.7253  -38.0826 H   0  0  0  0  0  0  0  0  0  0  0  0
  -10.9290   14.0451  -39.1968 H   0  0  0  0  0  0  0  0  0  0  0  0
   -9.6843   12.4645  -35.9884 H   0  0  0  0  0  0  0  0  0  0  0  0
  -10.2037   12.3827  -37.6870 H   0  0  0  0  0  0  0  0  0  0  0  0
   -8.8145   11.4351  -37.1125 H   0  0  0  0  0  0  0  0  0  0  0  0
   -7.2300   14.2847  -39.0409 H   0  0  0  0  0  0  0  0  0  0  0  0
   -8.7447   13.5270  -39.4999 H   0  0  0  0  0  0  0  0  0  0  0  0
   -7.3780   12.5142  -38.9840 H   0  0  0  0  0  0  0  0  0  0  0  0
   -6.5334   14.4188  -36.6270 H   0  0  0  0  0  0  0  0  0  0  0  0
   -7.5373   13.6963  -35.3512 H   0  0  0  0  0  0  0  0  0  0  0  0
   -6.6119   12.6723  -36.4726 H   0  0  0  0  0  0  0  0  0  0  0  0
   -9.7427   15.7626  -40.0161 H   0  0  0  0  0  0  0  0  0  0  0  0
  1 14  1  0  0  0  0
  1 15  2  0  0  0  0
  1 17  1  0  0  0  0
  2  5  1  0  0  0  0
  2  6  1  0  0  0  0
  3  5  1  0  0  0  0
  3  7  1  0  0  0  0
  4  6  1  0  0  0  0
  4 14  1  0  0  0  0
  5  9  1  0  0  0  0
  6  7  1  0  0  0  0
  7  8  1  0  0  0  0
  8  9  1  0  0  0  0
  8 14  1  0  0  0  0
  9 16  1  0  0  0  0
 10 13  1  0  0  0  0
 11 13  1  0  0  0  0
 12 13  1  0  0  0  0
 13 17  1  0  0  0  0
  2 18  1  0  0  0  0
  2 19  1  0  0  0  0
  3 20  1  0  0  0  0
  3 21  1  0  0  0  0
  4 22  1  0  0  0  0
  4 23  1  0  0  0  0
  5 24  1  0  0  0  0
  6 25  1  0  0  0  0
  7 26  1  0  0  0  0
  8 27  1  0  0  0  0
  9 28  1  0  0  0  0
 10 29  1  0  0  0  0
 10 30  1  0  0  0  0
 10 31  1  0  0  0  0
 11 32  1  0  0  0  0
 11 33  1  0  0  0  0
 11 34  1  0  0  0  0
 12 35  1  0  0  0  0
 12 36  1  0  0  0  0
 12 37  1  0  0  0  0
 16 38  1  0  0  0  0
M  END
> <id>
EN300-209732

> <smiles>
CC(C)(C)OC(=O)N1CC2CC3CC2C1C3O

> <IUPAC Name>
tert-butyl 2-hydroxy-4-azatricyclo[4.2.1.0,3,7]nonane-4-carboxylate

> <CAS>
1699288-66-8

> <URL>
https://www.enaminestore.com/catalog/EN300-209732

> <ROCS_ShapeQuery>
x1247relevant_x1083L0AP1_x1305L0BP1_

> <ROCS_TanimotoCombo>
0.861 

> <ROCS_ShapeTanimoto>
0.514 

> <ROCS_ColorTanimoto>
0.348 

> <ROCS_RefTversky>
0.442 

> <ROCS_RefColorTversky>
0.460 

> <ROCS_RefTverskyCombo>
0.901 

> <ROCS_FitTversky>
1.462 

> <ROCS_FitColorTversky>
0.589 

> <ROCS_FitTverskyCombo>
2.050 

> <ROCS_ColorScore>
-9.920

> <ROCS_Overlap>
1303.601

> <ROCS_Rank>
42                  

$$$$
untitled-dbase-49332_6
  -OEChem-06162310163D

 41 44  0     1  0  0  0  0  0999 V2000
  -15.1842   15.6796  -37.8061 C   0  0  0  0  0  0  0  0  0  0  0  0
  -14.8544   14.7691  -40.1553 C   0  0  0  0  0  0  0  0  0  0  0  0
  -12.0201   14.8641  -35.9679 C   0  0  0  0  0  0  0  0  0  0  0  0
  -10.1363   15.6621  -37.4367 C   0  0  0  0  0  0  0  0  0  0  0  0
  -16.4982   16.0778  -38.4655 C   0  0  0  0  0  0  0  0  0  0  0  0
  -16.1965   14.1180  -39.8360 C   0  0  0  0  0  0  0  0  0  0  0  0
  -11.0150   13.9245  -35.3196 C   0  0  0  0  0  0  0  0  0  0  0  0
   -9.2382   14.6916  -36.6790 C   0  0  0  0  0  0  0  0  0  0  0  0
  -14.1590   15.2030  -38.8498 C   0  0  0  0  0  0  0  0  0  0  0  0
  -11.6221   15.2607  -37.3965 C   0  0  0  0  0  0  0  0  0  0  0  0
  -12.9445   16.1290  -39.0549 C   0  0  1  0  0  0  0  0  0  0  0  0
  -12.0772   14.3086  -38.5245 C   0  0  1  0  0  0  0  0  0  0  0  0
  -13.1314   17.3850  -39.8719 C   0  0  0  0  0  0  0  0  0  0  0  0
  -11.3150   13.0368  -38.8020 C   0  0  0  0  0  0  0  0  0  0  0  0
  -17.1047   14.9990  -39.1747 O   0  0  0  0  0  0  0  0  0  0  0  0
   -9.7081   14.4934  -35.3478 O   0  0  0  0  0  0  0  0  0  0  0  0
  -13.4816   14.0201  -38.3231 O   0  0  0  0  0  0  0  0  0  0  0  0
  -12.3903   16.4497  -37.7591 O   0  0  0  0  0  0  0  0  0  0  0  0
  -12.0228   15.2067  -39.6502 O   0  0  0  0  0  0  0  0  0  0  0  0
  -14.7731   16.5492  -37.2796 H   0  0  0  0  0  0  0  0  0  0  0  0
  -15.3904   14.9041  -37.0627 H   0  0  0  0  0  0  0  0  0  0  0  0
  -14.2451   14.0597  -40.7160 H   0  0  0  0  0  0  0  0  0  0  0  0
  -15.0362   15.6478  -40.7764 H   0  0  0  0  0  0  0  0  0  0  0  0
  -13.0028   14.3640  -36.0011 H   0  0  0  0  0  0  0  0  0  0  0  0
  -12.1329   15.7484  -35.3220 H   0  0  0  0  0  0  0  0  0  0  0  0
   -9.9850   16.6738  -37.0206 H   0  0  0  0  0  0  0  0  0  0  0  0
   -9.7995   15.6925  -38.4882 H   0  0  0  0  0  0  0  0  0  0  0  0
  -17.2155   16.4748  -37.7258 H   0  0  0  0  0  0  0  0  0  0  0  0
  -16.3187   16.8890  -39.1895 H   0  0  0  0  0  0  0  0  0  0  0  0
  -16.6805   13.7890  -40.7730 H   0  0  0  0  0  0  0  0  0  0  0  0
  -16.0666   13.2048  -39.2236 H   0  0  0  0  0  0  0  0  0  0  0  0
  -11.2897   13.6901  -34.2852 H   0  0  0  0  0  0  0  0  0  0  0  0
  -10.9782   12.9811  -35.8722 H   0  0  0  0  0  0  0  0  0  0  0  0
   -9.2401   13.7166  -37.1803 H   0  0  0  0  0  0  0  0  0  0  0  0
   -8.1973   15.0402  -36.6519 H   0  0  0  0  0  0  0  0  0  0  0  0
  -12.1940   17.9469  -39.9375 H   0  0  0  0  0  0  0  0  0  0  0  0
  -13.8880   18.0330  -39.4175 H   0  0  0  0  0  0  0  0  0  0  0  0
  -13.4559   17.1403  -40.8886 H   0  0  0  0  0  0  0  0  0  0  0  0
  -11.7721   12.4845  -39.6296 H   0  0  0  0  0  0  0  0  0  0  0  0
  -11.3095   12.3886  -37.9196 H   0  0  0  0  0  0  0  0  0  0  0  0
  -10.2769   13.2587  -39.0705 H   0  0  0  0  0  0  0  0  0  0  0  0
  1  5  1  0  0  0  0
  1  9  1  0  0  0  0
  2  6  1  0  0  0  0
  2  9  1  0  0  0  0
  3  7  1  0  0  0  0
  3 10  1  0  0  0  0
  4  8  1  0  0  0  0
  4 10  1  0  0  0  0
  5 15  1  0  0  0  0
  6 15  1  0  0  0  0
  7 16  1  0  0  0  0
  8 16  1  0  0  0  0
  9 11  1  0  0  0  0
  9 17  1  0  0  0  0
 10 12  1  0  0  0  0
 10 18  1  0  0  0  0
 11 13  1  0  0  0  0
 11 18  1  0  0  0  0
 11 19  1  0  0  0  0
 12 14  1  0  0  0  0
 12 17  1  0  0  0  0
 12 19  1  0  0  0  0
  1 20  1  0  0  0  0
  1 21  1  0  0  0  0
  2 22  1  0  0  0  0
  2 23  1  0  0  0  0
  3 24  1  0  0  0  0
  3 25  1  0  0  0  0
  4 26  1  0  0  0  0
  4 27  1  0  0  0  0
  5 28  1  0  0  0  0
  5 29  1  0  0  0  0
  6 30  1  0  0  0  0
  6 31  1  0  0  0  0
  7 32  1  0  0  0  0
  7 33  1  0  0  0  0
  8 34  1  0  0  0  0
  8 35  1  0  0  0  0
 13 36  1  0  0  0  0
 13 37  1  0  0  0  0
 13 38  1  0  0  0  0
 14 39  1  0  0  0  0
 14 40  1  0  0  0  0
 14 41  1  0  0  0  0
M  END
> <id>
EN300-39855654

> <smiles>
CC1(OC2(C)OC31CCOCC3)OC42CCOCC4

> <IUPAC Name>
1',4'-dimethyldispiro[oxane-4,2'-[3,6,7]trioxabicyclo[2.2.1]heptane-5',4''-oxane]

> <Purity>
95

> <URL>
https://www.enaminestore.com/catalog/EN300-39855654

> <ROCS_ShapeQuery>
x1247relevant_x1083L0AP1_x1305L0BP1_

> <ROCS_TanimotoCombo>
0.861 

> <ROCS_ShapeTanimoto>
0.525 

> <ROCS_ColorTanimoto>
0.336 

> <ROCS_RefTversky>
0.461 

> <ROCS_RefColorTversky>
0.414 

> <ROCS_RefTverskyCombo>
0.875 

> <ROCS_FitTversky>
1.365 

> <ROCS_FitColorTversky>
0.639 

> <ROCS_FitTverskyCombo>
2.003 

> <ROCS_ColorScore>
-8.877

> <ROCS_Overlap>
1361.345

> <ROCS_Rank>
43                  

$$$$
untitled-dbase-39958_1
  -OEChem-06162310163D

 33 36  0     1  0  0  0  0  0999 V2000
   -9.1104   16.4942  -34.7780 C   0  0  0  0  0  0  0  0  0  0  0  0
  -10.1723   17.3230  -34.5000 C   0  0  0  0  0  0  0  0  0  0  0  0
   -9.4388   15.5173  -35.7634 C   0  0  0  0  0  0  0  0  0  0  0  0
  -10.7510   15.6292  -36.2000 C   0  0  0  0  0  0  0  0  0  0  0  0
   -8.5258   14.4569  -36.2882 C   0  0  0  0  0  0  0  0  0  0  0  0
  -13.5431   14.7853  -39.7001 C   0  0  0  0  0  0  0  0  0  0  0  0
  -12.0288   14.6722  -39.7955 C   0  0  0  0  0  0  0  0  0  0  0  0
  -13.9574   15.0651  -37.2004 C   0  0  0  0  0  0  0  0  0  0  0  0
  -12.7644   14.1668  -36.8386 C   0  0  0  0  0  0  0  0  0  0  0  0
   -9.0741   13.8515  -37.5844 C   0  0  0  0  0  0  0  0  0  0  0  0
  -13.7705   15.7588  -38.5513 C   0  0  1  0  0  0  0  0  0  0  0  0
  -11.5093   15.5086  -38.6241 C   0  0  2  0  0  0  0  0  0  0  0  0
  -11.3782   14.7287  -37.2770 C   0  0  1  0  0  0  0  0  0  0  0  0
  -10.5022   13.5303  -37.4617 N   0  0  0  0  0  0  0  0  0  0  0  0
  -12.5455   16.5026  -38.4838 O   0  0  0  0  0  0  0  0  0  0  0  0
  -11.5537   16.9224  -35.4204 S   0  0  0  0  0  0  0  0  0  0  0  0
   -8.1449   16.5851  -34.2971 H   0  0  0  0  0  0  0  0  0  0  0  0
  -10.2007   18.1453  -33.7989 H   0  0  0  0  0  0  0  0  0  0  0  0
   -7.5263   14.8685  -36.4689 H   0  0  0  0  0  0  0  0  0  0  0  0
   -8.4272   13.6727  -35.5271 H   0  0  0  0  0  0  0  0  0  0  0  0
  -13.9358   15.2021  -40.6350 H   0  0  0  0  0  0  0  0  0  0  0  0
  -14.0360   13.8206  -39.5438 H   0  0  0  0  0  0  0  0  0  0  0  0
  -11.6832   13.6395  -39.8493 H   0  0  0  0  0  0  0  0  0  0  0  0
  -11.7106   15.1470  -40.7330 H   0  0  0  0  0  0  0  0  0  0  0  0
  -14.8784   14.4705  -37.2009 H   0  0  0  0  0  0  0  0  0  0  0  0
  -14.0791   15.8276  -36.4237 H   0  0  0  0  0  0  0  0  0  0  0  0
  -12.7822   13.9371  -35.7652 H   0  0  0  0  0  0  0  0  0  0  0  0
  -12.9418   13.2054  -37.3428 H   0  0  0  0  0  0  0  0  0  0  0  0
   -8.8992   14.5237  -38.4322 H   0  0  0  0  0  0  0  0  0  0  0  0
   -8.5214   12.9305  -37.8016 H   0  0  0  0  0  0  0  0  0  0  0  0
  -14.6039   16.4398  -38.7491 H   0  0  0  0  0  0  0  0  0  0  0  0
  -10.5766   16.0196  -38.8877 H   0  0  0  0  0  0  0  0  0  0  0  0
  -10.8043   12.9650  -38.2498 H   0  0  0  0  0  0  0  0  0  0  0  0
  1  2  2  0  0  0  0
  1  3  1  0  0  0  0
  2 16  1  0  0  0  0
  3  4  2  0  0  0  0
  3  5  1  0  0  0  0
  4 13  1  0  0  0  0
  4 16  1  0  0  0  0
  5 10  1  0  0  0  0
  6  7  1  0  0  0  0
  6 11  1  0  0  0  0
  7 12  1  0  0  0  0
  8  9  1  0  0  0  0
  8 11  1  0  0  0  0
  9 13  1  0  0  0  0
 10 14  1  0  0  0  0
 11 15  1  0  0  0  0
 12 13  1  0  0  0  0
 12 15  1  0  0  0  0
 13 14  1  0  0  0  0
  1 17  1  0  0  0  0
  2 18  1  0  0  0  0
  5 19  1  0  0  0  0
  5 20  1  0  0  0  0
  6 21  1  0  0  0  0
  6 22  1  0  0  0  0
  7 23  1  0  0  0  0
  7 24  1  0  0  0  0
  8 25  1  0  0  0  0
  8 26  1  0  0  0  0
  9 27  1  0  0  0  0
  9 28  1  0  0  0  0
 10 29  1  0  0  0  0
 10 30  1  0  0  0  0
 11 31  1  0  0  0  0
 12 32  1  0  0  0  0
 14 33  1  0  0  0  0
M  END
> <id>
EN300-1075509

> <smiles>
C1CC2OC1CCC32NCCC=4C=CSC43

> <IUPAC Name>
5',6'-dihydro-4'H-8-oxaspiro[bicyclo[3.2.1]octane-2,7'-thieno[2,3-c]pyridine]

> <CAS>
2253632-85-6

> <URL>
https://www.enaminestore.com/catalog/EN300-1075509

> <ROCS_ShapeQuery>
x1247relevant_x1083L0AP1_x1305L0BP1_

> <ROCS_TanimotoCombo>
0.861 

> <ROCS_ShapeTanimoto>
0.464 

> <ROCS_ColorTanimoto>
0.397 

> <ROCS_RefTversky>
0.407 

> <ROCS_RefColorTversky>
0.436 

> <ROCS_RefTverskyCombo>
0.843 

> <ROCS_FitTversky>
1.430 

> <ROCS_FitColorTversky>
0.816 

> <ROCS_FitTverskyCombo>
2.247 

> <ROCS_ColorScore>
-9.282

> <ROCS_Overlap>
1199.563

> <ROCS_Rank>
44                  

$$$$
untitled-dbase-18576_2
  -OEChem-06162310163D

 31 33  0     1  0  0  0  0  0999 V2000
  -14.0090   16.1983  -38.1275 C   0  0  0  0  0  0  0  0  0  0  0  0
  -13.3026   16.3464  -39.4707 C   0  0  0  0  0  0  0  0  0  0  0  0
  -12.1804   15.1835  -36.6955 C   0  0  0  0  0  0  0  0  0  0  0  0
  -10.9989   15.4277  -38.9467 C   0  0  0  0  0  0  0  0  0  0  0  0
   -9.0345   13.6165  -37.1039 C   0  0  0  0  0  0  0  0  0  0  0  0
   -8.9227   14.8564  -36.2511 C   0  0  0  0  0  0  0  0  0  0  0  0
  -13.4475   14.8972  -37.5399 C   0  0  2  0  0  0  0  0  0  0  0  0
  -12.3870   15.1188  -39.5609 C   0  0  1  0  0  0  0  0  0  0  0  0
  -10.8550   14.9889  -37.4684 C   0  0  0  0  0  0  0  0  0  0  0  0
  -14.1852   13.4640  -39.3855 C   0  0  0  0  0  0  0  0  0  0  0  0
  -10.4653   13.5669  -37.3727 N   0  0  0  0  0  0  0  0  0  0  0  0
  -13.0555   14.1071  -38.7219 N   0  0  0  0  0  0  0  0  0  0  0  0
   -9.8297   15.7866  -36.8503 O   0  0  0  0  0  0  0  0  0  0  0  0
  -13.8547   17.0623  -37.4741 H   0  0  0  0  0  0  0  0  0  0  0  0
  -15.0895   16.1074  -38.2918 H   0  0  0  0  0  0  0  0  0  0  0  0
  -14.0454   16.3286  -40.2775 H   0  0  0  0  0  0  0  0  0  0  0  0
  -12.7576   17.2913  -39.5565 H   0  0  0  0  0  0  0  0  0  0  0  0
  -12.2421   16.2091  -36.3039 H   0  0  0  0  0  0  0  0  0  0  0  0
  -12.2010   14.5101  -35.8248 H   0  0  0  0  0  0  0  0  0  0  0  0
  -10.2463   14.9127  -39.5627 H   0  0  0  0  0  0  0  0  0  0  0  0
  -10.8042   16.5054  -39.0390 H   0  0  0  0  0  0  0  0  0  0  0  0
   -8.4319   13.6720  -38.0157 H   0  0  0  0  0  0  0  0  0  0  0  0
   -8.7349   12.7234  -36.5426 H   0  0  0  0  0  0  0  0  0  0  0  0
   -9.2111   14.6818  -35.2115 H   0  0  0  0  0  0  0  0  0  0  0  0
   -7.9154   15.2870  -36.2778 H   0  0  0  0  0  0  0  0  0  0  0  0
  -14.1864   14.3984  -36.9073 H   0  0  0  0  0  0  0  0  0  0  0  0
  -12.2504   14.8033  -40.5987 H   0  0  0  0  0  0  0  0  0  0  0  0
  -13.8247   12.8939  -40.2544 H   0  0  0  0  0  0  0  0  0  0  0  0
  -14.6843   12.7822  -38.6812 H   0  0  0  0  0  0  0  0  0  0  0  0
  -14.8985   14.2313  -39.7209 H   0  0  0  0  0  0  0  0  0  0  0  0
  -10.6001   13.1218  -38.2794 H   0  0  0  0  0  0  0  0  0  0  0  0
  1  2  1  0  0  0  0
  1  7  1  0  0  0  0
  2  8  1  0  0  0  0
  3  7  1  0  0  0  0
  3  9  1  0  0  0  0
  4  8  1  0  0  0  0
  4  9  1  0  0  0  0
  5  6  1  0  0  0  0
  5 11  1  0  0  0  0
  6 13  1  0  0  0  0
  7 12  1  0  0  0  0
  8 12  1  0  0  0  0
  9 11  1  0  0  0  0
  9 13  1  0  0  0  0
 10 12  1  0  0  0  0
  1 14  1  0  0  0  0
  1 15  1  0  0  0  0
  2 16  1  0  0  0  0
  2 17  1  0  0  0  0
  3 18  1  0  0  0  0
  3 19  1  0  0  0  0
  4 20  1  0  0  0  0
  4 21  1  0  0  0  0
  5 22  1  0  0  0  0
  5 23  1  0  0  0  0
  6 24  1  0  0  0  0
  6 25  1  0  0  0  0
  7 26  1  0  0  0  0
  8 27  1  0  0  0  0
 10 28  1  0  0  0  0
 10 29  1  0  0  0  0
 10 30  1  0  0  0  0
 11 31  1  0  0  0  0
M  END
> <id>
EN300-1645501

> <smiles>
CN1C2CCC1CC3(C2)NCCO3

> <MDLNUMBER>
MFCD24508836

> <IUPAC Name>
8-methyl-8-azaspiro[bicyclo[3.2.1]octane-3,2'-[1,3]oxazolidine]

> <CAS>
1824320-49-1

> <URL>
https://www.enaminestore.com/catalog/EN300-1645501

> <ROCS_ShapeQuery>
x1247relevant_x1083L0AP1_x1305L0BP1_

> <ROCS_TanimotoCombo>
0.860 

> <ROCS_ShapeTanimoto>
0.487 

> <ROCS_ColorTanimoto>
0.373 

> <ROCS_RefTversky>
0.407 

> <ROCS_RefColorTversky>
0.416 

> <ROCS_RefTverskyCombo>
0.824 

> <ROCS_FitTversky>
1.677 

> <ROCS_FitColorTversky>
0.781 

> <ROCS_FitTverskyCombo>
2.459 

> <ROCS_ColorScore>
-8.867

> <ROCS_Overlap>
1197.322

> <ROCS_Rank>
45                  

$$$$
untitled-dbase-41812_0
  -OEChem-06162310163D

 28 30  0     1  0  0  0  0  0999 V2000
   -9.3579   15.2942  -36.2308 C   0  0  0  0  0  0  0  0  0  0  0  0
  -13.4856   16.4969  -38.6459 C   0  0  0  0  0  0  0  0  0  0  0  0
  -13.7030   15.7261  -37.3366 C   0  0  0  0  0  0  0  0  0  0  0  0
  -10.8543   15.5658  -36.2733 C   0  0  0  0  0  0  0  0  0  0  0  0
  -13.0836   14.1799  -39.0206 C   0  0  0  0  0  0  0  0  0  0  0  0
  -11.1599   15.5902  -38.8402 C   0  0  0  0  0  0  0  0  0  0  0  0
   -9.1585   14.0357  -37.0618 C   0  0  0  0  0  0  0  0  0  0  0  0
  -12.5755   15.5554  -39.4522 C   0  0  2  0  0  0  0  0  0  0  0  0
  -12.8455   14.4610  -37.5323 C   0  0  1  0  0  0  0  0  0  0  0  0
  -11.3369   14.8132  -37.5062 C   0  0  2  0  0  0  0  0  0  0  0  0
  -10.4981   13.6063  -37.4601 N   0  0  0  0  0  0  0  0  0  0  0  0
   -8.8039   16.1307  -36.6716 H   0  0  0  0  0  0  0  0  0  0  0  0
   -9.0124   15.1660  -35.1999 H   0  0  0  0  0  0  0  0  0  0  0  0
  -14.4429   16.6490  -39.1569 H   0  0  0  0  0  0  0  0  0  0  0  0
  -13.0304   17.4779  -38.4760 H   0  0  0  0  0  0  0  0  0  0  0  0
  -13.4253   16.3133  -36.4574 H   0  0  0  0  0  0  0  0  0  0  0  0
  -14.7613   15.4582  -37.2346 H   0  0  0  0  0  0  0  0  0  0  0  0
  -11.3217   15.1621  -35.3658 H   0  0  0  0  0  0  0  0  0  0  0  0
  -11.0601   16.6406  -36.3058 H   0  0  0  0  0  0  0  0  0  0  0  0
  -14.1388   14.0151  -39.2645 H   0  0  0  0  0  0  0  0  0  0  0  0
  -12.4880   13.3530  -39.4193 H   0  0  0  0  0  0  0  0  0  0  0  0
  -10.4590   15.0869  -39.5175 H   0  0  0  0  0  0  0  0  0  0  0  0
  -10.8007   16.6147  -38.6957 H   0  0  0  0  0  0  0  0  0  0  0  0
   -8.5457   14.2558  -37.9433 H   0  0  0  0  0  0  0  0  0  0  0  0
   -8.6563   13.2491  -36.4908 H   0  0  0  0  0  0  0  0  0  0  0  0
  -12.5905   15.7486  -40.5266 H   0  0  0  0  0  0  0  0  0  0  0  0
  -13.1281   13.6461  -36.8605 H   0  0  0  0  0  0  0  0  0  0  0  0
  -10.4714   13.1250  -38.3567 H   0  0  0  0  0  0  0  0  0  0  0  0
  1  4  1  0  0  0  0
  1  7  1  0  0  0  0
  2  3  1  0  0  0  0
  2  8  1  0  0  0  0
  3  9  1  0  0  0  0
  4 10  1  0  0  0  0
  5  8  1  0  0  0  0
  5  9  1  0  0  0  0
  6  8  1  0  0  0  0
  6 10  1  0  0  0  0
  7 11  1  0  0  0  0
  9 10  1  0  0  0  0
 10 11  1  0  0  0  0
  1 12  1  0  0  0  0
  1 13  1  0  0  0  0
  2 14  1  0  0  0  0
  2 15  1  0  0  0  0
  3 16  1  0  0  0  0
  3 17  1  0  0  0  0
  4 18  1  0  0  0  0
  4 19  1  0  0  0  0
  5 20  1  0  0  0  0
  5 21  1  0  0  0  0
  6 22  1  0  0  0  0
  6 23  1  0  0  0  0
  7 24  1  0  0  0  0
  7 25  1  0  0  0  0
  8 26  1  0  0  0  0
  9 27  1  0  0  0  0
 11 28  1  0  0  0  0
M  END
> <id>
EN300-27150167

> <smiles>
Cl.C1CNC2(C1)CC3CCC2C3

> <MDLNUMBER>
MFCD32859429

> <IUPAC Name>
spiro[bicyclo[2.2.1]heptane-2,2'-pyrrolidine] hydrochloride

> <CAS>
2503208-78-2

> <Purity>
95

> <URL>
https://www.enaminestore.com/catalog/EN300-27150167

> <Saltdate>
Cl

> <ROCS_ShapeQuery>
x1247relevant_x1083L0AP1_x1305L0BP1_

> <ROCS_TanimotoCombo>
0.859 

> <ROCS_ShapeTanimoto>
0.459 

> <ROCS_ColorTanimoto>
0.400 

> <ROCS_RefTversky>
0.381 

> <ROCS_RefColorTversky>
0.419 

> <ROCS_RefTverskyCombo>
0.801 

> <ROCS_FitTversky>
1.795 

> <ROCS_FitColorTversky>
0.896 

> <ROCS_FitTverskyCombo>
2.691 

> <ROCS_ColorScore>
-8.902

> <ROCS_Overlap>
1118.892

> <ROCS_Rank>
46                  

$$$$
untitled-dbase-40338_0
  -OEChem-06162310163D

 28 30  0     1  0  0  0  0  0999 V2000
   -9.3579   15.2942  -36.2308 C   0  0  0  0  0  0  0  0  0  0  0  0
  -13.4856   16.4969  -38.6459 C   0  0  0  0  0  0  0  0  0  0  0  0
  -13.7030   15.7261  -37.3366 C   0  0  0  0  0  0  0  0  0  0  0  0
  -10.8543   15.5658  -36.2733 C   0  0  0  0  0  0  0  0  0  0  0  0
  -13.0836   14.1799  -39.0206 C   0  0  0  0  0  0  0  0  0  0  0  0
  -11.1599   15.5902  -38.8402 C   0  0  0  0  0  0  0  0  0  0  0  0
   -9.1585   14.0357  -37.0618 C   0  0  0  0  0  0  0  0  0  0  0  0
  -12.5755   15.5554  -39.4522 C   0  0  2  0  0  0  0  0  0  0  0  0
  -12.8455   14.4610  -37.5323 C   0  0  1  0  0  0  0  0  0  0  0  0
  -11.3369   14.8132  -37.5062 C   0  0  2  0  0  0  0  0  0  0  0  0
  -10.4981   13.6063  -37.4601 N   0  0  0  0  0  0  0  0  0  0  0  0
   -8.8039   16.1307  -36.6716 H   0  0  0  0  0  0  0  0  0  0  0  0
   -9.0124   15.1660  -35.1999 H   0  0  0  0  0  0  0  0  0  0  0  0
  -14.4429   16.6490  -39.1569 H   0  0  0  0  0  0  0  0  0  0  0  0
  -13.0304   17.4779  -38.4760 H   0  0  0  0  0  0  0  0  0  0  0  0
  -13.4253   16.3133  -36.4574 H   0  0  0  0  0  0  0  0  0  0  0  0
  -14.7613   15.4582  -37.2346 H   0  0  0  0  0  0  0  0  0  0  0  0
  -11.3217   15.1621  -35.3658 H   0  0  0  0  0  0  0  0  0  0  0  0
  -11.0601   16.6406  -36.3058 H   0  0  0  0  0  0  0  0  0  0  0  0
  -14.1388   14.0151  -39.2645 H   0  0  0  0  0  0  0  0  0  0  0  0
  -12.4880   13.3530  -39.4193 H   0  0  0  0  0  0  0  0  0  0  0  0
  -10.4590   15.0869  -39.5175 H   0  0  0  0  0  0  0  0  0  0  0  0
  -10.8007   16.6147  -38.6957 H   0  0  0  0  0  0  0  0  0  0  0  0
   -8.5457   14.2558  -37.9433 H   0  0  0  0  0  0  0  0  0  0  0  0
   -8.6563   13.2491  -36.4908 H   0  0  0  0  0  0  0  0  0  0  0  0
  -12.5905   15.7486  -40.5266 H   0  0  0  0  0  0  0  0  0  0  0  0
  -13.1281   13.6461  -36.8605 H   0  0  0  0  0  0  0  0  0  0  0  0
  -10.4714   13.1250  -38.3567 H   0  0  0  0  0  0  0  0  0  0  0  0
  1  4  1  0  0  0  0
  1  7  1  0  0  0  0
  2  3  1  0  0  0  0
  2  8  1  0  0  0  0
  3  9  1  0  0  0  0
  4 10  1  0  0  0  0
  5  8  1  0  0  0  0
  5  9  1  0  0  0  0
  6  8  1  0  0  0  0
  6 10  1  0  0  0  0
  7 11  1  0  0  0  0
  9 10  1  0  0  0  0
 10 11  1  0  0  0  0
  1 12  1  0  0  0  0
  1 13  1  0  0  0  0
  2 14  1  0  0  0  0
  2 15  1  0  0  0  0
  3 16  1  0  0  0  0
  3 17  1  0  0  0  0
  4 18  1  0  0  0  0
  4 19  1  0  0  0  0
  5 20  1  0  0  0  0
  5 21  1  0  0  0  0
  6 22  1  0  0  0  0
  6 23  1  0  0  0  0
  7 24  1  0  0  0  0
  7 25  1  0  0  0  0
  8 26  1  0  0  0  0
  9 27  1  0  0  0  0
 11 28  1  0  0  0  0
M  END
> <id>
EN300-6880612

> <smiles>
C1CNC2(C1)CC3CCC2C3

> <MDLNUMBER>
MFCD32859448

> <IUPAC Name>
spiro[bicyclo[2.2.1]heptane-2,2'-pyrrolidine]

> <CAS>
172-64-5

> <URL>
https://www.enaminestore.com/catalog/EN300-6880612

> <ROCS_ShapeQuery>
x1247relevant_x1083L0AP1_x1305L0BP1_

> <ROCS_TanimotoCombo>
0.859 

> <ROCS_ShapeTanimoto>
0.459 

> <ROCS_ColorTanimoto>
0.400 

> <ROCS_RefTversky>
0.381 

> <ROCS_RefColorTversky>
0.419 

> <ROCS_RefTverskyCombo>
0.801 

> <ROCS_FitTversky>
1.795 

> <ROCS_FitColorTversky>
0.896 

> <ROCS_FitTverskyCombo>
2.691 

> <ROCS_ColorScore>
-8.902

> <ROCS_Overlap>
1118.892

> <ROCS_Rank>
47                  

$$$$
untitled-dbase-40513_4
  -OEChem-06162310163D

 33 35  0     1  0  0  0  0  0999 V2000
   -9.2042   15.3006  -36.3054 C   0  0  0  0  0  0  0  0  0  0  0  0
  -14.2746   14.6567  -39.0973 C   0  0  0  0  0  0  0  0  0  0  0  0
  -13.3379   15.3426  -40.0844 C   0  0  0  0  0  0  0  0  0  0  0  0
  -10.7123   15.5241  -36.3044 C   0  0  0  0  0  0  0  0  0  0  0  0
  -12.7012   14.1734  -37.1667 C   0  0  0  0  0  0  0  0  0  0  0  0
  -11.1342   15.3650  -38.8195 C   0  0  0  0  0  0  0  0  0  0  0  0
   -8.9908   14.0324  -37.1137 C   0  0  0  0  0  0  0  0  0  0  0  0
  -13.7889   15.1270  -37.7208 C   0  0  1  0  0  0  0  0  0  0  0  0
  -12.3967   16.1765  -39.2055 C   0  0  2  0  0  0  0  0  0  0  0  0
  -11.2509   14.6390  -37.4477 C   0  0  0  0  0  0  0  0  0  0  0  0
  -14.1508   17.5117  -38.1418 C   0  0  0  0  0  0  0  0  0  0  0  0
  -10.3285   13.4959  -37.3467 N   0  0  0  0  0  0  0  0  0  0  0  0
  -13.1735   16.4395  -37.9816 N   0  0  0  0  0  0  0  0  0  0  0  0
   -8.7000   16.1487  -36.7876 H   0  0  0  0  0  0  0  0  0  0  0  0
   -8.8136   15.2168  -35.2842 H   0  0  0  0  0  0  0  0  0  0  0  0
  -15.3024   14.9963  -39.2740 H   0  0  0  0  0  0  0  0  0  0  0  0
  -14.2785   13.5680  -39.1988 H   0  0  0  0  0  0  0  0  0  0  0  0
  -12.8249   14.6691  -40.7737 H   0  0  0  0  0  0  0  0  0  0  0  0
  -13.9317   16.0139  -40.7193 H   0  0  0  0  0  0  0  0  0  0  0  0
  -11.1235   15.1988  -35.3377 H   0  0  0  0  0  0  0  0  0  0  0  0
  -10.9650   16.5841  -36.4266 H   0  0  0  0  0  0  0  0  0  0  0  0
  -12.8456   14.0863  -36.0819 H   0  0  0  0  0  0  0  0  0  0  0  0
  -12.8623   13.1682  -37.5739 H   0  0  0  0  0  0  0  0  0  0  0  0
  -10.9082   14.6597  -39.6262 H   0  0  0  0  0  0  0  0  0  0  0  0
  -10.2855   16.0594  -38.7839 H   0  0  0  0  0  0  0  0  0  0  0  0
   -8.4883   14.2601  -38.0538 H   0  0  0  0  0  0  0  0  0  0  0  0
   -8.3894   13.3093  -36.5650 H   0  0  0  0  0  0  0  0  0  0  0  0
  -14.6161   15.1685  -37.0042 H   0  0  0  0  0  0  0  0  0  0  0  0
  -12.0805   17.0903  -39.7218 H   0  0  0  0  0  0  0  0  0  0  0  0
  -13.6274   18.4601  -38.3330 H   0  0  0  0  0  0  0  0  0  0  0  0
  -14.8125   17.2808  -38.9897 H   0  0  0  0  0  0  0  0  0  0  0  0
  -14.7496   17.6022  -37.2235 H   0  0  0  0  0  0  0  0  0  0  0  0
  -10.3271   12.8894  -38.1595 H   0  0  0  0  0  0  0  0  0  0  0  0
  1  4  1  0  0  0  0
  1  7  1  0  0  0  0
  2  3  1  0  0  0  0
  2  8  1  0  0  0  0
  3  9  1  0  0  0  0
  4 10  1  0  0  0  0
  5  8  1  0  0  0  0
  5 10  1  0  0  0  0
  6  9  1  0  0  0  0
  6 10  1  0  0  0  0
  7 12  1  0  0  0  0
  8 13  1  0  0  0  0
  9 13  1  0  0  0  0
 10 12  1  0  0  0  0
 11 13  1  0  0  0  0
  1 14  1  0  0  0  0
  1 15  1  0  0  0  0
  2 16  1  0  0  0  0
  2 17  1  0  0  0  0
  3 18  1  0  0  0  0
  3 19  1  0  0  0  0
  4 20  1  0  0  0  0
  4 21  1  0  0  0  0
  5 22  1  0  0  0  0
  5 23  1  0  0  0  0
  6 24  1  0  0  0  0
  6 25  1  0  0  0  0
  7 26  1  0  0  0  0
  7 27  1  0  0  0  0
  8 28  1  0  0  0  0
  9 29  1  0  0  0  0
 11 30  1  0  0  0  0
 11 31  1  0  0  0  0
 11 32  1  0  0  0  0
 12 33  1  0  0  0  0
M  END
> <id>
EN300-27114708

> <smiles>
CN1C2CCC1CC3(CCCN3)C2

> <MDLNUMBER>
MFCD32853136

> <IUPAC Name>
8-methyl-8-azaspiro[bicyclo[3.2.1]octane-3,2'-pyrrolidine]

> <CAS>
1502182-86-6

> <URL>
https://www.enaminestore.com/catalog/EN300-27114708

> <ROCS_ShapeQuery>
x1247relevant_x1083L0AP1_x1305L0BP1_

> <ROCS_TanimotoCombo>
0.859 

> <ROCS_ShapeTanimoto>
0.496 

> <ROCS_ColorTanimoto>
0.362 

> <ROCS_RefTversky>
0.411 

> <ROCS_RefColorTversky>
0.396 

> <ROCS_RefTverskyCombo>
0.807 

> <ROCS_FitTversky>
1.715 

> <ROCS_FitColorTversky>
0.810 

> <ROCS_FitTverskyCombo>
2.525 

> <ROCS_ColorScore>
-8.415

> <ROCS_Overlap>
1208.590

> <ROCS_Rank>
48                  

$$$$
untitled-dbase-40512_4
  -OEChem-06162310163D

 33 35  0     1  0  0  0  0  0999 V2000
   -9.2042   15.3006  -36.3054 C   0  0  0  0  0  0  0  0  0  0  0  0
  -14.2746   14.6567  -39.0973 C   0  0  0  0  0  0  0  0  0  0  0  0
  -13.3379   15.3426  -40.0844 C   0  0  0  0  0  0  0  0  0  0  0  0
  -10.7123   15.5241  -36.3044 C   0  0  0  0  0  0  0  0  0  0  0  0
  -12.7012   14.1734  -37.1667 C   0  0  0  0  0  0  0  0  0  0  0  0
  -11.1342   15.3650  -38.8195 C   0  0  0  0  0  0  0  0  0  0  0  0
   -8.9908   14.0324  -37.1137 C   0  0  0  0  0  0  0  0  0  0  0  0
  -13.7889   15.1270  -37.7208 C   0  0  1  0  0  0  0  0  0  0  0  0
  -12.3967   16.1765  -39.2055 C   0  0  2  0  0  0  0  0  0  0  0  0
  -11.2509   14.6390  -37.4477 C   0  0  0  0  0  0  0  0  0  0  0  0
  -14.1508   17.5117  -38.1418 C   0  0  0  0  0  0  0  0  0  0  0  0
  -10.3285   13.4959  -37.3467 N   0  0  0  0  0  0  0  0  0  0  0  0
  -13.1735   16.4395  -37.9816 N   0  0  0  0  0  0  0  0  0  0  0  0
   -8.7000   16.1487  -36.7876 H   0  0  0  0  0  0  0  0  0  0  0  0
   -8.8136   15.2168  -35.2842 H   0  0  0  0  0  0  0  0  0  0  0  0
  -15.3024   14.9963  -39.2740 H   0  0  0  0  0  0  0  0  0  0  0  0
  -14.2785   13.5680  -39.1988 H   0  0  0  0  0  0  0  0  0  0  0  0
  -12.8249   14.6691  -40.7737 H   0  0  0  0  0  0  0  0  0  0  0  0
  -13.9317   16.0139  -40.7193 H   0  0  0  0  0  0  0  0  0  0  0  0
  -11.1235   15.1988  -35.3377 H   0  0  0  0  0  0  0  0  0  0  0  0
  -10.9650   16.5841  -36.4266 H   0  0  0  0  0  0  0  0  0  0  0  0
  -12.8456   14.0863  -36.0819 H   0  0  0  0  0  0  0  0  0  0  0  0
  -12.8623   13.1682  -37.5739 H   0  0  0  0  0  0  0  0  0  0  0  0
  -10.9082   14.6597  -39.6262 H   0  0  0  0  0  0  0  0  0  0  0  0
  -10.2855   16.0594  -38.7839 H   0  0  0  0  0  0  0  0  0  0  0  0
   -8.4883   14.2601  -38.0538 H   0  0  0  0  0  0  0  0  0  0  0  0
   -8.3894   13.3093  -36.5650 H   0  0  0  0  0  0  0  0  0  0  0  0
  -14.6161   15.1685  -37.0042 H   0  0  0  0  0  0  0  0  0  0  0  0
  -12.0805   17.0903  -39.7218 H   0  0  0  0  0  0  0  0  0  0  0  0
  -13.6274   18.4601  -38.3330 H   0  0  0  0  0  0  0  0  0  0  0  0
  -14.8125   17.2808  -38.9897 H   0  0  0  0  0  0  0  0  0  0  0  0
  -14.7496   17.6022  -37.2235 H   0  0  0  0  0  0  0  0  0  0  0  0
  -10.3271   12.8894  -38.1595 H   0  0  0  0  0  0  0  0  0  0  0  0
  1  4  1  0  0  0  0
  1  7  1  0  0  0  0
  2  3  1  0  0  0  0
  2  8  1  0  0  0  0
  3  9  1  0  0  0  0
  4 10  1  0  0  0  0
  5  8  1  0  0  0  0
  5 10  1  0  0  0  0
  6  9  1  0  0  0  0
  6 10  1  0  0  0  0
  7 12  1  0  0  0  0
  8 13  1  0  0  0  0
  9 13  1  0  0  0  0
 10 12  1  0  0  0  0
 11 13  1  0  0  0  0
  1 14  1  0  0  0  0
  1 15  1  0  0  0  0
  2 16  1  0  0  0  0
  2 17  1  0  0  0  0
  3 18  1  0  0  0  0
  3 19  1  0  0  0  0
  4 20  1  0  0  0  0
  4 21  1  0  0  0  0
  5 22  1  0  0  0  0
  5 23  1  0  0  0  0
  6 24  1  0  0  0  0
  6 25  1  0  0  0  0
  7 26  1  0  0  0  0
  7 27  1  0  0  0  0
  8 28  1  0  0  0  0
  9 29  1  0  0  0  0
 11 30  1  0  0  0  0
 11 31  1  0  0  0  0
 11 32  1  0  0  0  0
 12 33  1  0  0  0  0
M  END
> <id>
EN300-27114707

> <smiles>
Cl.Cl.CN1C2CCC1CC3(CCCN3)C2

> <MDLNUMBER>
MFCD32853135

> <IUPAC Name>
8-methyl-8-azaspiro[bicyclo[3.2.1]octane-3,2'-pyrrolidine] dihydrochloride

> <CAS>
2649011-63-0

> <Purity>
95

> <URL>
https://www.enaminestore.com/catalog/EN300-27114707

> <ROCS_ShapeQuery>
x1247relevant_x1083L0AP1_x1305L0BP1_

> <ROCS_TanimotoCombo>
0.859 

> <ROCS_ShapeTanimoto>
0.496 

> <ROCS_ColorTanimoto>
0.362 

> <ROCS_RefTversky>
0.411 

> <ROCS_RefColorTversky>
0.396 

> <ROCS_RefTverskyCombo>
0.807 

> <ROCS_FitTversky>
1.715 

> <ROCS_FitColorTversky>
0.810 

> <ROCS_FitTverskyCombo>
2.525 

> <ROCS_ColorScore>
-8.415

> <ROCS_Overlap>
1208.590

> <ROCS_Rank>
49                  

$$$$
untitled-dbase-16527_4
  -OEChem-06162310163D

 34 36  0     1  0  0  0  0  0999 V2000
  -12.0304   14.9108  -39.8077 C   0  0  0  0  0  0  0  0  0  0  0  0
  -12.3741   16.8257  -38.2916 C   0  0  0  0  0  0  0  0  0  0  0  0
   -8.7651   15.1252  -36.6846 C   0  0  0  0  0  0  0  0  0  0  0  0
  -13.4709   14.4913  -39.4737 C   0  0  0  0  0  0  0  0  0  0  0  0
  -13.7444   16.2723  -37.8745 C   0  0  0  0  0  0  0  0  0  0  0  0
   -9.0917   13.8987  -37.5336 C   0  0  0  0  0  0  0  0  0  0  0  0
  -12.8499   14.1400  -37.1782 C   0  0  0  0  0  0  0  0  0  0  0  0
  -11.4269   15.6456  -38.5967 C   0  0  0  0  0  0  0  0  0  0  0  0
   -9.8209   15.3904  -35.6157 C   0  0  2  0  0  0  0  0  0  0  0  0
  -11.4018   14.6945  -37.3562 C   0  0  2  0  0  0  0  0  0  0  0  0
   -9.8168   14.3582  -34.4907 C   0  0  0  0  0  0  0  0  0  0  0  0
  -10.5044   13.5456  -37.5063 N   0  0  0  0  0  0  0  0  0  0  0  0
  -13.8254   14.8104  -38.0729 N   0  0  0  0  0  0  0  0  0  0  0  0
  -11.1340   15.4821  -36.1735 O   0  0  0  0  0  0  0  0  0  0  0  0
  -11.4309   14.0420  -40.0959 H   0  0  0  0  0  0  0  0  0  0  0  0
  -12.0412   15.5804  -40.6766 H   0  0  0  0  0  0  0  0  0  0  0  0
  -12.4806   17.4557  -39.1829 H   0  0  0  0  0  0  0  0  0  0  0  0
  -11.9677   17.4627  -37.4990 H   0  0  0  0  0  0  0  0  0  0  0  0
   -7.7814   14.9626  -36.2035 H   0  0  0  0  0  0  0  0  0  0  0  0
   -8.6455   16.0100  -37.3359 H   0  0  0  0  0  0  0  0  0  0  0  0
  -14.1758   14.9843  -40.1557 H   0  0  0  0  0  0  0  0  0  0  0  0
  -13.5953   13.4157  -39.6519 H   0  0  0  0  0  0  0  0  0  0  0  0
  -13.9458   16.5147  -36.8231 H   0  0  0  0  0  0  0  0  0  0  0  0
  -14.5366   16.7697  -38.4478 H   0  0  0  0  0  0  0  0  0  0  0  0
   -8.7490   14.0544  -38.5745 H   0  0  0  0  0  0  0  0  0  0  0  0
   -8.5042   13.0396  -37.1602 H   0  0  0  0  0  0  0  0  0  0  0  0
  -12.8997   13.0606  -37.3779 H   0  0  0  0  0  0  0  0  0  0  0  0
  -13.1842   14.2533  -36.1382 H   0  0  0  0  0  0  0  0  0  0  0  0
  -10.4362   16.0403  -38.8460 H   0  0  0  0  0  0  0  0  0  0  0  0
   -9.5942   16.3890  -35.1283 H   0  0  0  0  0  0  0  0  0  0  0  0
  -10.0297   13.3669  -34.8918 H   0  0  0  0  0  0  0  0  0  0  0  0
  -10.5764   14.6095  -33.7498 H   0  0  0  0  0  0  0  0  0  0  0  0
   -8.8413   14.3397  -34.0036 H   0  0  0  0  0  0  0  0  0  0  0  0
  -10.7410   12.9950  -38.3413 H   0  0  0  0  0  0  0  0  0  0  0  0
  1  4  1  0  0  0  0
  1  8  1  0  0  0  0
  2  5  1  0  0  0  0
  2  8  1  0  0  0  0
  3  6  1  0  0  0  0
  3  9  1  0  0  0  0
  4 13  1  0  0  0  0
  5 13  1  0  0  0  0
  6 12  1  0  0  0  0
  7 10  1  0  0  0  0
  7 13  1  0  0  0  0
  8 10  1  0  0  0  0
  9 11  1  0  0  0  0
  9 14  1  0  0  0  0
 10 12  1  0  0  0  0
 10 14  1  0  0  0  0
  1 15  1  0  0  0  0
  1 16  1  0  0  0  0
  2 17  1  0  0  0  0
  2 18  1  0  0  0  0
  3 19  1  0  0  0  0
  3 20  1  0  0  0  0
  4 21  1  0  0  0  0
  4 22  1  0  0  0  0
  5 23  1  0  0  0  0
  5 24  1  0  0  0  0
  6 25  1  0  0  0  0
  6 26  1  0  0  0  0
  7 27  1  0  0  0  0
  7 28  1  0  0  0  0
  8 29  1  0  0  0  0
  9 30  1  0  0  0  0
 11 31  1  0  0  0  0
 11 32  1  0  0  0  0
 11 33  1  0  0  0  0
 12 34  1  0  0  0  0
M  END
> <id>
EN300-1278636

> <smiles>
CC1CCNC2(CN3CCC2CC3)O1

> <IUPAC Name>
6'-methyl-4-azaspiro[bicyclo[2.2.2]octane-2,2'-[1,3]oxazinane]

> <CAS>
2167549-16-6

> <URL>
https://www.enaminestore.com/catalog/EN300-1278636

> <ROCS_ShapeQuery>
x1247relevant_x1083L0AP1_x1305L0BP1_

> <ROCS_TanimotoCombo>
0.858 

> <ROCS_ShapeTanimoto>
0.495 

> <ROCS_ColorTanimoto>
0.363 

> <ROCS_RefTversky>
0.415 

> <ROCS_RefColorTversky>
0.411 

> <ROCS_RefTverskyCombo>
0.827 

> <ROCS_FitTversky>
1.631 

> <ROCS_FitColorTversky>
0.755 

> <ROCS_FitTverskyCombo>
2.387 

> <ROCS_ColorScore>
-8.769

> <ROCS_Overlap>
1221.845

> <ROCS_Rank>
50                  

$$$$
untitled-dbase-35825_6
  -OEChem-06162310163D

 36 38  0     1  0  0  0  0  0999 V2000
   -9.3941   15.8951  -36.1031 C   0  0  0  0  0  0  0  0  0  0  0  0
   -8.5584   14.6272  -36.1918 C   0  0  0  0  0  0  0  0  0  0  0  0
  -13.2791   15.3542  -40.1231 C   0  0  0  0  0  0  0  0  0  0  0  0
  -14.2268   14.6001  -39.1988 C   0  0  0  0  0  0  0  0  0  0  0  0
  -10.8846   15.5627  -36.1830 C   0  0  0  0  0  0  0  0  0  0  0  0
  -11.1441   15.4422  -38.7491 C   0  0  0  0  0  0  0  0  0  0  0  0
  -12.7307   14.1469  -37.2006 C   0  0  0  0  0  0  0  0  0  0  0  0
   -8.9579   13.7898  -37.3994 C   0  0  0  0  0  0  0  0  0  0  0  0
  -12.4216   16.2065  -39.1787 C   0  0  2  0  0  0  0  0  0  0  0  0
  -13.8323   15.0623  -37.7906 C   0  0  1  0  0  0  0  0  0  0  0  0
  -11.2691   14.6636  -37.4011 C   0  0  0  0  0  0  0  0  0  0  0  0
  -14.2872   17.4356  -38.1801 C   0  0  0  0  0  0  0  0  0  0  0  0
  -10.3857   13.4773  -37.3849 N   0  0  0  0  0  0  0  0  0  0  0  0
  -13.2697   16.4060  -37.9935 N   0  0  0  0  0  0  0  0  0  0  0  0
   -9.1768   16.4218  -35.1645 H   0  0  0  0  0  0  0  0  0  0  0  0
   -9.1227   16.5785  -36.9180 H   0  0  0  0  0  0  0  0  0  0  0  0
   -7.4963   14.8946  -36.2652 H   0  0  0  0  0  0  0  0  0  0  0  0
   -8.6755   14.0387  -35.2747 H   0  0  0  0  0  0  0  0  0  0  0  0
  -12.6855   14.6900  -40.7579 H   0  0  0  0  0  0  0  0  0  0  0  0
  -13.8606   15.9991  -40.7934 H   0  0  0  0  0  0  0  0  0  0  0  0
  -15.2605   14.8928  -39.4194 H   0  0  0  0  0  0  0  0  0  0  0  0
  -14.1683   13.5153  -39.3241 H   0  0  0  0  0  0  0  0  0  0  0  0
  -11.1956   15.0788  -35.2449 H   0  0  0  0  0  0  0  0  0  0  0  0
  -11.4509   16.5065  -36.2354 H   0  0  0  0  0  0  0  0  0  0  0  0
  -10.8400   14.7667  -39.5590 H   0  0  0  0  0  0  0  0  0  0  0  0
  -10.3317   16.1775  -38.6636 H   0  0  0  0  0  0  0  0  0  0  0  0
  -12.9247   14.0512  -36.1224 H   0  0  0  0  0  0  0  0  0  0  0  0
  -12.8615   13.1363  -37.6010 H   0  0  0  0  0  0  0  0  0  0  0  0
   -8.7350   14.3487  -38.3113 H   0  0  0  0  0  0  0  0  0  0  0  0
   -8.3593   12.8792  -37.4491 H   0  0  0  0  0  0  0  0  0  0  0  0
  -12.1210   17.1436  -39.6619 H   0  0  0  0  0  0  0  0  0  0  0  0
  -14.6956   15.0488  -37.1173 H   0  0  0  0  0  0  0  0  0  0  0  0
  -14.8833   17.5335  -37.2609 H   0  0  0  0  0  0  0  0  0  0  0  0
  -13.8000   18.3958  -38.4051 H   0  0  0  0  0  0  0  0  0  0  0  0
  -14.9451   17.1536  -39.0154 H   0  0  0  0  0  0  0  0  0  0  0  0
  -10.5937   12.9007  -38.2003 H   0  0  0  0  0  0  0  0  0  0  0  0
  1  2  1  0  0  0  0
  1  5  1  0  0  0  0
  2  8  1  0  0  0  0
  3  4  1  0  0  0  0
  3  9  1  0  0  0  0
  4 10  1  0  0  0  0
  5 11  1  0  0  0  0
  6  9  1  0  0  0  0
  6 11  1  0  0  0  0
  7 10  1  0  0  0  0
  7 11  1  0  0  0  0
  8 13  1  0  0  0  0
  9 14  1  0  0  0  0
 10 14  1  0  0  0  0
 11 13  1  0  0  0  0
 12 14  1  0  0  0  0
  1 15  1  0  0  0  0
  1 16  1  0  0  0  0
  2 17  1  0  0  0  0
  2 18  1  0  0  0  0
  3 19  1  0  0  0  0
  3 20  1  0  0  0  0
  4 21  1  0  0  0  0
  4 22  1  0  0  0  0
  5 23  1  0  0  0  0
  5 24  1  0  0  0  0
  6 25  1  0  0  0  0
  6 26  1  0  0  0  0
  7 27  1  0  0  0  0
  7 28  1  0  0  0  0
  8 29  1  0  0  0  0
  8 30  1  0  0  0  0
  9 31  1  0  0  0  0
 10 32  1  0  0  0  0
 12 33  1  0  0  0  0
 12 34  1  0  0  0  0
 12 35  1  0  0  0  0
 13 36  1  0  0  0  0
M  END
> <id>
EN300-1461639

> <smiles>
CN1C2CCC1CC3(CCCCN3)C2

> <IUPAC Name>
8-methyl-8-azaspiro[bicyclo[3.2.1]octane-3,2'-piperidine]

> <CAS>
2172235-47-9

> <URL>
https://www.enaminestore.com/catalog/EN300-1461639

> <ROCS_ShapeQuery>
x1247relevant_x1083L0AP1_x1305L0BP1_

> <ROCS_TanimotoCombo>
0.857 

> <ROCS_ShapeTanimoto>
0.500 

> <ROCS_ColorTanimoto>
0.357 

> <ROCS_RefTversky>
0.417 

> <ROCS_RefColorTversky>
0.391 

> <ROCS_RefTverskyCombo>
0.809 

> <ROCS_FitTversky>
1.659 

> <ROCS_FitColorTversky>
0.801 

> <ROCS_FitTverskyCombo>
2.460 

> <ROCS_ColorScore>
-8.316

> <ROCS_Overlap>
1227.258

> <ROCS_Rank>
51                  

$$$$
untitled-dbase-30142_0
  -OEChem-06162310163D

 25 27  0     1  0  0  0  0  0999 V2000
  -10.7399   16.4421  -35.3900 C   0  0  0  0  0  0  0  0  0  0  0  0
  -12.0069   16.5628  -35.9671 C   0  0  0  0  0  0  0  0  0  0  0  0
   -9.7897   15.5380  -35.9067 C   0  0  0  0  0  0  0  0  0  0  0  0
  -12.2858   15.7592  -37.0494 C   0  0  0  0  0  0  0  0  0  0  0  0
  -11.3410   14.8609  -37.5644 C   0  0  0  0  0  0  0  0  0  0  0  0
  -10.0861   14.7354  -37.0118 C   0  0  0  0  0  0  0  0  0  0  0  0
  -13.4854   15.6324  -37.9310 C   0  0  1  0  0  0  0  0  0  0  0  0
  -11.9964   14.2024  -38.7388 C   0  0  2  0  0  0  0  0  0  0  0  0
  -13.1593   16.2269  -39.3109 C   0  0  1  0  0  0  0  0  0  0  0  0
  -12.1864   15.1778  -39.9076 C   0  0  1  0  0  0  0  0  0  0  0  0
   -9.1359   13.8440  -37.5324 N   0  0  0  0  0  0  0  0  0  0  0  0
  -13.3670   14.2001  -38.2286 O   0  0  0  0  0  0  0  0  0  0  0  0
  -14.3531   16.2790  -40.0812 O   0  0  0  0  0  0  0  0  0  0  0  0
  -10.9585   15.7434  -40.3198 O   0  0  0  0  0  0  0  0  0  0  0  0
  -10.4795   17.0566  -34.5321 H   0  0  0  0  0  0  0  0  0  0  0  0
  -12.7345   17.2642  -35.5762 H   0  0  0  0  0  0  0  0  0  0  0  0
   -8.8128   15.4766  -35.4320 H   0  0  0  0  0  0  0  0  0  0  0  0
  -14.4569   15.8558  -37.4872 H   0  0  0  0  0  0  0  0  0  0  0  0
  -11.6512   13.1957  -38.9803 H   0  0  0  0  0  0  0  0  0  0  0  0
  -12.7403   17.2374  -39.2526 H   0  0  0  0  0  0  0  0  0  0  0  0
  -12.6432   14.6635  -40.7615 H   0  0  0  0  0  0  0  0  0  0  0  0
   -8.2145   13.8150  -37.1357 H   0  0  0  0  0  0  0  0  0  0  0  0
   -9.3546   13.3122  -38.3549 H   0  0  0  0  0  0  0  0  0  0  0  0
  -14.6747   15.3665  -40.1606 H   0  0  0  0  0  0  0  0  0  0  0  0
  -10.5895   16.2192  -39.5552 H   0  0  0  0  0  0  0  0  0  0  0  0
  1  2  2  0  0  0  0
  1  3  1  0  0  0  0
  2  4  1  0  0  0  0
  3  6  2  0  0  0  0
  4  5  2  0  0  0  0
  4  7  1  0  0  0  0
  5  6  1  0  0  0  0
  5  8  1  0  0  0  0
  6 11  1  0  0  0  0
  7  9  1  0  0  0  0
  7 12  1  0  0  0  0
  8 10  1  0  0  0  0
  8 12  1  0  0  0  0
  9 10  1  0  0  0  0
  9 13  1  0  0  0  0
 10 14  1  0  0  0  0
  1 15  1  0  0  0  0
  2 16  1  0  0  0  0
  3 17  1  0  0  0  0
  7 18  1  0  0  0  0
  8 19  1  0  0  0  0
  9 20  1  0  0  0  0
 10 21  1  0  0  0  0
 11 22  1  0  0  0  0
 11 23  1  0  0  0  0
 13 24  1  0  0  0  0
 14 25  1  0  0  0  0
M  END
> <id>
EN300-22983850

> <smiles>
NC=1C=CC=C2C3OC(C(O)C3O)C21

> <MDLNUMBER>
MFCD32852320

> <IUPAC Name>
3-amino-11-oxatricyclo[6.2.1.0,2,7]undeca-2(7),3,5-triene-9,10-diol

> <CAS>
2490412-79-6

> <Purity>
95

> <URL>
https://www.enaminestore.com/catalog/EN300-22983850

> <ROCS_ShapeQuery>
x1247relevant_x1083L0AP1_x1305L0BP1_

> <ROCS_TanimotoCombo>
0.857 

> <ROCS_ShapeTanimoto>
0.489 

> <ROCS_ColorTanimoto>
0.368 

> <ROCS_RefTversky>
0.415 

> <ROCS_RefColorTversky>
0.454 

> <ROCS_RefTverskyCombo>
0.869 

> <ROCS_FitTversky>
1.575 

> <ROCS_FitColorTversky>
0.659 

> <ROCS_FitTverskyCombo>
2.234 

> <ROCS_ColorScore>
-9.750

> <ROCS_Overlap>
1222.107

> <ROCS_Rank>
52                  

$$$$
untitled-dbase-15957_4
  -OEChem-06162310163D

 41 44  0     1  0  0  0  0  0999 V2000
   -9.5640   15.7583  -33.5794 C   0  0  0  0  0  0  0  0  0  0  0  0
  -13.8869   16.2062  -37.5412 C   0  0  0  0  0  0  0  0  0  0  0  0
  -12.9508   16.9667  -38.4821 C   0  0  0  0  0  0  0  0  0  0  0  0
   -9.9005   16.7248  -34.7270 C   0  0  0  0  0  0  0  0  0  0  0  0
  -10.2485   14.6423  -34.3857 C   0  0  0  0  0  0  0  0  0  0  0  0
   -8.7679   15.1966  -36.4822 C   0  0  0  0  0  0  0  0  0  0  0  0
  -12.7144   13.9242  -37.3915 C   0  0  0  0  0  0  0  0  0  0  0  0
  -11.1540   15.1961  -38.9641 C   0  0  0  0  0  0  0  0  0  0  0  0
   -8.9393   13.9066  -37.2878 C   0  0  0  0  0  0  0  0  0  0  0  0
  -13.8421   14.7599  -38.0416 C   0  0  2  0  0  0  0  0  0  0  0  0
  -12.4387   15.9025  -39.4570 C   0  0  1  0  0  0  0  0  0  0  0  0
  -10.0280   15.4946  -35.6727 C   0  0  0  0  0  0  0  0  0  0  0  0
  -11.2966   14.5316  -37.5673 C   0  0  0  0  0  0  0  0  0  0  0  0
  -14.6335   15.2371  -40.3062 C   0  0  0  0  0  0  0  0  0  0  0  0
  -10.3216   13.4475  -37.3834 N   0  0  0  0  0  0  0  0  0  0  0  0
  -13.4933   14.8733  -39.4689 N   0  0  0  0  0  0  0  0  0  0  0  0
  -11.1640   15.5634  -36.5683 O   0  0  0  0  0  0  0  0  0  0  0  0
   -8.4888   15.6033  -33.4329 H   0  0  0  0  0  0  0  0  0  0  0  0
  -10.0202   15.9931  -32.6137 H   0  0  0  0  0  0  0  0  0  0  0  0
  -13.5953   16.3104  -36.4943 H   0  0  0  0  0  0  0  0  0  0  0  0
  -14.9009   16.6124  -37.6345 H   0  0  0  0  0  0  0  0  0  0  0  0
  -13.5219   17.7349  -39.0178 H   0  0  0  0  0  0  0  0  0  0  0  0
  -12.1466   17.4802  -37.9465 H   0  0  0  0  0  0  0  0  0  0  0  0
  -10.8415   17.2691  -34.5799 H   0  0  0  0  0  0  0  0  0  0  0  0
   -9.1162   17.4485  -34.9673 H   0  0  0  0  0  0  0  0  0  0  0  0
   -9.7436   13.6734  -34.3493 H   0  0  0  0  0  0  0  0  0  0  0  0
  -11.2989   14.4984  -34.1128 H   0  0  0  0  0  0  0  0  0  0  0  0
   -7.8846   15.0998  -35.8328 H   0  0  0  0  0  0  0  0  0  0  0  0
   -8.5535   16.0324  -37.1674 H   0  0  0  0  0  0  0  0  0  0  0  0
  -12.9506   13.7839  -36.3324 H   0  0  0  0  0  0  0  0  0  0  0  0
  -12.7392   12.9245  -37.8488 H   0  0  0  0  0  0  0  0  0  0  0  0
  -10.8947   14.4381  -39.7163 H   0  0  0  0  0  0  0  0  0  0  0  0
  -10.3354   15.9265  -38.9497 H   0  0  0  0  0  0  0  0  0  0  0  0
   -8.5478   14.0666  -38.3179 H   0  0  0  0  0  0  0  0  0  0  0  0
   -8.2957   13.0956  -36.8737 H   0  0  0  0  0  0  0  0  0  0  0  0
  -14.7956   14.2450  -37.8797 H   0  0  0  0  0  0  0  0  0  0  0  0
  -12.2474   16.3229  -40.4511 H   0  0  0  0  0  0  0  0  0  0  0  0
  -14.3112   15.3060  -41.3556 H   0  0  0  0  0  0  0  0  0  0  0  0
  -15.4163   14.4700  -40.2127 H   0  0  0  0  0  0  0  0  0  0  0  0
  -15.0319   16.2093  -39.9805 H   0  0  0  0  0  0  0  0  0  0  0  0
  -10.3891   12.8003  -38.1740 H   0  0  0  0  0  0  0  0  0  0  0  0
  1  4  1  0  0  0  0
  1  5  1  0  0  0  0
  2  3  1  0  0  0  0
  2 10  1  0  0  0  0
  3 11  1  0  0  0  0
  4 12  1  0  0  0  0
  5 12  1  0  0  0  0
  6  9  1  0  0  0  0
  6 12  1  0  0  0  0
  7 10  1  0  0  0  0
  7 13  1  0  0  0  0
  8 11  1  0  0  0  0
  8 13  1  0  0  0  0
  9 15  1  0  0  0  0
 10 16  1  0  0  0  0
 11 16  1  0  0  0  0
 12 17  1  0  0  0  0
 13 15  1  0  0  0  0
 13 17  1  0  0  0  0
 14 16  1  0  0  0  0
  1 18  1  0  0  0  0
  1 19  1  0  0  0  0
  2 20  1  0  0  0  0
  2 21  1  0  0  0  0
  3 22  1  0  0  0  0
  3 23  1  0  0  0  0
  4 24  1  0  0  0  0
  4 25  1  0  0  0  0
  5 26  1  0  0  0  0
  5 27  1  0  0  0  0
  6 28  1  0  0  0  0
  6 29  1  0  0  0  0
  7 30  1  0  0  0  0
  7 31  1  0  0  0  0
  8 32  1  0  0  0  0
  8 33  1  0  0  0  0
  9 34  1  0  0  0  0
  9 35  1  0  0  0  0
 10 36  1  0  0  0  0
 11 37  1  0  0  0  0
 14 38  1  0  0  0  0
 14 39  1  0  0  0  0
 14 40  1  0  0  0  0
 15 41  1  0  0  0  0
M  END
> <id>
EN300-1279999

> <smiles>
CN1C2CCC1CC3(C2)NCCC4(CCC4)O3

> <IUPAC Name>
8-methyldispiro[8-azabicyclo[3.2.1]octane-3,2'-[1,3]oxazinane-6',1''-cyclobutane]

> <URL>
https://www.enaminestore.com/catalog/EN300-1279999

> <ROCS_ShapeQuery>
x1247relevant_x1083L0AP1_x1305L0BP1_

> <ROCS_TanimotoCombo>
0.856 

> <ROCS_ShapeTanimoto>
0.525 

> <ROCS_ColorTanimoto>
0.332 

> <ROCS_RefTversky>
0.447 

> <ROCS_RefColorTversky>
0.393 

> <ROCS_RefTverskyCombo>
0.840 

> <ROCS_FitTversky>
1.490 

> <ROCS_FitColorTversky>
0.682 

> <ROCS_FitTverskyCombo>
2.173 

> <ROCS_ColorScore>
-8.382

> <ROCS_Overlap>
1319.509

> <ROCS_Rank>
53                  

$$$$
untitled-dbase-16509_5
  -OEChem-06162310163D

 34 36  0     1  0  0  0  0  0999 V2000
  -12.0620   14.7954  -39.7874 C   0  0  0  0  0  0  0  0  0  0  0  0
  -12.3200   16.8110  -38.3836 C   0  0  0  0  0  0  0  0  0  0  0  0
   -8.7151   15.0388  -36.7615 C   0  0  0  0  0  0  0  0  0  0  0  0
  -13.5157   14.4622  -39.4157 C   0  0  0  0  0  0  0  0  0  0  0  0
  -13.6968   16.3299  -37.9065 C   0  0  0  0  0  0  0  0  0  0  0  0
  -12.8631   14.2071  -37.1165 C   0  0  0  0  0  0  0  0  0  0  0  0
   -9.7327   16.0000  -36.1624 C   0  0  0  0  0  0  0  0  0  0  0  0
  -11.4152   15.5861  -38.6338 C   0  0  0  0  0  0  0  0  0  0  0  0
   -9.2350   13.6056  -36.8111 C   0  0  1  0  0  0  0  0  0  0  0  0
  -11.3956   14.7019  -37.3457 C   0  0  2  0  0  0  0  0  0  0  0  0
   -9.3379   12.9792  -35.4167 C   0  0  0  0  0  0  0  0  0  0  0  0
  -10.5172   13.5280  -37.5180 N   0  0  0  0  0  0  0  0  0  0  0  0
  -13.8321   14.8646  -38.0276 N   0  0  0  0  0  0  0  0  0  0  0  0
  -11.0624   15.4876  -36.1869 O   0  0  0  0  0  0  0  0  0  0  0  0
  -11.5022   13.8838  -40.0180 H   0  0  0  0  0  0  0  0  0  0  0  0
  -12.0518   15.4032  -40.7006 H   0  0  0  0  0  0  0  0  0  0  0  0
  -12.4257   17.3892  -39.3099 H   0  0  0  0  0  0  0  0  0  0  0  0
  -11.8765   17.4824  -37.6401 H   0  0  0  0  0  0  0  0  0  0  0  0
   -8.4284   15.3837  -37.7708 H   0  0  0  0  0  0  0  0  0  0  0  0
   -7.7943   15.0745  -36.1493 H   0  0  0  0  0  0  0  0  0  0  0  0
  -14.2060   14.9563  -40.1112 H   0  0  0  0  0  0  0  0  0  0  0  0
  -13.6941   13.3869  -39.5403 H   0  0  0  0  0  0  0  0  0  0  0  0
  -13.8629   16.6324  -36.8649 H   0  0  0  0  0  0  0  0  0  0  0  0
  -14.4855   16.8255  -38.4860 H   0  0  0  0  0  0  0  0  0  0  0  0
  -12.9512   13.1214  -37.2600 H   0  0  0  0  0  0  0  0  0  0  0  0
  -13.1726   14.3837  -36.0778 H   0  0  0  0  0  0  0  0  0  0  0  0
   -9.4758   16.2045  -35.1071 H   0  0  0  0  0  0  0  0  0  0  0  0
   -9.7021   16.9815  -36.6722 H   0  0  0  0  0  0  0  0  0  0  0  0
  -10.4180   15.9327  -38.9230 H   0  0  0  0  0  0  0  0  0  0  0  0
   -8.4836   12.9840  -37.3765 H   0  0  0  0  0  0  0  0  0  0  0  0
  -10.0532   13.5362  -34.8138 H   0  0  0  0  0  0  0  0  0  0  0  0
   -8.3650   13.0034  -34.9286 H   0  0  0  0  0  0  0  0  0  0  0  0
   -9.6698   11.9456  -35.5000 H   0  0  0  0  0  0  0  0  0  0  0  0
  -10.3584   13.3292  -38.5157 H   0  0  0  0  0  0  0  0  0  0  0  0
  1  4  1  0  0  0  0
  1  8  1  0  0  0  0
  2  5  1  0  0  0  0
  2  8  1  0  0  0  0
  3  7  1  0  0  0  0
  3  9  1  0  0  0  0
  4 13  1  0  0  0  0
  5 13  1  0  0  0  0
  6 10  1  0  0  0  0
  6 13  1  0  0  0  0
  7 14  1  0  0  0  0
  8 10  1  0  0  0  0
  9 11  1  0  0  0  0
  9 12  1  0  0  0  0
 10 12  1  0  0  0  0
 10 14  1  0  0  0  0
  1 15  1  0  0  0  0
  1 16  1  0  0  0  0
  2 17  1  0  0  0  0
  2 18  1  0  0  0  0
  3 19  1  0  0  0  0
  3 20  1  0  0  0  0
  4 21  1  0  0  0  0
  4 22  1  0  0  0  0
  5 23  1  0  0  0  0
  5 24  1  0  0  0  0
  6 25  1  0  0  0  0
  6 26  1  0  0  0  0
  7 27  1  0  0  0  0
  7 28  1  0  0  0  0
  8 29  1  0  0  0  0
  9 30  1  0  0  0  0
 11 31  1  0  0  0  0
 11 32  1  0  0  0  0
 11 33  1  0  0  0  0
 12 34  1  0  0  0  0
M  END
> <id>
EN300-1279660

> <smiles>
CC1CCOC2(CN3CCC2CC3)N1

> <IUPAC Name>
4'-methyl-4-azaspiro[bicyclo[2.2.2]octane-2,2'-[1,3]oxazinane]

> <CAS>
2172439-74-4

> <URL>
https://www.enaminestore.com/catalog/EN300-1279660

> <ROCS_ShapeQuery>
x1247relevant_x1083L0AP1_x1305L0BP1_

> <ROCS_TanimotoCombo>
0.856 

> <ROCS_ShapeTanimoto>
0.494 

> <ROCS_ColorTanimoto>
0.362 

> <ROCS_RefTversky>
0.415 

> <ROCS_RefColorTversky>
0.411 

> <ROCS_RefTverskyCombo>
0.826 

> <ROCS_FitTversky>
1.630 

> <ROCS_FitColorTversky>
0.754 

> <ROCS_FitTverskyCombo>
2.385 

> <ROCS_ColorScore>
-8.757

> <ROCS_Overlap>
1220.198

> <ROCS_Rank>
54                  

$$$$
untitled-dbase-30565_0
  -OEChem-06162310163D

 24 27  0     1  0  0  0  0  0999 V2000
  -12.8885   15.9819  -39.5126 C   0  0  0  0  0  0  0  0  0  0  0  0
  -13.3405   14.5390  -39.4380 C   0  0  0  0  0  0  0  0  0  0  0  0
  -13.1686   15.5220  -37.2680 C   0  0  0  0  0  0  0  0  0  0  0  0
  -10.7046   13.6728  -36.6544 C   0  0  0  0  0  0  0  0  0  0  0  0
  -12.2899   16.3837  -38.1792 C   0  0  1  0  0  0  0  0  0  0  0  0
  -12.8561   14.2159  -38.0046 C   0  0  2  0  0  0  0  0  0  0  0  0
  -11.3040   14.1802  -37.9840 C   0  0  1  0  0  0  0  0  0  0  0  0
  -10.9187   15.6929  -38.1263 C   0  0  2  0  0  0  0  0  0  0  0  0
  -10.0062   14.8381  -36.0353 C   0  0  2  0  0  0  0  0  0  0  0  0
  -10.1323   16.0329  -36.9028 C   0  0  1  0  0  0  0  0  0  0  0  0
  -12.9617   16.6949  -40.5007 O   0  0  0  0  0  0  0  0  0  0  0  0
   -8.8846   15.3398  -36.7715 O   0  0  0  0  0  0  0  0  0  0  0  0
  -14.4297   14.4916  -39.5174 H   0  0  0  0  0  0  0  0  0  0  0  0
  -12.8528   13.9264  -40.1988 H   0  0  0  0  0  0  0  0  0  0  0  0
  -12.8480   15.5250  -36.2222 H   0  0  0  0  0  0  0  0  0  0  0  0
  -14.2310   15.7879  -37.3165 H   0  0  0  0  0  0  0  0  0  0  0  0
  -11.4767   13.2807  -35.9846 H   0  0  0  0  0  0  0  0  0  0  0  0
   -9.9892   12.8647  -36.8427 H   0  0  0  0  0  0  0  0  0  0  0  0
  -12.3194   17.4552  -37.9833 H   0  0  0  0  0  0  0  0  0  0  0  0
  -13.3263   13.3221  -37.5886 H   0  0  0  0  0  0  0  0  0  0  0  0
  -10.9175   13.5845  -38.8193 H   0  0  0  0  0  0  0  0  0  0  0  0
  -10.3294   15.8719  -39.0331 H   0  0  0  0  0  0  0  0  0  0  0  0
  -10.0152   14.9082  -34.9613 H   0  0  0  0  0  0  0  0  0  0  0  0
  -10.2242   17.0280  -36.5026 H   0  0  0  0  0  0  0  0  0  0  0  0
  1  2  1  0  0  0  0
  1  5  1  0  0  0  0
  1 11  2  0  0  0  0
  2  6  1  0  0  0  0
  3  5  1  0  0  0  0
  3  6  1  0  0  0  0
  4  7  1  0  0  0  0
  4  9  1  0  0  0  0
  5  8  1  0  0  0  0
  6  7  1  0  0  0  0
  7  8  1  0  0  0  0
  8 10  1  0  0  0  0
  9 10  1  0  0  0  0
  9 12  1  0  0  0  0
 10 12  1  0  0  0  0
  2 13  1  0  0  0  0
  2 14  1  0  0  0  0
  3 15  1  0  0  0  0
  3 16  1  0  0  0  0
  4 17  1  0  0  0  0
  4 18  1  0  0  0  0
  5 19  1  0  0  0  0
  6 20  1  0  0  0  0
  7 21  1  0  0  0  0
  8 22  1  0  0  0  0
  9 23  1  0  0  0  0
 10 24  1  0  0  0  0
M  END
> <id>
EN300-23613550

> <smiles>
O=C1CC2CC1C3C4OC4CC23

> <MDLNUMBER>
MFCD24698301

> <IUPAC Name>
4-oxatetracyclo[6.2.1.0^{2,7}.0^{3,5}]undecan-10-one

> <CAS>
85652-76-2

> <URL>
https://www.enaminestore.com/catalog/EN300-23613550

> <ROCS_ShapeQuery>
x1247relevant_x1083L0AP1_x1305L0BP1_

> <ROCS_TanimotoCombo>
0.856 

> <ROCS_ShapeTanimoto>
0.489 

> <ROCS_ColorTanimoto>
0.367 

> <ROCS_RefTversky>
0.405 

> <ROCS_RefColorTversky>
0.429 

> <ROCS_RefTverskyCombo>
0.835 

> <ROCS_FitTversky>
1.734 

> <ROCS_FitColorTversky>
0.716 

> <ROCS_FitTverskyCombo>
2.450 

> <ROCS_ColorScore>
-9.179

> <ROCS_Overlap>
1190.796

> <ROCS_Rank>
55                  

$$$$
untitled-dbase-8068_36
  -OEChem-06162310163D

 37 40  0     1  0  0  0  0  0999 V2000
   -8.7360   15.6447  -36.0093 C   0  0  0  0  0  0  0  0  0  0  0  0
  -11.1082   14.9211  -35.8511 C   0  0  0  0  0  0  0  0  0  0  0  0
   -9.8786   14.3122  -37.8194 C   0  0  0  0  0  0  0  0  0  0  0  0
  -12.1511   14.5330  -36.8929 C   0  0  2  0  0  0  0  0  0  0  0  0
  -11.3516   14.1331  -38.1718 C   0  0  1  0  0  0  0  0  0  0  0  0
  -12.9755   15.7293  -37.4095 C   0  0  2  0  0  0  0  0  0  0  0  0
  -11.8659   15.1712  -39.1896 C   0  0  1  0  0  0  0  0  0  0  0  0
  -14.0498   15.2143  -38.3356 C   0  0  2  0  0  0  0  0  0  0  0  0
  -13.2904   14.8320  -39.5531 C   0  0  1  0  0  0  0  0  0  0  0  0
   -6.3096   15.6253  -34.4980 C   0  0  0  0  0  0  0  0  0  0  0  0
   -7.7291   14.8504  -32.5761 C   0  0  0  0  0  0  0  0  0  0  0  0
   -7.5366   13.4324  -34.6401 C   0  0  0  0  0  0  0  0  0  0  0  0
   -7.5688   14.8594  -34.0948 C   0  0  0  0  0  0  0  0  0  0  0  0
   -9.8505   15.0310  -36.5593 N   0  0  0  0  0  0  0  0  0  0  0  0
   -7.8740   16.2261  -36.6646 O   0  0  0  0  0  0  0  0  0  0  0  0
  -12.0218   16.3277  -38.3260 O   0  0  0  0  0  0  0  0  0  0  0  0
  -14.2316   15.9096  -39.5728 O   0  0  0  0  0  0  0  0  0  0  0  0
   -8.7070   15.5321  -34.6448 O   0  0  0  0  0  0  0  0  0  0  0  0
  -11.3365   15.8454  -35.3113 H   0  0  0  0  0  0  0  0  0  0  0  0
  -10.9889   14.1195  -35.1131 H   0  0  0  0  0  0  0  0  0  0  0  0
   -9.4060   13.3394  -37.6417 H   0  0  0  0  0  0  0  0  0  0  0  0
   -9.3010   14.8361  -38.5870 H   0  0  0  0  0  0  0  0  0  0  0  0
  -12.7913   13.7236  -36.5259 H   0  0  0  0  0  0  0  0  0  0  0  0
  -11.5575   13.1066  -38.4944 H   0  0  0  0  0  0  0  0  0  0  0  0
  -13.3214   16.4396  -36.6556 H   0  0  0  0  0  0  0  0  0  0  0  0
  -11.2128   15.3793  -40.0397 H   0  0  0  0  0  0  0  0  0  0  0  0
  -14.8137   14.5725  -37.9325 H   0  0  0  0  0  0  0  0  0  0  0  0
  -13.4855   13.9041  -40.0618 H   0  0  0  0  0  0  0  0  0  0  0  0
   -6.1909   15.6340  -35.5874 H   0  0  0  0  0  0  0  0  0  0  0  0
   -6.3361   16.6606  -34.1428 H   0  0  0  0  0  0  0  0  0  0  0  0
   -5.4123   15.1434  -34.0931 H   0  0  0  0  0  0  0  0  0  0  0  0
   -8.6314   14.3020  -32.2823 H   0  0  0  0  0  0  0  0  0  0  0  0
   -7.8479   15.8694  -32.1901 H   0  0  0  0  0  0  0  0  0  0  0  0
   -6.8674   14.3906  -32.0815 H   0  0  0  0  0  0  0  0  0  0  0  0
   -8.4397   12.8828  -34.3510 H   0  0  0  0  0  0  0  0  0  0  0  0
   -7.4590   13.4196  -35.7321 H   0  0  0  0  0  0  0  0  0  0  0  0
   -6.6892   12.8754  -34.2242 H   0  0  0  0  0  0  0  0  0  0  0  0
  1 14  1  0  0  0  0
  1 15  2  0  0  0  0
  1 18  1  0  0  0  0
  2  4  1  0  0  0  0
  2 14  1  0  0  0  0
  3  5  1  0  0  0  0
  3 14  1  0  0  0  0
  4  5  1  0  0  0  0
  4  6  1  0  0  0  0
  5  7  1  0  0  0  0
  6  8  1  0  0  0  0
  6 16  1  0  0  0  0
  7  9  1  0  0  0  0
  7 16  1  0  0  0  0
  8  9  1  0  0  0  0
  8 17  1  0  0  0  0
  9 17  1  0  0  0  0
 10 13  1  0  0  0  0
 11 13  1  0  0  0  0
 12 13  1  0  0  0  0
 13 18  1  0  0  0  0
  2 19  1  0  0  0  0
  2 20  1  0  0  0  0
  3 21  1  0  0  0  0
  3 22  1  0  0  0  0
  4 23  1  0  0  0  0
  5 24  1  0  0  0  0
  6 25  1  0  0  0  0
  7 26  1  0  0  0  0
  8 27  1  0  0  0  0
  9 28  1  0  0  0  0
 10 29  1  0  0  0  0
 10 30  1  0  0  0  0
 10 31  1  0  0  0  0
 11 32  1  0  0  0  0
 11 33  1  0  0  0  0
 11 34  1  0  0  0  0
 12 35  1  0  0  0  0
 12 36  1  0  0  0  0
 12 37  1  0  0  0  0
M  END
> <id>
EN300-243424

> <smiles>
CC(C)(C)OC(=O)N1CC2C(C1)C3OC2C4OC43

> <MDLNUMBER>
MFCD29906780

> <IUPAC Name>
tert-butyl 9,11-dioxa-4-azatetracyclo[5.3.1.0^{2,6}.0^{8,10}]undecane-4-carboxylate

> <CAS>
1909318-88-2

> <Purity>
95

> <URL>
https://www.enaminestore.com/catalog/EN300-243424

> <ROCS_ShapeQuery>
x1247relevant_x1083L0AP1_x1305L0BP1_

> <ROCS_TanimotoCombo>
0.855 

> <ROCS_ShapeTanimoto>
0.469 

> <ROCS_ColorTanimoto>
0.386 

> <ROCS_RefTversky>
0.422 

> <ROCS_RefColorTversky>
0.564 

> <ROCS_RefTverskyCombo>
0.986 

> <ROCS_FitTversky>
1.308 

> <ROCS_FitColorTversky>
0.549 

> <ROCS_FitTverskyCombo>
1.858 

> <ROCS_ColorScore>
-12.340

> <ROCS_Overlap>
1247.384

> <ROCS_Rank>
56                  

$$$$
untitled-dbase-35104_0
  -OEChem-06162310163D

 31 33  0     1  0  0  0  0  0999 V2000
  -12.3774   16.8253  -38.2886 C   0  0  0  0  0  0  0  0  0  0  0  0
  -12.0196   14.8987  -39.7962 C   0  0  0  0  0  0  0  0  0  0  0  0
  -13.7469   16.2714  -37.8721 C   0  0  0  0  0  0  0  0  0  0  0  0
  -13.4681   14.4967  -39.4755 C   0  0  0  0  0  0  0  0  0  0  0  0
  -12.8534   14.1400  -37.1790 C   0  0  0  0  0  0  0  0  0  0  0  0
   -9.0988   13.9245  -37.4855 C   0  0  0  0  0  0  0  0  0  0  0  0
   -9.7643   15.8850  -36.0439 C   0  0  0  0  0  0  0  0  0  0  0  0
  -11.4260   15.6487  -38.5897 C   0  0  0  0  0  0  0  0  0  0  0  0
  -11.4034   14.6966  -37.3518 C   0  0  2  0  0  0  0  0  0  0  0  0
   -8.7898   14.7441  -36.2477 C   0  0  0  0  0  0  0  0  0  0  0  0
  -10.5065   13.5353  -37.5147 N   0  0  0  0  0  0  0  0  0  0  0  0
  -13.8271   14.8109  -38.0748 N   0  0  0  0  0  0  0  0  0  0  0  0
  -11.1113   15.4278  -36.1437 O   0  0  0  0  0  0  0  0  0  0  0  0
   -7.5293   15.2369  -36.3350 F   0  0  0  0  0  0  0  0  0  0  0  0
   -8.8135   13.9366  -35.1557 F   0  0  0  0  0  0  0  0  0  0  0  0
  -12.4839   17.4544  -39.1811 H   0  0  0  0  0  0  0  0  0  0  0  0
  -11.9735   17.4656  -37.4966 H   0  0  0  0  0  0  0  0  0  0  0  0
  -11.4228   14.0200  -40.0603 H   0  0  0  0  0  0  0  0  0  0  0  0
  -12.0121   15.5530  -40.6768 H   0  0  0  0  0  0  0  0  0  0  0  0
  -13.9476   16.5108  -36.8202 H   0  0  0  0  0  0  0  0  0  0  0  0
  -14.5392   16.7701  -38.4439 H   0  0  0  0  0  0  0  0  0  0  0  0
  -14.1611   15.0047  -40.1580 H   0  0  0  0  0  0  0  0  0  0  0  0
  -13.6060   13.4246  -39.6627 H   0  0  0  0  0  0  0  0  0  0  0  0
  -12.9011   13.0610  -37.3813 H   0  0  0  0  0  0  0  0  0  0  0  0
  -13.1898   14.2502  -36.1395 H   0  0  0  0  0  0  0  0  0  0  0  0
   -8.8249   14.4769  -38.3910 H   0  0  0  0  0  0  0  0  0  0  0  0
   -8.4851   13.0172  -37.4786 H   0  0  0  0  0  0  0  0  0  0  0  0
   -9.6344   16.3148  -35.0455 H   0  0  0  0  0  0  0  0  0  0  0  0
   -9.5888   16.6920  -36.7630 H   0  0  0  0  0  0  0  0  0  0  0  0
  -10.4350   16.0436  -38.8337 H   0  0  0  0  0  0  0  0  0  0  0  0
  -10.7110   13.0285  -38.3730 H   0  0  0  0  0  0  0  0  0  0  0  0
  1  3  1  0  0  0  0
  1  8  1  0  0  0  0
  2  4  1  0  0  0  0
  2  8  1  0  0  0  0
  3 12  1  0  0  0  0
  4 12  1  0  0  0  0
  5  9  1  0  0  0  0
  5 12  1  0  0  0  0
  6 10  1  0  0  0  0
  6 11  1  0  0  0  0
  7 10  1  0  0  0  0
  7 13  1  0  0  0  0
  8  9  1  0  0  0  0
  9 11  1  0  0  0  0
  9 13  1  0  0  0  0
 10 14  1  0  0  0  0
 10 15  1  0  0  0  0
  1 16  1  0  0  0  0
  1 17  1  0  0  0  0
  2 18  1  0  0  0  0
  2 19  1  0  0  0  0
  3 20  1  0  0  0  0
  3 21  1  0  0  0  0
  4 22  1  0  0  0  0
  4 23  1  0  0  0  0
  5 24  1  0  0  0  0
  5 25  1  0  0  0  0
  6 26  1  0  0  0  0
  6 27  1  0  0  0  0
  7 28  1  0  0  0  0
  7 29  1  0  0  0  0
  8 30  1  0  0  0  0
 11 31  1  0  0  0  0
M  END
> <id>
EN300-1279435

> <smiles>
FC1(F)CNC2(CN3CCC2CC3)OC1

> <IUPAC Name>
5',5'-difluoro-4-azaspiro[bicyclo[2.2.2]octane-2,2'-[1,3]oxazinane]

> <CAS>
2169597-58-2

> <URL>
https://www.enaminestore.com/catalog/EN300-1279435

> <ROCS_ShapeQuery>
x1247relevant_x1083L0AP1_x1305L0BP1_

> <ROCS_TanimotoCombo>
0.854 

> <ROCS_ShapeTanimoto>
0.491 

> <ROCS_ColorTanimoto>
0.363 

> <ROCS_RefTversky>
0.419 

> <ROCS_RefColorTversky>
0.412 

> <ROCS_RefTverskyCombo>
0.831 

> <ROCS_FitTversky>
1.531 

> <ROCS_FitColorTversky>
0.756 

> <ROCS_FitTverskyCombo>
2.287 

> <ROCS_ColorScore>
-8.776

> <ROCS_Overlap>
1235.430

> <ROCS_Rank>
57                  

$$$$
untitled-dbase-34778_38
  -OEChem-06162310163D

 43 45  0     1  0  0  0  0  0999 V2000
  -14.0472   14.0028  -40.2685 C   0  0  0  0  0  0  0  0  0  0  0  0
  -13.7416   16.3062  -37.5324 C   0  0  0  0  0  0  0  0  0  0  0  0
  -12.8371   16.9612  -38.5968 C   0  0  0  0  0  0  0  0  0  0  0  0
  -12.6476   14.0029  -37.2640 C   0  0  0  0  0  0  0  0  0  0  0  0
  -11.1322   15.1001  -39.0537 C   0  0  0  0  0  0  0  0  0  0  0  0
   -9.1369   14.1692  -36.7091 C   0  0  0  0  0  0  0  0  0  0  0  0
   -9.8658   15.1851  -35.8674 C   0  0  0  0  0  0  0  0  0  0  0  0
  -13.7857   14.8227  -37.9122 C   0  0  2  0  0  0  0  0  0  0  0  0
  -12.4206   15.8126  -39.5221 C   0  0  1  0  0  0  0  0  0  0  0  0
  -11.2318   14.5460  -37.6018 C   0  0  0  0  0  0  0  0  0  0  0  0
  -15.7896   13.9480  -42.2244 C   0  0  0  0  0  0  0  0  0  0  0  0
  -17.3987   12.7704  -40.6969 C   0  0  0  0  0  0  0  0  0  0  0  0
  -16.9593   15.2251  -40.3980 C   0  0  0  0  0  0  0  0  0  0  0  0
  -16.3571   13.8817  -40.8072 C   0  0  0  0  0  0  0  0  0  0  0  0
  -10.2430   13.4829  -37.3605 N   0  0  0  0  0  0  0  0  0  0  0  0
  -13.5072   14.8652  -39.3348 N   0  0  0  0  0  0  0  0  0  0  0  0
  -13.4819   13.6665  -41.3065 O   0  0  0  0  0  0  0  0  0  0  0  0
  -10.9395   15.6350  -36.6980 O   0  0  0  0  0  0  0  0  0  0  0  0
  -15.2918   13.5656  -39.9042 O   0  0  0  0  0  0  0  0  0  0  0  0
  -13.3801   16.4802  -36.5146 H   0  0  0  0  0  0  0  0  0  0  0  0
  -14.7456   16.7419  -37.6013 H   0  0  0  0  0  0  0  0  0  0  0  0
  -13.4238   17.7001  -39.1560 H   0  0  0  0  0  0  0  0  0  0  0  0
  -11.9868   17.4883  -38.1540 H   0  0  0  0  0  0  0  0  0  0  0  0
  -12.7992   13.9855  -36.1770 H   0  0  0  0  0  0  0  0  0  0  0  0
  -12.7406   12.9671  -37.6193 H   0  0  0  0  0  0  0  0  0  0  0  0
  -10.9377   14.2751  -39.7517 H   0  0  0  0  0  0  0  0  0  0  0  0
  -10.2891   15.7971  -39.1314 H   0  0  0  0  0  0  0  0  0  0  0  0
   -8.4438   14.6258  -37.4181 H   0  0  0  0  0  0  0  0  0  0  0  0
   -8.5837   13.4635  -36.0820 H   0  0  0  0  0  0  0  0  0  0  0  0
  -10.2690   14.7604  -34.9451 H   0  0  0  0  0  0  0  0  0  0  0  0
   -9.2348   16.0460  -35.6224 H   0  0  0  0  0  0  0  0  0  0  0  0
  -14.7566   14.3632  -37.7022 H   0  0  0  0  0  0  0  0  0  0  0  0
  -12.3248   16.1331  -40.5637 H   0  0  0  0  0  0  0  0  0  0  0  0
  -15.0415   14.7445  -42.3077 H   0  0  0  0  0  0  0  0  0  0  0  0
  -15.3237   13.0014  -42.5170 H   0  0  0  0  0  0  0  0  0  0  0  0
  -16.5761   14.1855  -42.9498 H   0  0  0  0  0  0  0  0  0  0  0  0
  -17.8086   12.7192  -39.6817 H   0  0  0  0  0  0  0  0  0  0  0  0
  -16.9480   11.7917  -40.8975 H   0  0  0  0  0  0  0  0  0  0  0  0
  -18.2262   12.9212  -41.3977 H   0  0  0  0  0  0  0  0  0  0  0  0
  -17.3664   15.1778  -39.3815 H   0  0  0  0  0  0  0  0  0  0  0  0
  -16.2163   16.0283  -40.4356 H   0  0  0  0  0  0  0  0  0  0  0  0
  -17.7955   15.4932  -41.0539 H   0  0  0  0  0  0  0  0  0  0  0  0
   -9.9083   13.1303  -38.2631 H   0  0  0  0  0  0  0  0  0  0  0  0
  1 16  1  0  0  0  0
  1 17  2  0  0  0  0
  1 19  1  0  0  0  0
  2  3  1  0  0  0  0
  2  8  1  0  0  0  0
  3  9  1  0  0  0  0
  4  8  1  0  0  0  0
  4 10  1  0  0  0  0
  5  9  1  0  0  0  0
  5 10  1  0  0  0  0
  6  7  1  0  0  0  0
  6 15  1  0  0  0  0
  7 18  1  0  0  0  0
  8 16  1  0  0  0  0
  9 16  1  0  0  0  0
 10 15  1  0  0  0  0
 10 18  1  0  0  0  0
 11 14  1  0  0  0  0
 12 14  1  0  0  0  0
 13 14  1  0  0  0  0
 14 19  1  0  0  0  0
  2 20  1  0  0  0  0
  2 21  1  0  0  0  0
  3 22  1  0  0  0  0
  3 23  1  0  0  0  0
  4 24  1  0  0  0  0
  4 25  1  0  0  0  0
  5 26  1  0  0  0  0
  5 27  1  0  0  0  0
  6 28  1  0  0  0  0
  6 29  1  0  0  0  0
  7 30  1  0  0  0  0
  7 31  1  0  0  0  0
  8 32  1  0  0  0  0
  9 33  1  0  0  0  0
 11 34  1  0  0  0  0
 11 35  1  0  0  0  0
 11 36  1  0  0  0  0
 12 37  1  0  0  0  0
 12 38  1  0  0  0  0
 12 39  1  0  0  0  0
 13 40  1  0  0  0  0
 13 41  1  0  0  0  0
 13 42  1  0  0  0  0
 15 43  1  0  0  0  0
M  END
> <id>
EN300-1645522

> <smiles>
CC(C)(C)OC(=O)N1C2CCC1CC3(C2)NCCO3

> <IUPAC Name>
tert-butyl 8-azaspiro[bicyclo[3.2.1]octane-3,2'-[1,3]oxazolidine]-8-carboxylate

> <CAS>
2171919-84-7

> <URL>
https://www.enaminestore.com/catalog/EN300-1645522

> <ROCS_ShapeQuery>
x1247relevant_x1083L0AP1_x1305L0BP1_

> <ROCS_TanimotoCombo>
0.854 

> <ROCS_ShapeTanimoto>
0.517 

> <ROCS_ColorTanimoto>
0.337 

> <ROCS_RefTversky>
0.453 

> <ROCS_RefColorTversky>
0.397 

> <ROCS_RefTverskyCombo>
0.850 

> <ROCS_FitTversky>
1.378 

> <ROCS_FitColorTversky>
0.688 

> <ROCS_FitTverskyCombo>
2.066 

> <ROCS_ColorScore>
-8.478

> <ROCS_Overlap>
1338.784

> <ROCS_Rank>
58                  

$$$$
untitled-dbase-16551_2
  -OEChem-06162310163D

 30 32  0     1  0  0  0  0  0999 V2000
  -13.3372   16.5100  -39.3139 C   0  0  0  0  0  0  0  0  0  0  0  0
  -14.2069   15.9733  -38.1840 C   0  0  0  0  0  0  0  0  0  0  0  0
  -10.0133   15.3617  -36.2508 C   0  0  0  0  0  0  0  0  0  0  0  0
  -11.0270   15.7049  -38.6417 C   0  0  0  0  0  0  0  0  0  0  0  0
  -12.5043   14.7979  -36.7176 C   0  0  0  0  0  0  0  0  0  0  0  0
   -9.1644   14.2269  -36.8356 C   0  0  0  0  0  0  0  0  0  0  0  0
  -12.2688   15.4291  -39.5235 C   0  0  1  0  0  0  0  0  0  0  0  0
  -13.5751   14.6233  -37.8208 C   0  0  2  0  0  0  0  0  0  0  0  0
  -11.0868   14.9515  -37.2964 C   0  0  0  0  0  0  0  0  0  0  0  0
  -13.8376   13.6217  -40.0394 C   0  0  0  0  0  0  0  0  0  0  0  0
  -10.3999   13.6234  -37.3668 N   0  0  0  0  0  0  0  0  0  0  0  0
  -12.9114   14.1855  -39.0620 N   0  0  0  0  0  0  0  0  0  0  0  0
  -13.9453   16.6282  -40.2192 H   0  0  0  0  0  0  0  0  0  0  0  0
  -12.9092   17.4899  -39.0803 H   0  0  0  0  0  0  0  0  0  0  0  0
  -14.2644   16.6600  -37.3348 H   0  0  0  0  0  0  0  0  0  0  0  0
  -15.2314   15.8277  -38.5483 H   0  0  0  0  0  0  0  0  0  0  0  0
  -10.2623   15.2496  -35.1913 H   0  0  0  0  0  0  0  0  0  0  0  0
   -9.5718   16.3563  -36.4002 H   0  0  0  0  0  0  0  0  0  0  0  0
  -10.1321   15.3950  -39.2044 H   0  0  0  0  0  0  0  0  0  0  0  0
  -10.9259   16.7879  -38.4804 H   0  0  0  0  0  0  0  0  0  0  0  0
  -12.7699   15.6606  -36.0877 H   0  0  0  0  0  0  0  0  0  0  0  0
  -12.5433   13.9148  -36.0588 H   0  0  0  0  0  0  0  0  0  0  0  0
   -8.4342   14.5252  -37.5930 H   0  0  0  0  0  0  0  0  0  0  0  0
   -8.6599   13.6031  -36.0893 H   0  0  0  0  0  0  0  0  0  0  0  0
  -11.9504   15.3864  -40.5722 H   0  0  0  0  0  0  0  0  0  0  0  0
  -14.3320   13.9166  -37.4640 H   0  0  0  0  0  0  0  0  0  0  0  0
  -14.2812   12.6997  -39.6357 H   0  0  0  0  0  0  0  0  0  0  0  0
  -14.6346   14.3496  -40.2514 H   0  0  0  0  0  0  0  0  0  0  0  0
  -13.2949   13.3914  -40.9681 H   0  0  0  0  0  0  0  0  0  0  0  0
  -10.2883   13.2703  -38.3165 H   0  0  0  0  0  0  0  0  0  0  0  0
  1  2  1  0  0  0  0
  1  7  1  0  0  0  0
  2  8  1  0  0  0  0
  3  6  1  0  0  0  0
  3  9  1  0  0  0  0
  4  7  1  0  0  0  0
  4  9  1  0  0  0  0
  5  8  1  0  0  0  0
  5  9  1  0  0  0  0
  6 11  1  0  0  0  0
  7 12  1  0  0  0  0
  8 12  1  0  0  0  0
  9 11  1  0  0  0  0
 10 12  1  0  0  0  0
  1 13  1  0  0  0  0
  1 14  1  0  0  0  0
  2 15  1  0  0  0  0
  2 16  1  0  0  0  0
  3 17  1  0  0  0  0
  3 18  1  0  0  0  0
  4 19  1  0  0  0  0
  4 20  1  0  0  0  0
  5 21  1  0  0  0  0
  5 22  1  0  0  0  0
  6 23  1  0  0  0  0
  6 24  1  0  0  0  0
  7 25  1  0  0  0  0
  8 26  1  0  0  0  0
 10 27  1  0  0  0  0
 10 28  1  0  0  0  0
 10 29  1  0  0  0  0
 11 30  1  0  0  0  0
M  END
> <id>
EN300-1297141

> <smiles>
CN1C2CCC1CC3(CCN3)C2

> <IUPAC Name>
8'-methyl-8'-azaspiro[azetidine-2,3'-bicyclo[3.2.1]octane]

> <CAS>
2166529-40-2

> <URL>
https://www.enaminestore.com/catalog/EN300-1297141

> <ROCS_ShapeQuery>
x1247relevant_x1083L0AP1_x1305L0BP1_

> <ROCS_TanimotoCombo>
0.854 

> <ROCS_ShapeTanimoto>
0.475 

> <ROCS_ColorTanimoto>
0.379 

> <ROCS_RefTversky>
0.394 

> <ROCS_RefColorTversky>
0.410 

> <ROCS_RefTverskyCombo>
0.804 

> <ROCS_FitTversky>
1.748 

> <ROCS_FitColorTversky>
0.835 

> <ROCS_FitTverskyCombo>
2.583 

> <ROCS_ColorScore>
-8.705

> <ROCS_Overlap>
1158.871

> <ROCS_Rank>
59                  

$$$$
untitled-dbase-38284_0
  -OEChem-06162310163D

 24 27  0     1  0  0  0  0  0999 V2000
  -12.0637   15.9626  -39.4826 C   0  0  0  0  0  0  0  0  0  0  0  0
  -12.5171   16.6871  -38.4527 C   0  0  0  0  0  0  0  0  0  0  0  0
  -10.0142   14.1135  -38.3116 C   0  0  0  0  0  0  0  0  0  0  0  0
  -11.0066   15.6983  -36.0584 C   0  0  0  0  0  0  0  0  0  0  0  0
  -11.5074   14.0218  -38.0286 C   0  0  1  0  0  0  0  0  0  0  0  0
  -12.0426   14.8767  -36.8133 C   0  0  2  0  0  0  0  0  0  0  0  0
   -9.1516   14.3064  -37.1365 C   0  0  2  0  0  0  0  0  0  0  0  0
   -9.6583   15.1159  -35.9858 C   0  0  1  0  0  0  0  0  0  0  0  0
  -12.4177   14.5128  -39.2086 C   0  0  1  0  0  0  0  0  0  0  0  0
  -13.1789   15.7291  -37.4799 C   0  0  2  0  0  0  0  0  0  0  0  0
  -13.7929   14.7224  -38.5019 C   0  0  0  0  0  0  0  0  0  0  0  0
   -9.5110   13.9499  -39.4160 O   0  0  0  0  0  0  0  0  0  0  0  0
  -11.2553   16.7348  -35.4557 O   0  0  0  0  0  0  0  0  0  0  0  0
   -8.7433   15.6682  -36.9430 O   0  0  0  0  0  0  0  0  0  0  0  0
  -11.2268   16.5059  -40.8503 Cl  0  0  0  0  0  0  0  0  0  0  0  0
  -12.3853   18.3584  -38.2167 Cl  0  0  0  0  0  0  0  0  0  0  0  0
  -12.4710   13.4368  -40.5927 Cl  0  0  0  0  0  0  0  0  0  0  0  0
  -14.3365   16.4177  -36.3565 Cl  0  0  0  0  0  0  0  0  0  0  0  0
  -14.4936   13.2427  -37.7691 Cl  0  0  0  0  0  0  0  0  0  0  0  0
  -15.0768   15.4225  -39.5599 Cl  0  0  0  0  0  0  0  0  0  0  0  0
  -11.6989   12.9611  -37.8160 H   0  0  0  0  0  0  0  0  0  0  0  0
  -12.4672   14.1893  -36.0690 H   0  0  0  0  0  0  0  0  0  0  0  0
   -8.4205   13.5339  -36.9341 H   0  0  0  0  0  0  0  0  0  0  0  0
   -9.2720   14.8963  -34.9985 H   0  0  0  0  0  0  0  0  0  0  0  0
  1  2  2  0  0  0  0
  1  9  1  0  0  0  0
  1 15  1  0  0  0  0
  2 10  1  0  0  0  0
  2 16  1  0  0  0  0
  3  5  1  0  0  0  0
  3  7  1  0  0  0  0
  3 12  2  0  0  0  0
  4  6  1  0  0  0  0
  4  8  1  0  0  0  0
  4 13  2  0  0  0  0
  5  6  1  0  0  0  0
  5  9  1  0  0  0  0
  6 10  1  0  0  0  0
  7  8  1  0  0  0  0
  7 14  1  0  0  0  0
  8 14  1  0  0  0  0
  9 11  1  0  0  0  0
  9 17  1  0  0  0  0
 10 11  1  0  0  0  0
 10 18  1  0  0  0  0
 11 19  1  0  0  0  0
 11 20  1  0  0  0  0
  5 21  1  0  0  0  0
  6 22  1  0  0  0  0
  7 23  1  0  0  0  0
  8 24  1  0  0  0  0
M  END
> <id>
EN300-54545

> <smiles>
ClC1=C(Cl)C2(Cl)C3C(C(=O)C4OC4C3=O)C1(Cl)C2(Cl)Cl

> <MDLNUMBER>
MFCD19442662

> <IUPAC Name>
1,9,10,11,12,12-hexachloro-5-oxatetracyclo[7.2.1.0^{2,8}.0^{4,6}]dodec-10-ene-3,7-dione

> <CAS>
38667-80-0

> <Purity>
95

> <URL>
https://www.enaminestore.com/catalog/EN300-54545

> <ROCS_ShapeQuery>
x1247relevant_x1083L0AP1_x1305L0BP1_

> <ROCS_TanimotoCombo>
0.853 

> <ROCS_ShapeTanimoto>
0.528 

> <ROCS_ColorTanimoto>
0.325 

> <ROCS_RefTversky>
0.461 

> <ROCS_RefColorTversky>
0.401 

> <ROCS_RefTverskyCombo>
0.862 

> <ROCS_FitTversky>
1.381 

> <ROCS_FitColorTversky>
0.631 

> <ROCS_FitTverskyCombo>
2.011 

> <ROCS_ColorScore>
-8.599

> <ROCS_Overlap>
1362.029

> <ROCS_Rank>
60                  

$$$$
untitled-dbase-36325_5
  -OEChem-06162310163D

 39 42  0     1  0  0  0  0  0999 V2000
  -12.9695   16.9606  -38.4257 C   0  0  0  0  0  0  0  0  0  0  0  0
  -13.9061   16.1569  -37.5222 C   0  0  0  0  0  0  0  0  0  0  0  0
   -8.7606   15.2091  -36.6435 C   0  0  0  0  0  0  0  0  0  0  0  0
  -11.1383   15.2297  -38.9373 C   0  0  0  0  0  0  0  0  0  0  0  0
  -12.6961   13.8910  -37.4300 C   0  0  0  0  0  0  0  0  0  0  0  0
   -9.9308   16.1172  -36.2921 C   0  0  0  0  0  0  0  0  0  0  0  0
   -9.4691   13.1706  -35.1243 C   0  0  0  0  0  0  0  0  0  0  0  0
   -8.1380   12.6665  -36.6164 C   0  0  0  0  0  0  0  0  0  0  0  0
  -12.4265   15.9356  -39.4246 C   0  0  1  0  0  0  0  0  0  0  0  0
  -13.8302   14.7281  -38.0666 C   0  0  2  0  0  0  0  0  0  0  0  0
   -9.1980   13.7754  -36.5133 C   0  0  0  0  0  0  0  0  0  0  0  0
  -11.2833   14.5337  -37.5497 C   0  0  0  0  0  0  0  0  0  0  0  0
  -14.5996   15.2654  -40.3255 C   0  0  0  0  0  0  0  0  0  0  0  0
  -10.3190   13.4206  -37.3926 N   0  0  0  0  0  0  0  0  0  0  0  0
  -13.4653   14.8924  -39.4845 N   0  0  0  0  0  0  0  0  0  0  0  0
   -8.6659   12.0033  -35.4382 O   0  0  0  0  0  0  0  0  0  0  0  0
  -11.2015   15.4963  -36.4823 O   0  0  0  0  0  0  0  0  0  0  0  0
  -13.5461   17.7355  -38.9457 H   0  0  0  0  0  0  0  0  0  0  0  0
  -12.1815   17.4708  -37.8639 H   0  0  0  0  0  0  0  0  0  0  0  0
  -13.6345   16.2295  -36.4647 H   0  0  0  0  0  0  0  0  0  0  0  0
  -14.9258   16.5500  -37.6176 H   0  0  0  0  0  0  0  0  0  0  0  0
   -8.4026   15.4352  -37.6559 H   0  0  0  0  0  0  0  0  0  0  0  0
   -7.9306   15.4114  -35.9519 H   0  0  0  0  0  0  0  0  0  0  0  0
  -10.8754   14.4802  -39.6954 H   0  0  0  0  0  0  0  0  0  0  0  0
  -10.3294   15.9644  -38.9313 H   0  0  0  0  0  0  0  0  0  0  0  0
  -12.9377   13.7202  -36.3725 H   0  0  0  0  0  0  0  0  0  0  0  0
  -12.7035   12.9063  -37.9194 H   0  0  0  0  0  0  0  0  0  0  0  0
   -9.8645   16.4095  -35.2248 H   0  0  0  0  0  0  0  0  0  0  0  0
   -9.8882   17.0723  -36.8551 H   0  0  0  0  0  0  0  0  0  0  0  0
   -9.0505   13.7212  -34.2749 H   0  0  0  0  0  0  0  0  0  0  0  0
  -10.4982   12.8779  -34.8833 H   0  0  0  0  0  0  0  0  0  0  0  0
   -8.1758   11.9921  -37.4784 H   0  0  0  0  0  0  0  0  0  0  0  0
   -7.1036   12.9883  -36.4585 H   0  0  0  0  0  0  0  0  0  0  0  0
  -12.2282   16.3880  -40.4035 H   0  0  0  0  0  0  0  0  0  0  0  0
  -14.7774   14.1924  -37.9337 H   0  0  0  0  0  0  0  0  0  0  0  0
  -15.3376   14.4497  -40.3297 H   0  0  0  0  0  0  0  0  0  0  0  0
  -15.0657   16.1792  -39.9282 H   0  0  0  0  0  0  0  0  0  0  0  0
  -14.2501   15.4487  -41.3523 H   0  0  0  0  0  0  0  0  0  0  0  0
  -10.0540   13.0569  -38.3098 H   0  0  0  0  0  0  0  0  0  0  0  0
  1  2  1  0  0  0  0
  1  9  1  0  0  0  0
  2 10  1  0  0  0  0
  3  6  1  0  0  0  0
  3 11  1  0  0  0  0
  4  9  1  0  0  0  0
  4 12  1  0  0  0  0
  5 10  1  0  0  0  0
  5 12  1  0  0  0  0
  6 17  1  0  0  0  0
  7 11  1  0  0  0  0
  7 16  1  0  0  0  0
  8 11  1  0  0  0  0
  8 16  1  0  0  0  0
  9 15  1  0  0  0  0
 10 15  1  0  0  0  0
 11 14  1  0  0  0  0
 12 14  1  0  0  0  0
 12 17  1  0  0  0  0
 13 15  1  0  0  0  0
  1 18  1  0  0  0  0
  1 19  1  0  0  0  0
  2 20  1  0  0  0  0
  2 21  1  0  0  0  0
  3 22  1  0  0  0  0
  3 23  1  0  0  0  0
  4 24  1  0  0  0  0
  4 25  1  0  0  0  0
  5 26  1  0  0  0  0
  5 27  1  0  0  0  0
  6 28  1  0  0  0  0
  6 29  1  0  0  0  0
  7 30  1  0  0  0  0
  7 31  1  0  0  0  0
  8 32  1  0  0  0  0
  8 33  1  0  0  0  0
  9 34  1  0  0  0  0
 10 35  1  0  0  0  0
 13 36  1  0  0  0  0
 13 37  1  0  0  0  0
 13 38  1  0  0  0  0
 14 39  1  0  0  0  0
M  END
> <id>
EN300-1280052

> <smiles>
CN1C2CCC1CC3(C2)NC4(COC4)CCO3

> <IUPAC Name>
8-methyldispiro[8-azabicyclo[3.2.1]octane-3,2'-[1,3]oxazinane-4',3''-oxetane]

> <URL>
https://www.enaminestore.com/catalog/EN300-1280052

> <ROCS_ShapeQuery>
x1247relevant_x1083L0AP1_x1305L0BP1_

> <ROCS_TanimotoCombo>
0.853 

> <ROCS_ShapeTanimoto>
0.534 

> <ROCS_ColorTanimoto>
0.319 

> <ROCS_RefTversky>
0.453 

> <ROCS_RefColorTversky>
0.392 

> <ROCS_RefTverskyCombo>
0.845 

> <ROCS_FitTversky>
1.497 

> <ROCS_FitColorTversky>
0.633 

> <ROCS_FitTverskyCombo>
2.131 

> <ROCS_ColorScore>
-8.386

> <ROCS_Overlap>
1336.950

> <ROCS_Rank>
61                  

$$$$
untitled-dbase-19169_0
  -OEChem-06162310163D

 31 33  0     1  0  0  0  0  0999 V2000
   -9.4829   15.8701  -36.0866 C   0  0  0  0  0  0  0  0  0  0  0  0
   -8.6680   14.6463  -36.4846 C   0  0  0  0  0  0  0  0  0  0  0  0
  -13.4418   14.5449  -39.5018 C   0  0  0  0  0  0  0  0  0  0  0  0
  -12.0095   15.0248  -39.7682 C   0  0  0  0  0  0  0  0  0  0  0  0
  -10.9660   15.5171  -35.9855 C   0  0  0  0  0  0  0  0  0  0  0  0
  -12.9932   16.4779  -38.1884 C   0  0  0  0  0  0  0  0  0  0  0  0
  -12.9843   14.3833  -37.0428 C   0  0  0  0  0  0  0  0  0  0  0  0
   -9.2524   13.9773  -37.7240 C   0  0  0  0  0  0  0  0  0  0  0  0
  -13.7572   15.1579  -38.1286 C   0  0  2  0  0  0  0  0  0  0  0  0
  -11.6510   15.7932  -38.4762 C   0  0  1  0  0  0  0  0  0  0  0  0
  -11.5030   14.8171  -37.2609 C   0  0  1  0  0  0  0  0  0  0  0  0
  -10.6657   13.6399  -37.5445 N   0  0  0  0  0  0  0  0  0  0  0  0
   -9.1264   16.2574  -35.1255 H   0  0  0  0  0  0  0  0  0  0  0  0
   -9.3363   16.6682  -36.8232 H   0  0  0  0  0  0  0  0  0  0  0  0
   -7.6280   14.9361  -36.6717 H   0  0  0  0  0  0  0  0  0  0  0  0
   -8.6557   13.9307  -35.6527 H   0  0  0  0  0  0  0  0  0  0  0  0
  -14.1190   14.9324  -40.2711 H   0  0  0  0  0  0  0  0  0  0  0  0
  -13.5161   13.4528  -39.4995 H   0  0  0  0  0  0  0  0  0  0  0  0
  -11.3279   14.2123  -40.0286 H   0  0  0  0  0  0  0  0  0  0  0  0
  -12.0110   15.7159  -40.6207 H   0  0  0  0  0  0  0  0  0  0  0  0
  -11.1035   14.8499  -35.1229 H   0  0  0  0  0  0  0  0  0  0  0  0
  -11.5311   16.4272  -35.7576 H   0  0  0  0  0  0  0  0  0  0  0  0
  -13.3268   17.1309  -39.0025 H   0  0  0  0  0  0  0  0  0  0  0  0
  -13.0215   17.0378  -37.2500 H   0  0  0  0  0  0  0  0  0  0  0  0
  -13.3427   14.6746  -36.0481 H   0  0  0  0  0  0  0  0  0  0  0  0
  -13.1383   13.3022  -37.1385 H   0  0  0  0  0  0  0  0  0  0  0  0
   -9.1159   14.6165  -38.6039 H   0  0  0  0  0  0  0  0  0  0  0  0
   -8.6969   13.0535  -37.9201 H   0  0  0  0  0  0  0  0  0  0  0  0
  -14.8266   15.2408  -37.9244 H   0  0  0  0  0  0  0  0  0  0  0  0
  -10.8129   16.4792  -38.6159 H   0  0  0  0  0  0  0  0  0  0  0  0
  -11.0121   13.1185  -38.3459 H   0  0  0  0  0  0  0  0  0  0  0  0
  1  2  1  0  0  0  0
  1  5  1  0  0  0  0
  2  8  1  0  0  0  0
  3  4  1  0  0  0  0
  3  9  1  0  0  0  0
  4 10  1  0  0  0  0
  5 11  1  0  0  0  0
  6  9  1  0  0  0  0
  6 10  1  0  0  0  0
  7  9  1  0  0  0  0
  7 11  1  0  0  0  0
  8 12  1  0  0  0  0
 10 11  1  0  0  0  0
 11 12  1  0  0  0  0
  1 13  1  0  0  0  0
  1 14  1  0  0  0  0
  2 15  1  0  0  0  0
  2 16  1  0  0  0  0
  3 17  1  0  0  0  0
  3 18  1  0  0  0  0
  4 19  1  0  0  0  0
  4 20  1  0  0  0  0
  5 21  1  0  0  0  0
  5 22  1  0  0  0  0
  6 23  1  0  0  0  0
  6 24  1  0  0  0  0
  7 25  1  0  0  0  0
  7 26  1  0  0  0  0
  8 27  1  0  0  0  0
  8 28  1  0  0  0  0
  9 29  1  0  0  0  0
 10 30  1  0  0  0  0
 12 31  1  0  0  0  0
M  END
> <id>
EN300-1629026

> <smiles>
C1CC2CC1CC32CCCCN3

> <IUPAC Name>
spiro[bicyclo[2.2.1]heptane-2,2'-piperidine]

> <CAS>
172-96-3

> <URL>
https://www.enaminestore.com/catalog/EN300-1629026

> <ROCS_ShapeQuery>
x1247relevant_x1083L0AP1_x1305L0BP1_

> <ROCS_TanimotoCombo>
0.853 

> <ROCS_ShapeTanimoto>
0.462 

> <ROCS_ColorTanimoto>
0.391 

> <ROCS_RefTversky>
0.387 

> <ROCS_RefColorTversky>
0.412 

> <ROCS_RefTverskyCombo>
0.799 

> <ROCS_FitTversky>
1.727 

> <ROCS_FitColorTversky>
0.882 

> <ROCS_FitTverskyCombo>
2.609 

> <ROCS_ColorScore>
-8.746

> <ROCS_Overlap>
1136.975

> <ROCS_Rank>
62                  

$$$$
untitled-dbase-17027_3
  -OEChem-06162310163D

 46 48  0     1  0  0  0  0  0999 V2000
  -12.9111   16.9619  -38.6189 C   0  0  0  0  0  0  0  0  0  0  0  0
  -13.8127   16.3146  -37.5662 C   0  0  0  0  0  0  0  0  0  0  0  0
  -11.2037   15.0895  -39.0452 C   0  0  0  0  0  0  0  0  0  0  0  0
  -12.7071   14.0105  -37.2952 C   0  0  0  0  0  0  0  0  0  0  0  0
   -8.9489   13.9086  -37.3196 C   0  0  0  0  0  0  0  0  0  0  0  0
  -12.4889   15.8032  -39.5263 C   0  0  1  0  0  0  0  0  0  0  0  0
  -13.8435   14.8322  -37.9480 C   0  0  2  0  0  0  0  0  0  0  0  0
   -8.7225   15.0278  -36.2579 C   0  0  0  0  0  0  0  0  0  0  0  0
  -11.2784   14.5534  -37.5849 C   0  0  0  0  0  0  0  0  0  0  0  0
  -10.0943   15.5186  -35.6518 C   0  0  0  0  0  0  0  0  0  0  0  0
   -7.7732   14.4991  -35.1603 C   0  0  0  0  0  0  0  0  0  0  0  0
   -7.9771   16.1800  -36.9791 C   0  0  0  0  0  0  0  0  0  0  0  0
   -9.9997   16.9161  -35.0054 C   0  0  0  0  0  0  0  0  0  0  0  0
  -10.6743   14.5863  -34.5642 C   0  0  0  0  0  0  0  0  0  0  0  0
  -14.7496   15.1541  -40.1968 C   0  0  0  0  0  0  0  0  0  0  0  0
  -10.3294   13.4497  -37.3812 N   0  0  0  0  0  0  0  0  0  0  0  0
  -13.5753   14.8171  -39.3964 N   0  0  0  0  0  0  0  0  0  0  0  0
  -11.0513   15.6783  -36.7135 O   0  0  0  0  0  0  0  0  0  0  0  0
  -13.4900   17.7008  -39.1852 H   0  0  0  0  0  0  0  0  0  0  0  0
  -12.0660   17.4901  -38.1731 H   0  0  0  0  0  0  0  0  0  0  0  0
  -13.4574   16.4884  -36.5460 H   0  0  0  0  0  0  0  0  0  0  0  0
  -14.8176   16.7494  -37.6339 H   0  0  0  0  0  0  0  0  0  0  0  0
  -11.0210   14.2511  -39.7322 H   0  0  0  0  0  0  0  0  0  0  0  0
  -10.3659   15.7738  -39.1775 H   0  0  0  0  0  0  0  0  0  0  0  0
  -12.8805   13.9754  -36.2118 H   0  0  0  0  0  0  0  0  0  0  0  0
  -12.8042   12.9795  -37.6644 H   0  0  0  0  0  0  0  0  0  0  0  0
   -8.6133   14.2341  -38.3210 H   0  0  0  0  0  0  0  0  0  0  0  0
   -8.3089   13.0399  -37.0781 H   0  0  0  0  0  0  0  0  0  0  0  0
  -12.3396   16.1314  -40.5609 H   0  0  0  0  0  0  0  0  0  0  0  0
  -14.8033   14.3681  -37.6915 H   0  0  0  0  0  0  0  0  0  0  0  0
   -7.6219   15.2806  -34.4292 H   0  0  0  0  0  0  0  0  0  0  0  0
   -6.8330   14.2273  -35.6190 H   0  0  0  0  0  0  0  0  0  0  0  0
   -8.2286   13.6351  -34.6973 H   0  0  0  0  0  0  0  0  0  0  0  0
   -7.7993   16.9822  -36.2729 H   0  0  0  0  0  0  0  0  0  0  0  0
   -8.5890   16.5383  -37.7982 H   0  0  0  0  0  0  0  0  0  0  0  0
   -7.0334   15.8068  -37.3590 H   0  0  0  0  0  0  0  0  0  0  0  0
  -10.9712   17.1912  -34.6110 H   0  0  0  0  0  0  0  0  0  0  0  0
   -9.6911   17.6343  -35.7565 H   0  0  0  0  0  0  0  0  0  0  0  0
   -9.2716   16.8873  -34.2028 H   0  0  0  0  0  0  0  0  0  0  0  0
  -11.6100   14.9997  -34.2081 H   0  0  0  0  0  0  0  0  0  0  0  0
   -9.9668   14.5154  -33.7470 H   0  0  0  0  0  0  0  0  0  0  0  0
  -10.8428   13.6061  -34.9935 H   0  0  0  0  0  0  0  0  0  0  0  0
  -15.5222   14.3835  -40.0579 H   0  0  0  0  0  0  0  0  0  0  0  0
  -15.1436   16.1300  -39.8767 H   0  0  0  0  0  0  0  0  0  0  0  0
  -14.4676   15.2031  -41.2589 H   0  0  0  0  0  0  0  0  0  0  0  0
  -10.4339   12.7484  -38.1038 H   0  0  0  0  0  0  0  0  0  0  0  0
  1  2  1  0  0  0  0
  1  6  1  0  0  0  0
  2  7  1  0  0  0  0
  3  6  1  0  0  0  0
  3  9  1  0  0  0  0
  4  7  1  0  0  0  0
  4  9  1  0  0  0  0
  5  8  1  0  0  0  0
  5 16  1  0  0  0  0
  6 17  1  0  0  0  0
  7 17  1  0  0  0  0
  8 10  1  0  0  0  0
  8 11  1  0  0  0  0
  8 12  1  0  0  0  0
  9 16  1  0  0  0  0
  9 18  1  0  0  0  0
 10 13  1  0  0  0  0
 10 14  1  0  0  0  0
 10 18  1  0  0  0  0
 15 17  1  0  0  0  0
  1 19  1  0  0  0  0
  1 20  1  0  0  0  0
  2 21  1  0  0  0  0
  2 22  1  0  0  0  0
  3 23  1  0  0  0  0
  3 24  1  0  0  0  0
  4 25  1  0  0  0  0
  4 26  1  0  0  0  0
  5 27  1  0  0  0  0
  5 28  1  0  0  0  0
  6 29  1  0  0  0  0
  7 30  1  0  0  0  0
 11 31  1  0  0  0  0
 11 32  1  0  0  0  0
 11 33  1  0  0  0  0
 12 34  1  0  0  0  0
 12 35  1  0  0  0  0
 12 36  1  0  0  0  0
 13 37  1  0  0  0  0
 13 38  1  0  0  0  0
 13 39  1  0  0  0  0
 14 40  1  0  0  0  0
 14 41  1  0  0  0  0
 14 42  1  0  0  0  0
 15 43  1  0  0  0  0
 15 44  1  0  0  0  0
 15 45  1  0  0  0  0
 16 46  1  0  0  0  0
M  END
> <id>
EN300-1280152

> <smiles>
CN1C2CCC1CC3(C2)NCC(C)(C)C(C)(C)O3

> <IUPAC Name>
5',5',6',6',8-pentamethyl-8-azaspiro[bicyclo[3.2.1]octane-3,2'-[1,3]oxazinane]

> <CAS>
2171856-21-4

> <URL>
https://www.enaminestore.com/catalog/EN300-1280152

> <ROCS_ShapeQuery>
x1247relevant_x1083L0AP1_x1305L0BP1_

> <ROCS_TanimotoCombo>
0.853 

> <ROCS_ShapeTanimoto>
0.535 

> <ROCS_ColorTanimoto>
0.318 

> <ROCS_RefTversky>
0.456 

> <ROCS_RefColorTversky>
0.391 

> <ROCS_RefTverskyCombo>
0.847 

> <ROCS_FitTversky>
1.473 

> <ROCS_FitColorTversky>
0.631 

> <ROCS_FitTverskyCombo>
2.104 

> <ROCS_ColorScore>
-8.357

> <ROCS_Overlap>
1346.954

> <ROCS_Rank>
63                  

$$$$
untitled-dbase-18509_1
  -OEChem-06162310163D

 29 31  0     1  0  0  0  0  0999 V2000
   -9.8909   13.8116  -36.3460 C   0  0  0  0  0  0  0  0  0  0  0  0
  -13.9387   15.1455  -37.3141 C   0  0  0  0  0  0  0  0  0  0  0  0
  -13.6785   13.9247  -38.2268 C   0  0  0  0  0  0  0  0  0  0  0  0
  -11.7457   16.4444  -37.5167 C   0  0  0  0  0  0  0  0  0  0  0  0
  -11.3018   14.3798  -39.0562 C   0  0  0  0  0  0  0  0  0  0  0  0
   -9.4208   15.4590  -37.7207 C   0  0  0  0  0  0  0  0  0  0  0  0
  -13.2286   16.3677  -37.9231 C   0  0  1  0  0  0  0  0  0  0  0  0
  -12.8015   14.3793  -39.4067 C   0  0  2  0  0  0  0  0  0  0  0  0
  -10.9201   15.1566  -37.7606 C   0  0  0  0  0  0  0  0  0  0  0  0
  -11.0865   14.2397  -36.6077 N   0  0  0  0  0  0  0  0  0  0  0  0
   -9.5095   12.8873  -35.4215 N   0  0  0  0  0  0  0  0  0  0  0  0
  -12.3272   16.8140  -40.3960 O   0  0  0  0  0  0  0  0  0  0  0  0
  -14.7247   16.0684  -40.0880 O   0  0  0  0  0  0  0  0  0  0  0  0
   -8.8555   14.3359  -37.0612 O   0  0  0  0  0  0  0  0  0  0  0  0
  -13.3349   16.0625  -39.6801 S   0  0  0  0  0  0  0  0  0  0  0  0
  -15.0202   15.3319  -37.2873 H   0  0  0  0  0  0  0  0  0  0  0  0
  -13.6355   14.9599  -36.2789 H   0  0  0  0  0  0  0  0  0  0  0  0
  -13.2375   13.0863  -37.6786 H   0  0  0  0  0  0  0  0  0  0  0  0
  -14.6434   13.5683  -38.6090 H   0  0  0  0  0  0  0  0  0  0  0  0
  -11.2895   17.2780  -38.0697 H   0  0  0  0  0  0  0  0  0  0  0  0
  -11.6936   16.7295  -36.4557 H   0  0  0  0  0  0  0  0  0  0  0  0
  -10.9633   13.3411  -38.9660 H   0  0  0  0  0  0  0  0  0  0  0  0
  -10.7509   14.8102  -39.9005 H   0  0  0  0  0  0  0  0  0  0  0  0
   -8.9712   15.5255  -38.7183 H   0  0  0  0  0  0  0  0  0  0  0  0
   -9.1776   16.3746  -37.1733 H   0  0  0  0  0  0  0  0  0  0  0  0
  -13.7476   17.3017  -37.6918 H   0  0  0  0  0  0  0  0  0  0  0  0
  -12.9921   13.7945  -40.3107 H   0  0  0  0  0  0  0  0  0  0  0  0
  -10.2097   12.4613  -34.8522 H   0  0  0  0  0  0  0  0  0  0  0  0
   -8.5408   12.6622  -35.3393 H   0  0  0  0  0  0  0  0  0  0  0  0
  1 10  2  0  0  0  0
  1 11  1  0  0  0  0
  1 14  1  0  0  0  0
  2  3  1  0  0  0  0
  2  7  1  0  0  0  0
  3  8  1  0  0  0  0
  4  7  1  0  0  0  0
  4  9  1  0  0  0  0
  5  8  1  0  0  0  0
  5  9  1  0  0  0  0
  6  9  1  0  0  0  0
  6 14  1  0  0  0  0
  7 15  1  0  0  0  0
  8 15  1  0  0  0  0
  9 10  1  0  0  0  0
 12 15  2  0  0  0  0
 13 15  2  0  0  0  0
  2 16  1  0  0  0  0
  2 17  1  0  0  0  0
  3 18  1  0  0  0  0
  3 19  1  0  0  0  0
  4 20  1  0  0  0  0
  4 21  1  0  0  0  0
  5 22  1  0  0  0  0
  5 23  1  0  0  0  0
  6 24  1  0  0  0  0
  6 25  1  0  0  0  0
  7 26  1  0  0  0  0
  8 27  1  0  0  0  0
 11 28  1  0  0  0  0
 11 29  1  0  0  0  0
M  END
> <id>
EN300-1651797

> <smiles>
NC1=NC2(CO1)CC3CCC(C2)S3(=O)=O

> <IUPAC Name>
5'-amino-2'H-8lambda6-thiaspiro[bicyclo[3.2.1]octane-3,3'-[1,4]oxazole]-8,8-dione

> <CAS>
2171776-69-3

> <URL>
https://www.enaminestore.com/catalog/EN300-1651797

> <ROCS_ShapeQuery>
x1247relevant_x1083L0AP1_x1305L0BP1_

> <ROCS_TanimotoCombo>
0.853 

> <ROCS_ShapeTanimoto>
0.501 

> <ROCS_ColorTanimoto>
0.351 

> <ROCS_RefTversky>
0.423 

> <ROCS_RefColorTversky>
0.397 

> <ROCS_RefTverskyCombo>
0.820 

> <ROCS_FitTversky>
1.588 

> <ROCS_FitColorTversky>
0.752 

> <ROCS_FitTverskyCombo>
2.340 

> <ROCS_ColorScore>
-8.457

> <ROCS_Overlap>
1244.914

> <ROCS_Rank>
64                  

$$$$
untitled-dbase-29879_10
  -OEChem-06162310163D

 34 36  0     1  0  0  0  0  0999 V2000
   -8.6019   15.6679  -36.3679 C   0  0  0  0  0  0  0  0  0  0  0  0
   -9.8473   16.1019  -35.6076 C   0  0  0  0  0  0  0  0  0  0  0  0
   -8.4729   14.1675  -36.5815 C   0  0  0  0  0  0  0  0  0  0  0  0
  -13.0207   14.9370  -39.8553 C   0  0  0  0  0  0  0  0  0  0  0  0
  -13.3087   13.8633  -38.7994 C   0  0  0  0  0  0  0  0  0  0  0  0
  -11.1540   15.3557  -35.8811 C   0  0  0  0  0  0  0  0  0  0  0  0
  -13.5605   15.9746  -37.7802 C   0  0  0  0  0  0  0  0  0  0  0  0
  -11.2614   15.9875  -38.4054 C   0  0  0  0  0  0  0  0  0  0  0  0
   -9.2833   13.6725  -37.7760 C   0  0  0  0  0  0  0  0  0  0  0  0
  -12.6714   16.1672  -39.0037 C   0  0  1  0  0  0  0  0  0  0  0  0
  -12.9840   14.5861  -37.4716 C   0  0  2  0  0  0  0  0  0  0  0  0
  -11.4405   14.8767  -37.3290 C   0  0  2  0  0  0  0  0  0  0  0  0
  -10.7228   13.6218  -37.5808 N   0  0  0  0  0  0  0  0  0  0  0  0
   -8.5994   16.1570  -37.3488 H   0  0  0  0  0  0  0  0  0  0  0  0
   -7.7111   16.0326  -35.8430 H   0  0  0  0  0  0  0  0  0  0  0  0
   -9.6180   15.9859  -34.5150 H   0  0  0  0  0  0  0  0  0  0  0  0
   -9.9990   17.2122  -35.7138 H   0  0  0  0  0  0  0  0  0  0  0  0
   -7.4251   13.9080  -36.7113 H   0  0  0  0  0  0  0  0  0  0  0  0
   -8.8220   13.6594  -35.6862 H   0  0  0  0  0  0  0  0  0  0  0  0
  -12.2075   14.6468  -40.5282 H   0  0  0  0  0  0  0  0  0  0  0  0
  -13.9157   15.1199  -40.4608 H   0  0  0  0  0  0  0  0  0  0  0  0
  -14.3696   13.5874  -38.8298 H   0  0  0  0  0  0  0  0  0  0  0  0
  -12.7311   12.9502  -38.9635 H   0  0  0  0  0  0  0  0  0  0  0  0
  -11.2247   14.4918  -35.1802 H   0  0  0  0  0  0  0  0  0  0  0  0
  -11.9803   16.0212  -35.5447 H   0  0  0  0  0  0  0  0  0  0  0  0
  -13.3914   16.7169  -36.9963 H   0  0  0  0  0  0  0  0  0  0  0  0
  -14.6284   15.9519  -38.0235 H   0  0  0  0  0  0  0  0  0  0  0  0
  -10.5339   15.7282  -39.1872 H   0  0  0  0  0  0  0  0  0  0  0  0
  -10.9170   16.9313  -37.9606 H   0  0  0  0  0  0  0  0  0  0  0  0
   -9.1018   14.3812  -38.6132 H   0  0  0  0  0  0  0  0  0  0  0  0
   -8.8798   12.7062  -38.1598 H   0  0  0  0  0  0  0  0  0  0  0  0
  -12.7983   17.1147  -39.5336 H   0  0  0  0  0  0  0  0  0  0  0  0
  -13.4234   14.0883  -36.6048 H   0  0  0  0  0  0  0  0  0  0  0  0
  -11.1598   13.1208  -38.3689 H   0  0  0  0  0  0  0  0  0  0  0  0
  1  2  1  0  0  0  0
  1  3  1  0  0  0  0
  2  6  1  0  0  0  0
  3  9  1  0  0  0  0
  4  5  1  0  0  0  0
  4 10  1  0  0  0  0
  5 11  1  0  0  0  0
  6 12  1  0  0  0  0
  7 10  1  0  0  0  0
  7 11  1  0  0  0  0
  8 10  1  0  0  0  0
  8 12  1  0  0  0  0
  9 13  1  0  0  0  0
 11 12  1  0  0  0  0
 12 13  1  0  0  0  0
  1 14  1  0  0  0  0
  1 15  1  0  0  0  0
  2 16  1  0  0  0  0
  2 17  1  0  0  0  0
  3 18  1  0  0  0  0
  3 19  1  0  0  0  0
  4 20  1  0  0  0  0
  4 21  1  0  0  0  0
  5 22  1  0  0  0  0
  5 23  1  0  0  0  0
  6 24  1  0  0  0  0
  6 25  1  0  0  0  0
  7 26  1  0  0  0  0
  7 27  1  0  0  0  0
  8 28  1  0  0  0  0
  8 29  1  0  0  0  0
  9 30  1  0  0  0  0
  9 31  1  0  0  0  0
 10 32  1  0  0  0  0
 11 33  1  0  0  0  0
 13 34  1  0  0  0  0
M  END
> <id>
EN300-1629117

> <smiles>
C1CC2CC1CC32CCCCCN3

> <IUPAC Name>
spiro[azepane-2,2'-bicyclo[2.2.1]heptane]

> <CAS>
7161-08-2

> <URL>
https://www.enaminestore.com/catalog/EN300-1629117

> <ROCS_ShapeQuery>
x1247relevant_x1083L0AP1_x1305L0BP1_

> <ROCS_TanimotoCombo>
0.852 

> <ROCS_ShapeTanimoto>
0.468 

> <ROCS_ColorTanimoto>
0.385 

> <ROCS_RefTversky>
0.394 

> <ROCS_RefColorTversky>
0.408 

> <ROCS_RefTverskyCombo>
0.801 

> <ROCS_FitTversky>
1.669 

> <ROCS_FitColorTversky>
0.873 

> <ROCS_FitTverskyCombo>
2.541 

> <ROCS_ColorScore>
-8.649

> <ROCS_Overlap>
1157.743

> <ROCS_Rank>
65                  

$$$$
untitled-dbase-17070_2
  -OEChem-06162310163D

 37 39  0     1  0  0  0  0  0999 V2000
  -13.2245   13.7804  -38.7735 C   0  0  0  0  0  0  0  0  0  0  0  0
  -13.7108   15.6134  -37.1931 C   0  0  0  0  0  0  0  0  0  0  0  0
   -8.7380   15.0744  -36.6520 C   0  0  0  0  0  0  0  0  0  0  0  0
  -12.9890   14.8598  -39.8416 C   0  0  0  0  0  0  0  0  0  0  0  0
  -13.3423   16.6477  -38.2654 C   0  0  0  0  0  0  0  0  0  0  0  0
   -9.0861   13.7772  -37.3748 C   0  0  0  0  0  0  0  0  0  0  0  0
  -11.1316   15.7377  -38.5875 C   0  0  0  0  0  0  0  0  0  0  0  0
  -12.8468   14.3504  -37.3936 C   0  0  0  0  0  0  0  0  0  0  0  0
  -11.3390   14.7594  -37.3892 C   0  0  1  0  0  0  0  0  0  0  0  0
   -9.7945   15.4549  -35.6070 C   0  0  0  0  0  0  0  0  0  0  0  0
   -9.7841   14.4888  -34.4143 C   0  0  0  0  0  0  0  0  0  0  0  0
   -9.5270   16.8743  -35.0935 C   0  0  0  0  0  0  0  0  0  0  0  0
  -10.5202   13.5455  -37.5255 N   0  0  0  0  0  0  0  0  0  0  0  0
  -12.4059   16.0893  -39.2617 N   0  0  0  0  0  0  0  0  0  0  0  0
  -11.1213   15.4615  -36.1499 O   0  0  0  0  0  0  0  0  0  0  0  0
  -14.2765   13.4741  -38.7822 H   0  0  0  0  0  0  0  0  0  0  0  0
  -12.6277   12.8901  -38.9973 H   0  0  0  0  0  0  0  0  0  0  0  0
  -13.5684   16.0415  -36.1955 H   0  0  0  0  0  0  0  0  0  0  0  0
  -14.7737   15.3529  -37.2743 H   0  0  0  0  0  0  0  0  0  0  0  0
   -7.7445   14.9908  -36.1915 H   0  0  0  0  0  0  0  0  0  0  0  0
   -8.6611   15.8707  -37.4078 H   0  0  0  0  0  0  0  0  0  0  0  0
  -12.3308   14.4693  -40.6286 H   0  0  0  0  0  0  0  0  0  0  0  0
  -13.9337   15.1017  -40.3462 H   0  0  0  0  0  0  0  0  0  0  0  0
  -14.2507   17.0032  -38.7674 H   0  0  0  0  0  0  0  0  0  0  0  0
  -12.8979   17.5356  -37.7978 H   0  0  0  0  0  0  0  0  0  0  0  0
   -8.6231   13.7889  -38.3906 H   0  0  0  0  0  0  0  0  0  0  0  0
   -8.6032   12.8997  -36.8791 H   0  0  0  0  0  0  0  0  0  0  0  0
  -10.6402   16.6624  -38.2561 H   0  0  0  0  0  0  0  0  0  0  0  0
  -10.4633   15.3194  -39.3532 H   0  0  0  0  0  0  0  0  0  0  0  0
  -13.0807   13.6135  -36.6207 H   0  0  0  0  0  0  0  0  0  0  0  0
  -10.5433   14.7896  -33.6975 H   0  0  0  0  0  0  0  0  0  0  0  0
   -8.8078   14.5114  -33.9380 H   0  0  0  0  0  0  0  0  0  0  0  0
   -9.9940   13.4810  -34.7622 H   0  0  0  0  0  0  0  0  0  0  0  0
  -10.2780   17.1366  -34.3549 H   0  0  0  0  0  0  0  0  0  0  0  0
   -9.5739   17.5715  -35.9241 H   0  0  0  0  0  0  0  0  0  0  0  0
   -8.5413   16.9127  -34.6405 H   0  0  0  0  0  0  0  0  0  0  0  0
  -10.6795   13.1377  -38.4510 H   0  0  0  0  0  0  0  0  0  0  0  0
  1  4  1  0  0  0  0
  1  8  1  0  0  0  0
  2  5  1  0  0  0  0
  2  8  1  0  0  0  0
  3  6  1  0  0  0  0
  3 10  1  0  0  0  0
  4 14  1  0  0  0  0
  5 14  1  0  0  0  0
  6 13  1  0  0  0  0
  7  9  1  0  0  0  0
  7 14  1  0  0  0  0
  8  9  1  0  0  0  0
  9 13  1  0  0  0  0
  9 15  1  0  0  0  0
 10 11  1  0  0  0  0
 10 12  1  0  0  0  0
 10 15  1  0  0  0  0
  1 16  1  0  0  0  0
  1 17  1  0  0  0  0
  2 18  1  0  0  0  0
  2 19  1  0  0  0  0
  3 20  1  0  0  0  0
  3 21  1  0  0  0  0
  4 22  1  0  0  0  0
  4 23  1  0  0  0  0
  5 24  1  0  0  0  0
  5 25  1  0  0  0  0
  6 26  1  0  0  0  0
  6 27  1  0  0  0  0
  7 28  1  0  0  0  0
  7 29  1  0  0  0  0
  8 30  1  0  0  0  0
 11 31  1  0  0  0  0
 11 32  1  0  0  0  0
 11 33  1  0  0  0  0
 12 34  1  0  0  0  0
 12 35  1  0  0  0  0
 12 36  1  0  0  0  0
 13 37  1  0  0  0  0
M  END
> <id>
EN300-1279787

> <smiles>
CC1(C)CCNC2(CN3CCC2CC3)O1

> <IUPAC Name>
6',6'-dimethyl-4-azaspiro[bicyclo[2.2.2]octane-2,2'-[1,3]oxazinane]

> <CAS>
2169085-01-0

> <URL>
https://www.enaminestore.com/catalog/EN300-1279787

> <ROCS_ShapeQuery>
x1247relevant_x1083L0AP1_x1305L0BP1_

> <ROCS_TanimotoCombo>
0.852 

> <ROCS_ShapeTanimoto>
0.500 

> <ROCS_ColorTanimoto>
0.352 

> <ROCS_RefTversky>
0.423 

> <ROCS_RefColorTversky>
0.414 

> <ROCS_RefTverskyCombo>
0.837 

> <ROCS_FitTversky>
1.573 

> <ROCS_FitColorTversky>
0.704 

> <ROCS_FitTverskyCombo>
2.277 

> <ROCS_ColorScore>
-8.838

> <ROCS_Overlap>
1245.352

> <ROCS_Rank>
66                  

$$$$
untitled-dbase-17075_17
  -OEChem-06162310163D

 40 42  0     1  0  0  0  0  0999 V2000
  -13.2883   15.4386  -40.0753 C   0  0  0  0  0  0  0  0  0  0  0  0
  -14.2385   14.6752  -39.1608 C   0  0  0  0  0  0  0  0  0  0  0  0
   -8.6487   15.0534  -36.5525 C   0  0  0  0  0  0  0  0  0  0  0  0
  -11.1181   15.4146  -38.7522 C   0  0  0  0  0  0  0  0  0  0  0  0
  -12.6971   14.0863  -37.2338 C   0  0  0  0  0  0  0  0  0  0  0  0
   -8.9366   13.7791  -37.3434 C   0  0  0  0  0  0  0  0  0  0  0  0
  -12.3866   16.2295  -39.1183 C   0  0  2  0  0  0  0  0  0  0  0  0
  -13.7931   15.0593  -37.7443 C   0  0  1  0  0  0  0  0  0  0  0  0
  -11.2454   14.6065  -37.4292 C   0  0  0  0  0  0  0  0  0  0  0  0
   -9.7995   15.4438  -35.6163 C   0  0  0  0  0  0  0  0  0  0  0  0
   -9.5377   16.8411  -35.0396 C   0  0  0  0  0  0  0  0  0  0  0  0
   -9.9674   14.4608  -34.4488 C   0  0  0  0  0  0  0  0  0  0  0  0
  -14.1949   17.4602  -38.0188 C   0  0  0  0  0  0  0  0  0  0  0  0
  -10.3521   13.4458  -37.4048 N   0  0  0  0  0  0  0  0  0  0  0  0
  -13.2002   16.3986  -37.9022 N   0  0  0  0  0  0  0  0  0  0  0  0
  -11.0349   15.5372  -36.3367 O   0  0  0  0  0  0  0  0  0  0  0  0
  -12.7379   14.8176  -40.7865 H   0  0  0  0  0  0  0  0  0  0  0  0
  -13.8752   16.1372  -40.6867 H   0  0  0  0  0  0  0  0  0  0  0  0
  -15.2634   15.0252  -39.3371 H   0  0  0  0  0  0  0  0  0  0  0  0
  -14.2512   13.5961  -39.3332 H   0  0  0  0  0  0  0  0  0  0  0  0
   -7.7364   14.8750  -35.9590 H   0  0  0  0  0  0  0  0  0  0  0  0
   -8.4077   15.8767  -37.2425 H   0  0  0  0  0  0  0  0  0  0  0  0
  -10.8897   14.7638  -39.5942 H   0  0  0  0  0  0  0  0  0  0  0  0
  -10.2753   16.1057  -38.6678 H   0  0  0  0  0  0  0  0  0  0  0  0
  -12.8773   13.8992  -36.1710 H   0  0  0  0  0  0  0  0  0  0  0  0
  -12.8199   13.1167  -37.7216 H   0  0  0  0  0  0  0  0  0  0  0  0
   -8.4947   13.8391  -38.3596 H   0  0  0  0  0  0  0  0  0  0  0  0
   -8.3999   12.9376  -36.8591 H   0  0  0  0  0  0  0  0  0  0  0  0
  -12.0744   17.1791  -39.5653 H   0  0  0  0  0  0  0  0  0  0  0  0
  -14.6366   15.0329  -37.0478 H   0  0  0  0  0  0  0  0  0  0  0  0
  -10.3526   17.1183  -34.3764 H   0  0  0  0  0  0  0  0  0  0  0  0
   -9.4704   17.5613  -35.8504 H   0  0  0  0  0  0  0  0  0  0  0  0
   -8.6044   16.8346  -34.4830 H   0  0  0  0  0  0  0  0  0  0  0  0
  -10.7921   14.7852  -33.8220 H   0  0  0  0  0  0  0  0  0  0  0  0
   -9.0529   14.4378  -33.8646 H   0  0  0  0  0  0  0  0  0  0  0  0
  -10.1749   13.4701  -34.8406 H   0  0  0  0  0  0  0  0  0  0  0  0
  -14.7653   17.5334  -37.0811 H   0  0  0  0  0  0  0  0  0  0  0  0
  -13.6888   18.4168  -38.2156 H   0  0  0  0  0  0  0  0  0  0  0  0
  -14.8805   17.2307  -38.8478 H   0  0  0  0  0  0  0  0  0  0  0  0
  -10.5024   12.8077  -38.1849 H   0  0  0  0  0  0  0  0  0  0  0  0
  1  2  1  0  0  0  0
  1  7  1  0  0  0  0
  2  8  1  0  0  0  0
  3  6  1  0  0  0  0
  3 10  1  0  0  0  0
  4  7  1  0  0  0  0
  4  9  1  0  0  0  0
  5  8  1  0  0  0  0
  5  9  1  0  0  0  0
  6 14  1  0  0  0  0
  7 15  1  0  0  0  0
  8 15  1  0  0  0  0
  9 14  1  0  0  0  0
  9 16  1  0  0  0  0
 10 11  1  0  0  0  0
 10 12  1  0  0  0  0
 10 16  1  0  0  0  0
 13 15  1  0  0  0  0
  1 17  1  0  0  0  0
  1 18  1  0  0  0  0
  2 19  1  0  0  0  0
  2 20  1  0  0  0  0
  3 21  1  0  0  0  0
  3 22  1  0  0  0  0
  4 23  1  0  0  0  0
  4 24  1  0  0  0  0
  5 25  1  0  0  0  0
  5 26  1  0  0  0  0
  6 27  1  0  0  0  0
  6 28  1  0  0  0  0
  7 29  1  0  0  0  0
  8 30  1  0  0  0  0
 11 31  1  0  0  0  0
 11 32  1  0  0  0  0
 11 33  1  0  0  0  0
 12 34  1  0  0  0  0
 12 35  1  0  0  0  0
 12 36  1  0  0  0  0
 13 37  1  0  0  0  0
 13 38  1  0  0  0  0
 13 39  1  0  0  0  0
 14 40  1  0  0  0  0
M  END
> <id>
EN300-1279800

> <smiles>
CN1C2CCC1CC3(C2)NCCC(C)(C)O3

> <IUPAC Name>
6',6',8-trimethyl-8-azaspiro[bicyclo[3.2.1]octane-3,2'-[1,3]oxazinane]

> <CAS>
2167691-06-5

> <URL>
https://www.enaminestore.com/catalog/EN300-1279800

> <ROCS_ShapeQuery>
x1247relevant_x1083L0AP1_x1305L0BP1_

> <ROCS_TanimotoCombo>
0.852 

> <ROCS_ShapeTanimoto>
0.517 

> <ROCS_ColorTanimoto>
0.335 

> <ROCS_RefTversky>
0.437 

> <ROCS_RefColorTversky>
0.396 

> <ROCS_RefTverskyCombo>
0.832 

> <ROCS_FitTversky>
1.548 

> <ROCS_FitColorTversky>
0.688 

> <ROCS_FitTverskyCombo>
2.236 

> <ROCS_ColorScore>
-8.443

> <ROCS_Overlap>
1287.046

> <ROCS_Rank>
67                  

$$$$
untitled-dbase-19650_7
  -OEChem-06162310163D

 32 34  0     1  0  0  0  0  0999 V2000
   -9.9032   14.8128  -37.1740 C   0  0  0  0  0  0  0  0  0  0  0  0
  -13.3589   15.7959  -37.2796 C   0  0  0  0  0  0  0  0  0  0  0  0
  -12.1972   13.7484  -37.5017 C   0  0  0  0  0  0  0  0  0  0  0  0
  -13.4687   14.4498  -38.0341 C   0  0  2  0  0  0  0  0  0  0  0  0
  -11.9669   16.0977  -37.8642 C   0  0  2  0  0  0  0  0  0  0  0  0
  -13.1878   14.8499  -39.4802 C   0  0  2  0  0  0  0  0  0  0  0  0
  -12.1841   15.9589  -39.3642 C   0  0  1  0  0  0  0  0  0  0  0  0
   -9.5909   14.3037  -34.6242 C   0  0  0  0  0  0  0  0  0  0  0  0
   -9.2691   11.8785  -35.1938 C   0  0  0  0  0  0  0  0  0  0  0  0
   -7.4372   13.5292  -35.6713 C   0  0  0  0  0  0  0  0  0  0  0  0
   -8.9485   13.3161  -35.5973 C   0  0  0  0  0  0  0  0  0  0  0  0
  -11.2486   14.8756  -37.4679 N   0  0  0  0  0  0  0  0  0  0  0  0
   -9.1521   15.7848  -37.1590 O   0  0  0  0  0  0  0  0  0  0  0  0
  -13.4984   16.1872  -39.8804 O   0  0  0  0  0  0  0  0  0  0  0  0
   -9.5037   13.5328  -36.8993 O   0  0  0  0  0  0  0  0  0  0  0  0
  -14.1242   16.5222  -37.5720 H   0  0  0  0  0  0  0  0  0  0  0  0
  -13.3587   15.6868  -36.1895 H   0  0  0  0  0  0  0  0  0  0  0  0
  -12.3199   13.3687  -36.4824 H   0  0  0  0  0  0  0  0  0  0  0  0
  -11.8173   12.9583  -38.1564 H   0  0  0  0  0  0  0  0  0  0  0  0
  -14.3996   13.9010  -37.8855 H   0  0  0  0  0  0  0  0  0  0  0  0
  -11.4826   17.0221  -37.5459 H   0  0  0  0  0  0  0  0  0  0  0  0
  -13.0562   14.0647  -40.2054 H   0  0  0  0  0  0  0  0  0  0  0  0
  -11.3192   15.9835  -40.0059 H   0  0  0  0  0  0  0  0  0  0  0  0
   -9.3631   15.3367  -34.9104 H   0  0  0  0  0  0  0  0  0  0  0  0
  -10.6787   14.1846  -34.5882 H   0  0  0  0  0  0  0  0  0  0  0  0
   -9.1942   14.1688  -33.6114 H   0  0  0  0  0  0  0  0  0  0  0  0
   -8.8101   11.1666  -35.8893 H   0  0  0  0  0  0  0  0  0  0  0  0
  -10.3488   11.6942  -35.2313 H   0  0  0  0  0  0  0  0  0  0  0  0
   -8.9138   11.6538  -34.1829 H   0  0  0  0  0  0  0  0  0  0  0  0
   -6.9762   12.8209  -36.3692 H   0  0  0  0  0  0  0  0  0  0  0  0
   -7.1885   14.5450  -35.9951 H   0  0  0  0  0  0  0  0  0  0  0  0
   -6.9703   13.3505  -34.6959 H   0  0  0  0  0  0  0  0  0  0  0  0
  1 12  1  0  0  0  0
  1 13  2  0  0  0  0
  1 15  1  0  0  0  0
  2  4  1  0  0  0  0
  2  5  1  0  0  0  0
  3  4  1  0  0  0  0
  3 12  1  0  0  0  0
  4  6  1  0  0  0  0
  5  7  1  0  0  0  0
  5 12  1  0  0  0  0
  6  7  1  0  0  0  0
  6 14  1  0  0  0  0
  7 14  1  0  0  0  0
  8 11  1  0  0  0  0
  9 11  1  0  0  0  0
 10 11  1  0  0  0  0
 11 15  1  0  0  0  0
  2 16  1  0  0  0  0
  2 17  1  0  0  0  0
  3 18  1  0  0  0  0
  3 19  1  0  0  0  0
  4 20  1  0  0  0  0
  5 21  1  0  0  0  0
  6 22  1  0  0  0  0
  7 23  1  0  0  0  0
  8 24  1  0  0  0  0
  8 25  1  0  0  0  0
  8 26  1  0  0  0  0
  9 27  1  0  0  0  0
  9 28  1  0  0  0  0
  9 29  1  0  0  0  0
 10 30  1  0  0  0  0
 10 31  1  0  0  0  0
 10 32  1  0  0  0  0
M  END
> <id>
EN300-1708259

> <smiles>
CC(C)(C)OC(=O)N1CC2CC1C3OC32

> <MDLNUMBER>
MFCD32762338

> <IUPAC Name>
tert-butyl 3-oxa-6-azatricyclo[3.2.1.0,2,4]octane-6-carboxylate

> <CAS>
2219371-15-8

> <URL>
https://www.enaminestore.com/catalog/EN300-1708259

> <ROCS_ShapeQuery>
x1247relevant_x1083L0AP1_x1305L0BP1_

> <ROCS_TanimotoCombo>
0.851 

> <ROCS_ShapeTanimoto>
0.498 

> <ROCS_ColorTanimoto>
0.353 

> <ROCS_RefTversky>
0.423 

> <ROCS_RefColorTversky>
0.506 

> <ROCS_RefTverskyCombo>
0.929 

> <ROCS_FitTversky>
1.547 

> <ROCS_FitColorTversky>
0.539 

> <ROCS_FitTverskyCombo>
2.086 

> <ROCS_ColorScore>
-11.019

> <ROCS_Overlap>
1247.256

> <ROCS_Rank>
68                  

$$$$
untitled-dbase-30526_48
  -OEChem-06162310163D

 40 41  0     1  0  0  0  0  0999 V2000
  -10.1727   14.7640  -37.3028 C   0  0  0  0  0  0  0  0  0  0  0  0
  -13.7166   15.3919  -37.0262 C   0  0  0  0  0  0  0  0  0  0  0  0
  -13.6596   14.0337  -37.7542 C   0  0  0  0  0  0  0  0  0  0  0  0
  -12.3878   16.8991  -38.6118 C   0  0  0  0  0  0  0  0  0  0  0  0
  -12.2982   14.6190  -39.8419 C   0  0  0  0  0  0  0  0  0  0  0  0
  -12.3660   16.0544  -37.3199 C   0  0  2  0  0  0  0  0  0  0  0  0
  -12.2829   14.0043  -38.4256 C   0  0  1  0  0  0  0  0  0  0  0  0
  -12.8047   16.0876  -39.8708 C   0  0  0  0  0  0  0  0  0  0  0  0
   -9.8767   14.1782  -34.7664 C   0  0  0  0  0  0  0  0  0  0  0  0
   -9.6762   11.7549  -35.3963 C   0  0  0  0  0  0  0  0  0  0  0  0
   -7.7672   13.3250  -35.8419 C   0  0  0  0  0  0  0  0  0  0  0  0
  -12.3269   16.7887  -41.1458 C   0  0  0  0  0  0  0  0  0  0  0  0
   -9.2868   13.1846  -35.7661 C   0  0  0  0  0  0  0  0  0  0  0  0
  -11.5161   14.9067  -37.5890 N   0  0  0  0  0  0  0  0  0  0  0  0
   -9.3714   15.6951  -37.2673 O   0  0  0  0  0  0  0  0  0  0  0  0
  -14.2360   16.0490  -39.9415 O   0  0  0  0  0  0  0  0  0  0  0  0
   -9.8351   13.4600  -37.0598 O   0  0  0  0  0  0  0  0  0  0  0  0
  -10.9916   16.9022  -41.1302 F   0  0  0  0  0  0  0  0  0  0  0  0
  -12.6936   16.0781  -42.2212 F   0  0  0  0  0  0  0  0  0  0  0  0
  -12.8692   18.0119  -41.2234 F   0  0  0  0  0  0  0  0  0  0  0  0
  -14.5716   15.9971  -37.3420 H   0  0  0  0  0  0  0  0  0  0  0  0
  -13.8217   15.2143  -35.9490 H   0  0  0  0  0  0  0  0  0  0  0  0
  -13.7347   13.2282  -37.0137 H   0  0  0  0  0  0  0  0  0  0  0  0
  -14.4854   13.9070  -38.4606 H   0  0  0  0  0  0  0  0  0  0  0  0
  -13.0687   17.7480  -38.4712 H   0  0  0  0  0  0  0  0  0  0  0  0
  -11.3813   17.3129  -38.7589 H   0  0  0  0  0  0  0  0  0  0  0  0
  -11.2737   14.5785  -40.2354 H   0  0  0  0  0  0  0  0  0  0  0  0
  -12.9178   13.9917  -40.4948 H   0  0  0  0  0  0  0  0  0  0  0  0
  -12.0041   16.6504  -36.4770 H   0  0  0  0  0  0  0  0  0  0  0  0
  -11.8466   13.0008  -38.4474 H   0  0  0  0  0  0  0  0  0  0  0  0
   -9.5994   15.2056  -35.0284 H   0  0  0  0  0  0  0  0  0  0  0  0
  -10.9689   14.1118  -34.7282 H   0  0  0  0  0  0  0  0  0  0  0  0
   -9.4836   13.9993  -33.7590 H   0  0  0  0  0  0  0  0  0  0  0  0
   -9.2551   11.0386  -36.1110 H   0  0  0  0  0  0  0  0  0  0  0  0
  -10.7638   11.6247  -35.4333 H   0  0  0  0  0  0  0  0  0  0  0  0
   -9.3290   11.4884  -34.3929 H   0  0  0  0  0  0  0  0  0  0  0  0
   -7.3438   12.6124  -36.5589 H   0  0  0  0  0  0  0  0  0  0  0  0
   -7.4700   14.3351  -36.1421 H   0  0  0  0  0  0  0  0  0  0  0  0
   -7.3063   13.0998  -34.8733 H   0  0  0  0  0  0  0  0  0  0  0  0
  -14.5261   16.9700  -40.0020 H   0  0  0  0  0  0  0  0  0  0  0  0
  1 14  1  0  0  0  0
  1 15  2  0  0  0  0
  1 17  1  0  0  0  0
  2  3  1  0  0  0  0
  2  6  1  0  0  0  0
  3  7  1  0  0  0  0
  4  6  1  0  0  0  0
  4  8  1  0  0  0  0
  5  7  1  0  0  0  0
  5  8  1  0  0  0  0
  6 14  1  0  0  0  0
  7 14  1  0  0  0  0
  8 12  1  0  0  0  0
  8 16  1  0  0  0  0
  9 13  1  0  0  0  0
 10 13  1  0  0  0  0
 11 13  1  0  0  0  0
 12 18  1  0  0  0  0
 12 19  1  0  0  0  0
 12 20  1  0  0  0  0
 13 17  1  0  0  0  0
  2 21  1  0  0  0  0
  2 22  1  0  0  0  0
  3 23  1  0  0  0  0
  3 24  1  0  0  0  0
  4 25  1  0  0  0  0
  4 26  1  0  0  0  0
  5 27  1  0  0  0  0
  5 28  1  0  0  0  0
  6 29  1  0  0  0  0
  7 30  1  0  0  0  0
  9 31  1  0  0  0  0
  9 32  1  0  0  0  0
  9 33  1  0  0  0  0
 10 34  1  0  0  0  0
 10 35  1  0  0  0  0
 10 36  1  0  0  0  0
 11 37  1  0  0  0  0
 11 38  1  0  0  0  0
 11 39  1  0  0  0  0
 16 40  1  0  0  0  0
M  END
> <id>
EN300-12464143

> <smiles>
CC(C)(C)OC(=O)N1C2CCC1CC(O)(C2)C(F)(F)F

> <MDLNUMBER>
MFCD24467654

> <IUPAC Name>
tert-butyl 3-hydroxy-3-(trifluoromethyl)-8-azabicyclo[3.2.1]octane-8-carboxylate

> <CAS>
1701433-46-6

> <URL>
https://www.enaminestore.com/catalog/EN300-12464143

> <ROCS_ShapeQuery>
x1247relevant_x1083L0AP1_x1305L0BP1_

> <ROCS_TanimotoCombo>
0.851 

> <ROCS_ShapeTanimoto>
0.509 

> <ROCS_ColorTanimoto>
0.342 

> <ROCS_RefTversky>
0.453 

> <ROCS_RefColorTversky>
0.380 

> <ROCS_RefTverskyCombo>
0.833 

> <ROCS_FitTversky>
1.320 

> <ROCS_FitColorTversky>
0.775 

> <ROCS_FitTverskyCombo>
2.095 

> <ROCS_ColorScore>
-8.075

> <ROCS_Overlap>
1339.727

> <ROCS_Rank>
69                  

$$$$
untitled-dbase-35709_0
  -OEChem-06162310163D

 26 28  0     1  0  0  0  0  0999 V2000
  -13.4548   14.6382  -39.4726 C   0  0  0  0  0  0  0  0  0  0  0  0
  -13.5228   14.0176  -38.0699 C   0  0  0  0  0  0  0  0  0  0  0  0
  -13.1088   16.3429  -37.8505 C   0  0  0  0  0  0  0  0  0  0  0  0
  -11.1665   15.5383  -38.9937 C   0  0  0  0  0  0  0  0  0  0  0  0
   -9.2396   13.8871  -37.0503 C   0  0  0  0  0  0  0  0  0  0  0  0
   -9.4466   15.0347  -36.0924 C   0  0  0  0  0  0  0  0  0  0  0  0
  -12.6402   15.9229  -39.2425 C   0  0  1  0  0  0  0  0  0  0  0  0
  -12.7079   15.0052  -37.2145 C   0  0  2  0  0  0  0  0  0  0  0  0
  -11.1993   14.9407  -37.5657 C   0  0  1  0  0  0  0  0  0  0  0  0
  -10.6035   13.6029  -37.4914 N   0  0  0  0  0  0  0  0  0  0  0  0
  -10.4805   15.8259  -36.6847 O   0  0  0  0  0  0  0  0  0  0  0  0
  -12.9850   13.9660  -40.1977 H   0  0  0  0  0  0  0  0  0  0  0  0
  -14.4640   14.8735  -39.8295 H   0  0  0  0  0  0  0  0  0  0  0  0
  -14.5641   13.9832  -37.7284 H   0  0  0  0  0  0  0  0  0  0  0  0
  -13.1333   12.9960  -38.0491 H   0  0  0  0  0  0  0  0  0  0  0  0
  -12.5628   17.2036  -37.4517 H   0  0  0  0  0  0  0  0  0  0  0  0
  -14.1851   16.5399  -37.7986 H   0  0  0  0  0  0  0  0  0  0  0  0
  -10.8168   14.8351  -39.7578 H   0  0  0  0  0  0  0  0  0  0  0  0
  -10.5250   16.4263  -39.0358 H   0  0  0  0  0  0  0  0  0  0  0  0
   -8.6300   14.2025  -37.9054 H   0  0  0  0  0  0  0  0  0  0  0  0
   -8.7642   13.0237  -36.5778 H   0  0  0  0  0  0  0  0  0  0  0  0
   -9.7958   14.6918  -35.1121 H   0  0  0  0  0  0  0  0  0  0  0  0
   -8.5482   15.6437  -35.9601 H   0  0  0  0  0  0  0  0  0  0  0  0
  -12.7694   16.6681  -40.0298 H   0  0  0  0  0  0  0  0  0  0  0  0
  -12.9159   14.9442  -36.1432 H   0  0  0  0  0  0  0  0  0  0  0  0
  -10.6003   13.1351  -38.3955 H   0  0  0  0  0  0  0  0  0  0  0  0
  1  2  1  0  0  0  0
  1  7  1  0  0  0  0
  2  8  1  0  0  0  0
  3  7  1  0  0  0  0
  3  8  1  0  0  0  0
  4  7  1  0  0  0  0
  4  9  1  0  0  0  0
  5  6  1  0  0  0  0
  5 10  1  0  0  0  0
  6 11  1  0  0  0  0
  8  9  1  0  0  0  0
  9 10  1  0  0  0  0
  9 11  1  0  0  0  0
  1 12  1  0  0  0  0
  1 13  1  0  0  0  0
  2 14  1  0  0  0  0
  2 15  1  0  0  0  0
  3 16  1  0  0  0  0
  3 17  1  0  0  0  0
  4 18  1  0  0  0  0
  4 19  1  0  0  0  0
  5 20  1  0  0  0  0
  5 21  1  0  0  0  0
  6 22  1  0  0  0  0
  6 23  1  0  0  0  0
  7 24  1  0  0  0  0
  8 25  1  0  0  0  0
 10 26  1  0  0  0  0
M  END
> <id>
EN300-1645495

> <smiles>
C1COC2(CC3CCC2C3)N1

> <IUPAC Name>
spiro[bicyclo[2.2.1]heptane-2,2'-[1,3]oxazolidine]

> <CAS>
56114-93-3

> <URL>
https://www.enaminestore.com/catalog/EN300-1645495

> <ROCS_ShapeQuery>
x1247relevant_x1083L0AP1_x1305L0BP1_

> <ROCS_TanimotoCombo>
0.851 

> <ROCS_ShapeTanimoto>
0.466 

> <ROCS_ColorTanimoto>
0.386 

> <ROCS_RefTversky>
0.386 

> <ROCS_RefColorTversky>
0.421 

> <ROCS_RefTverskyCombo>
0.807 

> <ROCS_FitTversky>
1.796 

> <ROCS_FitColorTversky>
0.822 

> <ROCS_FitTverskyCombo>
2.618 

> <ROCS_ColorScore>
-8.948

> <ROCS_Overlap>
1133.551

> <ROCS_Rank>
70                  

$$$$
untitled-dbase-16642_0
  -OEChem-06162310163D

 41 44  0     1  0  0  0  0  0999 V2000
   -7.8991   15.1749  -34.1295 C   0  0  0  0  0  0  0  0  0  0  0  0
  -12.9623   16.9636  -38.4100 C   0  0  0  0  0  0  0  0  0  0  0  0
  -13.9077   16.1555  -37.5191 C   0  0  0  0  0  0  0  0  0  0  0  0
   -8.9967   14.2034  -34.6033 C   0  0  0  0  0  0  0  0  0  0  0  0
   -7.4924   15.3528  -35.6047 C   0  0  0  0  0  0  0  0  0  0  0  0
  -11.1441   15.2287  -38.9420 C   0  0  0  0  0  0  0  0  0  0  0  0
  -12.7049   13.8839  -37.4493 C   0  0  0  0  0  0  0  0  0  0  0  0
   -8.9544   13.9236  -37.1938 C   0  0  0  0  0  0  0  0  0  0  0  0
   -9.9202   16.0191  -36.2227 C   0  0  0  0  0  0  0  0  0  0  0  0
  -12.4269   15.9473  -39.4222 C   0  0  1  0  0  0  0  0  0  0  0  0
  -13.8367   14.7317  -38.0776 C   0  0  2  0  0  0  0  0  0  0  0  0
   -8.9218   14.8831  -36.0070 C   0  0  0  0  0  0  0  0  0  0  0  0
  -11.2910   14.5278  -37.5581 C   0  0  0  0  0  0  0  0  0  0  0  0
  -14.6036   15.2994  -40.3303 C   0  0  0  0  0  0  0  0  0  0  0  0
  -10.3169   13.4324  -37.3866 N   0  0  0  0  0  0  0  0  0  0  0  0
  -13.4713   14.9105  -39.4937 N   0  0  0  0  0  0  0  0  0  0  0  0
  -11.2185   15.4774  -36.4734 O   0  0  0  0  0  0  0  0  0  0  0  0
   -8.2866   16.0880  -33.6639 H   0  0  0  0  0  0  0  0  0  0  0  0
   -7.1355   14.7439  -33.4769 H   0  0  0  0  0  0  0  0  0  0  0  0
  -13.5306   17.7505  -38.9202 H   0  0  0  0  0  0  0  0  0  0  0  0
  -12.1706   17.4577  -37.8393 H   0  0  0  0  0  0  0  0  0  0  0  0
  -13.6406   16.2159  -36.4602 H   0  0  0  0  0  0  0  0  0  0  0  0
  -14.9248   16.5549  -37.6161 H   0  0  0  0  0  0  0  0  0  0  0  0
   -8.6769   13.1542  -34.5882 H   0  0  0  0  0  0  0  0  0  0  0  0
   -9.9511   14.2818  -34.0747 H   0  0  0  0  0  0  0  0  0  0  0  0
   -7.2159   16.3705  -35.8948 H   0  0  0  0  0  0  0  0  0  0  0  0
   -6.6885   14.6736  -35.9140 H   0  0  0  0  0  0  0  0  0  0  0  0
  -10.8834   14.4789  -39.7031 H   0  0  0  0  0  0  0  0  0  0  0  0
  -10.3252   15.9551  -38.9359 H   0  0  0  0  0  0  0  0  0  0  0  0
  -12.9489   13.6984  -36.3946 H   0  0  0  0  0  0  0  0  0  0  0  0
  -12.7120   12.9060  -37.9527 H   0  0  0  0  0  0  0  0  0  0  0  0
   -8.5887   14.4167  -38.1024 H   0  0  0  0  0  0  0  0  0  0  0  0
   -8.2949   13.0661  -37.0176 H   0  0  0  0  0  0  0  0  0  0  0  0
  -10.0022   16.6591  -35.3379 H   0  0  0  0  0  0  0  0  0  0  0  0
   -9.6187   16.6685  -37.0508 H   0  0  0  0  0  0  0  0  0  0  0  0
  -12.2257   16.4094  -40.3956 H   0  0  0  0  0  0  0  0  0  0  0  0
  -14.7856   14.1978  -37.9510 H   0  0  0  0  0  0  0  0  0  0  0  0
  -15.3461   14.4879  -40.3437 H   0  0  0  0  0  0  0  0  0  0  0  0
  -15.0645   16.2112  -39.9225 H   0  0  0  0  0  0  0  0  0  0  0  0
  -14.2531   15.4925  -41.3549 H   0  0  0  0  0  0  0  0  0  0  0  0
  -10.3442   12.8111  -38.1944 H   0  0  0  0  0  0  0  0  0  0  0  0
  1  4  1  0  0  0  0
  1  5  1  0  0  0  0
  2  3  1  0  0  0  0
  2 10  1  0  0  0  0
  3 11  1  0  0  0  0
  4 12  1  0  0  0  0
  5 12  1  0  0  0  0
  6 10  1  0  0  0  0
  6 13  1  0  0  0  0
  7 11  1  0  0  0  0
  7 13  1  0  0  0  0
  8 12  1  0  0  0  0
  8 15  1  0  0  0  0
  9 12  1  0  0  0  0
  9 17  1  0  0  0  0
 10 16  1  0  0  0  0
 11 16  1  0  0  0  0
 13 15  1  0  0  0  0
 13 17  1  0  0  0  0
 14 16  1  0  0  0  0
  1 18  1  0  0  0  0
  1 19  1  0  0  0  0
  2 20  1  0  0  0  0
  2 21  1  0  0  0  0
  3 22  1  0  0  0  0
  3 23  1  0  0  0  0
  4 24  1  0  0  0  0
  4 25  1  0  0  0  0
  5 26  1  0  0  0  0
  5 27  1  0  0  0  0
  6 28  1  0  0  0  0
  6 29  1  0  0  0  0
  7 30  1  0  0  0  0
  7 31  1  0  0  0  0
  8 32  1  0  0  0  0
  8 33  1  0  0  0  0
  9 34  1  0  0  0  0
  9 35  1  0  0  0  0
 10 36  1  0  0  0  0
 11 37  1  0  0  0  0
 14 38  1  0  0  0  0
 14 39  1  0  0  0  0
 14 40  1  0  0  0  0
 15 41  1  0  0  0  0
M  END
> <id>
EN300-1278880

> <smiles>
CN1C2CCC1CC3(C2)NCC4(CCC4)CO3

> <IUPAC Name>
8-methyldispiro[8-azabicyclo[3.2.1]octane-3,2'-[1,3]oxazinane-5',1''-cyclobutane]

> <CAS>
2172513-24-3

> <URL>
https://www.enaminestore.com/catalog/EN300-1278880

> <ROCS_ShapeQuery>
x1247relevant_x1083L0AP1_x1305L0BP1_

> <ROCS_TanimotoCombo>
0.851 

> <ROCS_ShapeTanimoto>
0.519 

> <ROCS_ColorTanimoto>
0.332 

> <ROCS_RefTversky>
0.444 

> <ROCS_RefColorTversky>
0.393 

> <ROCS_RefTverskyCombo>
0.837 

> <ROCS_FitTversky>
1.480 

> <ROCS_FitColorTversky>
0.682 

> <ROCS_FitTverskyCombo>
2.162 

> <ROCS_ColorScore>
-8.384

> <ROCS_Overlap>
1311.051

> <ROCS_Rank>
71                  

$$$$
untitled-dbase-40027_1
  -OEChem-06162310163D

 33 36  0     1  0  0  0  0  0999 V2000
  -11.3113   16.6677  -35.4672 C   0  0  0  0  0  0  0  0  0  0  0  0
  -10.2832   17.0999  -34.6552 C   0  0  0  0  0  0  0  0  0  0  0  0
  -10.7956   15.5866  -36.2267 C   0  0  0  0  0  0  0  0  0  0  0  0
   -9.4851   15.4645  -35.8173 C   0  0  0  0  0  0  0  0  0  0  0  0
   -8.4968   14.4805  -36.2943 C   0  0  0  0  0  0  0  0  0  0  0  0
  -13.5900   14.8418  -39.7018 C   0  0  0  0  0  0  0  0  0  0  0  0
  -12.0818   14.6615  -39.8061 C   0  0  0  0  0  0  0  0  0  0  0  0
  -13.9488   15.0816  -37.1878 C   0  0  0  0  0  0  0  0  0  0  0  0
  -12.7790   14.1364  -36.8773 C   0  0  0  0  0  0  0  0  0  0  0  0
   -9.0542   13.8358  -37.5770 C   0  0  0  0  0  0  0  0  0  0  0  0
  -13.7704   15.7969  -38.5293 C   0  0  1  0  0  0  0  0  0  0  0  0
  -11.5197   15.4822  -38.6445 C   0  0  2  0  0  0  0  0  0  0  0  0
  -11.3921   14.6988  -37.3028 C   0  0  1  0  0  0  0  0  0  0  0  0
  -10.4903   13.5121  -37.4644 N   0  0  0  0  0  0  0  0  0  0  0  0
   -9.1575   16.3635  -34.8642 O   0  0  0  0  0  0  0  0  0  0  0  0
  -12.5235   16.5053  -38.4736 O   0  0  0  0  0  0  0  0  0  0  0  0
  -12.3066   17.0870  -35.4935 H   0  0  0  0  0  0  0  0  0  0  0  0
  -10.1988   17.8773  -33.9100 H   0  0  0  0  0  0  0  0  0  0  0  0
   -7.5517   14.9916  -36.5118 H   0  0  0  0  0  0  0  0  0  0  0  0
   -8.3038   13.7125  -35.5383 H   0  0  0  0  0  0  0  0  0  0  0  0
  -13.9621   15.3027  -40.6249 H   0  0  0  0  0  0  0  0  0  0  0  0
  -14.1293   13.8979  -39.5722 H   0  0  0  0  0  0  0  0  0  0  0  0
  -11.7780   13.6108  -39.8056 H   0  0  0  0  0  0  0  0  0  0  0  0
  -11.7406   15.0924  -40.7560 H   0  0  0  0  0  0  0  0  0  0  0  0
  -14.8898   14.5195  -37.1748 H   0  0  0  0  0  0  0  0  0  0  0  0
  -14.0090   15.8328  -36.3905 H   0  0  0  0  0  0  0  0  0  0  0  0
  -12.8000   13.8780  -35.8072 H   0  0  0  0  0  0  0  0  0  0  0  0
  -12.9686   13.1900  -37.4095 H   0  0  0  0  0  0  0  0  0  0  0  0
   -8.9111   14.5256  -38.4165 H   0  0  0  0  0  0  0  0  0  0  0  0
   -8.4870   12.9313  -37.8269 H   0  0  0  0  0  0  0  0  0  0  0  0
  -14.5885   16.5049  -38.6962 H   0  0  0  0  0  0  0  0  0  0  0  0
  -10.5712   15.9616  -38.9133 H   0  0  0  0  0  0  0  0  0  0  0  0
  -10.7715   12.9932  -38.2975 H   0  0  0  0  0  0  0  0  0  0  0  0
  1  2  2  0  0  0  0
  1  3  1  0  0  0  0
  2 15  1  0  0  0  0
  3  4  2  0  0  0  0
  3 13  1  0  0  0  0
  4  5  1  0  0  0  0
  4 15  1  0  0  0  0
  5 10  1  0  0  0  0
  6  7  1  0  0  0  0
  6 11  1  0  0  0  0
  7 12  1  0  0  0  0
  8  9  1  0  0  0  0
  8 11  1  0  0  0  0
  9 13  1  0  0  0  0
 10 14  1  0  0  0  0
 11 16  1  0  0  0  0
 12 13  1  0  0  0  0
 12 16  1  0  0  0  0
 13 14  1  0  0  0  0
  1 17  1  0  0  0  0
  2 18  1  0  0  0  0
  5 19  1  0  0  0  0
  5 20  1  0  0  0  0
  6 21  1  0  0  0  0
  6 22  1  0  0  0  0
  7 23  1  0  0  0  0
  7 24  1  0  0  0  0
  8 25  1  0  0  0  0
  8 26  1  0  0  0  0
  9 27  1  0  0  0  0
  9 28  1  0  0  0  0
 10 29  1  0  0  0  0
 10 30  1  0  0  0  0
 11 31  1  0  0  0  0
 12 32  1  0  0  0  0
 14 33  1  0  0  0  0
M  END
> <id>
EN300-1076181

> <smiles>
C1CC2OC1CCC32NCCC=4OC=CC43

> <IUPAC Name>
6',7'-dihydro-5'H-8-oxaspiro[bicyclo[3.2.1]octane-2,4'-furo[3,2-c]pyridine]

> <CAS>
2253638-62-7

> <URL>
https://www.enaminestore.com/catalog/EN300-1076181

> <ROCS_ShapeQuery>
x1247relevant_x1083L0AP1_x1305L0BP1_

> <ROCS_TanimotoCombo>
0.851 

> <ROCS_ShapeTanimoto>
0.469 

> <ROCS_ColorTanimoto>
0.382 

> <ROCS_RefTversky>
0.413 

> <ROCS_RefColorTversky>
0.437 

> <ROCS_RefTverskyCombo>
0.849 

> <ROCS_FitTversky>
1.409 

> <ROCS_FitColorTversky>
0.755 

> <ROCS_FitTverskyCombo>
2.164 

> <ROCS_ColorScore>
-9.319

> <ROCS_Overlap>
1216.622

> <ROCS_Rank>
72                  

$$$$
untitled-dbase-43725_31
  -OEChem-06162310163D

 40 41  0     1  0  0  0  0  0999 V2000
  -10.1544   14.7586  -37.3472 C   0  0  0  0  0  0  0  0  0  0  0  0
  -13.7051   14.1679  -37.6187 C   0  0  0  0  0  0  0  0  0  0  0  0
  -13.6332   15.5814  -37.0064 C   0  0  0  0  0  0  0  0  0  0  0  0
  -12.4050   14.4696  -39.8028 C   0  0  0  0  0  0  0  0  0  0  0  0
  -12.2905   16.8488  -38.7799 C   0  0  0  0  0  0  0  0  0  0  0  0
  -12.3652   13.9809  -38.3391 C   0  0  1  0  0  0  0  0  0  0  0  0
  -12.2597   16.1198  -37.4192 C   0  0  2  0  0  0  0  0  0  0  0  0
  -12.8174   15.9622  -39.9421 C   0  0  0  0  0  0  0  0  0  0  0  0
   -9.8321   13.9467  -34.8773 C   0  0  0  0  0  0  0  0  0  0  0  0
   -9.5887   11.5965  -35.7298 C   0  0  0  0  0  0  0  0  0  0  0  0
   -7.7130   13.2385  -36.0359 C   0  0  0  0  0  0  0  0  0  0  0  0
  -12.3563   16.5246  -41.2899 C   0  0  0  0  0  0  0  0  0  0  0  0
   -9.2291   13.0616  -35.9672 C   0  0  0  0  0  0  0  0  0  0  0  0
  -11.5011   14.9004  -37.6181 N   0  0  0  0  0  0  0  0  0  0  0  0
   -9.3710   15.6980  -37.2289 O   0  0  0  0  0  0  0  0  0  0  0  0
  -14.2485   16.0478  -39.9354 O   0  0  0  0  0  0  0  0  0  0  0  0
   -9.7904   13.4447  -37.2275 O   0  0  0  0  0  0  0  0  0  0  0  0
  -13.1068   15.5920  -42.6106 Cl  0  0  0  0  0  0  0  0  0  0  0  0
  -12.8434   18.2346  -41.4185 Cl  0  0  0  0  0  0  0  0  0  0  0  0
  -10.5821   16.4019  -41.4097 Cl  0  0  0  0  0  0  0  0  0  0  0  0
  -13.8024   13.4340  -36.8095 H   0  0  0  0  0  0  0  0  0  0  0  0
  -14.5697   14.0437  -38.2774 H   0  0  0  0  0  0  0  0  0  0  0  0
  -14.4610   16.2174  -37.3340 H   0  0  0  0  0  0  0  0  0  0  0  0
  -13.6935   15.5009  -35.9143 H   0  0  0  0  0  0  0  0  0  0  0  0
  -11.4049   14.3237  -40.2323 H   0  0  0  0  0  0  0  0  0  0  0  0
  -13.0966   13.8357  -40.3718 H   0  0  0  0  0  0  0  0  0  0  0  0
  -12.9046   17.7529  -38.6851 H   0  0  0  0  0  0  0  0  0  0  0  0
  -11.2675   17.1776  -39.0071 H   0  0  0  0  0  0  0  0  0  0  0  0
  -12.0072   12.9486  -38.2881 H   0  0  0  0  0  0  0  0  0  0  0  0
  -11.8097   16.7579  -36.6523 H   0  0  0  0  0  0  0  0  0  0  0  0
   -9.5763   14.9991  -35.0441 H   0  0  0  0  0  0  0  0  0  0  0  0
  -10.9226   13.8554  -34.8409 H   0  0  0  0  0  0  0  0  0  0  0  0
   -9.4297   13.6831  -33.8925 H   0  0  0  0  0  0  0  0  0  0  0  0
   -9.1581   10.9578  -36.5095 H   0  0  0  0  0  0  0  0  0  0  0  0
  -10.6738   11.4488  -35.7742 H   0  0  0  0  0  0  0  0  0  0  0  0
   -9.2304   11.2451  -34.7568 H   0  0  0  0  0  0  0  0  0  0  0  0
   -7.2802   12.6037  -36.8176 H   0  0  0  0  0  0  0  0  0  0  0  0
   -7.4371   14.2776  -36.2425 H   0  0  0  0  0  0  0  0  0  0  0  0
   -7.2421   12.9338  -35.0943 H   0  0  0  0  0  0  0  0  0  0  0  0
  -14.5516   15.5248  -40.6908 H   0  0  0  0  0  0  0  0  0  0  0  0
  1 14  1  0  0  0  0
  1 15  2  0  0  0  0
  1 17  1  0  0  0  0
  2  3  1  0  0  0  0
  2  6  1  1  0  0  0
  3  7  1  1  0  0  0
  4  6  1  0  0  0  0
  4  8  1  0  0  0  0
  5  7  1  0  0  0  0
  5  8  1  0  0  0  0
  6 14  1  0  0  0  0
  7 14  1  0  0  0  0
  8 12  1  0  0  0  0
  8 16  1  1  0  0  0
  9 13  1  0  0  0  0
 10 13  1  0  0  0  0
 11 13  1  0  0  0  0
 12 18  1  0  0  0  0
 12 19  1  0  0  0  0
 12 20  1  0  0  0  0
 13 17  1  0  0  0  0
  2 21  1  0  0  0  0
  2 22  1  0  0  0  0
  3 23  1  0  0  0  0
  3 24  1  0  0  0  0
  4 25  1  0  0  0  0
  4 26  1  0  0  0  0
  5 27  1  0  0  0  0
  5 28  1  0  0  0  0
  6 29  1  0  0  0  0
  7 30  1  0  0  0  0
  9 31  1  0  0  0  0
  9 32  1  0  0  0  0
  9 33  1  0  0  0  0
 10 34  1  0  0  0  0
 10 35  1  0  0  0  0
 10 36  1  0  0  0  0
 11 37  1  0  0  0  0
 11 38  1  0  0  0  0
 11 39  1  0  0  0  0
 16 40  1  0  0  0  0
M  END
> <id>
EN300-28229065

> <smiles>
CC(C)(C)OC(=O)N1[C@H]2CC[C@@H]1C[C@](O)(C2)C(Cl)(Cl)Cl

> <IUPAC Name>
tert-butyl (1R,3R,5S)-3-hydroxy-3-(trichloromethyl)-8-azabicyclo[3.2.1]octane-8-carboxylate

> <CAS>
2639371-68-7

> <URL>
https://www.enaminestore.com/catalog/EN300-28229065

> <ROCS_ShapeQuery>
x1247relevant_x1083L0AP1_x1305L0BP1_

> <ROCS_TanimotoCombo>
0.850 

> <ROCS_ShapeTanimoto>
0.505 

> <ROCS_ColorTanimoto>
0.344 

> <ROCS_RefTversky>
0.446 

> <ROCS_RefColorTversky>
0.382 

> <ROCS_RefTverskyCombo>
0.827 

> <ROCS_FitTversky>
1.359 

> <ROCS_FitColorTversky>
0.778 

> <ROCS_FitTverskyCombo>
2.137 

> <ROCS_ColorScore>
-8.109

> <ROCS_Overlap>
1316.869

> <ROCS_Rank>
73                  

$$$$
untitled-dbase-29531_47
  -OEChem-06162310163D

 40 41  0     1  0  0  0  0  0999 V2000
  -10.1699   14.7694  -37.3056 C   0  0  0  0  0  0  0  0  0  0  0  0
  -13.7153   15.3893  -37.0294 C   0  0  0  0  0  0  0  0  0  0  0  0
  -13.6550   14.0318  -37.7584 C   0  0  0  0  0  0  0  0  0  0  0  0
  -12.3893   16.9007  -38.6136 C   0  0  0  0  0  0  0  0  0  0  0  0
  -12.2944   14.6216  -39.8454 C   0  0  0  0  0  0  0  0  0  0  0  0
  -12.3660   16.0550  -37.3224 C   0  0  2  0  0  0  0  0  0  0  0  0
  -12.2781   14.0059  -38.4295 C   0  0  1  0  0  0  0  0  0  0  0  0
  -12.8041   16.0891  -39.8733 C   0  0  0  0  0  0  0  0  0  0  0  0
   -9.8732   14.1824  -34.7696 C   0  0  0  0  0  0  0  0  0  0  0  0
   -9.6673   11.7600  -35.4012 C   0  0  0  0  0  0  0  0  0  0  0  0
   -7.7616   13.3346  -35.8451 C   0  0  0  0  0  0  0  0  0  0  0  0
  -12.3275   16.7923  -41.1476 C   0  0  0  0  0  0  0  0  0  0  0  0
   -9.2809   13.1908  -35.7699 C   0  0  0  0  0  0  0  0  0  0  0  0
  -11.5136   14.9094  -37.5921 N   0  0  0  0  0  0  0  0  0  0  0  0
   -9.3707   15.7022  -37.2692 O   0  0  0  0  0  0  0  0  0  0  0  0
  -14.2354   16.0475  -39.9444 O   0  0  0  0  0  0  0  0  0  0  0  0
   -9.8295   13.4660  -37.0635 O   0  0  0  0  0  0  0  0  0  0  0  0
  -12.8180   15.8382  -42.5712 Cl  0  0  0  0  0  0  0  0  0  0  0  0
  -13.0582   18.4157  -41.2397 Cl  0  0  0  0  0  0  0  0  0  0  0  0
  -10.5516   16.9414  -41.1157 Cl  0  0  0  0  0  0  0  0  0  0  0  0
  -14.5714   15.9929  -37.3450 H   0  0  0  0  0  0  0  0  0  0  0  0
  -13.8202   15.2107  -35.9524 H   0  0  0  0  0  0  0  0  0  0  0  0
  -13.7286   13.2256  -37.0186 H   0  0  0  0  0  0  0  0  0  0  0  0
  -14.4804   13.9038  -38.4651 H   0  0  0  0  0  0  0  0  0  0  0  0
  -13.0721   17.7479  -38.4725 H   0  0  0  0  0  0  0  0  0  0  0  0
  -11.3837   17.3168  -38.7601 H   0  0  0  0  0  0  0  0  0  0  0  0
  -11.2697   14.5837  -40.2386 H   0  0  0  0  0  0  0  0  0  0  0  0
  -12.9125   13.9935  -40.4989 H   0  0  0  0  0  0  0  0  0  0  0  0
  -12.0056   16.6512  -36.4789 H   0  0  0  0  0  0  0  0  0  0  0  0
  -11.8397   13.0034  -38.4520 H   0  0  0  0  0  0  0  0  0  0  0  0
   -9.5982   15.2106  -35.0307 H   0  0  0  0  0  0  0  0  0  0  0  0
  -10.9653   14.1135  -34.7317 H   0  0  0  0  0  0  0  0  0  0  0  0
   -9.4801   14.0036  -33.7622 H   0  0  0  0  0  0  0  0  0  0  0  0
   -9.2445   11.0451  -36.1163 H   0  0  0  0  0  0  0  0  0  0  0  0
  -10.7546   11.6274  -35.4385 H   0  0  0  0  0  0  0  0  0  0  0  0
   -9.3198   11.4935  -34.3979 H   0  0  0  0  0  0  0  0  0  0  0  0
   -7.3365   12.6234  -36.5626 H   0  0  0  0  0  0  0  0  0  0  0  0
   -7.4665   14.3455  -36.1445 H   0  0  0  0  0  0  0  0  0  0  0  0
   -7.3005   13.1097  -34.8766 H   0  0  0  0  0  0  0  0  0  0  0  0
  -14.5274   16.9678  -40.0043 H   0  0  0  0  0  0  0  0  0  0  0  0
  1 14  1  0  0  0  0
  1 15  2  0  0  0  0
  1 17  1  0  0  0  0
  2  3  1  0  0  0  0
  2  6  1  0  0  0  0
  3  7  1  0  0  0  0
  4  6  1  0  0  0  0
  4  8  1  0  0  0  0
  5  7  1  0  0  0  0
  5  8  1  0  0  0  0
  6 14  1  0  0  0  0
  7 14  1  0  0  0  0
  8 12  1  0  0  0  0
  8 16  1  0  0  0  0
  9 13  1  0  0  0  0
 10 13  1  0  0  0  0
 11 13  1  0  0  0  0
 12 18  1  0  0  0  0
 12 19  1  0  0  0  0
 12 20  1  0  0  0  0
 13 17  1  0  0  0  0
  2 21  1  0  0  0  0
  2 22  1  0  0  0  0
  3 23  1  0  0  0  0
  3 24  1  0  0  0  0
  4 25  1  0  0  0  0
  4 26  1  0  0  0  0
  5 27  1  0  0  0  0
  5 28  1  0  0  0  0
  6 29  1  0  0  0  0
  7 30  1  0  0  0  0
  9 31  1  0  0  0  0
  9 32  1  0  0  0  0
  9 33  1  0  0  0  0
 10 34  1  0  0  0  0
 10 35  1  0  0  0  0
 10 36  1  0  0  0  0
 11 37  1  0  0  0  0
 11 38  1  0  0  0  0
 11 39  1  0  0  0  0
 16 40  1  0  0  0  0
M  END
> <id>
EN300-7472961

> <smiles>
CC(C)(C)OC(=O)N1C2CCC1CC(O)(C2)C(Cl)(Cl)Cl

> <IUPAC Name>
tert-butyl 3-hydroxy-3-(trichloromethyl)-8-azabicyclo[3.2.1]octane-8-carboxylate

> <URL>
https://www.enaminestore.com/catalog/EN300-7472961

> <ROCS_ShapeQuery>
x1247relevant_x1083L0AP1_x1305L0BP1_

> <ROCS_TanimotoCombo>
0.849 

> <ROCS_ShapeTanimoto>
0.507 

> <ROCS_ColorTanimoto>
0.342 

> <ROCS_RefTversky>
0.447 

> <ROCS_RefColorTversky>
0.380 

> <ROCS_RefTverskyCombo>
0.827 

> <ROCS_FitTversky>
1.362 

> <ROCS_FitColorTversky>
0.775 

> <ROCS_FitTverskyCombo>
2.137 

> <ROCS_ColorScore>
-8.075

> <ROCS_Overlap>
1319.684

> <ROCS_Rank>
74                  

$$$$
untitled-dbase-20309_0
  -OEChem-06162310163D

 33 36  0     1  0  0  0  0  0999 V2000
   -9.4257   16.6197  -34.8374 C   0  0  0  0  0  0  0  0  0  0  0  0
  -10.6590   17.2369  -34.8530 C   0  0  0  0  0  0  0  0  0  0  0  0
   -9.5146   15.5587  -35.7633 C   0  0  0  0  0  0  0  0  0  0  0  0
  -10.7938   15.6005  -36.2711 C   0  0  0  0  0  0  0  0  0  0  0  0
   -8.5486   14.5235  -36.2021 C   0  0  0  0  0  0  0  0  0  0  0  0
  -13.6254   14.8292  -39.6670 C   0  0  0  0  0  0  0  0  0  0  0  0
  -12.1218   14.6266  -39.8009 C   0  0  0  0  0  0  0  0  0  0  0  0
  -13.9243   15.1245  -37.1485 C   0  0  0  0  0  0  0  0  0  0  0  0
  -12.7689   14.1552  -36.8564 C   0  0  0  0  0  0  0  0  0  0  0  0
   -9.0431   13.8611  -37.5072 C   0  0  0  0  0  0  0  0  0  0  0  0
  -13.7675   15.8092  -38.5095 C   0  0  1  0  0  0  0  0  0  0  0  0
  -11.5245   15.4588  -38.6652 C   0  0  2  0  0  0  0  0  0  0  0  0
  -11.3866   14.6948  -37.3151 C   0  0  1  0  0  0  0  0  0  0  0  0
  -10.4797   13.5135  -37.4659 N   0  0  0  0  0  0  0  0  0  0  0  0
  -11.5014   16.6220  -35.7296 O   0  0  0  0  0  0  0  0  0  0  0  0
  -12.5096   16.5007  -38.4966 O   0  0  0  0  0  0  0  0  0  0  0  0
   -8.5771   16.9050  -34.2324 H   0  0  0  0  0  0  0  0  0  0  0  0
  -11.0749   18.0831  -34.3260 H   0  0  0  0  0  0  0  0  0  0  0  0
   -7.5563   14.9595  -36.3600 H   0  0  0  0  0  0  0  0  0  0  0  0
   -8.4588   13.7640  -35.4160 H   0  0  0  0  0  0  0  0  0  0  0  0
  -14.0124   15.2767  -40.5901 H   0  0  0  0  0  0  0  0  0  0  0  0
  -14.1728   13.8953  -39.5061 H   0  0  0  0  0  0  0  0  0  0  0  0
  -11.8394   13.5728  -39.8170 H   0  0  0  0  0  0  0  0  0  0  0  0
  -11.8002   15.0494  -40.7613 H   0  0  0  0  0  0  0  0  0  0  0  0
  -14.8783   14.5879  -37.0965 H   0  0  0  0  0  0  0  0  0  0  0  0
  -13.9441   15.8922  -36.3661 H   0  0  0  0  0  0  0  0  0  0  0  0
  -12.7642   13.8972  -35.7893 H   0  0  0  0  0  0  0  0  0  0  0  0
  -12.9912   13.2178  -37.3859 H   0  0  0  0  0  0  0  0  0  0  0  0
   -8.8407   14.5139  -38.3647 H   0  0  0  0  0  0  0  0  0  0  0  0
   -8.4658   12.9443  -37.6720 H   0  0  0  0  0  0  0  0  0  0  0  0
  -14.5786   16.5253  -38.6729 H   0  0  0  0  0  0  0  0  0  0  0  0
  -10.5801   15.9243  -38.9672 H   0  0  0  0  0  0  0  0  0  0  0  0
  -10.7253   12.9662  -38.2866 H   0  0  0  0  0  0  0  0  0  0  0  0
  1  2  2  0  0  0  0
  1  3  1  0  0  0  0
  2 15  1  0  0  0  0
  3  4  2  0  0  0  0
  3  5  1  0  0  0  0
  4 13  1  0  0  0  0
  4 15  1  0  0  0  0
  5 10  1  0  0  0  0
  6  7  1  0  0  0  0
  6 11  1  0  0  0  0
  7 12  1  0  0  0  0
  8  9  1  0  0  0  0
  8 11  1  0  0  0  0
  9 13  1  0  0  0  0
 10 14  1  0  0  0  0
 11 16  1  0  0  0  0
 12 13  1  0  0  0  0
 12 16  1  0  0  0  0
 13 14  1  0  0  0  0
  1 17  1  0  0  0  0
  2 18  1  0  0  0  0
  5 19  1  0  0  0  0
  5 20  1  0  0  0  0
  6 21  1  0  0  0  0
  6 22  1  0  0  0  0
  7 23  1  0  0  0  0
  7 24  1  0  0  0  0
  8 25  1  0  0  0  0
  8 26  1  0  0  0  0
  9 27  1  0  0  0  0
  9 28  1  0  0  0  0
 10 29  1  0  0  0  0
 10 30  1  0  0  0  0
 11 31  1  0  0  0  0
 12 32  1  0  0  0  0
 14 33  1  0  0  0  0
M  END
> <id>
EN300-1076529

> <smiles>
C1CC2OC1CCC32NCCC=4C=COC43

> <IUPAC Name>
5',6'-dihydro-4'H-8-oxaspiro[bicyclo[3.2.1]octane-2,7'-furo[2,3-c]pyridine]

> <CAS>
2253632-73-2

> <URL>
https://www.enaminestore.com/catalog/EN300-1076529

> <ROCS_ShapeQuery>
x1247relevant_x1083L0AP1_x1305L0BP1_

> <ROCS_TanimotoCombo>
0.849 

> <ROCS_ShapeTanimoto>
0.468 

> <ROCS_ColorTanimoto>
0.381 

> <ROCS_RefTversky>
0.412 

> <ROCS_RefColorTversky>
0.436 

> <ROCS_RefTverskyCombo>
0.848 

> <ROCS_FitTversky>
1.405 

> <ROCS_FitColorTversky>
0.754 

> <ROCS_FitTverskyCombo>
2.159 

> <ROCS_ColorScore>
-9.299

> <ROCS_Overlap>
1215.704

> <ROCS_Rank>
75                  

$$$$
untitled-dbase-34689_0
  -OEChem-06162310163D

 19 21  0     1  0  0  0  0  0999 V2000
   -9.7335   14.9946  -35.9436 C   0  0  0  0  0  0  0  0  0  0  0  0
  -11.1082   15.2244  -35.8927 C   0  0  0  0  0  0  0  0  0  0  0  0
   -9.1482   14.6347  -37.1645 C   0  0  0  0  0  0  0  0  0  0  0  0
  -11.8102   15.0710  -37.0626 C   0  0  0  0  0  0  0  0  0  0  0  0
  -11.1343   14.7080  -38.2275 C   0  0  0  0  0  0  0  0  0  0  0  0
  -12.7208   16.0756  -39.5075 C   0  0  0  0  0  0  0  0  0  0  0  0
  -13.4813   16.5080  -38.2626 C   0  0  0  0  0  0  0  0  0  0  0  0
  -13.2486   15.2460  -37.4295 C   0  0  1  0  0  0  0  0  0  0  0  0
  -12.1634   14.6831  -39.3125 C   0  0  2  0  0  0  0  0  0  0  0  0
   -9.8201   14.4870  -38.3334 N   0  0  0  0  0  0  0  0  0  0  0  0
  -12.5545   16.7660  -40.5013 O   0  0  0  0  0  0  0  0  0  0  0  0
  -13.3211   14.2539  -38.5025 O   0  0  0  0  0  0  0  0  0  0  0  0
   -9.1239   15.0966  -35.0518 H   0  0  0  0  0  0  0  0  0  0  0  0
  -11.5943   15.5130  -34.9686 H   0  0  0  0  0  0  0  0  0  0  0  0
   -8.0792   14.4541  -37.2257 H   0  0  0  0  0  0  0  0  0  0  0  0
  -13.0577   17.4092  -37.8155 H   0  0  0  0  0  0  0  0  0  0  0  0
  -14.5353   16.6322  -38.5244 H   0  0  0  0  0  0  0  0  0  0  0  0
  -13.9732   15.0345  -36.6415 H   0  0  0  0  0  0  0  0  0  0  0  0
  -12.0350   14.0510  -40.1877 H   0  0  0  0  0  0  0  0  0  0  0  0
  1  2  1  0  0  0  0
  1  3  2  0  0  0  0
  2  4  2  0  0  0  0
  3 10  1  0  0  0  0
  4  5  1  0  0  0  0
  4  8  1  0  0  0  0
  5  9  1  0  0  0  0
  5 10  2  0  0  0  0
  6  7  1  0  0  0  0
  6  9  1  0  0  0  0
  6 11  2  0  0  0  0
  7  8  1  0  0  0  0
  8 12  1  0  0  0  0
  9 12  1  0  0  0  0
  1 13  1  0  0  0  0
  2 14  1  0  0  0  0
  3 15  1  0  0  0  0
  7 16  1  0  0  0  0
  7 17  1  0  0  0  0
  8 18  1  0  0  0  0
  9 19  1  0  0  0  0
M  END
> <id>
EN300-37468732

> <smiles>
O=C1CC2OC1C=3N=CC=CC23

> <IUPAC Name>
11-oxa-3-azatricyclo[6.2.1.0,2,7]undeca-2,4,6-trien-10-one

> <URL>
https://www.enaminestore.com/catalog/EN300-37468732

> <ROCS_ShapeQuery>
x1247relevant_x1083L0AP1_x1305L0BP1_

> <ROCS_TanimotoCombo>
0.849 

> <ROCS_ShapeTanimoto>
0.479 

> <ROCS_ColorTanimoto>
0.370 

> <ROCS_RefTversky>
0.401 

> <ROCS_RefColorTversky>
0.410 

> <ROCS_RefTverskyCombo>
0.811 

> <ROCS_FitTversky>
1.687 

> <ROCS_FitColorTversky>
0.792 

> <ROCS_FitTverskyCombo>
2.479 

> <ROCS_ColorScore>
-8.729

> <ROCS_Overlap>
1178.053

> <ROCS_Rank>
76                  

$$$$
untitled-dbase-27337_2
  -OEChem-06162310163D

 40 42  0     1  0  0  0  0  0999 V2000
  -13.5867   15.8489  -37.1889 C   0  0  0  0  0  0  0  0  0  0  0  0
  -13.3456   13.7728  -38.4915 C   0  0  0  0  0  0  0  0  0  0  0  0
  -13.3442   16.6466  -38.4774 C   0  0  0  0  0  0  0  0  0  0  0  0
  -13.0797   14.6143  -39.7474 C   0  0  0  0  0  0  0  0  0  0  0  0
   -9.1238   13.6920  -37.2934 C   0  0  0  0  0  0  0  0  0  0  0  0
  -11.1548   15.6780  -38.7612 C   0  0  0  0  0  0  0  0  0  0  0  0
  -12.7989   14.5224  -37.2619 C   0  0  0  0  0  0  0  0  0  0  0  0
   -9.5425   15.7608  -35.9364 C   0  0  1  0  0  0  0  0  0  0  0  0
   -8.8364   14.3823  -35.9484 C   0  0  0  0  0  0  0  0  0  0  0  0
  -11.2774   14.8499  -37.4453 C   0  0  1  0  0  0  0  0  0  0  0  0
   -8.8598   16.8580  -36.7533 C   0  0  0  0  0  0  0  0  0  0  0  0
   -9.3872   13.5206  -34.7860 C   0  0  0  0  0  0  0  0  0  0  0  0
   -7.3148   14.5075  -35.7546 C   0  0  0  0  0  0  0  0  0  0  0  0
  -10.5564   13.5695  -37.5249 N   0  0  0  0  0  0  0  0  0  0  0  0
  -12.4661   15.9168  -39.4146 N   0  0  0  0  0  0  0  0  0  0  0  0
  -10.9272   15.6416  -36.2900 O   0  0  0  0  0  0  0  0  0  0  0  0
  -13.2867   16.4393  -36.3159 H   0  0  0  0  0  0  0  0  0  0  0  0
  -14.6575   15.6386  -37.0744 H   0  0  0  0  0  0  0  0  0  0  0  0
  -14.4221   13.5996  -38.3805 H   0  0  0  0  0  0  0  0  0  0  0  0
  -12.8693   12.7910  -38.5838 H   0  0  0  0  0  0  0  0  0  0  0  0
  -14.3026   16.8685  -38.9632 H   0  0  0  0  0  0  0  0  0  0  0  0
  -12.9018   17.6226  -38.2402 H   0  0  0  0  0  0  0  0  0  0  0  0
  -12.4303   14.0609  -40.4376 H   0  0  0  0  0  0  0  0  0  0  0  0
  -14.0165   14.7772  -40.2960 H   0  0  0  0  0  0  0  0  0  0  0  0
   -8.6846   14.2624  -38.1202 H   0  0  0  0  0  0  0  0  0  0  0  0
   -8.6572   12.7010  -37.3328 H   0  0  0  0  0  0  0  0  0  0  0  0
  -10.6720   16.6477  -38.5679 H   0  0  0  0  0  0  0  0  0  0  0  0
  -10.5060   15.1818  -39.4994 H   0  0  0  0  0  0  0  0  0  0  0  0
  -12.9933   13.9417  -36.3494 H   0  0  0  0  0  0  0  0  0  0  0  0
   -9.5139   16.1354  -34.8605 H   0  0  0  0  0  0  0  0  0  0  0  0
   -8.8432   16.5790  -37.8057 H   0  0  0  0  0  0  0  0  0  0  0  0
   -7.8373   16.9958  -36.4051 H   0  0  0  0  0  0  0  0  0  0  0  0
   -9.4038   17.7946  -36.6414 H   0  0  0  0  0  0  0  0  0  0  0  0
   -9.1787   14.0171  -33.8446 H   0  0  0  0  0  0  0  0  0  0  0  0
   -8.9049   12.5494  -34.8029 H   0  0  0  0  0  0  0  0  0  0  0  0
  -10.4581   13.4005  -34.9079 H   0  0  0  0  0  0  0  0  0  0  0  0
   -7.1195   14.9938  -34.8067 H   0  0  0  0  0  0  0  0  0  0  0  0
   -6.9041   15.0976  -36.5646 H   0  0  0  0  0  0  0  0  0  0  0  0
   -6.8766   13.5169  -35.7593 H   0  0  0  0  0  0  0  0  0  0  0  0
  -10.7086   13.1578  -38.4509 H   0  0  0  0  0  0  0  0  0  0  0  0
  1  3  1  0  0  0  0
  1  7  1  0  0  0  0
  2  4  1  0  0  0  0
  2  7  1  0  0  0  0
  3 15  1  0  0  0  0
  4 15  1  0  0  0  0
  5  9  1  0  0  0  0
  5 14  1  0  0  0  0
  6 10  1  0  0  0  0
  6 15  1  0  0  0  0
  7 10  1  0  0  0  0
  8  9  1  0  0  0  0
  8 11  1  0  0  0  0
  8 16  1  0  0  0  0
  9 12  1  0  0  0  0
  9 13  1  0  0  0  0
 10 14  1  0  0  0  0
 10 16  1  0  0  0  0
  1 17  1  0  0  0  0
  1 18  1  0  0  0  0
  2 19  1  0  0  0  0
  2 20  1  0  0  0  0
  3 21  1  0  0  0  0
  3 22  1  0  0  0  0
  4 23  1  0  0  0  0
  4 24  1  0  0  0  0
  5 25  1  0  0  0  0
  5 26  1  0  0  0  0
  6 27  1  0  0  0  0
  6 28  1  0  0  0  0
  7 29  1  0  0  0  0
  8 30  1  0  0  0  0
 11 31  1  0  0  0  0
 11 32  1  0  0  0  0
 11 33  1  0  0  0  0
 12 34  1  0  0  0  0
 12 35  1  0  0  0  0
 12 36  1  0  0  0  0
 13 37  1  0  0  0  0
 13 38  1  0  0  0  0
 13 39  1  0  0  0  0
 14 40  1  0  0  0  0
M  END
> <id>
EN300-1280098

> <smiles>
CC1OC2(CN3CCC2CC3)NCC1(C)C

> <IUPAC Name>
5',5',6'-trimethyl-4-azaspiro[bicyclo[2.2.2]octane-2,2'-[1,3]oxazinane]

> <CAS>
2169372-92-1

> <URL>
https://www.enaminestore.com/catalog/EN300-1280098

> <ROCS_ShapeQuery>
x1247relevant_x1083L0AP1_x1305L0BP1_

> <ROCS_TanimotoCombo>
0.849 

> <ROCS_ShapeTanimoto>
0.500 

> <ROCS_ColorTanimoto>
0.348 

> <ROCS_RefTversky>
0.428 

> <ROCS_RefColorTversky>
0.410 

> <ROCS_RefTverskyCombo>
0.838 

> <ROCS_FitTversky>
1.517 

> <ROCS_FitColorTversky>
0.698 

> <ROCS_FitTverskyCombo>
2.215 

> <ROCS_ColorScore>
-8.763

> <ROCS_Overlap>
1259.870

> <ROCS_Rank>
77                  

$$$$
untitled-dbase-43890_117
  -OEChem-06162310163D

 38 39  0     1  0  0  0  0  0999 V2000
   -9.9098   15.3706  -36.7562 C   0  0  0  0  0  0  0  0  0  0  0  0
  -13.5872   14.4542  -36.9125 C   0  0  0  0  0  0  0  0  0  0  0  0
  -12.3992   14.0942  -39.0588 C   0  0  0  0  0  0  0  0  0  0  0  0
  -12.3887   15.2189  -36.3405 C   0  0  0  0  0  0  0  0  0  0  0  0
  -13.7117   14.5728  -38.4398 C   0  0  2  0  0  0  0  0  0  0  0  0
  -11.4759   15.2507  -38.6849 C   0  0  1  0  0  0  0  0  0  0  0  0
  -13.7822   16.0433  -38.8989 C   0  0  1  0  0  0  0  0  0  0  0  0
  -12.3118   16.4863  -39.0684 C   0  0  2  0  0  0  0  0  0  0  0  0
   -7.4233   14.3523  -35.7718 C   0  0  0  0  0  0  0  0  0  0  0  0
   -8.7694   13.4272  -33.8635 C   0  0  0  0  0  0  0  0  0  0  0  0
   -9.2181   12.6423  -36.2067 C   0  0  0  0  0  0  0  0  0  0  0  0
   -8.7900   13.8242  -35.3380 C   0  0  0  0  0  0  0  0  0  0  0  0
  -11.2182   15.2231  -37.2322 N   0  0  0  0  0  0  0  0  0  0  0  0
   -8.9947   15.8913  -37.3912 O   0  0  0  0  0  0  0  0  0  0  0  0
  -14.4818   16.1315  -40.1341 O   0  0  0  0  0  0  0  0  0  0  0  0
  -12.0141   16.8442  -40.4127 O   0  0  0  0  0  0  0  0  0  0  0  0
   -9.7530   14.8736  -35.4889 O   0  0  0  0  0  0  0  0  0  0  0  0
  -13.4856   13.3933  -36.6505 H   0  0  0  0  0  0  0  0  0  0  0  0
  -14.5068   14.8092  -36.4330 H   0  0  0  0  0  0  0  0  0  0  0  0
  -12.0575   13.1316  -38.6635 H   0  0  0  0  0  0  0  0  0  0  0  0
  -12.4888   14.0008  -40.1477 H   0  0  0  0  0  0  0  0  0  0  0  0
  -12.6590   16.2694  -36.1789 H   0  0  0  0  0  0  0  0  0  0  0  0
  -12.1243   14.8091  -35.3603 H   0  0  0  0  0  0  0  0  0  0  0  0
  -14.5592   13.9803  -38.8005 H   0  0  0  0  0  0  0  0  0  0  0  0
  -10.5368   15.1969  -39.2447 H   0  0  0  0  0  0  0  0  0  0  0  0
  -14.3074   16.6666  -38.1663 H   0  0  0  0  0  0  0  0  0  0  0  0
  -12.0671   17.3460  -38.4347 H   0  0  0  0  0  0  0  0  0  0  0  0
   -7.4340   14.6384  -36.8296 H   0  0  0  0  0  0  0  0  0  0  0  0
   -7.1204   15.2219  -35.1795 H   0  0  0  0  0  0  0  0  0  0  0  0
   -6.6543   13.5783  -35.6686 H   0  0  0  0  0  0  0  0  0  0  0  0
   -9.7480   13.0477  -33.5480 H   0  0  0  0  0  0  0  0  0  0  0  0
   -8.5554   14.2947  -33.2287 H   0  0  0  0  0  0  0  0  0  0  0  0
   -8.0177   12.6570  -33.6629 H   0  0  0  0  0  0  0  0  0  0  0  0
  -10.1984   12.2633  -35.8958 H   0  0  0  0  0  0  0  0  0  0  0  0
   -9.2742   12.9188  -37.2646 H   0  0  0  0  0  0  0  0  0  0  0  0
   -8.5162   11.8071  -36.1018 H   0  0  0  0  0  0  0  0  0  0  0  0
  -13.9861   15.5967  -40.7748 H   0  0  0  0  0  0  0  0  0  0  0  0
  -12.5554   17.6225  -40.6207 H   0  0  0  0  0  0  0  0  0  0  0  0
  1 13  1  0  0  0  0
  1 14  2  0  0  0  0
  1 17  1  0  0  0  0
  2  4  1  0  0  0  0
  2  5  1  6  0  0  0
  3  5  1  0  0  0  0
  3  6  1  0  0  0  0
  4 13  1  0  0  0  0
  5  7  1  0  0  0  0
  6  8  1  0  0  0  0
  6 13  1  6  0  0  0
  7  8  1  0  0  0  0
  7 15  1  1  0  0  0
  8 16  1  1  0  0  0
  9 12  1  0  0  0  0
 10 12  1  0  0  0  0
 11 12  1  0  0  0  0
 12 17  1  0  0  0  0
  2 18  1  0  0  0  0
  2 19  1  0  0  0  0
  3 20  1  0  0  0  0
  3 21  1  0  0  0  0
  4 22  1  0  0  0  0
  4 23  1  0  0  0  0
  5 24  1  0  0  0  0
  6 25  1  0  0  0  0
  7 26  1  0  0  0  0
  8 27  1  0  0  0  0
  9 28  1  0  0  0  0
  9 29  1  0  0  0  0
  9 30  1  0  0  0  0
 10 31  1  0  0  0  0
 10 32  1  0  0  0  0
 10 33  1  0  0  0  0
 11 34  1  0  0  0  0
 11 35  1  0  0  0  0
 11 36  1  0  0  0  0
 15 37  1  0  0  0  0
 16 38  1  0  0  0  0
M  END
> <id>
EN300-28228728

> <smiles>
CC(C)(C)OC(=O)N1CC[C@@H]2C[C@H]1[C@@H](O)[C@H]2O |&1:10,12,13,15,r|

> <IUPAC Name>
rac-tert-butyl (1R,5S,6R,7S)-6,7-dihydroxy-2-azabicyclo[3.2.1]octane-2-carboxylate

> <CAS>
2639392-68-8

> <URL>
https://www.enaminestore.com/catalog/EN300-28228728

> <ROCS_ShapeQuery>
x1247relevant_x1083L0AP1_x1305L0BP1_

> <ROCS_TanimotoCombo>
0.848 

> <ROCS_ShapeTanimoto>
0.501 

> <ROCS_ColorTanimoto>
0.348 

> <ROCS_RefTversky>
0.432 

> <ROCS_RefColorTversky>
0.407 

> <ROCS_RefTverskyCombo>
0.839 

> <ROCS_FitTversky>
1.468 

> <ROCS_FitColorTversky>
0.705 

> <ROCS_FitTverskyCombo>
2.173 

> <ROCS_ColorScore>
-8.686

> <ROCS_Overlap>
1273.646

> <ROCS_Rank>
78                  

$$$$
untitled-dbase-18435_0
  -OEChem-06162310163D

 28 30  0     1  0  0  0  0  0999 V2000
  -13.4372   13.8407  -38.2161 C   0  0  0  0  0  0  0  0  0  0  0  0
  -13.3714   16.0884  -37.1918 C   0  0  0  0  0  0  0  0  0  0  0  0
  -13.3352   14.5500  -39.5775 C   0  0  0  0  0  0  0  0  0  0  0  0
  -13.1146   16.7244  -38.5664 C   0  0  0  0  0  0  0  0  0  0  0  0
   -9.1805   13.9745  -36.9568 C   0  0  0  0  0  0  0  0  0  0  0  0
  -11.1536   15.3832  -38.9955 C   0  0  0  0  0  0  0  0  0  0  0  0
   -9.5345   15.0994  -36.0167 C   0  0  0  0  0  0  0  0  0  0  0  0
  -12.7202   14.6911  -37.1531 C   0  0  0  0  0  0  0  0  0  0  0  0
  -11.2264   14.8353  -37.5445 C   0  0  1  0  0  0  0  0  0  0  0  0
  -10.4922   13.5586  -37.4492 N   0  0  0  0  0  0  0  0  0  0  0  0
  -12.4937   15.7664  -39.5054 N   0  0  0  0  0  0  0  0  0  0  0  0
  -10.6027   15.7935  -36.6654 O   0  0  0  0  0  0  0  0  0  0  0  0
  -14.4919   13.7105  -37.9452 H   0  0  0  0  0  0  0  0  0  0  0  0
  -12.9971   12.8389  -38.2760 H   0  0  0  0  0  0  0  0  0  0  0  0
  -12.9697   16.7294  -36.3990 H   0  0  0  0  0  0  0  0  0  0  0  0
  -14.4505   16.0013  -37.0147 H   0  0  0  0  0  0  0  0  0  0  0  0
  -12.9268   13.8604  -40.3267 H   0  0  0  0  0  0  0  0  0  0  0  0
  -14.3367   14.8154  -39.9390 H   0  0  0  0  0  0  0  0  0  0  0  0
  -14.0576   17.0965  -38.9855 H   0  0  0  0  0  0  0  0  0  0  0  0
  -12.4716   17.6071  -38.4595 H   0  0  0  0  0  0  0  0  0  0  0  0
   -8.5712   14.3436  -37.7897 H   0  0  0  0  0  0  0  0  0  0  0  0
   -8.6441   13.1623  -36.4597 H   0  0  0  0  0  0  0  0  0  0  0  0
  -10.4873   16.2544  -39.0477 H   0  0  0  0  0  0  0  0  0  0  0  0
  -10.7272   14.6532  -39.6962 H   0  0  0  0  0  0  0  0  0  0  0  0
   -9.9000   14.7289  -35.0524 H   0  0  0  0  0  0  0  0  0  0  0  0
   -8.7012   15.7858  -35.8444 H   0  0  0  0  0  0  0  0  0  0  0  0
  -12.8327   14.2589  -36.1523 H   0  0  0  0  0  0  0  0  0  0  0  0
  -10.4119   13.0867  -38.3471 H   0  0  0  0  0  0  0  0  0  0  0  0
  1  3  1  0  0  0  0
  1  8  1  0  0  0  0
  2  4  1  0  0  0  0
  2  8  1  0  0  0  0
  3 11  1  0  0  0  0
  4 11  1  0  0  0  0
  5  7  1  0  0  0  0
  5 10  1  0  0  0  0
  6  9  1  0  0  0  0
  6 11  1  0  0  0  0
  7 12  1  0  0  0  0
  8  9  1  0  0  0  0
  9 10  1  0  0  0  0
  9 12  1  0  0  0  0
  1 13  1  0  0  0  0
  1 14  1  0  0  0  0
  2 15  1  0  0  0  0
  2 16  1  0  0  0  0
  3 17  1  0  0  0  0
  3 18  1  0  0  0  0
  4 19  1  0  0  0  0
  4 20  1  0  0  0  0
  5 21  1  0  0  0  0
  5 22  1  0  0  0  0
  6 23  1  0  0  0  0
  6 24  1  0  0  0  0
  7 25  1  0  0  0  0
  7 26  1  0  0  0  0
  8 27  1  0  0  0  0
 10 28  1  0  0  0  0
M  END
> <id>
EN300-1645487

> <smiles>
C1COC2(CN3CCC2CC3)N1

> <IUPAC Name>
4-azaspiro[bicyclo[2.2.2]octane-2,2'-[1,3]oxazolidine]

> <CAS>
52965-64-7

> <URL>
https://www.enaminestore.com/catalog/EN300-1645487

> <ROCS_ShapeQuery>
x1247relevant_x1083L0AP1_x1305L0BP1_

> <ROCS_TanimotoCombo>
0.848 

> <ROCS_ShapeTanimoto>
0.481 

> <ROCS_ColorTanimoto>
0.367 

> <ROCS_RefTversky>
0.399 

> <ROCS_RefColorTversky>
0.415 

> <ROCS_RefTverskyCombo>
0.814 

> <ROCS_FitTversky>
1.744 

> <ROCS_FitColorTversky>
0.761 

> <ROCS_FitTverskyCombo>
2.505 

> <ROCS_ColorScore>
-8.841

> <ROCS_Overlap>
1173.536

> <ROCS_Rank>
79                  

$$$$
untitled-dbase-25064_1
  -OEChem-06162310163D

 30 32  0     1  0  0  0  0  0999 V2000
   -9.2635   15.3584  -36.4351 C   0  0  0  0  0  0  0  0  0  0  0  0
  -10.7598   15.5051  -36.2076 C   0  0  0  0  0  0  0  0  0  0  0  0
  -12.3249   16.8073  -38.5229 C   0  0  0  0  0  0  0  0  0  0  0  0
  -12.1268   14.7242  -39.8056 C   0  0  0  0  0  0  0  0  0  0  0  0
   -9.1256   14.0826  -37.2512 C   0  0  0  0  0  0  0  0  0  0  0  0
  -13.6824   16.3639  -37.9580 C   0  0  0  0  0  0  0  0  0  0  0  0
  -13.5628   14.4054  -39.3568 C   0  0  0  0  0  0  0  0  0  0  0  0
  -12.8398   14.2855  -37.0675 C   0  0  0  0  0  0  0  0  0  0  0  0
  -11.4300   15.5663  -38.7155 C   0  0  0  0  0  0  0  0  0  0  0  0
  -11.3938   14.7500  -37.3847 C   0  0  1  0  0  0  0  0  0  0  0  0
  -10.4888   13.5881  -37.4401 N   0  0  0  0  0  0  0  0  0  0  0  0
  -13.8322   14.8936  -37.9863 N   0  0  0  0  0  0  0  0  0  0  0  0
   -8.8620   16.2275  -36.9616 H   0  0  0  0  0  0  0  0  0  0  0  0
   -8.7352   15.2594  -35.4827 H   0  0  0  0  0  0  0  0  0  0  0  0
  -11.0524   15.1166  -35.2293 H   0  0  0  0  0  0  0  0  0  0  0  0
  -11.0242   16.5681  -36.2397 H   0  0  0  0  0  0  0  0  0  0  0  0
  -12.4672   17.3151  -39.4846 H   0  0  0  0  0  0  0  0  0  0  0  0
  -11.8530   17.5319  -37.8505 H   0  0  0  0  0  0  0  0  0  0  0  0
  -11.5726   13.7972  -39.9894 H   0  0  0  0  0  0  0  0  0  0  0  0
  -12.1481   15.2781  -40.7515 H   0  0  0  0  0  0  0  0  0  0  0  0
   -8.6364   14.2654  -38.2128 H   0  0  0  0  0  0  0  0  0  0  0  0
   -8.5260   13.3419  -36.7115 H   0  0  0  0  0  0  0  0  0  0  0  0
  -13.8010   16.7273  -36.9297 H   0  0  0  0  0  0  0  0  0  0  0  0
  -14.4934   16.8306  -38.5301 H   0  0  0  0  0  0  0  0  0  0  0  0
  -14.2820   14.8523  -40.0552 H   0  0  0  0  0  0  0  0  0  0  0  0
  -13.7382   13.3235  -39.4084 H   0  0  0  0  0  0  0  0  0  0  0  0
  -12.9346   13.1912  -37.1368 H   0  0  0  0  0  0  0  0  0  0  0  0
  -13.1199   14.5269  -36.0321 H   0  0  0  0  0  0  0  0  0  0  0  0
  -10.4307   15.8630  -39.0434 H   0  0  0  0  0  0  0  0  0  0  0  0
  -10.5536   13.1668  -38.3686 H   0  0  0  0  0  0  0  0  0  0  0  0
  1  2  1  0  0  0  0
  1  5  1  0  0  0  0
  2 10  1  0  0  0  0
  3  6  1  0  0  0  0
  3  9  1  0  0  0  0
  4  7  1  0  0  0  0
  4  9  1  0  0  0  0
  5 11  1  0  0  0  0
  6 12  1  0  0  0  0
  7 12  1  0  0  0  0
  8 10  1  0  0  0  0
  8 12  1  0  0  0  0
  9 10  1  0  0  0  0
 10 11  1  0  0  0  0
  1 13  1  0  0  0  0
  1 14  1  0  0  0  0
  2 15  1  0  0  0  0
  2 16  1  0  0  0  0
  3 17  1  0  0  0  0
  3 18  1  0  0  0  0
  4 19  1  0  0  0  0
  4 20  1  0  0  0  0
  5 21  1  0  0  0  0
  5 22  1  0  0  0  0
  6 23  1  0  0  0  0
  6 24  1  0  0  0  0
  7 25  1  0  0  0  0
  7 26  1  0  0  0  0
  8 27  1  0  0  0  0
  8 28  1  0  0  0  0
  9 29  1  0  0  0  0
 11 30  1  0  0  0  0
M  END
> <id>
EN300-26982555

> <smiles>
C1CNC2(C1)CN3CCC2CC3

> <MDLNUMBER>
MFCD32702972

> <IUPAC Name>
4-azaspiro[bicyclo[2.2.2]octane-2,2'-pyrrolidine]

> <CAS>
2460754-51-0

> <URL>
https://www.enaminestore.com/catalog/EN300-26982555

> <ROCS_ShapeQuery>
x1247relevant_x1083L0AP1_x1305L0BP1_

> <ROCS_TanimotoCombo>
0.848 

> <ROCS_ShapeTanimoto>
0.472 

> <ROCS_ColorTanimoto>
0.376 

> <ROCS_RefTversky>
0.393 

> <ROCS_RefColorTversky>
0.410 

> <ROCS_RefTverskyCombo>
0.804 

> <ROCS_FitTversky>
1.739 

> <ROCS_FitColorTversky>
0.818 

> <ROCS_FitTverskyCombo>
2.557 

> <ROCS_ColorScore>
-8.725

> <ROCS_Overlap>
1155.582

> <ROCS_Rank>
80                  

$$$$
untitled-dbase-35922_1
  -OEChem-06162310163D

 30 32  0     1  0  0  0  0  0999 V2000
   -9.2635   15.3584  -36.4351 C   0  0  0  0  0  0  0  0  0  0  0  0
  -10.7598   15.5051  -36.2076 C   0  0  0  0  0  0  0  0  0  0  0  0
  -12.3249   16.8073  -38.5229 C   0  0  0  0  0  0  0  0  0  0  0  0
  -12.1268   14.7242  -39.8056 C   0  0  0  0  0  0  0  0  0  0  0  0
   -9.1256   14.0826  -37.2512 C   0  0  0  0  0  0  0  0  0  0  0  0
  -13.6824   16.3639  -37.9580 C   0  0  0  0  0  0  0  0  0  0  0  0
  -13.5628   14.4054  -39.3568 C   0  0  0  0  0  0  0  0  0  0  0  0
  -12.8398   14.2855  -37.0675 C   0  0  0  0  0  0  0  0  0  0  0  0
  -11.4300   15.5663  -38.7155 C   0  0  0  0  0  0  0  0  0  0  0  0
  -11.3938   14.7500  -37.3847 C   0  0  1  0  0  0  0  0  0  0  0  0
  -10.4888   13.5881  -37.4401 N   0  0  0  0  0  0  0  0  0  0  0  0
  -13.8322   14.8936  -37.9863 N   0  0  0  0  0  0  0  0  0  0  0  0
   -8.8620   16.2275  -36.9616 H   0  0  0  0  0  0  0  0  0  0  0  0
   -8.7352   15.2594  -35.4827 H   0  0  0  0  0  0  0  0  0  0  0  0
  -11.0524   15.1166  -35.2293 H   0  0  0  0  0  0  0  0  0  0  0  0
  -11.0242   16.5681  -36.2397 H   0  0  0  0  0  0  0  0  0  0  0  0
  -12.4672   17.3151  -39.4846 H   0  0  0  0  0  0  0  0  0  0  0  0
  -11.8530   17.5319  -37.8505 H   0  0  0  0  0  0  0  0  0  0  0  0
  -11.5726   13.7972  -39.9894 H   0  0  0  0  0  0  0  0  0  0  0  0
  -12.1481   15.2781  -40.7515 H   0  0  0  0  0  0  0  0  0  0  0  0
   -8.6364   14.2654  -38.2128 H   0  0  0  0  0  0  0  0  0  0  0  0
   -8.5260   13.3419  -36.7115 H   0  0  0  0  0  0  0  0  0  0  0  0
  -13.8010   16.7273  -36.9297 H   0  0  0  0  0  0  0  0  0  0  0  0
  -14.4934   16.8306  -38.5301 H   0  0  0  0  0  0  0  0  0  0  0  0
  -14.2820   14.8523  -40.0552 H   0  0  0  0  0  0  0  0  0  0  0  0
  -13.7382   13.3235  -39.4084 H   0  0  0  0  0  0  0  0  0  0  0  0
  -12.9346   13.1912  -37.1368 H   0  0  0  0  0  0  0  0  0  0  0  0
  -13.1199   14.5269  -36.0321 H   0  0  0  0  0  0  0  0  0  0  0  0
  -10.4307   15.8630  -39.0434 H   0  0  0  0  0  0  0  0  0  0  0  0
  -10.5536   13.1668  -38.3686 H   0  0  0  0  0  0  0  0  0  0  0  0
  1  2  1  0  0  0  0
  1  5  1  0  0  0  0
  2 10  1  0  0  0  0
  3  6  1  0  0  0  0
  3  9  1  0  0  0  0
  4  7  1  0  0  0  0
  4  9  1  0  0  0  0
  5 11  1  0  0  0  0
  6 12  1  0  0  0  0
  7 12  1  0  0  0  0
  8 10  1  0  0  0  0
  8 12  1  0  0  0  0
  9 10  1  0  0  0  0
 10 11  1  0  0  0  0
  1 13  1  0  0  0  0
  1 14  1  0  0  0  0
  2 15  1  0  0  0  0
  2 16  1  0  0  0  0
  3 17  1  0  0  0  0
  3 18  1  0  0  0  0
  4 19  1  0  0  0  0
  4 20  1  0  0  0  0
  5 21  1  0  0  0  0
  5 22  1  0  0  0  0
  6 23  1  0  0  0  0
  6 24  1  0  0  0  0
  7 25  1  0  0  0  0
  7 26  1  0  0  0  0
  8 27  1  0  0  0  0
  8 28  1  0  0  0  0
  9 29  1  0  0  0  0
 11 30  1  0  0  0  0
M  END
> <id>
EN300-26982554

> <smiles>
Cl.Cl.C1CNC2(C1)CN3CCC2CC3

> <MDLNUMBER>
MFCD32702971

> <IUPAC Name>
4-azaspiro[bicyclo[2.2.2]octane-2,2'-pyrrolidine] dihydrochloride

> <CAS>
2460754-52-1

> <Purity>
95

> <URL>
https://www.enaminestore.com/catalog/EN300-26982554

> <Saltdate>
Cl

> <ROCS_ShapeQuery>
x1247relevant_x1083L0AP1_x1305L0BP1_

> <ROCS_TanimotoCombo>
0.848 

> <ROCS_ShapeTanimoto>
0.472 

> <ROCS_ColorTanimoto>
0.376 

> <ROCS_RefTversky>
0.393 

> <ROCS_RefColorTversky>
0.410 

> <ROCS_RefTverskyCombo>
0.804 

> <ROCS_FitTversky>
1.739 

> <ROCS_FitColorTversky>
0.818 

> <ROCS_FitTverskyCombo>
2.557 

> <ROCS_ColorScore>
-8.725

> <ROCS_Overlap>
1155.582

> <ROCS_Rank>
81                  

$$$$
untitled-dbase-46549_0
  -OEChem-06162310163D

 31 33  0     1  0  0  0  0  0999 V2000
  -14.1121   14.6684  -37.8655 C   0  0  0  0  0  0  0  0  0  0  0  0
  -13.0427   15.0702  -36.8438 C   0  0  0  0  0  0  0  0  0  0  0  0
  -12.2771   14.1363  -39.4268 C   0  0  0  0  0  0  0  0  0  0  0  0
  -10.8855   16.4432  -36.8684 C   0  0  0  0  0  0  0  0  0  0  0  0
  -13.4700   15.1249  -39.1841 C   0  0  2  0  0  0  0  0  0  0  0  0
  -11.1807   14.7493  -38.5709 C   0  0  1  0  0  0  0  0  0  0  0  0
  -11.9497   15.7843  -37.7178 C   0  0  1  0  0  0  0  0  0  0  0  0
  -12.7954   16.4891  -38.8010 C   0  0  0  0  0  0  0  0  0  0  0  0
  -12.0311   17.1351  -39.9731 C   0  0  0  0  0  0  0  0  0  0  0  0
  -13.7460   17.5742  -38.2614 C   0  0  0  0  0  0  0  0  0  0  0  0
  -10.4510   13.9213  -37.5872 N   0  0  0  0  0  0  0  0  0  0  0  0
  -10.1091   14.6046  -35.0686 O   0  0  0  0  0  0  0  0  0  0  0  0
   -8.4294   15.4076  -36.7898 O   0  0  0  0  0  0  0  0  0  0  0  0
   -9.7829   15.0674  -36.4010 S   0  0  0  0  0  0  0  0  0  0  0  0
  -14.3169   13.5930  -37.8421 H   0  0  0  0  0  0  0  0  0  0  0  0
  -15.0583   15.1849  -37.6739 H   0  0  0  0  0  0  0  0  0  0  0  0
  -13.4618   15.7472  -36.0909 H   0  0  0  0  0  0  0  0  0  0  0  0
  -12.6777   14.1931  -36.3020 H   0  0  0  0  0  0  0  0  0  0  0  0
  -12.5141   13.1013  -39.1598 H   0  0  0  0  0  0  0  0  0  0  0  0
  -11.9871   14.1497  -40.4831 H   0  0  0  0  0  0  0  0  0  0  0  0
  -10.2877   17.1576  -37.4413 H   0  0  0  0  0  0  0  0  0  0  0  0
  -11.2716   16.9133  -35.9616 H   0  0  0  0  0  0  0  0  0  0  0  0
  -14.1759   15.1646  -40.0170 H   0  0  0  0  0  0  0  0  0  0  0  0
  -10.4145   15.2069  -39.2095 H   0  0  0  0  0  0  0  0  0  0  0  0
  -11.5928   18.0689  -39.6397 H   0  0  0  0  0  0  0  0  0  0  0  0
  -12.7222   17.3235  -40.7868 H   0  0  0  0  0  0  0  0  0  0  0  0
  -11.2500   16.4595  -40.3030 H   0  0  0  0  0  0  0  0  0  0  0  0
  -13.1742   18.4665  -38.0314 H   0  0  0  0  0  0  0  0  0  0  0  0
  -14.2312   17.2081  -37.3633 H   0  0  0  0  0  0  0  0  0  0  0  0
  -14.4922   17.8008  -39.0151 H   0  0  0  0  0  0  0  0  0  0  0  0
  -11.0235   13.1730  -37.1752 H   0  0  0  0  0  0  0  0  0  0  0  0
  1  2  1  0  0  0  0
  1  5  1  6  0  0  0
  2  7  1  0  0  0  0
  3  5  1  0  0  0  0
  3  6  1  6  0  0  0
  4  7  1  0  0  0  0
  4 14  1  0  0  0  0
  5  8  1  0  0  0  0
  6  7  1  0  0  0  0
  6 11  1  0  0  0  0
  7  8  1  0  0  0  0
  8  9  1  0  0  0  0
  8 10  1  0  0  0  0
 11 14  1  0  0  0  0
 12 14  2  0  0  0  0
 13 14  2  0  0  0  0
  1 15  1  0  0  0  0
  1 16  1  0  0  0  0
  2 17  1  0  0  0  0
  2 18  1  0  0  0  0
  3 19  1  0  0  0  0
  3 20  1  0  0  0  0
  4 21  1  0  0  0  0
  4 22  1  0  0  0  0
  5 23  1  0  0  0  0
  6 24  1  0  0  0  0
  9 25  1  0  0  0  0
  9 26  1  0  0  0  0
  9 27  1  0  0  0  0
 10 28  1  0  0  0  0
 10 29  1  0  0  0  0
 10 30  1  0  0  0  0
 11 31  1  0  0  0  0
M  END
> <id>
EN300-114197

> <smiles>
CC1(C)[C@@H]2CCC31CS(=O)(=O)N[C@H]3C2

> <MDLNUMBER>
MFCD22565875

> <IUPAC Name>
(5S,7R)-10,10-dimethyl-3lambda6-thia-4-azatricyclo[5.2.1.0,1,5]decane-3,3-dione

> <CAS>
1807914-32-4

> <URL>
https://www.enaminestore.com/catalog/EN300-114197

> <MP>
181-183

> <ROCS_ShapeQuery>
x1247relevant_x1083L0AP1_x1305L0BP1_

> <ROCS_TanimotoCombo>
0.848 

> <ROCS_ShapeTanimoto>
0.479 

> <ROCS_ColorTanimoto>
0.369 

> <ROCS_RefTversky>
0.405 

> <ROCS_RefColorTversky>
0.420 

> <ROCS_RefTverskyCombo>
0.824 

> <ROCS_FitTversky>
1.624 

> <ROCS_FitColorTversky>
0.753 

> <ROCS_FitTverskyCombo>
2.377 

> <ROCS_ColorScore>
-8.951

> <ROCS_Overlap>
1190.507

> <ROCS_Rank>
82                  

$$$$
untitled-dbase-30677_0
  -OEChem-06162310163D

 31 33  0     1  0  0  0  0  0999 V2000
  -14.1120   14.6686  -37.8647 C   0  0  0  0  0  0  0  0  0  0  0  0
  -13.0423   15.0706  -36.8434 C   0  0  0  0  0  0  0  0  0  0  0  0
  -12.2774   14.1359  -39.4266 C   0  0  0  0  0  0  0  0  0  0  0  0
  -10.8850   16.4435  -36.8691 C   0  0  0  0  0  0  0  0  0  0  0  0
  -13.4702   15.1245  -39.1838 C   0  0  2  0  0  0  0  0  0  0  0  0
  -11.1807   14.7492  -38.5711 C   0  0  1  0  0  0  0  0  0  0  0  0
  -11.9495   15.7845  -37.7181 C   0  0  1  0  0  0  0  0  0  0  0  0
  -12.7956   16.4890  -38.8012 C   0  0  0  0  0  0  0  0  0  0  0  0
  -12.0318   17.1345  -39.9739 C   0  0  0  0  0  0  0  0  0  0  0  0
  -13.7462   17.5742  -38.2619 C   0  0  0  0  0  0  0  0  0  0  0  0
  -10.4509   13.9213  -37.5873 N   0  0  0  0  0  0  0  0  0  0  0  0
  -10.1096   14.6048  -35.0689 O   0  0  0  0  0  0  0  0  0  0  0  0
   -8.4292   15.4074  -36.7897 O   0  0  0  0  0  0  0  0  0  0  0  0
   -9.7829   15.0675  -36.4012 S   0  0  0  0  0  0  0  0  0  0  0  0
  -14.3167   13.5932  -37.8407 H   0  0  0  0  0  0  0  0  0  0  0  0
  -15.0581   15.1850  -37.6732 H   0  0  0  0  0  0  0  0  0  0  0  0
  -13.4610   15.7481  -36.0907 H   0  0  0  0  0  0  0  0  0  0  0  0
  -12.6773   14.1939  -36.3013 H   0  0  0  0  0  0  0  0  0  0  0  0
  -12.5141   13.1010  -39.1594 H   0  0  0  0  0  0  0  0  0  0  0  0
  -11.9877   14.1491  -40.4831 H   0  0  0  0  0  0  0  0  0  0  0  0
  -10.2873   17.1577  -37.4423 H   0  0  0  0  0  0  0  0  0  0  0  0
  -11.2712   16.9143  -35.9625 H   0  0  0  0  0  0  0  0  0  0  0  0
  -14.1764   15.1641  -40.0163 H   0  0  0  0  0  0  0  0  0  0  0  0
  -10.4147   15.2063  -39.2103 H   0  0  0  0  0  0  0  0  0  0  0  0
  -11.5933   18.0685  -39.6410 H   0  0  0  0  0  0  0  0  0  0  0  0
  -12.7232   17.3226  -40.7875 H   0  0  0  0  0  0  0  0  0  0  0  0
  -11.2508   16.4588  -40.3039 H   0  0  0  0  0  0  0  0  0  0  0  0
  -13.1745   18.4666  -38.0324 H   0  0  0  0  0  0  0  0  0  0  0  0
  -14.2313   17.2083  -37.3637 H   0  0  0  0  0  0  0  0  0  0  0  0
  -14.4925   17.8005  -39.0156 H   0  0  0  0  0  0  0  0  0  0  0  0
  -11.0235   13.1728  -37.1757 H   0  0  0  0  0  0  0  0  0  0  0  0
  1  2  1  0  0  0  0
  1  5  1  6  0  0  0
  2  7  1  6  0  0  0
  3  5  1  0  0  0  0
  3  6  1  6  0  0  0
  4  7  1  0  0  0  0
  4 14  1  0  0  0  0
  5  8  1  0  0  0  0
  6  7  1  0  0  0  0
  6 11  1  0  0  0  0
  7  8  1  0  0  0  0
  8  9  1  0  0  0  0
  8 10  1  0  0  0  0
 11 14  1  0  0  0  0
 12 14  2  0  0  0  0
 13 14  2  0  0  0  0
  1 15  1  0  0  0  0
  1 16  1  0  0  0  0
  2 17  1  0  0  0  0
  2 18  1  0  0  0  0
  3 19  1  0  0  0  0
  3 20  1  0  0  0  0
  4 21  1  0  0  0  0
  4 22  1  0  0  0  0
  5 23  1  0  0  0  0
  6 24  1  0  0  0  0
  9 25  1  0  0  0  0
  9 26  1  0  0  0  0
  9 27  1  0  0  0  0
 10 28  1  0  0  0  0
 10 29  1  0  0  0  0
 10 30  1  0  0  0  0
 11 31  1  0  0  0  0
M  END
> <id>
EN300-20865085

> <smiles>
CC1(C)[C@@H]2CC[C@@]31CS(=O)(=O)N[C@H]3C2

> <MDLNUMBER>
MFCD28657206

> <IUPAC Name>
(1S,5S,7R)-10,10-dimethyl-3lambda6-thia-4-azatricyclo[5.2.1.0,1,5]decane-3,3-dione

> <CAS>
1932271-77-6

> <Purity>
95

> <URL>
https://www.enaminestore.com/catalog/EN300-20865085

> <ROCS_ShapeQuery>
x1247relevant_x1083L0AP1_x1305L0BP1_

> <ROCS_TanimotoCombo>
0.848 

> <ROCS_ShapeTanimoto>
0.479 

> <ROCS_ColorTanimoto>
0.369 

> <ROCS_RefTversky>
0.405 

> <ROCS_RefColorTversky>
0.420 

> <ROCS_RefTverskyCombo>
0.824 

> <ROCS_FitTversky>
1.624 

> <ROCS_FitColorTversky>
0.753 

> <ROCS_FitTverskyCombo>
2.377 

> <ROCS_ColorScore>
-8.951

> <ROCS_Overlap>
1190.498

> <ROCS_Rank>
83                  

$$$$
untitled-dbase-40271_0
  -OEChem-06162310163D

 29 32  0     1  0  0  0  0  0999 V2000
  -14.1892   14.1263  -39.2956 C   0  0  0  0  0  0  0  0  0  0  0  0
  -13.0409   16.5685  -38.4698 C   0  0  0  0  0  0  0  0  0  0  0  0
   -9.8731   14.5486  -38.2751 C   0  0  0  0  0  0  0  0  0  0  0  0
  -11.0075   14.2793  -36.2519 C   0  0  0  0  0  0  0  0  0  0  0  0
  -12.6980   14.3488  -39.3128 C   0  0  2  0  0  0  0  0  0  0  0  0
  -13.4183   14.2433  -38.0042 C   0  0  1  0  0  0  0  0  0  0  0  0
  -12.0256   15.7181  -39.2554 C   0  0  2  0  0  0  0  0  0  0  0  0
  -13.0896   15.5599  -37.2974 C   0  0  1  0  0  0  0  0  0  0  0  0
  -10.8500   15.7158  -38.2263 C   0  0  1  0  0  0  0  0  0  0  0  0
  -11.5825   15.5722  -36.8523 C   0  0  2  0  0  0  0  0  0  0  0  0
  -11.2996   16.7445  -35.9016 C   0  0  0  0  0  0  0  0  0  0  0  0
  -10.4499   13.5393  -37.3861 N   0  0  0  0  0  0  0  0  0  0  0  0
  -14.8618   14.9142  -39.6021 H   0  0  0  0  0  0  0  0  0  0  0  0
  -14.5464   13.1394  -39.5714 H   0  0  0  0  0  0  0  0  0  0  0  0
  -12.6640   17.5606  -38.2056 H   0  0  0  0  0  0  0  0  0  0  0  0
  -13.9989   16.7008  -38.9785 H   0  0  0  0  0  0  0  0  0  0  0  0
   -9.7161   14.1638  -39.2868 H   0  0  0  0  0  0  0  0  0  0  0  0
   -8.8972   14.8548  -37.8801 H   0  0  0  0  0  0  0  0  0  0  0  0
  -10.1936   14.4867  -35.5468 H   0  0  0  0  0  0  0  0  0  0  0  0
  -11.7566   13.6918  -35.7118 H   0  0  0  0  0  0  0  0  0  0  0  0
  -12.0876   13.5490  -39.7012 H   0  0  0  0  0  0  0  0  0  0  0  0
  -13.3511   13.3588  -37.3904 H   0  0  0  0  0  0  0  0  0  0  0  0
  -11.7565   16.1130  -40.2372 H   0  0  0  0  0  0  0  0  0  0  0  0
  -13.7996   15.8139  -36.5073 H   0  0  0  0  0  0  0  0  0  0  0  0
  -10.3086   16.6679  -38.2970 H   0  0  0  0  0  0  0  0  0  0  0  0
  -11.7055   17.6585  -36.3250 H   0  0  0  0  0  0  0  0  0  0  0  0
  -10.2270   16.8508  -35.7692 H   0  0  0  0  0  0  0  0  0  0  0  0
  -11.7668   16.5506  -34.9406 H   0  0  0  0  0  0  0  0  0  0  0  0
  -11.1794   13.0156  -37.8603 H   0  0  0  0  0  0  0  0  0  0  0  0
  1  5  1  0  0  0  0
  1  6  1  0  0  0  0
  2  7  1  0  0  0  0
  2  8  1  0  0  0  0
  3  9  1  6  0  0  0
  3 12  1  0  0  0  0
  4 10  1  0  0  0  0
  4 12  1  0  0  0  0
  5  6  1  0  0  0  0
  5  7  1  6  0  0  0
  6  8  1  6  0  0  0
  7  9  1  0  0  0  0
  8 10  1  0  0  0  0
  9 10  1  0  0  0  0
 10 11  1  1  0  0  0
  1 13  1  0  0  0  0
  1 14  1  0  0  0  0
  2 15  1  0  0  0  0
  2 16  1  0  0  0  0
  3 17  1  0  0  0  0
  3 18  1  0  0  0  0
  4 19  1  0  0  0  0
  4 20  1  0  0  0  0
  5 21  1  0  0  0  0
  6 22  1  0  0  0  0
  7 23  1  0  0  0  0
  8 24  1  0  0  0  0
  9 25  1  0  0  0  0
 11 26  1  0  0  0  0
 11 27  1  0  0  0  0
 11 28  1  0  0  0  0
 12 29  1  0  0  0  0
M  END
> <id>
EN300-803731

> <smiles>
C[C@@]12CNC[C@H]2[C@@H]3C[C@H]1C4CC43 |&1:1,5,6,8,r|

> <IUPAC Name>
rac-(1R,2S,6R,7S)-2-methyl-4-azatetracyclo[5.3.1.0^{2,6}.0^{8,10}]undecane

> <CAS>
2137433-72-6

> <URL>
https://www.enaminestore.com/catalog/EN300-803731

> <ROCS_ShapeQuery>
x1247relevant_x1083L0AP1_x1305L0BP1_

> <ROCS_TanimotoCombo>
0.848 

> <ROCS_ShapeTanimoto>
0.435 

> <ROCS_ColorTanimoto>
0.413 

> <ROCS_RefTversky>
0.373 

> <ROCS_RefColorTversky>
0.563 

> <ROCS_RefTverskyCombo>
0.937 

> <ROCS_FitTversky>
1.614 

> <ROCS_FitColorTversky>
0.607 

> <ROCS_FitTverskyCombo>
2.221 

> <ROCS_ColorScore>
-12.257

> <ROCS_Overlap>
1097.594

> <ROCS_Rank>
84                  

$$$$
untitled-dbase-30794_56
  -OEChem-06162310163D

 40 41  0     1  0  0  0  0  0999 V2000
  -10.1705   14.7700  -37.3073 C   0  0  0  0  0  0  0  0  0  0  0  0
  -13.7158   15.3902  -37.0304 C   0  0  0  0  0  0  0  0  0  0  0  0
  -13.6559   14.0328  -37.7596 C   0  0  0  0  0  0  0  0  0  0  0  0
  -12.3900   16.9017  -38.6145 C   0  0  0  0  0  0  0  0  0  0  0  0
  -12.2956   14.6229  -39.8467 C   0  0  0  0  0  0  0  0  0  0  0  0
  -12.3665   16.0558  -37.3234 C   0  0  2  0  0  0  0  0  0  0  0  0
  -12.2791   14.0069  -38.4310 C   0  0  1  0  0  0  0  0  0  0  0  0
  -12.8051   16.0904  -39.8743 C   0  0  0  0  0  0  0  0  0  0  0  0
  -12.3287   16.7938  -41.1486 C   0  0  0  0  0  0  0  0  0  0  0  0
   -9.8735   14.1824  -34.7714 C   0  0  0  0  0  0  0  0  0  0  0  0
   -9.6680   11.7602  -35.4036 C   0  0  0  0  0  0  0  0  0  0  0  0
   -7.7621   13.3346  -35.8475 C   0  0  0  0  0  0  0  0  0  0  0  0
   -9.2815   13.1909  -35.7720 C   0  0  0  0  0  0  0  0  0  0  0  0
  -11.5143   14.9101  -37.5935 N   0  0  0  0  0  0  0  0  0  0  0  0
   -9.3712   15.7027  -37.2709 O   0  0  0  0  0  0  0  0  0  0  0  0
  -14.2364   16.0490  -39.9451 O   0  0  0  0  0  0  0  0  0  0  0  0
   -9.8303   13.4665  -37.0655 O   0  0  0  0  0  0  0  0  0  0  0  0
  -14.5720   15.9940  -37.3457 H   0  0  0  0  0  0  0  0  0  0  0  0
  -13.8206   15.2114  -35.9534 H   0  0  0  0  0  0  0  0  0  0  0  0
  -13.7294   13.2265  -37.0199 H   0  0  0  0  0  0  0  0  0  0  0  0
  -14.4814   13.9051  -38.4662 H   0  0  0  0  0  0  0  0  0  0  0  0
  -13.0727   17.7490  -38.4731 H   0  0  0  0  0  0  0  0  0  0  0  0
  -11.3844   17.3177  -38.7611 H   0  0  0  0  0  0  0  0  0  0  0  0
  -11.2710   14.5849  -40.2401 H   0  0  0  0  0  0  0  0  0  0  0  0
  -12.9138   13.9950  -40.5002 H   0  0  0  0  0  0  0  0  0  0  0  0
  -12.0059   16.6518  -36.4799 H   0  0  0  0  0  0  0  0  0  0  0  0
  -11.8407   13.0044  -38.4537 H   0  0  0  0  0  0  0  0  0  0  0  0
  -12.6269   16.2139  -42.0187 H   0  0  0  0  0  0  0  0  0  0  0  0
  -11.2453   16.8856  -41.1313 H   0  0  0  0  0  0  0  0  0  0  0  0
  -12.7732   17.7844  -41.2065 H   0  0  0  0  0  0  0  0  0  0  0  0
   -9.5984   15.2106  -35.0324 H   0  0  0  0  0  0  0  0  0  0  0  0
  -10.9656   14.1137  -34.7334 H   0  0  0  0  0  0  0  0  0  0  0  0
   -9.4802   14.0034  -33.7642 H   0  0  0  0  0  0  0  0  0  0  0  0
   -9.2453   11.0454  -36.1189 H   0  0  0  0  0  0  0  0  0  0  0  0
  -10.7553   11.6277  -35.4407 H   0  0  0  0  0  0  0  0  0  0  0  0
   -9.3203   11.4934  -34.4003 H   0  0  0  0  0  0  0  0  0  0  0  0
   -7.3373   12.6235  -36.5652 H   0  0  0  0  0  0  0  0  0  0  0  0
   -7.4670   14.3456  -36.1468 H   0  0  0  0  0  0  0  0  0  0  0  0
   -7.3009   13.1095  -34.8792 H   0  0  0  0  0  0  0  0  0  0  0  0
  -14.5283   16.9694  -40.0048 H   0  0  0  0  0  0  0  0  0  0  0  0
  1 14  1  0  0  0  0
  1 15  2  0  0  0  0
  1 17  1  0  0  0  0
  2  3  1  0  0  0  0
  2  6  1  0  0  0  0
  3  7  1  0  0  0  0
  4  6  1  0  0  0  0
  4  8  1  0  0  0  0
  5  7  1  0  0  0  0
  5  8  1  0  0  0  0
  6 14  1  0  0  0  0
  7 14  1  0  0  0  0
  8  9  1  0  0  0  0
  8 16  1  0  0  0  0
 10 13  1  0  0  0  0
 11 13  1  0  0  0  0
 12 13  1  0  0  0  0
 13 17  1  0  0  0  0
  2 18  1  0  0  0  0
  2 19  1  0  0  0  0
  3 20  1  0  0  0  0
  3 21  1  0  0  0  0
  4 22  1  0  0  0  0
  4 23  1  0  0  0  0
  5 24  1  0  0  0  0
  5 25  1  0  0  0  0
  6 26  1  0  0  0  0
  7 27  1  0  0  0  0
  9 28  1  0  0  0  0
  9 29  1  0  0  0  0
  9 30  1  0  0  0  0
 10 31  1  0  0  0  0
 10 32  1  0  0  0  0
 10 33  1  0  0  0  0
 11 34  1  0  0  0  0
 11 35  1  0  0  0  0
 11 36  1  0  0  0  0
 12 37  1  0  0  0  0
 12 38  1  0  0  0  0
 12 39  1  0  0  0  0
 16 40  1  0  0  0  0
M  END
> <id>
EN300-5609288

> <smiles>
CC(C)(C)OC(=O)N1C2CCC1CC(C)(O)C2

> <MDLNUMBER>
MFCD23701452

> <IUPAC Name>
tert-butyl 3-hydroxy-3-methyl-8-azabicyclo[3.2.1]octane-8-carboxylate

> <CAS>
870889-20-6

> <URL>
https://www.enaminestore.com/catalog/EN300-5609288

> <ROCS_ShapeQuery>
x1247relevant_x1083L0AP1_x1305L0BP1_

> <ROCS_TanimotoCombo>
0.848 

> <ROCS_ShapeTanimoto>
0.506 

> <ROCS_ColorTanimoto>
0.342 

> <ROCS_RefTversky>
0.435 

> <ROCS_RefColorTversky>
0.380 

> <ROCS_RefTverskyCombo>
0.815 

> <ROCS_FitTversky>
1.477 

> <ROCS_FitColorTversky>
0.775 

> <ROCS_FitTverskyCombo>
2.252 

> <ROCS_ColorScore>
-8.075

> <ROCS_Overlap>
1281.494

> <ROCS_Rank>
85                  

$$$$
untitled-dbase-16651_1
  -OEChem-06162310163D

 44 47  0     1  0  0  0  0  0999 V2000
   -8.4977   15.0334  -33.5915 C   0  0  0  0  0  0  0  0  0  0  0  0
   -7.4567   15.8840  -34.3180 C   0  0  0  0  0  0  0  0  0  0  0  0
  -12.9621   16.9642  -38.4130 C   0  0  0  0  0  0  0  0  0  0  0  0
  -13.9072   16.1581  -37.5197 C   0  0  0  0  0  0  0  0  0  0  0  0
   -9.1519   14.1531  -34.6556 C   0  0  0  0  0  0  0  0  0  0  0  0
   -7.4814   15.4293  -35.7739 C   0  0  0  0  0  0  0  0  0  0  0  0
  -11.1457   15.2272  -38.9440 C   0  0  0  0  0  0  0  0  0  0  0  0
  -12.7063   13.8853  -37.4480 C   0  0  0  0  0  0  0  0  0  0  0  0
   -8.9585   13.9214  -37.1887 C   0  0  0  0  0  0  0  0  0  0  0  0
   -9.9162   16.0071  -36.2193 C   0  0  0  0  0  0  0  0  0  0  0  0
  -12.4285   15.9458  -39.4240 C   0  0  1  0  0  0  0  0  0  0  0  0
  -13.8379   14.7335  -38.0760 C   0  0  2  0  0  0  0  0  0  0  0  0
   -8.8963   14.8780  -35.9908 C   0  0  0  0  0  0  0  0  0  0  0  0
  -11.2921   14.5274  -37.5593 C   0  0  0  0  0  0  0  0  0  0  0  0
  -14.6064   15.2975  -40.3291 C   0  0  0  0  0  0  0  0  0  0  0  0
  -10.3194   13.4329  -37.3906 N   0  0  0  0  0  0  0  0  0  0  0  0
  -13.4737   14.9095  -39.4927 N   0  0  0  0  0  0  0  0  0  0  0  0
  -11.2168   15.4790  -36.4796 O   0  0  0  0  0  0  0  0  0  0  0  0
   -8.0476   14.4287  -32.7964 H   0  0  0  0  0  0  0  0  0  0  0  0
   -9.2466   15.6819  -33.1205 H   0  0  0  0  0  0  0  0  0  0  0  0
   -7.7185   16.9445  -34.2386 H   0  0  0  0  0  0  0  0  0  0  0  0
   -6.4602   15.7601  -33.8833 H   0  0  0  0  0  0  0  0  0  0  0  0
  -13.5308   17.7503  -38.9246 H   0  0  0  0  0  0  0  0  0  0  0  0
  -12.1703   17.4614  -37.8449 H   0  0  0  0  0  0  0  0  0  0  0  0
  -13.6361   16.2186  -36.4617 H   0  0  0  0  0  0  0  0  0  0  0  0
  -14.9238   16.5584  -37.6148 H   0  0  0  0  0  0  0  0  0  0  0  0
   -8.6656   13.1692  -34.6563 H   0  0  0  0  0  0  0  0  0  0  0  0
  -10.2161   13.9936  -34.4540 H   0  0  0  0  0  0  0  0  0  0  0  0
   -7.2176   16.2476  -36.4521 H   0  0  0  0  0  0  0  0  0  0  0  0
   -6.7332   14.6377  -35.9098 H   0  0  0  0  0  0  0  0  0  0  0  0
  -10.8790   14.4855  -39.7101 H   0  0  0  0  0  0  0  0  0  0  0  0
  -10.3268   15.9571  -38.9073 H   0  0  0  0  0  0  0  0  0  0  0  0
  -12.9705   13.6800  -36.4046 H   0  0  0  0  0  0  0  0  0  0  0  0
  -12.7010   12.9110  -37.9598 H   0  0  0  0  0  0  0  0  0  0  0  0
   -8.6285   14.4255  -38.1047 H   0  0  0  0  0  0  0  0  0  0  0  0
   -8.2721   13.0780  -37.0457 H   0  0  0  0  0  0  0  0  0  0  0  0
   -9.9605   16.6840  -35.3593 H   0  0  0  0  0  0  0  0  0  0  0  0
   -9.6472   16.6266  -37.0812 H   0  0  0  0  0  0  0  0  0  0  0  0
  -12.2271   16.4075  -40.3976 H   0  0  0  0  0  0  0  0  0  0  0  0
  -14.7866   14.1997  -37.9494 H   0  0  0  0  0  0  0  0  0  0  0  0
  -15.3493   14.4863  -40.3404 H   0  0  0  0  0  0  0  0  0  0  0  0
  -15.0664   16.2102  -39.9227 H   0  0  0  0  0  0  0  0  0  0  0  0
  -14.2566   15.4884  -41.3544 H   0  0  0  0  0  0  0  0  0  0  0  0
  -10.3377   12.8425  -38.2223 H   0  0  0  0  0  0  0  0  0  0  0  0
  1  2  1  0  0  0  0
  1  5  1  0  0  0  0
  2  6  1  0  0  0  0
  3  4  1  0  0  0  0
  3 11  1  0  0  0  0
  4 12  1  0  0  0  0
  5 13  1  0  0  0  0
  6 13  1  0  0  0  0
  7 11  1  0  0  0  0
  7 14  1  0  0  0  0
  8 12  1  0  0  0  0
  8 14  1  0  0  0  0
  9 13  1  0  0  0  0
  9 16  1  0  0  0  0
 10 13  1  0  0  0  0
 10 18  1  0  0  0  0
 11 17  1  0  0  0  0
 12 17  1  0  0  0  0
 14 16  1  0  0  0  0
 14 18  1  0  0  0  0
 15 17  1  0  0  0  0
  1 19  1  0  0  0  0
  1 20  1  0  0  0  0
  2 21  1  0  0  0  0
  2 22  1  0  0  0  0
  3 23  1  0  0  0  0
  3 24  1  0  0  0  0
  4 25  1  0  0  0  0
  4 26  1  0  0  0  0
  5 27  1  0  0  0  0
  5 28  1  0  0  0  0
  6 29  1  0  0  0  0
  6 30  1  0  0  0  0
  7 31  1  0  0  0  0
  7 32  1  0  0  0  0
  8 33  1  0  0  0  0
  8 34  1  0  0  0  0
  9 35  1  0  0  0  0
  9 36  1  0  0  0  0
 10 37  1  0  0  0  0
 10 38  1  0  0  0  0
 11 39  1  0  0  0  0
 12 40  1  0  0  0  0
 15 41  1  0  0  0  0
 15 42  1  0  0  0  0
 15 43  1  0  0  0  0
 16 44  1  0  0  0  0
M  END
> <id>
EN300-1278933

> <smiles>
CN1C2CCC1CC3(C2)NCC4(CCCC4)CO3

> <IUPAC Name>
8-methyldispiro[8-azabicyclo[3.2.1]octane-3,2'-[1,3]oxazinane-5',1''-cyclopentane]

> <URL>
https://www.enaminestore.com/catalog/EN300-1278933

> <ROCS_ShapeQuery>
x1247relevant_x1083L0AP1_x1305L0BP1_

> <ROCS_TanimotoCombo>
0.848 

> <ROCS_ShapeTanimoto>
0.516 

> <ROCS_ColorTanimoto>
0.332 

> <ROCS_RefTversky>
0.447 

> <ROCS_RefColorTversky>
0.393 

> <ROCS_RefTverskyCombo>
0.840 

> <ROCS_FitTversky>
1.423 

> <ROCS_FitColorTversky>
0.682 

> <ROCS_FitTverskyCombo>
2.105 

> <ROCS_ColorScore>
-8.382

> <ROCS_Overlap>
1320.453

> <ROCS_Rank>
86                  

$$$$
untitled-dbase-42050_0
  -OEChem-06162310163D

 29 31  0     1  0  0  0  0  0999 V2000
  -14.1069   15.4895  -37.3304 C   0  0  0  0  0  0  0  0  0  0  0  0
  -12.4381   17.0582  -38.3545 C   0  0  0  0  0  0  0  0  0  0  0  0
  -11.6889   15.3512  -36.6762 C   0  0  0  0  0  0  0  0  0  0  0  0
  -12.7245   13.5299  -38.0672 C   0  0  0  0  0  0  0  0  0  0  0  0
  -11.0493   15.1056  -39.0962 C   0  0  0  0  0  0  0  0  0  0  0  0
  -12.8298   16.3064  -37.0714 C   0  0  0  0  0  0  0  0  0  0  0  0
  -13.8671   14.4805  -38.4701 C   0  0  2  0  0  0  0  0  0  0  0  0
  -12.1913   16.0568  -39.4997 C   0  0  1  0  0  0  0  0  0  0  0  0
  -13.4619   15.2245  -39.7579 C   0  0  0  0  0  0  0  0  0  0  0  0
  -11.4303   14.3352  -37.8117 C   0  0  0  0  0  0  0  0  0  0  0  0
  -10.3527   13.4270  -37.4235 N   0  0  0  0  0  0  0  0  0  0  0  0
  -14.5322   16.0603  -40.1857 O   0  0  0  0  0  0  0  0  0  0  0  0
  -14.4002   14.9566  -36.4172 H   0  0  0  0  0  0  0  0  0  0  0  0
  -14.9368   16.1604  -37.5825 H   0  0  0  0  0  0  0  0  0  0  0  0
  -13.2293   17.7655  -38.6313 H   0  0  0  0  0  0  0  0  0  0  0  0
  -11.5328   17.6524  -38.1777 H   0  0  0  0  0  0  0  0  0  0  0  0
  -10.7811   15.9320  -36.4658 H   0  0  0  0  0  0  0  0  0  0  0  0
  -11.9516   14.8297  -35.7464 H   0  0  0  0  0  0  0  0  0  0  0  0
  -13.0123   12.9703  -37.1672 H   0  0  0  0  0  0  0  0  0  0  0  0
  -12.5664   12.7885  -38.8615 H   0  0  0  0  0  0  0  0  0  0  0  0
  -10.8459   14.4065  -39.9181 H   0  0  0  0  0  0  0  0  0  0  0  0
  -10.1288   15.6837  -38.9390 H   0  0  0  0  0  0  0  0  0  0  0  0
  -13.0072   17.0234  -36.2621 H   0  0  0  0  0  0  0  0  0  0  0  0
  -14.7898   13.9141  -38.6404 H   0  0  0  0  0  0  0  0  0  0  0  0
  -11.9174   16.6142  -40.4030 H   0  0  0  0  0  0  0  0  0  0  0  0
  -13.2802   14.4990  -40.5603 H   0  0  0  0  0  0  0  0  0  0  0  0
   -9.5373   13.9673  -37.2584 H   0  0  0  0  0  0  0  0  0  0  0  0
  -10.6322   12.9510  -36.5992 H   0  0  0  0  0  0  0  0  0  0  0  0
  -14.2315   16.5046  -40.9940 H   0  0  0  0  0  0  0  0  0  0  0  0
  1  6  1  0  0  0  0
  1  7  1  0  0  0  0
  2  6  1  0  0  0  0
  2  8  1  0  0  0  0
  3  6  1  0  0  0  0
  3 10  1  0  0  0  0
  4  7  1  0  0  0  0
  4 10  1  0  0  0  0
  5  8  1  0  0  0  0
  5 10  1  0  0  0  0
  7  9  1  0  0  0  0
  8  9  1  0  0  0  0
  9 12  1  0  0  0  0
 10 11  1  0  0  0  0
  1 13  1  0  0  0  0
  1 14  1  0  0  0  0
  2 15  1  0  0  0  0
  2 16  1  0  0  0  0
  3 17  1  0  0  0  0
  3 18  1  0  0  0  0
  4 19  1  0  0  0  0
  4 20  1  0  0  0  0
  5 21  1  0  0  0  0
  5 22  1  0  0  0  0
  6 23  1  0  0  0  0
  7 24  1  0  0  0  0
  8 25  1  0  0  0  0
  9 26  1  0  0  0  0
 11 27  1  0  0  0  0
 11 28  1  0  0  0  0
 12 29  1  0  0  0  0
M  END
> <id>
EN300-7849750

> <smiles>
NC1(CC2CC3C1)CC(C2)C3O

> <IUPAC Name>
5-aminoadamantan-2-ol

> <CAS>
22591-69-1

> <URL>
https://www.enaminestore.com/catalog/EN300-7849750

> <ROCS_ShapeQuery>
x1247relevant_x1083L0AP1_x1305L0BP1_

> <ROCS_TanimotoCombo>
0.848 

> <ROCS_ShapeTanimoto>
0.439 

> <ROCS_ColorTanimoto>
0.409 

> <ROCS_RefTversky>
0.374 

> <ROCS_RefColorTversky>
0.441 

> <ROCS_RefTverskyCombo>
0.815 

> <ROCS_FitTversky>
1.652 

> <ROCS_FitColorTversky>
0.850 

> <ROCS_FitTverskyCombo>
2.503 

> <ROCS_ColorScore>
-9.382

> <ROCS_Overlap>
1098.318

> <ROCS_Rank>
87                  

$$$$
untitled-dbase-23718_0
  -OEChem-06162310163D

 29 31  0     1  0  0  0  0  0999 V2000
  -14.1069   15.4895  -37.3304 C   0  0  0  0  0  0  0  0  0  0  0  0
  -12.4381   17.0582  -38.3545 C   0  0  0  0  0  0  0  0  0  0  0  0
  -11.6889   15.3512  -36.6762 C   0  0  0  0  0  0  0  0  0  0  0  0
  -12.7245   13.5299  -38.0672 C   0  0  0  0  0  0  0  0  0  0  0  0
  -11.0493   15.1056  -39.0962 C   0  0  0  0  0  0  0  0  0  0  0  0
  -12.8298   16.3064  -37.0714 C   0  0  0  0  0  0  0  0  0  0  0  0
  -13.8671   14.4805  -38.4701 C   0  0  2  0  0  0  0  0  0  0  0  0
  -12.1913   16.0568  -39.4997 C   0  0  1  0  0  0  0  0  0  0  0  0
  -13.4619   15.2245  -39.7579 C   0  0  0  0  0  0  0  0  0  0  0  0
  -11.4303   14.3352  -37.8117 C   0  0  0  0  0  0  0  0  0  0  0  0
  -10.3527   13.4270  -37.4235 N   0  0  0  0  0  0  0  0  0  0  0  0
  -14.5322   16.0603  -40.1857 O   0  0  0  0  0  0  0  0  0  0  0  0
  -14.4002   14.9566  -36.4172 H   0  0  0  0  0  0  0  0  0  0  0  0
  -14.9368   16.1604  -37.5825 H   0  0  0  0  0  0  0  0  0  0  0  0
  -13.2293   17.7655  -38.6313 H   0  0  0  0  0  0  0  0  0  0  0  0
  -11.5328   17.6524  -38.1777 H   0  0  0  0  0  0  0  0  0  0  0  0
  -10.7811   15.9320  -36.4658 H   0  0  0  0  0  0  0  0  0  0  0  0
  -11.9516   14.8297  -35.7464 H   0  0  0  0  0  0  0  0  0  0  0  0
  -13.0123   12.9703  -37.1672 H   0  0  0  0  0  0  0  0  0  0  0  0
  -12.5664   12.7885  -38.8615 H   0  0  0  0  0  0  0  0  0  0  0  0
  -10.8459   14.4065  -39.9181 H   0  0  0  0  0  0  0  0  0  0  0  0
  -10.1288   15.6837  -38.9390 H   0  0  0  0  0  0  0  0  0  0  0  0
  -13.0072   17.0234  -36.2621 H   0  0  0  0  0  0  0  0  0  0  0  0
  -14.7898   13.9141  -38.6404 H   0  0  0  0  0  0  0  0  0  0  0  0
  -11.9174   16.6142  -40.4030 H   0  0  0  0  0  0  0  0  0  0  0  0
  -13.2802   14.4990  -40.5603 H   0  0  0  0  0  0  0  0  0  0  0  0
   -9.5373   13.9673  -37.2584 H   0  0  0  0  0  0  0  0  0  0  0  0
  -10.6322   12.9510  -36.5992 H   0  0  0  0  0  0  0  0  0  0  0  0
  -14.2315   16.5046  -40.9940 H   0  0  0  0  0  0  0  0  0  0  0  0
  1  6  1  0  0  0  0
  1  7  1  0  0  0  0
  2  6  1  0  0  0  0
  2  8  1  0  0  0  0
  3  6  1  0  0  0  0
  3 10  1  0  0  0  0
  4  7  1  0  0  0  0
  4 10  1  0  0  0  0
  5  8  1  0  0  0  0
  5 10  1  0  0  0  0
  7  9  1  0  0  0  0
  8  9  1  0  0  0  0
  9 12  1  0  0  0  0
 10 11  1  0  0  0  0
  1 13  1  0  0  0  0
  1 14  1  0  0  0  0
  2 15  1  0  0  0  0
  2 16  1  0  0  0  0
  3 17  1  0  0  0  0
  3 18  1  0  0  0  0
  4 19  1  0  0  0  0
  4 20  1  0  0  0  0
  5 21  1  0  0  0  0
  5 22  1  0  0  0  0
  6 23  1  0  0  0  0
  7 24  1  0  0  0  0
  8 25  1  0  0  0  0
  9 26  1  0  0  0  0
 11 27  1  0  0  0  0
 11 28  1  0  0  0  0
 12 29  1  0  0  0  0
M  END
> <id>
EN300-8232134

> <smiles>
Cl.NC1(CC2CC3C1)CC(C2)C3O

> <IUPAC Name>
5-aminoadamantan-2-ol hydrochloride

> <CAS>
180271-44-7

> <Purity>
95

> <URL>
https://www.enaminestore.com/catalog/EN300-8232134

> <Saltdate>
Cl

> <ROCS_ShapeQuery>
x1247relevant_x1083L0AP1_x1305L0BP1_

> <ROCS_TanimotoCombo>
0.848 

> <ROCS_ShapeTanimoto>
0.439 

> <ROCS_ColorTanimoto>
0.409 

> <ROCS_RefTversky>
0.374 

> <ROCS_RefColorTversky>
0.441 

> <ROCS_RefTverskyCombo>
0.815 

> <ROCS_FitTversky>
1.652 

> <ROCS_FitColorTversky>
0.850 

> <ROCS_FitTverskyCombo>
2.503 

> <ROCS_ColorScore>
-9.382

> <ROCS_Overlap>
1098.318

> <ROCS_Rank>
88                  

$$$$
untitled-dbase-36210_0
  -OEChem-06162310163D

 37 39  0     1  0  0  0  0  0999 V2000
  -13.6496   15.7087  -37.1705 C   0  0  0  0  0  0  0  0  0  0  0  0
  -13.3006   13.7810  -38.6634 C   0  0  0  0  0  0  0  0  0  0  0  0
  -13.3133   16.6692  -38.3196 C   0  0  0  0  0  0  0  0  0  0  0  0
  -13.0808   14.7853  -39.8051 C   0  0  0  0  0  0  0  0  0  0  0  0
   -9.0931   13.7728  -37.3182 C   0  0  0  0  0  0  0  0  0  0  0  0
  -11.1414   15.6869  -38.6999 C   0  0  0  0  0  0  0  0  0  0  0  0
   -9.6457   15.8117  -36.0028 C   0  0  0  0  0  0  0  0  0  0  0  0
  -12.8263   14.4130  -37.3416 C   0  0  0  0  0  0  0  0  0  0  0  0
   -8.8158   14.5197  -36.0006 C   0  0  0  0  0  0  0  0  0  0  0  0
  -11.3123   14.7911  -37.4323 C   0  0  1  0  0  0  0  0  0  0  0  0
   -7.3220   14.8633  -35.9039 C   0  0  0  0  0  0  0  0  0  0  0  0
   -9.2027   13.6449  -34.7912 C   0  0  0  0  0  0  0  0  0  0  0  0
  -10.5232   13.5488  -37.5195 N   0  0  0  0  0  0  0  0  0  0  0  0
  -12.4420   16.0309  -39.3274 N   0  0  0  0  0  0  0  0  0  0  0  0
  -11.0274   15.5365  -36.2294 O   0  0  0  0  0  0  0  0  0  0  0  0
  -13.4412   16.1848  -36.2063 H   0  0  0  0  0  0  0  0  0  0  0  0
  -14.7205   15.4720  -37.1812 H   0  0  0  0  0  0  0  0  0  0  0  0
  -14.3629   13.5190  -38.5979 H   0  0  0  0  0  0  0  0  0  0  0  0
  -12.7522   12.8541  -38.8630 H   0  0  0  0  0  0  0  0  0  0  0  0
  -14.2381   17.0178  -38.7959 H   0  0  0  0  0  0  0  0  0  0  0  0
  -12.8263   17.5711  -37.9277 H   0  0  0  0  0  0  0  0  0  0  0  0
  -12.4665   14.3288  -40.5919 H   0  0  0  0  0  0  0  0  0  0  0  0
  -14.0391   15.0233  -40.2848 H   0  0  0  0  0  0  0  0  0  0  0  0
   -8.7047   14.3450  -38.1704 H   0  0  0  0  0  0  0  0  0  0  0  0
   -8.5654   12.8108  -37.3403 H   0  0  0  0  0  0  0  0  0  0  0  0
  -10.6079   16.6139  -38.4525 H   0  0  0  0  0  0  0  0  0  0  0  0
  -10.5257   15.1975  -39.4669 H   0  0  0  0  0  0  0  0  0  0  0  0
   -9.5349   16.3654  -35.0623 H   0  0  0  0  0  0  0  0  0  0  0  0
   -9.3116   16.4857  -36.8011 H   0  0  0  0  0  0  0  0  0  0  0  0
  -13.0397   13.7402  -36.5017 H   0  0  0  0  0  0  0  0  0  0  0  0
   -7.1388   15.3882  -34.9735 H   0  0  0  0  0  0  0  0  0  0  0  0
   -7.0486   15.4935  -36.7422 H   0  0  0  0  0  0  0  0  0  0  0  0
   -6.7452   13.9460  -35.9290 H   0  0  0  0  0  0  0  0  0  0  0  0
   -8.9996   14.1891  -33.8741 H   0  0  0  0  0  0  0  0  0  0  0  0
   -8.6191   12.7296  -34.8082 H   0  0  0  0  0  0  0  0  0  0  0  0
  -10.2598   13.4039  -34.8452 H   0  0  0  0  0  0  0  0  0  0  0  0
  -10.6660   13.1260  -38.4368 H   0  0  0  0  0  0  0  0  0  0  0  0
  1  3  1  0  0  0  0
  1  8  1  0  0  0  0
  2  4  1  0  0  0  0
  2  8  1  0  0  0  0
  3 14  1  0  0  0  0
  4 14  1  0  0  0  0
  5  9  1  0  0  0  0
  5 13  1  0  0  0  0
  6 10  1  0  0  0  0
  6 14  1  0  0  0  0
  7  9  1  0  0  0  0
  7 15  1  0  0  0  0
  8 10  1  0  0  0  0
  9 11  1  0  0  0  0
  9 12  1  0  0  0  0
 10 13  1  0  0  0  0
 10 15  1  0  0  0  0
  1 16  1  0  0  0  0
  1 17  1  0  0  0  0
  2 18  1  0  0  0  0
  2 19  1  0  0  0  0
  3 20  1  0  0  0  0
  3 21  1  0  0  0  0
  4 22  1  0  0  0  0
  4 23  1  0  0  0  0
  5 24  1  0  0  0  0
  5 25  1  0  0  0  0
  6 26  1  0  0  0  0
  6 27  1  0  0  0  0
  7 28  1  0  0  0  0
  7 29  1  0  0  0  0
  8 30  1  0  0  0  0
 11 31  1  0  0  0  0
 11 32  1  0  0  0  0
 11 33  1  0  0  0  0
 12 34  1  0  0  0  0
 12 35  1  0  0  0  0
 12 36  1  0  0  0  0
 13 37  1  0  0  0  0
M  END
> <id>
EN300-1278558

> <smiles>
CC1(C)CNC2(CN3CCC2CC3)OC1

> <IUPAC Name>
5',5'-dimethyl-4-azaspiro[bicyclo[2.2.2]octane-2,2'-[1,3]oxazinane]

> <CAS>
2172459-75-3

> <URL>
https://www.enaminestore.com/catalog/EN300-1278558

> <ROCS_ShapeQuery>
x1247relevant_x1083L0AP1_x1305L0BP1_

> <ROCS_TanimotoCombo>
0.847 

> <ROCS_ShapeTanimoto>
0.496 

> <ROCS_ColorTanimoto>
0.351 

> <ROCS_RefTversky>
0.421 

> <ROCS_RefColorTversky>
0.412 

> <ROCS_RefTverskyCombo>
0.833 

> <ROCS_FitTversky>
1.567 

> <ROCS_FitColorTversky>
0.701 

> <ROCS_FitTverskyCombo>
2.269 

> <ROCS_ColorScore>
-8.803

> <ROCS_Overlap>
1238.782

> <ROCS_Rank>
89                  

$$$$
untitled-dbase-24218_0
  -OEChem-06162310163D

 37 40  0     1  0  0  0  0  0999 V2000
  -14.0378   15.7994  -37.3618 C   0  0  0  0  0  0  0  0  0  0  0  0
  -13.0646   16.9092  -37.8266 C   0  0  0  0  0  0  0  0  0  0  0  0
  -12.6244   13.6891  -37.7430 C   0  0  0  0  0  0  0  0  0  0  0  0
  -11.0062   15.5510  -38.5328 C   0  0  0  0  0  0  0  0  0  0  0  0
   -8.9777   13.9246  -36.8775 C   0  0  0  0  0  0  0  0  0  0  0  0
   -7.9638   14.9013  -34.7075 C   0  0  0  0  0  0  0  0  0  0  0  0
   -9.3995   13.4627  -34.3550 C   0  0  0  0  0  0  0  0  0  0  0  0
  -10.3043   15.5732  -35.5317 C   0  0  0  0  0  0  0  0  0  0  0  0
  -13.8034   14.5546  -38.2360 C   0  0  2  0  0  0  0  0  0  0  0  0
  -12.2322   16.3626  -39.0001 C   0  0  1  0  0  0  0  0  0  0  0  0
   -9.2280   14.4965  -35.4890 C   0  0  0  0  0  0  0  0  0  0  0  0
  -11.2965   14.4597  -37.4511 C   0  0  0  0  0  0  0  0  0  0  0  0
  -10.2354   13.4291  -37.4318 N   0  0  0  0  0  0  0  0  0  0  0  0
  -14.4966   16.0192  -40.3331 O   0  0  0  0  0  0  0  0  0  0  0  0
  -12.6685   14.2993  -40.6413 O   0  0  0  0  0  0  0  0  0  0  0  0
   -8.3670   14.1043  -33.5670 O   0  0  0  0  0  0  0  0  0  0  0  0
  -11.4833   15.0485  -36.1444 O   0  0  0  0  0  0  0  0  0  0  0  0
  -13.3743   15.2597  -39.8216 S   0  0  0  0  0  0  0  0  0  0  0  0
  -13.9438   15.5849  -36.2929 H   0  0  0  0  0  0  0  0  0  0  0  0
  -15.0644   16.1578  -37.5113 H   0  0  0  0  0  0  0  0  0  0  0  0
  -13.6586   17.7650  -38.1720 H   0  0  0  0  0  0  0  0  0  0  0  0
  -12.4400   17.2822  -37.0093 H   0  0  0  0  0  0  0  0  0  0  0  0
  -12.9458   13.1733  -36.8275 H   0  0  0  0  0  0  0  0  0  0  0  0
  -12.4468   12.9058  -38.4923 H   0  0  0  0  0  0  0  0  0  0  0  0
  -10.5580   15.0762  -39.4157 H   0  0  0  0  0  0  0  0  0  0  0  0
  -10.2602   16.2647  -38.1683 H   0  0  0  0  0  0  0  0  0  0  0  0
   -8.5360   14.6814  -37.5366 H   0  0  0  0  0  0  0  0  0  0  0  0
   -8.2629   13.0946  -36.8333 H   0  0  0  0  0  0  0  0  0  0  0  0
   -7.0102   14.5475  -35.1127 H   0  0  0  0  0  0  0  0  0  0  0  0
   -7.8758   15.9605  -34.4489 H   0  0  0  0  0  0  0  0  0  0  0  0
  -10.3639   13.4682  -33.8382 H   0  0  0  0  0  0  0  0  0  0  0  0
   -9.1227   12.4302  -34.5922 H   0  0  0  0  0  0  0  0  0  0  0  0
  -10.5793   15.9042  -34.5240 H   0  0  0  0  0  0  0  0  0  0  0  0
   -9.9657   16.4632  -36.0712 H   0  0  0  0  0  0  0  0  0  0  0  0
  -14.7099   13.9540  -38.3491 H   0  0  0  0  0  0  0  0  0  0  0  0
  -11.9373   17.1502  -39.6990 H   0  0  0  0  0  0  0  0  0  0  0  0
  -10.0773   13.0743  -38.3745 H   0  0  0  0  0  0  0  0  0  0  0  0
  1  2  1  0  0  0  0
  1  9  1  0  0  0  0
  2 10  1  0  0  0  0
  3  9  1  0  0  0  0
  3 12  1  0  0  0  0
  4 10  1  0  0  0  0
  4 12  1  0  0  0  0
  5 11  1  0  0  0  0
  5 13  1  0  0  0  0
  6 11  1  0  0  0  0
  6 16  1  0  0  0  0
  7 11  1  0  0  0  0
  7 16  1  0  0  0  0
  8 11  1  0  0  0  0
  8 17  1  0  0  0  0
  9 18  1  0  0  0  0
 10 18  1  0  0  0  0
 12 13  1  0  0  0  0
 12 17  1  0  0  0  0
 14 18  2  0  0  0  0
 15 18  2  0  0  0  0
  1 19  1  0  0  0  0
  1 20  1  0  0  0  0
  2 21  1  0  0  0  0
  2 22  1  0  0  0  0
  3 23  1  0  0  0  0
  3 24  1  0  0  0  0
  4 25  1  0  0  0  0
  4 26  1  0  0  0  0
  5 27  1  0  0  0  0
  5 28  1  0  0  0  0
  6 29  1  0  0  0  0
  6 30  1  0  0  0  0
  7 31  1  0  0  0  0
  7 32  1  0  0  0  0
  8 33  1  0  0  0  0
  8 34  1  0  0  0  0
  9 35  1  0  0  0  0
 10 36  1  0  0  0  0
 13 37  1  0  0  0  0
M  END
> <id>
EN300-1278796

> <smiles>
O=S1(=O)C2CCC1CC3(C2)NCC4(COC4)CO3

> <IUPAC Name>
8lambda6-dispiro[8lambda6-thiabicyclo[3.2.1]octane-3,2'-[1,3]oxazinane-5',3''-oxetane]-8,8-dione

> <CAS>
2171926-26-2

> <URL>
https://www.enaminestore.com/catalog/EN300-1278796

> <ROCS_ShapeQuery>
x1247relevant_x1083L0AP1_x1305L0BP1_

> <ROCS_TanimotoCombo>
0.847 

> <ROCS_ShapeTanimoto>
0.500 

> <ROCS_ColorTanimoto>
0.346 

> <ROCS_RefTversky>
0.436 

> <ROCS_RefColorTversky>
0.426 

> <ROCS_RefTverskyCombo>
0.863 

> <ROCS_FitTversky>
1.412 

> <ROCS_FitColorTversky>
0.649 

> <ROCS_FitTverskyCombo>
2.061 

> <ROCS_ColorScore>
-9.142

> <ROCS_Overlap>
1288.120

> <ROCS_Rank>
90                  

$$$$
untitled-dbase-17064_3
  -OEChem-06162310163D

 40 42  0     1  0  0  0  0  0999 V2000
  -12.0345   14.9039  -39.8089 C   0  0  0  0  0  0  0  0  0  0  0  0
  -12.3814   16.8258  -38.3028 C   0  0  0  0  0  0  0  0  0  0  0  0
   -8.7509   15.0895  -36.6585 C   0  0  0  0  0  0  0  0  0  0  0  0
  -13.4709   14.4764  -39.4672 C   0  0  0  0  0  0  0  0  0  0  0  0
  -13.7510   16.2719  -37.8850 C   0  0  0  0  0  0  0  0  0  0  0  0
  -12.8494   14.1504  -37.1676 C   0  0  0  0  0  0  0  0  0  0  0  0
  -11.4315   15.6462  -38.6028 C   0  0  0  0  0  0  0  0  0  0  0  0
   -9.0947   13.9089  -37.5800 C   0  0  1  0  0  0  0  0  0  0  0  0
  -11.4018   14.7003  -37.3588 C   0  0  2  0  0  0  0  0  0  0  0  0
   -9.8267   15.3727  -35.5961 C   0  0  0  0  0  0  0  0  0  0  0  0
   -8.2551   12.6733  -37.2574 C   0  0  0  0  0  0  0  0  0  0  0  0
   -9.5321   16.7204  -34.9230 C   0  0  0  0  0  0  0  0  0  0  0  0
   -9.8841   14.2929  -34.5064 C   0  0  0  0  0  0  0  0  0  0  0  0
  -10.5072   13.5483  -37.5064 N   0  0  0  0  0  0  0  0  0  0  0  0
  -13.8266   14.8081  -38.0695 N   0  0  0  0  0  0  0  0  0  0  0  0
  -11.1245   15.5005  -36.1888 O   0  0  0  0  0  0  0  0  0  0  0  0
  -11.4312   14.0342  -40.0851 H   0  0  0  0  0  0  0  0  0  0  0  0
  -12.0496   15.5642  -40.6841 H   0  0  0  0  0  0  0  0  0  0  0  0
  -12.4883   17.4533  -39.1964 H   0  0  0  0  0  0  0  0  0  0  0  0
  -11.9816   17.4698  -37.5132 H   0  0  0  0  0  0  0  0  0  0  0  0
   -7.7933   14.8616  -36.1533 H   0  0  0  0  0  0  0  0  0  0  0  0
   -8.5576   15.9953  -37.2602 H   0  0  0  0  0  0  0  0  0  0  0  0
  -14.1808   14.9572  -40.1532 H   0  0  0  0  0  0  0  0  0  0  0  0
  -13.5882   13.3978  -39.6350 H   0  0  0  0  0  0  0  0  0  0  0  0
  -13.9569   16.5233  -36.8367 H   0  0  0  0  0  0  0  0  0  0  0  0
  -14.5428   16.7609  -38.4662 H   0  0  0  0  0  0  0  0  0  0  0  0
  -12.9057   13.0687  -37.3501 H   0  0  0  0  0  0  0  0  0  0  0  0
  -13.1828   14.2815  -36.1302 H   0  0  0  0  0  0  0  0  0  0  0  0
  -10.4424   16.0249  -38.8643 H   0  0  0  0  0  0  0  0  0  0  0  0
   -8.8419   14.1773  -38.6423 H   0  0  0  0  0  0  0  0  0  0  0  0
   -8.4487   12.3525  -36.2353 H   0  0  0  0  0  0  0  0  0  0  0  0
   -7.1975   12.9083  -37.3635 H   0  0  0  0  0  0  0  0  0  0  0  0
   -8.5116   11.8648  -37.9399 H   0  0  0  0  0  0  0  0  0  0  0  0
  -10.2902   16.9239  -34.1717 H   0  0  0  0  0  0  0  0  0  0  0  0
   -9.5428   17.5089  -35.6705 H   0  0  0  0  0  0  0  0  0  0  0  0
   -8.5546   16.6834  -34.4499 H   0  0  0  0  0  0  0  0  0  0  0  0
  -10.6583   14.5474  -33.7897 H   0  0  0  0  0  0  0  0  0  0  0  0
   -8.9241   14.2400  -34.0030 H   0  0  0  0  0  0  0  0  0  0  0  0
  -10.1101   13.3344  -34.9627 H   0  0  0  0  0  0  0  0  0  0  0  0
  -10.7690   12.9800  -38.3118 H   0  0  0  0  0  0  0  0  0  0  0  0
  1  4  1  0  0  0  0
  1  7  1  0  0  0  0
  2  5  1  0  0  0  0
  2  7  1  0  0  0  0
  3  8  1  0  0  0  0
  3 10  1  0  0  0  0
  4 15  1  0  0  0  0
  5 15  1  0  0  0  0
  6  9  1  0  0  0  0
  6 15  1  0  0  0  0
  7  9  1  0  0  0  0
  8 11  1  0  0  0  0
  8 14  1  0  0  0  0
  9 14  1  0  0  0  0
  9 16  1  0  0  0  0
 10 12  1  0  0  0  0
 10 13  1  0  0  0  0
 10 16  1  0  0  0  0
  1 17  1  0  0  0  0
  1 18  1  0  0  0  0
  2 19  1  0  0  0  0
  2 20  1  0  0  0  0
  3 21  1  0  0  0  0
  3 22  1  0  0  0  0
  4 23  1  0  0  0  0
  4 24  1  0  0  0  0
  5 25  1  0  0  0  0
  5 26  1  0  0  0  0
  6 27  1  0  0  0  0
  6 28  1  0  0  0  0
  7 29  1  0  0  0  0
  8 30  1  0  0  0  0
 11 31  1  0  0  0  0
 11 32  1  0  0  0  0
 11 33  1  0  0  0  0
 12 34  1  0  0  0  0
 12 35  1  0  0  0  0
 12 36  1  0  0  0  0
 13 37  1  0  0  0  0
 13 38  1  0  0  0  0
 13 39  1  0  0  0  0
 14 40  1  0  0  0  0
M  END
> <id>
EN300-1279261

> <smiles>
CC1CC(C)(C)OC2(CN3CCC2CC3)N1

> <IUPAC Name>
4',6',6'-trimethyl-4-azaspiro[bicyclo[2.2.2]octane-2,2'-[1,3]oxazinane]

> <CAS>
2168218-45-7

> <URL>
https://www.enaminestore.com/catalog/EN300-1279261

> <ROCS_ShapeQuery>
x1247relevant_x1083L0AP1_x1305L0BP1_

> <ROCS_TanimotoCombo>
0.846 

> <ROCS_ShapeTanimoto>
0.498 

> <ROCS_ColorTanimoto>
0.349 

> <ROCS_RefTversky>
0.426 

> <ROCS_RefColorTversky>
0.410 

> <ROCS_RefTverskyCombo>
0.836 

> <ROCS_FitTversky>
1.510 

> <ROCS_FitColorTversky>
0.698 

> <ROCS_FitTverskyCombo>
2.209 

> <ROCS_ColorScore>
-8.766

> <ROCS_Overlap>
1255.129

> <ROCS_Rank>
91                  

$$$$
untitled-dbase-16625_0
  -OEChem-06162310163D

 31 33  0     1  0  0  0  0  0999 V2000
   -8.7935   14.6996  -36.1990 C   0  0  0  0  0  0  0  0  0  0  0  0
  -12.0583   14.8978  -39.8140 C   0  0  0  0  0  0  0  0  0  0  0  0
  -12.3712   16.8255  -38.3081 C   0  0  0  0  0  0  0  0  0  0  0  0
   -9.0907   13.8986  -37.4603 C   0  0  0  0  0  0  0  0  0  0  0  0
  -13.4942   14.4851  -39.4543 C   0  0  0  0  0  0  0  0  0  0  0  0
  -13.7369   16.2801  -37.8664 C   0  0  0  0  0  0  0  0  0  0  0  0
  -12.8389   14.1509  -37.1661 C   0  0  0  0  0  0  0  0  0  0  0  0
   -9.7325   15.8900  -36.0901 C   0  0  0  0  0  0  0  0  0  0  0  0
  -11.4322   15.6402  -38.6190 C   0  0  0  0  0  0  0  0  0  0  0  0
  -11.3924   14.7022  -37.3680 C   0  0  2  0  0  0  0  0  0  0  0  0
  -10.5029   13.5363  -37.5068 N   0  0  0  0  0  0  0  0  0  0  0  0
  -13.8257   14.8171  -38.0511 N   0  0  0  0  0  0  0  0  0  0  0  0
  -11.0903   15.4599  -36.1755 O   0  0  0  0  0  0  0  0  0  0  0  0
   -8.9332   14.0504  -35.3253 H   0  0  0  0  0  0  0  0  0  0  0  0
   -7.7511   15.0355  -36.1959 H   0  0  0  0  0  0  0  0  0  0  0  0
  -11.4646   14.0204  -40.0900 H   0  0  0  0  0  0  0  0  0  0  0  0
  -12.0749   15.5541  -40.6931 H   0  0  0  0  0  0  0  0  0  0  0  0
  -12.4889   17.4505  -39.2018 H   0  0  0  0  0  0  0  0  0  0  0  0
  -11.9506   17.4690  -37.5273 H   0  0  0  0  0  0  0  0  0  0  0  0
   -8.8061   14.4673  -38.3526 H   0  0  0  0  0  0  0  0  0  0  0  0
   -8.4871   12.9846  -37.4602 H   0  0  0  0  0  0  0  0  0  0  0  0
  -14.2070   14.9768  -40.1283 H   0  0  0  0  0  0  0  0  0  0  0  0
  -13.6262   13.4090  -39.6233 H   0  0  0  0  0  0  0  0  0  0  0  0
  -13.9224   16.5323  -36.8147 H   0  0  0  0  0  0  0  0  0  0  0  0
  -14.5351   16.7749  -38.4329 H   0  0  0  0  0  0  0  0  0  0  0  0
  -12.8938   13.0705  -37.3590 H   0  0  0  0  0  0  0  0  0  0  0  0
  -13.1584   14.2707  -36.1224 H   0  0  0  0  0  0  0  0  0  0  0  0
   -9.5996   16.3845  -35.1226 H   0  0  0  0  0  0  0  0  0  0  0  0
   -9.5262   16.6350  -36.8657 H   0  0  0  0  0  0  0  0  0  0  0  0
  -10.4425   16.0246  -38.8842 H   0  0  0  0  0  0  0  0  0  0  0  0
  -10.7022   13.0275  -38.3657 H   0  0  0  0  0  0  0  0  0  0  0  0
  1  4  1  0  0  0  0
  1  8  1  0  0  0  0
  2  5  1  0  0  0  0
  2  9  1  0  0  0  0
  3  6  1  0  0  0  0
  3  9  1  0  0  0  0
  4 11  1  0  0  0  0
  5 12  1  0  0  0  0
  6 12  1  0  0  0  0
  7 10  1  0  0  0  0
  7 12  1  0  0  0  0
  8 13  1  0  0  0  0
  9 10  1  0  0  0  0
 10 11  1  0  0  0  0
 10 13  1  0  0  0  0
  1 14  1  0  0  0  0
  1 15  1  0  0  0  0
  2 16  1  0  0  0  0
  2 17  1  0  0  0  0
  3 18  1  0  0  0  0
  3 19  1  0  0  0  0
  4 20  1  0  0  0  0
  4 21  1  0  0  0  0
  5 22  1  0  0  0  0
  5 23  1  0  0  0  0
  6 24  1  0  0  0  0
  6 25  1  0  0  0  0
  7 26  1  0  0  0  0
  7 27  1  0  0  0  0
  8 28  1  0  0  0  0
  8 29  1  0  0  0  0
  9 30  1  0  0  0  0
 11 31  1  0  0  0  0
M  END
> <id>
EN300-1278424

> <smiles>
C1CNC2(CN3CCC2CC3)OC1

> <IUPAC Name>
4-azaspiro[bicyclo[2.2.2]octane-2,2'-[1,3]oxazinane]

> <CAS>
2172127-64-7

> <URL>
https://www.enaminestore.com/catalog/EN300-1278424

> <ROCS_ShapeQuery>
x1247relevant_x1083L0AP1_x1305L0BP1_

> <ROCS_TanimotoCombo>
0.846 

> <ROCS_ShapeTanimoto>
0.482 

> <ROCS_ColorTanimoto>
0.363 

> <ROCS_RefTversky>
0.404 

> <ROCS_RefColorTversky>
0.412 

> <ROCS_RefTverskyCombo>
0.815 

> <ROCS_FitTversky>
1.675 

> <ROCS_FitColorTversky>
0.756 

> <ROCS_FitTverskyCombo>
2.430 

> <ROCS_ColorScore>
-8.770

> <ROCS_Overlap>
1187.690

> <ROCS_Rank>
92                  

$$$$
untitled-dbase-36214_2
  -OEChem-06162310163D

 38 41  0     1  0  0  0  0  0999 V2000
   -9.2249   15.1236  -33.4540 C   0  0  0  0  0  0  0  0  0  0  0  0
   -9.4995   16.2925  -34.4145 C   0  0  0  0  0  0  0  0  0  0  0  0
  -10.1013   14.2409  -34.3580 C   0  0  0  0  0  0  0  0  0  0  0  0
  -13.3196   13.7880  -38.6652 C   0  0  0  0  0  0  0  0  0  0  0  0
  -13.6481   15.7190  -37.1732 C   0  0  0  0  0  0  0  0  0  0  0  0
   -8.6946   14.9335  -36.4643 C   0  0  0  0  0  0  0  0  0  0  0  0
  -13.1127   14.8000  -39.8045 C   0  0  0  0  0  0  0  0  0  0  0  0
  -13.2869   16.6840  -38.3125 C   0  0  0  0  0  0  0  0  0  0  0  0
   -9.0778   13.7864  -37.4005 C   0  0  0  0  0  0  0  0  0  0  0  0
  -11.1405   15.6541  -38.7240 C   0  0  0  0  0  0  0  0  0  0  0  0
  -12.8369   14.4158  -37.3443 C   0  0  0  0  0  0  0  0  0  0  0  0
   -9.8486   15.2514  -35.5181 C   0  0  0  0  0  0  0  0  0  0  0  0
  -11.3251   14.7809  -37.4488 C   0  0  1  0  0  0  0  0  0  0  0  0
  -10.5164   13.5564  -37.5083 N   0  0  0  0  0  0  0  0  0  0  0  0
  -12.4402   16.0319  -39.3333 N   0  0  0  0  0  0  0  0  0  0  0  0
  -11.0184   15.5973  -36.2979 O   0  0  0  0  0  0  0  0  0  0  0  0
   -8.1731   14.8164  -33.4203 H   0  0  0  0  0  0  0  0  0  0  0  0
   -9.5852   15.2576  -32.4303 H   0  0  0  0  0  0  0  0  0  0  0  0
  -10.3481   16.9182  -34.1120 H   0  0  0  0  0  0  0  0  0  0  0  0
   -8.6423   16.9437  -34.6093 H   0  0  0  0  0  0  0  0  0  0  0  0
   -9.7304   13.2231  -34.5054 H   0  0  0  0  0  0  0  0  0  0  0  0
  -11.1422   14.1869  -34.0232 H   0  0  0  0  0  0  0  0  0  0  0  0
  -14.3799   13.5217  -38.5915 H   0  0  0  0  0  0  0  0  0  0  0  0
  -12.7697   12.8648  -38.8757 H   0  0  0  0  0  0  0  0  0  0  0  0
  -13.4455   16.1929  -36.2093 H   0  0  0  0  0  0  0  0  0  0  0  0
  -14.7203   15.4962  -37.1997 H   0  0  0  0  0  0  0  0  0  0  0  0
   -7.7840   14.6595  -35.9132 H   0  0  0  0  0  0  0  0  0  0  0  0
   -8.4395   15.8236  -37.0590 H   0  0  0  0  0  0  0  0  0  0  0  0
  -12.5270   14.3412  -40.6107 H   0  0  0  0  0  0  0  0  0  0  0  0
  -14.0793   15.0574  -40.2549 H   0  0  0  0  0  0  0  0  0  0  0  0
  -14.2015   17.0687  -38.7794 H   0  0  0  0  0  0  0  0  0  0  0  0
  -12.7689   17.5635  -37.9103 H   0  0  0  0  0  0  0  0  0  0  0  0
   -8.6774   13.9978  -38.4181 H   0  0  0  0  0  0  0  0  0  0  0  0
   -8.5637   12.8438  -37.0981 H   0  0  0  0  0  0  0  0  0  0  0  0
  -10.5738   16.5651  -38.4964 H   0  0  0  0  0  0  0  0  0  0  0  0
  -10.5568   15.1392  -39.4975 H   0  0  0  0  0  0  0  0  0  0  0  0
  -13.0423   13.7468  -36.5037 H   0  0  0  0  0  0  0  0  0  0  0  0
  -10.6935   13.0831  -38.3997 H   0  0  0  0  0  0  0  0  0  0  0  0
  1  2  1  0  0  0  0
  1  3  1  0  0  0  0
  2 12  1  0  0  0  0
  3 12  1  0  0  0  0
  4  7  1  0  0  0  0
  4 11  1  0  0  0  0
  5  8  1  0  0  0  0
  5 11  1  0  0  0  0
  6  9  1  0  0  0  0
  6 12  1  0  0  0  0
  7 15  1  0  0  0  0
  8 15  1  0  0  0  0
  9 14  1  0  0  0  0
 10 13  1  0  0  0  0
 10 15  1  0  0  0  0
 11 13  1  0  0  0  0
 12 16  1  0  0  0  0
 13 14  1  0  0  0  0
 13 16  1  0  0  0  0
  1 17  1  0  0  0  0
  1 18  1  0  0  0  0
  2 19  1  0  0  0  0
  2 20  1  0  0  0  0
  3 21  1  0  0  0  0
  3 22  1  0  0  0  0
  4 23  1  0  0  0  0
  4 24  1  0  0  0  0
  5 25  1  0  0  0  0
  5 26  1  0  0  0  0
  6 27  1  0  0  0  0
  6 28  1  0  0  0  0
  7 29  1  0  0  0  0
  7 30  1  0  0  0  0
  8 31  1  0  0  0  0
  8 32  1  0  0  0  0
  9 33  1  0  0  0  0
  9 34  1  0  0  0  0
 10 35  1  0  0  0  0
 10 36  1  0  0  0  0
 11 37  1  0  0  0  0
 14 38  1  0  0  0  0
M  END
> <id>
EN300-1279986

> <smiles>
C1CC2(C1)CCNC3(CN4CCC3CC4)O2

> <IUPAC Name>
dispiro[4-azabicyclo[2.2.2]octane-2,2'-[1,3]oxazinane-6',1''-cyclobutane]

> <URL>
https://www.enaminestore.com/catalog/EN300-1279986

> <ROCS_ShapeQuery>
x1247relevant_x1083L0AP1_x1305L0BP1_

> <ROCS_TanimotoCombo>
0.844 

> <ROCS_ShapeTanimoto>
0.494 

> <ROCS_ColorTanimoto>
0.351 

> <ROCS_RefTversky>
0.425 

> <ROCS_RefColorTversky>
0.412 

> <ROCS_RefTverskyCombo>
0.837 

> <ROCS_FitTversky>
1.484 

> <ROCS_FitColorTversky>
0.701 

> <ROCS_FitTverskyCombo>
2.185 

> <ROCS_ColorScore>
-8.805

> <ROCS_Overlap>
1253.294

> <ROCS_Rank>
93                  

$$$$
untitled-dbase-13514_3
  -OEChem-06162310163D

 33 35  0     1  0  0  0  0  0999 V2000
  -10.8450   14.3642  -36.3907 C   0  0  0  0  0  0  0  0  0  0  0  0
   -9.4525   13.8672  -36.1273 C   0  0  0  0  0  0  0  0  0  0  0  0
  -13.7340   13.9588  -38.1162 C   0  0  0  0  0  0  0  0  0  0  0  0
  -14.0575   15.2389  -37.3185 C   0  0  0  0  0  0  0  0  0  0  0  0
  -11.3249   14.3300  -38.8769 C   0  0  0  0  0  0  0  0  0  0  0  0
  -11.8192   16.4921  -37.4626 C   0  0  0  0  0  0  0  0  0  0  0  0
   -8.7239   14.3527  -37.3640 C   0  0  0  0  0  0  0  0  0  0  0  0
  -12.8077   14.3372  -39.2830 C   0  0  2  0  0  0  0  0  0  0  0  0
  -13.2801   16.4029  -37.9445 C   0  0  1  0  0  0  0  0  0  0  0  0
  -10.9178   15.2339  -37.6631 C   0  0  0  0  0  0  0  0  0  0  0  0
   -8.9828   16.7292  -37.0900 C   0  0  0  0  0  0  0  0  0  0  0  0
   -9.4540   15.5502  -37.8260 N   0  0  1  0  0  0  0  0  0  0  0  0
  -11.7795   14.0982  -35.6470 O   0  0  0  0  0  0  0  0  0  0  0  0
  -12.2349   16.6976  -40.3832 O   0  0  0  0  0  0  0  0  0  0  0  0
  -14.6590   16.0043  -40.1706 O   0  0  0  0  0  0  0  0  0  0  0  0
  -13.2948   16.0040  -39.6845 S   0  0  0  0  0  0  0  0  0  0  0  0
   -9.0442   14.3049  -35.2138 H   0  0  0  0  0  0  0  0  0  0  0  0
   -9.4708   12.7748  -36.0680 H   0  0  0  0  0  0  0  0  0  0  0  0
  -13.3188   13.1635  -37.4926 H   0  0  0  0  0  0  0  0  0  0  0  0
  -14.6741   13.5614  -38.5207 H   0  0  0  0  0  0  0  0  0  0  0  0
  -15.1336   15.4339  -37.4070 H   0  0  0  0  0  0  0  0  0  0  0  0
  -13.8577   15.1303  -36.2497 H   0  0  0  0  0  0  0  0  0  0  0  0
  -11.0196   13.2935  -38.6826 H   0  0  0  0  0  0  0  0  0  0  0  0
  -10.7568   14.6362  -39.7642 H   0  0  0  0  0  0  0  0  0  0  0  0
  -11.3877   17.3587  -37.9839 H   0  0  0  0  0  0  0  0  0  0  0  0
  -11.8259   16.7847  -36.3985 H   0  0  0  0  0  0  0  0  0  0  0  0
   -7.6725   14.5988  -37.1211 H   0  0  0  0  0  0  0  0  0  0  0  0
   -8.7010   13.5667  -38.1395 H   0  0  0  0  0  0  0  0  0  0  0  0
  -12.9722   13.6964  -40.1519 H   0  0  0  0  0  0  0  0  0  0  0  0
  -13.7949   17.3573  -37.7992 H   0  0  0  0  0  0  0  0  0  0  0  0
   -9.5279   17.6199  -37.4356 H   0  0  0  0  0  0  0  0  0  0  0  0
   -9.1610   16.5850  -36.0141 H   0  0  0  0  0  0  0  0  0  0  0  0
   -7.9060   16.8663  -37.2681 H   0  0  0  0  0  0  0  0  0  0  0  0
  1  2  1  0  0  0  0
  1 10  1  0  0  0  0
  1 13  2  0  0  0  0
  2  7  1  0  0  0  0
  3  4  1  0  0  0  0
  3  8  1  0  0  0  0
  4  9  1  0  0  0  0
  5  8  1  0  0  0  0
  5 10  1  0  0  0  0
  6  9  1  0  0  0  0
  6 10  1  0  0  0  0
  7 12  1  0  0  0  0
  8 16  1  0  0  0  0
  9 16  1  0  0  0  0
 10 12  1  0  0  0  0
 11 12  1  0  0  0  0
 14 16  2  0  0  0  0
 15 16  2  0  0  0  0
  2 17  1  0  0  0  0
  2 18  1  0  0  0  0
  3 19  1  0  0  0  0
  3 20  1  0  0  0  0
  4 21  1  0  0  0  0
  4 22  1  0  0  0  0
  5 23  1  0  0  0  0
  5 24  1  0  0  0  0
  6 25  1  0  0  0  0
  6 26  1  0  0  0  0
  7 27  1  0  0  0  0
  7 28  1  0  0  0  0
  8 29  1  0  0  0  0
  9 30  1  0  0  0  0
 11 31  1  0  0  0  0
 11 32  1  0  0  0  0
 11 33  1  0  0  0  0
M  END
> <id>
EN300-785441

> <smiles>
CN1CCC(=O)C21CC3CCC(C2)S3(=O)=O

> <IUPAC Name>
1'-methyl-8lambda6-thiaspiro[bicyclo[3.2.1]octane-3,2'-pyrrolidine]-3',8,8-trione

> <CAS>
2138280-60-9

> <URL>
https://www.enaminestore.com/catalog/EN300-785441

> <ROCS_ShapeQuery>
x1247relevant_x1083L0AP1_x1305L0BP1_

> <ROCS_TanimotoCombo>
0.844 

> <ROCS_ShapeTanimoto>
0.508 

> <ROCS_ColorTanimoto>
0.335 

> <ROCS_RefTversky>
0.430 

> <ROCS_RefColorTversky>
0.383 

> <ROCS_RefTverskyCombo>
0.814 

> <ROCS_FitTversky>
1.552 

> <ROCS_FitColorTversky>
0.728 

> <ROCS_FitTverskyCombo>
2.280 

> <ROCS_ColorScore>
-8.164

> <ROCS_Overlap>
1268.017

> <ROCS_Rank>
94                  

$$$$
untitled-dbase-16161_0
  -OEChem-06162310163D

 35 38  0     1  0  0  0  0  0999 V2000
   -8.3072   14.0034  -35.0087 C   0  0  0  0  0  0  0  0  0  0  0  0
   -7.3800   14.8814  -35.7991 C   0  0  0  0  0  0  0  0  0  0  0  0
  -12.0284   14.8841  -39.7976 C   0  0  0  0  0  0  0  0  0  0  0  0
  -12.3718   16.8240  -38.3033 C   0  0  0  0  0  0  0  0  0  0  0  0
  -13.4777   14.4923  -39.4676 C   0  0  0  0  0  0  0  0  0  0  0  0
  -13.7403   16.2780  -37.8735 C   0  0  0  0  0  0  0  0  0  0  0  0
   -9.0925   13.9148  -37.4814 C   0  0  0  0  0  0  0  0  0  0  0  0
  -12.8514   14.1469  -37.1728 C   0  0  0  0  0  0  0  0  0  0  0  0
   -9.7483   15.8847  -36.0605 C   0  0  0  0  0  0  0  0  0  0  0  0
  -11.4263   15.6417  -38.6001 C   0  0  0  0  0  0  0  0  0  0  0  0
   -8.8152   14.7196  -36.2397 C   0  0  0  0  0  0  0  0  0  0  0  0
  -11.4012   14.6996  -37.3549 C   0  0  2  0  0  0  0  0  0  0  0  0
  -10.5053   13.5353  -37.5118 N   0  0  0  0  0  0  0  0  0  0  0  0
  -13.8276   14.8165  -38.0669 N   0  0  0  0  0  0  0  0  0  0  0  0
  -11.1044   15.4408  -36.1514 O   0  0  0  0  0  0  0  0  0  0  0  0
   -8.1490   12.9326  -35.0586 H   0  0  0  0  0  0  0  0  0  0  0  0
   -8.6249   14.3555  -34.0345 H   0  0  0  0  0  0  0  0  0  0  0  0
   -7.0777   15.8222  -35.3545 H   0  0  0  0  0  0  0  0  0  0  0  0
   -6.6025   14.3981  -36.3789 H   0  0  0  0  0  0  0  0  0  0  0  0
  -11.4374   14.0002  -40.0566 H   0  0  0  0  0  0  0  0  0  0  0  0
  -12.0212   15.5307  -40.6840 H   0  0  0  0  0  0  0  0  0  0  0  0
  -12.4818   17.4450  -39.2012 H   0  0  0  0  0  0  0  0  0  0  0  0
  -11.9610   17.4706  -37.5199 H   0  0  0  0  0  0  0  0  0  0  0  0
  -14.1707   15.0010  -40.1493 H   0  0  0  0  0  0  0  0  0  0  0  0
  -13.6230   13.4198  -39.6481 H   0  0  0  0  0  0  0  0  0  0  0  0
  -13.9327   16.5245  -36.8218 H   0  0  0  0  0  0  0  0  0  0  0  0
  -14.5347   16.7766  -38.4426 H   0  0  0  0  0  0  0  0  0  0  0  0
   -8.8208   14.4893  -38.3741 H   0  0  0  0  0  0  0  0  0  0  0  0
   -8.4868   13.0014  -37.5010 H   0  0  0  0  0  0  0  0  0  0  0  0
  -12.9022   13.0672  -37.3702 H   0  0  0  0  0  0  0  0  0  0  0  0
  -13.1825   14.2629  -36.1322 H   0  0  0  0  0  0  0  0  0  0  0  0
   -9.6250   16.3550  -35.0791 H   0  0  0  0  0  0  0  0  0  0  0  0
   -9.5578   16.6581  -36.8123 H   0  0  0  0  0  0  0  0  0  0  0  0
  -10.4353   16.0309  -38.8531 H   0  0  0  0  0  0  0  0  0  0  0  0
  -10.7100   13.0267  -38.3690 H   0  0  0  0  0  0  0  0  0  0  0  0
  1  2  1  0  0  0  0
  1 11  1  0  0  0  0
  2 11  1  0  0  0  0
  3  5  1  0  0  0  0
  3 10  1  0  0  0  0
  4  6  1  0  0  0  0
  4 10  1  0  0  0  0
  5 14  1  0  0  0  0
  6 14  1  0  0  0  0
  7 11  1  0  0  0  0
  7 13  1  0  0  0  0
  8 12  1  0  0  0  0
  8 14  1  0  0  0  0
  9 11  1  0  0  0  0
  9 15  1  0  0  0  0
 10 12  1  0  0  0  0
 12 13  1  0  0  0  0
 12 15  1  0  0  0  0
  1 16  1  0  0  0  0
  1 17  1  0  0  0  0
  2 18  1  0  0  0  0
  2 19  1  0  0  0  0
  3 20  1  0  0  0  0
  3 21  1  0  0  0  0
  4 22  1  0  0  0  0
  4 23  1  0  0  0  0
  5 24  1  0  0  0  0
  5 25  1  0  0  0  0
  6 26  1  0  0  0  0
  6 27  1  0  0  0  0
  7 28  1  0  0  0  0
  7 29  1  0  0  0  0
  8 30  1  0  0  0  0
  8 31  1  0  0  0  0
  9 32  1  0  0  0  0
  9 33  1  0  0  0  0
 10 34  1  0  0  0  0
 13 35  1  0  0  0  0
M  END
> <id>
EN300-1278811

> <smiles>
C1CC12CNC3(CN4CCC3CC4)OC2

> <IUPAC Name>
dispiro[4-azabicyclo[2.2.2]octane-2,2'-[1,3]oxazinane-5',1''-cyclopropane]

> <URL>
https://www.enaminestore.com/catalog/EN300-1278811

> <ROCS_ShapeQuery>
x1247relevant_x1083L0AP1_x1305L0BP1_

> <ROCS_TanimotoCombo>
0.843 

> <ROCS_ShapeTanimoto>
0.480 

> <ROCS_ColorTanimoto>
0.363 

> <ROCS_RefTversky>
0.413 

> <ROCS_RefColorTversky>
0.412 

> <ROCS_RefTverskyCombo>
0.825 

> <ROCS_FitTversky>
1.514 

> <ROCS_FitColorTversky>
0.756 

> <ROCS_FitTverskyCombo>
2.270 

> <ROCS_ColorScore>
-8.776

> <ROCS_Overlap>
1215.592

> <ROCS_Rank>
95                  

$$$$
untitled-dbase-34893_33
  -OEChem-06162310163D

 42 44  0     1  0  0  0  0  0999 V2000
  -11.7112   15.7044  -40.5323 C   0  0  0  0  0  0  0  0  0  0  0  0
   -9.4245   15.3112  -36.1303 C   0  0  0  0  0  0  0  0  0  0  0  0
  -10.2957   16.2408  -36.9706 C   0  0  0  0  0  0  0  0  0  0  0  0
  -14.0245   16.0013  -37.9842 C   0  0  0  0  0  0  0  0  0  0  0  0
  -14.0746   14.4939  -38.3432 C   0  0  0  0  0  0  0  0  0  0  0  0
   -9.5449   13.8392  -36.5437 C   0  0  0  0  0  0  0  0  0  0  0  0
  -11.7255   15.6998  -37.0517 C   0  0  1  0  0  0  0  0  0  0  0  0
  -12.5404   16.3517  -38.1935 C   0  0  1  0  0  0  0  0  0  0  0  0
  -12.6138   14.1823  -38.7202 C   0  0  2  0  0  0  0  0  0  0  0  0
  -11.7662   14.1766  -37.4244 C   0  0  1  0  0  0  0  0  0  0  0  0
   -8.9273   15.8875  -41.1456 C   0  0  0  0  0  0  0  0  0  0  0  0
   -9.2191   13.6632  -42.2755 C   0  0  0  0  0  0  0  0  0  0  0  0
  -10.4782   15.6674  -43.1156 C   0  0  0  0  0  0  0  0  0  0  0  0
   -9.9027   14.9712  -41.8832 C   0  0  0  0  0  0  0  0  0  0  0  0
  -10.4346   13.6287  -37.6825 N   0  0  0  0  0  0  0  0  0  0  0  0
  -12.2276   15.4554  -39.2885 N   0  0  0  0  0  0  0  0  0  0  0  0
  -11.8843   16.7485  -41.1558 O   0  0  0  0  0  0  0  0  0  0  0  0
  -10.9803   14.6463  -40.9983 O   0  0  0  0  0  0  0  0  0  0  0  0
   -8.3796   15.6345  -36.2048 H   0  0  0  0  0  0  0  0  0  0  0  0
   -9.7103   15.4086  -35.0756 H   0  0  0  0  0  0  0  0  0  0  0  0
  -10.3004   17.2465  -36.5344 H   0  0  0  0  0  0  0  0  0  0  0  0
   -9.8577   16.3423  -37.9716 H   0  0  0  0  0  0  0  0  0  0  0  0
  -14.6617   16.5686  -38.6723 H   0  0  0  0  0  0  0  0  0  0  0  0
  -14.3671   16.1878  -36.9617 H   0  0  0  0  0  0  0  0  0  0  0  0
  -14.4373   13.8879  -37.5072 H   0  0  0  0  0  0  0  0  0  0  0  0
  -14.7415   14.3384  -39.1990 H   0  0  0  0  0  0  0  0  0  0  0  0
   -8.5520   13.4504  -36.7971 H   0  0  0  0  0  0  0  0  0  0  0  0
   -9.8895   13.2419  -35.6906 H   0  0  0  0  0  0  0  0  0  0  0  0
  -12.2111   15.8517  -36.0793 H   0  0  0  0  0  0  0  0  0  0  0  0
  -12.3395   17.4091  -38.3754 H   0  0  0  0  0  0  0  0  0  0  0  0
  -12.4871   13.3211  -39.3805 H   0  0  0  0  0  0  0  0  0  0  0  0
  -12.2596   13.5944  -36.6369 H   0  0  0  0  0  0  0  0  0  0  0  0
   -9.4142   16.8275  -40.8623 H   0  0  0  0  0  0  0  0  0  0  0  0
   -8.5340   15.4130  -40.2406 H   0  0  0  0  0  0  0  0  0  0  0  0
   -8.0827   16.1586  -41.7893 H   0  0  0  0  0  0  0  0  0  0  0  0
   -9.9153   13.0027  -42.8050 H   0  0  0  0  0  0  0  0  0  0  0  0
   -8.8881   13.1139  -41.3867 H   0  0  0  0  0  0  0  0  0  0  0  0
   -8.3504   13.8383  -42.9184 H   0  0  0  0  0  0  0  0  0  0  0  0
  -11.1779   15.0104  -43.6449 H   0  0  0  0  0  0  0  0  0  0  0  0
  -11.0046   16.5896  -42.8489 H   0  0  0  0  0  0  0  0  0  0  0  0
   -9.6846   15.9137  -43.8302 H   0  0  0  0  0  0  0  0  0  0  0  0
  -10.0344   14.0725  -38.5090 H   0  0  0  0  0  0  0  0  0  0  0  0
  1 16  1  0  0  0  0
  1 17  2  0  0  0  0
  1 18  1  0  0  0  0
  2  3  1  0  0  0  0
  2  6  1  0  0  0  0
  3  7  1  0  0  0  0
  4  5  1  0  0  0  0
  4  8  1  0  0  0  0
  5  9  1  0  0  0  0
  6 15  1  0  0  0  0
  7  8  1  0  0  0  0
  7 10  1  0  0  0  0
  8 16  1  0  0  0  0
  9 10  1  0  0  0  0
  9 16  1  0  0  0  0
 10 15  1  0  0  0  0
 11 14  1  0  0  0  0
 12 14  1  0  0  0  0
 13 14  1  0  0  0  0
 14 18  1  0  0  0  0
  2 19  1  0  0  0  0
  2 20  1  0  0  0  0
  3 21  1  0  0  0  0
  3 22  1  0  0  0  0
  4 23  1  0  0  0  0
  4 24  1  0  0  0  0
  5 25  1  0  0  0  0
  5 26  1  0  0  0  0
  6 27  1  0  0  0  0
  6 28  1  0  0  0  0
  7 29  1  0  0  0  0
  8 30  1  0  0  0  0
  9 31  1  0  0  0  0
 10 32  1  0  0  0  0
 11 33  1  0  0  0  0
 11 34  1  0  0  0  0
 11 35  1  0  0  0  0
 12 36  1  0  0  0  0
 12 37  1  0  0  0  0
 12 38  1  0  0  0  0
 13 39  1  0  0  0  0
 13 40  1  0  0  0  0
 13 41  1  0  0  0  0
 15 42  1  0  0  0  0
M  END
> <id>
EN300-115019

> <smiles>
CC(C)(C)OC(=O)N1C2CCC1C3NCCCC23

> <MDLNUMBER>
MFCD32668389

> <IUPAC Name>
tert-butyl 3,11-diazatricyclo[6.2.1.0,2,7]undecane-11-carboxylate

> <CAS>
1934881-39-6

> <URL>
https://www.enaminestore.com/catalog/EN300-115019

> <ROCS_ShapeQuery>
x1247relevant_x1083L0AP1_x1305L0BP1_

> <ROCS_TanimotoCombo>
0.843 

> <ROCS_ShapeTanimoto>
0.463 

> <ROCS_ColorTanimoto>
0.380 

> <ROCS_RefTversky>
0.416 

> <ROCS_RefColorTversky>
0.429 

> <ROCS_RefTverskyCombo>
0.845 

> <ROCS_FitTversky>
1.327 

> <ROCS_FitColorTversky>
0.768 

> <ROCS_FitTverskyCombo>
2.095 

> <ROCS_ColorScore>
-9.157

> <ROCS_Overlap>
1227.634

> <ROCS_Rank>
96                  

$$$$
untitled-dbase-34918_33
  -OEChem-06162310163D

 42 44  0     1  0  0  0  0  0999 V2000
  -11.7112   15.7044  -40.5323 C   0  0  0  0  0  0  0  0  0  0  0  0
   -9.4245   15.3112  -36.1303 C   0  0  0  0  0  0  0  0  0  0  0  0
  -10.2957   16.2408  -36.9706 C   0  0  0  0  0  0  0  0  0  0  0  0
  -14.0245   16.0013  -37.9842 C   0  0  0  0  0  0  0  0  0  0  0  0
  -14.0746   14.4939  -38.3432 C   0  0  0  0  0  0  0  0  0  0  0  0
   -9.5449   13.8392  -36.5437 C   0  0  0  0  0  0  0  0  0  0  0  0
  -11.7255   15.6998  -37.0517 C   0  0  1  0  0  0  0  0  0  0  0  0
  -12.5404   16.3517  -38.1935 C   0  0  1  0  0  0  0  0  0  0  0  0
  -12.6138   14.1823  -38.7202 C   0  0  2  0  0  0  0  0  0  0  0  0
  -11.7662   14.1766  -37.4244 C   0  0  1  0  0  0  0  0  0  0  0  0
   -8.9273   15.8875  -41.1456 C   0  0  0  0  0  0  0  0  0  0  0  0
   -9.2191   13.6632  -42.2755 C   0  0  0  0  0  0  0  0  0  0  0  0
  -10.4782   15.6674  -43.1156 C   0  0  0  0  0  0  0  0  0  0  0  0
   -9.9027   14.9712  -41.8832 C   0  0  0  0  0  0  0  0  0  0  0  0
  -10.4346   13.6287  -37.6825 N   0  0  0  0  0  0  0  0  0  0  0  0
  -12.2276   15.4554  -39.2885 N   0  0  0  0  0  0  0  0  0  0  0  0
  -11.8843   16.7485  -41.1558 O   0  0  0  0  0  0  0  0  0  0  0  0
  -10.9803   14.6463  -40.9983 O   0  0  0  0  0  0  0  0  0  0  0  0
   -8.3796   15.6345  -36.2048 H   0  0  0  0  0  0  0  0  0  0  0  0
   -9.7103   15.4086  -35.0756 H   0  0  0  0  0  0  0  0  0  0  0  0
  -10.3004   17.2465  -36.5344 H   0  0  0  0  0  0  0  0  0  0  0  0
   -9.8577   16.3423  -37.9716 H   0  0  0  0  0  0  0  0  0  0  0  0
  -14.6617   16.5686  -38.6723 H   0  0  0  0  0  0  0  0  0  0  0  0
  -14.3671   16.1878  -36.9617 H   0  0  0  0  0  0  0  0  0  0  0  0
  -14.4373   13.8879  -37.5072 H   0  0  0  0  0  0  0  0  0  0  0  0
  -14.7415   14.3384  -39.1990 H   0  0  0  0  0  0  0  0  0  0  0  0
   -8.5520   13.4504  -36.7971 H   0  0  0  0  0  0  0  0  0  0  0  0
   -9.8895   13.2419  -35.6906 H   0  0  0  0  0  0  0  0  0  0  0  0
  -12.2111   15.8517  -36.0793 H   0  0  0  0  0  0  0  0  0  0  0  0
  -12.3395   17.4091  -38.3754 H   0  0  0  0  0  0  0  0  0  0  0  0
  -12.4871   13.3211  -39.3805 H   0  0  0  0  0  0  0  0  0  0  0  0
  -12.2596   13.5944  -36.6369 H   0  0  0  0  0  0  0  0  0  0  0  0
   -9.4142   16.8275  -40.8623 H   0  0  0  0  0  0  0  0  0  0  0  0
   -8.5340   15.4130  -40.2406 H   0  0  0  0  0  0  0  0  0  0  0  0
   -8.0827   16.1586  -41.7893 H   0  0  0  0  0  0  0  0  0  0  0  0
   -9.9153   13.0027  -42.8050 H   0  0  0  0  0  0  0  0  0  0  0  0
   -8.8881   13.1139  -41.3867 H   0  0  0  0  0  0  0  0  0  0  0  0
   -8.3504   13.8383  -42.9184 H   0  0  0  0  0  0  0  0  0  0  0  0
  -11.1779   15.0104  -43.6449 H   0  0  0  0  0  0  0  0  0  0  0  0
  -11.0046   16.5896  -42.8489 H   0  0  0  0  0  0  0  0  0  0  0  0
   -9.6846   15.9137  -43.8302 H   0  0  0  0  0  0  0  0  0  0  0  0
  -10.0344   14.0725  -38.5090 H   0  0  0  0  0  0  0  0  0  0  0  0
  1 16  1  0  0  0  0
  1 17  2  0  0  0  0
  1 18  1  0  0  0  0
  2  3  1  0  0  0  0
  2  6  1  0  0  0  0
  3  7  1  0  0  0  0
  4  5  1  0  0  0  0
  4  8  1  0  0  0  0
  5  9  1  0  0  0  0
  6 15  1  0  0  0  0
  7  8  1  0  0  0  0
  7 10  1  0  0  0  0
  8 16  1  0  0  0  0
  9 10  1  0  0  0  0
  9 16  1  0  0  0  0
 10 15  1  0  0  0  0
 11 14  1  0  0  0  0
 12 14  1  0  0  0  0
 13 14  1  0  0  0  0
 14 18  1  0  0  0  0
  2 19  1  0  0  0  0
  2 20  1  0  0  0  0
  3 21  1  0  0  0  0
  3 22  1  0  0  0  0
  4 23  1  0  0  0  0
  4 24  1  0  0  0  0
  5 25  1  0  0  0  0
  5 26  1  0  0  0  0
  6 27  1  0  0  0  0
  6 28  1  0  0  0  0
  7 29  1  0  0  0  0
  8 30  1  0  0  0  0
  9 31  1  0  0  0  0
 10 32  1  0  0  0  0
 11 33  1  0  0  0  0
 11 34  1  0  0  0  0
 11 35  1  0  0  0  0
 12 36  1  0  0  0  0
 12 37  1  0  0  0  0
 12 38  1  0  0  0  0
 13 39  1  0  0  0  0
 13 40  1  0  0  0  0
 13 41  1  0  0  0  0
 15 42  1  0  0  0  0
M  END
> <id>
EN300-26573204

> <smiles>
Cl.CC(C)(C)OC(=O)N1C2CCC1C3NCCCC23

> <MDLNUMBER>
MFCD32667229

> <IUPAC Name>
tert-butyl 3,11-diazatricyclo[6.2.1.0,2,7]undecane-11-carboxylate hydrochloride

> <CAS>
2416243-29-1

> <Purity>
95

> <URL>
https://www.enaminestore.com/catalog/EN300-26573204

> <Saltdate>
Cl

> <ROCS_ShapeQuery>
x1247relevant_x1083L0AP1_x1305L0BP1_

> <ROCS_TanimotoCombo>
0.843 

> <ROCS_ShapeTanimoto>
0.463 

> <ROCS_ColorTanimoto>
0.380 

> <ROCS_RefTversky>
0.416 

> <ROCS_RefColorTversky>
0.429 

> <ROCS_RefTverskyCombo>
0.845 

> <ROCS_FitTversky>
1.327 

> <ROCS_FitColorTversky>
0.768 

> <ROCS_FitTverskyCombo>
2.095 

> <ROCS_ColorScore>
-9.157

> <ROCS_Overlap>
1227.634

> <ROCS_Rank>
97                  

$$$$
untitled-dbase-16698_0
  -OEChem-06162310163D

 31 33  0     1  0  0  0  0  0999 V2000
  -13.9565   16.1533  -37.4974 C   0  0  0  0  0  0  0  0  0  0  0  0
  -12.9953   17.0084  -38.3249 C   0  0  0  0  0  0  0  0  0  0  0  0
  -12.7397   13.8762  -37.5267 C   0  0  0  0  0  0  0  0  0  0  0  0
  -11.1583   15.2939  -38.9078 C   0  0  0  0  0  0  0  0  0  0  0  0
   -8.9883   13.9395  -37.2395 C   0  0  0  0  0  0  0  0  0  0  0  0
   -9.9992   15.9729  -36.1453 C   0  0  0  0  0  0  0  0  0  0  0  0
  -13.8576   14.7604  -38.1159 C   0  0  2  0  0  0  0  0  0  0  0  0
  -12.4252   16.0453  -39.3640 C   0  0  1  0  0  0  0  0  0  0  0  0
  -11.3282   14.5280  -37.5654 C   0  0  0  0  0  0  0  0  0  0  0  0
   -8.9396   14.8950  -36.0642 C   0  0  0  0  0  0  0  0  0  0  0  0
  -10.3443   13.4340  -37.4364 N   0  0  0  0  0  0  0  0  0  0  0  0
  -13.5035   15.0547  -39.5138 N   0  0  0  0  0  0  0  0  0  0  0  0
  -11.2796   15.4181  -36.4338 O   0  0  0  0  0  0  0  0  0  0  0  0
   -7.7134   15.4708  -35.9996 F   0  0  0  0  0  0  0  0  0  0  0  0
   -9.0994   14.1975  -34.9097 F   0  0  0  0  0  0  0  0  0  0  0  0
  -13.7208   16.1679  -36.4292 H   0  0  0  0  0  0  0  0  0  0  0  0
  -14.9741   16.5474  -37.6113 H   0  0  0  0  0  0  0  0  0  0  0  0
  -13.5616   17.8081  -38.8179 H   0  0  0  0  0  0  0  0  0  0  0  0
  -12.2246   17.4853  -37.7127 H   0  0  0  0  0  0  0  0  0  0  0  0
  -13.0025   13.6237  -36.4906 H   0  0  0  0  0  0  0  0  0  0  0  0
  -12.7336   12.9315  -38.0895 H   0  0  0  0  0  0  0  0  0  0  0  0
  -10.8887   14.5842  -39.7032 H   0  0  0  0  0  0  0  0  0  0  0  0
  -10.3363   16.0151  -38.8517 H   0  0  0  0  0  0  0  0  0  0  0  0
   -8.6141   14.4273  -38.1469 H   0  0  0  0  0  0  0  0  0  0  0  0
   -8.3229   13.0917  -37.0438 H   0  0  0  0  0  0  0  0  0  0  0  0
  -10.0757   16.4932  -35.1851 H   0  0  0  0  0  0  0  0  0  0  0  0
   -9.7419   16.7304  -36.8922 H   0  0  0  0  0  0  0  0  0  0  0  0
  -14.8149   14.2324  -38.0579 H   0  0  0  0  0  0  0  0  0  0  0  0
  -12.2301   16.5553  -40.3129 H   0  0  0  0  0  0  0  0  0  0  0  0
  -10.3708   12.8396  -38.2643 H   0  0  0  0  0  0  0  0  0  0  0  0
  -13.1696   14.2187  -39.9909 H   0  0  0  0  0  0  0  0  0  0  0  0
  1  2  1  0  0  0  0
  1  7  1  0  0  0  0
  2  8  1  0  0  0  0
  3  7  1  0  0  0  0
  3  9  1  0  0  0  0
  4  8  1  0  0  0  0
  4  9  1  0  0  0  0
  5 10  1  0  0  0  0
  5 11  1  0  0  0  0
  6 10  1  0  0  0  0
  6 13  1  0  0  0  0
  7 12  1  0  0  0  0
  8 12  1  0  0  0  0
  9 11  1  0  0  0  0
  9 13  1  0  0  0  0
 10 14  1  0  0  0  0
 10 15  1  0  0  0  0
  1 16  1  0  0  0  0
  1 17  1  0  0  0  0
  2 18  1  0  0  0  0
  2 19  1  0  0  0  0
  3 20  1  0  0  0  0
  3 21  1  0  0  0  0
  4 22  1  0  0  0  0
  4 23  1  0  0  0  0
  5 24  1  0  0  0  0
  5 25  1  0  0  0  0
  6 26  1  0  0  0  0
  6 27  1  0  0  0  0
  7 28  1  0  0  0  0
  8 29  1  0  0  0  0
 11 30  1  0  0  0  0
 12 31  1  0  0  0  0
M  END
> <id>
EN300-1279470

> <smiles>
FC1(F)CNC2(CC3CCC(C2)N3)OC1

> <IUPAC Name>
5',5'-difluoro-8-azaspiro[bicyclo[3.2.1]octane-3,2'-[1,3]oxazinane]

> <CAS>
2168091-33-4

> <URL>
https://www.enaminestore.com/catalog/EN300-1279470

> <ROCS_ShapeQuery>
x1247relevant_x1083L0AP1_x1305L0BP1_

> <ROCS_TanimotoCombo>
0.843 

> <ROCS_ShapeTanimoto>
0.504 

> <ROCS_ColorTanimoto>
0.339 

> <ROCS_RefTversky>
0.427 

> <ROCS_RefColorTversky>
0.399 

> <ROCS_RefTverskyCombo>
0.826 

> <ROCS_FitTversky>
1.561 

> <ROCS_FitColorTversky>
0.694 

> <ROCS_FitTverskyCombo>
2.254 

> <ROCS_ColorScore>
-8.517

> <ROCS_Overlap>
1256.634

> <ROCS_Rank>
98                  

$$$$
untitled-dbase-19818_47
  -OEChem-06162310163D

 42 45  0     1  0  0  0  0  0999 V2000
   -8.4964   14.9214  -36.9634 C   0  0  0  0  0  0  0  0  0  0  0  0
  -14.0329   14.3724  -38.8636 C   0  0  0  0  0  0  0  0  0  0  0  0
  -14.2626   15.6016  -37.9550 C   0  0  0  0  0  0  0  0  0  0  0  0
  -10.4676   13.5229  -37.5424 C   0  0  0  0  0  0  0  0  0  0  0  0
  -10.8213   15.4385  -36.1343 C   0  0  0  0  0  0  0  0  0  0  0  0
  -12.5169   14.0973  -39.0142 C   0  0  2  0  0  0  0  0  0  0  0  0
  -12.9051   16.1745  -37.4803 C   0  0  1  0  0  0  0  0  0  0  0  0
  -11.9669   13.8080  -37.5887 C   0  0  2  0  0  0  0  0  0  0  0  0
  -12.1973   15.0497  -36.6723 C   0  0  1  0  0  0  0  0  0  0  0  0
  -11.8186   15.3298  -39.5604 C   0  0  2  0  0  0  0  0  0  0  0  0
  -12.0420   16.5230  -38.6797 C   0  0  1  0  0  0  0  0  0  0  0  0
   -7.3769   14.1812  -34.7128 C   0  0  0  0  0  0  0  0  0  0  0  0
   -6.7112   12.0204  -35.8069 C   0  0  0  0  0  0  0  0  0  0  0  0
   -5.4897   14.1395  -36.3776 C   0  0  0  0  0  0  0  0  0  0  0  0
   -6.8359   13.5319  -35.9858 C   0  0  0  0  0  0  0  0  0  0  0  0
   -9.8597   14.6760  -36.9105 N   0  0  0  0  0  0  0  0  0  0  0  0
   -7.9955   16.0435  -36.9400 O   0  0  0  0  0  0  0  0  0  0  0  0
  -12.6284   16.4321  -39.9822 O   0  0  0  0  0  0  0  0  0  0  0  0
   -7.7678   13.7652  -37.0478 O   0  0  0  0  0  0  0  0  0  0  0  0
  -14.5396   13.4972  -38.4397 H   0  0  0  0  0  0  0  0  0  0  0  0
  -14.4864   14.5516  -39.8461 H   0  0  0  0  0  0  0  0  0  0  0  0
  -14.8261   16.3650  -38.5051 H   0  0  0  0  0  0  0  0  0  0  0  0
  -14.8790   15.3170  -37.0940 H   0  0  0  0  0  0  0  0  0  0  0  0
  -10.2616   12.6604  -36.8976 H   0  0  0  0  0  0  0  0  0  0  0  0
  -10.0130   13.3246  -38.5180 H   0  0  0  0  0  0  0  0  0  0  0  0
  -10.6087   16.5106  -36.1814 H   0  0  0  0  0  0  0  0  0  0  0  0
  -10.7128   15.1206  -35.0907 H   0  0  0  0  0  0  0  0  0  0  0  0
  -12.3506   13.2425  -39.6782 H   0  0  0  0  0  0  0  0  0  0  0  0
  -13.0644   17.0615  -36.8581 H   0  0  0  0  0  0  0  0  0  0  0  0
  -12.5027   12.9446  -37.1730 H   0  0  0  0  0  0  0  0  0  0  0  0
  -12.8385   14.7651  -35.8277 H   0  0  0  0  0  0  0  0  0  0  0  0
  -10.8519   15.1711  -40.0119 H   0  0  0  0  0  0  0  0  0  0  0  0
  -11.2348   17.2164  -38.5027 H   0  0  0  0  0  0  0  0  0  0  0  0
   -7.4679   15.2662  -34.8372 H   0  0  0  0  0  0  0  0  0  0  0  0
   -8.3581   13.7789  -34.4405 H   0  0  0  0  0  0  0  0  0  0  0  0
   -6.6923   14.0228  -33.8717 H   0  0  0  0  0  0  0  0  0  0  0  0
   -6.3234   11.5504  -36.7179 H   0  0  0  0  0  0  0  0  0  0  0  0
   -7.6914   11.5674  -35.6192 H   0  0  0  0  0  0  0  0  0  0  0  0
   -6.0464   11.7655  -34.9753 H   0  0  0  0  0  0  0  0  0  0  0  0
   -5.1015   13.6739  -37.2907 H   0  0  0  0  0  0  0  0  0  0  0  0
   -5.5680   15.2184  -36.5462 H   0  0  0  0  0  0  0  0  0  0  0  0
   -4.7405   13.9623  -35.5975 H   0  0  0  0  0  0  0  0  0  0  0  0
  1 16  1  0  0  0  0
  1 17  2  0  0  0  0
  1 19  1  0  0  0  0
  2  3  1  0  0  0  0
  2  6  1  0  0  0  0
  3  7  1  0  0  0  0
  4  8  1  0  0  0  0
  4 16  1  0  0  0  0
  5  9  1  0  0  0  0
  5 16  1  0  0  0  0
  6  8  1  0  0  0  0
  6 10  1  0  0  0  0
  7  9  1  0  0  0  0
  7 11  1  0  0  0  0
  8  9  1  0  0  0  0
 10 11  1  0  0  0  0
 10 18  1  0  0  0  0
 11 18  1  0  0  0  0
 12 15  1  0  0  0  0
 13 15  1  0  0  0  0
 14 15  1  0  0  0  0
 15 19  1  0  0  0  0
  2 20  1  0  0  0  0
  2 21  1  0  0  0  0
  3 22  1  0  0  0  0
  3 23  1  0  0  0  0
  4 24  1  0  0  0  0
  4 25  1  0  0  0  0
  5 26  1  0  0  0  0
  5 27  1  0  0  0  0
  6 28  1  0  0  0  0
  7 29  1  0  0  0  0
  8 30  1  0  0  0  0
  9 31  1  0  0  0  0
 10 32  1  0  0  0  0
 11 33  1  0  0  0  0
 12 34  1  0  0  0  0
 12 35  1  0  0  0  0
 12 36  1  0  0  0  0
 13 37  1  0  0  0  0
 13 38  1  0  0  0  0
 13 39  1  0  0  0  0
 14 40  1  0  0  0  0
 14 41  1  0  0  0  0
 14 42  1  0  0  0  0
M  END
> <id>
EN300-1708356

> <smiles>
CC(C)(C)OC(=O)N1CC2C(C1)C3CCC2C4OC43

> <IUPAC Name>
tert-butyl 9-oxa-4-azatetracyclo[5.3.2.0^{2,6}.0^{8,10}]dodecane-4-carboxylate

> <CAS>
2219407-46-0

> <URL>
https://www.enaminestore.com/catalog/EN300-1708356

> <ROCS_ShapeQuery>
x1247relevant_x1083L0AP1_x1305L0BP1_

> <ROCS_TanimotoCombo>
0.843 

> <ROCS_ShapeTanimoto>
0.484 

> <ROCS_ColorTanimoto>
0.358 

> <ROCS_RefTversky>
0.434 

> <ROCS_RefColorTversky>
0.513 

> <ROCS_RefTverskyCombo>
0.947 

> <ROCS_FitTversky>
1.311 

> <ROCS_FitColorTversky>
0.544 

> <ROCS_FitTverskyCombo>
1.855 

> <ROCS_ColorScore>
-11.170

> <ROCS_Overlap>
1283.757

> <ROCS_Rank>
99                  

$$$$
untitled-dbase-30570_42
  -OEChem-06162310163D

 37 38  0     1  0  0  0  0  0999 V2000
   -9.6332   14.7772  -37.2001 C   0  0  0  0  0  0  0  0  0  0  0  0
  -13.6671   14.2625  -37.7644 C   0  0  0  0  0  0  0  0  0  0  0  0
  -13.6160   15.6903  -37.2027 C   0  0  0  0  0  0  0  0  0  0  0  0
  -11.3929   14.0870  -38.8650 C   0  0  0  0  0  0  0  0  0  0  0  0
  -11.3127   16.4318  -37.9497 C   0  0  0  0  0  0  0  0  0  0  0  0
  -12.8934   14.3252  -39.0940 C   0  0  2  0  0  0  0  0  0  0  0  0
  -12.8188   16.5022  -38.2401 C   0  0  1  0  0  0  0  0  0  0  0  0
  -13.1070   15.7682  -39.5484 C   0  0  0  0  0  0  0  0  0  0  0  0
  -10.2616   14.1212  -34.7391 C   0  0  0  0  0  0  0  0  0  0  0  0
  -10.0477   11.7014  -35.3778 C   0  0  0  0  0  0  0  0  0  0  0  0
   -7.9852   13.1034  -35.0808 C   0  0  0  0  0  0  0  0  0  0  0  0
   -9.4464   13.0971  -35.5275 C   0  0  0  0  0  0  0  0  0  0  0  0
  -10.7928   15.0579  -37.9337 N   0  0  0  0  0  0  0  0  0  0  0  0
   -8.8145   15.6251  -36.8492 O   0  0  0  0  0  0  0  0  0  0  0  0
  -14.4504   15.9879  -39.9541 O   0  0  0  0  0  0  0  0  0  0  0  0
   -9.5001   13.4435  -36.9162 O   0  0  0  0  0  0  0  0  0  0  0  0
  -13.2455   13.5324  -37.0655 H   0  0  0  0  0  0  0  0  0  0  0  0
  -14.7106   13.9782  -37.9446 H   0  0  0  0  0  0  0  0  0  0  0  0
  -14.6356   16.0840  -37.1139 H   0  0  0  0  0  0  0  0  0  0  0  0
  -13.1649   15.7224  -36.2055 H   0  0  0  0  0  0  0  0  0  0  0  0
  -11.2322   13.0695  -38.4933 H   0  0  0  0  0  0  0  0  0  0  0  0
  -10.8463   14.1786  -39.8111 H   0  0  0  0  0  0  0  0  0  0  0  0
  -10.7545   16.9716  -38.7244 H   0  0  0  0  0  0  0  0  0  0  0  0
  -11.0872   16.9165  -36.9931 H   0  0  0  0  0  0  0  0  0  0  0  0
  -13.2937   13.5971  -39.8072 H   0  0  0  0  0  0  0  0  0  0  0  0
  -13.1580   17.5430  -38.2575 H   0  0  0  0  0  0  0  0  0  0  0  0
  -12.4431   16.0661  -40.3667 H   0  0  0  0  0  0  0  0  0  0  0  0
   -9.8332   15.1244  -34.8440 H   0  0  0  0  0  0  0  0  0  0  0  0
  -11.3036   14.1514  -35.0739 H   0  0  0  0  0  0  0  0  0  0  0  0
  -10.2488   13.8901  -33.6679 H   0  0  0  0  0  0  0  0  0  0  0  0
   -9.4660   10.9634  -35.9419 H   0  0  0  0  0  0  0  0  0  0  0  0
  -11.0649   11.6689  -35.7847 H   0  0  0  0  0  0  0  0  0  0  0  0
  -10.0834   11.3871  -34.3298 H   0  0  0  0  0  0  0  0  0  0  0  0
   -7.4002   12.3689  -35.6461 H   0  0  0  0  0  0  0  0  0  0  0  0
   -7.5264   14.0883  -35.2157 H   0  0  0  0  0  0  0  0  0  0  0  0
   -7.8992   12.8208  -34.0253 H   0  0  0  0  0  0  0  0  0  0  0  0
  -14.6245   15.3797  -40.6909 H   0  0  0  0  0  0  0  0  0  0  0  0
  1 13  1  0  0  0  0
  1 14  2  0  0  0  0
  1 16  1  0  0  0  0
  2  3  1  0  0  0  0
  2  6  1  0  0  0  0
  3  7  1  0  0  0  0
  4  6  1  0  0  0  0
  4 13  1  0  0  0  0
  5  7  1  0  0  0  0
  5 13  1  0  0  0  0
  6  8  1  0  0  0  0
  7  8  1  0  0  0  0
  8 15  1  0  0  0  0
  9 12  1  0  0  0  0
 10 12  1  0  0  0  0
 11 12  1  0  0  0  0
 12 16  1  0  0  0  0
  2 17  1  0  0  0  0
  2 18  1  0  0  0  0
  3 19  1  0  0  0  0
  3 20  1  0  0  0  0
  4 21  1  0  0  0  0
  4 22  1  0  0  0  0
  5 23  1  0  0  0  0
  5 24  1  0  0  0  0
  6 25  1  0  0  0  0
  7 26  1  0  0  0  0
  8 27  1  0  0  0  0
  9 28  1  0  0  0  0
  9 29  1  0  0  0  0
  9 30  1  0  0  0  0
 10 31  1  0  0  0  0
 10 32  1  0  0  0  0
 10 33  1  0  0  0  0
 11 34  1  0  0  0  0
 11 35  1  0  0  0  0
 11 36  1  0  0  0  0
 15 37  1  0  0  0  0
M  END
> <id>
EN300-226749

> <smiles>
CC(C)(C)OC(=O)N1CC2CCC(C1)C2O

> <MDLNUMBER>
MFCD22415201

> <IUPAC Name>
tert-butyl 8-hydroxy-3-azabicyclo[3.2.1]octane-3-carboxylate

> <CAS>
1330766-08-9

> <URL>
https://www.enaminestore.com/catalog/EN300-226749

> <ROCS_ShapeQuery>
x1247relevant_x1083L0AP1_x1305L0BP1_

> <ROCS_TanimotoCombo>
0.842 

> <ROCS_ShapeTanimoto>
0.472 

> <ROCS_ColorTanimoto>
0.370 

> <ROCS_RefTversky>
0.410 

> <ROCS_RefColorTversky>
0.403 

> <ROCS_RefTverskyCombo>
0.813 

> <ROCS_FitTversky>
1.468 

> <ROCS_FitColorTversky>
0.822 

> <ROCS_FitTverskyCombo>
2.289 

> <ROCS_ColorScore>
-8.558

> <ROCS_Overlap>
1208.913

> <ROCS_Rank>
100                 

$$$$
untitled-dbase-34990_1
  -OEChem-06162310163D

 36 38  0     1  0  0  0  0  0999 V2000
  -13.7649   13.9436  -38.2913 C   0  0  0  0  0  0  0  0  0  0  0  0
  -13.7989   15.1021  -37.2713 C   0  0  0  0  0  0  0  0  0  0  0  0
   -8.8278   15.2667  -36.6439 C   0  0  0  0  0  0  0  0  0  0  0  0
  -11.4041   14.2512  -39.2963 C   0  0  0  0  0  0  0  0  0  0  0  0
  -11.5222   16.2130  -37.6199 C   0  0  0  0  0  0  0  0  0  0  0  0
   -9.8124   14.4333  -35.8324 C   0  0  0  0  0  0  0  0  0  0  0  0
   -9.2754   15.1211  -38.0954 C   0  0  2  0  0  0  0  0  0  0  0  0
  -12.9276   14.3873  -39.5019 C   0  0  2  0  0  0  0  0  0  0  0  0
  -13.0380   16.2926  -37.8758 C   0  0  1  0  0  0  0  0  0  0  0  0
  -10.8063   14.8391  -37.9718 C   0  0  0  0  0  0  0  0  0  0  0  0
  -10.7420   12.5296  -36.9544 C   0  0  0  0  0  0  0  0  0  0  0  0
  -10.8763   13.9730  -36.7523 N   0  0  1  0  0  0  0  0  0  0  0  0
   -8.5080   14.0558  -38.7443 N   0  0  0  0  0  0  0  0  0  0  0  0
  -14.7490   16.2756  -39.8962 O   0  0  0  0  0  0  0  0  0  0  0  0
  -12.3345   16.8391  -40.3928 O   0  0  0  0  0  0  0  0  0  0  0  0
  -13.3336   16.1252  -39.6282 S   0  0  0  0  0  0  0  0  0  0  0  0
  -13.3994   13.0103  -37.8499 H   0  0  0  0  0  0  0  0  0  0  0  0
  -14.7942   13.7408  -38.6175 H   0  0  0  0  0  0  0  0  0  0  0  0
  -14.8465   15.3897  -37.1182 H   0  0  0  0  0  0  0  0  0  0  0  0
  -13.4274   14.8034  -36.2918 H   0  0  0  0  0  0  0  0  0  0  0  0
   -8.8299   16.3217  -36.3335 H   0  0  0  0  0  0  0  0  0  0  0  0
   -7.8062   14.8842  -36.4937 H   0  0  0  0  0  0  0  0  0  0  0  0
  -11.1603   13.1812  -39.4002 H   0  0  0  0  0  0  0  0  0  0  0  0
  -10.9116   14.7188  -40.1642 H   0  0  0  0  0  0  0  0  0  0  0  0
  -11.0404   17.0075  -38.2017 H   0  0  0  0  0  0  0  0  0  0  0  0
  -11.3189   16.4906  -36.5815 H   0  0  0  0  0  0  0  0  0  0  0  0
   -9.3014   13.5614  -35.4031 H   0  0  0  0  0  0  0  0  0  0  0  0
  -10.1966   15.0021  -34.9742 H   0  0  0  0  0  0  0  0  0  0  0  0
   -9.0952   16.0319  -38.6278 H   0  0  0  0  0  0  0  0  0  0  0  0
  -13.2459   13.8917  -40.4258 H   0  0  0  0  0  0  0  0  0  0  0  0
  -13.4375   17.2507  -37.5349 H   0  0  0  0  0  0  0  0  0  0  0  0
  -11.5299   12.1796  -37.6376 H   0  0  0  0  0  0  0  0  0  0  0  0
   -9.7557   12.3106  -37.3895 H   0  0  0  0  0  0  0  0  0  0  0  0
  -10.8391   12.0135  -35.9879 H   0  0  0  0  0  0  0  0  0  0  0  0
   -8.8136   13.9781  -39.6864 H   0  0  0  0  0  0  0  0  0  0  0  0
   -7.5450   14.2975  -38.7091 H   0  0  0  0  0  0  0  0  0  0  0  0
  1  2  1  0  0  0  0
  1  8  1  0  0  0  0
  2  9  1  0  0  0  0
  3  6  1  0  0  0  0
  3  7  1  0  0  0  0
  4  8  1  0  0  0  0
  4 10  1  0  0  0  0
  5  9  1  0  0  0  0
  5 10  1  0  0  0  0
  6 12  1  0  0  0  0
  7 10  1  0  0  0  0
  7 13  1  0  0  0  0
  8 16  1  0  0  0  0
  9 16  1  0  0  0  0
 10 12  1  0  0  0  0
 11 12  1  0  0  0  0
 14 16  2  0  0  0  0
 15 16  2  0  0  0  0
  1 17  1  0  0  0  0
  1 18  1  0  0  0  0
  2 19  1  0  0  0  0
  2 20  1  0  0  0  0
  3 21  1  0  0  0  0
  3 22  1  0  0  0  0
  4 23  1  0  0  0  0
  4 24  1  0  0  0  0
  5 25  1  0  0  0  0
  5 26  1  0  0  0  0
  6 27  1  0  0  0  0
  6 28  1  0  0  0  0
  7 29  1  0  0  0  0
  8 30  1  0  0  0  0
  9 31  1  0  0  0  0
 11 32  1  0  0  0  0
 11 33  1  0  0  0  0
 11 34  1  0  0  0  0
 13 35  1  0  0  0  0
 13 36  1  0  0  0  0
M  END
> <id>
EN300-785609

> <smiles>
CN1CCC(N)C21CC3CCC(C2)S3(=O)=O

> <IUPAC Name>
3'-amino-1'-methyl-8lambda6-thiaspiro[bicyclo[3.2.1]octane-3,2'-pyrrolidine]-8,8-dione

> <CAS>
2137510-47-3

> <URL>
https://www.enaminestore.com/catalog/EN300-785609

> <ROCS_ShapeQuery>
x1247relevant_x1083L0AP1_x1305L0BP1_

> <ROCS_TanimotoCombo>
0.841 

> <ROCS_ShapeTanimoto>
0.498 

> <ROCS_ColorTanimoto>
0.343 

> <ROCS_RefTversky>
0.423 

> <ROCS_RefColorTversky>
0.401 

> <ROCS_RefTverskyCombo>
0.825 

> <ROCS_FitTversky>
1.545 

> <ROCS_FitColorTversky>
0.704 

> <ROCS_FitTverskyCombo>
2.249 

> <ROCS_ColorScore>
-8.566

> <ROCS_Overlap>
1246.761

> <ROCS_Rank>
101                 

$$$$
untitled-dbase-50535_1
  -OEChem-06162310163D

 24 26  0     1  0  0  0  0  0999 V2000
  -12.9777   16.4967  -39.1205 C   0  0  0  0  0  0  0  0  0  0  0  0
   -9.3635   13.7648  -36.3500 C   0  0  0  0  0  0  0  0  0  0  0  0
  -14.1242   15.7686  -38.4269 C   0  0  0  0  0  0  0  0  0  0  0  0
   -9.1881   15.2679  -36.1012 C   0  0  0  0  0  0  0  0  0  0  0  0
  -11.7248   15.7020  -38.7716 C   0  0  2  0  0  0  0  0  0  0  0  0
  -11.5612   14.2027  -37.2036 C   0  0  2  0  0  0  0  0  0  0  0  0
  -12.3098   14.2909  -38.5480 C   0  0  1  0  0  0  0  0  0  0  0  0
  -11.2158   15.7080  -37.3070 C   0  0  1  0  0  0  0  0  0  0  0  0
  -10.3186   13.4525  -37.4144 N   0  0  0  0  0  0  0  0  0  0  0  0
  -13.7549   14.3858  -38.4768 O   0  0  0  0  0  0  0  0  0  0  0  0
   -9.8188   16.0335  -37.1265 O   0  0  0  0  0  0  0  0  0  0  0  0
  -13.1321   16.4642  -40.2057 H   0  0  0  0  0  0  0  0  0  0  0  0
  -12.9123   17.5465  -38.8212 H   0  0  0  0  0  0  0  0  0  0  0  0
   -8.3760   13.3181  -36.6130 H   0  0  0  0  0  0  0  0  0  0  0  0
   -9.6692   13.2471  -35.4075 H   0  0  0  0  0  0  0  0  0  0  0  0
  -14.2196   16.0628  -37.3786 H   0  0  0  0  0  0  0  0  0  0  0  0
  -15.0787   15.9207  -38.9348 H   0  0  0  0  0  0  0  0  0  0  0  0
   -9.6546   15.5407  -35.1472 H   0  0  0  0  0  0  0  0  0  0  0  0
   -8.1287   15.5495  -36.0411 H   0  0  0  0  0  0  0  0  0  0  0  0
  -10.9295   15.7650  -39.5310 H   0  0  0  0  0  0  0  0  0  0  0  0
  -12.1310   13.9124  -36.3251 H   0  0  0  0  0  0  0  0  0  0  0  0
  -12.0393   13.5548  -39.3113 H   0  0  0  0  0  0  0  0  0  0  0  0
  -11.8017   16.3083  -36.6474 H   0  0  0  0  0  0  0  0  0  0  0  0
   -9.8664   13.6032  -38.3133 H   0  0  0  0  0  0  0  0  0  0  0  0
  1  3  1  0  0  0  0
  1  5  1  6  0  0  0
  2  4  1  0  0  0  0
  2  9  1  0  0  0  0
  3 10  1  0  0  0  0
  4 11  1  0  0  0  0
  5  7  1  0  0  0  0
  5  8  1  0  0  0  0
  6  7  1  0  0  0  0
  6  8  1  0  0  0  0
  6  9  1  0  0  0  0
  7 10  1  6  0  0  0
  8 11  1  0  0  0  0
  1 12  1  0  0  0  0
  1 13  1  0  0  0  0
  2 14  1  0  0  0  0
  2 15  1  0  0  0  0
  3 16  1  0  0  0  0
  3 17  1  0  0  0  0
  4 18  1  0  0  0  0
  4 19  1  0  0  0  0
  5 20  1  0  0  0  0
  6 21  1  0  0  0  0
  7 22  1  0  0  0  0
  8 23  1  0  0  0  0
  9 24  1  0  0  0  0
M  END
> <id>
EN300-39913800

> <smiles>
C1C[C@@H]2[C@H](O1)C3NCCOC23 |&1:2,3,r|

> <IUPAC Name>
rac-(2R,6S)-3,8-dioxa-11-azatricyclo[5.4.0.0,2,6]undecane

> <URL>
https://www.enaminestore.com/catalog/EN300-39913800

> <ROCS_ShapeQuery>
x1247relevant_x1083L0AP1_x1305L0BP1_

> <ROCS_TanimotoCombo>
0.841 

> <ROCS_ShapeTanimoto>
0.441 

> <ROCS_ColorTanimoto>
0.399 

> <ROCS_RefTversky>
0.371 

> <ROCS_RefColorTversky>
0.434 

> <ROCS_RefTverskyCombo>
0.806 

> <ROCS_FitTversky>
1.747 

> <ROCS_FitColorTversky>
0.832 

> <ROCS_FitTverskyCombo>
2.579 

> <ROCS_ColorScore>
-9.244

> <ROCS_Overlap>
1090.007

> <ROCS_Rank>
102                 

$$$$
untitled-dbase-35738_0
  -OEChem-06162310163D

 32 34  0     1  0  0  0  0  0999 V2000
   -9.7031   15.8627  -35.9750 C   0  0  0  0  0  0  0  0  0  0  0  0
   -8.5551   14.8800  -36.1849 C   0  0  0  0  0  0  0  0  0  0  0  0
  -13.7633   14.6313  -39.3971 C   0  0  0  0  0  0  0  0  0  0  0  0
  -13.3982   13.9812  -38.0640 C   0  0  0  0  0  0  0  0  0  0  0  0
  -10.3227   16.3261  -37.2964 C   0  0  0  0  0  0  0  0  0  0  0  0
  -11.6024   15.9144  -39.4292 C   0  0  0  0  0  0  0  0  0  0  0  0
   -8.9894   13.4253  -36.3560 C   0  0  0  0  0  0  0  0  0  0  0  0
  -10.3443   13.9792  -38.3343 C   0  0  0  0  0  0  0  0  0  0  0  0
  -13.1207   16.0093  -39.2631 C   0  0  2  0  0  0  0  0  0  0  0  0
  -12.5333   15.0576  -37.4054 C   0  0  1  0  0  0  0  0  0  0  0  0
  -11.1498   15.2721  -38.0845 C   0  0  1  0  0  0  0  0  0  0  0  0
  -10.2013   13.1762  -37.1258 N   0  0  0  0  0  0  0  0  0  0  0  0
  -13.2434   16.2472  -37.8437 O   0  0  0  0  0  0  0  0  0  0  0  0
  -10.4588   15.4520  -35.2970 H   0  0  0  0  0  0  0  0  0  0  0  0
   -9.2943   16.7521  -35.4782 H   0  0  0  0  0  0  0  0  0  0  0  0
   -7.9499   15.1916  -37.0456 H   0  0  0  0  0  0  0  0  0  0  0  0
   -7.8880   14.9283  -35.3148 H   0  0  0  0  0  0  0  0  0  0  0  0
  -13.3976   14.0719  -40.2631 H   0  0  0  0  0  0  0  0  0  0  0  0
  -14.8529   14.7166  -39.4772 H   0  0  0  0  0  0  0  0  0  0  0  0
  -14.3141   13.8299  -37.4801 H   0  0  0  0  0  0  0  0  0  0  0  0
  -12.9139   13.0087  -38.1720 H   0  0  0  0  0  0  0  0  0  0  0  0
  -10.9534   17.1988  -37.0800 H   0  0  0  0  0  0  0  0  0  0  0  0
   -9.5155   16.7008  -37.9409 H   0  0  0  0  0  0  0  0  0  0  0  0
  -11.3234   15.3350  -40.3153 H   0  0  0  0  0  0  0  0  0  0  0  0
  -11.1846   16.9206  -39.5492 H   0  0  0  0  0  0  0  0  0  0  0  0
   -8.1564   12.8672  -36.8014 H   0  0  0  0  0  0  0  0  0  0  0  0
   -9.1456   12.9910  -35.3613 H   0  0  0  0  0  0  0  0  0  0  0  0
  -10.8720   13.3651  -39.0747 H   0  0  0  0  0  0  0  0  0  0  0  0
   -9.3734   14.1971  -38.7973 H   0  0  0  0  0  0  0  0  0  0  0  0
  -13.5931   16.7908  -39.8623 H   0  0  0  0  0  0  0  0  0  0  0  0
  -12.5108   14.9915  -36.3152 H   0  0  0  0  0  0  0  0  0  0  0  0
  -10.2352   12.1855  -37.3654 H   0  0  0  0  0  0  0  0  0  0  0  0
  1  2  1  0  0  0  0
  1  5  1  0  0  0  0
  2  7  1  0  0  0  0
  3  4  1  0  0  0  0
  3  9  1  0  0  0  0
  4 10  1  0  0  0  0
  5 11  1  0  0  0  0
  6  9  1  0  0  0  0
  6 11  1  0  0  0  0
  7 12  1  0  0  0  0
  8 11  1  0  0  0  0
  8 12  1  0  0  0  0
  9 13  1  0  0  0  0
 10 11  1  0  0  0  0
 10 13  1  0  0  0  0
  1 14  1  0  0  0  0
  1 15  1  0  0  0  0
  2 16  1  0  0  0  0
  2 17  1  0  0  0  0
  3 18  1  0  0  0  0
  3 19  1  0  0  0  0
  4 20  1  0  0  0  0
  4 21  1  0  0  0  0
  5 22  1  0  0  0  0
  5 23  1  0  0  0  0
  6 24  1  0  0  0  0
  6 25  1  0  0  0  0
  7 26  1  0  0  0  0
  7 27  1  0  0  0  0
  8 28  1  0  0  0  0
  8 29  1  0  0  0  0
  9 30  1  0  0  0  0
 10 31  1  0  0  0  0
 12 32  1  0  0  0  0
M  END
> <id>
EN300-1153659

> <smiles>
C1CC2OC1CC32CCCCNC3

> <IUPAC Name>
7'-oxaspiro[azepane-3,2'-bicyclo[2.2.1]heptane]

> <CAS>
2138111-54-1

> <URL>
https://www.enaminestore.com/catalog/EN300-1153659

> <ROCS_ShapeQuery>
x1247relevant_x1083L0AP1_x1305L0BP1_

> <ROCS_TanimotoCombo>
0.840 

> <ROCS_ShapeTanimoto>
0.477 

> <ROCS_ColorTanimoto>
0.363 

> <ROCS_RefTversky>
0.400 

> <ROCS_RefColorTversky>
0.403 

> <ROCS_RefTverskyCombo>
0.803 

> <ROCS_FitTversky>
1.677 

> <ROCS_FitColorTversky>
0.786 

> <ROCS_FitTverskyCombo>
2.464 

> <ROCS_ColorScore>
-8.572

> <ROCS_Overlap>
1176.106

> <ROCS_Rank>
103                 

$$$$
untitled-dbase-15034_20
  -OEChem-06162310163D

 38 40  0     1  0  0  0  0  0999 V2000
   -9.7063   15.1303  -36.7311 C   0  0  0  0  0  0  0  0  0  0  0  0
  -13.0846   16.6081  -38.9824 C   0  0  0  0  0  0  0  0  0  0  0  0
  -14.0518   14.4499  -38.8202 C   0  0  0  0  0  0  0  0  0  0  0  0
  -10.6560   15.7442  -38.9534 C   0  0  0  0  0  0  0  0  0  0  0  0
  -13.9351   15.7472  -38.0185 C   0  0  1  0  0  0  0  0  0  0  0  0
  -12.0544   15.5970  -39.5412 C   0  0  1  0  0  0  0  0  0  0  0  0
  -12.5500   14.2662  -38.9347 C   0  0  1  0  0  0  0  0  0  0  0  0
  -12.0131   14.3967  -37.4893 C   0  0  2  0  0  0  0  0  0  0  0  0
  -13.0401   15.3474  -36.8232 C   0  0  2  0  0  0  0  0  0  0  0  0
   -7.7191   13.9289  -35.0647 C   0  0  0  0  0  0  0  0  0  0  0  0
   -9.6303   12.7166  -33.9752 C   0  0  0  0  0  0  0  0  0  0  0  0
   -9.1363   12.3418  -36.4091 C   0  0  0  0  0  0  0  0  0  0  0  0
   -9.1210   13.3552  -35.2656 C   0  0  0  0  0  0  0  0  0  0  0  0
  -10.7283   15.0757  -37.6632 N   0  0  0  0  0  0  0  0  0  0  0  0
   -8.6523   15.7397  -36.8982 O   0  0  0  0  0  0  0  0  0  0  0  0
  -10.0094   14.4283  -35.5957 O   0  0  0  0  0  0  0  0  0  0  0  0
  -13.9702   14.5325  -35.4814 S   0  0  0  0  0  0  0  0  0  0  0  0
  -13.7140   16.9810  -39.7995 H   0  0  0  0  0  0  0  0  0  0  0  0
  -12.6246   17.4704  -38.4896 H   0  0  0  0  0  0  0  0  0  0  0  0
  -14.5430   13.6356  -38.2801 H   0  0  0  0  0  0  0  0  0  0  0  0
  -14.5403   14.5876  -39.7905 H   0  0  0  0  0  0  0  0  0  0  0  0
   -9.9122   15.2111  -39.5560 H   0  0  0  0  0  0  0  0  0  0  0  0
  -10.3317   16.7821  -38.8324 H   0  0  0  0  0  0  0  0  0  0  0  0
  -14.8825   16.2196  -37.7483 H   0  0  0  0  0  0  0  0  0  0  0  0
  -12.0514   15.6025  -40.6353 H   0  0  0  0  0  0  0  0  0  0  0  0
  -12.2035   13.3770  -39.4665 H   0  0  0  0  0  0  0  0  0  0  0  0
  -11.8840   13.4375  -36.9787 H   0  0  0  0  0  0  0  0  0  0  0  0
  -12.5545   16.2334  -36.3745 H   0  0  0  0  0  0  0  0  0  0  0  0
   -7.3500   14.3882  -35.9887 H   0  0  0  0  0  0  0  0  0  0  0  0
   -7.7016   14.6826  -34.2707 H   0  0  0  0  0  0  0  0  0  0  0  0
   -7.0061   13.1376  -34.8066 H   0  0  0  0  0  0  0  0  0  0  0  0
  -10.6359   12.3037  -34.1147 H   0  0  0  0  0  0  0  0  0  0  0  0
   -9.7110   13.4624  -33.1761 H   0  0  0  0  0  0  0  0  0  0  0  0
   -8.9697   11.9130  -33.6340 H   0  0  0  0  0  0  0  0  0  0  0  0
  -10.1418   11.9301  -36.5533 H   0  0  0  0  0  0  0  0  0  0  0  0
   -8.8088   12.7923  -37.3516 H   0  0  0  0  0  0  0  0  0  0  0  0
   -8.4831   11.4908  -36.1843 H   0  0  0  0  0  0  0  0  0  0  0  0
  -12.9142   14.3501  -34.6786 H   0  0  0  0  0  0  0  0  0  0  0  0
  1 14  1  0  0  0  0
  1 15  2  0  0  0  0
  1 16  1  0  0  0  0
  2  5  1  0  0  0  0
  2  6  1  0  0  0  0
  3  5  1  0  0  0  0
  3  7  1  0  0  0  0
  4  6  1  0  0  0  0
  4 14  1  0  0  0  0
  5  9  1  0  0  0  0
  6  7  1  0  0  0  0
  7  8  1  0  0  0  0
  8  9  1  0  0  0  0
  8 14  1  0  0  0  0
  9 17  1  0  0  0  0
 10 13  1  0  0  0  0
 11 13  1  0  0  0  0
 12 13  1  0  0  0  0
 13 16  1  0  0  0  0
  2 18  1  0  0  0  0
  2 19  1  0  0  0  0
  3 20  1  0  0  0  0
  3 21  1  0  0  0  0
  4 22  1  0  0  0  0
  4 23  1  0  0  0  0
  5 24  1  0  0  0  0
  6 25  1  0  0  0  0
  7 26  1  0  0  0  0
  8 27  1  0  0  0  0
  9 28  1  0  0  0  0
 10 29  1  0  0  0  0
 10 30  1  0  0  0  0
 10 31  1  0  0  0  0
 11 32  1  0  0  0  0
 11 33  1  0  0  0  0
 11 34  1  0  0  0  0
 12 35  1  0  0  0  0
 12 36  1  0  0  0  0
 12 37  1  0  0  0  0
 17 38  1  0  0  0  0
M  END
> <id>
EN300-1289473

> <smiles>
CC(C)(C)OC(=O)N1CC2CC3CC2C1C3S

> <IUPAC Name>
tert-butyl 2-sulfanyl-4-azatricyclo[4.2.1.0,3,7]nonane-4-carboxylate

> <CAS>
2172173-81-6

> <URL>
https://www.enaminestore.com/catalog/EN300-1289473

> <ROCS_ShapeQuery>
x1247relevant_x1083L0AP1_x1305L0BP1_

> <ROCS_TanimotoCombo>
0.840 

> <ROCS_ShapeTanimoto>
0.500 

> <ROCS_ColorTanimoto>
0.341 

> <ROCS_RefTversky>
0.432 

> <ROCS_RefColorTversky>
0.431 

> <ROCS_RefTverskyCombo>
0.863 

> <ROCS_FitTversky>
1.450 

> <ROCS_FitColorTversky>
0.619 

> <ROCS_FitTverskyCombo>
2.070 

> <ROCS_ColorScore>
-9.257

> <ROCS_Overlap>
1275.414

> <ROCS_Rank>
104                 

$$$$
untitled-dbase-27958_25
  -OEChem-06162310163D

 42 45  0     1  0  0  0  0  0999 V2000
   -8.8267   14.8003  -36.9251 C   0  0  0  0  0  0  0  0  0  0  0  0
  -14.0391   15.0310  -38.4915 C   0  0  0  0  0  0  0  0  0  0  0  0
  -10.8238   13.4023  -37.4218 C   0  0  0  0  0  0  0  0  0  0  0  0
  -11.1394   15.3913  -36.0992 C   0  0  0  0  0  0  0  0  0  0  0  0
  -12.8052   14.2115  -38.9252 C   0  0  2  0  0  0  0  0  0  0  0  0
  -13.1895   16.0055  -37.6365 C   0  0  2  0  0  0  0  0  0  0  0  0
  -12.3024   13.7411  -37.5283 C   0  0  2  0  0  0  0  0  0  0  0  0
  -11.8780   15.2813  -39.4845 C   0  0  2  0  0  0  0  0  0  0  0  0
  -12.1406   16.4791  -38.6394 C   0  0  1  0  0  0  0  0  0  0  0  0
  -12.5312   15.0049  -36.6228 C   0  0  1  0  0  0  0  0  0  0  0  0
  -13.4658   14.7131  -35.4415 C   0  0  0  0  0  0  0  0  0  0  0  0
   -7.7017   14.1549  -34.6484 C   0  0  0  0  0  0  0  0  0  0  0  0
   -7.0760   11.9331  -35.6392 C   0  0  0  0  0  0  0  0  0  0  0  0
   -5.8277   14.0029  -36.3217 C   0  0  0  0  0  0  0  0  0  0  0  0
   -7.1797   13.4357  -35.8915 C   0  0  0  0  0  0  0  0  0  0  0  0
  -10.1927   14.5780  -36.8506 N   0  0  0  0  0  0  0  0  0  0  0  0
   -8.3092   15.9146  -36.9604 O   0  0  0  0  0  0  0  0  0  0  0  0
  -12.4826   16.4587  -40.0306 O   0  0  0  0  0  0  0  0  0  0  0  0
   -8.1158   13.6306  -36.9574 O   0  0  0  0  0  0  0  0  0  0  0  0
  -14.5507   15.5216  -39.3264 H   0  0  0  0  0  0  0  0  0  0  0  0
  -14.7745   14.4493  -37.9288 H   0  0  0  0  0  0  0  0  0  0  0  0
  -10.6711   12.5861  -36.7059 H   0  0  0  0  0  0  0  0  0  0  0  0
  -10.3553   13.1108  -38.3665 H   0  0  0  0  0  0  0  0  0  0  0  0
  -10.9088   16.4567  -36.1875 H   0  0  0  0  0  0  0  0  0  0  0  0
  -11.0056   15.1199  -35.0450 H   0  0  0  0  0  0  0  0  0  0  0  0
  -13.0140   13.4004  -39.6254 H   0  0  0  0  0  0  0  0  0  0  0  0
  -13.7525   16.8213  -37.1781 H   0  0  0  0  0  0  0  0  0  0  0  0
  -12.9130   12.8930  -37.1932 H   0  0  0  0  0  0  0  0  0  0  0  0
  -10.8805   15.0003  -39.7732 H   0  0  0  0  0  0  0  0  0  0  0  0
  -11.3474   17.1188  -38.2958 H   0  0  0  0  0  0  0  0  0  0  0  0
  -14.4484   14.4405  -35.8160 H   0  0  0  0  0  0  0  0  0  0  0  0
  -13.5488   15.5990  -34.8182 H   0  0  0  0  0  0  0  0  0  0  0  0
  -13.0617   13.8934  -34.8541 H   0  0  0  0  0  0  0  0  0  0  0  0
   -7.7776   15.2337  -34.8255 H   0  0  0  0  0  0  0  0  0  0  0  0
   -8.6867   13.7813  -34.3501 H   0  0  0  0  0  0  0  0  0  0  0  0
   -7.0133   14.0277  -33.8051 H   0  0  0  0  0  0  0  0  0  0  0  0
   -6.7019   11.4131  -36.5285 H   0  0  0  0  0  0  0  0  0  0  0  0
   -8.0614   11.5048  -35.4229 H   0  0  0  0  0  0  0  0  0  0  0  0
   -6.4089   11.7094  -34.8005 H   0  0  0  0  0  0  0  0  0  0  0  0
   -5.4531   13.4872  -37.2133 H   0  0  0  0  0  0  0  0  0  0  0  0
   -5.8913   15.0733  -36.5427 H   0  0  0  0  0  0  0  0  0  0  0  0
   -5.0754   13.8530  -35.5388 H   0  0  0  0  0  0  0  0  0  0  0  0
  1 16  1  0  0  0  0
  1 17  2  0  0  0  0
  1 19  1  0  0  0  0
  2  5  1  0  0  0  0
  2  6  1  0  0  0  0
  3  7  1  1  0  0  0
  3 16  1  0  0  0  0
  4 10  1  0  0  0  0
  4 16  1  0  0  0  0
  5  7  1  0  0  0  0
  5  8  1  1  0  0  0
  6  9  1  1  0  0  0
  6 10  1  0  0  0  0
  7 10  1  0  0  0  0
  8  9  1  0  0  0  0
  8 18  1  0  0  0  0
  9 18  1  0  0  0  0
 10 11  1  6  0  0  0
 12 15  1  0  0  0  0
 13 15  1  0  0  0  0
 14 15  1  0  0  0  0
 15 19  1  0  0  0  0
  2 20  1  0  0  0  0
  2 21  1  0  0  0  0
  3 22  1  0  0  0  0
  3 23  1  0  0  0  0
  4 24  1  0  0  0  0
  4 25  1  0  0  0  0
  5 26  1  0  0  0  0
  6 27  1  0  0  0  0
  7 28  1  0  0  0  0
  8 29  1  0  0  0  0
  9 30  1  0  0  0  0
 11 31  1  0  0  0  0
 11 32  1  0  0  0  0
 11 33  1  0  0  0  0
 12 34  1  0  0  0  0
 12 35  1  0  0  0  0
 12 36  1  0  0  0  0
 13 37  1  0  0  0  0
 13 38  1  0  0  0  0
 13 39  1  0  0  0  0
 14 40  1  0  0  0  0
 14 41  1  0  0  0  0
 14 42  1  0  0  0  0
M  END
> <id>
EN300-1708372

> <smiles>
CC(C)(C)OC(=O)N1C[C@@H]2[C@H]3C[C@H](C4OC43)[C@]2(C)C1 |&1:9,10,12,16,r|

> <IUPAC Name>
rac-tert-butyl (1R,2S,6S,7S)-2-methyl-9-oxa-4-azatetracyclo[5.3.1.0^{2,6}.0^{8,10}]undecane-4-carboxylate

> <CAS>
2219360-80-0

> <URL>
https://www.enaminestore.com/catalog/EN300-1708372

> <ROCS_ShapeQuery>
x1247relevant_x1083L0AP1_x1305L0BP1_

> <ROCS_TanimotoCombo>
0.840 

> <ROCS_ShapeTanimoto>
0.486 

> <ROCS_ColorTanimoto>
0.354 

> <ROCS_RefTversky>
0.436 

> <ROCS_RefColorTversky>
0.517 

> <ROCS_RefTverskyCombo>
0.953 

> <ROCS_FitTversky>
1.308 

> <ROCS_FitColorTversky>
0.529 

> <ROCS_FitTverskyCombo>
1.837 

> <ROCS_ColorScore>
-11.281

> <ROCS_Overlap>
1288.129

> <ROCS_Rank>
105                 

$$$$
untitled-dbase-44698_0
  -OEChem-06162310163D

 25 27  0     1  0  0  0  0  0999 V2000
  -13.5084   15.4582  -37.3015 C   0  0  0  0  0  0  0  0  0  0  0  0
  -12.8363   16.1540  -39.7864 C   0  0  0  0  0  0  0  0  0  0  0  0
  -11.5921   13.0038  -37.1942 C   0  0  0  0  0  0  0  0  0  0  0  0
  -10.1089   14.7796  -37.3890 C   0  0  0  0  0  0  0  0  0  0  0  0
  -12.0681   13.7784  -38.4187 C   0  0  2  0  0  0  0  0  0  0  0  0
  -11.0660   14.9455  -38.5664 C   0  0  1  0  0  0  0  0  0  0  0  0
  -13.4944   14.3579  -38.3483 C   0  0  1  0  0  0  0  0  0  0  0  0
  -11.8544   16.2648  -38.6264 C   0  0  2  0  0  0  0  0  0  0  0  0
  -14.5728   13.2949  -38.2443 C   0  0  0  0  0  0  0  0  0  0  0  0
  -12.6784   16.4468  -37.4110 N   0  0  0  0  0  0  0  0  0  0  0  0
  -10.1716   13.3448  -37.1071 N   0  0  0  0  0  0  0  0  0  0  0  0
  -12.8721   16.8663  -40.7792 O   0  0  0  0  0  0  0  0  0  0  0  0
  -13.7134   15.1127  -39.5784 O   0  0  0  0  0  0  0  0  0  0  0  0
  -14.5819   15.4102  -35.9802 Cl  0  0  0  0  0  0  0  0  0  0  0  0
  -10.7959   17.6637  -38.8436 Cl  0  0  0  0  0  0  0  0  0  0  0  0
  -12.1089   13.3104  -36.2782 H   0  0  0  0  0  0  0  0  0  0  0  0
  -11.7321   11.9257  -37.3185 H   0  0  0  0  0  0  0  0  0  0  0  0
   -9.0910   15.0859  -37.6478 H   0  0  0  0  0  0  0  0  0  0  0  0
  -10.4242   15.3508  -36.5085 H   0  0  0  0  0  0  0  0  0  0  0  0
  -11.9757   13.1456  -39.3130 H   0  0  0  0  0  0  0  0  0  0  0  0
  -10.5096   14.7990  -39.5040 H   0  0  0  0  0  0  0  0  0  0  0  0
  -14.4607   12.5623  -39.0463 H   0  0  0  0  0  0  0  0  0  0  0  0
  -15.5621   13.7504  -38.3233 H   0  0  0  0  0  0  0  0  0  0  0  0
  -14.5023   12.7767  -37.2856 H   0  0  0  0  0  0  0  0  0  0  0  0
   -9.8101   13.1445  -36.1762 H   0  0  0  0  0  0  0  0  0  0  0  0
  1  7  1  0  0  0  0
  1 10  2  0  0  0  0
  1 14  1  0  0  0  0
  2  8  1  0  0  0  0
  2 12  2  0  0  0  0
  2 13  1  0  0  0  0
  3  5  1  0  0  0  0
  3 11  1  0  0  0  0
  4  6  1  0  0  0  0
  4 11  1  0  0  0  0
  5  6  1  0  0  0  0
  5  7  1  0  0  0  0
  6  8  1  0  0  0  0
  7  9  1  0  0  0  0
  7 13  1  0  0  0  0
  8 10  1  0  0  0  0
  8 15  1  0  0  0  0
  3 16  1  0  0  0  0
  3 17  1  0  0  0  0
  4 18  1  0  0  0  0
  4 19  1  0  0  0  0
  5 20  1  0  0  0  0
  6 21  1  0  0  0  0
  9 22  1  0  0  0  0
  9 23  1  0  0  0  0
  9 24  1  0  0  0  0
 11 25  1  0  0  0  0
M  END
> <id>
EN300-28278293

> <smiles>
CC1(OC(=O)C2(Cl)N=C1Cl)C3CNCC32

> <IUPAC Name>
1,11-dichloro-7-methyl-8-oxa-4,10-diazatricyclo[5.2.2.0,2,6]undec-10-en-9-one

> <CAS>
2680872-04-0

> <URL>
https://www.enaminestore.com/catalog/EN300-28278293

> <ROCS_ShapeQuery>
x1247relevant_x1083L0AP1_x1305L0BP1_

> <ROCS_TanimotoCombo>
0.840 

> <ROCS_ShapeTanimoto>
0.475 

> <ROCS_ColorTanimoto>
0.365 

> <ROCS_RefTversky>
0.410 

> <ROCS_RefColorTversky>
0.414 

> <ROCS_RefTverskyCombo>
0.824 

> <ROCS_FitTversky>
1.504 

> <ROCS_FitColorTversky>
0.754 

> <ROCS_FitTverskyCombo>
2.258 

> <ROCS_ColorScore>
-8.835

> <ROCS_Overlap>
1206.242

> <ROCS_Rank>
106                 

$$$$
untitled-dbase-16667_4
  -OEChem-06162310163D

 31 33  0     1  0  0  0  0  0999 V2000
  -13.3087   16.6049  -38.9369 C   0  0  0  0  0  0  0  0  0  0  0  0
  -14.2583   15.6369  -38.2377 C   0  0  0  0  0  0  0  0  0  0  0  0
   -8.4973   14.1155  -36.0351 C   0  0  0  0  0  0  0  0  0  0  0  0
  -11.0427   15.9100  -37.9977 C   0  0  0  0  0  0  0  0  0  0  0  0
  -12.6110   14.3581  -36.7812 C   0  0  0  0  0  0  0  0  0  0  0  0
   -8.9564   13.6620  -37.4151 C   0  0  0  0  0  0  0  0  0  0  0  0
   -9.2377   15.3759  -35.6198 C   0  0  0  0  0  0  0  0  0  0  0  0
  -12.0360   15.7873  -39.1755 C   0  0  1  0  0  0  0  0  0  0  0  0
  -13.4420   14.3521  -38.0842 C   0  0  2  0  0  0  0  0  0  0  0  0
  -11.1156   14.7385  -36.9769 C   0  0  0  0  0  0  0  0  0  0  0  0
  -10.4127   13.5284  -37.4692 N   0  0  0  0  0  0  0  0  0  0  0  0
  -12.5559   14.4127  -39.2591 N   0  0  0  0  0  0  0  0  0  0  0  0
  -10.6457   15.1589  -35.6826 O   0  0  0  0  0  0  0  0  0  0  0  0
  -13.7459   16.9097  -39.8957 H   0  0  0  0  0  0  0  0  0  0  0  0
  -13.1292   17.5156  -38.3583 H   0  0  0  0  0  0  0  0  0  0  0  0
  -14.6303   16.0228  -37.2850 H   0  0  0  0  0  0  0  0  0  0  0  0
  -15.1281   15.4575  -38.8806 H   0  0  0  0  0  0  0  0  0  0  0  0
   -8.6568   13.3212  -35.2993 H   0  0  0  0  0  0  0  0  0  0  0  0
   -7.4205   14.3233  -36.0682 H   0  0  0  0  0  0  0  0  0  0  0  0
  -10.0317   15.9684  -38.4275 H   0  0  0  0  0  0  0  0  0  0  0  0
  -11.2260   16.8640  -37.4849 H   0  0  0  0  0  0  0  0  0  0  0  0
  -13.1027   15.0273  -36.0651 H   0  0  0  0  0  0  0  0  0  0  0  0
  -12.6725   13.3482  -36.3464 H   0  0  0  0  0  0  0  0  0  0  0  0
   -8.6360   14.3924  -38.1717 H   0  0  0  0  0  0  0  0  0  0  0  0
   -8.4764   12.7108  -37.6895 H   0  0  0  0  0  0  0  0  0  0  0  0
   -8.9506   15.6985  -34.6174 H   0  0  0  0  0  0  0  0  0  0  0  0
   -8.9973   16.1922  -36.3045 H   0  0  0  0  0  0  0  0  0  0  0  0
  -11.5461   16.0952  -40.1012 H   0  0  0  0  0  0  0  0  0  0  0  0
  -14.0890   13.4761  -38.1059 H   0  0  0  0  0  0  0  0  0  0  0  0
  -10.6875   13.3661  -38.4371 H   0  0  0  0  0  0  0  0  0  0  0  0
  -13.1231   14.3272  -40.1015 H   0  0  0  0  0  0  0  0  0  0  0  0
  1  2  1  0  0  0  0
  1  8  1  0  0  0  0
  2  9  1  0  0  0  0
  3  6  1  0  0  0  0
  3  7  1  0  0  0  0
  4  8  1  0  0  0  0
  4 10  1  0  0  0  0
  5  9  1  0  0  0  0
  5 10  1  0  0  0  0
  6 11  1  0  0  0  0
  7 13  1  0  0  0  0
  8 12  1  0  0  0  0
  9 12  1  0  0  0  0
 10 11  1  0  0  0  0
 10 13  1  0  0  0  0
  1 14  1  0  0  0  0
  1 15  1  0  0  0  0
  2 16  1  0  0  0  0
  2 17  1  0  0  0  0
  3 18  1  0  0  0  0
  3 19  1  0  0  0  0
  4 20  1  0  0  0  0
  4 21  1  0  0  0  0
  5 22  1  0  0  0  0
  5 23  1  0  0  0  0
  6 24  1  0  0  0  0
  6 25  1  0  0  0  0
  7 26  1  0  0  0  0
  7 27  1  0  0  0  0
  8 28  1  0  0  0  0
  9 29  1  0  0  0  0
 11 30  1  0  0  0  0
 12 31  1  0  0  0  0
M  END
> <id>
EN300-1278459

> <smiles>
C1CC2CC3(CC1N2)NCCCO3

> <IUPAC Name>
8-azaspiro[bicyclo[3.2.1]octane-3,2'-[1,3]oxazinane]

> <CAS>
2172193-85-8

> <URL>
https://www.enaminestore.com/catalog/EN300-1278459

> <ROCS_ShapeQuery>
x1247relevant_x1083L0AP1_x1305L0BP1_

> <ROCS_TanimotoCombo>
0.840 

> <ROCS_ShapeTanimoto>
0.470 

> <ROCS_ColorTanimoto>
0.370 

> <ROCS_RefTversky>
0.397 

> <ROCS_RefColorTversky>
0.425 

> <ROCS_RefTverskyCombo>
0.822 

> <ROCS_FitTversky>
1.648 

> <ROCS_FitColorTversky>
0.739 

> <ROCS_FitTverskyCombo>
2.387 

> <ROCS_ColorScore>
-9.078

> <ROCS_Overlap>
1166.301

> <ROCS_Rank>
107                 

$$$$
untitled-dbase-15365_4
  -OEChem-06162310163D

 38 41  0     1  0  0  0  0  0999 V2000
   -6.6052   14.4916  -37.0479 C   0  0  0  0  0  0  0  0  0  0  0  0
   -7.7960   15.1158  -37.7972 C   0  0  0  0  0  0  0  0  0  0  0  0
   -7.3430   14.8024  -35.7336 C   0  0  0  0  0  0  0  0  0  0  0  0
  -13.6281   15.7646  -37.1775 C   0  0  0  0  0  0  0  0  0  0  0  0
  -13.3309   13.7888  -38.6232 C   0  0  0  0  0  0  0  0  0  0  0  0
  -13.2561   16.6945  -38.3414 C   0  0  0  0  0  0  0  0  0  0  0  0
  -13.1288   14.7717  -39.7867 C   0  0  0  0  0  0  0  0  0  0  0  0
   -9.4241   13.4865  -36.5630 C   0  0  0  0  0  0  0  0  0  0  0  0
  -11.1334   15.6150  -38.7389 C   0  0  0  0  0  0  0  0  0  0  0  0
   -9.6228   15.9495  -36.1237 C   0  0  0  0  0  0  0  0  0  0  0  0
  -12.8388   14.4453  -37.3187 C   0  0  0  0  0  0  0  0  0  0  0  0
   -8.6805   14.8208  -36.5389 C   0  0  0  0  0  0  0  0  0  0  0  0
  -11.3170   14.7844  -37.4302 C   0  0  1  0  0  0  0  0  0  0  0  0
  -10.5251   13.5410  -37.5246 N   0  0  0  0  0  0  0  0  0  0  0  0
  -12.4302   16.0000  -39.3508 N   0  0  0  0  0  0  0  0  0  0  0  0
  -10.9969   15.5721  -36.2678 O   0  0  0  0  0  0  0  0  0  0  0  0
   -6.4731   13.4212  -37.2394 H   0  0  0  0  0  0  0  0  0  0  0  0
   -5.6449   14.9951  -37.1825 H   0  0  0  0  0  0  0  0  0  0  0  0
   -7.6578   16.1822  -38.0129 H   0  0  0  0  0  0  0  0  0  0  0  0
   -8.0801   14.6110  -38.7247 H   0  0  0  0  0  0  0  0  0  0  0  0
   -7.2567   14.0388  -34.9552 H   0  0  0  0  0  0  0  0  0  0  0  0
   -7.0631   15.7710  -35.3013 H   0  0  0  0  0  0  0  0  0  0  0  0
  -13.4130   16.2523  -36.2216 H   0  0  0  0  0  0  0  0  0  0  0  0
  -14.7039   15.5558  -37.1943 H   0  0  0  0  0  0  0  0  0  0  0  0
  -14.3937   13.5335  -38.5366 H   0  0  0  0  0  0  0  0  0  0  0  0
  -12.7925   12.8541  -38.8144 H   0  0  0  0  0  0  0  0  0  0  0  0
  -14.1673   17.0849  -38.8112 H   0  0  0  0  0  0  0  0  0  0  0  0
  -12.7189   17.5745  -37.9657 H   0  0  0  0  0  0  0  0  0  0  0  0
  -12.5619   14.2856  -40.5908 H   0  0  0  0  0  0  0  0  0  0  0  0
  -14.0976   15.0351  -40.2300 H   0  0  0  0  0  0  0  0  0  0  0  0
   -8.7581   12.6629  -36.8446 H   0  0  0  0  0  0  0  0  0  0  0  0
   -9.8057   13.2372  -35.5662 H   0  0  0  0  0  0  0  0  0  0  0  0
  -10.5473   16.5231  -38.5446 H   0  0  0  0  0  0  0  0  0  0  0  0
  -10.5620   15.0617  -39.4972 H   0  0  0  0  0  0  0  0  0  0  0  0
   -9.4332   16.2691  -35.0837 H   0  0  0  0  0  0  0  0  0  0  0  0
   -9.4662   16.8488  -36.7440 H   0  0  0  0  0  0  0  0  0  0  0  0
  -13.0664   13.8024  -36.4609 H   0  0  0  0  0  0  0  0  0  0  0  0
  -10.1353   13.4698  -38.4694 H   0  0  0  0  0  0  0  0  0  0  0  0
  1  2  1  0  0  0  0
  1  3  1  0  0  0  0
  2 12  1  0  0  0  0
  3 12  1  0  0  0  0
  4  6  1  0  0  0  0
  4 11  1  0  0  0  0
  5  7  1  0  0  0  0
  5 11  1  0  0  0  0
  6 15  1  0  0  0  0
  7 15  1  0  0  0  0
  8 12  1  0  0  0  0
  8 14  1  0  0  0  0
  9 13  1  0  0  0  0
  9 15  1  0  0  0  0
 10 12  1  0  0  0  0
 10 16  1  0  0  0  0
 11 13  1  0  0  0  0
 13 14  1  0  0  0  0
 13 16  1  0  0  0  0
  1 17  1  0  0  0  0
  1 18  1  0  0  0  0
  2 19  1  0  0  0  0
  2 20  1  0  0  0  0
  3 21  1  0  0  0  0
  3 22  1  0  0  0  0
  4 23  1  0  0  0  0
  4 24  1  0  0  0  0
  5 25  1  0  0  0  0
  5 26  1  0  0  0  0
  6 27  1  0  0  0  0
  6 28  1  0  0  0  0
  7 29  1  0  0  0  0
  7 30  1  0  0  0  0
  8 31  1  0  0  0  0
  8 32  1  0  0  0  0
  9 33  1  0  0  0  0
  9 34  1  0  0  0  0
 10 35  1  0  0  0  0
 10 36  1  0  0  0  0
 11 37  1  0  0  0  0
 14 38  1  0  0  0  0
M  END
> <id>
EN300-1278867

> <smiles>
C1CC2(C1)CNC3(CN4CCC3CC4)OC2

> <IUPAC Name>
dispiro[4-azabicyclo[2.2.2]octane-2,2'-[1,3]oxazinane-5',1''-cyclobutane]

> <URL>
https://www.enaminestore.com/catalog/EN300-1278867

> <ROCS_ShapeQuery>
x1247relevant_x1083L0AP1_x1305L0BP1_

> <ROCS_TanimotoCombo>
0.838 

> <ROCS_ShapeTanimoto>
0.488 

> <ROCS_ColorTanimoto>
0.350 

> <ROCS_RefTversky>
0.422 

> <ROCS_RefColorTversky>
0.412 

> <ROCS_RefTverskyCombo>
0.834 

> <ROCS_FitTversky>
1.473 

> <ROCS_FitColorTversky>
0.700 

> <ROCS_FitTverskyCombo>
2.173 

> <ROCS_ColorScore>
-8.796

> <ROCS_Overlap>
1244.560

> <ROCS_Rank>
108                 

$$$$
untitled-dbase-9144_72
  -OEChem-06162310163D

 34 35  0     1  0  0  0  0  0999 V2000
  -10.4258   15.2454  -36.4778 C   0  0  0  0  0  0  0  0  0  0  0  0
  -12.6498   13.9998  -39.0341 C   0  0  0  0  0  0  0  0  0  0  0  0
  -12.1111   16.3039  -39.2325 C   0  0  0  0  0  0  0  0  0  0  0  0
  -12.9039   14.8071  -36.8213 C   0  0  0  0  0  0  0  0  0  0  0  0
  -13.6534   14.7732  -38.1635 C   0  0  1  0  0  0  0  0  0  0  0  0
  -11.5109   14.9745  -38.7384 C   0  0  1  0  0  0  0  0  0  0  0  0
  -13.5902   16.1793  -38.8024 C   0  0  2  0  0  0  0  0  0  0  0  0
   -8.3790   13.8929  -37.3942 C   0  0  0  0  0  0  0  0  0  0  0  0
   -7.5940   15.9667  -38.5742 C   0  0  0  0  0  0  0  0  0  0  0  0
   -7.3344   15.7708  -36.0837 C   0  0  0  0  0  0  0  0  0  0  0  0
   -8.2000   15.4068  -37.2891 C   0  0  0  0  0  0  0  0  0  0  0  0
  -11.5278   15.0087  -37.2723 N   0  0  0  0  0  0  0  0  0  0  0  0
  -10.2971   14.8261  -35.3302 O   0  0  0  0  0  0  0  0  0  0  0  0
  -14.4451   16.2306  -39.9352 O   0  0  0  0  0  0  0  0  0  0  0  0
   -9.4892   16.0075  -37.1227 O   0  0  0  0  0  0  0  0  0  0  0  0
  -12.4537   12.9861  -38.6685 H   0  0  0  0  0  0  0  0  0  0  0  0
  -12.9273   13.9607  -40.0925 H   0  0  0  0  0  0  0  0  0  0  0  0
  -11.6220   17.1642  -38.7633 H   0  0  0  0  0  0  0  0  0  0  0  0
  -12.0123   16.4000  -40.3196 H   0  0  0  0  0  0  0  0  0  0  0  0
  -13.2146   15.6193  -36.1576 H   0  0  0  0  0  0  0  0  0  0  0  0
  -12.9565   13.8522  -36.2882 H   0  0  0  0  0  0  0  0  0  0  0  0
  -14.6509   14.3317  -38.1217 H   0  0  0  0  0  0  0  0  0  0  0  0
  -10.5300   14.7342  -39.1524 H   0  0  0  0  0  0  0  0  0  0  0  0
  -13.8853   16.9714  -38.1066 H   0  0  0  0  0  0  0  0  0  0  0  0
   -8.8138   13.4872  -36.4737 H   0  0  0  0  0  0  0  0  0  0  0  0
   -9.0264   13.6206  -38.2341 H   0  0  0  0  0  0  0  0  0  0  0  0
   -7.4125   13.3932  -37.5260 H   0  0  0  0  0  0  0  0  0  0  0  0
   -7.4638   17.0527  -38.5032 H   0  0  0  0  0  0  0  0  0  0  0  0
   -8.2582   15.7906  -39.4280 H   0  0  0  0  0  0  0  0  0  0  0  0
   -6.6212   15.5145  -38.7926 H   0  0  0  0  0  0  0  0  0  0  0  0
   -7.2059   16.8566  -36.0081 H   0  0  0  0  0  0  0  0  0  0  0  0
   -7.7730   15.4088  -35.1482 H   0  0  0  0  0  0  0  0  0  0  0  0
   -6.3288   15.3466  -36.1839 H   0  0  0  0  0  0  0  0  0  0  0  0
  -14.2909   17.0875  -40.3654 H   0  0  0  0  0  0  0  0  0  0  0  0
  1 12  1  0  0  0  0
  1 13  2  0  0  0  0
  1 15  1  0  0  0  0
  2  5  1  0  0  0  0
  2  6  1  0  0  0  0
  3  6  1  6  0  0  0
  3  7  1  0  0  0  0
  4  5  1  6  0  0  0
  4 12  1  0  0  0  0
  5  7  1  0  0  0  0
  6 12  1  0  0  0  0
  7 14  1  1  0  0  0
  8 11  1  0  0  0  0
  9 11  1  0  0  0  0
 10 11  1  0  0  0  0
 11 15  1  0  0  0  0
  2 16  1  0  0  0  0
  2 17  1  0  0  0  0
  3 18  1  0  0  0  0
  3 19  1  0  0  0  0
  4 20  1  0  0  0  0
  4 21  1  0  0  0  0
  5 22  1  0  0  0  0
  6 23  1  0  0  0  0
  7 24  1  0  0  0  0
  8 25  1  0  0  0  0
  8 26  1  0  0  0  0
  8 27  1  0  0  0  0
  9 28  1  0  0  0  0
  9 29  1  0  0  0  0
  9 30  1  0  0  0  0
 10 31  1  0  0  0  0
 10 32  1  0  0  0  0
 10 33  1  0  0  0  0
 14 34  1  0  0  0  0
M  END
> <id>
EN300-315884

> <smiles>
CC(C)(C)OC(=O)N1C[C@@H]2C[C@H]1C[C@H]2O |&1:9,11,13,r|

> <IUPAC Name>
rac-tert-butyl (1R,4R,5S)-5-hydroxy-2-azabicyclo[2.2.1]heptane-2-carboxylate

> <CAS>
198835-03-9

> <Purity>
95

> <URL>
https://www.enaminestore.com/catalog/EN300-315884

> <MP>
96-98

> <ROCS_ShapeQuery>
x1247relevant_x1083L0AP1_x1305L0BP1_

> <ROCS_TanimotoCombo>
0.838 

> <ROCS_ShapeTanimoto>
0.476 

> <ROCS_ColorTanimoto>
0.362 

> <ROCS_RefTversky>
0.409 

> <ROCS_RefColorTversky>
0.402 

> <ROCS_RefTverskyCombo>
0.811 

> <ROCS_FitTversky>
1.526 

> <ROCS_FitColorTversky>
0.782 

> <ROCS_FitTverskyCombo>
2.308 

> <ROCS_ColorScore>
-8.561

> <ROCS_Overlap>
1203.642

> <ROCS_Rank>
109                 

$$$$
untitled-dbase-37494_23
  -OEChem-06162310163D

 40 42  0     1  0  0  0  0  0999 V2000
  -12.8738   15.6610  -36.9259 C   0  0  0  0  0  0  0  0  0  0  0  0
  -13.7383   15.5867  -39.4549 C   0  0  0  0  0  0  0  0  0  0  0  0
   -8.6686   14.8340  -36.5894 C   0  0  0  0  0  0  0  0  0  0  0  0
  -10.6437   13.5286  -37.3410 C   0  0  0  0  0  0  0  0  0  0  0  0
   -9.9398   15.3878  -38.6935 C   0  0  0  0  0  0  0  0  0  0  0  0
  -11.8196   13.8520  -38.2563 C   0  0  2  0  0  0  0  0  0  0  0  0
  -11.3438   15.0165  -39.1746 C   0  0  1  0  0  0  0  0  0  0  0  0
  -13.1168   14.2951  -37.5416 C   0  0  1  0  0  0  0  0  0  0  0  0
  -12.3786   16.1580  -39.0807 C   0  0  2  0  0  0  0  0  0  0  0  0
  -13.7218   13.2315  -36.6405 C   0  0  0  0  0  0  0  0  0  0  0  0
   -9.6247   15.6497  -34.2902 C   0  0  0  0  0  0  0  0  0  0  0  0
   -9.4639   13.2924  -33.4380 C   0  0  0  0  0  0  0  0  0  0  0  0
   -7.3810   14.6699  -33.7066 C   0  0  0  0  0  0  0  0  0  0  0  0
   -8.7755   14.3798  -34.2600 C   0  0  0  0  0  0  0  0  0  0  0  0
  -12.4976   16.6397  -37.6865 N   0  0  0  0  0  0  0  0  0  0  0  0
   -9.7131   14.6283  -37.4780 N   0  0  0  0  0  0  0  0  0  0  0  0
  -14.4401   15.9329  -40.3940 O   0  0  0  0  0  0  0  0  0  0  0  0
   -7.8603   15.7560  -36.6748 O   0  0  0  0  0  0  0  0  0  0  0  0
  -14.0994   14.5926  -38.5784 O   0  0  0  0  0  0  0  0  0  0  0  0
   -8.6418   13.8891  -35.5985 O   0  0  0  0  0  0  0  0  0  0  0  0
  -13.0613   15.9244  -35.2543 Cl  0  0  0  0  0  0  0  0  0  0  0  0
  -11.9803   17.5150  -40.1469 Cl  0  0  0  0  0  0  0  0  0  0  0  0
  -10.9263   13.4610  -36.2835 H   0  0  0  0  0  0  0  0  0  0  0  0
  -10.1576   12.5851  -37.6179 H   0  0  0  0  0  0  0  0  0  0  0  0
   -9.1687   15.1490  -39.4355 H   0  0  0  0  0  0  0  0  0  0  0  0
   -9.8393   16.4501  -38.4398 H   0  0  0  0  0  0  0  0  0  0  0  0
  -12.0345   12.9911  -38.8930 H   0  0  0  0  0  0  0  0  0  0  0  0
  -11.2848   14.6462  -40.1995 H   0  0  0  0  0  0  0  0  0  0  0  0
  -13.8490   12.2975  -37.1912 H   0  0  0  0  0  0  0  0  0  0  0  0
  -14.6974   13.5570  -36.2742 H   0  0  0  0  0  0  0  0  0  0  0  0
  -13.0704   13.0467  -35.7841 H   0  0  0  0  0  0  0  0  0  0  0  0
   -9.1340   16.4327  -34.8793 H   0  0  0  0  0  0  0  0  0  0  0  0
  -10.6153   15.4625  -34.7173 H   0  0  0  0  0  0  0  0  0  0  0  0
   -9.7544   16.0575  -33.2812 H   0  0  0  0  0  0  0  0  0  0  0  0
   -8.8581   12.3794  -33.4136 H   0  0  0  0  0  0  0  0  0  0  0  0
  -10.4245   13.0136  -33.8861 H   0  0  0  0  0  0  0  0  0  0  0  0
   -9.6432   13.6171  -32.4079 H   0  0  0  0  0  0  0  0  0  0  0  0
   -6.7717   13.7592  -33.6849 H   0  0  0  0  0  0  0  0  0  0  0  0
   -6.8576   15.4217  -34.3062 H   0  0  0  0  0  0  0  0  0  0  0  0
   -7.4390   15.0280  -32.6724 H   0  0  0  0  0  0  0  0  0  0  0  0
  1  8  1  0  0  0  0
  1 15  2  0  0  0  0
  1 21  1  0  0  0  0
  2  9  1  0  0  0  0
  2 17  2  0  0  0  0
  2 19  1  0  0  0  0
  3 16  1  0  0  0  0
  3 18  2  0  0  0  0
  3 20  1  0  0  0  0
  4  6  1  0  0  0  0
  4 16  1  0  0  0  0
  5  7  1  0  0  0  0
  5 16  1  0  0  0  0
  6  7  1  0  0  0  0
  6  8  1  0  0  0  0
  7  9  1  0  0  0  0
  8 10  1  0  0  0  0
  8 19  1  0  0  0  0
  9 15  1  0  0  0  0
  9 22  1  0  0  0  0
 11 14  1  0  0  0  0
 12 14  1  0  0  0  0
 13 14  1  0  0  0  0
 14 20  1  0  0  0  0
  4 23  1  0  0  0  0
  4 24  1  0  0  0  0
  5 25  1  0  0  0  0
  5 26  1  0  0  0  0
  6 27  1  0  0  0  0
  7 28  1  0  0  0  0
 10 29  1  0  0  0  0
 10 30  1  0  0  0  0
 10 31  1  0  0  0  0
 11 32  1  0  0  0  0
 11 33  1  0  0  0  0
 11 34  1  0  0  0  0
 12 35  1  0  0  0  0
 12 36  1  0  0  0  0
 12 37  1  0  0  0  0
 13 38  1  0  0  0  0
 13 39  1  0  0  0  0
 13 40  1  0  0  0  0
M  END
> <id>
EN300-1689070

> <smiles>
CC(C)(C)OC(=O)N1CC2C(C1)C3(Cl)N=C(Cl)C2(C)OC3=O

> <MDLNUMBER>
MFCD31665479

> <IUPAC Name>
tert-butyl 1,11-dichloro-7-methyl-9-oxo-8-oxa-4,10-diazatricyclo[5.2.2.0,2,6]undec-10-ene-4-carboxylate

> <CAS>
2225147-52-2

> <Purity>
95

> <URL>
https://www.enaminestore.com/catalog/EN300-1689070

> <ROCS_ShapeQuery>
x1247relevant_x1083L0AP1_x1305L0BP1_

> <ROCS_TanimotoCombo>
0.838 

> <ROCS_ShapeTanimoto>
0.530 

> <ROCS_ColorTanimoto>
0.308 

> <ROCS_RefTversky>
0.475 

> <ROCS_RefColorTversky>
0.365 

> <ROCS_RefTverskyCombo>
0.840 

> <ROCS_FitTversky>
1.278 

> <ROCS_FitColorTversky>
0.663 

> <ROCS_FitTverskyCombo>
1.941 

> <ROCS_ColorScore>
-7.775

> <ROCS_Overlap>
1406.806

> <ROCS_Rank>
110                 

$$$$
untitled-dbase-42651_0
  -OEChem-06162310163D

 21 23  0     1  0  0  0  0  0999 V2000
   -9.2654   15.2111  -36.6874 C   0  0  0  0  0  0  0  0  0  0  0  0
   -9.5523   13.8314  -36.7893 C   0  0  0  0  0  0  0  0  0  0  0  0
  -10.1970   16.1786  -37.0780 C   0  0  0  0  0  0  0  0  0  0  0  0
  -10.7800   13.3807  -37.2826 C   0  0  0  0  0  0  0  0  0  0  0  0
  -11.4067   15.7262  -37.5479 C   0  0  0  0  0  0  0  0  0  0  0  0
  -11.6943   14.3455  -37.6463 C   0  0  0  0  0  0  0  0  0  0  0  0
  -12.6822   16.0214  -39.5907 C   0  0  0  0  0  0  0  0  0  0  0  0
  -12.9254   14.5001  -39.6800 C   0  0  0  0  0  0  0  0  0  0  0  0
  -13.6561   15.3817  -37.6221 C   0  0  0  0  0  0  0  0  0  0  0  0
  -12.6137   16.4120  -38.1147 C   0  0  1  0  0  0  0  0  0  0  0  0
  -13.0226   14.1648  -38.2228 N   0  0  2  0  0  0  0  0  0  0  0  0
  -12.5240   16.7732  -40.5383 O   0  0  0  0  0  0  0  0  0  0  0  0
   -8.2963   15.5242  -36.3066 H   0  0  0  0  0  0  0  0  0  0  0  0
   -8.7996   13.1091  -36.4832 H   0  0  0  0  0  0  0  0  0  0  0  0
   -9.9664   17.2353  -37.0175 H   0  0  0  0  0  0  0  0  0  0  0  0
  -10.9947   12.3228  -37.3725 H   0  0  0  0  0  0  0  0  0  0  0  0
  -13.8789   14.3043  -40.1776 H   0  0  0  0  0  0  0  0  0  0  0  0
  -12.0968   13.9861  -40.1751 H   0  0  0  0  0  0  0  0  0  0  0  0
  -13.7395   15.3082  -36.5282 H   0  0  0  0  0  0  0  0  0  0  0  0
  -14.6588   15.5479  -38.0372 H   0  0  0  0  0  0  0  0  0  0  0  0
  -12.8087   17.4511  -37.8622 H   0  0  0  0  0  0  0  0  0  0  0  0
  1  2  2  0  0  0  0
  1  3  1  0  0  0  0
  2  4  1  0  0  0  0
  3  5  2  0  0  0  0
  4  6  2  0  0  0  0
  5  6  1  0  0  0  0
  5 10  1  0  0  0  0
  6 11  1  0  0  0  0
  7  8  1  0  0  0  0
  7 10  1  0  0  0  0
  7 12  2  0  0  0  0
  8 11  1  0  0  0  0
  9 10  1  0  0  0  0
  9 11  1  0  0  0  0
  1 13  1  0  0  0  0
  2 14  1  0  0  0  0
  3 15  1  0  0  0  0
  4 16  1  0  0  0  0
  8 17  1  0  0  0  0
  8 18  1  0  0  0  0
  9 19  1  0  0  0  0
  9 20  1  0  0  0  0
 10 21  1  0  0  0  0
M  END
> <id>
EN300-39847374

> <smiles>
O=C1CN2CC1C=3C=CC=CC23

> <IUPAC Name>
1-azatricyclo[6.2.1.0,2,7]undeca-2,4,6-trien-9-one

> <URL>
https://www.enaminestore.com/catalog/EN300-39847374

> <ROCS_ShapeQuery>
x1247relevant_x1083L0AP1_x1305L0BP1_

> <ROCS_TanimotoCombo>
0.837 

> <ROCS_ShapeTanimoto>
0.488 

> <ROCS_ColorTanimoto>
0.349 

> <ROCS_RefTversky>
0.405 

> <ROCS_RefColorTversky>
0.371 

> <ROCS_RefTverskyCombo>
0.776 

> <ROCS_FitTversky>
1.724 

> <ROCS_FitColorTversky>
0.857 

> <ROCS_FitTverskyCombo>
2.581 

> <ROCS_ColorScore>
-7.854

> <ROCS_Overlap>
1191.076

> <ROCS_Rank>
111                 

$$$$
untitled-dbase-17098_0
  -OEChem-06162310163D

 39 42  0     1  0  0  0  0  0999 V2000
  -12.9843   16.9632  -38.3562 C   0  0  0  0  0  0  0  0  0  0  0  0
  -13.9370   16.1122  -37.5141 C   0  0  0  0  0  0  0  0  0  0  0  0
  -11.1308   15.2725  -38.9078 C   0  0  0  0  0  0  0  0  0  0  0  0
  -12.7035   13.8559  -37.4961 C   0  0  0  0  0  0  0  0  0  0  0  0
   -8.9586   13.9352  -37.1631 C   0  0  0  0  0  0  0  0  0  0  0  0
   -7.5790   15.3329  -35.4791 C   0  0  0  0  0  0  0  0  0  0  0  0
   -9.0222   14.1688  -34.5752 C   0  0  0  0  0  0  0  0  0  0  0  0
   -9.9762   15.9865  -36.1389 C   0  0  0  0  0  0  0  0  0  0  0  0
  -12.4133   15.9897  -39.3907 C   0  0  1  0  0  0  0  0  0  0  0  0
  -13.8337   14.7097  -38.1191 C   0  0  2  0  0  0  0  0  0  0  0  0
   -8.9662   14.8611  -35.9542 C   0  0  0  0  0  0  0  0  0  0  0  0
  -11.2969   14.5219  -37.5523 C   0  0  0  0  0  0  0  0  0  0  0  0
  -14.5608   15.3437  -40.3672 C   0  0  0  0  0  0  0  0  0  0  0  0
  -10.3110   13.4338  -37.3981 N   0  0  0  0  0  0  0  0  0  0  0  0
  -13.4411   14.9419  -39.5200 N   0  0  0  0  0  0  0  0  0  0  0  0
   -7.8501   14.8922  -34.1261 O   0  0  0  0  0  0  0  0  0  0  0  0
  -11.2608   15.4344  -36.4337 O   0  0  0  0  0  0  0  0  0  0  0  0
  -13.5534   17.7589  -38.8521 H   0  0  0  0  0  0  0  0  0  0  0  0
  -12.2125   17.4493  -37.7522 H   0  0  0  0  0  0  0  0  0  0  0  0
  -13.6920   16.1397  -36.4483 H   0  0  0  0  0  0  0  0  0  0  0  0
  -14.9575   16.5007  -37.6185 H   0  0  0  0  0  0  0  0  0  0  0  0
  -10.8429   14.5536  -39.6886 H   0  0  0  0  0  0  0  0  0  0  0  0
  -10.3228   16.0096  -38.8587 H   0  0  0  0  0  0  0  0  0  0  0  0
  -12.9671   13.6311  -36.4539 H   0  0  0  0  0  0  0  0  0  0  0  0
  -12.6866   12.8959  -38.0327 H   0  0  0  0  0  0  0  0  0  0  0  0
   -8.5811   14.4571  -38.0504 H   0  0  0  0  0  0  0  0  0  0  0  0
   -8.2920   13.0815  -36.9956 H   0  0  0  0  0  0  0  0  0  0  0  0
   -6.7178   14.8016  -35.8974 H   0  0  0  0  0  0  0  0  0  0  0  0
   -7.3952   16.4105  -35.5229 H   0  0  0  0  0  0  0  0  0  0  0  0
   -9.8967   14.3933  -33.9573 H   0  0  0  0  0  0  0  0  0  0  0  0
   -8.8404   13.0891  -34.5652 H   0  0  0  0  0  0  0  0  0  0  0  0
  -10.0785   16.5862  -35.2277 H   0  0  0  0  0  0  0  0  0  0  0  0
   -9.6733   16.6747  -36.9344 H   0  0  0  0  0  0  0  0  0  0  0  0
  -12.1980   16.4882  -40.3428 H   0  0  0  0  0  0  0  0  0  0  0  0
  -14.7773   14.1590  -38.0309 H   0  0  0  0  0  0  0  0  0  0  0  0
  -15.2911   14.5230  -40.4242 H   0  0  0  0  0  0  0  0  0  0  0  0
  -15.0434   16.2346  -39.9389 H   0  0  0  0  0  0  0  0  0  0  0  0
  -14.1915   15.5764  -41.3769 H   0  0  0  0  0  0  0  0  0  0  0  0
  -10.3156   12.8391  -38.2263 H   0  0  0  0  0  0  0  0  0  0  0  0
  1  2  1  0  0  0  0
  1  9  1  0  0  0  0
  2 10  1  0  0  0  0
  3  9  1  0  0  0  0
  3 12  1  0  0  0  0
  4 10  1  0  0  0  0
  4 12  1  0  0  0  0
  5 11  1  0  0  0  0
  5 14  1  0  0  0  0
  6 11  1  0  0  0  0
  6 16  1  0  0  0  0
  7 11  1  0  0  0  0
  7 16  1  0  0  0  0
  8 11  1  0  0  0  0
  8 17  1  0  0  0  0
  9 15  1  0  0  0  0
 10 15  1  0  0  0  0
 12 14  1  0  0  0  0
 12 17  1  0  0  0  0
 13 15  1  0  0  0  0
  1 18  1  0  0  0  0
  1 19  1  0  0  0  0
  2 20  1  0  0  0  0
  2 21  1  0  0  0  0
  3 22  1  0  0  0  0
  3 23  1  0  0  0  0
  4 24  1  0  0  0  0
  4 25  1  0  0  0  0
  5 26  1  0  0  0  0
  5 27  1  0  0  0  0
  6 28  1  0  0  0  0
  6 29  1  0  0  0  0
  7 30  1  0  0  0  0
  7 31  1  0  0  0  0
  8 32  1  0  0  0  0
  8 33  1  0  0  0  0
  9 34  1  0  0  0  0
 10 35  1  0  0  0  0
 13 36  1  0  0  0  0
 13 37  1  0  0  0  0
 13 38  1  0  0  0  0
 14 39  1  0  0  0  0
M  END
> <id>
EN300-1278768

> <smiles>
CN1C2CCC1CC3(C2)NCC4(COC4)CO3

> <IUPAC Name>
8-methyldispiro[8-azabicyclo[3.2.1]octane-3,2'-[1,3]oxazinane-5',3''-oxetane]

> <CAS>
2172138-74-6

> <URL>
https://www.enaminestore.com/catalog/EN300-1278768

> <ROCS_ShapeQuery>
x1247relevant_x1083L0AP1_x1305L0BP1_

> <ROCS_TanimotoCombo>
0.837 

> <ROCS_ShapeTanimoto>
0.518 

> <ROCS_ColorTanimoto>
0.320 

> <ROCS_RefTversky>
0.444 

> <ROCS_RefColorTversky>
0.392 

> <ROCS_RefTverskyCombo>
0.836 

> <ROCS_FitTversky>
1.470 

> <ROCS_FitColorTversky>
0.634 

> <ROCS_FitTverskyCombo>
2.104 

> <ROCS_ColorScore>
-8.391

> <ROCS_Overlap>
1310.101

> <ROCS_Rank>
112                 

$$$$
untitled-dbase-42490_3
  -OEChem-06162310163D

 33 35  0     1  0  0  0  0  0999 V2000
   -9.4175   15.9143  -36.1133 C   0  0  0  0  0  0  0  0  0  0  0  0
   -8.5651   14.6562  -36.1976 C   0  0  0  0  0  0  0  0  0  0  0  0
  -14.2793   14.6588  -39.1820 C   0  0  0  0  0  0  0  0  0  0  0  0
  -13.3141   15.3789  -40.1164 C   0  0  0  0  0  0  0  0  0  0  0  0
  -10.9051   15.5676  -36.1959 C   0  0  0  0  0  0  0  0  0  0  0  0
  -12.7330   14.1348  -37.2278 C   0  0  0  0  0  0  0  0  0  0  0  0
  -11.1497   15.4149  -38.7639 C   0  0  0  0  0  0  0  0  0  0  0  0
   -8.9582   13.8080  -37.4004 C   0  0  0  0  0  0  0  0  0  0  0  0
  -13.8278   15.0739  -37.7806 C   0  0  1  0  0  0  0  0  0  0  0  0
  -12.4158   16.1949  -39.1826 C   0  0  2  0  0  0  0  0  0  0  0  0
  -11.2744   14.6562  -37.4091 C   0  0  0  0  0  0  0  0  0  0  0  0
  -10.3828   13.4739  -37.3855 N   0  0  0  0  0  0  0  0  0  0  0  0
  -13.2835   16.4188  -38.0176 N   0  0  0  0  0  0  0  0  0  0  0  0
   -9.2121   16.4408  -35.1718 H   0  0  0  0  0  0  0  0  0  0  0  0
   -9.1473   16.6044  -36.9243 H   0  0  0  0  0  0  0  0  0  0  0  0
   -7.5059   14.9276  -36.2627 H   0  0  0  0  0  0  0  0  0  0  0  0
   -8.6886   14.0700  -35.2785 H   0  0  0  0  0  0  0  0  0  0  0  0
  -15.2919   15.0412  -39.3653 H   0  0  0  0  0  0  0  0  0  0  0  0
  -14.3341   13.5778  -39.3255 H   0  0  0  0  0  0  0  0  0  0  0  0
  -12.7600   14.7225  -40.7917 H   0  0  0  0  0  0  0  0  0  0  0  0
  -13.8895   16.0603  -40.7570 H   0  0  0  0  0  0  0  0  0  0  0  0
  -11.1990   15.0641  -35.2613 H   0  0  0  0  0  0  0  0  0  0  0  0
  -11.4894   16.4987  -36.2321 H   0  0  0  0  0  0  0  0  0  0  0  0
  -12.9314   13.9851  -36.1576 H   0  0  0  0  0  0  0  0  0  0  0  0
  -12.8410   13.1452  -37.6902 H   0  0  0  0  0  0  0  0  0  0  0  0
  -10.8635   14.7446  -39.5800 H   0  0  0  0  0  0  0  0  0  0  0  0
  -10.3275   16.1400  -38.6877 H   0  0  0  0  0  0  0  0  0  0  0  0
   -8.6807   14.3091  -38.3302 H   0  0  0  0  0  0  0  0  0  0  0  0
   -8.3870   12.8759  -37.3701 H   0  0  0  0  0  0  0  0  0  0  0  0
  -14.6763   15.0920  -37.0932 H   0  0  0  0  0  0  0  0  0  0  0  0
  -12.1228   17.1372  -39.6561 H   0  0  0  0  0  0  0  0  0  0  0  0
  -10.5702   12.8208  -38.1276 H   0  0  0  0  0  0  0  0  0  0  0  0
  -14.0465   17.0387  -38.2901 H   0  0  0  0  0  0  0  0  0  0  0  0
  1  2  1  0  0  0  0
  1  5  1  0  0  0  0
  2  8  1  0  0  0  0
  3  4  1  0  0  0  0
  3  9  1  0  0  0  0
  4 10  1  0  0  0  0
  5 11  1  0  0  0  0
  6  9  1  0  0  0  0
  6 11  1  0  0  0  0
  7 10  1  0  0  0  0
  7 11  1  0  0  0  0
  8 12  1  0  0  0  0
  9 13  1  0  0  0  0
 10 13  1  0  0  0  0
 11 12  1  0  0  0  0
  1 14  1  0  0  0  0
  1 15  1  0  0  0  0
  2 16  1  0  0  0  0
  2 17  1  0  0  0  0
  3 18  1  0  0  0  0
  3 19  1  0  0  0  0
  4 20  1  0  0  0  0
  4 21  1  0  0  0  0
  5 22  1  0  0  0  0
  5 23  1  0  0  0  0
  6 24  1  0  0  0  0
  6 25  1  0  0  0  0
  7 26  1  0  0  0  0
  7 27  1  0  0  0  0
  8 28  1  0  0  0  0
  8 29  1  0  0  0  0
  9 30  1  0  0  0  0
 10 31  1  0  0  0  0
 12 32  1  0  0  0  0
 13 33  1  0  0  0  0
M  END
> <id>
EN300-27718822

> <smiles>
C1CC2CC3(CCCCN3)CC1N2

> <IUPAC Name>
8-azaspiro[bicyclo[3.2.1]octane-3,2'-piperidine]

> <CAS>
2649054-12-4

> <URL>
https://www.enaminestore.com/catalog/EN300-27718822

> <ROCS_ShapeQuery>
x1247relevant_x1083L0AP1_x1305L0BP1_

> <ROCS_TanimotoCombo>
0.837 

> <ROCS_ShapeTanimoto>
0.495 

> <ROCS_ColorTanimoto>
0.342 

> <ROCS_RefTversky>
0.410 

> <ROCS_RefColorTversky>
0.390 

> <ROCS_RefTverskyCombo>
0.800 

> <ROCS_FitTversky>
1.727 

> <ROCS_FitColorTversky>
0.734 

> <ROCS_FitTverskyCombo>
2.462 

> <ROCS_ColorScore>
-8.309

> <ROCS_Overlap>
1204.892

> <ROCS_Rank>
113                 

$$$$
untitled-dbase-4157_0
  -OEChem-06162310163D

 24 26  0     1  0  0  0  0  0999 V2000
  -13.5979   14.9620  -39.3566 C   0  0  0  0  0  0  0  0  0  0  0  0
  -13.9939   14.8317  -38.0835 C   0  0  0  0  0  0  0  0  0  0  0  0
   -9.8146   14.9294  -38.6632 C   0  0  0  0  0  0  0  0  0  0  0  0
  -10.4807   14.7128  -36.5223 C   0  0  0  0  0  0  0  0  0  0  0  0
  -11.2422   14.4862  -38.7787 C   0  0  1  0  0  0  0  0  0  0  0  0
  -11.6980   14.3369  -37.3128 C   0  0  2  0  0  0  0  0  0  0  0  0
  -12.2154   15.5620  -39.3040 C   0  0  1  0  0  0  0  0  0  0  0  0
  -12.8582   15.3511  -37.2381 C   0  0  2  0  0  0  0  0  0  0  0  0
  -11.8188   16.3774  -40.5127 C   0  0  0  0  0  0  0  0  0  0  0  0
  -13.2570   15.9056  -35.8903 C   0  0  0  0  0  0  0  0  0  0  0  0
   -9.0668   15.1627  -39.6009 O   0  0  0  0  0  0  0  0  0  0  0  0
  -10.4043   14.7288  -35.3030 O   0  0  0  0  0  0  0  0  0  0  0  0
   -9.4567   15.0328  -37.3564 O   0  0  0  0  0  0  0  0  0  0  0  0
  -12.3568   16.3960  -38.1192 O   0  0  0  0  0  0  0  0  0  0  0  0
  -14.1290   14.6261  -40.2325 H   0  0  0  0  0  0  0  0  0  0  0  0
  -14.9051   14.3710  -37.7377 H   0  0  0  0  0  0  0  0  0  0  0  0
  -11.2874   13.5389  -39.3265 H   0  0  0  0  0  0  0  0  0  0  0  0
  -11.9883   13.3091  -37.0703 H   0  0  0  0  0  0  0  0  0  0  0  0
  -10.8060   16.7749  -40.3941 H   0  0  0  0  0  0  0  0  0  0  0  0
  -12.5042   17.2192  -40.6514 H   0  0  0  0  0  0  0  0  0  0  0  0
  -11.8427   15.7620  -41.4174 H   0  0  0  0  0  0  0  0  0  0  0  0
  -12.3775   16.2594  -35.3436 H   0  0  0  0  0  0  0  0  0  0  0  0
  -13.7497   15.1363  -35.2876 H   0  0  0  0  0  0  0  0  0  0  0  0
  -13.9490   16.7452  -36.0085 H   0  0  0  0  0  0  0  0  0  0  0  0
  1  2  2  0  0  0  0
  1  7  1  0  0  0  0
  2  8  1  0  0  0  0
  3  5  1  0  0  0  0
  3 11  2  0  0  0  0
  3 13  1  0  0  0  0
  4  6  1  0  0  0  0
  4 12  2  0  0  0  0
  4 13  1  0  0  0  0
  5  6  1  0  0  0  0
  5  7  1  0  0  0  0
  6  8  1  0  0  0  0
  7  9  1  0  0  0  0
  7 14  1  0  0  0  0
  8 10  1  0  0  0  0
  8 14  1  0  0  0  0
  1 15  1  0  0  0  0
  2 16  1  0  0  0  0
  5 17  1  0  0  0  0
  6 18  1  0  0  0  0
  9 19  1  0  0  0  0
  9 20  1  0  0  0  0
  9 21  1  0  0  0  0
 10 22  1  0  0  0  0
 10 23  1  0  0  0  0
 10 24  1  0  0  0  0
M  END
> <id>
EN300-176430

> <smiles>
CC1(OC2(C)C=C1)C3C2C(=O)OC3=O

> <MDLNUMBER>
MFCD00598255

> <IUPAC Name>
1,7-dimethyl-4,10-dioxatricyclo[5.2.1.0,2,6]dec-8-ene-3,5-dione

> <CAS>
77880-59-2

> <Purity>
91

> <URL>
https://www.enaminestore.com/catalog/EN300-176430

> <ROCS_ShapeQuery>
x1247relevant_x1083L0AP1_x1305L0BP1_

> <ROCS_TanimotoCombo>
0.837 

> <ROCS_ShapeTanimoto>
0.495 

> <ROCS_ColorTanimoto>
0.342 

> <ROCS_RefTversky>
0.420 

> <ROCS_RefColorTversky>
0.388 

> <ROCS_RefTverskyCombo>
0.807 

> <ROCS_FitTversky>
1.567 

> <ROCS_FitColorTversky>
0.743 

> <ROCS_FitTverskyCombo>
2.310 

> <ROCS_ColorScore>
-8.250

> <ROCS_Overlap>
1236.283

> <ROCS_Rank>
114                 

$$$$
untitled-dbase-36322_5
  -OEChem-06162310163D

 36 39  0     1  0  0  0  0  0999 V2000
  -13.2717   13.7893  -38.7156 C   0  0  0  0  0  0  0  0  0  0  0  0
  -13.6772   15.6796  -37.1823 C   0  0  0  0  0  0  0  0  0  0  0  0
   -8.7054   15.0270  -36.6938 C   0  0  0  0  0  0  0  0  0  0  0  0
  -13.0335   14.8306  -39.8197 C   0  0  0  0  0  0  0  0  0  0  0  0
  -13.2983   16.6726  -38.2896 C   0  0  0  0  0  0  0  0  0  0  0  0
  -11.1227   15.6886  -38.6337 C   0  0  0  0  0  0  0  0  0  0  0  0
   -9.7240   15.8779  -35.9487 C   0  0  0  0  0  0  0  0  0  0  0  0
   -9.2920   12.7222  -35.5697 C   0  0  0  0  0  0  0  0  0  0  0  0
   -8.3226   12.5305  -37.3791 C   0  0  0  0  0  0  0  0  0  0  0  0
  -12.8504   14.3883  -37.3602 C   0  0  0  0  0  0  0  0  0  0  0  0
   -9.2422   13.6258  -36.8154 C   0  0  0  0  0  0  0  0  0  0  0  0
  -11.3330   14.7636  -37.3931 C   0  0  1  0  0  0  0  0  0  0  0  0
  -10.5263   13.5312  -37.5278 N   0  0  0  0  0  0  0  0  0  0  0  0
  -12.4016   16.0578  -39.2897 N   0  0  0  0  0  0  0  0  0  0  0  0
   -8.6821   11.6265  -36.3012 O   0  0  0  0  0  0  0  0  0  0  0  0
  -11.0744   15.4707  -36.1667 O   0  0  0  0  0  0  0  0  0  0  0  0
  -14.3329   13.5147  -38.6909 H   0  0  0  0  0  0  0  0  0  0  0  0
  -12.7097   12.8737  -38.9295 H   0  0  0  0  0  0  0  0  0  0  0  0
  -13.5034   16.1276  -36.1982 H   0  0  0  0  0  0  0  0  0  0  0  0
  -14.7469   15.4452  -37.2400 H   0  0  0  0  0  0  0  0  0  0  0  0
   -8.5472   15.4539  -37.6926 H   0  0  0  0  0  0  0  0  0  0  0  0
   -7.7434   15.0495  -36.1698 H   0  0  0  0  0  0  0  0  0  0  0  0
  -12.4046   14.3988  -40.6093 H   0  0  0  0  0  0  0  0  0  0  0  0
  -13.9827   15.0849  -40.3101 H   0  0  0  0  0  0  0  0  0  0  0  0
  -14.2057   17.0447  -38.7821 H   0  0  0  0  0  0  0  0  0  0  0  0
  -12.8166   17.5585  -37.8555 H   0  0  0  0  0  0  0  0  0  0  0  0
  -10.5906   16.6062  -38.3494 H   0  0  0  0  0  0  0  0  0  0  0  0
  -10.4895   15.2152  -39.3971 H   0  0  0  0  0  0  0  0  0  0  0  0
   -9.5113   15.9034  -34.8562 H   0  0  0  0  0  0  0  0  0  0  0  0
   -9.6405   16.9351  -36.2812 H   0  0  0  0  0  0  0  0  0  0  0  0
   -8.6621   13.0395  -34.7341 H   0  0  0  0  0  0  0  0  0  0  0  0
  -10.2743   12.4242  -35.1918 H   0  0  0  0  0  0  0  0  0  0  0  0
   -8.5810   12.0925  -38.3508 H   0  0  0  0  0  0  0  0  0  0  0  0
   -7.2500   12.7528  -37.3660 H   0  0  0  0  0  0  0  0  0  0  0  0
  -13.0968   13.7014  -36.5442 H   0  0  0  0  0  0  0  0  0  0  0  0
  -10.3873   13.3450  -38.5241 H   0  0  0  0  0  0  0  0  0  0  0  0
  1  4  1  0  0  0  0
  1 10  1  0  0  0  0
  2  5  1  0  0  0  0
  2 10  1  0  0  0  0
  3  7  1  0  0  0  0
  3 11  1  0  0  0  0
  4 14  1  0  0  0  0
  5 14  1  0  0  0  0
  6 12  1  0  0  0  0
  6 14  1  0  0  0  0
  7 16  1  0  0  0  0
  8 11  1  0  0  0  0
  8 15  1  0  0  0  0
  9 11  1  0  0  0  0
  9 15  1  0  0  0  0
 10 12  1  0  0  0  0
 11 13  1  0  0  0  0
 12 13  1  0  0  0  0
 12 16  1  0  0  0  0
  1 17  1  0  0  0  0
  1 18  1  0  0  0  0
  2 19  1  0  0  0  0
  2 20  1  0  0  0  0
  3 21  1  0  0  0  0
  3 22  1  0  0  0  0
  4 23  1  0  0  0  0
  4 24  1  0  0  0  0
  5 25  1  0  0  0  0
  5 26  1  0  0  0  0
  6 27  1  0  0  0  0
  6 28  1  0  0  0  0
  7 29  1  0  0  0  0
  7 30  1  0  0  0  0
  8 31  1  0  0  0  0
  8 32  1  0  0  0  0
  9 33  1  0  0  0  0
  9 34  1  0  0  0  0
 10 35  1  0  0  0  0
 13 36  1  0  0  0  0
M  END
> <id>
EN300-1280039

> <smiles>
C1OCC12CCOC3(CN4CCC3CC4)N2

> <IUPAC Name>
dispiro[4-azabicyclo[2.2.2]octane-2,2'-[1,3]oxazinane-4',3''-oxetane]

> <URL>
https://www.enaminestore.com/catalog/EN300-1280039

> <ROCS_ShapeQuery>
x1247relevant_x1083L0AP1_x1305L0BP1_

> <ROCS_TanimotoCombo>
0.837 

> <ROCS_ShapeTanimoto>
0.498 

> <ROCS_ColorTanimoto>
0.338 

> <ROCS_RefTversky>
0.429 

> <ROCS_RefColorTversky>
0.412 

> <ROCS_RefTverskyCombo>
0.841 

> <ROCS_FitTversky>
1.484 

> <ROCS_FitColorTversky>
0.653 

> <ROCS_FitTverskyCombo>
2.137 

> <ROCS_ColorScore>
-8.826

> <ROCS_Overlap>
1263.984

> <ROCS_Rank>
115                 

$$$$
untitled-dbase-14661_2
  -OEChem-06162310163D

 34 37  0     1  0  0  0  0  0999 V2000
  -11.6166   15.8230  -34.8120 C   0  0  0  0  0  0  0  0  0  0  0  0
  -10.7829   16.2526  -33.7999 C   0  0  0  0  0  0  0  0  0  0  0  0
  -10.9013   15.3931  -35.9746 C   0  0  0  0  0  0  0  0  0  0  0  0
   -9.5402   15.4384  -35.7275 C   0  0  0  0  0  0  0  0  0  0  0  0
   -8.5267   14.9351  -36.6948 C   0  0  0  0  0  0  0  0  0  0  0  0
  -13.7862   15.7669  -37.3518 C   0  0  0  0  0  0  0  0  0  0  0  0
  -13.2861   13.7547  -38.6403 C   0  0  0  0  0  0  0  0  0  0  0  0
   -9.1187   13.7940  -37.5462 C   0  0  0  0  0  0  0  0  0  0  0  0
  -13.4704   16.5687  -38.6211 C   0  0  0  0  0  0  0  0  0  0  0  0
  -12.7776   14.6029  -39.8183 C   0  0  0  0  0  0  0  0  0  0  0  0
  -11.1816   15.8453  -38.4924 C   0  0  0  0  0  0  0  0  0  0  0  0
  -12.9280   14.4743  -37.3181 C   0  0  0  0  0  0  0  0  0  0  0  0
  -11.4008   14.8381  -37.3122 C   0  0  2  0  0  0  0  0  0  0  0  0
  -10.5819   13.6103  -37.5053 N   0  0  0  0  0  0  0  0  0  0  0  0
  -12.3663   15.9554  -39.3804 N   0  0  0  0  0  0  0  0  0  0  0  0
   -9.1338   16.0918  -34.2170 S   0  0  0  0  0  0  0  0  0  0  0  0
  -12.6926   15.8171  -34.7055 H   0  0  0  0  0  0  0  0  0  0  0  0
  -11.0691   16.6551  -32.8385 H   0  0  0  0  0  0  0  0  0  0  0  0
   -8.2245   15.7570  -37.3572 H   0  0  0  0  0  0  0  0  0  0  0  0
   -7.6274   14.5742  -36.1812 H   0  0  0  0  0  0  0  0  0  0  0  0
  -13.6234   16.3741  -36.4557 H   0  0  0  0  0  0  0  0  0  0  0  0
  -14.8509   15.4971  -37.3418 H   0  0  0  0  0  0  0  0  0  0  0  0
  -14.3721   13.6310  -38.7145 H   0  0  0  0  0  0  0  0  0  0  0  0
  -12.8523   12.7516  -38.6766 H   0  0  0  0  0  0  0  0  0  0  0  0
   -8.8168   13.9551  -38.6105 H   0  0  0  0  0  0  0  0  0  0  0  0
   -8.6100   12.8310  -37.2892 H   0  0  0  0  0  0  0  0  0  0  0  0
  -14.3637   16.6318  -39.2522 H   0  0  0  0  0  0  0  0  0  0  0  0
  -13.2181   17.6027  -38.3646 H   0  0  0  0  0  0  0  0  0  0  0  0
  -11.9355   14.0993  -40.3063 H   0  0  0  0  0  0  0  0  0  0  0  0
  -13.5574   14.6835  -40.5837 H   0  0  0  0  0  0  0  0  0  0  0  0
  -10.9136   16.8479  -38.1335 H   0  0  0  0  0  0  0  0  0  0  0  0
  -10.3233   15.5544  -39.1165 H   0  0  0  0  0  0  0  0  0  0  0  0
  -13.2253   13.8719  -36.4584 H   0  0  0  0  0  0  0  0  0  0  0  0
  -10.8714   13.1415  -38.3779 H   0  0  0  0  0  0  0  0  0  0  0  0
  1  2  2  0  0  0  0
  1  3  1  0  0  0  0
  2 16  1  0  0  0  0
  3  4  2  0  0  0  0
  3 13  1  0  0  0  0
  4  5  1  0  0  0  0
  4 16  1  0  0  0  0
  5  8  1  0  0  0  0
  6  9  1  0  0  0  0
  6 12  1  0  0  0  0
  7 10  1  0  0  0  0
  7 12  1  0  0  0  0
  8 14  1  0  0  0  0
  9 15  1  0  0  0  0
 10 15  1  0  0  0  0
 11 13  1  0  0  0  0
 11 15  1  0  0  0  0
 12 13  1  0  0  0  0
 13 14  1  0  0  0  0
  1 17  1  0  0  0  0
  2 18  1  0  0  0  0
  5 19  1  0  0  0  0
  5 20  1  0  0  0  0
  6 21  1  0  0  0  0
  6 22  1  0  0  0  0
  7 23  1  0  0  0  0
  7 24  1  0  0  0  0
  8 25  1  0  0  0  0
  8 26  1  0  0  0  0
  9 27  1  0  0  0  0
  9 28  1  0  0  0  0
 10 29  1  0  0  0  0
 10 30  1  0  0  0  0
 11 31  1  0  0  0  0
 11 32  1  0  0  0  0
 12 33  1  0  0  0  0
 14 34  1  0  0  0  0
M  END
> <id>
EN300-1075940

> <smiles>
C1CC=2SC=CC2C3(CN4CCC3CC4)N1

> <IUPAC Name>
6',7'-dihydro-5'H-4-azaspiro[bicyclo[2.2.2]octane-2,4'-thieno[3,2-c]pyridine]

> <CAS>
2006590-78-7

> <URL>
https://www.enaminestore.com/catalog/EN300-1075940

> <ROCS_ShapeQuery>
x1247relevant_x1083L0AP1_x1305L0BP1_

> <ROCS_TanimotoCombo>
0.837 

> <ROCS_ShapeTanimoto>
0.477 

> <ROCS_ColorTanimoto>
0.359 

> <ROCS_RefTversky>
0.415 

> <ROCS_RefColorTversky>
0.408 

> <ROCS_RefTverskyCombo>
0.823 

> <ROCS_FitTversky>
1.461 

> <ROCS_FitColorTversky>
0.750 

> <ROCS_FitTverskyCombo>
2.210 

> <ROCS_ColorScore>
-8.705

> <ROCS_Overlap>
1222.190

> <ROCS_Rank>
116                 

$$$$
untitled-dbase-35375_1
  -OEChem-06162310163D

 41 44  0     1  0  0  0  0  0999 V2000
   -7.2060   14.9612  -34.2487 C   0  0  0  0  0  0  0  0  0  0  0  0
   -8.3622   14.1900  -33.6129 C   0  0  0  0  0  0  0  0  0  0  0  0
   -7.3480   14.7705  -35.7557 C   0  0  0  0  0  0  0  0  0  0  0  0
   -9.1776   13.6103  -34.7677 C   0  0  0  0  0  0  0  0  0  0  0  0
  -13.6587   15.6975  -37.1739 C   0  0  0  0  0  0  0  0  0  0  0  0
  -13.2940   13.7842  -38.6816 C   0  0  0  0  0  0  0  0  0  0  0  0
  -13.3174   16.6696  -38.3119 C   0  0  0  0  0  0  0  0  0  0  0  0
  -13.0708   14.7996  -39.8129 C   0  0  0  0  0  0  0  0  0  0  0  0
   -9.0952   13.7813  -37.3122 C   0  0  0  0  0  0  0  0  0  0  0  0
  -11.1407   15.6964  -38.6877 C   0  0  0  0  0  0  0  0  0  0  0  0
   -9.6617   15.7970  -35.9757 C   0  0  0  0  0  0  0  0  0  0  0  0
  -12.8303   14.4060  -37.3511 C   0  0  0  0  0  0  0  0  0  0  0  0
   -8.8405   14.4973  -35.9806 C   0  0  0  0  0  0  0  0  0  0  0  0
  -11.3171   14.7895  -37.4290 C   0  0  1  0  0  0  0  0  0  0  0  0
  -10.5226   13.5513  -37.5201 N   0  0  0  0  0  0  0  0  0  0  0  0
  -12.4383   16.0427  -39.3201 N   0  0  0  0  0  0  0  0  0  0  0  0
  -11.0421   15.5274  -36.2200 O   0  0  0  0  0  0  0  0  0  0  0  0
   -7.2740   16.0220  -33.9842 H   0  0  0  0  0  0  0  0  0  0  0  0
   -6.2361   14.5983  -33.8951 H   0  0  0  0  0  0  0  0  0  0  0  0
   -8.0048   13.4007  -32.9426 H   0  0  0  0  0  0  0  0  0  0  0  0
   -8.9796   14.8701  -33.0136 H   0  0  0  0  0  0  0  0  0  0  0  0
   -6.9699   15.6392  -36.3051 H   0  0  0  0  0  0  0  0  0  0  0  0
   -6.7461   13.9044  -36.0607 H   0  0  0  0  0  0  0  0  0  0  0  0
   -8.8575   12.5768  -34.9498 H   0  0  0  0  0  0  0  0  0  0  0  0
  -10.2479   13.5881  -34.5399 H   0  0  0  0  0  0  0  0  0  0  0  0
  -13.4583   16.1655  -36.2040 H   0  0  0  0  0  0  0  0  0  0  0  0
  -14.7288   15.4577  -37.1949 H   0  0  0  0  0  0  0  0  0  0  0  0
  -14.3560   13.5185  -38.6247 H   0  0  0  0  0  0  0  0  0  0  0  0
  -12.7415   12.8607  -38.8858 H   0  0  0  0  0  0  0  0  0  0  0  0
  -14.2400   17.0210  -38.7906 H   0  0  0  0  0  0  0  0  0  0  0  0
  -12.8346   17.5689  -37.9086 H   0  0  0  0  0  0  0  0  0  0  0  0
  -12.4502   14.3516  -40.5995 H   0  0  0  0  0  0  0  0  0  0  0  0
  -14.0266   15.0388  -40.2966 H   0  0  0  0  0  0  0  0  0  0  0  0
   -8.7125   14.3754  -38.1516 H   0  0  0  0  0  0  0  0  0  0  0  0
   -8.5511   12.8294  -37.3503 H   0  0  0  0  0  0  0  0  0  0  0  0
  -10.6112   16.6228  -38.4289 H   0  0  0  0  0  0  0  0  0  0  0  0
  -10.5193   15.2148  -39.4551 H   0  0  0  0  0  0  0  0  0  0  0  0
   -9.5569   16.3311  -35.0235 H   0  0  0  0  0  0  0  0  0  0  0  0
   -9.3291   16.4909  -36.7559 H   0  0  0  0  0  0  0  0  0  0  0  0
  -13.0472   13.7256  -36.5184 H   0  0  0  0  0  0  0  0  0  0  0  0
  -10.6560   13.1415  -38.4453 H   0  0  0  0  0  0  0  0  0  0  0  0
  1  2  1  0  0  0  0
  1  3  1  0  0  0  0
  2  4  1  0  0  0  0
  3 13  1  0  0  0  0
  4 13  1  0  0  0  0
  5  7  1  0  0  0  0
  5 12  1  0  0  0  0
  6  8  1  0  0  0  0
  6 12  1  0  0  0  0
  7 16  1  0  0  0  0
  8 16  1  0  0  0  0
  9 13  1  0  0  0  0
  9 15  1  0  0  0  0
 10 14  1  0  0  0  0
 10 16  1  0  0  0  0
 11 13  1  0  0  0  0
 11 17  1  0  0  0  0
 12 14  1  0  0  0  0
 14 15  1  0  0  0  0
 14 17  1  0  0  0  0
  1 18  1  0  0  0  0
  1 19  1  0  0  0  0
  2 20  1  0  0  0  0
  2 21  1  0  0  0  0
  3 22  1  0  0  0  0
  3 23  1  0  0  0  0
  4 24  1  0  0  0  0
  4 25  1  0  0  0  0
  5 26  1  0  0  0  0
  5 27  1  0  0  0  0
  6 28  1  0  0  0  0
  6 29  1  0  0  0  0
  7 30  1  0  0  0  0
  7 31  1  0  0  0  0
  8 32  1  0  0  0  0
  8 33  1  0  0  0  0
  9 34  1  0  0  0  0
  9 35  1  0  0  0  0
 10 36  1  0  0  0  0
 10 37  1  0  0  0  0
 11 38  1  0  0  0  0
 11 39  1  0  0  0  0
 12 40  1  0  0  0  0
 15 41  1  0  0  0  0
M  END
> <id>
EN300-1278922

> <smiles>
C1CCC2(C1)CNC3(CN4CCC3CC4)OC2

> <IUPAC Name>
dispiro[4-azabicyclo[2.2.2]octane-2,2'-[1,3]oxazinane-5',1''-cyclopentane]

> <CAS>
2172193-33-6

> <URL>
https://www.enaminestore.com/catalog/EN300-1278922

> <ROCS_ShapeQuery>
x1247relevant_x1083L0AP1_x1305L0BP1_

> <ROCS_TanimotoCombo>
0.835 

> <ROCS_ShapeTanimoto>
0.485 

> <ROCS_ColorTanimoto>
0.351 

> <ROCS_RefTversky>
0.425 

> <ROCS_RefColorTversky>
0.412 

> <ROCS_RefTverskyCombo>
0.837 

> <ROCS_FitTversky>
1.413 

> <ROCS_FitColorTversky>
0.701 

> <ROCS_FitTverskyCombo>
2.114 

> <ROCS_ColorScore>
-8.804

> <ROCS_Overlap>
1252.722

> <ROCS_Rank>
117                 

$$$$
untitled-dbase-41478_2
  -OEChem-06162310163D

 43 45  0     1  0  0  0  0  0999 V2000
  -13.4329   13.8081  -38.3749 C   0  0  0  0  0  0  0  0  0  0  0  0
  -13.4876   15.9685  -37.1854 C   0  0  0  0  0  0  0  0  0  0  0  0
  -13.3281   14.6277  -39.6710 C   0  0  0  0  0  0  0  0  0  0  0  0
  -13.1898   16.7222  -38.4900 C   0  0  0  0  0  0  0  0  0  0  0  0
   -9.0914   13.7808  -37.4204 C   0  0  0  0  0  0  0  0  0  0  0  0
  -11.1865   15.4575  -38.9642 C   0  0  0  0  0  0  0  0  0  0  0  0
  -12.7776   14.5987  -37.2262 C   0  0  0  0  0  0  0  0  0  0  0  0
   -8.6674   14.6271  -36.1823 C   0  0  0  0  0  0  0  0  0  0  0  0
  -11.2648   14.8306  -37.5353 C   0  0  1  0  0  0  0  0  0  0  0  0
   -9.9113   15.3746  -35.5567 C   0  0  0  0  0  0  0  0  0  0  0  0
   -7.5935   15.6221  -36.6910 C   0  0  0  0  0  0  0  0  0  0  0  0
   -7.9776   13.7126  -35.1468 C   0  0  0  0  0  0  0  0  0  0  0  0
   -9.5212   16.6550  -34.7908 C   0  0  0  0  0  0  0  0  0  0  0  0
  -10.7305   14.5212  -34.5617 C   0  0  0  0  0  0  0  0  0  0  0  0
  -10.5298   13.5562  -37.4811 N   0  0  0  0  0  0  0  0  0  0  0  0
  -12.5205   15.8532  -39.4803 N   0  0  0  0  0  0  0  0  0  0  0  0
  -10.7632   15.8312  -36.6220 O   0  0  0  0  0  0  0  0  0  0  0  0
  -14.4883   13.6203  -38.1409 H   0  0  0  0  0  0  0  0  0  0  0  0
  -12.9654   12.8263  -38.5048 H   0  0  0  0  0  0  0  0  0  0  0  0
  -13.1598   16.5586  -36.3229 H   0  0  0  0  0  0  0  0  0  0  0  0
  -14.5694   15.8262  -37.0775 H   0  0  0  0  0  0  0  0  0  0  0  0
  -12.8890   14.0154  -40.4676 H   0  0  0  0  0  0  0  0  0  0  0  0
  -14.3305   14.8964  -40.0243 H   0  0  0  0  0  0  0  0  0  0  0  0
  -14.1202   17.1187  -38.9139 H   0  0  0  0  0  0  0  0  0  0  0  0
  -12.5642   17.5984  -38.2815 H   0  0  0  0  0  0  0  0  0  0  0  0
   -8.7404   14.2440  -38.3556 H   0  0  0  0  0  0  0  0  0  0  0  0
   -8.5926   12.7990  -37.3813 H   0  0  0  0  0  0  0  0  0  0  0  0
  -10.5576   16.3485  -38.9762 H   0  0  0  0  0  0  0  0  0  0  0  0
  -10.7324   14.7641  -39.6799 H   0  0  0  0  0  0  0  0  0  0  0  0
  -12.9142   14.0890  -36.2685 H   0  0  0  0  0  0  0  0  0  0  0  0
   -7.2627   16.2387  -35.8636 H   0  0  0  0  0  0  0  0  0  0  0  0
   -8.0268   16.2448  -37.4646 H   0  0  0  0  0  0  0  0  0  0  0  0
   -6.7562   15.0636  -37.0926 H   0  0  0  0  0  0  0  0  0  0  0  0
   -7.6893   14.3120  -34.2948 H   0  0  0  0  0  0  0  0  0  0  0  0
   -7.1054   13.2686  -35.6054 H   0  0  0  0  0  0  0  0  0  0  0  0
   -8.6756   12.9441  -34.8460 H   0  0  0  0  0  0  0  0  0  0  0  0
  -10.4168   17.1158  -34.3895 H   0  0  0  0  0  0  0  0  0  0  0  0
   -9.0290   17.3402  -35.4716 H   0  0  0  0  0  0  0  0  0  0  0  0
   -8.8483   16.3939  -33.9818 H   0  0  0  0  0  0  0  0  0  0  0  0
  -11.5573   15.1125  -34.1868 H   0  0  0  0  0  0  0  0  0  0  0  0
  -10.0888   14.2222  -33.7416 H   0  0  0  0  0  0  0  0  0  0  0  0
  -11.1065   13.6443  -35.0750 H   0  0  0  0  0  0  0  0  0  0  0  0
  -10.7508   12.9824  -38.2795 H   0  0  0  0  0  0  0  0  0  0  0  0
  1  3  1  0  0  0  0
  1  7  1  0  0  0  0
  2  4  1  0  0  0  0
  2  7  1  0  0  0  0
  3 16  1  0  0  0  0
  4 16  1  0  0  0  0
  5  8  1  0  0  0  0
  5 15  1  0  0  0  0
  6  9  1  0  0  0  0
  6 16  1  0  0  0  0
  7  9  1  0  0  0  0
  8 10  1  0  0  0  0
  8 11  1  0  0  0  0
  8 12  1  0  0  0  0
  9 15  1  0  0  0  0
  9 17  1  0  0  0  0
 10 13  1  0  0  0  0
 10 14  1  0  0  0  0
 10 17  1  0  0  0  0
  1 18  1  0  0  0  0
  1 19  1  0  0  0  0
  2 20  1  0  0  0  0
  2 21  1  0  0  0  0
  3 22  1  0  0  0  0
  3 23  1  0  0  0  0
  4 24  1  0  0  0  0
  4 25  1  0  0  0  0
  5 26  1  0  0  0  0
  5 27  1  0  0  0  0
  6 28  1  0  0  0  0
  6 29  1  0  0  0  0
  7 30  1  0  0  0  0
 11 31  1  0  0  0  0
 11 32  1  0  0  0  0
 11 33  1  0  0  0  0
 12 34  1  0  0  0  0
 12 35  1  0  0  0  0
 12 36  1  0  0  0  0
 13 37  1  0  0  0  0
 13 38  1  0  0  0  0
 13 39  1  0  0  0  0
 14 40  1  0  0  0  0
 14 41  1  0  0  0  0
 14 42  1  0  0  0  0
 15 43  1  0  0  0  0
M  END
> <id>
EN300-1280141

> <smiles>
CC1(C)CNC2(CN3CCC2CC3)OC1(C)C

> <IUPAC Name>
5',5',6',6'-tetramethyl-4-azaspiro[bicyclo[2.2.2]octane-2,2'-[1,3]oxazinane]

> <CAS>
2172128-35-5

> <URL>
https://www.enaminestore.com/catalog/EN300-1280141

> <ROCS_ShapeQuery>
x1247relevant_x1083L0AP1_x1305L0BP1_

> <ROCS_TanimotoCombo>
0.835 

> <ROCS_ShapeTanimoto>
0.500 

> <ROCS_ColorTanimoto>
0.335 

> <ROCS_RefTversky>
0.432 

> <ROCS_RefColorTversky>
0.409 

> <ROCS_RefTverskyCombo>
0.841 

> <ROCS_FitTversky>
1.460 

> <ROCS_FitColorTversky>
0.649 

> <ROCS_FitTverskyCombo>
2.108 

> <ROCS_ColorScore>
-8.757

> <ROCS_Overlap>
1274.754

> <ROCS_Rank>
118                 

$$$$
untitled-dbase-27185_94
  -OEChem-06162310163D

 37 38  0     1  0  0  0  0  0999 V2000
  -10.4624   14.9640  -36.8009 C   0  0  0  0  0  0  0  0  0  0  0  0
  -13.1822   13.5449  -38.7024 C   0  0  0  0  0  0  0  0  0  0  0  0
  -13.9028   14.2407  -37.5299 C   0  0  0  0  0  0  0  0  0  0  0  0
  -11.9156   15.4877  -39.7728 C   0  0  0  0  0  0  0  0  0  0  0  0
  -13.1327   16.6603  -37.8101 C   0  0  0  0  0  0  0  0  0  0  0  0
  -11.8378   14.2713  -38.8273 C   0  0  1  0  0  0  0  0  0  0  0  0
  -12.9308   15.3277  -37.0591 C   0  0  2  0  0  0  0  0  0  0  0  0
  -12.9756   16.5266  -39.3410 C   0  0  0  0  0  0  0  0  0  0  0  0
   -8.9020   12.9034  -37.2280 C   0  0  0  0  0  0  0  0  0  0  0  0
   -7.7084   14.2311  -38.9948 C   0  0  0  0  0  0  0  0  0  0  0  0
   -7.3179   14.7443  -36.5674 C   0  0  0  0  0  0  0  0  0  0  0  0
   -8.3370   14.2725  -37.6036 C   0  0  0  0  0  0  0  0  0  0  0  0
  -11.6502   14.7970  -37.4851 N   0  0  0  0  0  0  0  0  0  0  0  0
  -10.3543   14.8983  -35.5786 O   0  0  0  0  0  0  0  0  0  0  0  0
  -14.2443   16.1765  -39.8962 O   0  0  0  0  0  0  0  0  0  0  0  0
   -9.4145   15.2144  -37.6450 O   0  0  0  0  0  0  0  0  0  0  0  0
  -13.0183   12.4913  -38.4458 H   0  0  0  0  0  0  0  0  0  0  0  0
  -13.7720   13.5698  -39.6237 H   0  0  0  0  0  0  0  0  0  0  0  0
  -14.8801   14.6362  -37.8225 H   0  0  0  0  0  0  0  0  0  0  0  0
  -14.0695   13.5108  -36.7286 H   0  0  0  0  0  0  0  0  0  0  0  0
  -10.9326   15.9761  -39.7825 H   0  0  0  0  0  0  0  0  0  0  0  0
  -12.1184   15.1430  -40.7937 H   0  0  0  0  0  0  0  0  0  0  0  0
  -14.1181   17.0715  -37.5611 H   0  0  0  0  0  0  0  0  0  0  0  0
  -12.3816   17.3733  -37.4454 H   0  0  0  0  0  0  0  0  0  0  0  0
  -11.0282   13.6000  -39.1280 H   0  0  0  0  0  0  0  0  0  0  0  0
  -12.9666   15.4861  -35.9769 H   0  0  0  0  0  0  0  0  0  0  0  0
  -12.7205   17.5042  -39.7651 H   0  0  0  0  0  0  0  0  0  0  0  0
   -9.3541   12.9289  -36.2300 H   0  0  0  0  0  0  0  0  0  0  0  0
   -9.6596   12.5693  -37.9444 H   0  0  0  0  0  0  0  0  0  0  0  0
   -8.1072   12.1498  -37.1881 H   0  0  0  0  0  0  0  0  0  0  0  0
   -7.3017   15.2113  -39.2685 H   0  0  0  0  0  0  0  0  0  0  0  0
   -8.4587   13.9851  -39.7549 H   0  0  0  0  0  0  0  0  0  0  0  0
   -6.9020   13.4929  -39.0520 H   0  0  0  0  0  0  0  0  0  0  0  0
   -6.9124   15.7263  -36.8367 H   0  0  0  0  0  0  0  0  0  0  0  0
   -7.7614   14.8155  -35.5690 H   0  0  0  0  0  0  0  0  0  0  0  0
   -6.4637   14.0592  -36.5210 H   0  0  0  0  0  0  0  0  0  0  0  0
  -14.1309   16.1772  -40.8584 H   0  0  0  0  0  0  0  0  0  0  0  0
  1 13  1  0  0  0  0
  1 14  2  0  0  0  0
  1 16  1  0  0  0  0
  2  3  1  0  0  0  0
  2  6  1  1  0  0  0
  3  7  1  1  0  0  0
  4  6  1  0  0  0  0
  4  8  1  0  0  0  0
  5  7  1  0  0  0  0
  5  8  1  0  0  0  0
  6 13  1  0  0  0  0
  7 13  1  0  0  0  0
  8 15  1  1  0  0  0
  9 12  1  0  0  0  0
 10 12  1  0  0  0  0
 11 12  1  0  0  0  0
 12 16  1  0  0  0  0
  2 17  1  0  0  0  0
  2 18  1  0  0  0  0
  3 19  1  0  0  0  0
  3 20  1  0  0  0  0
  4 21  1  0  0  0  0
  4 22  1  0  0  0  0
  5 23  1  0  0  0  0
  5 24  1  0  0  0  0
  6 25  1  0  0  0  0
  7 26  1  0  0  0  0
  8 27  1  0  0  0  0
  9 28  1  0  0  0  0
  9 29  1  0  0  0  0
  9 30  1  0  0  0  0
 10 31  1  0  0  0  0
 10 32  1  0  0  0  0
 10 33  1  0  0  0  0
 11 34  1  0  0  0  0
 11 35  1  0  0  0  0
 11 36  1  0  0  0  0
 15 37  1  0  0  0  0
M  END
> <id>
EN300-6489446

> <smiles>
CC(C)(C)OC(=O)N1[C@H]2CC[C@@H]1C[C@H](O)C2

> <MDLNUMBER>
MFCD22409620

> <IUPAC Name>
tert-butyl (1R,3R,5S)-3-hydroxy-8-azabicyclo[3.2.1]octane-8-carboxylate

> <CAS>
143557-91-9

> <Purity>
95

> <URL>
https://www.enaminestore.com/catalog/EN300-6489446

> <ROCS_ShapeQuery>
x1247relevant_x1083L0AP1_x1305L0BP1_

> <ROCS_TanimotoCombo>
0.835 

> <ROCS_ShapeTanimoto>
0.492 

> <ROCS_ColorTanimoto>
0.344 

> <ROCS_RefTversky>
0.422 

> <ROCS_RefColorTversky>
0.381 

> <ROCS_RefTverskyCombo>
0.803 

> <ROCS_FitTversky>
1.506 

> <ROCS_FitColorTversky>
0.777 

> <ROCS_FitTverskyCombo>
2.283 

> <ROCS_ColorScore>
-8.100

> <ROCS_Overlap>
1242.985

> <ROCS_Rank>
119                 

$$$$
untitled-dbase-35407_0
  -OEChem-06162310163D

 31 33  0     1  0  0  0  0  0999 V2000
  -13.6815   15.8734  -39.3975 C   0  0  0  0  0  0  0  0  0  0  0  0
  -12.4938   16.6862  -38.8429 C   0  0  0  0  0  0  0  0  0  0  0  0
  -12.4997   13.7258  -38.9190 C   0  0  0  0  0  0  0  0  0  0  0  0
  -10.9100   16.3637  -36.8182 C   0  0  0  0  0  0  0  0  0  0  0  0
  -13.7001   14.6144  -38.4933 C   0  0  1  0  0  0  0  0  0  0  0  0
  -11.2949   14.5690  -38.4884 C   0  0  1  0  0  0  0  0  0  0  0  0
  -11.9518   15.7534  -37.7328 C   0  0  2  0  0  0  0  0  0  0  0  0
  -13.2596   15.1623  -37.1136 C   0  0  0  0  0  0  0  0  0  0  0  0
  -14.2219   16.2090  -36.5092 C   0  0  0  0  0  0  0  0  0  0  0  0
  -13.1223   14.0688  -36.0383 C   0  0  0  0  0  0  0  0  0  0  0  0
  -10.3996   13.8874  -37.5180 N   0  0  0  0  0  0  0  0  0  0  0  0
  -10.0433   14.5913  -35.0352 O   0  0  0  0  0  0  0  0  0  0  0  0
   -8.4386   15.4351  -36.8001 O   0  0  0  0  0  0  0  0  0  0  0  0
   -9.7706   15.0467  -36.3821 S   0  0  0  0  0  0  0  0  0  0  0  0
  -14.6139   16.4415  -39.3143 H   0  0  0  0  0  0  0  0  0  0  0  0
  -13.5426   15.6227  -40.4545 H   0  0  0  0  0  0  0  0  0  0  0  0
  -11.7522   16.8892  -39.6236 H   0  0  0  0  0  0  0  0  0  0  0  0
  -12.8179   17.6561  -38.4518 H   0  0  0  0  0  0  0  0  0  0  0  0
  -12.5315   12.7417  -38.4416 H   0  0  0  0  0  0  0  0  0  0  0  0
  -12.4976   13.5585  -40.0018 H   0  0  0  0  0  0  0  0  0  0  0  0
  -10.3255   17.1303  -37.3365 H   0  0  0  0  0  0  0  0  0  0  0  0
  -11.3334   16.7833  -35.9032 H   0  0  0  0  0  0  0  0  0  0  0  0
  -14.6554   14.0846  -38.5112 H   0  0  0  0  0  0  0  0  0  0  0  0
  -10.6879   14.8851  -39.3445 H   0  0  0  0  0  0  0  0  0  0  0  0
  -13.8318   16.5300  -35.5522 H   0  0  0  0  0  0  0  0  0  0  0  0
  -15.1955   15.7547  -36.3808 H   0  0  0  0  0  0  0  0  0  0  0  0
  -14.2901   17.0514  -37.1849 H   0  0  0  0  0  0  0  0  0  0  0  0
  -12.8123   14.5232  -35.1030 H   0  0  0  0  0  0  0  0  0  0  0  0
  -12.3791   13.3451  -36.3566 H   0  0  0  0  0  0  0  0  0  0  0  0
  -14.0795   13.5753  -35.9053 H   0  0  0  0  0  0  0  0  0  0  0  0
  -10.7838   13.0284  -37.1084 H   0  0  0  0  0  0  0  0  0  0  0  0
  1  2  1  0  0  0  0
  1  5  1  1  0  0  0
  2  7  1  1  0  0  0
  3  5  1  0  0  0  0
  3  6  1  6  0  0  0
  4  7  1  0  0  0  0
  4 14  1  0  0  0  0
  5  8  1  0  0  0  0
  6  7  1  0  0  0  0
  6 11  1  0  0  0  0
  7  8  1  0  0  0  0
  8  9  1  0  0  0  0
  8 10  1  0  0  0  0
 11 14  1  0  0  0  0
 12 14  2  0  0  0  0
 13 14  2  0  0  0  0
  1 15  1  0  0  0  0
  1 16  1  0  0  0  0
  2 17  1  0  0  0  0
  2 18  1  0  0  0  0
  3 19  1  0  0  0  0
  3 20  1  0  0  0  0
  4 21  1  0  0  0  0
  4 22  1  0  0  0  0
  5 23  1  0  0  0  0
  6 24  1  0  0  0  0
  9 25  1  0  0  0  0
  9 26  1  0  0  0  0
  9 27  1  0  0  0  0
 10 28  1  0  0  0  0
 10 29  1  0  0  0  0
 10 30  1  0  0  0  0
 11 31  1  0  0  0  0
M  END
> <id>
EN300-1177730

> <smiles>
CC1(C)[C@H]2CC[C@]31CS(=O)(=O)N[C@H]3C2

> <MDLNUMBER>
MFCD00151762

> <IUPAC Name>
(1R,5S,7S)-10,10-dimethyl-3lambda6-thia-4-azatricyclo[5.2.1.0,1,5]decane-3,3-dione

> <CAS>
1932472-17-7

> <Purity>
95

> <URL>
https://www.enaminestore.com/catalog/EN300-1177730

> <ROCS_ShapeQuery>
x1247relevant_x1083L0AP1_x1305L0BP1_

> <ROCS_TanimotoCombo>
0.835 

> <ROCS_ShapeTanimoto>
0.469 

> <ROCS_ColorTanimoto>
0.366 

> <ROCS_RefTversky>
0.399 

> <ROCS_RefColorTversky>
0.417 

> <ROCS_RefTverskyCombo>
0.816 

> <ROCS_FitTversky>
1.598 

> <ROCS_FitColorTversky>
0.747 

> <ROCS_FitTverskyCombo>
2.345 

> <ROCS_ColorScore>
-8.901

> <ROCS_Overlap>
1173.603

> <ROCS_Rank>
120                 

$$$$
untitled-dbase-8495_0
  -OEChem-06162310163D

 31 33  0     1  0  0  0  0  0999 V2000
  -13.6791   15.8741  -39.4000 C   0  0  0  0  0  0  0  0  0  0  0  0
  -12.4918   16.6863  -38.8439 C   0  0  0  0  0  0  0  0  0  0  0  0
  -12.5000   13.7257  -38.9187 C   0  0  0  0  0  0  0  0  0  0  0  0
  -10.9111   16.3633  -36.8168 C   0  0  0  0  0  0  0  0  0  0  0  0
  -13.7002   14.6156  -38.4951 C   0  0  1  0  0  0  0  0  0  0  0  0
  -11.2951   14.5683  -38.4872 C   0  0  1  0  0  0  0  0  0  0  0  0
  -11.9519   15.7534  -37.7329 C   0  0  2  0  0  0  0  0  0  0  0  0
  -13.2609   15.1637  -37.1151 C   0  0  0  0  0  0  0  0  0  0  0  0
  -14.2203   16.2220  -36.5193 C   0  0  0  0  0  0  0  0  0  0  0  0
  -13.1525   14.0781  -36.0301 C   0  0  0  0  0  0  0  0  0  0  0  0
  -10.4013   13.8864  -37.5155 N   0  0  0  0  0  0  0  0  0  0  0  0
  -10.0399   14.5892  -35.0331 O   0  0  0  0  0  0  0  0  0  0  0  0
   -8.4419   15.4378  -36.8022 O   0  0  0  0  0  0  0  0  0  0  0  0
   -9.7720   15.0462  -36.3803 S   0  0  0  0  0  0  0  0  0  0  0  0
  -14.6111   16.4429  -39.3186 H   0  0  0  0  0  0  0  0  0  0  0  0
  -13.5385   15.6230  -40.4566 H   0  0  0  0  0  0  0  0  0  0  0  0
  -11.7491   16.8889  -39.6236 H   0  0  0  0  0  0  0  0  0  0  0  0
  -12.8159   17.6565  -38.4533 H   0  0  0  0  0  0  0  0  0  0  0  0
  -12.5333   12.7418  -38.4410 H   0  0  0  0  0  0  0  0  0  0  0  0
  -12.4967   13.5571  -40.0013 H   0  0  0  0  0  0  0  0  0  0  0  0
  -10.3264   17.1305  -37.3341 H   0  0  0  0  0  0  0  0  0  0  0  0
  -11.3356   16.7821  -35.9020 H   0  0  0  0  0  0  0  0  0  0  0  0
  -14.6558   14.0866  -38.5143 H   0  0  0  0  0  0  0  0  0  0  0  0
  -10.6875   14.8841  -39.3430 H   0  0  0  0  0  0  0  0  0  0  0  0
  -13.8332   16.5436  -35.5614 H   0  0  0  0  0  0  0  0  0  0  0  0
  -15.1980   15.7754  -36.3949 H   0  0  0  0  0  0  0  0  0  0  0  0
  -14.2781   17.0620  -37.1988 H   0  0  0  0  0  0  0  0  0  0  0  0
  -12.8418   14.5352  -35.0964 H   0  0  0  0  0  0  0  0  0  0  0  0
  -12.4202   13.3383  -36.3362 H   0  0  0  0  0  0  0  0  0  0  0  0
  -14.1196   13.6036  -35.9009 H   0  0  0  0  0  0  0  0  0  0  0  0
  -10.7872   13.0288  -37.1046 H   0  0  0  0  0  0  0  0  0  0  0  0
  1  2  1  0  0  0  0
  1  5  1  0  0  0  0
  2  7  1  0  0  0  0
  3  5  1  0  0  0  0
  3  6  1  0  0  0  0
  4  7  1  0  0  0  0
  4 14  1  0  0  0  0
  5  8  1  0  0  0  0
  6  7  1  0  0  0  0
  6 11  1  0  0  0  0
  7  8  1  0  0  0  0
  8  9  1  0  0  0  0
  8 10  1  0  0  0  0
 11 14  1  0  0  0  0
 12 14  2  0  0  0  0
 13 14  2  0  0  0  0
  1 15  1  0  0  0  0
  1 16  1  0  0  0  0
  2 17  1  0  0  0  0
  2 18  1  0  0  0  0
  3 19  1  0  0  0  0
  3 20  1  0  0  0  0
  4 21  1  0  0  0  0
  4 22  1  0  0  0  0
  5 23  1  0  0  0  0
  6 24  1  0  0  0  0
  9 25  1  0  0  0  0
  9 26  1  0  0  0  0
  9 27  1  0  0  0  0
 10 28  1  0  0  0  0
 10 29  1  0  0  0  0
 10 30  1  0  0  0  0
 11 31  1  0  0  0  0
M  END
> <id>
EN300-295953

> <smiles>
CC1(C)C2CCC31CS(=O)(=O)NC3C2

> <MDLNUMBER>
MFCD00011723

> <IUPAC Name>
10,10-dimethyl-3lambda6-thia-4-azatricyclo[5.2.1.0,1,5]decane-3,3-dione

> <CAS>
153153-41-4

> <URL>
https://www.enaminestore.com/catalog/EN300-295953

> <ROCS_ShapeQuery>
x1247relevant_x1083L0AP1_x1305L0BP1_

> <ROCS_TanimotoCombo>
0.835 

> <ROCS_ShapeTanimoto>
0.469 

> <ROCS_ColorTanimoto>
0.366 

> <ROCS_RefTversky>
0.399 

> <ROCS_RefColorTversky>
0.417 

> <ROCS_RefTverskyCombo>
0.816 

> <ROCS_FitTversky>
1.598 

> <ROCS_FitColorTversky>
0.747 

> <ROCS_FitTverskyCombo>
2.345 

> <ROCS_ColorScore>
-8.904

> <ROCS_Overlap>
1173.102

> <ROCS_Rank>
121                 

$$$$
untitled-dbase-43481_184
  -OEChem-06162310163D

 38 39  0     1  0  0  0  0  0999 V2000
   -9.9489   15.4648  -36.9391 C   0  0  0  0  0  0  0  0  0  0  0  0
  -12.6020   13.9804  -38.9488 C   0  0  0  0  0  0  0  0  0  0  0  0
  -14.1894   15.5692  -37.7602 C   0  0  0  0  0  0  0  0  0  0  0  0
  -12.2018   14.4259  -36.6640 C   0  0  0  0  0  0  0  0  0  0  0  0
  -13.3687   14.2600  -37.6506 C   0  0  2  0  0  0  0  0  0  0  0  0
  -11.5612   15.1014  -38.8832 C   0  0  1  0  0  0  0  0  0  0  0  0
  -13.7349   16.4972  -38.9005 C   0  0  1  0  0  0  0  0  0  0  0  0
  -12.2107   16.4843  -39.1200 C   0  0  2  0  0  0  0  0  0  0  0  0
   -7.4900   15.0480  -35.5438 C   0  0  0  0  0  0  0  0  0  0  0  0
   -8.9231   14.3386  -33.6068 C   0  0  0  0  0  0  0  0  0  0  0  0
   -8.9916   13.0392  -35.7550 C   0  0  0  0  0  0  0  0  0  0  0  0
   -8.8205   14.4221  -35.1282 C   0  0  0  0  0  0  0  0  0  0  0  0
  -11.1482   15.0249  -37.4711 N   0  0  0  0  0  0  0  0  0  0  0  0
   -9.0464   15.9729  -37.6007 O   0  0  0  0  0  0  0  0  0  0  0  0
  -14.4126   16.0828  -40.0918 O   0  0  0  0  0  0  0  0  0  0  0  0
  -11.9146   16.9443  -40.4369 O   0  0  0  0  0  0  0  0  0  0  0  0
   -9.8833   15.2650  -35.5865 O   0  0  0  0  0  0  0  0  0  0  0  0
  -12.1168   12.9981  -38.9083 H   0  0  0  0  0  0  0  0  0  0  0  0
  -13.2385   14.0105  -39.8367 H   0  0  0  0  0  0  0  0  0  0  0  0
  -15.2557   15.3210  -37.8879 H   0  0  0  0  0  0  0  0  0  0  0  0
  -14.1370   16.1209  -36.8082 H   0  0  0  0  0  0  0  0  0  0  0  0
  -12.4390   15.0527  -35.7979 H   0  0  0  0  0  0  0  0  0  0  0  0
  -11.8385   13.4543  -36.3087 H   0  0  0  0  0  0  0  0  0  0  0  0
  -14.0191   13.4256  -37.3616 H   0  0  0  0  0  0  0  0  0  0  0  0
  -10.7173   14.9359  -39.5505 H   0  0  0  0  0  0  0  0  0  0  0  0
  -14.0684   17.5027  -38.6839 H   0  0  0  0  0  0  0  0  0  0  0  0
  -11.7508   17.2403  -38.4340 H   0  0  0  0  0  0  0  0  0  0  0  0
   -7.4124   15.1097  -36.6352 H   0  0  0  0  0  0  0  0  0  0  0  0
   -7.3705   16.0542  -35.1292 H   0  0  0  0  0  0  0  0  0  0  0  0
   -6.6469   14.4331  -35.2084 H   0  0  0  0  0  0  0  0  0  0  0  0
   -9.8763   13.8902  -33.3041 H   0  0  0  0  0  0  0  0  0  0  0  0
   -8.8961   15.3383  -33.1583 H   0  0  0  0  0  0  0  0  0  0  0  0
   -8.1091   13.7445  -33.1790 H   0  0  0  0  0  0  0  0  0  0  0  0
   -9.9459   12.5901  -35.4570 H   0  0  0  0  0  0  0  0  0  0  0  0
   -8.9576   13.0849  -36.8484 H   0  0  0  0  0  0  0  0  0  0  0  0
   -8.2072   12.3555  -35.4106 H   0  0  0  0  0  0  0  0  0  0  0  0
  -14.1172   16.6754  -40.8014 H   0  0  0  0  0  0  0  0  0  0  0  0
  -10.9492   17.0044  -40.4953 H   0  0  0  0  0  0  0  0  0  0  0  0
  1 13  1  0  0  0  0
  1 14  2  0  0  0  0
  1 17  1  0  0  0  0
  2  5  1  0  0  0  0
  2  6  1  0  0  0  0
  3  5  1  0  0  0  0
  3  7  1  0  0  0  0
  4  5  1  6  0  0  0
  4 13  1  0  0  0  0
  6  8  1  0  0  0  0
  6 13  1  6  0  0  0
  7  8  1  0  0  0  0
  7 15  1  1  0  0  0
  8 16  1  1  0  0  0
  9 12  1  0  0  0  0
 10 12  1  0  0  0  0
 11 12  1  0  0  0  0
 12 17  1  0  0  0  0
  2 18  1  0  0  0  0
  2 19  1  0  0  0  0
  3 20  1  0  0  0  0
  3 21  1  0  0  0  0
  4 22  1  0  0  0  0
  4 23  1  0  0  0  0
  5 24  1  0  0  0  0
  6 25  1  0  0  0  0
  7 26  1  0  0  0  0
  8 27  1  0  0  0  0
  9 28  1  0  0  0  0
  9 29  1  0  0  0  0
  9 30  1  0  0  0  0
 10 31  1  0  0  0  0
 10 32  1  0  0  0  0
 10 33  1  0  0  0  0
 11 34  1  0  0  0  0
 11 35  1  0  0  0  0
 11 36  1  0  0  0  0
 15 37  1  0  0  0  0
 16 38  1  0  0  0  0
M  END
> <id>
EN300-28228732

> <smiles>
CC(C)(C)OC(=O)N1C[C@@H]2C[C@H]1[C@@H](O)[C@@H](O)C2 |&1:9,11,12,14,r|

> <IUPAC Name>
rac-tert-butyl (1R,3S,4R,5S)-3,4-dihydroxy-6-azabicyclo[3.2.1]octane-6-carboxylate

> <CAS>
2639370-79-7

> <URL>
https://www.enaminestore.com/catalog/EN300-28228732

> <ROCS_ShapeQuery>
x1247relevant_x1083L0AP1_x1305L0BP1_

> <ROCS_TanimotoCombo>
0.834 

> <ROCS_ShapeTanimoto>
0.501 

> <ROCS_ColorTanimoto>
0.333 

> <ROCS_RefTversky>
0.432 

> <ROCS_RefColorTversky>
0.395 

> <ROCS_RefTverskyCombo>
0.827 

> <ROCS_FitTversky>
1.467 

> <ROCS_FitColorTversky>
0.682 

> <ROCS_FitTverskyCombo>
2.149 

> <ROCS_ColorScore>
-8.424

> <ROCS_Overlap>
1273.797

> <ROCS_Rank>
122                 

$$$$
untitled-dbase-49191_1
  -OEChem-06162310163D

 34 37  0     1  0  0  0  0  0999 V2000
  -10.7902   17.1921  -36.1152 C   0  0  0  0  0  0  0  0  0  0  0  0
   -9.9537   17.7052  -35.1465 C   0  0  0  0  0  0  0  0  0  0  0  0
  -10.4798   15.8381  -36.4764 C   0  0  0  0  0  0  0  0  0  0  0  0
   -9.3295   15.4447  -35.8053 C   0  0  0  0  0  0  0  0  0  0  0  0
   -8.6304   14.1447  -36.0188 C   0  0  0  0  0  0  0  0  0  0  0  0
  -13.3369   13.7284  -38.2624 C   0  0  0  0  0  0  0  0  0  0  0  0
  -10.9796   15.4837  -38.9595 C   0  0  0  0  0  0  0  0  0  0  0  0
   -9.0787   13.5668  -37.3610 C   0  0  0  0  0  0  0  0  0  0  0  0
  -13.7383   14.6141  -39.4483 C   0  0  0  0  0  0  0  0  0  0  0  0
  -12.1074   16.4352  -39.3991 C   0  0  0  0  0  0  0  0  0  0  0  0
  -13.5585   15.9302  -37.5566 C   0  0  0  0  0  0  0  0  0  0  0  0
  -12.7014   14.7059  -37.2457 C   0  0  2  0  0  0  0  0  0  0  0  0
  -11.1691   14.9335  -37.5206 C   0  0  2  0  0  0  0  0  0  0  0  0
  -10.5410   13.5746  -37.4465 N   0  0  0  0  0  0  0  0  0  0  0  0
  -13.4704   16.0038  -39.0236 N   0  0  2  0  0  0  0  0  0  0  0  0
   -8.7453   16.5915  -34.6954 S   0  0  0  0  0  0  0  0  0  0  0  0
  -11.5981   17.7784  -36.5350 H   0  0  0  0  0  0  0  0  0  0  0  0
   -9.9987   18.6839  -34.6904 H   0  0  0  0  0  0  0  0  0  0  0  0
   -7.5536   14.3213  -36.0395 H   0  0  0  0  0  0  0  0  0  0  0  0
   -8.8525   13.4388  -35.2195 H   0  0  0  0  0  0  0  0  0  0  0  0
  -14.2356   13.2817  -37.8212 H   0  0  0  0  0  0  0  0  0  0  0  0
  -12.6770   12.9119  -38.5631 H   0  0  0  0  0  0  0  0  0  0  0  0
  -10.9722   14.6513  -39.6739 H   0  0  0  0  0  0  0  0  0  0  0  0
  -10.0126   15.9829  -39.0729 H   0  0  0  0  0  0  0  0  0  0  0  0
   -8.6705   14.1745  -38.1673 H   0  0  0  0  0  0  0  0  0  0  0  0
   -8.6861   12.5615  -37.4984 H   0  0  0  0  0  0  0  0  0  0  0  0
  -13.2150   14.3406  -40.3698 H   0  0  0  0  0  0  0  0  0  0  0  0
  -14.8094   14.4981  -39.6461 H   0  0  0  0  0  0  0  0  0  0  0  0
  -11.9330   17.4385  -38.9950 H   0  0  0  0  0  0  0  0  0  0  0  0
  -12.0621   16.5607  -40.4887 H   0  0  0  0  0  0  0  0  0  0  0  0
  -14.6026   15.7622  -37.2589 H   0  0  0  0  0  0  0  0  0  0  0  0
  -13.2448   16.8525  -37.0617 H   0  0  0  0  0  0  0  0  0  0  0  0
  -12.8821   14.3622  -36.2219 H   0  0  0  0  0  0  0  0  0  0  0  0
  -10.8302   13.0280  -38.2644 H   0  0  0  0  0  0  0  0  0  0  0  0
  1  2  2  0  0  0  0
  1  3  1  0  0  0  0
  2 16  1  0  0  0  0
  3  4  2  0  0  0  0
  3 13  1  0  0  0  0
  4  5  1  0  0  0  0
  4 16  1  0  0  0  0
  5  8  1  0  0  0  0
  6  9  1  0  0  0  0
  6 12  1  0  0  0  0
  7 10  1  0  0  0  0
  7 13  1  0  0  0  0
  8 14  1  0  0  0  0
  9 15  1  0  0  0  0
 10 15  1  0  0  0  0
 11 12  1  0  0  0  0
 11 15  1  0  0  0  0
 12 13  1  0  0  0  0
 13 14  1  0  0  0  0
  1 17  1  0  0  0  0
  2 18  1  0  0  0  0
  5 19  1  0  0  0  0
  5 20  1  0  0  0  0
  6 21  1  0  0  0  0
  6 22  1  0  0  0  0
  7 23  1  0  0  0  0
  7 24  1  0  0  0  0
  8 25  1  0  0  0  0
  8 26  1  0  0  0  0
  9 27  1  0  0  0  0
  9 28  1  0  0  0  0
 10 29  1  0  0  0  0
 10 30  1  0  0  0  0
 11 31  1  0  0  0  0
 11 32  1  0  0  0  0
 12 33  1  0  0  0  0
 14 34  1  0  0  0  0
M  END
> <id>
EN300-1074880

> <smiles>
C1CN2CC1C3(CC2)NCCC=4SC=CC43

> <IUPAC Name>
6',7'-dihydro-5'H-5-azaspiro[bicyclo[3.2.1]octane-2,4'-thieno[3,2-c]pyridine]

> <CAS>
2253640-47-8

> <URL>
https://www.enaminestore.com/catalog/EN300-1074880

> <ROCS_ShapeQuery>
x1247relevant_x1083L0AP1_x1305L0BP1_

> <ROCS_TanimotoCombo>
0.834 

> <ROCS_ShapeTanimoto>
0.485 

> <ROCS_ColorTanimoto>
0.349 

> <ROCS_RefTversky>
0.419 

> <ROCS_RefColorTversky>
0.397 

> <ROCS_RefTverskyCombo>
0.817 

> <ROCS_FitTversky>
1.476 

> <ROCS_FitColorTversky>
0.742 

> <ROCS_FitTverskyCombo>
2.218 

> <ROCS_ColorScore>
-8.465

> <ROCS_Overlap>
1235.744

> <ROCS_Rank>
123                 

$$$$
untitled-dbase-52647_121
  -OEChem-06162310163D

 34 35  0     1  0  0  0  0  0999 V2000
  -10.4590   14.9825  -36.7115 C   0  0  0  0  0  0  0  0  0  0  0  0
  -13.1002   13.7802  -38.2995 C   0  0  0  0  0  0  0  0  0  0  0  0
  -13.4689   16.2890  -37.6487 C   0  0  0  0  0  0  0  0  0  0  0  0
  -11.9994   15.7107  -39.6846 C   0  0  0  0  0  0  0  0  0  0  0  0
  -12.9983   14.8966  -37.2202 C   0  0  2  0  0  0  0  0  0  0  0  0
  -11.8058   14.4268  -38.8737 C   0  0  1  0  0  0  0  0  0  0  0  0
  -13.1989   16.5150  -39.1493 C   0  0  0  0  0  0  0  0  0  0  0  0
   -8.7006   13.1148  -37.2263 C   0  0  0  0  0  0  0  0  0  0  0  0
   -7.5457   14.6988  -38.7968 C   0  0  0  0  0  0  0  0  0  0  0  0
   -7.3263   15.0163  -36.3150 C   0  0  0  0  0  0  0  0  0  0  0  0
   -8.2446   14.5565  -37.4464 C   0  0  0  0  0  0  0  0  0  0  0  0
  -11.5682   14.7850  -37.4804 N   0  0  0  0  0  0  0  0  0  0  0  0
  -10.4207   14.8080  -35.4968 O   0  0  0  0  0  0  0  0  0  0  0  0
  -14.3570   16.1273  -39.8955 O   0  0  0  0  0  0  0  0  0  0  0  0
   -9.4002   15.4017  -37.4676 O   0  0  0  0  0  0  0  0  0  0  0  0
  -12.9616   12.7627  -37.9108 H   0  0  0  0  0  0  0  0  0  0  0  0
  -13.9861   13.7804  -38.9387 H   0  0  0  0  0  0  0  0  0  0  0  0
  -14.5378   16.3987  -37.4315 H   0  0  0  0  0  0  0  0  0  0  0  0
  -12.9345   17.0446  -37.0599 H   0  0  0  0  0  0  0  0  0  0  0  0
  -11.0888   16.3184  -39.6153 H   0  0  0  0  0  0  0  0  0  0  0  0
  -12.1448   15.4578  -40.7408 H   0  0  0  0  0  0  0  0  0  0  0  0
  -13.2935   14.5979  -36.2108 H   0  0  0  0  0  0  0  0  0  0  0  0
  -11.0800   13.7215  -39.2875 H   0  0  0  0  0  0  0  0  0  0  0  0
  -13.0562   17.5821  -39.3516 H   0  0  0  0  0  0  0  0  0  0  0  0
   -9.2028   13.0085  -36.2580 H   0  0  0  0  0  0  0  0  0  0  0  0
   -9.3875   12.7845  -38.0123 H   0  0  0  0  0  0  0  0  0  0  0  0
   -7.8434   12.4322  -37.2064 H   0  0  0  0  0  0  0  0  0  0  0  0
   -7.2169   15.7316  -38.9589 H   0  0  0  0  0  0  0  0  0  0  0  0
   -8.2313   14.4606  -39.6181 H   0  0  0  0  0  0  0  0  0  0  0  0
   -6.6735   14.0414  -38.8715 H   0  0  0  0  0  0  0  0  0  0  0  0
   -6.9991   16.0503  -36.4727 H   0  0  0  0  0  0  0  0  0  0  0  0
   -7.8242   14.9559  -35.3418 H   0  0  0  0  0  0  0  0  0  0  0  0
   -6.4166   14.4061  -36.2792 H   0  0  0  0  0  0  0  0  0  0  0  0
  -15.0812   16.6872  -39.5806 H   0  0  0  0  0  0  0  0  0  0  0  0
  1 12  1  0  0  0  0
  1 13  2  0  0  0  0
  1 15  1  0  0  0  0
  2  5  1  1  0  0  0
  2  6  1  1  0  0  0
  3  5  1  0  0  0  0
  3  7  1  0  0  0  0
  4  6  1  0  0  0  0
  4  7  1  0  0  0  0
  5 12  1  0  0  0  0
  6 12  1  0  0  0  0
  7 14  1  1  0  0  0
  8 11  1  0  0  0  0
  9 11  1  0  0  0  0
 10 11  1  0  0  0  0
 11 15  1  0  0  0  0
  2 16  1  0  0  0  0
  2 17  1  0  0  0  0
  3 18  1  0  0  0  0
  3 19  1  0  0  0  0
  4 20  1  0  0  0  0
  4 21  1  0  0  0  0
  5 22  1  0  0  0  0
  6 23  1  0  0  0  0
  7 24  1  0  0  0  0
  8 25  1  0  0  0  0
  8 26  1  0  0  0  0
  8 27  1  0  0  0  0
  9 28  1  0  0  0  0
  9 29  1  0  0  0  0
  9 30  1  0  0  0  0
 10 31  1  0  0  0  0
 10 32  1  0  0  0  0
 10 33  1  0  0  0  0
 14 34  1  0  0  0  0
M  END
> <id>
EN300-45377144

> <smiles>
CC(C)(C)OC(=O)N1[C@H]2C[C@@H]1C[C@H](O)C2

> <IUPAC Name>
tert-butyl (1R,3r,5S)-3-hydroxy-6-azabicyclo[3.1.1]heptane-6-carboxylate

> <URL>
https://www.enaminestore.com/catalog/EN300-45377144

> <ROCS_ShapeQuery>
x1247relevant_x1083L0AP1_x1305L0BP1_

> <ROCS_TanimotoCombo>
0.834 

> <ROCS_ShapeTanimoto>
0.480 

> <ROCS_ColorTanimoto>
0.353 

> <ROCS_RefTversky>
0.411 

> <ROCS_RefColorTversky>
0.393 

> <ROCS_RefTverskyCombo>
0.804 

> <ROCS_FitTversky>
1.544 

> <ROCS_FitColorTversky>
0.778 

> <ROCS_FitTverskyCombo>
2.322 

> <ROCS_ColorScore>
-8.357

> <ROCS_Overlap>
1209.743

> <ROCS_Rank>
124                 

$$$$
untitled-dbase-35557_1
  -OEChem-06162310163D

 35 37  0     1  0  0  0  0  0999 V2000
  -13.8374   15.2883  -37.2350 C   0  0  0  0  0  0  0  0  0  0  0  0
  -13.7814   14.0240  -38.1238 C   0  0  0  0  0  0  0  0  0  0  0  0
  -11.5385   16.3363  -37.6643 C   0  0  0  0  0  0  0  0  0  0  0  0
  -11.4377   14.2153  -39.1433 C   0  0  0  0  0  0  0  0  0  0  0  0
   -9.1006   14.6663  -35.5964 C   0  0  0  0  0  0  0  0  0  0  0  0
  -10.6003   14.4332  -35.5132 C   0  0  0  0  0  0  0  0  0  0  0  0
  -13.0533   16.4084  -37.9402 C   0  0  1  0  0  0  0  0  0  0  0  0
  -12.9553   14.3546  -39.3792 C   0  0  2  0  0  0  0  0  0  0  0  0
   -9.3185   15.0785  -37.9782 C   0  0  2  0  0  0  0  0  0  0  0  0
  -10.8721   14.9297  -37.8716 C   0  0  0  0  0  0  0  0  0  0  0  0
   -8.5863   13.8051  -38.4351 C   0  0  0  0  0  0  0  0  0  0  0  0
   -8.7664   15.5613  -36.7013 N   0  0  0  0  0  0  0  0  0  0  0  0
  -14.7526   16.2097  -39.9625 O   0  0  0  0  0  0  0  0  0  0  0  0
  -12.3288   16.6970  -40.4954 O   0  0  0  0  0  0  0  0  0  0  0  0
  -11.1519   14.0406  -36.7682 O   0  0  0  0  0  0  0  0  0  0  0  0
  -13.3405   16.0731  -39.6712 S   0  0  0  0  0  0  0  0  0  0  0  0
  -14.8877   15.5910  -37.1338 H   0  0  0  0  0  0  0  0  0  0  0  0
  -13.4768   15.0992  -36.2193 H   0  0  0  0  0  0  0  0  0  0  0  0
  -13.3938   13.1545  -37.5853 H   0  0  0  0  0  0  0  0  0  0  0  0
  -14.8057   13.7675  -38.4221 H   0  0  0  0  0  0  0  0  0  0  0  0
  -11.0495   17.0851  -38.2937 H   0  0  0  0  0  0  0  0  0  0  0  0
  -11.3728   16.6519  -36.6257 H   0  0  0  0  0  0  0  0  0  0  0  0
  -11.2053   13.1442  -39.1209 H   0  0  0  0  0  0  0  0  0  0  0  0
  -10.9359   14.6014  -40.0387 H   0  0  0  0  0  0  0  0  0  0  0  0
   -8.7316   15.0949  -34.6513 H   0  0  0  0  0  0  0  0  0  0  0  0
   -8.5842   13.7052  -35.7330 H   0  0  0  0  0  0  0  0  0  0  0  0
  -10.8551   13.6996  -34.7374 H   0  0  0  0  0  0  0  0  0  0  0  0
  -11.0971   15.3676  -35.2202 H   0  0  0  0  0  0  0  0  0  0  0  0
  -13.4478   17.3991  -37.6997 H   0  0  0  0  0  0  0  0  0  0  0  0
  -13.2722   13.7680  -40.2449 H   0  0  0  0  0  0  0  0  0  0  0  0
   -9.1182   15.8546  -38.7443 H   0  0  0  0  0  0  0  0  0  0  0  0
   -8.7533   13.0107  -37.7124 H   0  0  0  0  0  0  0  0  0  0  0  0
   -7.5209   14.0060  -38.5111 H   0  0  0  0  0  0  0  0  0  0  0  0
   -8.9658   13.4961  -39.4056 H   0  0  0  0  0  0  0  0  0  0  0  0
   -9.1397   16.4956  -36.4975 H   0  0  0  0  0  0  0  0  0  0  0  0
  1  2  1  0  0  0  0
  1  7  1  0  0  0  0
  2  8  1  0  0  0  0
  3  7  1  0  0  0  0
  3 10  1  0  0  0  0
  4  8  1  0  0  0  0
  4 10  1  0  0  0  0
  5  6  1  0  0  0  0
  5 12  1  0  0  0  0
  6 15  1  0  0  0  0
  7 16  1  0  0  0  0
  8 16  1  0  0  0  0
  9 10  1  0  0  0  0
  9 11  1  0  0  0  0
  9 12  1  0  0  0  0
 10 15  1  0  0  0  0
 13 16  2  0  0  0  0
 14 16  2  0  0  0  0
  1 17  1  0  0  0  0
  1 18  1  0  0  0  0
  2 19  1  0  0  0  0
  2 20  1  0  0  0  0
  3 21  1  0  0  0  0
  3 22  1  0  0  0  0
  4 23  1  0  0  0  0
  4 24  1  0  0  0  0
  5 25  1  0  0  0  0
  5 26  1  0  0  0  0
  6 27  1  0  0  0  0
  6 28  1  0  0  0  0
  7 29  1  0  0  0  0
  8 30  1  0  0  0  0
  9 31  1  0  0  0  0
 11 32  1  0  0  0  0
 11 33  1  0  0  0  0
 11 34  1  0  0  0  0
 12 35  1  0  0  0  0
M  END
> <id>
EN300-1639939

> <smiles>
CC1NCCOC21CC3CCC(C2)S3(=O)=O

> <IUPAC Name>
3'-methyl-8lambda6-thiaspiro[bicyclo[3.2.1]octane-3,2'-morpholine]-8,8-dione

> <CAS>
2171579-75-0

> <URL>
https://www.enaminestore.com/catalog/EN300-1639939

> <ROCS_ShapeQuery>
x1247relevant_x1083L0AP1_x1305L0BP1_

> <ROCS_TanimotoCombo>
0.834 

> <ROCS_ShapeTanimoto>
0.509 

> <ROCS_ColorTanimoto>
0.325 

> <ROCS_RefTversky>
0.430 

> <ROCS_RefColorTversky>
0.385 

> <ROCS_RefTverskyCombo>
0.815 

> <ROCS_FitTversky>
1.566 

> <ROCS_FitColorTversky>
0.674 

> <ROCS_FitTverskyCombo>
2.240 

> <ROCS_ColorScore>
-8.213

> <ROCS_Overlap>
1266.836

> <ROCS_Rank>
125                 

$$$$
untitled-dbase-39181_0
  -OEChem-06162310163D

 28 31  0     1  0  0  0  0  0999 V2000
  -14.3240   14.4429  -38.0983 C   0  0  0  0  0  0  0  0  0  0  0  0
  -11.4391   16.6494  -37.3822 C   0  0  0  0  0  0  0  0  0  0  0  0
  -12.9182   13.9741  -38.4706 C   0  0  2  0  0  0  0  0  0  0  0  0
  -13.8902   15.9108  -37.9660 C   0  0  1  0  0  0  0  0  0  0  0  0
  -12.6743   15.8181  -36.9877 C   0  0  1  0  0  0  0  0  0  0  0  0
  -12.1869   14.3443  -37.1727 C   0  0  2  0  0  0  0  0  0  0  0  0
  -10.5677   15.6708  -38.2056 C   0  0  1  0  0  0  0  0  0  0  0  0
  -12.4844   14.9607  -39.6194 C   0  0  1  0  0  0  0  0  0  0  0  0
  -13.4059   16.1797  -39.3965 C   0  0  1  0  0  0  0  0  0  0  0  0
  -10.6858   14.3923  -37.3855 C   0  0  1  0  0  0  0  0  0  0  0  0
  -11.0707   15.3742  -39.5596 N   0  0  0  0  0  0  0  0  0  0  0  0
  -14.5017   16.1670  -40.3066 O   0  0  0  0  0  0  0  0  0  0  0  0
  -10.0217   14.5117  -36.1353 O   0  0  0  0  0  0  0  0  0  0  0  0
  -15.0622   14.2567  -38.8841 H   0  0  0  0  0  0  0  0  0  0  0  0
  -14.6949   14.0208  -37.1579 H   0  0  0  0  0  0  0  0  0  0  0  0
  -11.6670   17.5849  -37.8990 H   0  0  0  0  0  0  0  0  0  0  0  0
  -10.8962   16.9330  -36.4710 H   0  0  0  0  0  0  0  0  0  0  0  0
  -12.8222   12.9185  -38.7346 H   0  0  0  0  0  0  0  0  0  0  0  0
  -14.6894   16.5789  -37.6377 H   0  0  0  0  0  0  0  0  0  0  0  0
  -12.9849   16.0104  -35.9555 H   0  0  0  0  0  0  0  0  0  0  0  0
  -12.4811   13.7152  -36.3247 H   0  0  0  0  0  0  0  0  0  0  0  0
   -9.5347   16.0296  -38.2577 H   0  0  0  0  0  0  0  0  0  0  0  0
  -12.6851   14.5025  -40.5943 H   0  0  0  0  0  0  0  0  0  0  0  0
  -12.9189   17.1500  -39.5206 H   0  0  0  0  0  0  0  0  0  0  0  0
  -10.3003   13.5017  -37.8939 H   0  0  0  0  0  0  0  0  0  0  0  0
  -10.9357   16.1919  -40.1537 H   0  0  0  0  0  0  0  0  0  0  0  0
  -14.1328   16.3417  -41.1865 H   0  0  0  0  0  0  0  0  0  0  0  0
   -9.0697   14.5382  -36.3245 H   0  0  0  0  0  0  0  0  0  0  0  0
  1  3  1  0  0  0  0
  1  4  1  0  0  0  0
  2  5  1  0  0  0  0
  2  7  1  0  0  0  0
  3  6  1  0  0  0  0
  3  8  1  0  0  0  0
  4  5  1  0  0  0  0
  4  9  1  0  0  0  0
  5  6  1  0  0  0  0
  6 10  1  0  0  0  0
  7 10  1  0  0  0  0
  7 11  1  0  0  0  0
  8  9  1  0  0  0  0
  8 11  1  0  0  0  0
  9 12  1  0  0  0  0
 10 13  1  0  0  0  0
  1 14  1  0  0  0  0
  1 15  1  0  0  0  0
  2 16  1  0  0  0  0
  2 17  1  0  0  0  0
  3 18  1  0  0  0  0
  4 19  1  0  0  0  0
  5 20  1  0  0  0  0
  6 21  1  0  0  0  0
  7 22  1  0  0  0  0
  8 23  1  0  0  0  0
  9 24  1  0  0  0  0
 10 25  1  0  0  0  0
 11 26  1  0  0  0  0
 12 27  1  0  0  0  0
 13 28  1  0  0  0  0
M  END
> <id>
EN300-200004

> <smiles>
OC1C2CC3C4C(O)C(CC24)NC13

> <MDLNUMBER>
MFCD28246431

> <IUPAC Name>
7-azatetracyclo[6.2.1.0^{2,6}.0^{4,10}]undecane-5,11-diol

> <CAS>
1803589-23-2

> <Purity>
95

> <URL>
https://www.enaminestore.com/catalog/EN300-200004

> <ROCS_ShapeQuery>
x1247relevant_x1083L0AP1_x1305L0BP1_

> <ROCS_TanimotoCombo>
0.834 

> <ROCS_ShapeTanimoto>
0.490 

> <ROCS_ColorTanimoto>
0.344 

> <ROCS_RefTversky>
0.411 

> <ROCS_RefColorTversky>
0.540 

> <ROCS_RefTverskyCombo>
0.951 

> <ROCS_FitTversky>
1.639 

> <ROCS_FitColorTversky>
0.486 

> <ROCS_FitTverskyCombo>
2.125 

> <ROCS_ColorScore>
-11.871

> <ROCS_Overlap>
1210.089

> <ROCS_Rank>
126                 

$$$$
untitled-dbase-5924_26
  -OEChem-06162310163D

 36 38  0     1  0  0  0  0  0999 V2000
  -12.9684   15.5080  -36.9299 C   0  0  0  0  0  0  0  0  0  0  0  0
   -9.7189   15.1918  -36.7078 C   0  0  0  0  0  0  0  0  0  0  0  0
  -13.0961   16.5495  -39.1195 C   0  0  0  0  0  0  0  0  0  0  0  0
  -14.0755   14.4246  -38.6564 C   0  0  0  0  0  0  0  0  0  0  0  0
  -10.6700   15.6621  -39.0076 C   0  0  0  0  0  0  0  0  0  0  0  0
  -13.9334   15.8211  -38.0567 C   0  0  1  0  0  0  0  0  0  0  0  0
  -11.9896   14.4499  -37.4182 C   0  0  1  0  0  0  0  0  0  0  0  0
  -12.0793   15.4637  -39.5711 C   0  0  1  0  0  0  0  0  0  0  0  0
  -12.5789   14.2042  -38.8201 C   0  0  2  0  0  0  0  0  0  0  0  0
   -8.1276   13.3100  -36.1503 C   0  0  0  0  0  0  0  0  0  0  0  0
   -8.6483   13.8644  -33.7565 C   0  0  0  0  0  0  0  0  0  0  0  0
  -10.0959   12.2366  -35.0066 C   0  0  0  0  0  0  0  0  0  0  0  0
   -9.2372   13.4957  -35.1164 C   0  0  0  0  0  0  0  0  0  0  0  0
  -10.7259   15.1132  -37.6532 N   0  0  0  0  0  0  0  0  0  0  0  0
  -12.9058   16.1049  -35.8668 O   0  0  0  0  0  0  0  0  0  0  0  0
   -8.6363   15.7420  -36.8948 O   0  0  0  0  0  0  0  0  0  0  0  0
  -10.0719   14.5818  -35.5338 O   0  0  0  0  0  0  0  0  0  0  0  0
  -13.7315   16.8340  -39.9661 H   0  0  0  0  0  0  0  0  0  0  0  0
  -12.6087   17.4513  -38.7347 H   0  0  0  0  0  0  0  0  0  0  0  0
  -14.5319   13.7040  -37.9693 H   0  0  0  0  0  0  0  0  0  0  0  0
  -14.6130   14.4232  -39.6099 H   0  0  0  0  0  0  0  0  0  0  0  0
   -9.9345   15.0733  -39.5668 H   0  0  0  0  0  0  0  0  0  0  0  0
  -10.3454   16.7066  -38.9879 H   0  0  0  0  0  0  0  0  0  0  0  0
  -14.8553   16.3045  -37.7373 H   0  0  0  0  0  0  0  0  0  0  0  0
  -11.9512   13.5896  -36.7476 H   0  0  0  0  0  0  0  0  0  0  0  0
  -12.0834   15.3514  -40.6593 H   0  0  0  0  0  0  0  0  0  0  0  0
  -12.2695   13.2611  -39.2762 H   0  0  0  0  0  0  0  0  0  0  0  0
   -8.5463   13.0452  -37.1279 H   0  0  0  0  0  0  0  0  0  0  0  0
   -7.5261   14.2177  -36.2640 H   0  0  0  0  0  0  0  0  0  0  0  0
   -7.4620   12.4870  -35.8660 H   0  0  0  0  0  0  0  0  0  0  0  0
   -9.4409   13.9986  -33.0115 H   0  0  0  0  0  0  0  0  0  0  0  0
   -8.1101   14.8177  -33.8097 H   0  0  0  0  0  0  0  0  0  0  0  0
   -7.9579   13.0962  -33.3935 H   0  0  0  0  0  0  0  0  0  0  0  0
  -10.8919   12.3696  -34.2650 H   0  0  0  0  0  0  0  0  0  0  0  0
  -10.5567   11.9777  -35.9654 H   0  0  0  0  0  0  0  0  0  0  0  0
   -9.4962   11.3843  -34.6670 H   0  0  0  0  0  0  0  0  0  0  0  0
  1  6  1  0  0  0  0
  1  7  1  0  0  0  0
  1 15  2  0  0  0  0
  2 14  1  0  0  0  0
  2 16  2  0  0  0  0
  2 17  1  0  0  0  0
  3  6  1  0  0  0  0
  3  8  1  0  0  0  0
  4  6  1  0  0  0  0
  4  9  1  0  0  0  0
  5  8  1  0  0  0  0
  5 14  1  0  0  0  0
  7  9  1  0  0  0  0
  7 14  1  0  0  0  0
  8  9  1  0  0  0  0
 10 13  1  0  0  0  0
 11 13  1  0  0  0  0
 12 13  1  0  0  0  0
 13 17  1  0  0  0  0
  3 18  1  0  0  0  0
  3 19  1  0  0  0  0
  4 20  1  0  0  0  0
  4 21  1  0  0  0  0
  5 22  1  0  0  0  0
  5 23  1  0  0  0  0
  6 24  1  0  0  0  0
  7 25  1  0  0  0  0
  8 26  1  0  0  0  0
  9 27  1  0  0  0  0
 10 28  1  0  0  0  0
 10 29  1  0  0  0  0
 10 30  1  0  0  0  0
 11 31  1  0  0  0  0
 11 32  1  0  0  0  0
 11 33  1  0  0  0  0
 12 34  1  0  0  0  0
 12 35  1  0  0  0  0
 12 36  1  0  0  0  0
M  END
> <id>
EN300-223283

> <smiles>
CC(C)(C)OC(=O)N1CC2CC3CC2C1C3=O

> <MDLNUMBER>
MFCD29033889

> <IUPAC Name>
tert-butyl 2-oxo-4-azatricyclo[4.2.1.0,3,7]nonane-4-carboxylate

> <CAS>
1808838-62-1

> <Purity>
95

> <URL>
https://www.enaminestore.com/catalog/EN300-223283

> <ROCS_ShapeQuery>
x1247relevant_x1083L0AP1_x1305L0BP1_

> <ROCS_TanimotoCombo>
0.834 

> <ROCS_ShapeTanimoto>
0.504 

> <ROCS_ColorTanimoto>
0.329 

> <ROCS_RefTversky>
0.437 

> <ROCS_RefColorTversky>
0.431 

> <ROCS_RefTverskyCombo>
0.869 

> <ROCS_FitTversky>
1.436 

> <ROCS_FitColorTversky>
0.582 

> <ROCS_FitTverskyCombo>
2.018 

> <ROCS_ColorScore>
-9.287

> <ROCS_Overlap>
1290.628

> <ROCS_Rank>
127                 

$$$$
untitled-dbase-14047_2
  -OEChem-06162310163D

 34 37  0     1  0  0  0  0  0999 V2000
   -9.2273   16.0285  -34.4318 C   0  0  0  0  0  0  0  0  0  0  0  0
  -10.3766   16.4068  -33.7779 C   0  0  0  0  0  0  0  0  0  0  0  0
   -9.5101   15.4538  -35.7034 C   0  0  0  0  0  0  0  0  0  0  0  0
  -10.8652   15.4424  -35.9974 C   0  0  0  0  0  0  0  0  0  0  0  0
   -8.5247   14.8971  -36.6720 C   0  0  0  0  0  0  0  0  0  0  0  0
  -13.8096   15.7577  -37.3714 C   0  0  0  0  0  0  0  0  0  0  0  0
  -13.2779   13.7476  -38.6270 C   0  0  0  0  0  0  0  0  0  0  0  0
   -9.1282   13.7684  -37.5277 C   0  0  0  0  0  0  0  0  0  0  0  0
  -13.4616   16.5732  -38.6228 C   0  0  0  0  0  0  0  0  0  0  0  0
  -12.7848   14.5944  -39.8132 C   0  0  0  0  0  0  0  0  0  0  0  0
  -11.1758   15.8410  -38.5051 C   0  0  0  0  0  0  0  0  0  0  0  0
  -12.9244   14.4845  -37.3095 C   0  0  0  0  0  0  0  0  0  0  0  0
  -11.3947   14.8528  -37.3109 C   0  0  2  0  0  0  0  0  0  0  0  0
  -10.5927   13.6117  -37.5071 N   0  0  0  0  0  0  0  0  0  0  0  0
  -12.3661   15.9479  -39.3853 N   0  0  0  0  0  0  0  0  0  0  0  0
  -11.7742   16.0541  -34.6931 S   0  0  0  0  0  0  0  0  0  0  0  0
   -8.2374   16.1704  -34.0221 H   0  0  0  0  0  0  0  0  0  0  0  0
  -10.4595   16.8851  -32.8130 H   0  0  0  0  0  0  0  0  0  0  0  0
   -8.1887   15.7085  -37.3334 H   0  0  0  0  0  0  0  0  0  0  0  0
   -7.6382   14.5191  -36.1463 H   0  0  0  0  0  0  0  0  0  0  0  0
  -13.7072   16.3610  -36.4652 H   0  0  0  0  0  0  0  0  0  0  0  0
  -14.8673   15.4623  -37.4086 H   0  0  0  0  0  0  0  0  0  0  0  0
  -14.3621   13.6080  -38.6962 H   0  0  0  0  0  0  0  0  0  0  0  0
  -12.8324   12.7495  -38.6582 H   0  0  0  0  0  0  0  0  0  0  0  0
   -8.8089   13.9218  -38.5894 H   0  0  0  0  0  0  0  0  0  0  0  0
   -8.6393   12.7954  -37.2637 H   0  0  0  0  0  0  0  0  0  0  0  0
  -14.3479   16.6695  -39.2609 H   0  0  0  0  0  0  0  0  0  0  0  0
  -13.1881   17.5979  -38.3477 H   0  0  0  0  0  0  0  0  0  0  0  0
  -11.9502   14.0889  -40.3127 H   0  0  0  0  0  0  0  0  0  0  0  0
  -13.5757   14.6740  -40.5679 H   0  0  0  0  0  0  0  0  0  0  0  0
  -10.8902   16.8473  -38.1724 H   0  0  0  0  0  0  0  0  0  0  0  0
  -10.3264   15.5318  -39.1332 H   0  0  0  0  0  0  0  0  0  0  0  0
  -13.2190   13.8864  -36.4455 H   0  0  0  0  0  0  0  0  0  0  0  0
  -10.8780   13.1622  -38.3942 H   0  0  0  0  0  0  0  0  0  0  0  0
  1  2  2  0  0  0  0
  1  3  1  0  0  0  0
  2 16  1  0  0  0  0
  3  4  2  0  0  0  0
  3  5  1  0  0  0  0
  4 13  1  0  0  0  0
  4 16  1  0  0  0  0
  5  8  1  0  0  0  0
  6  9  1  0  0  0  0
  6 12  1  0  0  0  0
  7 10  1  0  0  0  0
  7 12  1  0  0  0  0
  8 14  1  0  0  0  0
  9 15  1  0  0  0  0
 10 15  1  0  0  0  0
 11 13  1  0  0  0  0
 11 15  1  0  0  0  0
 12 13  1  0  0  0  0
 13 14  1  0  0  0  0
  1 17  1  0  0  0  0
  2 18  1  0  0  0  0
  5 19  1  0  0  0  0
  5 20  1  0  0  0  0
  6 21  1  0  0  0  0
  6 22  1  0  0  0  0
  7 23  1  0  0  0  0
  7 24  1  0  0  0  0
  8 25  1  0  0  0  0
  8 26  1  0  0  0  0
  9 27  1  0  0  0  0
  9 28  1  0  0  0  0
 10 29  1  0  0  0  0
 10 30  1  0  0  0  0
 11 31  1  0  0  0  0
 11 32  1  0  0  0  0
 12 33  1  0  0  0  0
 14 34  1  0  0  0  0
M  END
> <id>
EN300-1075731

> <smiles>
C1CC=2C=CSC2C3(CN4CCC3CC4)N1

> <IUPAC Name>
5',6'-dihydro-4'H-4-azaspiro[bicyclo[2.2.2]octane-2,7'-thieno[2,3-c]pyridine]

> <CAS>
2138025-10-0

> <URL>
https://www.enaminestore.com/catalog/EN300-1075731

> <ROCS_ShapeQuery>
x1247relevant_x1083L0AP1_x1305L0BP1_

> <ROCS_TanimotoCombo>
0.834 

> <ROCS_ShapeTanimoto>
0.475 

> <ROCS_ColorTanimoto>
0.359 

> <ROCS_RefTversky>
0.413 

> <ROCS_RefColorTversky>
0.408 

> <ROCS_RefTverskyCombo>
0.821 

> <ROCS_FitTversky>
1.457 

> <ROCS_FitColorTversky>
0.749 

> <ROCS_FitTverskyCombo>
2.206 

> <ROCS_ColorScore>
-8.693

> <ROCS_Overlap>
1217.773

> <ROCS_Rank>
128                 

$$$$
untitled-dbase-20445_3
  -OEChem-06162310163D

 32 34  0     1  0  0  0  0  0999 V2000
   -9.9518   14.8936  -36.9445 C   0  0  0  0  0  0  0  0  0  0  0  0
  -14.0279   15.5472  -37.6592 C   0  0  0  0  0  0  0  0  0  0  0  0
  -13.3863   14.1695  -37.4172 C   0  0  0  0  0  0  0  0  0  0  0  0
  -11.8622   16.4568  -40.7796 C   0  0  0  0  0  0  0  0  0  0  0  0
  -10.9441   14.3460  -40.4609 C   0  0  0  0  0  0  0  0  0  0  0  0
  -11.7438   16.5209  -37.6849 C   0  0  0  0  0  0  0  0  0  0  0  0
  -13.0623   16.4340  -38.4744 C   0  0  1  0  0  0  0  0  0  0  0  0
  -12.8421   15.7452  -39.8469 C   0  0  2  0  0  0  0  0  0  0  0  0
  -12.2253   14.3430  -39.6282 C   0  0  2  0  0  0  0  0  0  0  0  0
  -12.0133   14.1017  -38.1133 C   0  0  1  0  0  0  0  0  0  0  0  0
   -9.8469   13.5444  -36.2775 C   0  0  0  0  0  0  0  0  0  0  0  0
  -10.5921   15.7573  -40.5958 N   0  0  0  0  0  0  0  0  0  0  0  0
  -11.1717   15.1749  -37.5506 N   0  0  0  0  0  0  0  0  0  0  0  0
   -8.9920   15.6663  -36.9231 O   0  0  0  0  0  0  0  0  0  0  0  0
  -10.9981   12.8623  -36.4098 F   0  0  0  0  0  0  0  0  0  0  0  0
   -8.8596   12.8185  -36.8312 F   0  0  0  0  0  0  0  0  0  0  0  0
   -9.5853   13.6815  -34.9656 F   0  0  0  0  0  0  0  0  0  0  0  0
  -14.9795   15.4291  -38.1908 H   0  0  0  0  0  0  0  0  0  0  0  0
  -14.2610   16.0208  -36.6981 H   0  0  0  0  0  0  0  0  0  0  0  0
  -13.2747   13.9924  -36.3404 H   0  0  0  0  0  0  0  0  0  0  0  0
  -14.0461   13.3805  -37.7971 H   0  0  0  0  0  0  0  0  0  0  0  0
  -12.1917   16.3478  -41.8203 H   0  0  0  0  0  0  0  0  0  0  0  0
  -11.7689   17.5258  -40.5667 H   0  0  0  0  0  0  0  0  0  0  0  0
  -10.1347   13.7702  -40.0027 H   0  0  0  0  0  0  0  0  0  0  0  0
  -11.1421   13.9213  -41.4526 H   0  0  0  0  0  0  0  0  0  0  0  0
  -11.0166   17.1743  -38.1764 H   0  0  0  0  0  0  0  0  0  0  0  0
  -11.9169   16.9202  -36.6789 H   0  0  0  0  0  0  0  0  0  0  0  0
  -13.4904   17.4329  -38.6113 H   0  0  0  0  0  0  0  0  0  0  0  0
  -13.8106   15.6510  -40.3553 H   0  0  0  0  0  0  0  0  0  0  0  0
  -12.9027   13.5721  -40.0180 H   0  0  0  0  0  0  0  0  0  0  0  0
  -11.5528   13.1227  -37.9443 H   0  0  0  0  0  0  0  0  0  0  0  0
   -9.9784   15.9036  -41.3951 H   0  0  0  0  0  0  0  0  0  0  0  0
  1 11  1  0  0  0  0
  1 13  1  0  0  0  0
  1 14  2  0  0  0  0
  2  3  1  0  0  0  0
  2  7  1  0  0  0  0
  3 10  1  0  0  0  0
  4  8  1  0  0  0  0
  4 12  1  0  0  0  0
  5  9  1  0  0  0  0
  5 12  1  0  0  0  0
  6  7  1  0  0  0  0
  6 13  1  0  0  0  0
  7  8  1  0  0  0  0
  8  9  1  0  0  0  0
  9 10  1  0  0  0  0
 10 13  1  0  0  0  0
 11 15  1  0  0  0  0
 11 16  1  0  0  0  0
 11 17  1  0  0  0  0
  2 18  1  0  0  0  0
  2 19  1  0  0  0  0
  3 20  1  0  0  0  0
  3 21  1  0  0  0  0
  4 22  1  0  0  0  0
  4 23  1  0  0  0  0
  5 24  1  0  0  0  0
  5 25  1  0  0  0  0
  6 26  1  0  0  0  0
  6 27  1  0  0  0  0
  7 28  1  0  0  0  0
  8 29  1  0  0  0  0
  9 30  1  0  0  0  0
 10 31  1  0  0  0  0
 12 32  1  0  0  0  0
M  END
> <id>
EN300-322388

> <smiles>
FC(F)(F)C(=O)N1CC2CCC1C3CNCC32

> <MDLNUMBER>
MFCD30486558

> <IUPAC Name>
1-{4,8-diazatricyclo[5.2.2.0,2,6]undecan-8-yl}-2,2,2-trifluoroethan-1-one

> <CAS>
2044902-16-9

> <URL>
https://www.enaminestore.com/catalog/EN300-322388

> <ROCS_ShapeQuery>
x1247relevant_x1083L0AP1_x1305L0BP1_

> <ROCS_TanimotoCombo>
0.834 

> <ROCS_ShapeTanimoto>
0.516 

> <ROCS_ColorTanimoto>
0.318 

> <ROCS_RefTversky>
0.444 

> <ROCS_RefColorTversky>
0.363 

> <ROCS_RefTverskyCombo>
0.807 

> <ROCS_FitTversky>
1.454 

> <ROCS_FitColorTversky>
0.720 

> <ROCS_FitTverskyCombo>
2.174 

> <ROCS_ColorScore>
-7.711

> <ROCS_Overlap>
1310.568

> <ROCS_Rank>
129                 

$$$$
untitled-dbase-34184_3
  -OEChem-06162310163D

 32 34  0     1  0  0  0  0  0999 V2000
   -9.9518   14.8936  -36.9445 C   0  0  0  0  0  0  0  0  0  0  0  0
  -14.0279   15.5472  -37.6592 C   0  0  0  0  0  0  0  0  0  0  0  0
  -13.3863   14.1695  -37.4172 C   0  0  0  0  0  0  0  0  0  0  0  0
  -11.8622   16.4568  -40.7796 C   0  0  0  0  0  0  0  0  0  0  0  0
  -10.9441   14.3460  -40.4609 C   0  0  0  0  0  0  0  0  0  0  0  0
  -11.7438   16.5209  -37.6849 C   0  0  0  0  0  0  0  0  0  0  0  0
  -13.0623   16.4340  -38.4744 C   0  0  1  0  0  0  0  0  0  0  0  0
  -12.8421   15.7452  -39.8469 C   0  0  2  0  0  0  0  0  0  0  0  0
  -12.2253   14.3430  -39.6282 C   0  0  2  0  0  0  0  0  0  0  0  0
  -12.0133   14.1017  -38.1133 C   0  0  1  0  0  0  0  0  0  0  0  0
   -9.8469   13.5444  -36.2775 C   0  0  0  0  0  0  0  0  0  0  0  0
  -10.5921   15.7573  -40.5958 N   0  0  0  0  0  0  0  0  0  0  0  0
  -11.1717   15.1749  -37.5506 N   0  0  0  0  0  0  0  0  0  0  0  0
   -8.9920   15.6663  -36.9231 O   0  0  0  0  0  0  0  0  0  0  0  0
  -10.9981   12.8623  -36.4098 F   0  0  0  0  0  0  0  0  0  0  0  0
   -8.8596   12.8185  -36.8312 F   0  0  0  0  0  0  0  0  0  0  0  0
   -9.5853   13.6815  -34.9656 F   0  0  0  0  0  0  0  0  0  0  0  0
  -14.9795   15.4291  -38.1908 H   0  0  0  0  0  0  0  0  0  0  0  0
  -14.2610   16.0208  -36.6981 H   0  0  0  0  0  0  0  0  0  0  0  0
  -13.2747   13.9924  -36.3404 H   0  0  0  0  0  0  0  0  0  0  0  0
  -14.0461   13.3805  -37.7971 H   0  0  0  0  0  0  0  0  0  0  0  0
  -12.1917   16.3478  -41.8203 H   0  0  0  0  0  0  0  0  0  0  0  0
  -11.7689   17.5258  -40.5667 H   0  0  0  0  0  0  0  0  0  0  0  0
  -10.1347   13.7702  -40.0027 H   0  0  0  0  0  0  0  0  0  0  0  0
  -11.1421   13.9213  -41.4526 H   0  0  0  0  0  0  0  0  0  0  0  0
  -11.0166   17.1743  -38.1764 H   0  0  0  0  0  0  0  0  0  0  0  0
  -11.9169   16.9202  -36.6789 H   0  0  0  0  0  0  0  0  0  0  0  0
  -13.4904   17.4329  -38.6113 H   0  0  0  0  0  0  0  0  0  0  0  0
  -13.8106   15.6510  -40.3553 H   0  0  0  0  0  0  0  0  0  0  0  0
  -12.9027   13.5721  -40.0180 H   0  0  0  0  0  0  0  0  0  0  0  0
  -11.5528   13.1227  -37.9443 H   0  0  0  0  0  0  0  0  0  0  0  0
   -9.9784   15.9036  -41.3951 H   0  0  0  0  0  0  0  0  0  0  0  0
  1 11  1  0  0  0  0
  1 13  1  0  0  0  0
  1 14  2  0  0  0  0
  2  3  1  0  0  0  0
  2  7  1  0  0  0  0
  3 10  1  0  0  0  0
  4  8  1  0  0  0  0
  4 12  1  0  0  0  0
  5  9  1  0  0  0  0
  5 12  1  0  0  0  0
  6  7  1  0  0  0  0
  6 13  1  0  0  0  0
  7  8  1  0  0  0  0
  8  9  1  0  0  0  0
  9 10  1  0  0  0  0
 10 13  1  0  0  0  0
 11 15  1  0  0  0  0
 11 16  1  0  0  0  0
 11 17  1  0  0  0  0
  2 18  1  0  0  0  0
  2 19  1  0  0  0  0
  3 20  1  0  0  0  0
  3 21  1  0  0  0  0
  4 22  1  0  0  0  0
  4 23  1  0  0  0  0
  5 24  1  0  0  0  0
  5 25  1  0  0  0  0
  6 26  1  0  0  0  0
  6 27  1  0  0  0  0
  7 28  1  0  0  0  0
  8 29  1  0  0  0  0
  9 30  1  0  0  0  0
 10 31  1  0  0  0  0
 12 32  1  0  0  0  0
M  END
> <id>
EN300-322596

> <smiles>
Cl.FC(F)(F)C(=O)N1CC2CCC1C3CNCC32

> <MDLNUMBER>
MFCD30486561

> <IUPAC Name>
1-{4,8-diazatricyclo[5.2.2.0,2,6]undecan-8-yl}-2,2,2-trifluoroethan-1-one hydrochloride

> <CAS>
2044902-17-0

> <Purity>
95

> <URL>
https://www.enaminestore.com/catalog/EN300-322596

> <Saltdate>
Cl

> <ROCS_ShapeQuery>
x1247relevant_x1083L0AP1_x1305L0BP1_

> <ROCS_TanimotoCombo>
0.834 

> <ROCS_ShapeTanimoto>
0.516 

> <ROCS_ColorTanimoto>
0.318 

> <ROCS_RefTversky>
0.444 

> <ROCS_RefColorTversky>
0.363 

> <ROCS_RefTverskyCombo>
0.807 

> <ROCS_FitTversky>
1.454 

> <ROCS_FitColorTversky>
0.720 

> <ROCS_FitTverskyCombo>
2.174 

> <ROCS_ColorScore>
-7.711

> <ROCS_Overlap>
1310.568

> <ROCS_Rank>
130                 

$$$$
untitled-dbase-11340_0
  -OEChem-06162310163D

 29 31  0     1  0  0  0  0  0999 V2000
  -11.6269   14.3186  -37.8512 C   0  0  0  0  0  0  0  0  0  0  0  0
  -12.5870   13.6608  -38.7894 C   0  0  0  0  0  0  0  0  0  0  0  0
  -12.8675   15.9493  -39.7619 C   0  0  0  0  0  0  0  0  0  0  0  0
  -11.7978   16.5108  -38.7952 C   0  0  0  0  0  0  0  0  0  0  0  0
  -11.2794   16.0702  -36.2735 C   0  0  0  0  0  0  0  0  0  0  0  0
  -13.5756   14.8588  -38.9130 C   0  0  2  0  0  0  0  0  0  0  0  0
  -12.0717   15.7166  -37.5029 C   0  0  2  0  0  0  0  0  0  0  0  0
  -13.5986   15.4939  -37.4843 C   0  0  0  0  0  0  0  0  0  0  0  0
  -14.1180   14.5441  -36.3858 C   0  0  0  0  0  0  0  0  0  0  0  0
  -14.4230   16.7888  -37.3753 C   0  0  0  0  0  0  0  0  0  0  0  0
  -10.5460   13.8416  -37.3347 N   0  0  0  0  0  0  0  0  0  0  0  0
   -8.7718   15.6215  -36.9841 O   0  0  0  0  0  0  0  0  0  0  0  0
   -9.7043   14.3720  -34.9957 O   0  0  0  0  0  0  0  0  0  0  0  0
   -9.8674   14.9447  -36.3174 S   0  0  0  0  0  0  0  0  0  0  0  0
  -12.1082   13.3901  -39.7328 H   0  0  0  0  0  0  0  0  0  0  0  0
  -13.0417   12.7838  -38.3237 H   0  0  0  0  0  0  0  0  0  0  0  0
  -13.5664   16.7347  -40.0678 H   0  0  0  0  0  0  0  0  0  0  0  0
  -12.4152   15.5407  -40.6718 H   0  0  0  0  0  0  0  0  0  0  0  0
  -10.7909   16.3403  -39.1937 H   0  0  0  0  0  0  0  0  0  0  0  0
  -11.9255   17.5887  -38.6519 H   0  0  0  0  0  0  0  0  0  0  0  0
  -10.9157   17.1000  -36.2659 H   0  0  0  0  0  0  0  0  0  0  0  0
  -11.8275   15.8655  -35.3499 H   0  0  0  0  0  0  0  0  0  0  0  0
  -14.5500   14.5688  -39.3132 H   0  0  0  0  0  0  0  0  0  0  0  0
  -14.1007   15.0611  -35.4334 H   0  0  0  0  0  0  0  0  0  0  0  0
  -13.4787   13.6701  -36.3421 H   0  0  0  0  0  0  0  0  0  0  0  0
  -15.1324   14.2470  -36.6253 H   0  0  0  0  0  0  0  0  0  0  0  0
  -14.3812   17.1543  -36.3547 H   0  0  0  0  0  0  0  0  0  0  0  0
  -15.4524   16.5810  -37.6474 H   0  0  0  0  0  0  0  0  0  0  0  0
  -14.0099   17.5332  -38.0477 H   0  0  0  0  0  0  0  0  0  0  0  0
  1  2  1  0  0  0  0
  1  7  1  0  0  0  0
  1 11  2  0  0  0  0
  2  6  1  0  0  0  0
  3  4  1  0  0  0  0
  3  6  1  0  0  0  0
  4  7  1  0  0  0  0
  5  7  1  0  0  0  0
  5 14  1  0  0  0  0
  6  8  1  0  0  0  0
  7  8  1  0  0  0  0
  8  9  1  0  0  0  0
  8 10  1  0  0  0  0
 11 14  1  0  0  0  0
 12 14  2  0  0  0  0
 13 14  2  0  0  0  0
  2 15  1  0  0  0  0
  2 16  1  0  0  0  0
  3 17  1  0  0  0  0
  3 18  1  0  0  0  0
  4 19  1  0  0  0  0
  4 20  1  0  0  0  0
  5 21  1  0  0  0  0
  5 22  1  0  0  0  0
  6 23  1  0  0  0  0
  9 24  1  0  0  0  0
  9 25  1  0  0  0  0
  9 26  1  0  0  0  0
 10 27  1  0  0  0  0
 10 28  1  0  0  0  0
 10 29  1  0  0  0  0
M  END
> <id>
EN300-21252

> <smiles>
CC1(C)C2CCC31CS(=O)(=O)N=C3C2

> <MDLNUMBER>
MFCD01101548

> <IUPAC Name>
10,10-dimethyl-3lambda6-thia-4-azatricyclo[5.2.1.0,1,5]dec-4-ene-3,3-dione

> <CAS>
104319-35-9

> <Purity>
95

> <URL>
https://www.enaminestore.com/catalog/EN300-21252

> <MP>
212-213

> <ROCS_ShapeQuery>
x1247relevant_x1083L0AP1_x1305L0BP1_

> <ROCS_TanimotoCombo>
0.833 

> <ROCS_ShapeTanimoto>
0.485 

> <ROCS_ColorTanimoto>
0.348 

> <ROCS_RefTversky>
0.410 

> <ROCS_RefColorTversky>
0.414 

> <ROCS_RefTverskyCombo>
0.824 

> <ROCS_FitTversky>
1.617 

> <ROCS_FitColorTversky>
0.686 

> <ROCS_FitTverskyCombo>
2.303 

> <ROCS_ColorScore>
-8.854

> <ROCS_Overlap>
1205.060

> <ROCS_Rank>
131                 

$$$$
untitled-dbase-23547_0
  -OEChem-06162310163D

 30 33  0     1  0  0  0  0  0999 V2000
  -14.1441   15.2330  -38.5351 C   0  0  0  0  0  0  0  0  0  0  0  0
  -13.5179   15.4964  -37.1441 C   0  0  0  0  0  0  0  0  0  0  0  0
  -12.1062   13.9579  -39.2468 C   0  0  0  0  0  0  0  0  0  0  0  0
  -11.1226   16.1293  -36.3591 C   0  0  0  0  0  0  0  0  0  0  0  0
  -12.9226   15.2752  -39.4933 C   0  0  2  0  0  0  0  0  0  0  0  0
  -12.0132   15.6414  -37.4785 C   0  0  2  0  0  0  0  0  0  0  0  0
  -12.0278   16.3879  -38.8523 C   0  0  0  0  0  0  0  0  0  0  0  0
  -11.5619   14.2749  -37.9036 C   0  0  2  0  0  0  0  0  0  0  0  0
  -12.6713   17.7875  -38.8267 C   0  0  0  0  0  0  0  0  0  0  0  0
  -10.6569   16.5561  -39.5371 C   0  0  0  0  0  0  0  0  0  0  0  0
  -10.2177   13.8979  -37.4961 N   0  0  2  0  0  0  0  0  0  0  0  0
   -8.5549   15.7807  -36.8761 O   0  0  0  0  0  0  0  0  0  0  0  0
   -9.6013   14.4218  -35.0192 O   0  0  0  0  0  0  0  0  0  0  0  0
  -11.3782   13.2614  -36.9297 O   0  0  0  0  0  0  0  0  0  0  0  0
   -9.6790   15.0524  -36.3221 S   0  0  0  0  0  0  0  0  0  0  0  0
  -14.6632   14.2692  -38.5673 H   0  0  0  0  0  0  0  0  0  0  0  0
  -14.8760   16.0084  -38.7844 H   0  0  0  0  0  0  0  0  0  0  0  0
  -13.9320   16.4017  -36.6883 H   0  0  0  0  0  0  0  0  0  0  0  0
  -13.7177   14.6606  -36.4640 H   0  0  0  0  0  0  0  0  0  0  0  0
  -12.7487   13.0722  -39.2503 H   0  0  0  0  0  0  0  0  0  0  0  0
  -11.3208   13.8317  -39.9980 H   0  0  0  0  0  0  0  0  0  0  0  0
  -10.7916   17.1617  -36.4917 H   0  0  0  0  0  0  0  0  0  0  0  0
  -11.6126   16.0290  -35.3855 H   0  0  0  0  0  0  0  0  0  0  0  0
  -13.1955   15.4246  -40.5403 H   0  0  0  0  0  0  0  0  0  0  0  0
  -11.9821   18.4875  -38.3677 H   0  0  0  0  0  0  0  0  0  0  0  0
  -13.5897   17.7462  -38.2517 H   0  0  0  0  0  0  0  0  0  0  0  0
  -12.8878   18.0982  -39.8427 H   0  0  0  0  0  0  0  0  0  0  0  0
  -10.1036   17.3415  -39.0351 H   0  0  0  0  0  0  0  0  0  0  0  0
  -10.8100   16.8210  -40.5770 H   0  0  0  0  0  0  0  0  0  0  0  0
  -10.1108   15.6220  -39.4719 H   0  0  0  0  0  0  0  0  0  0  0  0
  1  2  1  0  0  0  0
  1  5  1  1  0  0  0
  2  6  1  1  0  0  0
  3  5  1  0  0  0  0
  3  8  1  6  0  0  0
  4  6  1  0  0  0  0
  4 15  1  0  0  0  0
  5  7  1  0  0  0  0
  6  7  1  0  0  0  0
  6  8  1  0  0  0  0
  7  9  1  0  0  0  0
  7 10  1  0  0  0  0
  8 11  1  0  0  0  0
  8 14  1  0  0  0  0
 11 14  1  0  0  0  0
 11 15  1  0  0  0  0
 12 15  2  0  0  0  0
 13 15  2  0  0  0  0
  1 16  1  0  0  0  0
  1 17  1  0  0  0  0
  2 18  1  0  0  0  0
  2 19  1  0  0  0  0
  3 20  1  0  0  0  0
  3 21  1  0  0  0  0
  4 22  1  0  0  0  0
  4 23  1  0  0  0  0
  5 24  1  0  0  0  0
  9 25  1  0  0  0  0
  9 26  1  0  0  0  0
  9 27  1  0  0  0  0
 10 28  1  0  0  0  0
 10 29  1  0  0  0  0
 10 30  1  0  0  0  0
M  END
> <id>
EN300-6480222

> <smiles>
CC1(C)[C@@H]2CC[C@@]31CS(=O)(=O)N4O[C@]43C2

> <MDLNUMBER>
MFCD21332910

> <IUPAC Name>
(1S,6S,8R)-11,11-dimethyl-5-oxa-3lambda6-thia-4-azatetracyclo[6.2.1.0^{1,6}.0^{4,6}]undecane-3,3-dione

> <CAS>
104322-63-6

> <Purity>
95

> <URL>
https://www.enaminestore.com/catalog/EN300-6480222

> <MP>
172-174

> <ROCS_ShapeQuery>
x1247relevant_x1083L0AP1_x1305L0BP1_

> <ROCS_TanimotoCombo>
0.833 

> <ROCS_ShapeTanimoto>
0.509 

> <ROCS_ColorTanimoto>
0.325 

> <ROCS_RefTversky>
0.429 

> <ROCS_RefColorTversky>
0.402 

> <ROCS_RefTverskyCombo>
0.831 

> <ROCS_FitTversky>
1.580 

> <ROCS_FitColorTversky>
0.627 

> <ROCS_FitTverskyCombo>
2.208 

> <ROCS_ColorScore>
-8.615

> <ROCS_Overlap>
1262.629

> <ROCS_Rank>
132                 

$$$$
untitled-dbase-36634_0
  -OEChem-06162310163D

 30 33  0     1  0  0  0  0  0999 V2000
  -14.1437   15.2340  -38.5361 C   0  0  0  0  0  0  0  0  0  0  0  0
  -13.5182   15.4963  -37.1446 C   0  0  0  0  0  0  0  0  0  0  0  0
  -12.1060   13.9578  -39.2467 C   0  0  0  0  0  0  0  0  0  0  0  0
  -11.1233   16.1280  -36.3579 C   0  0  0  0  0  0  0  0  0  0  0  0
  -12.9216   15.2757  -39.4935 C   0  0  2  0  0  0  0  0  0  0  0  0
  -12.0133   15.6410  -37.4781 C   0  0  2  0  0  0  0  0  0  0  0  0
  -12.0268   16.3878  -38.8517 C   0  0  0  0  0  0  0  0  0  0  0  0
  -11.5621   14.2745  -37.9032 C   0  0  2  0  0  0  0  0  0  0  0  0
  -12.6697   17.7878  -38.8259 C   0  0  0  0  0  0  0  0  0  0  0  0
  -10.6555   16.5557  -39.5358 C   0  0  0  0  0  0  0  0  0  0  0  0
  -10.2180   13.8973  -37.4956 N   0  0  2  0  0  0  0  0  0  0  0  0
   -8.5558   15.7810  -36.8765 O   0  0  0  0  0  0  0  0  0  0  0  0
   -9.6001   14.4215  -35.0190 O   0  0  0  0  0  0  0  0  0  0  0  0
  -11.3785   13.2610  -36.9292 O   0  0  0  0  0  0  0  0  0  0  0  0
   -9.6791   15.0519  -36.3218 S   0  0  0  0  0  0  0  0  0  0  0  0
  -14.6635   14.2706  -38.5690 H   0  0  0  0  0  0  0  0  0  0  0  0
  -14.8749   16.0100  -38.7854 H   0  0  0  0  0  0  0  0  0  0  0  0
  -13.9322   16.4014  -36.6885 H   0  0  0  0  0  0  0  0  0  0  0  0
  -13.7186   14.6601  -36.4651 H   0  0  0  0  0  0  0  0  0  0  0  0
  -12.7491   13.0724  -39.2505 H   0  0  0  0  0  0  0  0  0  0  0  0
  -11.3204   13.8312  -39.9976 H   0  0  0  0  0  0  0  0  0  0  0  0
  -10.7930   17.1609  -36.4890 H   0  0  0  0  0  0  0  0  0  0  0  0
  -11.6135   16.0261  -35.3845 H   0  0  0  0  0  0  0  0  0  0  0  0
  -13.1938   15.4254  -40.5406 H   0  0  0  0  0  0  0  0  0  0  0  0
  -11.9804   18.4873  -38.3664 H   0  0  0  0  0  0  0  0  0  0  0  0
  -13.5884   17.7466  -38.2514 H   0  0  0  0  0  0  0  0  0  0  0  0
  -12.8856   18.0988  -39.8420 H   0  0  0  0  0  0  0  0  0  0  0  0
  -10.1021   17.3408  -39.0333 H   0  0  0  0  0  0  0  0  0  0  0  0
  -10.8079   16.8210  -40.5757 H   0  0  0  0  0  0  0  0  0  0  0  0
  -10.1098   15.6214  -39.4706 H   0  0  0  0  0  0  0  0  0  0  0  0
  1  2  1  0  0  0  0
  1  5  1  0  0  0  0
  2  6  1  0  0  0  0
  3  5  1  0  0  0  0
  3  8  1  0  0  0  0
  4  6  1  0  0  0  0
  4 15  1  0  0  0  0
  5  7  1  0  0  0  0
  6  7  1  0  0  0  0
  6  8  1  0  0  0  0
  7  9  1  0  0  0  0
  7 10  1  0  0  0  0
  8 11  1  0  0  0  0
  8 14  1  0  0  0  0
 11 14  1  0  0  0  0
 11 15  1  0  0  0  0
 12 15  2  0  0  0  0
 13 15  2  0  0  0  0
  1 16  1  0  0  0  0
  1 17  1  0  0  0  0
  2 18  1  0  0  0  0
  2 19  1  0  0  0  0
  3 20  1  0  0  0  0
  3 21  1  0  0  0  0
  4 22  1  0  0  0  0
  4 23  1  0  0  0  0
  5 24  1  0  0  0  0
  9 25  1  0  0  0  0
  9 26  1  0  0  0  0
  9 27  1  0  0  0  0
 10 28  1  0  0  0  0
 10 29  1  0  0  0  0
 10 30  1  0  0  0  0
M  END
> <id>
EN300-136337

> <smiles>
CC1(C)C2CCC31CS(=O)(=O)N4OC43C2

> <MDLNUMBER>
MFCD01101559

> <IUPAC Name>
11,11-dimethyl-5-oxa-3lambda6-thia-4-azatetracyclo[6.2.1.0^{1,6}.0^{4,6}]undecane-3,3-dione

> <CAS>
158514-97-7

> <URL>
https://www.enaminestore.com/catalog/EN300-136337

> <MP>
172-174

> <ROCS_ShapeQuery>
x1247relevant_x1083L0AP1_x1305L0BP1_

> <ROCS_TanimotoCombo>
0.833 

> <ROCS_ShapeTanimoto>
0.509 

> <ROCS_ColorTanimoto>
0.325 

> <ROCS_RefTversky>
0.429 

> <ROCS_RefColorTversky>
0.402 

> <ROCS_RefTverskyCombo>
0.831 

> <ROCS_FitTversky>
1.580 

> <ROCS_FitColorTversky>
0.627 

> <ROCS_FitTverskyCombo>
2.207 

> <ROCS_ColorScore>
-8.614

> <ROCS_Overlap>
1262.582

> <ROCS_Rank>
133                 

$$$$
untitled-dbase-37052_0
  -OEChem-06162310163D

 30 33  0     1  0  0  0  0  0999 V2000
  -14.1436   15.2342  -38.5363 C   0  0  0  0  0  0  0  0  0  0  0  0
  -13.5182   15.4965  -37.1447 C   0  0  0  0  0  0  0  0  0  0  0  0
  -12.1060   13.9577  -39.2465 C   0  0  0  0  0  0  0  0  0  0  0  0
  -11.1234   16.1278  -36.3577 C   0  0  0  0  0  0  0  0  0  0  0  0
  -12.9214   15.2757  -39.4935 C   0  0  2  0  0  0  0  0  0  0  0  0
  -12.0132   15.6409  -37.4781 C   0  0  2  0  0  0  0  0  0  0  0  0
  -12.0265   16.3878  -38.8517 C   0  0  0  0  0  0  0  0  0  0  0  0
  -11.5623   14.2744  -37.9030 C   0  0  2  0  0  0  0  0  0  0  0  0
  -12.6692   17.7878  -38.8260 C   0  0  0  0  0  0  0  0  0  0  0  0
  -10.6550   16.5554  -39.5356 C   0  0  0  0  0  0  0  0  0  0  0  0
  -10.2181   13.8971  -37.4954 N   0  0  2  0  0  0  0  0  0  0  0  0
   -8.5560   15.7811  -36.8767 O   0  0  0  0  0  0  0  0  0  0  0  0
   -9.5997   14.4214  -35.0189 O   0  0  0  0  0  0  0  0  0  0  0  0
  -11.3787   13.2609  -36.9290 O   0  0  0  0  0  0  0  0  0  0  0  0
   -9.6791   15.0518  -36.3217 S   0  0  0  0  0  0  0  0  0  0  0  0
  -14.6635   14.2709  -38.5692 H   0  0  0  0  0  0  0  0  0  0  0  0
  -14.8747   16.0103  -38.7858 H   0  0  0  0  0  0  0  0  0  0  0  0
  -13.9322   16.4017  -36.6888 H   0  0  0  0  0  0  0  0  0  0  0  0
  -13.7189   14.6604  -36.4652 H   0  0  0  0  0  0  0  0  0  0  0  0
  -12.7492   13.0725  -39.2503 H   0  0  0  0  0  0  0  0  0  0  0  0
  -11.3204   13.8309  -39.9973 H   0  0  0  0  0  0  0  0  0  0  0  0
  -10.7932   17.1607  -36.4884 H   0  0  0  0  0  0  0  0  0  0  0  0
  -11.6137   16.0255  -35.3844 H   0  0  0  0  0  0  0  0  0  0  0  0
  -13.1935   15.4254  -40.5407 H   0  0  0  0  0  0  0  0  0  0  0  0
  -11.9799   18.4872  -38.3664 H   0  0  0  0  0  0  0  0  0  0  0  0
  -13.5879   17.7468  -38.2516 H   0  0  0  0  0  0  0  0  0  0  0  0
  -12.8849   18.0988  -39.8421 H   0  0  0  0  0  0  0  0  0  0  0  0
  -10.1016   17.3404  -39.0331 H   0  0  0  0  0  0  0  0  0  0  0  0
  -10.8073   16.8206  -40.5755 H   0  0  0  0  0  0  0  0  0  0  0  0
  -10.1095   15.6210  -39.4702 H   0  0  0  0  0  0  0  0  0  0  0  0
  1  2  1  0  0  0  0
  1  5  1  0  0  0  0
  2  6  1  1  0  0  0
  3  5  1  0  0  0  0
  3  8  1  6  0  0  0
  4  6  1  0  0  0  0
  4 15  1  0  0  0  0
  5  7  1  0  0  0  0
  6  7  1  0  0  0  0
  6  8  1  0  0  0  0
  7  9  1  0  0  0  0
  7 10  1  0  0  0  0
  8 11  1  0  0  0  0
  8 14  1  0  0  0  0
 11 14  1  0  0  0  0
 11 15  1  0  0  0  0
 12 15  2  0  0  0  0
 13 15  2  0  0  0  0
  1 16  1  0  0  0  0
  1 17  1  0  0  0  0
  2 18  1  0  0  0  0
  2 19  1  0  0  0  0
  3 20  1  0  0  0  0
  3 21  1  0  0  0  0
  4 22  1  0  0  0  0
  4 23  1  0  0  0  0
  5 24  1  0  0  0  0
  9 25  1  0  0  0  0
  9 26  1  0  0  0  0
  9 27  1  0  0  0  0
 10 28  1  0  0  0  0
 10 29  1  0  0  0  0
 10 30  1  0  0  0  0
M  END
> <id>
EN300-256596

> <smiles>
CC1(C)C2CC[C@@]31CS(=O)(=O)N4O[C@]43C2

> <MDLNUMBER>
MFCD29060542

> <IUPAC Name>
(1S,6S)-11,11-dimethyl-5-oxa-3lambda6-thia-4-azatetracyclo[6.2.1.0^{1,6}.0^{4,6}]undecane-3,3-dione

> <CAS>
1909301-18-3

> <URL>
https://www.enaminestore.com/catalog/EN300-256596

> <ROCS_ShapeQuery>
x1247relevant_x1083L0AP1_x1305L0BP1_

> <ROCS_TanimotoCombo>
0.833 

> <ROCS_ShapeTanimoto>
0.509 

> <ROCS_ColorTanimoto>
0.324 

> <ROCS_RefTversky>
0.429 

> <ROCS_RefColorTversky>
0.402 

> <ROCS_RefTverskyCombo>
0.831 

> <ROCS_FitTversky>
1.580 

> <ROCS_FitColorTversky>
0.627 

> <ROCS_FitTverskyCombo>
2.207 

> <ROCS_ColorScore>
-8.613

> <ROCS_Overlap>
1262.583

> <ROCS_Rank>
134                 

$$$$
untitled-dbase-31212_0
  -OEChem-06162310163D

 26 28  0     1  0  0  0  0  0999 V2000
   -9.7914   14.8974  -38.6347 C   0  0  0  0  0  0  0  0  0  0  0  0
  -10.4704   14.7075  -36.5003 C   0  0  0  0  0  0  0  0  0  0  0  0
  -13.5829   14.9511  -39.4582 C   0  0  0  0  0  0  0  0  0  0  0  0
  -14.0450   14.8214  -38.0056 C   0  0  0  0  0  0  0  0  0  0  0  0
  -11.2276   14.4788  -38.7490 C   0  0  1  0  0  0  0  0  0  0  0  0
  -11.6887   14.3496  -37.2996 C   0  0  2  0  0  0  0  0  0  0  0  0
  -12.1788   15.5554  -39.2974 C   0  0  1  0  0  0  0  0  0  0  0  0
  -12.8360   15.3711  -37.2318 C   0  0  2  0  0  0  0  0  0  0  0  0
  -11.7163   16.3390  -40.5066 C   0  0  0  0  0  0  0  0  0  0  0  0
  -13.1921   15.9253  -35.8694 C   0  0  0  0  0  0  0  0  0  0  0  0
   -9.0339   15.1016  -39.5713 O   0  0  0  0  0  0  0  0  0  0  0  0
  -10.3990   14.7199  -35.2807 O   0  0  0  0  0  0  0  0  0  0  0  0
   -9.4375   15.0106  -37.3284 O   0  0  0  0  0  0  0  0  0  0  0  0
  -12.3766   16.4033  -38.1391 O   0  0  0  0  0  0  0  0  0  0  0  0
  -13.5778   13.9944  -39.9896 H   0  0  0  0  0  0  0  0  0  0  0  0
  -14.2562   15.6330  -39.9907 H   0  0  0  0  0  0  0  0  0  0  0  0
  -14.9364   15.4415  -37.8546 H   0  0  0  0  0  0  0  0  0  0  0  0
  -14.2961   13.7926  -37.7291 H   0  0  0  0  0  0  0  0  0  0  0  0
  -11.2803   13.5288  -39.2906 H   0  0  0  0  0  0  0  0  0  0  0  0
  -11.9950   13.3294  -37.0472 H   0  0  0  0  0  0  0  0  0  0  0  0
  -10.7150   16.7456  -40.3395 H   0  0  0  0  0  0  0  0  0  0  0  0
  -12.3976   17.1704  -40.7077 H   0  0  0  0  0  0  0  0  0  0  0  0
  -11.6851   15.6961  -41.3907 H   0  0  0  0  0  0  0  0  0  0  0  0
  -12.2986   16.3018  -35.3636 H   0  0  0  0  0  0  0  0  0  0  0  0
  -13.6407   15.1477  -35.2449 H   0  0  0  0  0  0  0  0  0  0  0  0
  -13.9072   16.7471  -35.9651 H   0  0  0  0  0  0  0  0  0  0  0  0
  1  5  1  0  0  0  0
  1 11  2  0  0  0  0
  1 13  1  0  0  0  0
  2  6  1  0  0  0  0
  2 12  2  0  0  0  0
  2 13  1  0  0  0  0
  3  4  1  0  0  0  0
  3  7  1  0  0  0  0
  4  8  1  0  0  0  0
  5  6  1  0  0  0  0
  5  7  1  0  0  0  0
  6  8  1  0  0  0  0
  7  9  1  0  0  0  0
  7 14  1  0  0  0  0
  8 10  1  0  0  0  0
  8 14  1  0  0  0  0
  3 15  1  0  0  0  0
  3 16  1  0  0  0  0
  4 17  1  0  0  0  0
  4 18  1  0  0  0  0
  5 19  1  0  0  0  0
  6 20  1  0  0  0  0
  9 21  1  0  0  0  0
  9 22  1  0  0  0  0
  9 23  1  0  0  0  0
 10 24  1  0  0  0  0
 10 25  1  0  0  0  0
 10 26  1  0  0  0  0
M  END
> <id>
EN300-7455332

> <smiles>
CC1(CCC2(C)O1)C3C2C(=O)OC3=O

> <IUPAC Name>
1,7-dimethyl-4,10-dioxatricyclo[5.2.1.0,2,6]decane-3,5-dione

> <CAS>
111957-97-2

> <URL>
https://www.enaminestore.com/catalog/EN300-7455332

> <ROCS_ShapeQuery>
x1247relevant_x1083L0AP1_x1305L0BP1_

> <ROCS_TanimotoCombo>
0.832 

> <ROCS_ShapeTanimoto>
0.490 

> <ROCS_ColorTanimoto>
0.343 

> <ROCS_RefTversky>
0.416 

> <ROCS_RefColorTversky>
0.388 

> <ROCS_RefTverskyCombo>
0.804 

> <ROCS_FitTversky>
1.566 

> <ROCS_FitColorTversky>
0.746 

> <ROCS_FitTverskyCombo>
2.313 

> <ROCS_ColorScore>
-8.255

> <ROCS_Overlap>
1224.821

> <ROCS_Rank>
135                 

$$$$
untitled-dbase-37428_0
  -OEChem-06162310163D

 26 28  0     1  0  0  0  0  0999 V2000
   -9.7941   14.9002  -38.6394 C   0  0  0  0  0  0  0  0  0  0  0  0
  -10.4670   14.7076  -36.5034 C   0  0  0  0  0  0  0  0  0  0  0  0
  -13.5884   14.9448  -39.4514 C   0  0  0  0  0  0  0  0  0  0  0  0
  -14.0463   14.8238  -37.9967 C   0  0  0  0  0  0  0  0  0  0  0  0
  -11.2296   14.4780  -38.7501 C   0  0  1  0  0  0  0  0  0  0  0  0
  -11.6875   14.3512  -37.2995 C   0  0  2  0  0  0  0  0  0  0  0  0
  -12.1842   15.5513  -39.2987 C   0  0  1  0  0  0  0  0  0  0  0  0
  -12.8334   15.3743  -37.2300 C   0  0  2  0  0  0  0  0  0  0  0  0
  -11.7277   16.3305  -40.5131 C   0  0  0  0  0  0  0  0  0  0  0  0
  -13.1826   15.9331  -35.8675 C   0  0  0  0  0  0  0  0  0  0  0  0
   -9.0396   15.1072  -39.5778 O   0  0  0  0  0  0  0  0  0  0  0  0
  -10.3920   14.7173  -35.2839 O   0  0  0  0  0  0  0  0  0  0  0  0
   -9.4367   15.0128  -37.3339 O   0  0  0  0  0  0  0  0  0  0  0  0
  -12.3774   16.4034  -38.1427 O   0  0  0  0  0  0  0  0  0  0  0  0
  -13.5839   13.9848  -39.9769 H   0  0  0  0  0  0  0  0  0  0  0  0
  -14.2642   15.6222  -39.9864 H   0  0  0  0  0  0  0  0  0  0  0  0
  -14.9351   15.4476  -37.8460 H   0  0  0  0  0  0  0  0  0  0  0  0
  -14.2994   13.7971  -37.7146 H   0  0  0  0  0  0  0  0  0  0  0  0
  -11.2817   13.5271  -39.2899 H   0  0  0  0  0  0  0  0  0  0  0  0
  -11.9941   13.3313  -37.0455 H   0  0  0  0  0  0  0  0  0  0  0  0
  -10.7261   16.7389  -40.3519 H   0  0  0  0  0  0  0  0  0  0  0  0
  -12.4108   17.1602  -40.7148 H   0  0  0  0  0  0  0  0  0  0  0  0
  -11.6994   15.6839  -41.3946 H   0  0  0  0  0  0  0  0  0  0  0  0
  -12.2863   16.3100  -35.3670 H   0  0  0  0  0  0  0  0  0  0  0  0
  -13.6293   15.1579  -35.2387 H   0  0  0  0  0  0  0  0  0  0  0  0
  -13.8971   16.7555  -35.9625 H   0  0  0  0  0  0  0  0  0  0  0  0
  1  5  1  1  0  0  0
  1 11  2  0  0  0  0
  1 13  1  0  0  0  0
  2  6  1  1  0  0  0
  2 12  2  0  0  0  0
  2 13  1  0  0  0  0
  3  4  1  0  0  0  0
  3  7  1  0  0  0  0
  4  8  1  0  0  0  0
  5  6  1  0  0  0  0
  5  7  1  0  0  0  0
  6  8  1  0  0  0  0
  7  9  1  1  0  0  0
  7 14  1  0  0  0  0
  8 10  1  1  0  0  0
  8 14  1  0  0  0  0
  3 15  1  0  0  0  0
  3 16  1  0  0  0  0
  4 17  1  0  0  0  0
  4 18  1  0  0  0  0
  5 19  1  0  0  0  0
  6 20  1  0  0  0  0
  9 21  1  0  0  0  0
  9 22  1  0  0  0  0
  9 23  1  0  0  0  0
 10 24  1  0  0  0  0
 10 25  1  0  0  0  0
 10 26  1  0  0  0  0
M  END
> <id>
EN300-26624414

> <smiles>
C[C@@]1(CC[C@]2(C)O1)[C@@H]3[C@H]2C(=O)OC3=O

> <MDLNUMBER>
MFCD00034574

> <IUPAC Name>
(1R,2S,6R,7S)-1,7-dimethyl-4,10-dioxatricyclo[5.2.1.0,2,6]decane-3,5-dione

> <CAS>
88980-52-3

> <Purity>
95

> <URL>
https://www.enaminestore.com/catalog/EN300-26624414

> <ROCS_ShapeQuery>
x1247relevant_x1083L0AP1_x1305L0BP1_

> <ROCS_TanimotoCombo>
0.832 

> <ROCS_ShapeTanimoto>
0.489 

> <ROCS_ColorTanimoto>
0.343 

> <ROCS_RefTversky>
0.416 

> <ROCS_RefColorTversky>
0.388 

> <ROCS_RefTverskyCombo>
0.804 

> <ROCS_FitTversky>
1.566 

> <ROCS_FitColorTversky>
0.747 

> <ROCS_FitTverskyCombo>
2.313 

> <ROCS_ColorScore>
-8.258

> <ROCS_Overlap>
1224.506

> <ROCS_Rank>
136                 

$$$$
untitled-dbase-17116_2
  -OEChem-06162310163D

 37 39  0     1  0  0  0  0  0999 V2000
  -13.0023   17.0086  -38.3628 C   0  0  0  0  0  0  0  0  0  0  0  0
  -13.9601   16.1646  -37.5189 C   0  0  0  0  0  0  0  0  0  0  0  0
   -8.8474   15.2119  -36.5200 C   0  0  0  0  0  0  0  0  0  0  0  0
  -11.1526   15.2969  -38.9062 C   0  0  0  0  0  0  0  0  0  0  0  0
  -12.7382   13.8907  -37.5005 C   0  0  0  0  0  0  0  0  0  0  0  0
   -8.9724   13.8899  -37.2739 C   0  0  0  0  0  0  0  0  0  0  0  0
  -12.4257   16.0282  -39.3819 C   0  0  1  0  0  0  0  0  0  0  0  0
  -13.8565   14.7611  -38.1113 C   0  0  2  0  0  0  0  0  0  0  0  0
  -11.3247   14.5329  -37.5635 C   0  0  0  0  0  0  0  0  0  0  0  0
  -10.0906   15.5331  -35.6816 C   0  0  0  0  0  0  0  0  0  0  0  0
  -10.2545   14.5815  -34.4879 C   0  0  0  0  0  0  0  0  0  0  0  0
   -9.9928   16.9684  -35.1486 C   0  0  0  0  0  0  0  0  0  0  0  0
  -10.3496   13.4448  -37.4320 N   0  0  0  0  0  0  0  0  0  0  0  0
  -13.5162   15.0538  -39.5091 N   0  0  0  0  0  0  0  0  0  0  0  0
  -11.2770   15.4877  -36.4831 O   0  0  0  0  0  0  0  0  0  0  0  0
  -13.5733   17.7948  -38.8723 H   0  0  0  0  0  0  0  0  0  0  0  0
  -12.2357   17.5043  -37.7598 H   0  0  0  0  0  0  0  0  0  0  0  0
  -13.7216   16.2012  -36.4535 H   0  0  0  0  0  0  0  0  0  0  0  0
  -14.9788   16.5534  -37.6383 H   0  0  0  0  0  0  0  0  0  0  0  0
   -7.9439   15.1982  -35.8901 H   0  0  0  0  0  0  0  0  0  0  0  0
   -8.6833   16.0106  -37.2637 H   0  0  0  0  0  0  0  0  0  0  0  0
  -10.8652   14.5983  -39.7043 H   0  0  0  0  0  0  0  0  0  0  0  0
  -10.3429   16.0320  -38.8169 H   0  0  0  0  0  0  0  0  0  0  0  0
  -13.0204   13.6465  -36.4759 H   0  0  0  0  0  0  0  0  0  0  0  0
  -12.7252   12.9382  -38.0496 H   0  0  0  0  0  0  0  0  0  0  0  0
   -8.5172   14.0024  -38.2844 H   0  0  0  0  0  0  0  0  0  0  0  0
   -8.3602   13.0921  -36.7924 H   0  0  0  0  0  0  0  0  0  0  0  0
  -12.2271   16.5284  -40.3367 H   0  0  0  0  0  0  0  0  0  0  0  0
  -14.8131   14.2327  -38.0415 H   0  0  0  0  0  0  0  0  0  0  0  0
  -11.1465   14.8514  -33.9294 H   0  0  0  0  0  0  0  0  0  0  0  0
   -9.3851   14.6588  -33.8411 H   0  0  0  0  0  0  0  0  0  0  0  0
  -10.3481   13.5609  -34.8486 H   0  0  0  0  0  0  0  0  0  0  0  0
  -10.8741   17.1920  -34.5559 H   0  0  0  0  0  0  0  0  0  0  0  0
   -9.9309   17.6582  -35.9843 H   0  0  0  0  0  0  0  0  0  0  0  0
   -9.1049   17.0624  -34.5315 H   0  0  0  0  0  0  0  0  0  0  0  0
  -10.3988   12.8475  -38.2638 H   0  0  0  0  0  0  0  0  0  0  0  0
  -14.3166   15.5108  -39.9545 H   0  0  0  0  0  0  0  0  0  0  0  0
  1  2  1  0  0  0  0
  1  7  1  0  0  0  0
  2  8  1  0  0  0  0
  3  6  1  0  0  0  0
  3 10  1  0  0  0  0
  4  7  1  0  0  0  0
  4  9  1  0  0  0  0
  5  8  1  0  0  0  0
  5  9  1  0  0  0  0
  6 13  1  0  0  0  0
  7 14  1  0  0  0  0
  8 14  1  0  0  0  0
  9 13  1  0  0  0  0
  9 15  1  0  0  0  0
 10 11  1  0  0  0  0
 10 12  1  0  0  0  0
 10 15  1  0  0  0  0
  1 16  1  0  0  0  0
  1 17  1  0  0  0  0
  2 18  1  0  0  0  0
  2 19  1  0  0  0  0
  3 20  1  0  0  0  0
  3 21  1  0  0  0  0
  4 22  1  0  0  0  0
  4 23  1  0  0  0  0
  5 24  1  0  0  0  0
  5 25  1  0  0  0  0
  6 26  1  0  0  0  0
  6 27  1  0  0  0  0
  7 28  1  0  0  0  0
  8 29  1  0  0  0  0
 11 30  1  0  0  0  0
 11 31  1  0  0  0  0
 11 32  1  0  0  0  0
 12 33  1  0  0  0  0
 12 34  1  0  0  0  0
 12 35  1  0  0  0  0
 13 36  1  0  0  0  0
 14 37  1  0  0  0  0
M  END
> <id>
EN300-1279822

> <smiles>
CC1(C)CCNC2(CC3CCC(C2)N3)O1

> <IUPAC Name>
6',6'-dimethyl-8-azaspiro[bicyclo[3.2.1]octane-3,2'-[1,3]oxazinane]

> <CAS>
2169175-09-9

> <URL>
https://www.enaminestore.com/catalog/EN300-1279822

> <ROCS_ShapeQuery>
x1247relevant_x1083L0AP1_x1305L0BP1_

> <ROCS_TanimotoCombo>
0.832 

> <ROCS_ShapeTanimoto>
0.506 

> <ROCS_ColorTanimoto>
0.326 

> <ROCS_RefTversky>
0.426 

> <ROCS_RefColorTversky>
0.398 

> <ROCS_RefTverskyCombo>
0.824 

> <ROCS_FitTversky>
1.588 

> <ROCS_FitColorTversky>
0.644 

> <ROCS_FitTverskyCombo>
2.232 

> <ROCS_ColorScore>
-8.520

> <ROCS_Overlap>
1254.719

> <ROCS_Rank>
137                 

$$$$
untitled-dbase-37913_0
  -OEChem-06162310163D

 31 33  0     0  0  0  0  0  0999 V2000
  -13.9649   15.7522  -39.4394 C   0  0  0  0  0  0  0  0  0  0  0  0
  -11.6553   14.8531  -39.8028 C   0  0  0  0  0  0  0  0  0  0  0  0
  -13.2803   13.6065  -38.3436 C   0  0  0  0  0  0  0  0  0  0  0  0
  -11.9878   16.9049  -38.4248 C   0  0  0  0  0  0  0  0  0  0  0  0
  -13.6166   15.6553  -36.9622 C   0  0  0  0  0  0  0  0  0  0  0  0
  -13.1328   14.4703  -39.6082 C   0  0  0  0  0  0  0  0  0  0  0  0
  -13.4675   16.5379  -38.2142 C   0  0  0  0  0  0  0  0  0  0  0  0
  -11.1344   15.6253  -38.5667 C   0  0  0  0  0  0  0  0  0  0  0  0
  -12.7623   14.3763  -37.1049 C   0  0  0  0  0  0  0  0  0  0  0  0
  -11.2557   14.7350  -37.2914 C   0  0  0  0  0  0  0  0  0  0  0  0
  -10.6821   15.4466  -36.0473 C   0  0  0  0  0  0  0  0  0  0  0  0
  -10.4245   13.5232  -37.4124 N   0  0  0  0  0  0  0  0  0  0  0  0
  -11.3542   16.5820  -35.8367 F   0  0  0  0  0  0  0  0  0  0  0  0
  -10.8072   14.6485  -34.9831 F   0  0  0  0  0  0  0  0  0  0  0  0
   -9.3907   15.7223  -36.2506 F   0  0  0  0  0  0  0  0  0  0  0  0
  -13.8871   16.3727  -40.3408 H   0  0  0  0  0  0  0  0  0  0  0  0
  -15.0253   15.4993  -39.3190 H   0  0  0  0  0  0  0  0  0  0  0  0
  -11.0524   13.9608  -40.0012 H   0  0  0  0  0  0  0  0  0  0  0  0
  -11.5556   15.4842  -40.6956 H   0  0  0  0  0  0  0  0  0  0  0  0
  -14.3369   13.3474  -38.1972 H   0  0  0  0  0  0  0  0  0  0  0  0
  -12.7541   12.6540  -38.4691 H   0  0  0  0  0  0  0  0  0  0  0  0
  -11.8855   17.5181  -39.3293 H   0  0  0  0  0  0  0  0  0  0  0  0
  -11.6307   17.5278  -37.5983 H   0  0  0  0  0  0  0  0  0  0  0  0
  -13.3367   16.2180  -36.0656 H   0  0  0  0  0  0  0  0  0  0  0  0
  -14.6710   15.3811  -36.8284 H   0  0  0  0  0  0  0  0  0  0  0  0
  -13.4902   13.9134  -40.4815 H   0  0  0  0  0  0  0  0  0  0  0  0
  -14.0627   17.4503  -38.0973 H   0  0  0  0  0  0  0  0  0  0  0  0
  -10.0879   15.9082  -38.7343 H   0  0  0  0  0  0  0  0  0  0  0  0
  -12.8977   13.7531  -36.2121 H   0  0  0  0  0  0  0  0  0  0  0  0
  -10.7443   13.0219  -38.2017 H   0  0  0  0  0  0  0  0  0  0  0  0
   -9.4879   13.8168  -37.5265 H   0  0  0  0  0  0  0  0  0  0  0  0
  1  6  1  0  0  0  0
  1  7  1  0  0  0  0
  2  6  1  0  0  0  0
  2  8  1  0  0  0  0
  3  6  1  0  0  0  0
  3  9  1  0  0  0  0
  4  7  1  0  0  0  0
  4  8  1  0  0  0  0
  5  7  1  0  0  0  0
  5  9  1  0  0  0  0
  8 10  1  0  0  0  0
  9 10  1  0  0  0  0
 10 11  1  0  0  0  0
 10 12  1  0  0  0  0
 11 13  1  0  0  0  0
 11 14  1  0  0  0  0
 11 15  1  0  0  0  0
  1 16  1  0  0  0  0
  1 17  1  0  0  0  0
  2 18  1  0  0  0  0
  2 19  1  0  0  0  0
  3 20  1  0  0  0  0
  3 21  1  0  0  0  0
  4 22  1  0  0  0  0
  4 23  1  0  0  0  0
  5 24  1  0  0  0  0
  5 25  1  0  0  0  0
  6 26  1  0  0  0  0
  7 27  1  0  0  0  0
  8 28  1  0  0  0  0
  9 29  1  0  0  0  0
 12 30  1  0  0  0  0
 12 31  1  0  0  0  0
M  END
> <id>
EN300-392727

> <smiles>
NC1(C2CC3CC(C2)CC1C3)C(F)(F)F

> <IUPAC Name>
2-(trifluoromethyl)adamantan-2-amine

> <CAS>
1268622-60-1

> <URL>
https://www.enaminestore.com/catalog/EN300-392727

> <ROCS_ShapeQuery>
x1247relevant_x1083L0AP1_x1305L0BP1_

> <ROCS_TanimotoCombo>
0.832 

> <ROCS_ShapeTanimoto>
0.496 

> <ROCS_ColorTanimoto>
0.336 

> <ROCS_RefTversky>
0.423 

> <ROCS_RefColorTversky>
0.360 

> <ROCS_RefTverskyCombo>
0.783 

> <ROCS_FitTversky>
1.533 

> <ROCS_FitColorTversky>
0.835 

> <ROCS_FitTverskyCombo>
2.369 

> <ROCS_ColorScore>
-7.616

> <ROCS_Overlap>
1247.040

> <ROCS_Rank>
138                 

$$$$
untitled-dbase-16248_7
  -OEChem-06162310163D

 44 47  0     1  0  0  0  0  0999 V2000
   -8.5486   11.6157  -34.2007 C   0  0  0  0  0  0  0  0  0  0  0  0
   -7.8061   11.7637  -35.5225 C   0  0  0  0  0  0  0  0  0  0  0  0
   -9.3636   12.8593  -33.8693 C   0  0  0  0  0  0  0  0  0  0  0  0
   -8.7606   12.1305  -36.6581 C   0  0  0  0  0  0  0  0  0  0  0  0
  -10.2975   13.2563  -35.0155 C   0  0  0  0  0  0  0  0  0  0  0  0
  -12.3300   14.4760  -39.7587 C   0  0  0  0  0  0  0  0  0  0  0  0
  -12.2649   16.7410  -38.7775 C   0  0  0  0  0  0  0  0  0  0  0  0
   -8.6439   14.6534  -36.4227 C   0  0  0  0  0  0  0  0  0  0  0  0
  -13.7306   14.3461  -39.1392 C   0  0  0  0  0  0  0  0  0  0  0  0
  -13.5811   16.4784  -38.0306 C   0  0  0  0  0  0  0  0  0  0  0  0
  -12.7620   14.4831  -36.9434 C   0  0  0  0  0  0  0  0  0  0  0  0
   -9.3815   15.9709  -36.6548 C   0  0  0  0  0  0  0  0  0  0  0  0
  -11.4787   15.4183  -38.8857 C   0  0  0  0  0  0  0  0  0  0  0  0
   -9.5749   13.4204  -36.3785 C   0  0  0  0  0  0  0  0  0  0  0  0
  -11.3259   14.8123  -37.4535 C   0  0  2  0  0  0  0  0  0  0  0  0
  -10.5429   13.5592  -37.4851 N   0  0  0  0  0  0  0  0  0  0  0  0
  -13.8162   15.0329  -37.8316 N   0  0  0  0  0  0  0  0  0  0  0  0
  -10.7899   15.8121  -36.5646 O   0  0  0  0  0  0  0  0  0  0  0  0
   -9.2072   10.7414  -34.2420 H   0  0  0  0  0  0  0  0  0  0  0  0
   -7.8250   11.4321  -33.3974 H   0  0  0  0  0  0  0  0  0  0  0  0
   -7.0380   12.5385  -35.4252 H   0  0  0  0  0  0  0  0  0  0  0  0
   -7.2847   10.8292  -35.7582 H   0  0  0  0  0  0  0  0  0  0  0  0
   -9.9485   12.6811  -32.9571 H   0  0  0  0  0  0  0  0  0  0  0  0
   -8.6847   13.6928  -33.6463 H   0  0  0  0  0  0  0  0  0  0  0  0
   -8.1701   12.2691  -37.5721 H   0  0  0  0  0  0  0  0  0  0  0  0
   -9.4262   11.2821  -36.8540 H   0  0  0  0  0  0  0  0  0  0  0  0
  -11.1148   12.5324  -35.0761 H   0  0  0  0  0  0  0  0  0  0  0  0
  -10.7722   14.2103  -34.7482 H   0  0  0  0  0  0  0  0  0  0  0  0
  -11.8592   13.4894  -39.8419 H   0  0  0  0  0  0  0  0  0  0  0  0
  -12.4105   14.8760  -40.7772 H   0  0  0  0  0  0  0  0  0  0  0  0
  -12.4766   17.1323  -39.7807 H   0  0  0  0  0  0  0  0  0  0  0  0
  -11.6821   17.5104  -38.2582 H   0  0  0  0  0  0  0  0  0  0  0  0
   -7.9136   14.5261  -37.2444 H   0  0  0  0  0  0  0  0  0  0  0  0
   -8.0454   14.7266  -35.4967 H   0  0  0  0  0  0  0  0  0  0  0  0
  -14.4832   14.7583  -39.8229 H   0  0  0  0  0  0  0  0  0  0  0  0
  -13.9903   13.2868  -39.0220 H   0  0  0  0  0  0  0  0  0  0  0  0
  -13.5731   16.9894  -37.0593 H   0  0  0  0  0  0  0  0  0  0  0  0
  -14.4182   16.9178  -38.5871 H   0  0  0  0  0  0  0  0  0  0  0  0
  -12.9243   13.4015  -36.8818 H   0  0  0  0  0  0  0  0  0  0  0  0
  -12.9251   14.8698  -35.9320 H   0  0  0  0  0  0  0  0  0  0  0  0
   -9.0380   16.7611  -35.9635 H   0  0  0  0  0  0  0  0  0  0  0  0
   -9.1547   16.3435  -37.6691 H   0  0  0  0  0  0  0  0  0  0  0  0
  -10.5059   15.6145  -39.3459 H   0  0  0  0  0  0  0  0  0  0  0  0
  -10.0381   13.5269  -38.3543 H   0  0  0  0  0  0  0  0  0  0  0  0
  1  2  1  0  0  0  0
  1  3  1  0  0  0  0
  2  4  1  0  0  0  0
  3  5  1  0  0  0  0
  4 14  1  0  0  0  0
  5 14  1  0  0  0  0
  6  9  1  0  0  0  0
  6 13  1  0  0  0  0
  7 10  1  0  0  0  0
  7 13  1  0  0  0  0
  8 12  1  0  0  0  0
  8 14  1  0  0  0  0
  9 17  1  0  0  0  0
 10 17  1  0  0  0  0
 11 15  1  0  0  0  0
 11 17  1  0  0  0  0
 12 18  1  0  0  0  0
 13 15  1  0  0  0  0
 14 16  1  0  0  0  0
 15 16  1  0  0  0  0
 15 18  1  0  0  0  0
  1 19  1  0  0  0  0
  1 20  1  0  0  0  0
  2 21  1  0  0  0  0
  2 22  1  0  0  0  0
  3 23  1  0  0  0  0
  3 24  1  0  0  0  0
  4 25  1  0  0  0  0
  4 26  1  0  0  0  0
  5 27  1  0  0  0  0
  5 28  1  0  0  0  0
  6 29  1  0  0  0  0
  6 30  1  0  0  0  0
  7 31  1  0  0  0  0
  7 32  1  0  0  0  0
  8 33  1  0  0  0  0
  8 34  1  0  0  0  0
  9 35  1  0  0  0  0
  9 36  1  0  0  0  0
 10 37  1  0  0  0  0
 10 38  1  0  0  0  0
 11 39  1  0  0  0  0
 11 40  1  0  0  0  0
 12 41  1  0  0  0  0
 12 42  1  0  0  0  0
 13 43  1  0  0  0  0
 16 44  1  0  0  0  0
M  END
> <id>
EN300-1279192

> <smiles>
C1CCC2(CC1)CCOC3(CN4CCC3CC4)N2

> <IUPAC Name>
dispiro[4-azabicyclo[2.2.2]octane-2,2'-[1,3]oxazinane-4',1''-cyclohexane]

> <URL>
https://www.enaminestore.com/catalog/EN300-1279192

> <ROCS_ShapeQuery>
x1247relevant_x1083L0AP1_x1305L0BP1_

> <ROCS_TanimotoCombo>
0.832 

> <ROCS_ShapeTanimoto>
0.487 

> <ROCS_ColorTanimoto>
0.345 

> <ROCS_RefTversky>
0.430 

> <ROCS_RefColorTversky>
0.408 

> <ROCS_RefTverskyCombo>
0.837 

> <ROCS_FitTversky>
1.375 

> <ROCS_FitColorTversky>
0.694 

> <ROCS_FitTverskyCombo>
2.069 

> <ROCS_ColorScore>
-8.706

> <ROCS_Overlap>
1268.350

> <ROCS_Rank>
139                 

$$$$
untitled-dbase-14633_1
  -OEChem-06162310163D

 34 37  0     1  0  0  0  0  0999 V2000
   -8.8489   16.4698  -34.8814 C   0  0  0  0  0  0  0  0  0  0  0  0
   -9.6865   17.5587  -34.8626 C   0  0  0  0  0  0  0  0  0  0  0  0
   -9.2929   15.4725  -35.7989 C   0  0  0  0  0  0  0  0  0  0  0  0
  -10.4809   15.8173  -36.4351 C   0  0  0  0  0  0  0  0  0  0  0  0
   -8.5969   14.1805  -36.0770 C   0  0  0  0  0  0  0  0  0  0  0  0
  -13.3334   13.7233  -38.2494 C   0  0  0  0  0  0  0  0  0  0  0  0
  -10.9672   15.5102  -38.9268 C   0  0  0  0  0  0  0  0  0  0  0  0
   -9.0843   13.5832  -37.3972 C   0  0  0  0  0  0  0  0  0  0  0  0
  -13.7040   14.5882  -39.4599 C   0  0  0  0  0  0  0  0  0  0  0  0
  -12.1023   16.4366  -39.3985 C   0  0  0  0  0  0  0  0  0  0  0  0
  -13.5750   15.9315  -37.5809 C   0  0  0  0  0  0  0  0  0  0  0  0
  -12.7125   14.7160  -37.2373 C   0  0  2  0  0  0  0  0  0  0  0  0
  -11.1768   14.9386  -37.4967 C   0  0  2  0  0  0  0  0  0  0  0  0
  -10.5498   13.5757  -37.4476 N   0  0  0  0  0  0  0  0  0  0  0  0
  -13.4642   15.9858  -39.0468 N   0  0  2  0  0  0  0  0  0  0  0  0
  -10.9857   17.3770  -35.9509 S   0  0  0  0  0  0  0  0  0  0  0  0
   -7.9528   16.3988  -34.2788 H   0  0  0  0  0  0  0  0  0  0  0  0
   -9.5860   18.4582  -34.2722 H   0  0  0  0  0  0  0  0  0  0  0  0
   -7.5231   14.3741  -36.1392 H   0  0  0  0  0  0  0  0  0  0  0  0
   -8.7675   13.4720  -35.2650 H   0  0  0  0  0  0  0  0  0  0  0  0
  -14.2443   13.2909  -37.8182 H   0  0  0  0  0  0  0  0  0  0  0  0
  -12.6760   12.8949  -38.5226 H   0  0  0  0  0  0  0  0  0  0  0  0
  -10.9189   14.6820  -39.6482 H   0  0  0  0  0  0  0  0  0  0  0  0
  -10.0039   16.0271  -39.0165 H   0  0  0  0  0  0  0  0  0  0  0  0
   -8.7028   14.1824  -38.2251 H   0  0  0  0  0  0  0  0  0  0  0  0
   -8.6865   12.5780  -37.5351 H   0  0  0  0  0  0  0  0  0  0  0  0
  -13.1492   14.3071  -40.3611 H   0  0  0  0  0  0  0  0  0  0  0  0
  -14.7671   14.4577  -39.6910 H   0  0  0  0  0  0  0  0  0  0  0  0
  -11.9534   17.4483  -39.0027 H   0  0  0  0  0  0  0  0  0  0  0  0
  -12.0372   16.5504  -40.4887 H   0  0  0  0  0  0  0  0  0  0  0  0
  -14.6220   15.7571  -37.2973 H   0  0  0  0  0  0  0  0  0  0  0  0
  -13.2843   16.8639  -37.0949 H   0  0  0  0  0  0  0  0  0  0  0  0
  -12.9058   14.3878  -36.2113 H   0  0  0  0  0  0  0  0  0  0  0  0
  -10.8494   13.0423  -38.2688 H   0  0  0  0  0  0  0  0  0  0  0  0
  1  2  2  0  0  0  0
  1  3  1  0  0  0  0
  2 16  1  0  0  0  0
  3  4  2  0  0  0  0
  3  5  1  0  0  0  0
  4 13  1  0  0  0  0
  4 16  1  0  0  0  0
  5  8  1  0  0  0  0
  6  9  1  0  0  0  0
  6 12  1  0  0  0  0
  7 10  1  0  0  0  0
  7 13  1  0  0  0  0
  8 14  1  0  0  0  0
  9 15  1  0  0  0  0
 10 15  1  0  0  0  0
 11 12  1  0  0  0  0
 11 15  1  0  0  0  0
 12 13  1  0  0  0  0
 13 14  1  0  0  0  0
  1 17  1  0  0  0  0
  2 18  1  0  0  0  0
  5 19  1  0  0  0  0
  5 20  1  0  0  0  0
  6 21  1  0  0  0  0
  6 22  1  0  0  0  0
  7 23  1  0  0  0  0
  7 24  1  0  0  0  0
  8 25  1  0  0  0  0
  8 26  1  0  0  0  0
  9 27  1  0  0  0  0
  9 28  1  0  0  0  0
 10 29  1  0  0  0  0
 10 30  1  0  0  0  0
 11 31  1  0  0  0  0
 11 32  1  0  0  0  0
 12 33  1  0  0  0  0
 14 34  1  0  0  0  0
M  END
> <id>
EN300-1075660

> <smiles>
C1CN2CC1C3(CC2)NCCC=4C=CSC43

> <IUPAC Name>
5',6'-dihydro-4'H-5-azaspiro[bicyclo[3.2.1]octane-2,7'-thieno[2,3-c]pyridine]

> <CAS>
2253640-50-3

> <URL>
https://www.enaminestore.com/catalog/EN300-1075660

> <ROCS_ShapeQuery>
x1247relevant_x1083L0AP1_x1305L0BP1_

> <ROCS_TanimotoCombo>
0.832 

> <ROCS_ShapeTanimoto>
0.483 

> <ROCS_ColorTanimoto>
0.349 

> <ROCS_RefTversky>
0.418 

> <ROCS_RefColorTversky>
0.397 

> <ROCS_RefTverskyCombo>
0.815 

> <ROCS_FitTversky>
1.475 

> <ROCS_FitColorTversky>
0.741 

> <ROCS_FitTverskyCombo>
2.216 

> <ROCS_ColorScore>
-8.458

> <ROCS_Overlap>
1232.750

> <ROCS_Rank>
140                 

$$$$
untitled-dbase-35065_1
  -OEChem-06162310163D

 35 38  0     1  0  0  0  0  0999 V2000
  -13.9546   16.1540  -37.4970 C   0  0  0  0  0  0  0  0  0  0  0  0
  -12.9925   17.0079  -38.3248 C   0  0  0  0  0  0  0  0  0  0  0  0
   -7.6479   15.1694  -35.3883 C   0  0  0  0  0  0  0  0  0  0  0  0
   -8.6438   14.2962  -34.6805 C   0  0  0  0  0  0  0  0  0  0  0  0
  -12.7388   13.8764  -37.5252 C   0  0  0  0  0  0  0  0  0  0  0  0
  -11.1572   15.2920  -38.9078 C   0  0  0  0  0  0  0  0  0  0  0  0
   -8.9830   13.9321  -37.2273 C   0  0  0  0  0  0  0  0  0  0  0  0
   -9.9897   15.9629  -36.1406 C   0  0  0  0  0  0  0  0  0  0  0  0
  -13.8565   14.7607  -38.1146 C   0  0  2  0  0  0  0  0  0  0  0  0
  -12.4238   16.0440  -39.3639 C   0  0  1  0  0  0  0  0  0  0  0  0
   -8.9726   14.8611  -36.0440 C   0  0  0  0  0  0  0  0  0  0  0  0
  -11.3272   14.5276  -37.5648 C   0  0  0  0  0  0  0  0  0  0  0  0
  -10.3423   13.4329  -37.4351 N   0  0  0  0  0  0  0  0  0  0  0  0
  -13.5028   15.0539  -39.5127 N   0  0  0  0  0  0  0  0  0  0  0  0
  -11.2790   15.4201  -36.4323 O   0  0  0  0  0  0  0  0  0  0  0  0
  -13.7168   16.1681  -36.4295 H   0  0  0  0  0  0  0  0  0  0  0  0
  -14.9719   16.5495  -37.6099 H   0  0  0  0  0  0  0  0  0  0  0  0
  -13.5588   17.8071  -38.8189 H   0  0  0  0  0  0  0  0  0  0  0  0
  -12.2215   17.4866  -37.7140 H   0  0  0  0  0  0  0  0  0  0  0  0
   -7.4819   16.1654  -34.9937 H   0  0  0  0  0  0  0  0  0  0  0  0
   -6.7522   14.6978  -35.7771 H   0  0  0  0  0  0  0  0  0  0  0  0
   -8.4186   13.2402  -34.5993 H   0  0  0  0  0  0  0  0  0  0  0  0
   -9.1482   14.7084  -33.8154 H   0  0  0  0  0  0  0  0  0  0  0  0
  -13.0234   13.6053  -36.5025 H   0  0  0  0  0  0  0  0  0  0  0  0
  -12.7204   12.9360  -38.0960 H   0  0  0  0  0  0  0  0  0  0  0  0
  -10.8821   14.5889  -39.7065 H   0  0  0  0  0  0  0  0  0  0  0  0
  -10.3344   16.0134  -38.8225 H   0  0  0  0  0  0  0  0  0  0  0  0
   -8.6523   14.4414  -38.1398 H   0  0  0  0  0  0  0  0  0  0  0  0
   -8.2851   13.1023  -37.0669 H   0  0  0  0  0  0  0  0  0  0  0  0
  -10.0285   16.5444  -35.2139 H   0  0  0  0  0  0  0  0  0  0  0  0
   -9.7462   16.6666  -36.9440 H   0  0  0  0  0  0  0  0  0  0  0  0
  -14.8137   14.2326  -38.0581 H   0  0  0  0  0  0  0  0  0  0  0  0
  -12.2276   16.5547  -40.3124 H   0  0  0  0  0  0  0  0  0  0  0  0
  -10.3591   12.8705  -38.2864 H   0  0  0  0  0  0  0  0  0  0  0  0
  -13.1692   14.2176  -39.9894 H   0  0  0  0  0  0  0  0  0  0  0  0
  1  2  1  0  0  0  0
  1  9  1  0  0  0  0
  2 10  1  0  0  0  0
  3  4  1  0  0  0  0
  3 11  1  0  0  0  0
  4 11  1  0  0  0  0
  5  9  1  0  0  0  0
  5 12  1  0  0  0  0
  6 10  1  0  0  0  0
  6 12  1  0  0  0  0
  7 11  1  0  0  0  0
  7 13  1  0  0  0  0
  8 11  1  0  0  0  0
  8 15  1  0  0  0  0
  9 14  1  0  0  0  0
 10 14  1  0  0  0  0
 12 13  1  0  0  0  0
 12 15  1  0  0  0  0
  1 16  1  0  0  0  0
  1 17  1  0  0  0  0
  2 18  1  0  0  0  0
  2 19  1  0  0  0  0
  3 20  1  0  0  0  0
  3 21  1  0  0  0  0
  4 22  1  0  0  0  0
  4 23  1  0  0  0  0
  5 24  1  0  0  0  0
  5 25  1  0  0  0  0
  6 26  1  0  0  0  0
  6 27  1  0  0  0  0
  7 28  1  0  0  0  0
  7 29  1  0  0  0  0
  8 30  1  0  0  0  0
  8 31  1  0  0  0  0
  9 32  1  0  0  0  0
 10 33  1  0  0  0  0
 13 34  1  0  0  0  0
 14 35  1  0  0  0  0
M  END
> <id>
EN300-1278846

> <smiles>
C1CC12CNC3(CC4CCC(C3)N4)OC2

> <IUPAC Name>
dispiro[8-azabicyclo[3.2.1]octane-3,2'-[1,3]oxazinane-5',1''-cyclopropane]

> <URL>
https://www.enaminestore.com/catalog/EN300-1278846

> <ROCS_ShapeQuery>
x1247relevant_x1083L0AP1_x1305L0BP1_

> <ROCS_TanimotoCombo>
0.832 

> <ROCS_ShapeTanimoto>
0.493 

> <ROCS_ColorTanimoto>
0.339 

> <ROCS_RefTversky>
0.420 

> <ROCS_RefColorTversky>
0.399 

> <ROCS_RefTverskyCombo>
0.819 

> <ROCS_FitTversky>
1.544 

> <ROCS_FitColorTversky>
0.694 

> <ROCS_FitTverskyCombo>
2.237 

> <ROCS_ColorScore>
-8.516

> <ROCS_Overlap>
1236.859

> <ROCS_Rank>
141                 

$$$$
untitled-dbase-24259_49
  -OEChem-06162310163D

 34 35  0     1  0  0  0  0  0999 V2000
   -9.9098   14.7656  -37.2884 C   0  0  0  0  0  0  0  0  0  0  0  0
  -13.4928   15.2068  -37.3127 C   0  0  0  0  0  0  0  0  0  0  0  0
  -12.3126   16.6323  -38.8004 C   0  0  0  0  0  0  0  0  0  0  0  0
  -11.9647   13.7383  -38.3716 C   0  0  0  0  0  0  0  0  0  0  0  0
  -13.3120   14.4333  -38.6288 C   0  0  2  0  0  0  0  0  0  0  0  0
  -12.1473   15.9185  -37.4460 C   0  0  2  0  0  0  0  0  0  0  0  0
  -13.0906   15.5877  -39.6324 C   0  0  1  0  0  0  0  0  0  0  0  0
   -9.7225   14.1544  -34.7484 C   0  0  0  0  0  0  0  0  0  0  0  0
   -9.2644   11.7726  -35.4015 C   0  0  0  0  0  0  0  0  0  0  0  0
   -7.4810   13.5160  -35.6984 C   0  0  0  0  0  0  0  0  0  0  0  0
   -8.9834   13.2388  -35.7232 C   0  0  0  0  0  0  0  0  0  0  0  0
  -11.2378   14.7880  -37.6591 N   0  0  0  0  0  0  0  0  0  0  0  0
   -9.2028   15.7652  -37.1872 O   0  0  0  0  0  0  0  0  0  0  0  0
  -14.3443   16.1120  -40.0447 O   0  0  0  0  0  0  0  0  0  0  0  0
   -9.4719   13.4916  -37.0454 O   0  0  0  0  0  0  0  0  0  0  0  0
  -14.3503   15.8876  -37.3200 H   0  0  0  0  0  0  0  0  0  0  0  0
  -13.5488   14.5546  -36.4343 H   0  0  0  0  0  0  0  0  0  0  0  0
  -12.8798   17.5630  -38.6876 H   0  0  0  0  0  0  0  0  0  0  0  0
  -11.3427   16.8698  -39.2504 H   0  0  0  0  0  0  0  0  0  0  0  0
  -12.0604   12.8729  -37.7077 H   0  0  0  0  0  0  0  0  0  0  0  0
  -11.4310   13.4496  -39.2819 H   0  0  0  0  0  0  0  0  0  0  0  0
  -14.1354   13.7608  -38.8759 H   0  0  0  0  0  0  0  0  0  0  0  0
  -11.8431   16.5661  -36.6218 H   0  0  0  0  0  0  0  0  0  0  0  0
  -12.5352   15.2718  -40.5214 H   0  0  0  0  0  0  0  0  0  0  0  0
   -9.5234   15.2078  -34.9761 H   0  0  0  0  0  0  0  0  0  0  0  0
  -10.8044   13.9899  -34.7820 H   0  0  0  0  0  0  0  0  0  0  0  0
   -9.3791   13.9900  -33.7207 H   0  0  0  0  0  0  0  0  0  0  0  0
   -8.7361   11.1121  -36.0984 H   0  0  0  0  0  0  0  0  0  0  0  0
  -10.3313   11.5466  -35.5106 H   0  0  0  0  0  0  0  0  0  0  0  0
   -8.9584   11.5169  -34.3819 H   0  0  0  0  0  0  0  0  0  0  0  0
   -6.9506   12.8593  -36.3975 H   0  0  0  0  0  0  0  0  0  0  0  0
   -7.2580   14.5547  -35.9631 H   0  0  0  0  0  0  0  0  0  0  0  0
   -7.0635   13.3123  -34.7057 H   0  0  0  0  0  0  0  0  0  0  0  0
  -14.1570   16.8987  -40.5827 H   0  0  0  0  0  0  0  0  0  0  0  0
  1 12  1  0  0  0  0
  1 13  2  0  0  0  0
  1 15  1  0  0  0  0
  2  5  1  0  0  0  0
  2  6  1  0  0  0  0
  3  6  1  1  0  0  0
  3  7  1  0  0  0  0
  4  5  1  1  0  0  0
  4 12  1  0  0  0  0
  5  7  1  0  0  0  0
  6 12  1  0  0  0  0
  7 14  1  0  0  0  0
  8 11  1  0  0  0  0
  9 11  1  0  0  0  0
 10 11  1  0  0  0  0
 11 15  1  0  0  0  0
  2 16  1  0  0  0  0
  2 17  1  0  0  0  0
  3 18  1  0  0  0  0
  3 19  1  0  0  0  0
  4 20  1  0  0  0  0
  4 21  1  0  0  0  0
  5 22  1  0  0  0  0
  6 23  1  0  0  0  0
  7 24  1  0  0  0  0
  8 25  1  0  0  0  0
  8 26  1  0  0  0  0
  8 27  1  0  0  0  0
  9 28  1  0  0  0  0
  9 29  1  0  0  0  0
  9 30  1  0  0  0  0
 10 31  1  0  0  0  0
 10 32  1  0  0  0  0
 10 33  1  0  0  0  0
 14 34  1  0  0  0  0
M  END
> <id>
EN300-159836

> <smiles>
CC(C)(C)OC(=O)N1C[C@H]2C[C@@H]1CC2O

> <MDLNUMBER>
MFCD27959406

> <IUPAC Name>
tert-butyl (1R,4R)-5-hydroxy-2-azabicyclo[2.2.1]heptane-2-carboxylate

> <CAS>
406695-09-8

> <URL>
https://www.enaminestore.com/catalog/EN300-159836

> <ROCS_ShapeQuery>
x1247relevant_x1083L0AP1_x1305L0BP1_

> <ROCS_TanimotoCombo>
0.832 

> <ROCS_ShapeTanimoto>
0.478 

> <ROCS_ColorTanimoto>
0.353 

> <ROCS_RefTversky>
0.410 

> <ROCS_RefColorTversky>
0.395 

> <ROCS_RefTverskyCombo>
0.806 

> <ROCS_FitTversky>
1.532 

> <ROCS_FitColorTversky>
0.769 

> <ROCS_FitTverskyCombo>
2.300 

> <ROCS_ColorScore>
-8.411

> <ROCS_Overlap>
1208.182

> <ROCS_Rank>
142                 

$$$$
untitled-dbase-14061_1
  -OEChem-06162310163D

 33 36  0     1  0  0  0  0  0999 V2000
   -8.5876   17.4592  -37.5938 C   0  0  0  0  0  0  0  0  0  0  0  0
   -8.8708   15.5303  -36.7725 C   0  0  0  0  0  0  0  0  0  0  0  0
   -9.9187   15.7065  -37.6493 C   0  0  0  0  0  0  0  0  0  0  0  0
   -8.6946   14.2935  -35.9829 C   0  0  0  0  0  0  0  0  0  0  0  0
  -14.1776   14.7781  -38.7586 C   0  0  0  0  0  0  0  0  0  0  0  0
  -13.5748   14.3382  -37.4319 C   0  0  0  0  0  0  0  0  0  0  0  0
  -12.1436   15.5447  -40.0894 C   0  0  0  0  0  0  0  0  0  0  0  0
  -11.2415   14.4924  -39.4266 C   0  0  0  0  0  0  0  0  0  0  0  0
  -10.0035   13.4763  -35.9970 C   0  0  0  0  0  0  0  0  0  0  0  0
  -13.3109   15.9545  -39.1870 C   0  0  2  0  0  0  0  0  0  0  0  0
  -12.3519   15.2384  -37.2496 C   0  0  1  0  0  0  0  0  0  0  0  0
  -11.0340   14.7214  -37.9049 C   0  0  2  0  0  0  0  0  0  0  0  0
   -8.0401   16.6139  -36.7456 N   0  0  0  0  0  0  0  0  0  0  0  0
   -9.7303   16.9578  -38.1632 N   0  0  0  0  0  0  0  0  0  0  0  0
  -10.6009   13.4055  -37.3428 N   0  0  0  0  0  0  0  0  0  0  0  0
  -12.7563   16.4348  -37.9530 O   0  0  0  0  0  0  0  0  0  0  0  0
   -8.2126   18.4421  -37.8419 H   0  0  0  0  0  0  0  0  0  0  0  0
   -7.8728   13.6904  -36.3847 H   0  0  0  0  0  0  0  0  0  0  0  0
   -8.4390   14.5638  -34.9507 H   0  0  0  0  0  0  0  0  0  0  0  0
  -14.2103   13.9774  -39.5039 H   0  0  0  0  0  0  0  0  0  0  0  0
  -15.2095   15.1099  -38.5928 H   0  0  0  0  0  0  0  0  0  0  0  0
  -14.2995   14.5480  -36.6340 H   0  0  0  0  0  0  0  0  0  0  0  0
  -13.3707   13.2649  -37.3933 H   0  0  0  0  0  0  0  0  0  0  0  0
  -11.5376   16.4325  -40.3096 H   0  0  0  0  0  0  0  0  0  0  0  0
  -12.5146   15.1614  -41.0470 H   0  0  0  0  0  0  0  0  0  0  0  0
  -11.7117   13.5104  -39.5952 H   0  0  0  0  0  0  0  0  0  0  0  0
  -10.2824   14.4505  -39.9655 H   0  0  0  0  0  0  0  0  0  0  0  0
   -9.8238   12.4674  -35.6120 H   0  0  0  0  0  0  0  0  0  0  0  0
  -10.7177   13.9505  -35.3176 H   0  0  0  0  0  0  0  0  0  0  0  0
  -13.8987   16.7479  -39.6600 H   0  0  0  0  0  0  0  0  0  0  0  0
  -12.1941   15.4931  -36.1932 H   0  0  0  0  0  0  0  0  0  0  0  0
  -10.3203   17.4292  -38.8362 H   0  0  0  0  0  0  0  0  0  0  0  0
   -9.9300   12.9635  -37.9755 H   0  0  0  0  0  0  0  0  0  0  0  0
  1 13  2  0  0  0  0
  1 14  1  0  0  0  0
  2  3  2  0  0  0  0
  2  4  1  0  0  0  0
  2 13  1  0  0  0  0
  3 12  1  0  0  0  0
  3 14  1  0  0  0  0
  4  9  1  0  0  0  0
  5  6  1  0  0  0  0
  5 10  1  0  0  0  0
  6 11  1  0  0  0  0
  7  8  1  0  0  0  0
  7 10  1  0  0  0  0
  8 12  1  0  0  0  0
  9 15  1  0  0  0  0
 10 16  1  0  0  0  0
 11 12  1  0  0  0  0
 11 16  1  0  0  0  0
 12 15  1  0  0  0  0
  1 17  1  0  0  0  0
  4 18  1  0  0  0  0
  4 19  1  0  0  0  0
  5 20  1  0  0  0  0
  5 21  1  0  0  0  0
  6 22  1  0  0  0  0
  6 23  1  0  0  0  0
  7 24  1  0  0  0  0
  7 25  1  0  0  0  0
  8 26  1  0  0  0  0
  8 27  1  0  0  0  0
  9 28  1  0  0  0  0
  9 29  1  0  0  0  0
 10 30  1  0  0  0  0
 11 31  1  0  0  0  0
 14 32  1  0  0  0  0
 15 33  1  0  0  0  0
M  END
> <id>
EN300-1075930

> <smiles>
C1CC2OC1CCC32NCCC=4N=CNC43

> <IUPAC Name>
3',5',6',7'-tetrahydro-8-oxaspiro[bicyclo[3.2.1]octane-2,4'-imidazo[4,5-c]pyridine]

> <CAS>
2253632-10-7

> <URL>
https://www.enaminestore.com/catalog/EN300-1075930

> <ROCS_ShapeQuery>
x1247relevant_x1083L0AP1_x1305L0BP1_

> <ROCS_TanimotoCombo>
0.832 

> <ROCS_ShapeTanimoto>
0.476 

> <ROCS_ColorTanimoto>
0.356 

> <ROCS_RefTversky>
0.417 

> <ROCS_RefColorTversky>
0.436 

> <ROCS_RefTverskyCombo>
0.854 

> <ROCS_FitTversky>
1.419 

> <ROCS_FitColorTversky>
0.658 

> <ROCS_FitTverskyCombo>
2.076 

> <ROCS_ColorScore>
-9.362

> <ROCS_Overlap>
1230.649

> <ROCS_Rank>
143                 

$$$$
untitled-dbase-8470_49
  -OEChem-06162310163D

 34 35  0     1  0  0  0  0  0999 V2000
   -9.9094   14.7720  -37.2885 C   0  0  0  0  0  0  0  0  0  0  0  0
  -13.4934   15.2061  -37.3099 C   0  0  0  0  0  0  0  0  0  0  0  0
  -12.3177   16.6260  -38.8070 C   0  0  0  0  0  0  0  0  0  0  0  0
  -11.9635   13.7353  -38.3636 C   0  0  0  0  0  0  0  0  0  0  0  0
  -13.3128   14.4259  -38.6219 C   0  0  2  0  0  0  0  0  0  0  0  0
  -12.1495   15.9198  -37.4489 C   0  0  2  0  0  0  0  0  0  0  0  0
  -13.0952   15.5764  -39.6320 C   0  0  1  0  0  0  0  0  0  0  0  0
   -9.7175   14.1736  -34.7460 C   0  0  0  0  0  0  0  0  0  0  0  0
   -9.2557   11.7895  -35.3881 C   0  0  0  0  0  0  0  0  0  0  0  0
   -7.4760   13.5348  -35.6960 C   0  0  0  0  0  0  0  0  0  0  0  0
   -8.9780   13.2546  -35.7174 C   0  0  0  0  0  0  0  0  0  0  0  0
  -11.2380   14.7899  -37.6573 N   0  0  0  0  0  0  0  0  0  0  0  0
   -9.2040   15.7734  -37.1931 O   0  0  0  0  0  0  0  0  0  0  0  0
  -14.3400   16.1196  -40.0468 O   0  0  0  0  0  0  0  0  0  0  0  0
   -9.4687   13.5001  -37.0399 O   0  0  0  0  0  0  0  0  0  0  0  0
  -14.3523   15.8852  -37.3196 H   0  0  0  0  0  0  0  0  0  0  0  0
  -13.5475   14.5587  -36.4279 H   0  0  0  0  0  0  0  0  0  0  0  0
  -12.8854   17.5570  -38.6985 H   0  0  0  0  0  0  0  0  0  0  0  0
  -11.3486   16.8624  -39.2594 H   0  0  0  0  0  0  0  0  0  0  0  0
  -12.0566   12.8728  -37.6955 H   0  0  0  0  0  0  0  0  0  0  0  0
  -11.4304   13.4438  -39.2731 H   0  0  0  0  0  0  0  0  0  0  0  0
  -14.1358   13.7508  -38.8641 H   0  0  0  0  0  0  0  0  0  0  0  0
  -11.8453   16.5722  -36.6286 H   0  0  0  0  0  0  0  0  0  0  0  0
  -12.5386   15.2619  -40.5209 H   0  0  0  0  0  0  0  0  0  0  0  0
   -9.5207   15.2261  -34.9790 H   0  0  0  0  0  0  0  0  0  0  0  0
  -10.7991   14.0069  -34.7773 H   0  0  0  0  0  0  0  0  0  0  0  0
   -9.3724   14.0148  -33.7180 H   0  0  0  0  0  0  0  0  0  0  0  0
   -8.7271   11.1265  -36.0826 H   0  0  0  0  0  0  0  0  0  0  0  0
  -10.3224   11.5609  -35.4947 H   0  0  0  0  0  0  0  0  0  0  0  0
   -8.9478   11.5393  -34.3678 H   0  0  0  0  0  0  0  0  0  0  0  0
   -6.9454   12.8757  -36.3927 H   0  0  0  0  0  0  0  0  0  0  0  0
   -7.2554   14.5726  -35.9661 H   0  0  0  0  0  0  0  0  0  0  0  0
   -7.0568   13.3367  -34.7029 H   0  0  0  0  0  0  0  0  0  0  0  0
  -14.7916   15.4290  -40.5590 H   0  0  0  0  0  0  0  0  0  0  0  0
  1 12  1  0  0  0  0
  1 13  2  0  0  0  0
  1 15  1  0  0  0  0
  2  5  1  0  0  0  0
  2  6  1  0  0  0  0
  3  6  1  0  0  0  0
  3  7  1  0  0  0  0
  4  5  1  0  0  0  0
  4 12  1  0  0  0  0
  5  7  1  0  0  0  0
  6 12  1  0  0  0  0
  7 14  1  0  0  0  0
  8 11  1  0  0  0  0
  9 11  1  0  0  0  0
 10 11  1  0  0  0  0
 11 15  1  0  0  0  0
  2 16  1  0  0  0  0
  2 17  1  0  0  0  0
  3 18  1  0  0  0  0
  3 19  1  0  0  0  0
  4 20  1  0  0  0  0
  4 21  1  0  0  0  0
  5 22  1  0  0  0  0
  6 23  1  0  0  0  0
  7 24  1  0  0  0  0
  8 25  1  0  0  0  0
  8 26  1  0  0  0  0
  8 27  1  0  0  0  0
  9 28  1  0  0  0  0
  9 29  1  0  0  0  0
  9 30  1  0  0  0  0
 10 31  1  0  0  0  0
 10 32  1  0  0  0  0
 10 33  1  0  0  0  0
 14 34  1  0  0  0  0
M  END
> <id>
EN300-296284

> <smiles>
CC(C)(C)OC(=O)N1CC2CC1CC2O

> <MDLNUMBER>
MFCD20278317

> <IUPAC Name>
tert-butyl 5-hydroxy-2-azabicyclo[2.2.1]heptane-2-carboxylate

> <CAS>
207405-60-5

> <Purity>
95

> <URL>
https://www.enaminestore.com/catalog/EN300-296284

> <ROCS_ShapeQuery>
x1247relevant_x1083L0AP1_x1305L0BP1_

> <ROCS_TanimotoCombo>
0.831 

> <ROCS_ShapeTanimoto>
0.479 

> <ROCS_ColorTanimoto>
0.353 

> <ROCS_RefTversky>
0.410 

> <ROCS_RefColorTversky>
0.395 

> <ROCS_RefTverskyCombo>
0.805 

> <ROCS_FitTversky>
1.532 

> <ROCS_FitColorTversky>
0.768 

> <ROCS_FitTverskyCombo>
2.300 

> <ROCS_ColorScore>
-8.404

> <ROCS_Overlap>
1208.382

> <ROCS_Rank>
144                 

$$$$
untitled-dbase-23837_4
  -OEChem-06162310163D

 44 47  0     1  0  0  0  0  0999 V2000
  -11.2371   11.7917  -37.4679 C   0  0  0  0  0  0  0  0  0  0  0  0
  -14.3428   15.0487  -37.4298 C   0  0  0  0  0  0  0  0  0  0  0  0
  -12.7237   11.5587  -37.7762 C   0  0  0  0  0  0  0  0  0  0  0  0
  -14.3029   15.5825  -38.8579 C   0  0  0  0  0  0  0  0  0  0  0  0
  -10.9378   13.2292  -37.0497 C   0  0  1  0  0  0  0  0  0  0  0  0
  -13.2282   14.0533  -37.0574 C   0  0  1  0  0  0  0  0  0  0  0  0
  -13.7335   12.5702  -37.1789 C   0  0  2  0  0  0  0  0  0  0  0  0
   -9.4642   13.6714  -37.0164 C   0  0  2  0  0  0  0  0  0  0  0  0
  -11.2333   15.6500  -37.7123 C   0  0  2  0  0  0  0  0  0  0  0  0
   -9.3964   15.0858  -36.3406 C   0  0  2  0  0  0  0  0  0  0  0  0
  -11.8578   14.2494  -37.7749 C   0  0  1  0  0  0  0  0  0  0  0  0
  -12.9214   16.1351  -39.2454 C   0  0  1  0  0  0  0  0  0  0  0  0
  -14.2244   12.0722  -35.8127 C   0  0  0  0  0  0  0  0  0  0  0  0
   -8.7496   13.5689  -38.3696 C   0  0  0  0  0  0  0  0  0  0  0  0
  -13.0731   17.3225  -40.1944 C   0  0  0  0  0  0  0  0  0  0  0  0
  -10.6197   15.8485  -36.4478 O   0  0  0  0  0  0  0  0  0  0  0  0
  -12.2204   16.6158  -38.0786 O   0  0  0  0  0  0  0  0  0  0  0  0
  -12.0638   13.9175  -39.1606 O   0  0  0  0  0  0  0  0  0  0  0  0
  -12.1672   15.1444  -39.9699 O   0  0  0  0  0  0  0  0  0  0  0  0
   -8.2791   15.8279  -36.8166 O   0  0  0  0  0  0  0  0  0  0  0  0
  -10.9274   11.0900  -36.6622 H   0  0  0  0  0  0  0  0  0  0  0  0
  -10.6248   11.4941  -38.3476 H   0  0  0  0  0  0  0  0  0  0  0  0
  -14.2686   15.9058  -36.7443 H   0  0  0  0  0  0  0  0  0  0  0  0
  -15.3376   14.6396  -37.2305 H   0  0  0  0  0  0  0  0  0  0  0  0
  -12.8526   11.5134  -38.8744 H   0  0  0  0  0  0  0  0  0  0  0  0
  -12.9857   10.5442  -37.4164 H   0  0  0  0  0  0  0  0  0  0  0  0
  -14.6232   14.8055  -39.5652 H   0  0  0  0  0  0  0  0  0  0  0  0
  -15.0545   16.3829  -38.9126 H   0  0  0  0  0  0  0  0  0  0  0  0
  -11.2006   13.2696  -35.9643 H   0  0  0  0  0  0  0  0  0  0  0  0
  -13.0850   14.2318  -35.9622 H   0  0  0  0  0  0  0  0  0  0  0  0
  -14.6378   12.5756  -37.8301 H   0  0  0  0  0  0  0  0  0  0  0  0
   -8.9142   12.9892  -36.3569 H   0  0  0  0  0  0  0  0  0  0  0  0
  -10.4542   15.7851  -38.4568 H   0  0  0  0  0  0  0  0  0  0  0  0
   -9.2440   14.9337  -35.2637 H   0  0  0  0  0  0  0  0  0  0  0  0
  -13.3897   12.0399  -35.1182 H   0  0  0  0  0  0  0  0  0  0  0  0
  -14.6448   11.0764  -35.9205 H   0  0  0  0  0  0  0  0  0  0  0  0
  -14.9856   12.7481  -35.4336 H   0  0  0  0  0  0  0  0  0  0  0  0
   -9.2371   14.2216  -39.0894 H   0  0  0  0  0  0  0  0  0  0  0  0
   -8.7917   12.5431  -38.7269 H   0  0  0  0  0  0  0  0  0  0  0  0
   -7.7108   13.8690  -38.2565 H   0  0  0  0  0  0  0  0  0  0  0  0
  -12.0909   17.7071  -40.4634 H   0  0  0  0  0  0  0  0  0  0  0  0
  -13.6448   18.1114  -39.7090 H   0  0  0  0  0  0  0  0  0  0  0  0
  -13.5932   17.0083  -41.0976 H   0  0  0  0  0  0  0  0  0  0  0  0
   -8.2993   16.6841  -36.3606 H   0  0  0  0  0  0  0  0  0  0  0  0
  1  3  1  0  0  0  0
  1  5  1  1  0  0  0
  2  4  1  0  0  0  0
  2  6  1  1  0  0  0
  3  7  1  0  0  0  0
  4 12  1  0  0  0  0
  5  8  1  0  0  0  0
  5 11  1  0  0  0  0
  6  7  1  0  0  0  0
  6 11  1  0  0  0  0
  7 13  1  6  0  0  0
  8 10  1  0  0  0  0
  8 14  1  1  0  0  0
  9 11  1  0  0  0  0
  9 16  1  6  0  0  0
  9 17  1  0  0  0  0
 10 16  1  0  0  0  0
 10 20  1  1  0  0  0
 11 18  1  1  0  0  0
 12 15  1  0  0  0  0
 12 17  1  0  0  0  0
 12 19  1  0  0  0  0
 18 19  1  0  0  0  0
  1 21  1  0  0  0  0
  1 22  1  0  0  0  0
  2 23  1  0  0  0  0
  2 24  1  0  0  0  0
  3 25  1  0  0  0  0
  3 26  1  0  0  0  0
  4 27  1  0  0  0  0
  4 28  1  0  0  0  0
  5 29  1  0  0  0  0
  6 30  1  0  0  0  0
  7 31  1  0  0  0  0
  8 32  1  0  0  0  0
  9 33  1  0  0  0  0
 10 34  1  0  0  0  0
 13 35  1  0  0  0  0
 13 36  1  0  0  0  0
 13 37  1  0  0  0  0
 14 38  1  0  0  0  0
 14 39  1  0  0  0  0
 14 40  1  0  0  0  0
 15 41  1  0  0  0  0
 15 42  1  0  0  0  0
 15 43  1  0  0  0  0
 20 44  1  0  0  0  0
M  END
> <id>
EN300-27122031

> <smiles>
C[C@@H]1CC[C@H]2[C@@H](C)[C@@H](O)O[C@@H]3OC4(C)CC[C@@H]1[C@]23OO4

> <IUPAC Name>
(4S,5R,8S,9R,10S,12R,13S)-1,5,9-trimethyl-11,14,15,16-tetraoxatetracyclo[10.3.1.0?,.0?,]hexadecan-10-ol

> <URL>
https://www.enaminestore.com/catalog/EN300-27122031

> <ROCS_ShapeQuery>
x1247relevant_x1083L0AP1_x1305L0BP1_

> <ROCS_TanimotoCombo>
0.831 

> <ROCS_ShapeTanimoto>
0.515 

> <ROCS_ColorTanimoto>
0.316 

> <ROCS_RefTversky>
0.457 

> <ROCS_RefColorTversky>
0.378 

> <ROCS_RefTverskyCombo>
0.835 

> <ROCS_FitTversky>
1.324 

> <ROCS_FitColorTversky>
0.659 

> <ROCS_FitTverskyCombo>
1.983 

> <ROCS_ColorScore>
-8.075

> <ROCS_Overlap>
1351.574

> <ROCS_Rank>
145                 

$$$$
untitled-dbase-49190_2
  -OEChem-06162310163D

 35 38  0     1  0  0  0  0  0999 V2000
   -9.2775   16.8601  -38.4388 C   0  0  0  0  0  0  0  0  0  0  0  0
   -8.1206   17.4038  -37.9192 C   0  0  0  0  0  0  0  0  0  0  0  0
   -9.8429   15.8509  -37.5965 C   0  0  0  0  0  0  0  0  0  0  0  0
   -9.0136   15.6314  -36.5103 C   0  0  0  0  0  0  0  0  0  0  0  0
   -9.2624   14.5622  -35.5051 C   0  0  0  0  0  0  0  0  0  0  0  0
  -13.8244   14.0848  -38.2444 C   0  0  0  0  0  0  0  0  0  0  0  0
  -13.6056   16.5560  -38.5148 C   0  0  0  0  0  0  0  0  0  0  0  0
  -12.8024   13.9503  -39.3831 C   0  0  0  0  0  0  0  0  0  0  0  0
  -12.4315   16.3792  -39.4845 C   0  0  0  0  0  0  0  0  0  0  0  0
  -12.2383   15.3980  -36.7859 C   0  0  0  0  0  0  0  0  0  0  0  0
  -10.0195   13.3836  -36.1483 C   0  0  0  0  0  0  0  0  0  0  0  0
  -13.6098   15.4114  -37.4950 C   0  0  0  0  0  0  0  0  0  0  0  0
  -11.7026   15.0314  -39.2232 C   0  0  0  0  0  0  0  0  0  0  0  0
  -11.0944   14.9873  -37.7696 C   0  0  1  0  0  0  0  0  0  0  0  0
  -10.6162   13.6078  -37.4784 N   0  0  0  0  0  0  0  0  0  0  0  0
   -7.6778   16.6734  -36.4397 S   0  0  0  0  0  0  0  0  0  0  0  0
   -9.6866   17.1789  -39.3882 H   0  0  0  0  0  0  0  0  0  0  0  0
   -7.5195   18.1968  -38.3416 H   0  0  0  0  0  0  0  0  0  0  0  0
   -8.3239   14.1953  -35.0698 H   0  0  0  0  0  0  0  0  0  0  0  0
   -9.8684   14.9747  -34.6863 H   0  0  0  0  0  0  0  0  0  0  0  0
  -14.8399   14.0378  -38.6515 H   0  0  0  0  0  0  0  0  0  0  0  0
  -13.7214   13.2420  -37.5527 H   0  0  0  0  0  0  0  0  0  0  0  0
  -13.5270   17.5208  -38.0047 H   0  0  0  0  0  0  0  0  0  0  0  0
  -14.5469   16.5700  -39.0734 H   0  0  0  0  0  0  0  0  0  0  0  0
  -12.3929   12.9385  -39.4247 H   0  0  0  0  0  0  0  0  0  0  0  0
  -13.3142   14.0926  -40.3417 H   0  0  0  0  0  0  0  0  0  0  0  0
  -12.8061   16.3990  -40.5169 H   0  0  0  0  0  0  0  0  0  0  0  0
  -11.7410   17.2252  -39.4136 H   0  0  0  0  0  0  0  0  0  0  0  0
  -12.0570   16.3806  -36.3310 H   0  0  0  0  0  0  0  0  0  0  0  0
  -12.2944   14.7039  -35.9338 H   0  0  0  0  0  0  0  0  0  0  0  0
   -9.3589   12.4795  -36.1741 H   0  0  0  0  0  0  0  0  0  0  0  0
  -10.8355   13.0772  -35.4476 H   0  0  0  0  0  0  0  0  0  0  0  0
  -14.4067   15.5662  -36.7624 H   0  0  0  0  0  0  0  0  0  0  0  0
  -10.9392   14.9007  -39.9922 H   0  0  0  0  0  0  0  0  0  0  0  0
   -9.9716   13.2757  -38.2081 H   0  0  0  0  0  0  0  0  0  0  0  0
  1  2  2  0  0  0  0
  1  3  1  0  0  0  0
  2 16  1  0  0  0  0
  3  4  2  0  0  0  0
  3 14  1  0  0  0  0
  4  5  1  0  0  0  0
  4 16  1  0  0  0  0
  5 11  1  0  0  0  0
  6  8  1  0  0  0  0
  6 12  1  0  0  0  0
  7  9  1  0  0  0  0
  7 12  1  0  0  0  0
  8 13  1  0  0  0  0
  9 13  1  0  0  0  0
 10 12  1  0  0  0  0
 10 14  1  0  0  0  0
 11 15  1  0  0  0  0
 13 14  1  0  0  0  0
 14 15  1  0  0  0  0
  1 17  1  0  0  0  0
  2 18  1  0  0  0  0
  5 19  1  0  0  0  0
  5 20  1  0  0  0  0
  6 21  1  0  0  0  0
  6 22  1  0  0  0  0
  7 23  1  0  0  0  0
  7 24  1  0  0  0  0
  8 25  1  0  0  0  0
  8 26  1  0  0  0  0
  9 27  1  0  0  0  0
  9 28  1  0  0  0  0
 10 29  1  0  0  0  0
 10 30  1  0  0  0  0
 11 31  1  0  0  0  0
 11 32  1  0  0  0  0
 12 33  1  0  0  0  0
 13 34  1  0  0  0  0
 15 35  1  0  0  0  0
M  END
> <id>
EN300-1074860

> <smiles>
C1CC=2SC=CC2C3(CC4CCC3CC4)N1

> <IUPAC Name>
6',7'-dihydro-5'H-spiro[bicyclo[2.2.2]octane-2,4'-thieno[3,2-c]pyridine]

> <CAS>
1995307-03-3

> <URL>
https://www.enaminestore.com/catalog/EN300-1074860

> <ROCS_ShapeQuery>
x1247relevant_x1083L0AP1_x1305L0BP1_

> <ROCS_TanimotoCombo>
0.831 

> <ROCS_ShapeTanimoto>
0.461 

> <ROCS_ColorTanimoto>
0.370 

> <ROCS_RefTversky>
0.404 

> <ROCS_RefColorTversky>
0.404 

> <ROCS_RefTverskyCombo>
0.809 

> <ROCS_FitTversky>
1.436 

> <ROCS_FitColorTversky>
0.813 

> <ROCS_FitTverskyCombo>
2.249 

> <ROCS_ColorScore>
-8.594

> <ROCS_Overlap>
1191.873

> <ROCS_Rank>
146                 

$$$$
untitled-dbase-16682_6
  -OEChem-06162310163D

 40 42  0     1  0  0  0  0  0999 V2000
   -8.8915   14.7969  -37.5823 C   0  0  0  0  0  0  0  0  0  0  0  0
   -9.9715   15.6407  -38.2541 C   0  0  0  0  0  0  0  0  0  0  0  0
  -14.0873   17.3505  -39.2758 C   0  0  0  0  0  0  0  0  0  0  0  0
  -13.2120   13.7437  -37.9174 C   0  0  0  0  0  0  0  0  0  0  0  0
   -8.9934   14.9104  -36.0684 C   0  0  0  0  0  0  0  0  0  0  0  0
  -13.1867   18.1340  -40.2123 C   0  0  0  0  0  0  0  0  0  0  0  0
  -12.7499   15.8610  -40.4716 C   0  0  0  0  0  0  0  0  0  0  0  0
  -11.3001   15.4424  -36.1608 C   0  0  0  0  0  0  0  0  0  0  0  0
  -13.3059   16.0539  -39.0536 C   0  0  2  0  0  0  0  0  0  0  0  0
  -14.1400   14.8796  -38.4426 C   0  0  0  0  0  0  0  0  0  0  0  0
  -11.3827   15.3438  -37.6984 C   0  0  2  0  0  0  0  0  0  0  0  0
  -14.9742   15.3942  -37.2399 C   0  0  0  0  0  0  0  0  0  0  0  0
  -15.1399   14.2710  -39.4494 C   0  0  0  0  0  0  0  0  0  0  0  0
  -11.7854   13.9885  -38.0997 N   0  0  0  0  0  0  0  0  0  0  0  0
  -10.3048   14.5724  -35.6217 O   0  0  0  0  0  0  0  0  0  0  0  0
  -12.4530   17.1756  -40.9801 O   0  0  0  0  0  0  0  0  0  0  0  0
  -12.2447   16.4030  -38.1451 O   0  0  0  0  0  0  0  0  0  0  0  0
   -8.9801   13.7502  -37.8902 H   0  0  0  0  0  0  0  0  0  0  0  0
   -7.9056   15.1508  -37.9052 H   0  0  0  0  0  0  0  0  0  0  0  0
   -9.7197   16.7053  -38.1130 H   0  0  0  0  0  0  0  0  0  0  0  0
   -9.9388   15.4511  -39.3410 H   0  0  0  0  0  0  0  0  0  0  0  0
  -14.3260   17.9276  -38.3844 H   0  0  0  0  0  0  0  0  0  0  0  0
  -15.0309   17.1575  -39.8004 H   0  0  0  0  0  0  0  0  0  0  0  0
  -13.4273   13.5366  -36.8459 H   0  0  0  0  0  0  0  0  0  0  0  0
  -13.4638   12.7933  -38.4353 H   0  0  0  0  0  0  0  0  0  0  0  0
   -8.2623   14.2624  -35.5718 H   0  0  0  0  0  0  0  0  0  0  0  0
   -8.7877   15.9389  -35.7566 H   0  0  0  0  0  0  0  0  0  0  0  0
  -13.7522   18.7895  -40.8849 H   0  0  0  0  0  0  0  0  0  0  0  0
  -12.4665   18.7497  -39.6584 H   0  0  0  0  0  0  0  0  0  0  0  0
  -11.8253   15.2770  -40.4962 H   0  0  0  0  0  0  0  0  0  0  0  0
  -13.4755   15.4130  -41.1559 H   0  0  0  0  0  0  0  0  0  0  0  0
  -11.0602   16.4554  -35.8230 H   0  0  0  0  0  0  0  0  0  0  0  0
  -12.2695   15.2004  -35.6933 H   0  0  0  0  0  0  0  0  0  0  0  0
  -15.6306   16.1876  -37.5779 H   0  0  0  0  0  0  0  0  0  0  0  0
  -14.3019   15.7719  -36.4784 H   0  0  0  0  0  0  0  0  0  0  0  0
  -15.5613   14.5756  -36.8401 H   0  0  0  0  0  0  0  0  0  0  0  0
  -15.7843   15.0583  -39.8144 H   0  0  0  0  0  0  0  0  0  0  0  0
  -15.7221   13.5144  -38.9428 H   0  0  0  0  0  0  0  0  0  0  0  0
  -14.5836   13.8325  -40.2658 H   0  0  0  0  0  0  0  0  0  0  0  0
  -11.2442   13.2917  -37.5882 H   0  0  0  0  0  0  0  0  0  0  0  0
  1  2  1  0  0  0  0
  1  5  1  0  0  0  0
  2 11  1  0  0  0  0
  3  6  1  0  0  0  0
  3  9  1  0  0  0  0
  4 10  1  0  0  0  0
  4 14  1  0  0  0  0
  5 15  1  0  0  0  0
  6 16  1  0  0  0  0
  7  9  1  0  0  0  0
  7 16  1  0  0  0  0
  8 11  1  0  0  0  0
  8 15  1  0  0  0  0
  9 10  1  0  0  0  0
  9 17  1  0  0  0  0
 10 12  1  0  0  0  0
 10 13  1  0  0  0  0
 11 14  1  0  0  0  0
 11 17  1  0  0  0  0
  1 18  1  0  0  0  0
  1 19  1  0  0  0  0
  2 20  1  0  0  0  0
  2 21  1  0  0  0  0
  3 22  1  0  0  0  0
  3 23  1  0  0  0  0
  4 24  1  0  0  0  0
  4 25  1  0  0  0  0
  5 26  1  0  0  0  0
  5 27  1  0  0  0  0
  6 28  1  0  0  0  0
  6 29  1  0  0  0  0
  7 30  1  0  0  0  0
  7 31  1  0  0  0  0
  8 32  1  0  0  0  0
  8 33  1  0  0  0  0
 12 34  1  0  0  0  0
 12 35  1  0  0  0  0
 12 36  1  0  0  0  0
 13 37  1  0  0  0  0
 13 38  1  0  0  0  0
 13 39  1  0  0  0  0
 14 40  1  0  0  0  0
M  END
> <id>
EN300-1280288

> <smiles>
CC1(C)CNC2(CCCOC2)OC31CCOC3

> <IUPAC Name>
15,15-dimethyl-2,6,9-trioxa-13-azadispiro[4.1.5^{7}.3^{5}]pentadecane

> <CAS>
2171828-79-6

> <URL>
https://www.enaminestore.com/catalog/EN300-1280288

> <ROCS_ShapeQuery>
x1247relevant_x1083L0AP1_x1305L0BP1_

> <ROCS_TanimotoCombo>
0.830 

> <ROCS_ShapeTanimoto>
0.509 

> <ROCS_ColorTanimoto>
0.322 

> <ROCS_RefTversky>
0.437 

> <ROCS_RefColorTversky>
0.354 

> <ROCS_RefTverskyCombo>
0.791 

> <ROCS_FitTversky>
1.474 

> <ROCS_FitColorTversky>
0.779 

> <ROCS_FitTverskyCombo>
2.253 

> <ROCS_ColorScore>
-7.510

> <ROCS_Overlap>
1289.035

> <ROCS_Rank>
147                 

$$$$
untitled-dbase-2119_0
  -OEChem-06162310163D

 30 35  0     1  0  0  0  0  0999 V2000
  -11.6208   15.3880  -39.9734 C   0  0  0  0  0  0  0  0  0  0  0  0
  -14.4372   13.9901  -38.1998 C   0  0  0  0  0  0  0  0  0  0  0  0
   -8.8226   14.3912  -37.0445 C   0  0  0  0  0  0  0  0  0  0  0  0
   -9.4203   14.8028  -35.7284 C   0  0  0  0  0  0  0  0  0  0  0  0
  -12.3741   14.1786  -39.4559 C   0  0  2  0  0  0  0  0  0  0  0  0
  -12.1002   16.5421  -39.0052 C   0  0  1  0  0  0  0  0  0  0  0  0
  -13.8092   14.7780  -39.3338 C   0  0  2  0  0  0  0  0  0  0  0  0
  -13.3248   14.3056  -37.2184 C   0  0  1  0  0  0  0  0  0  0  0  0
  -13.5782   16.1828  -38.7032 C   0  0  1  0  0  0  0  0  0  0  0  0
  -12.0167   13.8995  -37.9498 C   0  0  2  0  0  0  0  0  0  0  0  0
  -11.7444   16.2336  -37.5051 C   0  0  1  0  0  0  0  0  0  0  0  0
  -13.2218   15.8510  -37.2467 C   0  0  2  0  0  0  0  0  0  0  0  0
  -11.0094   14.8937  -37.3361 C   0  0  0  0  0  0  0  0  0  0  0  0
  -10.8394   15.3891  -40.9090 O   0  0  0  0  0  0  0  0  0  0  0  0
   -9.7456   14.9041  -38.0024 O   0  0  0  0  0  0  0  0  0  0  0  0
  -10.8185   14.6200  -35.9384 O   0  0  0  0  0  0  0  0  0  0  0  0
  -15.4018   14.4013  -37.8860 H   0  0  0  0  0  0  0  0  0  0  0  0
  -14.5304   12.9220  -38.4167 H   0  0  0  0  0  0  0  0  0  0  0  0
   -7.8221   14.7964  -37.2137 H   0  0  0  0  0  0  0  0  0  0  0  0
   -8.7950   13.3014  -37.1513 H   0  0  0  0  0  0  0  0  0  0  0  0
   -9.0724   14.2010  -34.8853 H   0  0  0  0  0  0  0  0  0  0  0  0
   -9.2418   15.8628  -35.5176 H   0  0  0  0  0  0  0  0  0  0  0  0
  -12.3135   13.2994  -40.0989 H   0  0  0  0  0  0  0  0  0  0  0  0
  -11.9184   17.5631  -39.3435 H   0  0  0  0  0  0  0  0  0  0  0  0
  -14.3651   14.8092  -40.2736 H   0  0  0  0  0  0  0  0  0  0  0  0
  -13.4349   13.8901  -36.2143 H   0  0  0  0  0  0  0  0  0  0  0  0
  -14.3386   16.9490  -38.8622 H   0  0  0  0  0  0  0  0  0  0  0  0
  -11.7567   12.8487  -37.7899 H   0  0  0  0  0  0  0  0  0  0  0  0
  -11.3593   17.0871  -36.9411 H   0  0  0  0  0  0  0  0  0  0  0  0
  -13.7639   16.4085  -36.4804 H   0  0  0  0  0  0  0  0  0  0  0  0
  1  5  1  0  0  0  0
  1  6  1  0  0  0  0
  1 14  2  0  0  0  0
  2  7  1  0  0  0  0
  2  8  1  0  0  0  0
  3  4  1  0  0  0  0
  3 15  1  0  0  0  0
  4 16  1  0  0  0  0
  5  7  1  0  0  0  0
  5 10  1  0  0  0  0
  6  9  1  0  0  0  0
  6 11  1  0  0  0  0
  7  9  1  0  0  0  0
  8 10  1  0  0  0  0
  8 12  1  0  0  0  0
  9 12  1  0  0  0  0
 10 13  1  0  0  0  0
 11 12  1  0  0  0  0
 11 13  1  0  0  0  0
 13 15  1  0  0  0  0
 13 16  1  0  0  0  0
  2 17  1  0  0  0  0
  2 18  1  0  0  0  0
  3 19  1  0  0  0  0
  3 20  1  0  0  0  0
  4 21  1  0  0  0  0
  4 22  1  0  0  0  0
  5 23  1  0  0  0  0
  6 24  1  0  0  0  0
  7 25  1  0  0  0  0
  8 26  1  0  0  0  0
  9 27  1  0  0  0  0
 10 28  1  0  0  0  0
 11 29  1  0  0  0  0
 12 30  1  0  0  0  0
M  END
> <id>
EN300-51316

> <smiles>
O=C1C2C3C4C2C5(OCCO5)C6C4CC3C61

> <IUPAC Name>
spiro[1,3-dioxolane-2,8'-pentacyclo[5.4.0.0^{2,6}.0^{3,10}.0^{5,9}]undecane]-11'-one

> <CAS>
58228-93-6

> <Purity>
95

> <URL>
https://www.enaminestore.com/catalog/EN300-51316

> <ROCS_ShapeQuery>
x1247relevant_x1083L0AP1_x1305L0BP1_

> <ROCS_TanimotoCombo>
0.830 

> <ROCS_ShapeTanimoto>
0.576 

> <ROCS_ColorTanimoto>
0.254 

> <ROCS_RefTversky>
0.479 

> <ROCS_RefColorTversky>
0.916 

> <ROCS_RefTverskyCombo>
1.394 

> <ROCS_FitTversky>
1.546 

> <ROCS_FitColorTversky>
0.260 

> <ROCS_FitTverskyCombo>
1.806 

> <ROCS_ColorScore>
-23.264

> <ROCS_Overlap>
1412.460

> <ROCS_Rank>
148                 

$$$$
untitled-dbase-20308_0
  -OEChem-06162310163D

 34 37  0     1  0  0  0  0  0999 V2000
   -9.6293   17.1114  -38.0336 C   0  0  0  0  0  0  0  0  0  0  0  0
   -8.4590   17.4647  -37.3953 C   0  0  0  0  0  0  0  0  0  0  0  0
   -9.9746   15.8198  -37.5571 C   0  0  0  0  0  0  0  0  0  0  0  0
   -8.9679   15.4935  -36.6737 C   0  0  0  0  0  0  0  0  0  0  0  0
   -8.8051   14.2233  -35.9430 C   0  0  0  0  0  0  0  0  0  0  0  0
  -12.9648   16.6282  -37.6030 C   0  0  0  0  0  0  0  0  0  0  0  0
  -13.5383   14.2507  -37.4055 C   0  0  0  0  0  0  0  0  0  0  0  0
  -10.1045   13.4113  -36.0965 C   0  0  0  0  0  0  0  0  0  0  0  0
  -13.1612   16.5446  -39.1226 C   0  0  0  0  0  0  0  0  0  0  0  0
  -13.7681   14.2221  -38.9251 C   0  0  0  0  0  0  0  0  0  0  0  0
  -11.4806   14.8322  -39.3727 C   0  0  0  0  0  0  0  0  0  0  0  0
  -12.4319   15.2775  -37.0801 C   0  0  0  0  0  0  0  0  0  0  0  0
  -11.1274   14.8801  -37.8504 C   0  0  2  0  0  0  0  0  0  0  0  0
  -10.6760   13.5035  -37.4557 N   0  0  0  0  0  0  0  0  0  0  0  0
  -12.8976   15.1851  -39.6342 N   0  0  0  0  0  0  0  0  0  0  0  0
   -8.0443   16.4729  -36.5607 O   0  0  0  0  0  0  0  0  0  0  0  0
  -10.1621   17.7184  -38.7512 H   0  0  0  0  0  0  0  0  0  0  0  0
   -7.8266   18.3398  -37.4289 H   0  0  0  0  0  0  0  0  0  0  0  0
   -7.9652   13.6659  -36.3735 H   0  0  0  0  0  0  0  0  0  0  0  0
   -8.5901   14.3986  -34.8841 H   0  0  0  0  0  0  0  0  0  0  0  0
  -12.2902   17.4504  -37.3460 H   0  0  0  0  0  0  0  0  0  0  0  0
  -13.9231   16.8582  -37.1202 H   0  0  0  0  0  0  0  0  0  0  0  0
  -14.4687   14.5297  -36.8954 H   0  0  0  0  0  0  0  0  0  0  0  0
  -13.2710   13.2523  -37.0424 H   0  0  0  0  0  0  0  0  0  0  0  0
   -9.8971   12.3590  -35.8712 H   0  0  0  0  0  0  0  0  0  0  0  0
  -10.8443   13.7356  -35.3560 H   0  0  0  0  0  0  0  0  0  0  0  0
  -14.1841   16.8449  -39.3819 H   0  0  0  0  0  0  0  0  0  0  0  0
  -12.5091   17.2660  -39.6303 H   0  0  0  0  0  0  0  0  0  0  0  0
  -13.5936   13.2100  -39.3113 H   0  0  0  0  0  0  0  0  0  0  0  0
  -14.8198   14.4425  -39.1474 H   0  0  0  0  0  0  0  0  0  0  0  0
  -10.8353   15.4954  -39.9628 H   0  0  0  0  0  0  0  0  0  0  0  0
  -11.2997   13.8351  -39.7980 H   0  0  0  0  0  0  0  0  0  0  0  0
  -12.2746   15.3427  -35.9979 H   0  0  0  0  0  0  0  0  0  0  0  0
   -9.9748   13.1786  -38.1229 H   0  0  0  0  0  0  0  0  0  0  0  0
  1  2  2  0  0  0  0
  1  3  1  0  0  0  0
  2 16  1  0  0  0  0
  3  4  2  0  0  0  0
  3 13  1  0  0  0  0
  4  5  1  0  0  0  0
  4 16  1  0  0  0  0
  5  8  1  0  0  0  0
  6  9  1  0  0  0  0
  6 12  1  0  0  0  0
  7 10  1  0  0  0  0
  7 12  1  0  0  0  0
  8 14  1  0  0  0  0
  9 15  1  0  0  0  0
 10 15  1  0  0  0  0
 11 13  1  0  0  0  0
 11 15  1  0  0  0  0
 12 13  1  0  0  0  0
 13 14  1  0  0  0  0
  1 17  1  0  0  0  0
  2 18  1  0  0  0  0
  5 19  1  0  0  0  0
  5 20  1  0  0  0  0
  6 21  1  0  0  0  0
  6 22  1  0  0  0  0
  7 23  1  0  0  0  0
  7 24  1  0  0  0  0
  8 25  1  0  0  0  0
  8 26  1  0  0  0  0
  9 27  1  0  0  0  0
  9 28  1  0  0  0  0
 10 29  1  0  0  0  0
 10 30  1  0  0  0  0
 11 31  1  0  0  0  0
 11 32  1  0  0  0  0
 12 33  1  0  0  0  0
 14 34  1  0  0  0  0
M  END
> <id>
EN300-1076414

> <smiles>
C1CC=2OC=CC2C3(CN4CCC3CC4)N1

> <IUPAC Name>
6',7'-dihydro-5'H-4-azaspiro[bicyclo[2.2.2]octane-2,4'-furo[3,2-c]pyridine]

> <CAS>
2029756-67-8

> <URL>
https://www.enaminestore.com/catalog/EN300-1076414

> <ROCS_ShapeQuery>
x1247relevant_x1083L0AP1_x1305L0BP1_

> <ROCS_TanimotoCombo>
0.830 

> <ROCS_ShapeTanimoto>
0.473 

> <ROCS_ColorTanimoto>
0.358 

> <ROCS_RefTversky>
0.415 

> <ROCS_RefColorTversky>
0.418 

> <ROCS_RefTverskyCombo>
0.833 

> <ROCS_FitTversky>
1.421 

> <ROCS_FitColorTversky>
0.711 

> <ROCS_FitTverskyCombo>
2.132 

> <ROCS_ColorScore>
-8.937

> <ROCS_Overlap>
1222.625

> <ROCS_Rank>
149                 

$$$$
untitled-dbase-1493_0
  -OEChem-06162310163D

 28 29  0     1  0  0  0  0  0999 V2000
  -14.3232   15.0126  -37.5937 C   0  0  0  0  0  0  0  0  0  0  0  0
  -13.6005   16.3592  -37.4129 C   0  0  0  0  0  0  0  0  0  0  0  0
  -12.4200   13.4968  -38.3151 C   0  0  0  0  0  0  0  0  0  0  0  0
  -11.2110   15.7469  -38.0143 C   0  0  0  0  0  0  0  0  0  0  0  0
  -13.6241   14.3347  -38.7927 C   0  0  2  0  0  0  0  0  0  0  0  0
  -12.5201   16.3911  -38.5158 C   0  0  1  0  0  0  0  0  0  0  0  0
  -11.4213   14.3185  -37.4763 C   0  0  0  0  0  0  0  0  0  0  0  0
  -13.1666   15.5442  -39.6267 C   0  0  0  0  0  0  0  0  0  0  0  0
  -12.2851   15.2276  -40.8304 C   0  0  0  0  0  0  0  0  0  0  0  0
  -10.1441   13.6169  -37.3637 N   0  0  0  0  0  0  0  0  0  0  0  0
  -14.3255   16.2179  -40.1349 O   0  0  0  0  0  0  0  0  0  0  0  0
  -12.9388   14.4224  -41.6826 F   0  0  0  0  0  0  0  0  0  0  0  0
  -11.9549   16.3598  -41.4715 F   0  0  0  0  0  0  0  0  0  0  0  0
  -11.1608   14.6129  -40.4304 F   0  0  0  0  0  0  0  0  0  0  0  0
  -14.2910   14.4028  -36.6850 H   0  0  0  0  0  0  0  0  0  0  0  0
  -15.3804   15.1940  -37.8222 H   0  0  0  0  0  0  0  0  0  0  0  0
  -14.3149   17.1788  -37.5574 H   0  0  0  0  0  0  0  0  0  0  0  0
  -13.1819   16.4696  -36.4072 H   0  0  0  0  0  0  0  0  0  0  0  0
  -12.7800   12.6504  -37.7154 H   0  0  0  0  0  0  0  0  0  0  0  0
  -11.9201   13.0524  -39.1842 H   0  0  0  0  0  0  0  0  0  0  0  0
  -10.4729   15.7487  -38.8256 H   0  0  0  0  0  0  0  0  0  0  0  0
  -10.7801   16.3693  -37.2191 H   0  0  0  0  0  0  0  0  0  0  0  0
  -14.3352   13.7023  -39.3355 H   0  0  0  0  0  0  0  0  0  0  0  0
  -12.3365   17.4232  -38.8342 H   0  0  0  0  0  0  0  0  0  0  0  0
  -11.8261   14.4002  -36.4594 H   0  0  0  0  0  0  0  0  0  0  0  0
   -9.5482   14.1511  -36.7772 H   0  0  0  0  0  0  0  0  0  0  0  0
  -10.3164   12.7230  -36.9691 H   0  0  0  0  0  0  0  0  0  0  0  0
  -13.9953   16.9672  -40.6501 H   0  0  0  0  0  0  0  0  0  0  0  0
  1  2  1  0  0  0  0
  1  5  1  0  0  0  0
  2  6  1  0  0  0  0
  3  5  1  0  0  0  0
  3  7  1  0  0  0  0
  4  6  1  0  0  0  0
  4  7  1  0  0  0  0
  5  8  1  0  0  0  0
  6  8  1  0  0  0  0
  7 10  1  0  0  0  0
  8  9  1  0  0  0  0
  8 11  1  0  0  0  0
  9 12  1  0  0  0  0
  9 13  1  0  0  0  0
  9 14  1  0  0  0  0
  1 15  1  0  0  0  0
  1 16  1  0  0  0  0
  2 17  1  0  0  0  0
  2 18  1  0  0  0  0
  3 19  1  0  0  0  0
  3 20  1  0  0  0  0
  4 21  1  0  0  0  0
  4 22  1  0  0  0  0
  5 23  1  0  0  0  0
  6 24  1  0  0  0  0
  7 25  1  0  0  0  0
 10 26  1  0  0  0  0
 10 27  1  0  0  0  0
 11 28  1  0  0  0  0
M  END
> <id>
EN300-89651

> <smiles>
NC1CC2CCC(C1)C2(O)C(F)(F)F

> <MDLNUMBER>
MFCD19442742

> <IUPAC Name>
3-amino-8-(trifluoromethyl)bicyclo[3.2.1]octan-8-ol

> <CAS>
1251924-77-2

> <URL>
https://www.enaminestore.com/catalog/EN300-89651

> <ROCS_ShapeQuery>
x1247relevant_x1083L0AP1_x1305L0BP1_

> <ROCS_TanimotoCombo>
0.830 

> <ROCS_ShapeTanimoto>
0.425 

> <ROCS_ColorTanimoto>
0.405 

> <ROCS_RefTversky>
0.375 

> <ROCS_RefColorTversky>
0.430 

> <ROCS_RefTverskyCombo>
0.804 

> <ROCS_FitTversky>
1.459 

> <ROCS_FitColorTversky>
0.878 

> <ROCS_FitTverskyCombo>
2.337 

> <ROCS_ColorScore>
-9.129

> <ROCS_Overlap>
1102.417

> <ROCS_Rank>
150                 

$$$$
untitled-dbase-14441_1
  -OEChem-06162310163D

 35 38  0     1  0  0  0  0  0999 V2000
   -9.8655   17.2921  -37.4876 C   0  0  0  0  0  0  0  0  0  0  0  0
   -8.6095   17.5802  -36.9957 C   0  0  0  0  0  0  0  0  0  0  0  0
  -10.0400   15.8874  -37.3697 C   0  0  0  0  0  0  0  0  0  0  0  0
   -8.8818   15.4547  -36.7559 C   0  0  0  0  0  0  0  0  0  0  0  0
   -8.5754   14.0841  -36.3116 C   0  0  0  0  0  0  0  0  0  0  0  0
  -13.9576   14.1904  -38.4383 C   0  0  0  0  0  0  0  0  0  0  0  0
  -13.4931   16.6544  -38.4951 C   0  0  0  0  0  0  0  0  0  0  0  0
  -12.7928   13.9610  -39.4120 C   0  0  0  0  0  0  0  0  0  0  0  0
  -12.3655   16.3760  -39.4944 C   0  0  0  0  0  0  0  0  0  0  0  0
  -12.4165   15.2232  -36.7492 C   0  0  0  0  0  0  0  0  0  0  0  0
   -9.9086   13.3224  -36.2477 C   0  0  0  0  0  0  0  0  0  0  0  0
  -13.6998   15.4390  -37.5772 C   0  0  0  0  0  0  0  0  0  0  0  0
  -11.6898   15.0260  -39.1714 C   0  0  0  0  0  0  0  0  0  0  0  0
  -11.1957   14.9493  -37.6774 C   0  0  1  0  0  0  0  0  0  0  0  0
  -10.7143   13.5396  -37.4636 N   0  0  0  0  0  0  0  0  0  0  0  0
   -7.9997   16.4536  -36.5414 O   0  0  0  0  0  0  0  0  0  0  0  0
  -10.5673   18.0147  -37.8835 H   0  0  0  0  0  0  0  0  0  0  0  0
   -8.0388   18.4918  -36.8980 H   0  0  0  0  0  0  0  0  0  0  0  0
   -7.8870   13.5887  -36.9973 H   0  0  0  0  0  0  0  0  0  0  0  0
   -8.1176   14.1202  -35.3205 H   0  0  0  0  0  0  0  0  0  0  0  0
  -14.8930   14.3022  -38.9994 H   0  0  0  0  0  0  0  0  0  0  0  0
  -14.0809   13.3103  -37.7957 H   0  0  0  0  0  0  0  0  0  0  0  0
  -13.2524   17.5419  -37.8985 H   0  0  0  0  0  0  0  0  0  0  0  0
  -14.4194   16.8826  -39.0351 H   0  0  0  0  0  0  0  0  0  0  0  0
  -12.4119   12.9396  -39.3342 H   0  0  0  0  0  0  0  0  0  0  0  0
  -13.1633   14.0504  -40.4403 H   0  0  0  0  0  0  0  0  0  0  0  0
  -12.7794   16.3508  -40.5105 H   0  0  0  0  0  0  0  0  0  0  0  0
  -11.6433   17.1977  -39.4943 H   0  0  0  0  0  0  0  0  0  0  0  0
  -12.2523   16.0956  -36.1039 H   0  0  0  0  0  0  0  0  0  0  0  0
  -12.5845   14.3855  -36.0576 H   0  0  0  0  0  0  0  0  0  0  0  0
   -9.7337   12.2562  -36.0922 H   0  0  0  0  0  0  0  0  0  0  0  0
  -10.4721   13.6779  -35.3824 H   0  0  0  0  0  0  0  0  0  0  0  0
  -14.5485   15.6151  -36.9066 H   0  0  0  0  0  0  0  0  0  0  0  0
  -10.8714   14.8644  -39.8810 H   0  0  0  0  0  0  0  0  0  0  0  0
  -10.2154   13.1960  -38.2850 H   0  0  0  0  0  0  0  0  0  0  0  0
  1  2  2  0  0  0  0
  1  3  1  0  0  0  0
  2 16  1  0  0  0  0
  3  4  2  0  0  0  0
  3 14  1  0  0  0  0
  4  5  1  0  0  0  0
  4 16  1  0  0  0  0
  5 11  1  0  0  0  0
  6  8  1  0  0  0  0
  6 12  1  0  0  0  0
  7  9  1  0  0  0  0
  7 12  1  0  0  0  0
  8 13  1  0  0  0  0
  9 13  1  0  0  0  0
 10 12  1  0  0  0  0
 10 14  1  0  0  0  0
 11 15  1  0  0  0  0
 13 14  1  0  0  0  0
 14 15  1  0  0  0  0
  1 17  1  0  0  0  0
  2 18  1  0  0  0  0
  5 19  1  0  0  0  0
  5 20  1  0  0  0  0
  6 21  1  0  0  0  0
  6 22  1  0  0  0  0
  7 23  1  0  0  0  0
  7 24  1  0  0  0  0
  8 25  1  0  0  0  0
  8 26  1  0  0  0  0
  9 27  1  0  0  0  0
  9 28  1  0  0  0  0
 10 29  1  0  0  0  0
 10 30  1  0  0  0  0
 11 31  1  0  0  0  0
 11 32  1  0  0  0  0
 12 33  1  0  0  0  0
 13 34  1  0  0  0  0
 15 35  1  0  0  0  0
M  END
> <id>
EN300-1076313

> <smiles>
C1CC=2OC=CC2C3(CC4CCC3CC4)N1

> <IUPAC Name>
6',7'-dihydro-5'H-spiro[bicyclo[2.2.2]octane-2,4'-furo[3,2-c]pyridine]

> <CAS>
1998349-40-8

> <URL>
https://www.enaminestore.com/catalog/EN300-1076313

> <ROCS_ShapeQuery>
x1247relevant_x1083L0AP1_x1305L0BP1_

> <ROCS_TanimotoCombo>
0.830 

> <ROCS_ShapeTanimoto>
0.464 

> <ROCS_ColorTanimoto>
0.365 

> <ROCS_RefTversky>
0.409 

> <ROCS_RefColorTversky>
0.412 

> <ROCS_RefTverskyCombo>
0.821 

> <ROCS_FitTversky>
1.412 

> <ROCS_FitColorTversky>
0.762 

> <ROCS_FitTverskyCombo>
2.174 

> <ROCS_ColorScore>
-8.785

> <ROCS_Overlap>
1205.439

> <ROCS_Rank>
151                 

$$$$
untitled-dbase-2454_0
  -OEChem-06162310163D

 27 30  0     1  0  0  0  0  0999 V2000
  -13.5959   15.1659  -37.2766 C   0  0  0  0  0  0  0  0  0  0  0  0
  -13.4493   14.0668  -38.0330 C   0  0  0  0  0  0  0  0  0  0  0  0
  -10.4799   13.7203  -37.8034 C   0  0  0  0  0  0  0  0  0  0  0  0
  -10.2720   14.1537  -36.5571 C   0  0  0  0  0  0  0  0  0  0  0  0
  -10.7897   15.5371  -36.4867 C   0  0  0  0  0  0  0  0  0  0  0  0
  -13.1730   17.1354  -41.3238 C   0  0  0  0  0  0  0  0  0  0  0  0
  -14.5026   17.1673  -40.6228 C   0  0  0  0  0  0  0  0  0  0  0  0
  -12.8185   16.2833  -37.9475 C   0  0  1  0  0  0  0  0  0  0  0  0
  -11.1164   14.7215  -38.7194 C   0  0  2  0  0  0  0  0  0  0  0  0
  -11.2983   15.9960  -37.8304 C   0  0  2  0  0  0  0  0  0  0  0  0
  -12.5707   14.4607  -39.1950 C   0  0  2  0  0  0  0  0  0  0  0  0
  -13.0772   15.8979  -39.4269 C   0  0  0  0  0  0  0  0  0  0  0  0
  -10.8071   16.2147  -35.4702 O   0  0  0  0  0  0  0  0  0  0  0  0
  -12.2717   16.6753  -40.3186 O   0  0  0  0  0  0  0  0  0  0  0  0
  -14.4546   16.0076  -39.7959 O   0  0  0  0  0  0  0  0  0  0  0  0
   -9.5400   13.2653  -35.1363 Br  0  0  0  0  0  0  0  0  0  0  0  0
  -12.7245   13.3060  -40.6953 Br  0  0  0  0  0  0  0  0  0  0  0  0
  -14.1249   15.2334  -36.3395 H   0  0  0  0  0  0  0  0  0  0  0  0
  -13.8413   13.0870  -37.8092 H   0  0  0  0  0  0  0  0  0  0  0  0
  -10.2116   12.7285  -38.1442 H   0  0  0  0  0  0  0  0  0  0  0  0
  -13.1680   16.4077  -42.1422 H   0  0  0  0  0  0  0  0  0  0  0  0
  -12.8608   18.1099  -41.7072 H   0  0  0  0  0  0  0  0  0  0  0  0
  -14.5990   18.0468  -39.9768 H   0  0  0  0  0  0  0  0  0  0  0  0
  -15.3548   17.1231  -41.3052 H   0  0  0  0  0  0  0  0  0  0  0  0
  -13.1366   17.2871  -37.6618 H   0  0  0  0  0  0  0  0  0  0  0  0
  -10.4440   14.9357  -39.5598 H   0  0  0  0  0  0  0  0  0  0  0  0
  -10.6811   16.8209  -38.2029 H   0  0  0  0  0  0  0  0  0  0  0  0
  1  2  2  0  0  0  0
  1  8  1  0  0  0  0
  2 11  1  0  0  0  0
  3  4  2  0  0  0  0
  3  9  1  0  0  0  0
  4  5  1  0  0  0  0
  4 16  1  0  0  0  0
  5 10  1  0  0  0  0
  5 13  2  0  0  0  0
  6  7  1  0  0  0  0
  6 14  1  0  0  0  0
  7 15  1  0  0  0  0
  8 10  1  0  0  0  0
  8 12  1  0  0  0  0
  9 10  1  0  0  0  0
  9 11  1  0  0  0  0
 11 12  1  0  0  0  0
 11 17  1  0  0  0  0
 12 14  1  0  0  0  0
 12 15  1  0  0  0  0
  1 18  1  0  0  0  0
  2 19  1  0  0  0  0
  3 20  1  0  0  0  0
  6 21  1  0  0  0  0
  6 22  1  0  0  0  0
  7 23  1  0  0  0  0
  7 24  1  0  0  0  0
  8 25  1  0  0  0  0
  9 26  1  0  0  0  0
 10 27  1  0  0  0  0
M  END
> <id>
EN300-51318

> <smiles>
BrC1=CC2C(C3C=CC2(Br)C43OCCO4)C1=O

> <MDLNUMBER>
MFCD00498143

> <IUPAC Name>
1',4'-dibromospiro[1,3-dioxolane-2,10'-tricyclo[5.2.1.0,2,6]decane]-3',8'-dien-5'-one

> <CAS>
95272-45-0

> <Purity>
95

> <URL>
https://www.enaminestore.com/catalog/EN300-51318

> <MP>
172-173

> <ROCS_ShapeQuery>
x1247relevant_x1083L0AP1_x1305L0BP1_

> <ROCS_TanimotoCombo>
0.830 

> <ROCS_ShapeTanimoto>
0.519 

> <ROCS_ColorTanimoto>
0.311 

> <ROCS_RefTversky>
0.446 

> <ROCS_RefColorTversky>
0.391 

> <ROCS_RefTverskyCombo>
0.837 

> <ROCS_FitTversky>
1.459 

> <ROCS_FitColorTversky>
0.603 

> <ROCS_FitTverskyCombo>
2.062 

> <ROCS_ColorScore>
-8.377

> <ROCS_Overlap>
1315.699

> <ROCS_Rank>
152                 

$$$$
untitled-dbase-49303_0
  -OEChem-06162310163D

 32 35  0     1  0  0  0  0  0999 V2000
   -9.7050   17.3286  -37.7913 C   0  0  0  0  0  0  0  0  0  0  0  0
   -8.6389   17.8909  -37.1226 C   0  0  0  0  0  0  0  0  0  0  0  0
   -9.9858   15.9878  -37.3665 C   0  0  0  0  0  0  0  0  0  0  0  0
   -9.0801   15.6033  -36.3907 C   0  0  0  0  0  0  0  0  0  0  0  0
   -9.0357   14.2470  -35.7666 C   0  0  0  0  0  0  0  0  0  0  0  0
  -13.7372   14.3413  -38.9924 C   0  0  0  0  0  0  0  0  0  0  0  0
  -13.5226   14.2929  -37.4730 C   0  0  0  0  0  0  0  0  0  0  0  0
  -13.0251   16.4700  -38.2126 C   0  0  0  0  0  0  0  0  0  0  0  0
  -11.3925   15.1574  -39.3700 C   0  0  0  0  0  0  0  0  0  0  0  0
  -10.3098   13.4712  -36.1180 C   0  0  0  0  0  0  0  0  0  0  0  0
  -12.8855   15.5486  -39.4207 C   0  0  1  0  0  0  0  0  0  0  0  0
  -12.4900   15.4181  -37.2319 C   0  0  2  0  0  0  0  0  0  0  0  0
  -11.0938   15.0468  -37.8456 C   0  0  2  0  0  0  0  0  0  0  0  0
  -10.6853   13.6557  -37.5269 N   0  0  0  0  0  0  0  0  0  0  0  0
   -7.9565   16.8133  -35.9870 S   0  0  0  0  0  0  0  0  0  0  0  0
  -10.2532   17.8686  -38.5518 H   0  0  0  0  0  0  0  0  0  0  0  0
   -8.2301   18.8832  -37.2513 H   0  0  0  0  0  0  0  0  0  0  0  0
   -8.1607   13.7077  -36.1510 H   0  0  0  0  0  0  0  0  0  0  0  0
   -8.9349   14.3162  -34.6777 H   0  0  0  0  0  0  0  0  0  0  0  0
  -13.4260   13.4142  -39.4839 H   0  0  0  0  0  0  0  0  0  0  0  0
  -14.7966   14.5083  -39.2172 H   0  0  0  0  0  0  0  0  0  0  0  0
  -14.4626   14.5248  -36.9574 H   0  0  0  0  0  0  0  0  0  0  0  0
  -13.2009   13.3063  -37.1296 H   0  0  0  0  0  0  0  0  0  0  0  0
  -12.4215   17.3759  -38.2810 H   0  0  0  0  0  0  0  0  0  0  0  0
  -14.0631   16.7574  -38.0103 H   0  0  0  0  0  0  0  0  0  0  0  0
  -11.2188   14.2207  -39.9134 H   0  0  0  0  0  0  0  0  0  0  0  0
  -10.7831   15.9231  -39.8617 H   0  0  0  0  0  0  0  0  0  0  0  0
  -10.1466   12.4043  -35.9281 H   0  0  0  0  0  0  0  0  0  0  0  0
  -11.1349   13.7742  -35.4624 H   0  0  0  0  0  0  0  0  0  0  0  0
  -13.1890   15.9768  -40.3781 H   0  0  0  0  0  0  0  0  0  0  0  0
  -12.4541   15.7476  -36.1899 H   0  0  0  0  0  0  0  0  0  0  0  0
   -9.9004   13.3880  -38.1216 H   0  0  0  0  0  0  0  0  0  0  0  0
  1  2  2  0  0  0  0
  1  3  1  0  0  0  0
  2 15  1  0  0  0  0
  3  4  2  0  0  0  0
  3 13  1  0  0  0  0
  4  5  1  0  0  0  0
  4 15  1  0  0  0  0
  5 10  1  0  0  0  0
  6  7  1  0  0  0  0
  6 11  1  0  0  0  0
  7 12  1  0  0  0  0
  8 11  1  0  0  0  0
  8 12  1  0  0  0  0
  9 11  1  0  0  0  0
  9 13  1  0  0  0  0
 10 14  1  0  0  0  0
 12 13  1  0  0  0  0
 13 14  1  0  0  0  0
  1 16  1  0  0  0  0
  2 17  1  0  0  0  0
  5 18  1  0  0  0  0
  5 19  1  0  0  0  0
  6 20  1  0  0  0  0
  6 21  1  0  0  0  0
  7 22  1  0  0  0  0
  7 23  1  0  0  0  0
  8 24  1  0  0  0  0
  8 25  1  0  0  0  0
  9 26  1  0  0  0  0
  9 27  1  0  0  0  0
 10 28  1  0  0  0  0
 10 29  1  0  0  0  0
 11 30  1  0  0  0  0
 12 31  1  0  0  0  0
 14 32  1  0  0  0  0
M  END
> <id>
EN300-1074939

> <smiles>
C1CC2CC1CC32NCCC=4SC=CC43

> <IUPAC Name>
6',7'-dihydro-5'H-spiro[bicyclo[2.2.1]heptane-2,4'-thieno[3,2-c]pyridine]

> <CAS>
2023377-35-5

> <URL>
https://www.enaminestore.com/catalog/EN300-1074939

> <ROCS_ShapeQuery>
x1247relevant_x1083L0AP1_x1305L0BP1_

> <ROCS_TanimotoCombo>
0.830 

> <ROCS_ShapeTanimoto>
0.453 

> <ROCS_ColorTanimoto>
0.376 

> <ROCS_RefTversky>
0.396 

> <ROCS_RefColorTversky>
0.413 

> <ROCS_RefTverskyCombo>
0.809 

> <ROCS_FitTversky>
1.466 

> <ROCS_FitColorTversky>
0.808 

> <ROCS_FitTverskyCombo>
2.274 

> <ROCS_ColorScore>
-8.790

> <ROCS_Overlap>
1166.546

> <ROCS_Rank>
153                 

$$$$
untitled-dbase-35695_0
  -OEChem-06162310163D

 25 27  0     1  0  0  0  0  0999 V2000
  -13.4225   16.5210  -38.6207 C   0  0  0  0  0  0  0  0  0  0  0  0
  -13.5458   15.8299  -37.2524 C   0  0  0  0  0  0  0  0  0  0  0  0
  -10.5339   15.4455  -36.3812 C   0  0  0  0  0  0  0  0  0  0  0  0
  -13.1568   14.1744  -38.9188 C   0  0  0  0  0  0  0  0  0  0  0  0
  -11.1568   15.4881  -38.9743 C   0  0  0  0  0  0  0  0  0  0  0  0
   -9.4178   14.4575  -36.7492 C   0  0  0  0  0  0  0  0  0  0  0  0
  -12.6265   15.5039  -39.4574 C   0  0  2  0  0  0  0  0  0  0  0  0
  -12.7931   14.5043  -37.4657 C   0  0  1  0  0  0  0  0  0  0  0  0
  -11.2953   14.8319  -37.5848 C   0  0  2  0  0  0  0  0  0  0  0  0
  -10.4378   13.6240  -37.4186 N   0  0  0  0  0  0  0  0  0  0  0  0
  -14.4174   16.6846  -39.0494 H   0  0  0  0  0  0  0  0  0  0  0  0
  -12.9186   17.4898  -38.5476 H   0  0  0  0  0  0  0  0  0  0  0  0
  -13.1223   16.4417  -36.4502 H   0  0  0  0  0  0  0  0  0  0  0  0
  -14.6010   15.6442  -37.0207 H   0  0  0  0  0  0  0  0  0  0  0  0
  -10.9939   15.2486  -35.4055 H   0  0  0  0  0  0  0  0  0  0  0  0
  -10.2764   16.5054  -36.4491 H   0  0  0  0  0  0  0  0  0  0  0  0
  -14.2328   14.0424  -39.0735 H   0  0  0  0  0  0  0  0  0  0  0  0
  -12.6180   13.3089  -39.3185 H   0  0  0  0  0  0  0  0  0  0  0  0
  -10.5415   14.8914  -39.6574 H   0  0  0  0  0  0  0  0  0  0  0  0
  -10.7399   16.4990  -38.9203 H   0  0  0  0  0  0  0  0  0  0  0  0
   -8.6633   14.8659  -37.4316 H   0  0  0  0  0  0  0  0  0  0  0  0
   -8.9134   13.9780  -35.9063 H   0  0  0  0  0  0  0  0  0  0  0  0
  -12.7271   15.6525  -40.5343 H   0  0  0  0  0  0  0  0  0  0  0  0
  -13.0394   13.7354  -36.7297 H   0  0  0  0  0  0  0  0  0  0  0  0
  -10.1286   13.1763  -38.2793 H   0  0  0  0  0  0  0  0  0  0  0  0
  1  2  1  0  0  0  0
  1  7  1  0  0  0  0
  2  8  1  0  0  0  0
  3  6  1  0  0  0  0
  3  9  1  0  0  0  0
  4  7  1  0  0  0  0
  4  8  1  0  0  0  0
  5  7  1  0  0  0  0
  5  9  1  0  0  0  0
  6 10  1  0  0  0  0
  8  9  1  0  0  0  0
  9 10  1  0  0  0  0
  1 11  1  0  0  0  0
  1 12  1  0  0  0  0
  2 13  1  0  0  0  0
  2 14  1  0  0  0  0
  3 15  1  0  0  0  0
  3 16  1  0  0  0  0
  4 17  1  0  0  0  0
  4 18  1  0  0  0  0
  5 19  1  0  0  0  0
  5 20  1  0  0  0  0
  6 21  1  0  0  0  0
  6 22  1  0  0  0  0
  7 23  1  0  0  0  0
  8 24  1  0  0  0  0
 10 25  1  0  0  0  0
M  END
> <id>
EN300-1241513

> <smiles>
C1CC2(CC3CCC2C3)N1

> <MDLNUMBER>
MFCD24121896

> <IUPAC Name>
spiro[azetidine-2,2'-bicyclo[2.2.1]heptane]

> <CAS>
28890-93-9

> <Purity>
95

> <URL>
https://www.enaminestore.com/catalog/EN300-1241513

> <ROCS_ShapeQuery>
x1247relevant_x1083L0AP1_x1305L0BP1_

> <ROCS_TanimotoCombo>
0.829 

> <ROCS_ShapeTanimoto>
0.433 

> <ROCS_ColorTanimoto>
0.396 

> <ROCS_RefTversky>
0.362 

> <ROCS_RefColorTversky>
0.417 

> <ROCS_RefTverskyCombo>
0.779 

> <ROCS_FitTversky>
1.829 

> <ROCS_FitColorTversky>
0.888 

> <ROCS_FitTverskyCombo>
2.717 

> <ROCS_ColorScore>
-8.847

> <ROCS_Overlap>
1062.343

> <ROCS_Rank>
154                 

$$$$
untitled-dbase-34728_29
  -OEChem-06162310163D

 35 36  0     1  0  0  0  0  0999 V2000
  -12.3783   16.2633  -39.6184 C   0  0  0  0  0  0  0  0  0  0  0  0
   -9.9086   15.0651  -36.9441 C   0  0  0  0  0  0  0  0  0  0  0  0
  -11.0273   15.9858  -38.9807 C   0  0  0  0  0  0  0  0  0  0  0  0
  -13.6145   14.1692  -39.1066 C   0  0  0  0  0  0  0  0  0  0  0  0
  -12.8498   13.6391  -37.8870 C   0  0  0  0  0  0  0  0  0  0  0  0
  -13.4661   15.9099  -37.4499 C   0  0  0  0  0  0  0  0  0  0  0  0
  -13.6104   15.6913  -38.9457 C   0  0  1  0  0  0  0  0  0  0  0  0
  -12.3796   14.8905  -37.1337 C   0  0  2  0  0  0  0  0  0  0  0  0
   -7.7177   13.3748  -36.2175 C   0  0  0  0  0  0  0  0  0  0  0  0
   -9.4668   11.7758  -35.3849 C   0  0  0  0  0  0  0  0  0  0  0  0
   -9.3873   12.3854  -37.8201 C   0  0  0  0  0  0  0  0  0  0  0  0
   -9.1523   12.8788  -36.3932 C   0  0  0  0  0  0  0  0  0  0  0  0
  -11.0808   15.3487  -37.6585 N   0  0  0  0  0  0  0  0  0  0  0  0
  -12.4587   16.8674  -40.6886 O   0  0  0  0  0  0  0  0  0  0  0  0
   -8.8703   15.7185  -37.0239 O   0  0  0  0  0  0  0  0  0  0  0  0
  -10.0458   13.9676  -36.1343 O   0  0  0  0  0  0  0  0  0  0  0  0
  -10.4654   15.3201  -39.6447 H   0  0  0  0  0  0  0  0  0  0  0  0
  -10.4861   16.9324  -38.8804 H   0  0  0  0  0  0  0  0  0  0  0  0
  -13.1480   13.8416  -40.0418 H   0  0  0  0  0  0  0  0  0  0  0  0
  -14.6403   13.7840  -39.0921 H   0  0  0  0  0  0  0  0  0  0  0  0
  -13.5297   13.0554  -37.2549 H   0  0  0  0  0  0  0  0  0  0  0  0
  -12.0238   12.9780  -38.1699 H   0  0  0  0  0  0  0  0  0  0  0  0
  -13.1778   16.9310  -37.1785 H   0  0  0  0  0  0  0  0  0  0  0  0
  -14.3973   15.6619  -36.9267 H   0  0  0  0  0  0  0  0  0  0  0  0
  -14.5053   16.1662  -39.3576 H   0  0  0  0  0  0  0  0  0  0  0  0
  -12.2994   14.6976  -36.0595 H   0  0  0  0  0  0  0  0  0  0  0  0
   -7.4881   14.1666  -36.9395 H   0  0  0  0  0  0  0  0  0  0  0  0
   -7.5461   13.7637  -35.2086 H   0  0  0  0  0  0  0  0  0  0  0  0
   -6.9995   12.5683  -36.4044 H   0  0  0  0  0  0  0  0  0  0  0  0
  -10.4951   11.4169  -35.5073 H   0  0  0  0  0  0  0  0  0  0  0  0
   -9.3914   12.1523  -34.3583 H   0  0  0  0  0  0  0  0  0  0  0  0
   -8.7872   10.9242  -35.4926 H   0  0  0  0  0  0  0  0  0  0  0  0
  -10.4162   12.0295  -37.9463 H   0  0  0  0  0  0  0  0  0  0  0  0
   -9.2020   13.1749  -38.5555 H   0  0  0  0  0  0  0  0  0  0  0  0
   -8.7355   11.5349  -38.0506 H   0  0  0  0  0  0  0  0  0  0  0  0
  1  3  1  0  0  0  0
  1  7  1  0  0  0  0
  1 14  2  0  0  0  0
  2 13  1  0  0  0  0
  2 15  2  0  0  0  0
  2 16  1  0  0  0  0
  3 13  1  0  0  0  0
  4  5  1  0  0  0  0
  4  7  1  0  0  0  0
  5  8  1  0  0  0  0
  6  7  1  0  0  0  0
  6  8  1  0  0  0  0
  8 13  1  0  0  0  0
  9 12  1  0  0  0  0
 10 12  1  0  0  0  0
 11 12  1  0  0  0  0
 12 16  1  0  0  0  0
  3 17  1  0  0  0  0
  3 18  1  0  0  0  0
  4 19  1  0  0  0  0
  4 20  1  0  0  0  0
  5 21  1  0  0  0  0
  5 22  1  0  0  0  0
  6 23  1  0  0  0  0
  6 24  1  0  0  0  0
  7 25  1  0  0  0  0
  8 26  1  0  0  0  0
  9 27  1  0  0  0  0
  9 28  1  0  0  0  0
  9 29  1  0  0  0  0
 10 30  1  0  0  0  0
 10 31  1  0  0  0  0
 10 32  1  0  0  0  0
 11 33  1  0  0  0  0
 11 34  1  0  0  0  0
 11 35  1  0  0  0  0
M  END
> <id>
EN300-37474047

> <smiles>
CC(C)(C)OC(=O)N1CC(=O)C2CCC1C2

> <IUPAC Name>
tert-butyl 4-oxo-2-azabicyclo[3.2.1]octane-2-carboxylate

> <Purity>
95

> <URL>
https://www.enaminestore.com/catalog/EN300-37474047

> <ROCS_ShapeQuery>
x1247relevant_x1083L0AP1_x1305L0BP1_

> <ROCS_TanimotoCombo>
0.829 

> <ROCS_ShapeTanimoto>
0.509 

> <ROCS_ColorTanimoto>
0.320 

> <ROCS_RefTversky>
0.432 

> <ROCS_RefColorTversky>
0.350 

> <ROCS_RefTverskyCombo>
0.782 

> <ROCS_FitTversky>
1.538 

> <ROCS_FitColorTversky>
0.786 

> <ROCS_FitTverskyCombo>
2.324 

> <ROCS_ColorScore>
-7.428

> <ROCS_Overlap>
1273.035

> <ROCS_Rank>
155                 

$$$$
untitled-dbase-35434_3
  -OEChem-06162310163D

 43 45  0     1  0  0  0  0  0999 V2000
  -12.0528   14.8713  -39.8115 C   0  0  0  0  0  0  0  0  0  0  0  0
  -12.3793   16.8257  -38.3446 C   0  0  0  0  0  0  0  0  0  0  0  0
   -8.7495   15.0739  -36.6161 C   0  0  0  0  0  0  0  0  0  0  0  0
  -13.4852   14.4503  -39.4448 C   0  0  0  0  0  0  0  0  0  0  0  0
  -13.7483   16.2860  -37.9064 C   0  0  0  0  0  0  0  0  0  0  0  0
  -12.8462   14.1810  -37.1419 C   0  0  0  0  0  0  0  0  0  0  0  0
   -9.8469   15.2704  -35.5821 C   0  0  0  0  0  0  0  0  0  0  0  0
  -11.4360   15.6364  -38.6268 C   0  0  0  0  0  0  0  0  0  0  0  0
   -9.0893   13.9108  -37.5609 C   0  0  1  0  0  0  0  0  0  0  0  0
  -11.3993   14.7181  -37.3634 C   0  0  2  0  0  0  0  0  0  0  0  0
   -6.7758   12.9724  -37.3213 C   0  0  0  0  0  0  0  0  0  0  0  0
   -8.6310   11.5269  -38.1904 C   0  0  0  0  0  0  0  0  0  0  0  0
   -8.6018   12.2142  -35.7794 C   0  0  0  0  0  0  0  0  0  0  0  0
   -8.2786   12.6624  -37.2148 C   0  0  0  0  0  0  0  0  0  0  0  0
  -10.5083   13.5588  -37.4996 N   0  0  0  0  0  0  0  0  0  0  0  0
  -13.8288   14.8181  -38.0530 N   0  0  0  0  0  0  0  0  0  0  0  0
  -11.0940   15.5460  -36.2168 O   0  0  0  0  0  0  0  0  0  0  0  0
  -11.4523   13.9999  -40.0894 H   0  0  0  0  0  0  0  0  0  0  0  0
  -12.0817   15.5211  -40.6947 H   0  0  0  0  0  0  0  0  0  0  0  0
  -12.4894   17.4344  -39.2499 H   0  0  0  0  0  0  0  0  0  0  0  0
  -11.9663   17.4800  -37.5698 H   0  0  0  0  0  0  0  0  0  0  0  0
   -8.5993   15.9999  -37.1854 H   0  0  0  0  0  0  0  0  0  0  0  0
   -7.8055   14.8547  -36.0967 H   0  0  0  0  0  0  0  0  0  0  0  0
  -14.2027   14.9099  -40.1371 H   0  0  0  0  0  0  0  0  0  0  0  0
  -13.6006   13.3673  -39.5815 H   0  0  0  0  0  0  0  0  0  0  0  0
  -13.9485   16.5654  -36.8640 H   0  0  0  0  0  0  0  0  0  0  0  0
  -14.5418   16.7625  -38.4956 H   0  0  0  0  0  0  0  0  0  0  0  0
  -12.9053   13.0944  -37.2940 H   0  0  0  0  0  0  0  0  0  0  0  0
  -13.1667   14.3418  -36.1040 H   0  0  0  0  0  0  0  0  0  0  0  0
   -9.9702   14.3566  -34.9892 H   0  0  0  0  0  0  0  0  0  0  0  0
   -9.5973   16.0752  -34.8804 H   0  0  0  0  0  0  0  0  0  0  0  0
  -10.4483   16.0247  -38.8963 H   0  0  0  0  0  0  0  0  0  0  0  0
   -8.8229   14.1905  -38.5948 H   0  0  0  0  0  0  0  0  0  0  0  0
   -6.1671   12.0943  -37.0784 H   0  0  0  0  0  0  0  0  0  0  0  0
   -6.4901   13.7766  -36.6339 H   0  0  0  0  0  0  0  0  0  0  0  0
   -6.5109   13.2912  -38.3357 H   0  0  0  0  0  0  0  0  0  0  0  0
   -8.0605   10.6198  -37.9610 H   0  0  0  0  0  0  0  0  0  0  0  0
   -9.6957   11.2746  -38.1324 H   0  0  0  0  0  0  0  0  0  0  0  0
   -8.4105   11.8060  -39.2269 H   0  0  0  0  0  0  0  0  0  0  0  0
   -8.0309   11.3188  -35.5088 H   0  0  0  0  0  0  0  0  0  0  0  0
   -9.6657   11.9790  -35.6629 H   0  0  0  0  0  0  0  0  0  0  0  0
   -8.3528   12.9993  -35.0566 H   0  0  0  0  0  0  0  0  0  0  0  0
  -10.7651   12.9842  -38.3088 H   0  0  0  0  0  0  0  0  0  0  0  0
  1  4  1  0  0  0  0
  1  8  1  0  0  0  0
  2  5  1  0  0  0  0
  2  8  1  0  0  0  0
  3  7  1  0  0  0  0
  3  9  1  0  0  0  0
  4 16  1  0  0  0  0
  5 16  1  0  0  0  0
  6 10  1  0  0  0  0
  6 16  1  0  0  0  0
  7 17  1  0  0  0  0
  8 10  1  0  0  0  0
  9 14  1  0  0  0  0
  9 15  1  0  0  0  0
 10 15  1  0  0  0  0
 10 17  1  0  0  0  0
 11 14  1  0  0  0  0
 12 14  1  0  0  0  0
 13 14  1  0  0  0  0
  1 18  1  0  0  0  0
  1 19  1  0  0  0  0
  2 20  1  0  0  0  0
  2 21  1  0  0  0  0
  3 22  1  0  0  0  0
  3 23  1  0  0  0  0
  4 24  1  0  0  0  0
  4 25  1  0  0  0  0
  5 26  1  0  0  0  0
  5 27  1  0  0  0  0
  6 28  1  0  0  0  0
  6 29  1  0  0  0  0
  7 30  1  0  0  0  0
  7 31  1  0  0  0  0
  8 32  1  0  0  0  0
  9 33  1  0  0  0  0
 11 34  1  0  0  0  0
 11 35  1  0  0  0  0
 11 36  1  0  0  0  0
 12 37  1  0  0  0  0
 12 38  1  0  0  0  0
 12 39  1  0  0  0  0
 13 40  1  0  0  0  0
 13 41  1  0  0  0  0
 13 42  1  0  0  0  0
 15 43  1  0  0  0  0
M  END
> <id>
EN300-1278478

> <smiles>
CC(C)(C)C1CCOC2(CN3CCC2CC3)N1

> <IUPAC Name>
4'-tert-butyl-4-azaspiro[bicyclo[2.2.2]octane-2,2'-[1,3]oxazinane]

> <CAS>
2172141-29-4

> <URL>
https://www.enaminestore.com/catalog/EN300-1278478

> <ROCS_ShapeQuery>
x1247relevant_x1083L0AP1_x1305L0BP1_

> <ROCS_TanimotoCombo>
0.828 

> <ROCS_ShapeTanimoto>
0.480 

> <ROCS_ColorTanimoto>
0.348 

> <ROCS_RefTversky>
0.420 

> <ROCS_RefColorTversky>
0.410 

> <ROCS_RefTverskyCombo>
0.830 

> <ROCS_FitTversky>
1.424 

> <ROCS_FitColorTversky>
0.697 

> <ROCS_FitTverskyCombo>
2.121 

> <ROCS_ColorScore>
-8.760

> <ROCS_Overlap>
1238.391

> <ROCS_Rank>
156                 

$$$$
untitled-dbase-43865_0
  -OEChem-06162310163D

 24 26  0     1  0  0  0  0  0999 V2000
   -9.0984   14.2467  -37.1202 C   0  0  0  0  0  0  0  0  0  0  0  0
   -9.6447   14.7977  -35.9498 C   0  0  0  0  0  0  0  0  0  0  0  0
   -9.8456   14.1846  -38.2985 C   0  0  0  0  0  0  0  0  0  0  0  0
  -10.9489   15.2974  -35.9354 C   0  0  0  0  0  0  0  0  0  0  0  0
  -11.1398   14.6787  -38.2839 C   0  0  0  0  0  0  0  0  0  0  0  0
  -11.6925   15.2352  -37.1055 C   0  0  0  0  0  0  0  0  0  0  0  0
  -12.5573   16.1768  -39.5717 C   0  0  0  0  0  0  0  0  0  0  0  0
  -13.0664   16.7887  -38.2595 C   0  0  0  0  0  0  0  0  0  0  0  0
  -13.3818   13.9655  -38.9776 C   0  0  0  0  0  0  0  0  0  0  0  0
  -13.8895   14.5556  -37.6292 C   0  0  0  0  0  0  0  0  0  0  0  0
  -12.1131   14.7161  -39.4390 C   0  0  2  0  0  0  0  0  0  0  0  0
  -13.0393   15.7106  -37.2351 N   0  0  1  0  0  0  0  0  0  0  0  0
  -12.5137   16.8006  -40.6265 O   0  0  0  0  0  0  0  0  0  0  0  0
   -8.0810   13.8649  -37.1072 H   0  0  0  0  0  0  0  0  0  0  0  0
   -9.0435   14.8356  -35.0452 H   0  0  0  0  0  0  0  0  0  0  0  0
   -9.4171   13.7585  -39.1994 H   0  0  0  0  0  0  0  0  0  0  0  0
  -11.3639   15.7222  -35.0273 H   0  0  0  0  0  0  0  0  0  0  0  0
  -12.4217   17.6237  -37.9649 H   0  0  0  0  0  0  0  0  0  0  0  0
  -14.0915   17.1453  -38.4001 H   0  0  0  0  0  0  0  0  0  0  0  0
  -13.1671   12.8976  -38.8484 H   0  0  0  0  0  0  0  0  0  0  0  0
  -14.1707   14.0546  -39.7346 H   0  0  0  0  0  0  0  0  0  0  0  0
  -14.9312   14.8824  -37.7302 H   0  0  0  0  0  0  0  0  0  0  0  0
  -13.8755   13.7882  -36.8446 H   0  0  0  0  0  0  0  0  0  0  0  0
  -11.6992   14.3332  -40.3745 H   0  0  0  0  0  0  0  0  0  0  0  0
  1  2  2  0  0  0  0
  1  3  1  0  0  0  0
  2  4  1  0  0  0  0
  3  5  2  0  0  0  0
  4  6  2  0  0  0  0
  5  6  1  0  0  0  0
  5 11  1  0  0  0  0
  6 12  1  0  0  0  0
  7  8  1  0  0  0  0
  7 11  1  0  0  0  0
  7 13  2  0  0  0  0
  8 12  1  0  0  0  0
  9 10  1  0  0  0  0
  9 11  1  0  0  0  0
 10 12  1  0  0  0  0
  1 14  1  0  0  0  0
  2 15  1  0  0  0  0
  3 16  1  0  0  0  0
  4 17  1  0  0  0  0
  8 18  1  0  0  0  0
  8 19  1  0  0  0  0
  9 20  1  0  0  0  0
  9 21  1  0  0  0  0
 10 22  1  0  0  0  0
 10 23  1  0  0  0  0
 11 24  1  0  0  0  0
M  END
> <id>
EN300-8240821

> <smiles>
O=C1CN2CCC1C=3C=CC=CC23

> <MDLNUMBER>
MFCD00513384

> <IUPAC Name>
1-azatricyclo[6.2.2.0,2,7]dodeca-2,4,6-trien-9-one

> <CAS>
24562-79-6

> <Purity>
95

> <URL>
https://www.enaminestore.com/catalog/EN300-8240821

> <ROCS_ShapeQuery>
x1247relevant_x1083L0AP1_x1305L0BP1_

> <ROCS_TanimotoCombo>
0.828 

> <ROCS_ShapeTanimoto>
0.482 

> <ROCS_ColorTanimoto>
0.346 

> <ROCS_RefTversky>
0.406 

> <ROCS_RefColorTversky>
0.364 

> <ROCS_RefTverskyCombo>
0.770 

> <ROCS_FitTversky>
1.642 

> <ROCS_FitColorTversky>
0.873 

> <ROCS_FitTverskyCombo>
2.514 

> <ROCS_ColorScore>
-7.709

> <ROCS_Overlap>
1193.111

> <ROCS_Rank>
157                 

$$$$
untitled-dbase-50920_6
  -OEChem-06162310163D

 30 32  0     0  0  0  0  0  0999 V2000
  -10.5490   16.1782  -37.0614 C   0  0  0  0  0  0  0  0  0  0  0  0
  -10.5796   13.7221  -37.6585 C   0  0  0  0  0  0  0  0  0  0  0  0
  -13.0363   14.4574  -39.4785 C   0  0  0  0  0  0  0  0  0  0  0  0
  -12.9609   16.4737  -38.9613 C   0  0  0  0  0  0  0  0  0  0  0  0
   -9.5079   15.6469  -36.0770 C   0  0  0  0  0  0  0  0  0  0  0  0
  -10.1957   13.3802  -36.2157 C   0  0  0  0  0  0  0  0  0  0  0  0
  -11.8382   15.3997  -39.1304 C   0  0  0  0  0  0  0  0  0  0  0  0
  -11.3369   15.0435  -37.7306 C   0  0  0  0  0  0  0  0  0  0  0  0
  -13.5562   15.2199  -38.1867 C   0  0  0  0  0  0  0  0  0  0  0  0
  -14.9954   15.1669  -37.7748 C   0  0  0  0  0  0  0  0  0  0  0  0
  -10.9602   15.6542  -40.2420 N   0  0  0  0  0  0  0  0  0  0  0  0
  -10.0282   14.5239  -35.3770 O   0  0  0  0  0  0  0  0  0  0  0  0
  -12.6318   14.9043  -37.0932 O   0  0  0  0  0  0  0  0  0  0  0  0
  -11.2090   16.8692  -36.5208 H   0  0  0  0  0  0  0  0  0  0  0  0
  -10.0336   16.7617  -37.8389 H   0  0  0  0  0  0  0  0  0  0  0  0
   -9.6610   13.7973  -38.2551 H   0  0  0  0  0  0  0  0  0  0  0  0
  -11.1653   12.8871  -38.0586 H   0  0  0  0  0  0  0  0  0  0  0  0
  -13.5829   14.6385  -40.4128 H   0  0  0  0  0  0  0  0  0  0  0  0
  -12.8825   13.3809  -39.3705 H   0  0  0  0  0  0  0  0  0  0  0  0
  -12.7363   17.3509  -38.3500 H   0  0  0  0  0  0  0  0  0  0  0  0
  -13.5015   16.8024  -39.8576 H   0  0  0  0  0  0  0  0  0  0  0  0
   -8.6193   15.3214  -36.6216 H   0  0  0  0  0  0  0  0  0  0  0  0
   -9.2016   16.4177  -35.3648 H   0  0  0  0  0  0  0  0  0  0  0  0
  -10.9414   12.7001  -35.7567 H   0  0  0  0  0  0  0  0  0  0  0  0
   -9.2393   12.8245  -36.2116 H   0  0  0  0  0  0  0  0  0  0  0  0
  -15.1698   15.7515  -36.8606 H   0  0  0  0  0  0  0  0  0  0  0  0
  -15.3149   14.1344  -37.5758 H   0  0  0  0  0  0  0  0  0  0  0  0
  -15.6494   15.5726  -38.5594 H   0  0  0  0  0  0  0  0  0  0  0  0
  -10.9387   16.6355  -40.4313 H   0  0  0  0  0  0  0  0  0  0  0  0
  -10.0392   15.3372  -40.0172 H   0  0  0  0  0  0  0  0  0  0  0  0
  1  5  1  0  0  0  0
  1  8  1  0  0  0  0
  2  6  1  0  0  0  0
  2  8  1  0  0  0  0
  3  7  1  0  0  0  0
  3  9  1  0  0  0  0
  4  7  1  0  0  0  0
  4  9  1  0  0  0  0
  5 12  1  0  0  0  0
  6 12  1  0  0  0  0
  7  8  1  0  0  0  0
  7 11  1  1  0  0  0
  8 13  1  0  0  0  0
  9 10  1  1  0  0  0
  9 13  1  0  0  0  0
  1 14  1  0  0  0  0
  1 15  1  0  0  0  0
  2 16  1  0  0  0  0
  2 17  1  0  0  0  0
  3 18  1  0  0  0  0
  3 19  1  0  0  0  0
  4 20  1  0  0  0  0
  4 21  1  0  0  0  0
  5 22  1  0  0  0  0
  5 23  1  0  0  0  0
  6 24  1  0  0  0  0
  6 25  1  0  0  0  0
 10 26  1  0  0  0  0
 10 27  1  0  0  0  0
 10 28  1  0  0  0  0
 11 29  1  0  0  0  0
 11 30  1  0  0  0  0
M  END
> <id>
EN300-37375251

> <smiles>
Cl.C[C@]1(C[C@@]2(N)C1)OC32CCOCC3

> <IUPAC Name>
4-methyl-3-oxaspiro[bicyclo[2.1.1]hexane-2,4'-oxan]-1-amine hydrochloride

> <CAS>
2241127-88-6

> <URL>
https://www.enaminestore.com/catalog/EN300-37375251

> <ROCS_ShapeQuery>
x1247relevant_x1083L0AP1_x1305L0BP1_

> <ROCS_TanimotoCombo>
0.828 

> <ROCS_ShapeTanimoto>
0.480 

> <ROCS_ColorTanimoto>
0.347 

> <ROCS_RefTversky>
0.403 

> <ROCS_RefColorTversky>
0.406 

> <ROCS_RefTverskyCombo>
0.809 

> <ROCS_FitTversky>
1.667 

> <ROCS_FitColorTversky>
0.707 

> <ROCS_FitTverskyCombo>
2.374 

> <ROCS_ColorScore>
-8.659

> <ROCS_Overlap>
1184.871

> <ROCS_Rank>
158                 

$$$$
untitled-dbase-42146_6
  -OEChem-06162310163D

 30 32  0     0  0  0  0  0  0999 V2000
  -10.5490   16.1782  -37.0614 C   0  0  0  0  0  0  0  0  0  0  0  0
  -10.5796   13.7221  -37.6585 C   0  0  0  0  0  0  0  0  0  0  0  0
  -13.0363   14.4574  -39.4785 C   0  0  0  0  0  0  0  0  0  0  0  0
  -12.9609   16.4737  -38.9613 C   0  0  0  0  0  0  0  0  0  0  0  0
   -9.5079   15.6469  -36.0770 C   0  0  0  0  0  0  0  0  0  0  0  0
  -10.1957   13.3802  -36.2157 C   0  0  0  0  0  0  0  0  0  0  0  0
  -11.8382   15.3997  -39.1304 C   0  0  0  0  0  0  0  0  0  0  0  0
  -11.3369   15.0435  -37.7306 C   0  0  0  0  0  0  0  0  0  0  0  0
  -13.5562   15.2199  -38.1867 C   0  0  0  0  0  0  0  0  0  0  0  0
  -14.9954   15.1669  -37.7748 C   0  0  0  0  0  0  0  0  0  0  0  0
  -10.9602   15.6542  -40.2420 N   0  0  0  0  0  0  0  0  0  0  0  0
  -10.0282   14.5239  -35.3770 O   0  0  0  0  0  0  0  0  0  0  0  0
  -12.6318   14.9043  -37.0932 O   0  0  0  0  0  0  0  0  0  0  0  0
  -11.2090   16.8692  -36.5208 H   0  0  0  0  0  0  0  0  0  0  0  0
  -10.0336   16.7617  -37.8389 H   0  0  0  0  0  0  0  0  0  0  0  0
   -9.6610   13.7973  -38.2551 H   0  0  0  0  0  0  0  0  0  0  0  0
  -11.1653   12.8871  -38.0586 H   0  0  0  0  0  0  0  0  0  0  0  0
  -13.5829   14.6385  -40.4128 H   0  0  0  0  0  0  0  0  0  0  0  0
  -12.8825   13.3809  -39.3705 H   0  0  0  0  0  0  0  0  0  0  0  0
  -12.7363   17.3509  -38.3500 H   0  0  0  0  0  0  0  0  0  0  0  0
  -13.5015   16.8024  -39.8576 H   0  0  0  0  0  0  0  0  0  0  0  0
   -8.6193   15.3214  -36.6216 H   0  0  0  0  0  0  0  0  0  0  0  0
   -9.2016   16.4177  -35.3648 H   0  0  0  0  0  0  0  0  0  0  0  0
  -10.9414   12.7001  -35.7567 H   0  0  0  0  0  0  0  0  0  0  0  0
   -9.2393   12.8245  -36.2116 H   0  0  0  0  0  0  0  0  0  0  0  0
  -15.1698   15.7515  -36.8606 H   0  0  0  0  0  0  0  0  0  0  0  0
  -15.3149   14.1344  -37.5758 H   0  0  0  0  0  0  0  0  0  0  0  0
  -15.6494   15.5726  -38.5594 H   0  0  0  0  0  0  0  0  0  0  0  0
  -10.9387   16.6355  -40.4313 H   0  0  0  0  0  0  0  0  0  0  0  0
  -10.0392   15.3372  -40.0172 H   0  0  0  0  0  0  0  0  0  0  0  0
  1  5  1  0  0  0  0
  1  8  1  0  0  0  0
  2  6  1  0  0  0  0
  2  8  1  0  0  0  0
  3  7  1  0  0  0  0
  3  9  1  0  0  0  0
  4  7  1  0  0  0  0
  4  9  1  0  0  0  0
  5 12  1  0  0  0  0
  6 12  1  0  0  0  0
  7  8  1  0  0  0  0
  7 11  1  1  0  0  0
  8 13  1  0  0  0  0
  9 10  1  1  0  0  0
  9 13  1  0  0  0  0
  1 14  1  0  0  0  0
  1 15  1  0  0  0  0
  2 16  1  0  0  0  0
  2 17  1  0  0  0  0
  3 18  1  0  0  0  0
  3 19  1  0  0  0  0
  4 20  1  0  0  0  0
  4 21  1  0  0  0  0
  5 22  1  0  0  0  0
  5 23  1  0  0  0  0
  6 24  1  0  0  0  0
  6 25  1  0  0  0  0
 10 26  1  0  0  0  0
 10 27  1  0  0  0  0
 10 28  1  0  0  0  0
 11 29  1  0  0  0  0
 11 30  1  0  0  0  0
M  END
> <id>
EN300-39870146

> <smiles>
C[C@]1(C[C@@]2(N)C1)OC32CCOCC3

> <IUPAC Name>
4-methyl-3-oxaspiro[bicyclo[2.1.1]hexane-2,4'-oxan]-1-amine

> <URL>
https://www.enaminestore.com/catalog/EN300-39870146

> <ROCS_ShapeQuery>
x1247relevant_x1083L0AP1_x1305L0BP1_

> <ROCS_TanimotoCombo>
0.828 

> <ROCS_ShapeTanimoto>
0.480 

> <ROCS_ColorTanimoto>
0.347 

> <ROCS_RefTversky>
0.403 

> <ROCS_RefColorTversky>
0.406 

> <ROCS_RefTverskyCombo>
0.809 

> <ROCS_FitTversky>
1.667 

> <ROCS_FitColorTversky>
0.707 

> <ROCS_FitTverskyCombo>
2.374 

> <ROCS_ColorScore>
-8.659

> <ROCS_Overlap>
1184.871

> <ROCS_Rank>
159                 

$$$$
untitled-dbase-36260_0
  -OEChem-06162310163D

 37 39  0     1  0  0  0  0  0999 V2000
  -12.9810   17.0101  -38.3505 C   0  0  0  0  0  0  0  0  0  0  0  0
  -13.9421   16.1724  -37.5035 C   0  0  0  0  0  0  0  0  0  0  0  0
  -11.1606   15.2762  -38.9250 C   0  0  0  0  0  0  0  0  0  0  0  0
  -12.7399   13.8881  -37.5100 C   0  0  0  0  0  0  0  0  0  0  0  0
   -8.9908   13.9322  -37.1958 C   0  0  0  0  0  0  0  0  0  0  0  0
   -9.9772   15.9864  -36.1758 C   0  0  0  0  0  0  0  0  0  0  0  0
  -12.4273   16.0299  -39.3821 C   0  0  1  0  0  0  0  0  0  0  0  0
  -13.8584   14.7709  -38.1035 C   0  0  2  0  0  0  0  0  0  0  0  0
   -8.9290   14.8801  -35.9813 C   0  0  0  0  0  0  0  0  0  0  0  0
  -11.3247   14.5317  -37.5693 C   0  0  0  0  0  0  0  0  0  0  0  0
   -9.2151   14.1125  -34.6747 C   0  0  0  0  0  0  0  0  0  0  0  0
   -7.5286   15.5047  -35.8853 C   0  0  0  0  0  0  0  0  0  0  0  0
  -10.3447   13.4350  -37.4422 N   0  0  0  0  0  0  0  0  0  0  0  0
  -13.5320   15.0703  -39.5032 N   0  0  0  0  0  0  0  0  0  0  0  0
  -11.2658   15.4384  -36.4505 O   0  0  0  0  0  0  0  0  0  0  0  0
  -13.5446   17.8094  -38.8477 H   0  0  0  0  0  0  0  0  0  0  0  0
  -12.2011   17.4881  -37.7508 H   0  0  0  0  0  0  0  0  0  0  0  0
  -13.6967   16.2000  -36.4378 H   0  0  0  0  0  0  0  0  0  0  0  0
  -14.9577   16.5733  -37.6133 H   0  0  0  0  0  0  0  0  0  0  0  0
  -10.9136   14.5499  -39.7125 H   0  0  0  0  0  0  0  0  0  0  0  0
  -10.3301   15.9885  -38.8931 H   0  0  0  0  0  0  0  0  0  0  0  0
  -12.9953   13.6477  -36.4694 H   0  0  0  0  0  0  0  0  0  0  0  0
  -12.7431   12.9400  -38.0670 H   0  0  0  0  0  0  0  0  0  0  0  0
   -8.6151   14.4377  -38.0944 H   0  0  0  0  0  0  0  0  0  0  0  0
   -8.3313   13.0716  -37.0314 H   0  0  0  0  0  0  0  0  0  0  0  0
  -10.0692   16.5937  -35.2680 H   0  0  0  0  0  0  0  0  0  0  0  0
   -9.6940   16.6764  -36.9776 H   0  0  0  0  0  0  0  0  0  0  0  0
  -12.2307   16.5258  -40.3384 H   0  0  0  0  0  0  0  0  0  0  0  0
  -14.8164   14.2462  -38.0256 H   0  0  0  0  0  0  0  0  0  0  0  0
   -9.1650   14.8025  -33.8404 H   0  0  0  0  0  0  0  0  0  0  0  0
   -8.4728   13.3324  -34.5525 H   0  0  0  0  0  0  0  0  0  0  0  0
  -10.2047   13.6740  -34.7311 H   0  0  0  0  0  0  0  0  0  0  0  0
   -7.4885   16.1716  -35.0290 H   0  0  0  0  0  0  0  0  0  0  0  0
   -7.3203   16.0653  -36.7919 H   0  0  0  0  0  0  0  0  0  0  0  0
   -6.7895   14.7176  -35.7672 H   0  0  0  0  0  0  0  0  0  0  0  0
  -10.3511   12.8559  -38.2811 H   0  0  0  0  0  0  0  0  0  0  0  0
  -14.3299   15.5339  -39.9397 H   0  0  0  0  0  0  0  0  0  0  0  0
  1  2  1  0  0  0  0
  1  7  1  0  0  0  0
  2  8  1  0  0  0  0
  3  7  1  0  0  0  0
  3 10  1  0  0  0  0
  4  8  1  0  0  0  0
  4 10  1  0  0  0  0
  5  9  1  0  0  0  0
  5 13  1  0  0  0  0
  6  9  1  0  0  0  0
  6 15  1  0  0  0  0
  7 14  1  0  0  0  0
  8 14  1  0  0  0  0
  9 11  1  0  0  0  0
  9 12  1  0  0  0  0
 10 13  1  0  0  0  0
 10 15  1  0  0  0  0
  1 16  1  0  0  0  0
  1 17  1  0  0  0  0
  2 18  1  0  0  0  0
  2 19  1  0  0  0  0
  3 20  1  0  0  0  0
  3 21  1  0  0  0  0
  4 22  1  0  0  0  0
  4 23  1  0  0  0  0
  5 24  1  0  0  0  0
  5 25  1  0  0  0  0
  6 26  1  0  0  0  0
  6 27  1  0  0  0  0
  7 28  1  0  0  0  0
  8 29  1  0  0  0  0
 11 30  1  0  0  0  0
 11 31  1  0  0  0  0
 11 32  1  0  0  0  0
 12 33  1  0  0  0  0
 12 34  1  0  0  0  0
 12 35  1  0  0  0  0
 13 36  1  0  0  0  0
 14 37  1  0  0  0  0
M  END
> <id>
EN300-1278593

> <smiles>
CC1(C)CNC2(CC3CCC(C2)N3)OC1

> <IUPAC Name>
5',5'-dimethyl-8-azaspiro[bicyclo[3.2.1]octane-3,2'-[1,3]oxazinane]

> <CAS>
2172179-23-4

> <URL>
https://www.enaminestore.com/catalog/EN300-1278593

> <ROCS_ShapeQuery>
x1247relevant_x1083L0AP1_x1305L0BP1_

> <ROCS_TanimotoCombo>
0.828 

> <ROCS_ShapeTanimoto>
0.501 

> <ROCS_ColorTanimoto>
0.326 

> <ROCS_RefTversky>
0.423 

> <ROCS_RefColorTversky>
0.398 

> <ROCS_RefTverskyCombo>
0.821 

> <ROCS_FitTversky>
1.581 

> <ROCS_FitColorTversky>
0.644 

> <ROCS_FitTverskyCombo>
2.224 

> <ROCS_ColorScore>
-8.516

> <ROCS_Overlap>
1246.901

> <ROCS_Rank>
160                 

$$$$
untitled-dbase-35815_5
  -OEChem-06162310163D

 30 32  0     0  0  0  0  0  0999 V2000
  -10.5588   16.1828  -37.0502 C   0  0  0  0  0  0  0  0  0  0  0  0
  -10.5716   13.7301  -37.6632 C   0  0  0  0  0  0  0  0  0  0  0  0
  -13.0313   14.4572  -39.4798 C   0  0  0  0  0  0  0  0  0  0  0  0
  -12.9656   16.4733  -38.9605 C   0  0  0  0  0  0  0  0  0  0  0  0
   -9.5145   15.6516  -36.0689 C   0  0  0  0  0  0  0  0  0  0  0  0
  -10.1894   13.3818  -36.2217 C   0  0  0  0  0  0  0  0  0  0  0  0
  -11.8378   15.4058  -39.1292 C   0  0  0  0  0  0  0  0  0  0  0  0
  -11.3372   15.0471  -37.7295 C   0  0  0  0  0  0  0  0  0  0  0  0
  -13.5564   15.2148  -38.1885 C   0  0  0  0  0  0  0  0  0  0  0  0
  -14.9960   15.1548  -37.7789 C   0  0  0  0  0  0  0  0  0  0  0  0
  -10.9609   15.6540  -40.2434 N   0  0  0  0  0  0  0  0  0  0  0  0
  -10.0276   14.5211  -35.3760 O   0  0  0  0  0  0  0  0  0  0  0  0
  -12.6326   14.8988  -37.0950 O   0  0  0  0  0  0  0  0  0  0  0  0
  -11.2247   16.8639  -36.5046 H   0  0  0  0  0  0  0  0  0  0  0  0
  -10.0470   16.7764  -37.8221 H   0  0  0  0  0  0  0  0  0  0  0  0
   -9.6517   13.8147  -38.2569 H   0  0  0  0  0  0  0  0  0  0  0  0
  -11.1508   12.8940  -38.0704 H   0  0  0  0  0  0  0  0  0  0  0  0
  -13.5766   14.6371  -40.4151 H   0  0  0  0  0  0  0  0  0  0  0  0
  -12.8722   13.3812  -39.3735 H   0  0  0  0  0  0  0  0  0  0  0  0
  -12.7462   17.3507  -38.3474 H   0  0  0  0  0  0  0  0  0  0  0  0
  -13.5071   16.8009  -39.8567 H   0  0  0  0  0  0  0  0  0  0  0  0
   -8.6238   15.3351  -36.6154 H   0  0  0  0  0  0  0  0  0  0  0  0
   -9.2129   16.4198  -35.3519 H   0  0  0  0  0  0  0  0  0  0  0  0
  -10.9336   12.6963  -35.7681 H   0  0  0  0  0  0  0  0  0  0  0  0
   -9.2310   12.8295  -36.2185 H   0  0  0  0  0  0  0  0  0  0  0  0
  -15.1745   15.7372  -36.8641 H   0  0  0  0  0  0  0  0  0  0  0  0
  -15.3113   14.1206  -37.5819 H   0  0  0  0  0  0  0  0  0  0  0  0
  -15.6507   15.5589  -38.5639 H   0  0  0  0  0  0  0  0  0  0  0  0
  -10.9415   16.6340  -40.4399 H   0  0  0  0  0  0  0  0  0  0  0  0
  -10.0390   15.3405  -40.0171 H   0  0  0  0  0  0  0  0  0  0  0  0
  1  5  1  0  0  0  0
  1  8  1  0  0  0  0
  2  6  1  0  0  0  0
  2  8  1  0  0  0  0
  3  7  1  0  0  0  0
  3  9  1  0  0  0  0
  4  7  1  0  0  0  0
  4  9  1  0  0  0  0
  5 12  1  0  0  0  0
  6 12  1  0  0  0  0
  7  8  1  0  0  0  0
  7 11  1  0  0  0  0
  8 13  1  0  0  0  0
  9 10  1  0  0  0  0
  9 13  1  0  0  0  0
  1 14  1  0  0  0  0
  1 15  1  0  0  0  0
  2 16  1  0  0  0  0
  2 17  1  0  0  0  0
  3 18  1  0  0  0  0
  3 19  1  0  0  0  0
  4 20  1  0  0  0  0
  4 21  1  0  0  0  0
  5 22  1  0  0  0  0
  5 23  1  0  0  0  0
  6 24  1  0  0  0  0
  6 25  1  0  0  0  0
 10 26  1  0  0  0  0
 10 27  1  0  0  0  0
 10 28  1  0  0  0  0
 11 29  1  0  0  0  0
 11 30  1  0  0  0  0
M  END
> <id>
EN300-6479150

> <smiles>
Cl.CC1(CC2(N)C1)OC32CCOCC3

> <MDLNUMBER>
MFCD31666974

> <IUPAC Name>
4-methyl-3-oxaspiro[bicyclo[2.1.1]hexane-2,4'-oxane]-1-amine hydrochloride

> <CAS>
2241127-88-6

> <Purity>
95

> <URL>
https://www.enaminestore.com/catalog/EN300-6479150

> <Saltdate>
Cl

> <ROCS_ShapeQuery>
x1247relevant_x1083L0AP1_x1305L0BP1_

> <ROCS_TanimotoCombo>
0.827 

> <ROCS_ShapeTanimoto>
0.480 

> <ROCS_ColorTanimoto>
0.347 

> <ROCS_RefTversky>
0.403 

> <ROCS_RefColorTversky>
0.406 

> <ROCS_RefTverskyCombo>
0.808 

> <ROCS_FitTversky>
1.667 

> <ROCS_FitColorTversky>
0.707 

> <ROCS_FitTverskyCombo>
2.374 

> <ROCS_ColorScore>
-8.657

> <ROCS_Overlap>
1184.658

> <ROCS_Rank>
161                 

$$$$
untitled-dbase-23462_5
  -OEChem-06162310163D

 30 32  0     0  0  0  0  0  0999 V2000
  -10.5588   16.1828  -37.0502 C   0  0  0  0  0  0  0  0  0  0  0  0
  -10.5716   13.7301  -37.6632 C   0  0  0  0  0  0  0  0  0  0  0  0
  -13.0313   14.4572  -39.4798 C   0  0  0  0  0  0  0  0  0  0  0  0
  -12.9656   16.4733  -38.9605 C   0  0  0  0  0  0  0  0  0  0  0  0
   -9.5145   15.6516  -36.0689 C   0  0  0  0  0  0  0  0  0  0  0  0
  -10.1894   13.3818  -36.2217 C   0  0  0  0  0  0  0  0  0  0  0  0
  -11.8378   15.4058  -39.1292 C   0  0  0  0  0  0  0  0  0  0  0  0
  -11.3372   15.0471  -37.7295 C   0  0  0  0  0  0  0  0  0  0  0  0
  -13.5564   15.2148  -38.1885 C   0  0  0  0  0  0  0  0  0  0  0  0
  -14.9960   15.1548  -37.7789 C   0  0  0  0  0  0  0  0  0  0  0  0
  -10.9609   15.6540  -40.2434 N   0  0  0  0  0  0  0  0  0  0  0  0
  -10.0276   14.5211  -35.3760 O   0  0  0  0  0  0  0  0  0  0  0  0
  -12.6326   14.8988  -37.0950 O   0  0  0  0  0  0  0  0  0  0  0  0
  -11.2247   16.8639  -36.5046 H   0  0  0  0  0  0  0  0  0  0  0  0
  -10.0470   16.7764  -37.8221 H   0  0  0  0  0  0  0  0  0  0  0  0
   -9.6517   13.8147  -38.2569 H   0  0  0  0  0  0  0  0  0  0  0  0
  -11.1508   12.8940  -38.0704 H   0  0  0  0  0  0  0  0  0  0  0  0
  -13.5766   14.6371  -40.4151 H   0  0  0  0  0  0  0  0  0  0  0  0
  -12.8722   13.3812  -39.3735 H   0  0  0  0  0  0  0  0  0  0  0  0
  -12.7462   17.3507  -38.3474 H   0  0  0  0  0  0  0  0  0  0  0  0
  -13.5071   16.8009  -39.8567 H   0  0  0  0  0  0  0  0  0  0  0  0
   -8.6238   15.3351  -36.6154 H   0  0  0  0  0  0  0  0  0  0  0  0
   -9.2129   16.4198  -35.3519 H   0  0  0  0  0  0  0  0  0  0  0  0
  -10.9336   12.6963  -35.7681 H   0  0  0  0  0  0  0  0  0  0  0  0
   -9.2310   12.8295  -36.2185 H   0  0  0  0  0  0  0  0  0  0  0  0
  -15.1745   15.7372  -36.8641 H   0  0  0  0  0  0  0  0  0  0  0  0
  -15.3113   14.1206  -37.5819 H   0  0  0  0  0  0  0  0  0  0  0  0
  -15.6507   15.5589  -38.5639 H   0  0  0  0  0  0  0  0  0  0  0  0
  -10.9415   16.6340  -40.4399 H   0  0  0  0  0  0  0  0  0  0  0  0
  -10.0390   15.3405  -40.0171 H   0  0  0  0  0  0  0  0  0  0  0  0
  1  5  1  0  0  0  0
  1  8  1  0  0  0  0
  2  6  1  0  0  0  0
  2  8  1  0  0  0  0
  3  7  1  0  0  0  0
  3  9  1  0  0  0  0
  4  7  1  0  0  0  0
  4  9  1  0  0  0  0
  5 12  1  0  0  0  0
  6 12  1  0  0  0  0
  7  8  1  0  0  0  0
  7 11  1  0  0  0  0
  8 13  1  0  0  0  0
  9 10  1  0  0  0  0
  9 13  1  0  0  0  0
  1 14  1  0  0  0  0
  1 15  1  0  0  0  0
  2 16  1  0  0  0  0
  2 17  1  0  0  0  0
  3 18  1  0  0  0  0
  3 19  1  0  0  0  0
  4 20  1  0  0  0  0
  4 21  1  0  0  0  0
  5 22  1  0  0  0  0
  5 23  1  0  0  0  0
  6 24  1  0  0  0  0
  6 25  1  0  0  0  0
 10 26  1  0  0  0  0
 10 27  1  0  0  0  0
 10 28  1  0  0  0  0
 11 29  1  0  0  0  0
 11 30  1  0  0  0  0
M  END
> <id>
EN300-6479151

> <smiles>
CC1(CC2(N)C1)OC32CCOCC3

> <MDLNUMBER>
MFCD31667643

> <IUPAC Name>
4-methyl-3-oxaspiro[bicyclo[2.1.1]hexane-2,4'-oxane]-1-amine

> <CAS>
2241127-87-5

> <URL>
https://www.enaminestore.com/catalog/EN300-6479151

> <ROCS_ShapeQuery>
x1247relevant_x1083L0AP1_x1305L0BP1_

> <ROCS_TanimotoCombo>
0.827 

> <ROCS_ShapeTanimoto>
0.480 

> <ROCS_ColorTanimoto>
0.347 

> <ROCS_RefTversky>
0.403 

> <ROCS_RefColorTversky>
0.406 

> <ROCS_RefTverskyCombo>
0.808 

> <ROCS_FitTversky>
1.667 

> <ROCS_FitColorTversky>
0.707 

> <ROCS_FitTverskyCombo>
2.374 

> <ROCS_ColorScore>
-8.657

> <ROCS_Overlap>
1184.658

> <ROCS_Rank>
162                 

$$$$
untitled-dbase-22817_0
  -OEChem-06162310163D

 29 31  0     1  0  0  0  0  0999 V2000
  -11.2240   16.3388  -37.5882 C   0  0  0  0  0  0  0  0  0  0  0  0
  -12.9037   14.8110  -36.5208 C   0  0  0  0  0  0  0  0  0  0  0  0
  -13.6691   16.6533  -38.0367 C   0  0  0  0  0  0  0  0  0  0  0  0
  -12.1594   15.7964  -39.8465 C   0  0  0  0  0  0  0  0  0  0  0  0
  -13.8447   14.2633  -38.7755 C   0  0  0  0  0  0  0  0  0  0  0  0
  -12.6321   16.2557  -36.9741 C   0  0  0  0  0  0  0  0  0  0  0  0
  -11.1114   15.3862  -38.7955 C   0  0  2  0  0  0  0  0  0  0  0  0
  -12.8030   13.8475  -37.7206 C   0  0  1  0  0  0  0  0  0  0  0  0
  -11.3987   13.9313  -38.3604 C   0  0  0  0  0  0  0  0  0  0  0  0
  -13.5739   15.7053  -39.2440 C   0  0  0  0  0  0  0  0  0  0  0  0
  -10.3700   13.4440  -37.4394 N   0  0  0  0  0  0  0  0  0  0  0  0
  -14.5397   16.0911  -40.2116 O   0  0  0  0  0  0  0  0  0  0  0  0
  -11.0200   17.3682  -37.9093 H   0  0  0  0  0  0  0  0  0  0  0  0
  -10.4689   16.0948  -36.8319 H   0  0  0  0  0  0  0  0  0  0  0  0
  -12.1954   14.5241  -35.7348 H   0  0  0  0  0  0  0  0  0  0  0  0
  -13.9049   14.7442  -36.0765 H   0  0  0  0  0  0  0  0  0  0  0  0
  -14.6816   16.6260  -37.6135 H   0  0  0  0  0  0  0  0  0  0  0  0
  -13.5108   17.6913  -38.3575 H   0  0  0  0  0  0  0  0  0  0  0  0
  -11.9666   16.8165  -40.2030 H   0  0  0  0  0  0  0  0  0  0  0  0
  -12.0840   15.1539  -40.7334 H   0  0  0  0  0  0  0  0  0  0  0  0
  -13.8177   13.5766  -39.6313 H   0  0  0  0  0  0  0  0  0  0  0  0
  -14.8597   14.1846  -38.3648 H   0  0  0  0  0  0  0  0  0  0  0  0
  -12.7031   16.9332  -36.1160 H   0  0  0  0  0  0  0  0  0  0  0  0
  -10.1094   15.4638  -39.2347 H   0  0  0  0  0  0  0  0  0  0  0  0
  -13.0125   12.8231  -37.3899 H   0  0  0  0  0  0  0  0  0  0  0  0
  -11.3720   13.2832  -39.2462 H   0  0  0  0  0  0  0  0  0  0  0  0
  -10.5868   12.5052  -37.2062 H   0  0  0  0  0  0  0  0  0  0  0  0
   -9.4943   13.5005  -37.9006 H   0  0  0  0  0  0  0  0  0  0  0  0
  -14.4525   15.4746  -40.9569 H   0  0  0  0  0  0  0  0  0  0  0  0
  1  6  1  0  0  0  0
  1  7  1  0  0  0  0
  2  6  1  0  0  0  0
  2  8  1  0  0  0  0
  3  6  1  0  0  0  0
  3 10  1  0  0  0  0
  4  7  1  0  0  0  0
  4 10  1  0  0  0  0
  5  8  1  0  0  0  0
  5 10  1  0  0  0  0
  7  9  1  0  0  0  0
  8  9  1  0  0  0  0
  9 11  1  0  0  0  0
 10 12  1  0  0  0  0
  1 13  1  0  0  0  0
  1 14  1  0  0  0  0
  2 15  1  0  0  0  0
  2 16  1  0  0  0  0
  3 17  1  0  0  0  0
  3 18  1  0  0  0  0
  4 19  1  0  0  0  0
  4 20  1  0  0  0  0
  5 21  1  0  0  0  0
  5 22  1  0  0  0  0
  6 23  1  0  0  0  0
  7 24  1  0  0  0  0
  8 25  1  0  0  0  0
  9 26  1  0  0  0  0
 11 27  1  0  0  0  0
 11 28  1  0  0  0  0
 12 29  1  0  0  0  0
M  END
> <id>
EN300-1695479

> <smiles>
Cl.NC1C2CC3CC1CC(O)(C3)C2

> <MDLNUMBER>
MFCD01825646

> <IUPAC Name>
4-aminoadamantan-1-ol hydrochloride

> <CAS>
20098-19-5

> <Purity>
95

> <URL>
https://www.enaminestore.com/catalog/EN300-1695479

> <Saltdate>
Cl

> <MP>
356-358

> <ROCS_ShapeQuery>
x1247relevant_x1083L0AP1_x1305L0BP1_

> <ROCS_TanimotoCombo>
0.827 

> <ROCS_ShapeTanimoto>
0.426 

> <ROCS_ColorTanimoto>
0.401 

> <ROCS_RefTversky>
0.366 

> <ROCS_RefColorTversky>
0.435 

> <ROCS_RefTverskyCombo>
0.801 

> <ROCS_FitTversky>
1.619 

> <ROCS_FitColorTversky>
0.839 

> <ROCS_FitTverskyCombo>
2.458 

> <ROCS_ColorScore>
-9.258

> <ROCS_Overlap>
1076.329

> <ROCS_Rank>
163                 

$$$$
untitled-dbase-31675_0
  -OEChem-06162310163D

 29 31  0     1  0  0  0  0  0999 V2000
  -11.2240   16.3388  -37.5882 C   0  0  0  0  0  0  0  0  0  0  0  0
  -12.9037   14.8110  -36.5208 C   0  0  0  0  0  0  0  0  0  0  0  0
  -13.6691   16.6533  -38.0367 C   0  0  0  0  0  0  0  0  0  0  0  0
  -12.1594   15.7964  -39.8465 C   0  0  0  0  0  0  0  0  0  0  0  0
  -13.8447   14.2633  -38.7755 C   0  0  0  0  0  0  0  0  0  0  0  0
  -12.6321   16.2557  -36.9741 C   0  0  0  0  0  0  0  0  0  0  0  0
  -11.1114   15.3862  -38.7955 C   0  0  2  0  0  0  0  0  0  0  0  0
  -12.8030   13.8475  -37.7206 C   0  0  1  0  0  0  0  0  0  0  0  0
  -11.3987   13.9313  -38.3604 C   0  0  0  0  0  0  0  0  0  0  0  0
  -13.5739   15.7053  -39.2440 C   0  0  0  0  0  0  0  0  0  0  0  0
  -10.3700   13.4440  -37.4394 N   0  0  0  0  0  0  0  0  0  0  0  0
  -14.5397   16.0911  -40.2116 O   0  0  0  0  0  0  0  0  0  0  0  0
  -11.0200   17.3682  -37.9093 H   0  0  0  0  0  0  0  0  0  0  0  0
  -10.4689   16.0948  -36.8319 H   0  0  0  0  0  0  0  0  0  0  0  0
  -12.1954   14.5241  -35.7348 H   0  0  0  0  0  0  0  0  0  0  0  0
  -13.9049   14.7442  -36.0765 H   0  0  0  0  0  0  0  0  0  0  0  0
  -14.6816   16.6260  -37.6135 H   0  0  0  0  0  0  0  0  0  0  0  0
  -13.5108   17.6913  -38.3575 H   0  0  0  0  0  0  0  0  0  0  0  0
  -11.9666   16.8165  -40.2030 H   0  0  0  0  0  0  0  0  0  0  0  0
  -12.0840   15.1539  -40.7334 H   0  0  0  0  0  0  0  0  0  0  0  0
  -13.8177   13.5766  -39.6313 H   0  0  0  0  0  0  0  0  0  0  0  0
  -14.8597   14.1846  -38.3648 H   0  0  0  0  0  0  0  0  0  0  0  0
  -12.7031   16.9332  -36.1160 H   0  0  0  0  0  0  0  0  0  0  0  0
  -10.1094   15.4638  -39.2347 H   0  0  0  0  0  0  0  0  0  0  0  0
  -13.0125   12.8231  -37.3899 H   0  0  0  0  0  0  0  0  0  0  0  0
  -11.3720   13.2832  -39.2462 H   0  0  0  0  0  0  0  0  0  0  0  0
  -10.5868   12.5052  -37.2062 H   0  0  0  0  0  0  0  0  0  0  0  0
   -9.4943   13.5005  -37.9006 H   0  0  0  0  0  0  0  0  0  0  0  0
  -14.4525   15.4746  -40.9569 H   0  0  0  0  0  0  0  0  0  0  0  0
  1  6  1  0  0  0  0
  1  7  1  0  0  0  0
  2  6  1  0  0  0  0
  2  8  1  0  0  0  0
  3  6  1  0  0  0  0
  3 10  1  0  0  0  0
  4  7  1  0  0  0  0
  4 10  1  0  0  0  0
  5  8  1  0  0  0  0
  5 10  1  0  0  0  0
  7  9  1  0  0  0  0
  8  9  1  0  0  0  0
  9 11  1  0  0  0  0
 10 12  1  0  0  0  0
  1 13  1  0  0  0  0
  1 14  1  0  0  0  0
  2 15  1  0  0  0  0
  2 16  1  0  0  0  0
  3 17  1  0  0  0  0
  3 18  1  0  0  0  0
  4 19  1  0  0  0  0
  4 20  1  0  0  0  0
  5 21  1  0  0  0  0
  5 22  1  0  0  0  0
  6 23  1  0  0  0  0
  7 24  1  0  0  0  0
  8 25  1  0  0  0  0
  9 26  1  0  0  0  0
 11 27  1  0  0  0  0
 11 28  1  0  0  0  0
 12 29  1  0  0  0  0
M  END
> <id>
EN300-1695480

> <smiles>
NC1C2CC3CC1CC(O)(C3)C2

> <MDLNUMBER>
MFCD01838554

> <IUPAC Name>
4-aminoadamantan-1-ol

> <CAS>
75375-89-2

> <URL>
https://www.enaminestore.com/catalog/EN300-1695480

> <ROCS_ShapeQuery>
x1247relevant_x1083L0AP1_x1305L0BP1_

> <ROCS_TanimotoCombo>
0.827 

> <ROCS_ShapeTanimoto>
0.426 

> <ROCS_ColorTanimoto>
0.401 

> <ROCS_RefTversky>
0.366 

> <ROCS_RefColorTversky>
0.435 

> <ROCS_RefTverskyCombo>
0.801 

> <ROCS_FitTversky>
1.619 

> <ROCS_FitColorTversky>
0.839 

> <ROCS_FitTverskyCombo>
2.458 

> <ROCS_ColorScore>
-9.258

> <ROCS_Overlap>
1076.329

> <ROCS_Rank>
164                 

$$$$
untitled-dbase-34861_3
  -OEChem-06162310163D

 29 31  0     1  0  0  0  0  0999 V2000
  -10.4719   13.3922  -37.7584 C   0  0  0  0  0  0  0  0  0  0  0  0
   -9.3754   13.8454  -37.0192 C   0  0  0  0  0  0  0  0  0  0  0  0
  -10.2511   16.1311  -36.9574 C   0  0  0  0  0  0  0  0  0  0  0  0
  -11.4318   14.3213  -38.0880 C   0  0  0  0  0  0  0  0  0  0  0  0
  -11.3225   15.6771  -37.6917 C   0  0  0  0  0  0  0  0  0  0  0  0
   -9.2665   15.1964  -36.6241 C   0  0  0  0  0  0  0  0  0  0  0  0
  -13.0752   16.0063  -40.6621 C   0  0  0  0  0  0  0  0  0  0  0  0
  -13.8614   14.3451  -37.7815 C   0  0  0  0  0  0  0  0  0  0  0  0
  -13.7404   15.8518  -37.3414 C   0  0  0  0  0  0  0  0  0  0  0  0
  -12.7413   14.2074  -38.8373 C   0  0  1  0  0  0  0  0  0  0  0  0
  -12.5672   16.3655  -38.2054 C   0  0  2  0  0  0  0  0  0  0  0  0
  -14.0160   15.1396  -41.4557 C   0  0  0  0  0  0  0  0  0  0  0  0
  -12.7973   15.5572  -39.3979 N   0  0  0  0  0  0  0  0  0  0  0  0
   -8.1419   15.6083  -35.8727 N   0  0  0  0  0  0  0  0  0  0  0  0
  -12.6066   17.0362  -41.1473 O   0  0  0  0  0  0  0  0  0  0  0  0
  -14.3996   14.0705  -40.7339 F   0  0  0  0  0  0  0  0  0  0  0  0
  -15.1185   15.8282  -41.8044 F   0  0  0  0  0  0  0  0  0  0  0  0
  -13.4250   14.6964  -42.5808 F   0  0  0  0  0  0  0  0  0  0  0  0
  -10.5575   12.3535  -38.0541 H   0  0  0  0  0  0  0  0  0  0  0  0
   -8.5974   13.1364  -36.7434 H   0  0  0  0  0  0  0  0  0  0  0  0
  -10.1792   17.1687  -36.6510 H   0  0  0  0  0  0  0  0  0  0  0  0
  -13.7349   13.6709  -36.9275 H   0  0  0  0  0  0  0  0  0  0  0  0
  -14.8474   14.1710  -38.2268 H   0  0  0  0  0  0  0  0  0  0  0  0
  -14.6696   16.3805  -37.5822 H   0  0  0  0  0  0  0  0  0  0  0  0
  -13.5535   15.9366  -36.2656 H   0  0  0  0  0  0  0  0  0  0  0  0
  -12.8248   13.4013  -39.5645 H   0  0  0  0  0  0  0  0  0  0  0  0
  -12.4948   17.4429  -38.3628 H   0  0  0  0  0  0  0  0  0  0  0  0
   -7.4684   14.9258  -35.5949 H   0  0  0  0  0  0  0  0  0  0  0  0
   -8.0916   16.5534  -35.5550 H   0  0  0  0  0  0  0  0  0  0  0  0
  1  2  1  0  0  0  0
  1  4  2  0  0  0  0
  2  6  2  0  0  0  0
  3  5  2  0  0  0  0
  3  6  1  0  0  0  0
  4  5  1  0  0  0  0
  4 10  1  0  0  0  0
  5 11  1  0  0  0  0
  6 14  1  0  0  0  0
  7 12  1  0  0  0  0
  7 13  1  0  0  0  0
  7 15  2  0  0  0  0
  8  9  1  0  0  0  0
  8 10  1  0  0  0  0
  9 11  1  0  0  0  0
 10 13  1  0  0  0  0
 11 13  1  0  0  0  0
 12 16  1  0  0  0  0
 12 17  1  0  0  0  0
 12 18  1  0  0  0  0
  1 19  1  0  0  0  0
  2 20  1  0  0  0  0
  3 21  1  0  0  0  0
  8 22  1  0  0  0  0
  8 23  1  0  0  0  0
  9 24  1  0  0  0  0
  9 25  1  0  0  0  0
 10 26  1  0  0  0  0
 11 27  1  0  0  0  0
 14 28  1  0  0  0  0
 14 29  1  0  0  0  0
M  END
> <id>
EN300-3119278

> <smiles>
NC=1C=CC=2C3CCC(N3C(=O)C(F)(F)F)C2C1

> <MDLNUMBER>
MFCD30679756

> <IUPAC Name>
1-{4-amino-11-azatricyclo[6.2.1.0,2,7]undeca-2,4,6-trien-11-yl}-2,2,2-trifluoroethan-1-one

> <CAS>
942491-79-4

> <Purity>
95

> <URL>
https://www.enaminestore.com/catalog/EN300-3119278

> <ROCS_ShapeQuery>
x1247relevant_x1083L0AP1_x1305L0BP1_

> <ROCS_TanimotoCombo>
0.827 

> <ROCS_ShapeTanimoto>
0.511 

> <ROCS_ColorTanimoto>
0.317 

> <ROCS_RefTversky>
0.448 

> <ROCS_RefColorTversky>
0.365 

> <ROCS_RefTverskyCombo>
0.813 

> <ROCS_FitTversky>
1.376 

> <ROCS_FitColorTversky>
0.705 

> <ROCS_FitTverskyCombo>
2.081 

> <ROCS_ColorScore>
-7.771

> <ROCS_Overlap>
1323.738

> <ROCS_Rank>
165                 

$$$$
untitled-dbase-39980_0
  -OEChem-06162310163D

 32 35  0     1  0  0  0  0  0999 V2000
   -8.1567   16.6752  -36.0215 C   0  0  0  0  0  0  0  0  0  0  0  0
   -8.4392   17.8304  -36.7118 C   0  0  0  0  0  0  0  0  0  0  0  0
   -9.0513   15.6181  -36.3612 C   0  0  0  0  0  0  0  0  0  0  0  0
   -9.9947   16.0038  -37.3045 C   0  0  0  0  0  0  0  0  0  0  0  0
   -9.0065   14.2250  -35.8196 C   0  0  0  0  0  0  0  0  0  0  0  0
  -13.6978   14.3061  -39.0003 C   0  0  0  0  0  0  0  0  0  0  0  0
  -13.5147   14.2814  -37.4756 C   0  0  0  0  0  0  0  0  0  0  0  0
  -13.0602   16.4585  -38.2224 C   0  0  0  0  0  0  0  0  0  0  0  0
  -11.3730   15.2015  -39.3567 C   0  0  0  0  0  0  0  0  0  0  0  0
  -10.2982   13.4658  -36.1392 C   0  0  0  0  0  0  0  0  0  0  0  0
  -12.8794   15.5379  -39.4249 C   0  0  1  0  0  0  0  0  0  0  0  0
  -12.5032   15.4265  -37.2302 C   0  0  2  0  0  0  0  0  0  0  0  0
  -11.0938   15.0728  -37.8299 C   0  0  2  0  0  0  0  0  0  0  0  0
  -10.7048   13.6671  -37.5369 N   0  0  0  0  0  0  0  0  0  0  0  0
   -9.7698   17.6363  -37.7630 S   0  0  0  0  0  0  0  0  0  0  0  0
   -7.3443   16.5914  -35.3109 H   0  0  0  0  0  0  0  0  0  0  0  0
   -7.9232   18.7782  -36.6501 H   0  0  0  0  0  0  0  0  0  0  0  0
   -8.1520   13.7035  -36.2694 H   0  0  0  0  0  0  0  0  0  0  0  0
   -8.8486   14.2425  -34.7352 H   0  0  0  0  0  0  0  0  0  0  0  0
  -13.3433   13.3854  -39.4746 H   0  0  0  0  0  0  0  0  0  0  0  0
  -14.7572   14.4325  -39.2490 H   0  0  0  0  0  0  0  0  0  0  0  0
  -14.4686   14.5077  -36.9833 H   0  0  0  0  0  0  0  0  0  0  0  0
  -13.1891   13.3042  -37.1100 H   0  0  0  0  0  0  0  0  0  0  0  0
  -12.4899   17.3844  -38.2955 H   0  0  0  0  0  0  0  0  0  0  0  0
  -14.1090   16.7140  -38.0328 H   0  0  0  0  0  0  0  0  0  0  0  0
  -11.1585   14.2820  -39.9148 H   0  0  0  0  0  0  0  0  0  0  0  0
  -10.7873   15.9951  -39.8315 H   0  0  0  0  0  0  0  0  0  0  0  0
  -10.1420   12.3955  -35.9629 H   0  0  0  0  0  0  0  0  0  0  0  0
  -11.1033   13.7745  -35.4616 H   0  0  0  0  0  0  0  0  0  0  0  0
  -13.1869   15.9530  -40.3868 H   0  0  0  0  0  0  0  0  0  0  0  0
  -12.4839   15.7606  -36.1892 H   0  0  0  0  0  0  0  0  0  0  0  0
   -9.9331   13.3975  -38.1481 H   0  0  0  0  0  0  0  0  0  0  0  0
  1  2  2  0  0  0  0
  1  3  1  0  0  0  0
  2 15  1  0  0  0  0
  3  4  2  0  0  0  0
  3  5  1  0  0  0  0
  4 13  1  0  0  0  0
  4 15  1  0  0  0  0
  5 10  1  0  0  0  0
  6  7  1  0  0  0  0
  6 11  1  0  0  0  0
  7 12  1  0  0  0  0
  8 11  1  0  0  0  0
  8 12  1  0  0  0  0
  9 11  1  0  0  0  0
  9 13  1  0  0  0  0
 10 14  1  0  0  0  0
 12 13  1  0  0  0  0
 13 14  1  0  0  0  0
  1 16  1  0  0  0  0
  2 17  1  0  0  0  0
  5 18  1  0  0  0  0
  5 19  1  0  0  0  0
  6 20  1  0  0  0  0
  6 21  1  0  0  0  0
  7 22  1  0  0  0  0
  7 23  1  0  0  0  0
  8 24  1  0  0  0  0
  8 25  1  0  0  0  0
  9 26  1  0  0  0  0
  9 27  1  0  0  0  0
 10 28  1  0  0  0  0
 10 29  1  0  0  0  0
 11 30  1  0  0  0  0
 12 31  1  0  0  0  0
 14 32  1  0  0  0  0
M  END
> <id>
EN300-1075718

> <smiles>
C1CC2CC1CC32NCCC=4C=CSC43

> <IUPAC Name>
5',6'-dihydro-4'H-spiro[bicyclo[2.2.1]heptane-2,7'-thieno[2,3-c]pyridine]

> <CAS>
2137617-66-2

> <URL>
https://www.enaminestore.com/catalog/EN300-1075718

> <ROCS_ShapeQuery>
x1247relevant_x1083L0AP1_x1305L0BP1_

> <ROCS_TanimotoCombo>
0.827 

> <ROCS_ShapeTanimoto>
0.452 

> <ROCS_ColorTanimoto>
0.375 

> <ROCS_RefTversky>
0.395 

> <ROCS_RefColorTversky>
0.412 

> <ROCS_RefTverskyCombo>
0.808 

> <ROCS_FitTversky>
1.465 

> <ROCS_FitColorTversky>
0.807 

> <ROCS_FitTverskyCombo>
2.272 

> <ROCS_ColorScore>
-8.768

> <ROCS_Overlap>
1164.626

> <ROCS_Rank>
166                 

$$$$
untitled-dbase-53057_9
  -OEChem-06162310163D

 27 29  0     1  0  0  0  0  0999 V2000
  -12.7994   16.0838  -39.5559 C   0  0  0  0  0  0  0  0  0  0  0  0
  -13.8913   16.0004  -38.5077 C   0  0  0  0  0  0  0  0  0  0  0  0
  -12.6643   13.9692  -38.6809 C   0  0  0  0  0  0  0  0  0  0  0  0
  -11.4049   14.5308  -35.8381 C   0  0  0  0  0  0  0  0  0  0  0  0
  -11.7367   15.0433  -39.2453 C   0  0  2  0  0  0  0  0  0  0  0  0
  -13.2751   14.8883  -37.6225 C   0  0  1  0  0  0  0  0  0  0  0  0
  -12.0286   15.4541  -36.8898 C   0  0  2  0  0  0  0  0  0  0  0  0
  -10.9875   15.6175  -38.0264 C   0  0  1  0  0  0  0  0  0  0  0  0
  -10.1243   13.9462  -36.4311 C   0  0  2  0  0  0  0  0  0  0  0  0
   -9.7318   14.8638  -37.5844 C   0  0  2  0  0  0  0  0  0  0  0  0
  -12.7632   16.8830  -40.4777 O   0  0  0  0  0  0  0  0  0  0  0  0
  -10.3375   12.6263  -36.9070 O   0  0  0  0  0  0  0  0  0  0  0  0
   -8.7784   15.8142  -37.1044 O   0  0  0  0  0  0  0  0  0  0  0  0
  -14.0105   16.9458  -37.9774 H   0  0  0  0  0  0  0  0  0  0  0  0
  -14.8234   15.6749  -38.9746 H   0  0  0  0  0  0  0  0  0  0  0  0
  -13.4052   13.6127  -39.4072 H   0  0  0  0  0  0  0  0  0  0  0  0
  -12.1337   13.1072  -38.2655 H   0  0  0  0  0  0  0  0  0  0  0  0
  -11.1915   15.0784  -34.8958 H   0  0  0  0  0  0  0  0  0  0  0  0
  -12.0988   13.7183  -35.5301 H   0  0  0  0  0  0  0  0  0  0  0  0
  -11.1388   14.7618  -40.1117 H   0  0  0  0  0  0  0  0  0  0  0  0
  -14.0050   14.4190  -36.9577 H   0  0  0  0  0  0  0  0  0  0  0  0
  -12.2567   16.4337  -36.4282 H   0  0  0  0  0  0  0  0  0  0  0  0
  -10.7643   16.6971  -38.1865 H   0  0  0  0  0  0  0  0  0  0  0  0
   -9.3179   13.8949  -35.6698 H   0  0  0  0  0  0  0  0  0  0  0  0
   -9.2437   14.3160  -38.3992 H   0  0  0  0  0  0  0  0  0  0  0  0
  -10.6242   12.0919  -36.1469 H   0  0  0  0  0  0  0  0  0  0  0  0
   -7.9931   15.3122  -36.8308 H   0  0  0  0  0  0  0  0  0  0  0  0
  1  2  1  0  0  0  0
  1  5  1  0  0  0  0
  1 11  2  0  0  0  0
  2  6  1  0  0  0  0
  3  5  1  0  0  0  0
  3  6  1  0  0  0  0
  4  7  1  0  0  0  0
  4  9  1  0  0  0  0
  5  8  1  0  0  0  0
  6  7  1  0  0  0  0
  7  8  1  0  0  0  0
  8 10  1  0  0  0  0
  9 10  1  0  0  0  0
  9 12  1  0  0  0  0
 10 13  1  0  0  0  0
  2 14  1  0  0  0  0
  2 15  1  0  0  0  0
  3 16  1  0  0  0  0
  3 17  1  0  0  0  0
  4 18  1  0  0  0  0
  4 19  1  0  0  0  0
  5 20  1  0  0  0  0
  6 21  1  0  0  0  0
  7 22  1  0  0  0  0
  8 23  1  0  0  0  0
  9 24  1  0  0  0  0
 10 25  1  0  0  0  0
 12 26  1  0  0  0  0
 13 27  1  0  0  0  0
M  END
> <id>
EN300-8347325

> <smiles>
OC1CC2C3CC(C2C1O)C(=O)C3

> <MDLNUMBER>
MFCD30301002

> <IUPAC Name>
4,5-dihydroxytricyclo[5.2.1.0,2,6]decan-8-one

> <CAS>
1823924-13-5

> <URL>
https://www.enaminestore.com/catalog/EN300-8347325

> <ROCS_ShapeQuery>
x1247relevant_x1083L0AP1_x1305L0BP1_

> <ROCS_TanimotoCombo>
0.827 

> <ROCS_ShapeTanimoto>
0.487 

> <ROCS_ColorTanimoto>
0.340 

> <ROCS_RefTversky>
0.407 

> <ROCS_RefColorTversky>
0.407 

> <ROCS_RefTverskyCombo>
0.814 

> <ROCS_FitTversky>
1.679 

> <ROCS_FitColorTversky>
0.673 

> <ROCS_FitTverskyCombo>
2.352 

> <ROCS_ColorScore>
-8.701

> <ROCS_Overlap>
1196.989

> <ROCS_Rank>
167                 

$$$$
untitled-dbase-36951_0
  -OEChem-06162310163D

 25 27  0     1  0  0  0  0  0999 V2000
  -12.6955   16.1629  -39.6326 C   0  0  0  0  0  0  0  0  0  0  0  0
   -9.9192   14.8898  -37.3390 C   0  0  0  0  0  0  0  0  0  0  0  0
  -11.2895   13.0390  -37.1321 C   0  0  0  0  0  0  0  0  0  0  0  0
  -13.6274   14.9634  -39.5490 C   0  0  0  0  0  0  0  0  0  0  0  0
  -12.5861   16.3842  -37.2074 C   0  0  0  0  0  0  0  0  0  0  0  0
  -13.4741   15.1385  -37.0613 C   0  0  0  0  0  0  0  0  0  0  0  0
  -11.7179   16.2831  -38.4711 C   0  0  1  0  0  0  0  0  0  0  0  0
  -10.8832   14.9948  -38.4950 C   0  0  2  0  0  0  0  0  0  0  0  0
  -11.7948   13.7584  -38.3588 C   0  0  2  0  0  0  0  0  0  0  0  0
  -13.2728   14.1890  -38.2611 C   0  0  2  0  0  0  0  0  0  0  0  0
  -10.2161   13.7431  -36.6438 N   0  0  0  0  0  0  0  0  0  0  0  0
  -12.7305   16.9648  -40.5609 O   0  0  0  0  0  0  0  0  0  0  0  0
   -9.0415   15.7001  -37.0804 O   0  0  0  0  0  0  0  0  0  0  0  0
  -11.7712   12.0160  -36.6682 O   0  0  0  0  0  0  0  0  0  0  0  0
  -14.6620   15.3191  -39.5182 H   0  0  0  0  0  0  0  0  0  0  0  0
  -13.4796   14.3365  -40.4338 H   0  0  0  0  0  0  0  0  0  0  0  0
  -13.2239   17.2757  -37.2621 H   0  0  0  0  0  0  0  0  0  0  0  0
  -11.9613   16.5039  -36.3149 H   0  0  0  0  0  0  0  0  0  0  0  0
  -13.2484   14.6276  -36.1183 H   0  0  0  0  0  0  0  0  0  0  0  0
  -14.5260   15.4434  -36.9975 H   0  0  0  0  0  0  0  0  0  0  0  0
  -11.0944   17.1749  -38.5884 H   0  0  0  0  0  0  0  0  0  0  0  0
  -10.3073   14.9264  -39.4267 H   0  0  0  0  0  0  0  0  0  0  0  0
  -11.6488   13.0916  -39.2180 H   0  0  0  0  0  0  0  0  0  0  0  0
  -13.9227   13.3138  -38.1521 H   0  0  0  0  0  0  0  0  0  0  0  0
   -9.6852   13.4405  -35.8345 H   0  0  0  0  0  0  0  0  0  0  0  0
  1  4  1  0  0  0  0
  1  7  1  0  0  0  0
  1 12  2  0  0  0  0
  2  8  1  0  0  0  0
  2 11  1  0  0  0  0
  2 13  2  0  0  0  0
  3  9  1  0  0  0  0
  3 11  1  0  0  0  0
  3 14  2  0  0  0  0
  4 10  1  0  0  0  0
  5  6  1  0  0  0  0
  5  7  1  0  0  0  0
  6 10  1  0  0  0  0
  7  8  1  0  0  0  0
  8  9  1  0  0  0  0
  9 10  1  0  0  0  0
  4 15  1  0  0  0  0
  4 16  1  0  0  0  0
  5 17  1  0  0  0  0
  5 18  1  0  0  0  0
  6 19  1  0  0  0  0
  6 20  1  0  0  0  0
  7 21  1  0  0  0  0
  8 22  1  0  0  0  0
  9 23  1  0  0  0  0
 10 24  1  0  0  0  0
 11 25  1  0  0  0  0
M  END
> <id>
EN300-8649843

> <smiles>
O=C1NC(=O)C2C1C3CCC2C(=O)C3

> <MDLNUMBER>
MFCD20730034

> <IUPAC Name>
4-azatricyclo[5.2.2.0,2,6]undecane-3,5,8-trione

> <CAS>
1379302-40-5

> <URL>
https://www.enaminestore.com/catalog/EN300-8649843

> <ROCS_ShapeQuery>
x1247relevant_x1083L0AP1_x1305L0BP1_

> <ROCS_TanimotoCombo>
0.827 

> <ROCS_ShapeTanimoto>
0.488 

> <ROCS_ColorTanimoto>
0.339 

> <ROCS_RefTversky>
0.413 

> <ROCS_RefColorTversky>
0.392 

> <ROCS_RefTverskyCombo>
0.805 

> <ROCS_FitTversky>
1.584 

> <ROCS_FitColorTversky>
0.717 

> <ROCS_FitTverskyCombo>
2.302 

> <ROCS_ColorScore>
-8.346

> <ROCS_Overlap>
1216.798

> <ROCS_Rank>
168                 

$$$$
untitled-dbase-35096_1
  -OEChem-06162310163D

 27 29  0     1  0  0  0  0  0999 V2000
  -13.3200   16.4714  -39.3164 C   0  0  0  0  0  0  0  0  0  0  0  0
  -14.1935   15.9222  -38.1953 C   0  0  0  0  0  0  0  0  0  0  0  0
   -9.9791   15.3689  -36.2095 C   0  0  0  0  0  0  0  0  0  0  0  0
  -10.9925   15.7283  -38.5960 C   0  0  0  0  0  0  0  0  0  0  0  0
  -12.4676   14.8107  -36.6891 C   0  0  0  0  0  0  0  0  0  0  0  0
   -9.1293   14.2362  -36.7973 C   0  0  0  0  0  0  0  0  0  0  0  0
  -12.2147   15.4272  -39.4884 C   0  0  1  0  0  0  0  0  0  0  0  0
  -13.5220   14.6063  -37.7965 C   0  0  2  0  0  0  0  0  0  0  0  0
  -11.0496   14.9641  -37.2598 C   0  0  0  0  0  0  0  0  0  0  0  0
  -10.3630   13.6377  -37.3384 N   0  0  0  0  0  0  0  0  0  0  0  0
  -12.8775   14.1864  -39.0525 N   0  0  0  0  0  0  0  0  0  0  0  0
  -13.9148   16.5458  -40.2357 H   0  0  0  0  0  0  0  0  0  0  0  0
  -12.9324   17.4708  -39.1006 H   0  0  0  0  0  0  0  0  0  0  0  0
  -14.2882   16.6215  -37.3586 H   0  0  0  0  0  0  0  0  0  0  0  0
  -15.2033   15.7329  -38.5806 H   0  0  0  0  0  0  0  0  0  0  0  0
  -10.2651   15.2002  -35.1625 H   0  0  0  0  0  0  0  0  0  0  0  0
   -9.5351   16.3656  -36.2905 H   0  0  0  0  0  0  0  0  0  0  0  0
  -10.0874   15.4392  -39.1520 H   0  0  0  0  0  0  0  0  0  0  0  0
  -10.9213   16.8123  -38.4286 H   0  0  0  0  0  0  0  0  0  0  0  0
  -12.7424   15.6822  -36.0758 H   0  0  0  0  0  0  0  0  0  0  0  0
  -12.5074   13.9389  -36.0157 H   0  0  0  0  0  0  0  0  0  0  0  0
   -8.4198   14.5586  -37.5679 H   0  0  0  0  0  0  0  0  0  0  0  0
   -8.6010   13.6150  -36.0693 H   0  0  0  0  0  0  0  0  0  0  0  0
  -11.8917   15.3658  -40.5314 H   0  0  0  0  0  0  0  0  0  0  0  0
  -14.2626   13.8735  -37.4613 H   0  0  0  0  0  0  0  0  0  0  0  0
  -10.2731   13.2425  -38.2712 H   0  0  0  0  0  0  0  0  0  0  0  0
  -13.5971   13.9420  -39.7284 H   0  0  0  0  0  0  0  0  0  0  0  0
  1  2  1  0  0  0  0
  1  7  1  0  0  0  0
  2  8  1  0  0  0  0
  3  6  1  0  0  0  0
  3  9  1  0  0  0  0
  4  7  1  0  0  0  0
  4  9  1  0  0  0  0
  5  8  1  0  0  0  0
  5  9  1  0  0  0  0
  6 10  1  0  0  0  0
  7 11  1  0  0  0  0
  8 11  1  0  0  0  0
  9 10  1  0  0  0  0
  1 12  1  0  0  0  0
  1 13  1  0  0  0  0
  2 14  1  0  0  0  0
  2 15  1  0  0  0  0
  3 16  1  0  0  0  0
  3 17  1  0  0  0  0
  4 18  1  0  0  0  0
  4 19  1  0  0  0  0
  5 20  1  0  0  0  0
  5 21  1  0  0  0  0
  6 22  1  0  0  0  0
  6 23  1  0  0  0  0
  7 24  1  0  0  0  0
  8 25  1  0  0  0  0
 10 26  1  0  0  0  0
 11 27  1  0  0  0  0
M  END
> <id>
EN300-1297155

> <smiles>
C1CC2(CC3CCC(C2)N3)N1

> <IUPAC Name>
8'-azaspiro[azetidine-2,3'-bicyclo[3.2.1]octane]

> <CAS>
2167238-53-9

> <URL>
https://www.enaminestore.com/catalog/EN300-1297155

> <ROCS_ShapeQuery>
x1247relevant_x1083L0AP1_x1305L0BP1_

> <ROCS_TanimotoCombo>
0.827 

> <ROCS_ShapeTanimoto>
0.455 

> <ROCS_ColorTanimoto>
0.372 

> <ROCS_RefTversky>
0.379 

> <ROCS_RefColorTversky>
0.416 

> <ROCS_RefTverskyCombo>
0.795 

> <ROCS_FitTversky>
1.791 

> <ROCS_FitColorTversky>
0.780 

> <ROCS_FitTverskyCombo>
2.570 

> <ROCS_ColorScore>
-8.862

> <ROCS_Overlap>
1111.551

> <ROCS_Rank>
169                 

$$$$
untitled-dbase-42171_0
  -OEChem-06162310163D

 23 26  0     0  0  0  0  0  0999 V2000
  -11.5212   13.2671  -36.9533 C   0  0  0  0  0  0  0  0  0  0  0  0
  -10.1634   15.0892  -37.2158 C   0  0  0  0  0  0  0  0  0  0  0  0
  -12.7918   13.8871  -39.1631 C   0  0  0  0  0  0  0  0  0  0  0  0
  -11.4258   15.7186  -39.4277 C   0  0  0  0  0  0  0  0  0  0  0  0
  -13.6359   14.8000  -37.2010 C   0  0  0  0  0  0  0  0  0  0  0  0
  -12.2704   16.6318  -37.4659 C   0  0  0  0  0  0  0  0  0  0  0  0
  -12.9209   15.3791  -39.4980 C   0  0  0  0  0  0  0  0  0  0  0  0
  -13.5105   16.0165  -38.1281 C   0  0  0  0  0  0  0  0  0  0  0  0
  -12.3457   14.2109  -37.7469 C   0  0  0  0  0  0  0  0  0  0  0  0
  -11.4073   15.4697  -37.9287 C   0  0  0  0  0  0  0  0  0  0  0  0
  -11.8662   12.1554  -36.5850 O   0  0  0  0  0  0  0  0  0  0  0  0
   -9.1641   15.7823  -37.1069 O   0  0  0  0  0  0  0  0  0  0  0  0
  -10.3004   13.8311  -36.6902 O   0  0  0  0  0  0  0  0  0  0  0  0
  -13.7424   13.3465  -39.2234 H   0  0  0  0  0  0  0  0  0  0  0  0
  -12.0501   13.3391  -39.7543 H   0  0  0  0  0  0  0  0  0  0  0  0
  -10.7700   15.0560  -40.0025 H   0  0  0  0  0  0  0  0  0  0  0  0
  -11.2036   16.7516  -39.7154 H   0  0  0  0  0  0  0  0  0  0  0  0
  -13.6093   15.0256  -36.1297 H   0  0  0  0  0  0  0  0  0  0  0  0
  -14.5271   14.1952  -37.3990 H   0  0  0  0  0  0  0  0  0  0  0  0
  -11.9884   17.6005  -37.8918 H   0  0  0  0  0  0  0  0  0  0  0  0
  -12.3290   16.7422  -36.3778 H   0  0  0  0  0  0  0  0  0  0  0  0
  -13.4374   15.6304  -40.4238 H   0  0  0  0  0  0  0  0  0  0  0  0
  -14.3871   16.6572  -38.2179 H   0  0  0  0  0  0  0  0  0  0  0  0
  1  9  1  0  0  0  0
  1 11  2  0  0  0  0
  1 13  1  0  0  0  0
  2 10  1  0  0  0  0
  2 12  2  0  0  0  0
  2 13  1  0  0  0  0
  3  7  1  0  0  0  0
  3  9  1  0  0  0  0
  4  7  1  0  0  0  0
  4 10  1  0  0  0  0
  5  8  1  0  0  0  0
  5  9  1  0  0  0  0
  6  8  1  0  0  0  0
  6 10  1  0  0  0  0
  7  8  1  0  0  0  0
  9 10  1  0  0  0  0
  3 14  1  0  0  0  0
  3 15  1  0  0  0  0
  4 16  1  0  0  0  0
  4 17  1  0  0  0  0
  5 18  1  0  0  0  0
  5 19  1  0  0  0  0
  6 20  1  0  0  0  0
  6 21  1  0  0  0  0
  7 22  1  0  0  0  0
  8 23  1  0  0  0  0
M  END
> <id>
EN300-26865952

> <smiles>
O=C1OC(=O)C23CC4CC31CC4C2

> <MDLNUMBER>
MFCD32691891

> <IUPAC Name>
3-oxatetracyclo[5.2.1.1^{5,8}.0^{1,5}]undecane-2,4-dione

> <CAS>
2445793-20-2

> <Purity>
95

> <URL>
https://www.enaminestore.com/catalog/EN300-26865952

> <ROCS_ShapeQuery>
x1247relevant_x1083L0AP1_x1305L0BP1_

> <ROCS_TanimotoCombo>
0.827 

> <ROCS_ShapeTanimoto>
0.485 

> <ROCS_ColorTanimoto>
0.341 

> <ROCS_RefTversky>
0.411 

> <ROCS_RefColorTversky>
0.550 

> <ROCS_RefTverskyCombo>
0.961 

> <ROCS_FitTversky>
1.590 

> <ROCS_FitColorTversky>
0.474 

> <ROCS_FitTverskyCombo>
2.064 

> <ROCS_ColorScore>
-12.128

> <ROCS_Overlap>
1210.001

> <ROCS_Rank>
170                 

$$$$
untitled-dbase-16684_7
  -OEChem-06162310163D

 43 45  0     1  0  0  0  0  0999 V2000
  -14.0064   17.3943  -39.2758 C   0  0  0  0  0  0  0  0  0  0  0  0
   -9.9891   15.5847  -37.9528 C   0  0  0  0  0  0  0  0  0  0  0  0
  -13.2462   13.6889  -38.1343 C   0  0  0  0  0  0  0  0  0  0  0  0
  -13.0343   18.1732  -40.1419 C   0  0  0  0  0  0  0  0  0  0  0  0
  -12.6207   15.8952  -40.4212 C   0  0  0  0  0  0  0  0  0  0  0  0
  -11.3833   15.2699  -36.0961 C   0  0  0  0  0  0  0  0  0  0  0  0
  -13.2681   16.0783  -39.0423 C   0  0  2  0  0  0  0  0  0  0  0  0
  -14.1448   14.9053  -38.5047 C   0  0  0  0  0  0  0  0  0  0  0  0
  -11.4505   15.2756  -37.6209 C   0  0  2  0  0  0  0  0  0  0  0  0
   -9.1773   14.9944  -36.7935 C   0  0  0  0  0  0  0  0  0  0  0  0
  -15.2167   14.4334  -39.5104 C   0  0  0  0  0  0  0  0  0  0  0  0
  -14.9015   15.3575  -37.2279 C   0  0  0  0  0  0  0  0  0  0  0  0
   -8.1636   16.0049  -36.2535 C   0  0  0  0  0  0  0  0  0  0  0  0
   -8.4618   13.6982  -37.1717 C   0  0  0  0  0  0  0  0  0  0  0  0
  -11.8146   13.9637  -38.1498 N   0  0  0  0  0  0  0  0  0  0  0  0
  -12.2954   17.2129  -40.9034 O   0  0  0  0  0  0  0  0  0  0  0  0
  -10.1172   14.7018  -35.7429 O   0  0  0  0  0  0  0  0  0  0  0  0
  -12.2537   16.3738  -38.0624 O   0  0  0  0  0  0  0  0  0  0  0  0
  -14.2904   17.9496  -38.3833 H   0  0  0  0  0  0  0  0  0  0  0  0
  -14.9210   17.2357  -39.8602 H   0  0  0  0  0  0  0  0  0  0  0  0
   -9.6964   15.0918  -38.8968 H   0  0  0  0  0  0  0  0  0  0  0  0
   -9.7943   16.6612  -38.0893 H   0  0  0  0  0  0  0  0  0  0  0  0
  -13.5380   13.2818  -37.1404 H   0  0  0  0  0  0  0  0  0  0  0  0
  -13.4428   12.8552  -38.8427 H   0  0  0  0  0  0  0  0  0  0  0  0
  -13.5432   18.8683  -40.8209 H   0  0  0  0  0  0  0  0  0  0  0  0
  -12.3227   18.7477  -39.5338 H   0  0  0  0  0  0  0  0  0  0  0  0
  -11.6942   15.3128  -40.3887 H   0  0  0  0  0  0  0  0  0  0  0  0
  -13.2985   15.4465  -41.1539 H   0  0  0  0  0  0  0  0  0  0  0  0
  -11.4631   16.2469  -35.6219 H   0  0  0  0  0  0  0  0  0  0  0  0
  -12.1569   14.6253  -35.6562 H   0  0  0  0  0  0  0  0  0  0  0  0
  -15.8425   15.2760  -39.7697 H   0  0  0  0  0  0  0  0  0  0  0  0
  -15.8081   13.6565  -39.0463 H   0  0  0  0  0  0  0  0  0  0  0  0
  -14.7199   14.0506  -40.3911 H   0  0  0  0  0  0  0  0  0  0  0  0
  -15.5318   16.2048  -37.4713 H   0  0  0  0  0  0  0  0  0  0  0  0
  -14.1800   15.6407  -36.4704 H   0  0  0  0  0  0  0  0  0  0  0  0
  -15.5107   14.5365  -36.8681 H   0  0  0  0  0  0  0  0  0  0  0  0
   -7.6032   15.5600  -35.4339 H   0  0  0  0  0  0  0  0  0  0  0  0
   -8.6841   16.8897  -35.8932 H   0  0  0  0  0  0  0  0  0  0  0  0
   -7.4744   16.2917  -37.0450 H   0  0  0  0  0  0  0  0  0  0  0  0
   -7.9029   13.3236  -36.3163 H   0  0  0  0  0  0  0  0  0  0  0  0
   -7.7742   13.8843  -37.9945 H   0  0  0  0  0  0  0  0  0  0  0  0
   -9.1917   12.9509  -37.4773 H   0  0  0  0  0  0  0  0  0  0  0  0
  -11.3142   13.2231  -37.6454 H   0  0  0  0  0  0  0  0  0  0  0  0
  1  4  1  0  0  0  0
  1  7  1  0  0  0  0
  2  9  1  0  0  0  0
  2 10  1  0  0  0  0
  3  8  1  0  0  0  0
  3 15  1  0  0  0  0
  4 16  1  0  0  0  0
  5  7  1  0  0  0  0
  5 16  1  0  0  0  0
  6  9  1  0  0  0  0
  6 17  1  0  0  0  0
  7  8  1  0  0  0  0
  7 18  1  0  0  0  0
  8 11  1  0  0  0  0
  8 12  1  0  0  0  0
  9 15  1  0  0  0  0
  9 18  1  0  0  0  0
 10 13  1  0  0  0  0
 10 14  1  0  0  0  0
 10 17  1  0  0  0  0
  1 19  1  0  0  0  0
  1 20  1  0  0  0  0
  2 21  1  0  0  0  0
  2 22  1  0  0  0  0
  3 23  1  0  0  0  0
  3 24  1  0  0  0  0
  4 25  1  0  0  0  0
  4 26  1  0  0  0  0
  5 27  1  0  0  0  0
  5 28  1  0  0  0  0
  6 29  1  0  0  0  0
  6 30  1  0  0  0  0
 11 31  1  0  0  0  0
 11 32  1  0  0  0  0
 11 33  1  0  0  0  0
 12 34  1  0  0  0  0
 12 35  1  0  0  0  0
 12 36  1  0  0  0  0
 13 37  1  0  0  0  0
 13 38  1  0  0  0  0
 13 39  1  0  0  0  0
 14 40  1  0  0  0  0
 14 41  1  0  0  0  0
 14 42  1  0  0  0  0
 15 43  1  0  0  0  0
M  END
> <id>
EN300-1280293

> <smiles>
CC1(C)CC2(CO1)NCC(C)(C)C3(CCOC3)O2

> <IUPAC Name>
10,10,14,14-tetramethyl-2,6,9-trioxa-12-azadispiro[4.1.4^{7}.3^{5}]tetradecane

> <CAS>
2171967-70-5

> <URL>
https://www.enaminestore.com/catalog/EN300-1280293

> <ROCS_ShapeQuery>
x1247relevant_x1083L0AP1_x1305L0BP1_

> <ROCS_TanimotoCombo>
0.826 

> <ROCS_ShapeTanimoto>
0.529 

> <ROCS_ColorTanimoto>
0.298 

> <ROCS_RefTversky>
0.454 

> <ROCS_RefColorTversky>
0.344 

> <ROCS_RefTverskyCombo>
0.798 

> <ROCS_FitTversky>
1.453 

> <ROCS_FitColorTversky>
0.690 

> <ROCS_FitTverskyCombo>
2.143 

> <ROCS_ColorScore>
-7.308

> <ROCS_Overlap>
1339.503

> <ROCS_Rank>
171                 

$$$$
untitled-dbase-40138_24
  -OEChem-06162310163D

 39 42  0     1  0  0  0  0  0999 V2000
   -8.7020   14.6829  -35.3210 C   0  0  0  0  0  0  0  0  0  0  0  0
  -12.5909   16.4070  -37.5797 C   0  0  0  0  0  0  0  0  0  0  0  0
  -11.0618   14.2482  -35.9511 C   0  0  0  0  0  0  0  0  0  0  0  0
   -9.6628   15.3801  -37.5579 C   0  0  0  0  0  0  0  0  0  0  0  0
  -13.1162   14.9738  -37.3610 C   0  0  2  0  0  0  0  0  0  0  0  0
  -11.8167   16.0185  -38.8558 C   0  0  1  0  0  0  0  0  0  0  0  0
  -11.7932   14.1657  -37.2835 C   0  0  1  0  0  0  0  0  0  0  0  0
  -10.8859   14.8950  -38.3250 C   0  0  2  0  0  0  0  0  0  0  0  0
  -13.7510   14.6371  -38.7055 C   0  0  2  0  0  0  0  0  0  0  0  0
  -12.8829   15.3342  -39.7036 C   0  0  1  0  0  0  0  0  0  0  0  0
   -6.8304   13.4103  -33.5982 C   0  0  0  0  0  0  0  0  0  0  0  0
   -8.8331   12.5774  -32.3315 C   0  0  0  0  0  0  0  0  0  0  0  0
   -8.4991   11.9021  -34.7275 C   0  0  0  0  0  0  0  0  0  0  0  0
   -8.3023   13.0120  -33.6959 C   0  0  0  0  0  0  0  0  0  0  0  0
   -9.7375   14.7619  -36.2442 N   0  0  0  0  0  0  0  0  0  0  0  0
   -7.5625   15.1010  -35.5157 O   0  0  0  0  0  0  0  0  0  0  0  0
  -14.2474   15.7151  -39.5045 O   0  0  0  0  0  0  0  0  0  0  0  0
   -9.0585   14.1579  -34.1084 O   0  0  0  0  0  0  0  0  0  0  0  0
  -13.3889   17.1343  -37.7653 H   0  0  0  0  0  0  0  0  0  0  0  0
  -11.9619   16.7849  -36.7693 H   0  0  0  0  0  0  0  0  0  0  0  0
  -11.5662   14.8770  -35.2115 H   0  0  0  0  0  0  0  0  0  0  0  0
  -10.9337   13.2504  -35.5177 H   0  0  0  0  0  0  0  0  0  0  0  0
   -8.7433   15.0215  -38.0295 H   0  0  0  0  0  0  0  0  0  0  0  0
   -9.5969   16.4661  -37.4652 H   0  0  0  0  0  0  0  0  0  0  0  0
  -13.7888   14.8490  -36.5119 H   0  0  0  0  0  0  0  0  0  0  0  0
  -11.3112   16.8417  -39.3621 H   0  0  0  0  0  0  0  0  0  0  0  0
  -11.9527   13.1144  -37.5669 H   0  0  0  0  0  0  0  0  0  0  0  0
  -10.5845   14.2141  -39.1328 H   0  0  0  0  0  0  0  0  0  0  0  0
  -14.0781   13.6245  -38.8721 H   0  0  0  0  0  0  0  0  0  0  0  0
  -12.5703   14.8356  -40.6055 H   0  0  0  0  0  0  0  0  0  0  0  0
   -6.4456   13.7229  -34.5755 H   0  0  0  0  0  0  0  0  0  0  0  0
   -6.6804   14.2293  -32.8872 H   0  0  0  0  0  0  0  0  0  0  0  0
   -6.2154   12.5601  -33.2815 H   0  0  0  0  0  0  0  0  0  0  0  0
   -9.8889   12.2907  -32.3969 H   0  0  0  0  0  0  0  0  0  0  0  0
   -8.7812   13.4023  -31.6117 H   0  0  0  0  0  0  0  0  0  0  0  0
   -8.2682   11.7302  -31.9294 H   0  0  0  0  0  0  0  0  0  0  0  0
   -9.5549   11.6163  -34.7977 H   0  0  0  0  0  0  0  0  0  0  0  0
   -8.1576   12.2098  -35.7211 H   0  0  0  0  0  0  0  0  0  0  0  0
   -7.9527   10.9978  -34.4360 H   0  0  0  0  0  0  0  0  0  0  0  0
  1 15  1  0  0  0  0
  1 16  2  0  0  0  0
  1 18  1  0  0  0  0
  2  5  1  0  0  0  0
  2  6  1  6  0  0  0
  3  7  1  6  0  0  0
  3 15  1  0  0  0  0
  4  8  1  6  0  0  0
  4 15  1  0  0  0  0
  5  7  1  0  0  0  0
  5  9  1  1  0  0  0
  6  8  1  0  0  0  0
  6 10  1  0  0  0  0
  7  8  1  0  0  0  0
  9 10  1  0  0  0  0
  9 17  1  0  0  0  0
 10 17  1  6  0  0  0
 11 14  1  0  0  0  0
 12 14  1  0  0  0  0
 13 14  1  0  0  0  0
 14 18  1  0  0  0  0
  2 19  1  0  0  0  0
  2 20  1  0  0  0  0
  3 21  1  0  0  0  0
  3 22  1  0  0  0  0
  4 23  1  0  0  0  0
  4 24  1  0  0  0  0
  5 25  1  0  0  0  0
  6 26  1  0  0  0  0
  7 27  1  0  0  0  0
  8 28  1  0  0  0  0
  9 29  1  0  0  0  0
 10 30  1  0  0  0  0
 11 31  1  0  0  0  0
 11 32  1  0  0  0  0
 11 33  1  0  0  0  0
 12 34  1  0  0  0  0
 12 35  1  0  0  0  0
 12 36  1  0  0  0  0
 13 37  1  0  0  0  0
 13 38  1  0  0  0  0
 13 39  1  0  0  0  0
M  END
> <id>
EN300-234682

> <smiles>
CC(C)(C)OC(=O)N1C[C@H]2[C@H]3C[C@H]([C@@H]4OC43)[C@H]2C1

> <MDLNUMBER>
MFCD29034740

> <IUPAC Name>
tert-butyl (1R,2R,6S,7S,8S)-9-oxa-4-azatetracyclo[5.3.1.0^{2,6}.0^{8,10}]undecane-4-carboxylate

> <CAS>
1864012-26-9

> <URL>
https://www.enaminestore.com/catalog/EN300-234682

> <ROCS_ShapeQuery>
x1247relevant_x1083L0AP1_x1305L0BP1_

> <ROCS_TanimotoCombo>
0.826 

> <ROCS_ShapeTanimoto>
0.475 

> <ROCS_ColorTanimoto>
0.351 

> <ROCS_RefTversky>
0.425 

> <ROCS_RefColorTversky>
0.514 

> <ROCS_RefTverskyCombo>
0.939 

> <ROCS_FitTversky>
1.331 

> <ROCS_FitColorTversky>
0.526 

> <ROCS_FitTverskyCombo>
1.856 

> <ROCS_ColorScore>
-11.226

> <ROCS_Overlap>
1254.293

> <ROCS_Rank>
172                 

$$$$
untitled-dbase-14588_3
  -OEChem-06162310163D

 30 33  0     1  0  0  0  0  0999 V2000
  -10.0992   17.3876  -37.4647 C   0  0  0  0  0  0  0  0  0  0  0  0
   -8.8339   17.7593  -37.0507 C   0  0  0  0  0  0  0  0  0  0  0  0
  -10.1381   15.9908  -37.3394 C   0  0  0  0  0  0  0  0  0  0  0  0
   -8.9243   15.6108  -36.8298 C   0  0  0  0  0  0  0  0  0  0  0  0
   -8.4939   14.2496  -36.4673 C   0  0  0  0  0  0  0  0  0  0  0  0
  -12.5356   15.0442  -36.7805 C   0  0  0  0  0  0  0  0  0  0  0  0
   -9.7593   13.3829  -36.3143 C   0  0  0  0  0  0  0  0  0  0  0  0
  -14.4348   15.4227  -38.5889 C   0  0  0  0  0  0  0  0  0  0  0  0
  -12.5418   16.2297  -39.5750 C   0  0  0  0  0  0  0  0  0  0  0  0
  -13.3026   14.5724  -38.0501 C   0  0  1  0  0  0  0  0  0  0  0  0
  -12.0623   14.9628  -38.8849 C   0  0  2  0  0  0  0  0  0  0  0  0
  -11.2180   14.9262  -37.5758 C   0  0  1  0  0  0  0  0  0  0  0  0
  -10.6850   13.5337  -37.4547 N   0  0  0  0  0  0  0  0  0  0  0  0
   -8.1061   16.6742  -36.6578 O   0  0  0  0  0  0  0  0  0  0  0  0
  -13.9429   16.0410  -39.7811 O   0  0  0  0  0  0  0  0  0  0  0  0
  -10.8781   18.0544  -37.8116 H   0  0  0  0  0  0  0  0  0  0  0  0
   -8.3254   18.7092  -36.9765 H   0  0  0  0  0  0  0  0  0  0  0  0
   -7.8364   13.8260  -37.2324 H   0  0  0  0  0  0  0  0  0  0  0  0
   -7.9434   14.2810  -35.5209 H   0  0  0  0  0  0  0  0  0  0  0  0
  -12.7974   16.0554  -36.4628 H   0  0  0  0  0  0  0  0  0  0  0  0
  -12.6470   14.3847  -35.9185 H   0  0  0  0  0  0  0  0  0  0  0  0
   -9.4839   12.3294  -36.1941 H   0  0  0  0  0  0  0  0  0  0  0  0
  -10.2778   13.6825  -35.3983 H   0  0  0  0  0  0  0  0  0  0  0  0
  -15.3058   14.8072  -38.8510 H   0  0  0  0  0  0  0  0  0  0  0  0
  -14.7602   16.1945  -37.8815 H   0  0  0  0  0  0  0  0  0  0  0  0
  -12.3647   17.1348  -38.9990 H   0  0  0  0  0  0  0  0  0  0  0  0
  -12.0690   16.3415  -40.5528 H   0  0  0  0  0  0  0  0  0  0  0  0
  -13.5056   13.4835  -38.0397 H   0  0  0  0  0  0  0  0  0  0  0  0
  -11.7907   14.2051  -39.6370 H   0  0  0  0  0  0  0  0  0  0  0  0
  -10.2237   13.1902  -38.3048 H   0  0  0  0  0  0  0  0  0  0  0  0
  1  2  2  0  0  0  0
  1  3  1  0  0  0  0
  2 14  1  0  0  0  0
  3  4  2  0  0  0  0
  3 12  1  0  0  0  0
  4  5  1  0  0  0  0
  4 14  1  0  0  0  0
  5  7  1  0  0  0  0
  6 10  1  0  0  0  0
  6 12  1  0  0  0  0
  7 13  1  0  0  0  0
  8 10  1  0  0  0  0
  8 15  1  0  0  0  0
  9 11  1  0  0  0  0
  9 15  1  0  0  0  0
 10 11  1  0  0  0  0
 11 12  1  0  0  0  0
 12 13  1  0  0  0  0
  1 16  1  0  0  0  0
  2 17  1  0  0  0  0
  5 18  1  0  0  0  0
  5 19  1  0  0  0  0
  6 20  1  0  0  0  0
  6 21  1  0  0  0  0
  7 22  1  0  0  0  0
  7 23  1  0  0  0  0
  8 24  1  0  0  0  0
  8 25  1  0  0  0  0
  9 26  1  0  0  0  0
  9 27  1  0  0  0  0
 10 28  1  0  0  0  0
 11 29  1  0  0  0  0
 13 30  1  0  0  0  0
M  END
> <id>
EN300-1075469

> <smiles>
C1C2COCC2C13NCCC=4OC=CC43

> <IUPAC Name>
6',7'-dihydro-5'H-3-oxaspiro[bicyclo[3.2.0]heptane-6,4'-furo[3,2-c]pyridine]

> <URL>
https://www.enaminestore.com/catalog/EN300-1075469

> <ROCS_ShapeQuery>
x1247relevant_x1083L0AP1_x1305L0BP1_

> <ROCS_TanimotoCombo>
0.826 

> <ROCS_ShapeTanimoto>
0.459 

> <ROCS_ColorTanimoto>
0.368 

> <ROCS_RefTversky>
0.402 

> <ROCS_RefColorTversky>
0.419 

> <ROCS_RefTverskyCombo>
0.821 

> <ROCS_FitTversky>
1.446 

> <ROCS_FitColorTversky>
0.748 

> <ROCS_FitTverskyCombo>
2.194 

> <ROCS_ColorScore>
-8.946

> <ROCS_Overlap>
1183.751

> <ROCS_Rank>
173                 

$$$$
untitled-dbase-34829_332
  -OEChem-06162310163D

 39 40  0     0  0  0  0  0  0999 V2000
  -13.5405   15.8521  -39.7798 C   0  0  0  0  0  0  0  0  0  0  0  0
  -11.0536   15.4093  -35.8354 C   0  0  0  0  0  0  0  0  0  0  0  0
   -9.5485   13.3418  -37.1005 C   0  0  0  0  0  0  0  0  0  0  0  0
  -12.9625   14.8531  -37.4881 C   0  0  0  0  0  0  0  0  0  0  0  0
  -11.3466   15.9221  -38.4199 C   0  0  0  0  0  0  0  0  0  0  0  0
   -9.5712   15.7624  -35.6643 C   0  0  0  0  0  0  0  0  0  0  0  0
   -8.4912   14.4220  -37.3279 C   0  0  0  0  0  0  0  0  0  0  0  0
  -11.4304   14.9272  -37.2308 C   0  0  0  0  0  0  0  0  0  0  0  0
  -13.9958   13.6485  -41.1152 C   0  0  0  0  0  0  0  0  0  0  0  0
  -16.1661   13.3993  -39.8754 C   0  0  0  0  0  0  0  0  0  0  0  0
  -15.9515   15.1263  -41.6863 C   0  0  0  0  0  0  0  0  0  0  0  0
  -15.2228   14.3785  -40.5707 C   0  0  0  0  0  0  0  0  0  0  0  0
  -10.8591   13.6376  -37.6776 N   0  0  0  0  0  0  0  0  0  0  0  0
  -12.7219   15.5774  -38.7199 N   0  0  0  0  0  0  0  0  0  0  0  0
  -13.1954   16.4871  -40.7724 O   0  0  0  0  0  0  0  0  0  0  0  0
   -8.8510   15.7295  -36.8875 O   0  0  0  0  0  0  0  0  0  0  0  0
  -14.7899   15.3294  -39.5917 O   0  0  0  0  0  0  0  0  0  0  0  0
  -11.3135   14.6272  -35.1012 H   0  0  0  0  0  0  0  0  0  0  0  0
  -11.6674   16.2854  -35.5607 H   0  0  0  0  0  0  0  0  0  0  0  0
   -9.1841   12.3400  -37.4182 H   0  0  0  0  0  0  0  0  0  0  0  0
   -9.6945   13.2536  -36.0039 H   0  0  0  0  0  0  0  0  0  0  0  0
  -13.3968   13.8595  -37.6362 H   0  0  0  0  0  0  0  0  0  0  0  0
  -13.5915   15.4222  -36.7957 H   0  0  0  0  0  0  0  0  0  0  0  0
  -11.2429   16.9766  -38.1429 H   0  0  0  0  0  0  0  0  0  0  0  0
  -10.6417   15.6912  -39.2240 H   0  0  0  0  0  0  0  0  0  0  0  0
   -9.5064   16.8042  -35.3021 H   0  0  0  0  0  0  0  0  0  0  0  0
   -9.0706   15.1420  -34.8945 H   0  0  0  0  0  0  0  0  0  0  0  0
   -7.5192   14.1410  -36.8823 H   0  0  0  0  0  0  0  0  0  0  0  0
   -8.3059   14.5054  -38.4120 H   0  0  0  0  0  0  0  0  0  0  0  0
  -13.3162   14.3480  -41.6151 H   0  0  0  0  0  0  0  0  0  0  0  0
  -13.4447   13.1369  -40.3194 H   0  0  0  0  0  0  0  0  0  0  0  0
  -14.2846   12.9065  -41.8684 H   0  0  0  0  0  0  0  0  0  0  0  0
  -17.0478   13.9188  -39.4831 H   0  0  0  0  0  0  0  0  0  0  0  0
  -15.6761   12.9298  -39.0147 H   0  0  0  0  0  0  0  0  0  0  0  0
  -16.5026   12.6103  -40.5557 H   0  0  0  0  0  0  0  0  0  0  0  0
  -16.8316   15.6500  -41.2960 H   0  0  0  0  0  0  0  0  0  0  0  0
  -15.3002   15.8599  -42.1724 H   0  0  0  0  0  0  0  0  0  0  0  0
  -16.3191   14.4286  -42.4475 H   0  0  0  0  0  0  0  0  0  0  0  0
  -10.8149   13.5344  -38.6932 H   0  0  0  0  0  0  0  0  0  0  0  0
  1 14  1  0  0  0  0
  1 15  2  0  0  0  0
  1 17  1  0  0  0  0
  2  6  1  0  0  0  0
  2  8  1  0  0  0  0
  3  7  1  0  0  0  0
  3 13  1  0  0  0  0
  4  8  1  0  0  0  0
  4 14  1  0  0  0  0
  5  8  1  0  0  0  0
  5 14  1  0  0  0  0
  6 16  1  0  0  0  0
  7 16  1  0  0  0  0
  8 13  1  0  0  0  0
  9 12  1  0  0  0  0
 10 12  1  0  0  0  0
 11 12  1  0  0  0  0
 12 17  1  0  0  0  0
  2 18  1  0  0  0  0
  2 19  1  0  0  0  0
  3 20  1  0  0  0  0
  3 21  1  0  0  0  0
  4 22  1  0  0  0  0
  4 23  1  0  0  0  0
  5 24  1  0  0  0  0
  5 25  1  0  0  0  0
  6 26  1  0  0  0  0
  6 27  1  0  0  0  0
  7 28  1  0  0  0  0
  7 29  1  0  0  0  0
  9 30  1  0  0  0  0
  9 31  1  0  0  0  0
  9 32  1  0  0  0  0
 10 33  1  0  0  0  0
 10 34  1  0  0  0  0
 10 35  1  0  0  0  0
 11 36  1  0  0  0  0
 11 37  1  0  0  0  0
 11 38  1  0  0  0  0
 13 39  1  0  0  0  0
M  END
> <id>
EN300-7354049

> <smiles>
CC(C)(C)OC(=O)N1CC2(C1)CCOCCN2

> <MDLNUMBER>
MFCD14581222

> <IUPAC Name>
tert-butyl 8-oxa-2,5-diazaspiro[3.6]decane-2-carboxylate

> <CAS>
1251005-80-7

> <URL>
https://www.enaminestore.com/catalog/EN300-7354049

> <ROCS_ShapeQuery>
x1247relevant_x1083L0AP1_x1305L0BP1_

> <ROCS_TanimotoCombo>
0.826 

> <ROCS_ShapeTanimoto>
0.507 

> <ROCS_ColorTanimoto>
0.319 

> <ROCS_RefTversky>
0.435 

> <ROCS_RefColorTversky>
0.331 

> <ROCS_RefTverskyCombo>
0.765 

> <ROCS_FitTversky>
1.489 

> <ROCS_FitColorTversky>
0.901 

> <ROCS_FitTverskyCombo>
2.390 

> <ROCS_ColorScore>
-6.976

> <ROCS_Overlap>
1281.857

> <ROCS_Rank>
174                 

$$$$
untitled-dbase-34890_332
  -OEChem-06162310163D

 39 40  0     0  0  0  0  0  0999 V2000
  -13.5405   15.8521  -39.7798 C   0  0  0  0  0  0  0  0  0  0  0  0
  -11.0536   15.4093  -35.8354 C   0  0  0  0  0  0  0  0  0  0  0  0
   -9.5485   13.3418  -37.1005 C   0  0  0  0  0  0  0  0  0  0  0  0
  -12.9625   14.8531  -37.4881 C   0  0  0  0  0  0  0  0  0  0  0  0
  -11.3466   15.9221  -38.4199 C   0  0  0  0  0  0  0  0  0  0  0  0
   -9.5712   15.7624  -35.6643 C   0  0  0  0  0  0  0  0  0  0  0  0
   -8.4912   14.4220  -37.3279 C   0  0  0  0  0  0  0  0  0  0  0  0
  -11.4304   14.9272  -37.2308 C   0  0  0  0  0  0  0  0  0  0  0  0
  -13.9958   13.6485  -41.1152 C   0  0  0  0  0  0  0  0  0  0  0  0
  -16.1661   13.3993  -39.8754 C   0  0  0  0  0  0  0  0  0  0  0  0
  -15.9515   15.1263  -41.6863 C   0  0  0  0  0  0  0  0  0  0  0  0
  -15.2228   14.3785  -40.5707 C   0  0  0  0  0  0  0  0  0  0  0  0
  -10.8591   13.6376  -37.6776 N   0  0  0  0  0  0  0  0  0  0  0  0
  -12.7219   15.5774  -38.7199 N   0  0  0  0  0  0  0  0  0  0  0  0
  -13.1954   16.4871  -40.7724 O   0  0  0  0  0  0  0  0  0  0  0  0
   -8.8510   15.7295  -36.8875 O   0  0  0  0  0  0  0  0  0  0  0  0
  -14.7899   15.3294  -39.5917 O   0  0  0  0  0  0  0  0  0  0  0  0
  -11.3135   14.6272  -35.1012 H   0  0  0  0  0  0  0  0  0  0  0  0
  -11.6674   16.2854  -35.5607 H   0  0  0  0  0  0  0  0  0  0  0  0
   -9.1841   12.3400  -37.4182 H   0  0  0  0  0  0  0  0  0  0  0  0
   -9.6945   13.2536  -36.0039 H   0  0  0  0  0  0  0  0  0  0  0  0
  -13.3968   13.8595  -37.6362 H   0  0  0  0  0  0  0  0  0  0  0  0
  -13.5915   15.4222  -36.7957 H   0  0  0  0  0  0  0  0  0  0  0  0
  -11.2429   16.9766  -38.1429 H   0  0  0  0  0  0  0  0  0  0  0  0
  -10.6417   15.6912  -39.2240 H   0  0  0  0  0  0  0  0  0  0  0  0
   -9.5064   16.8042  -35.3021 H   0  0  0  0  0  0  0  0  0  0  0  0
   -9.0706   15.1420  -34.8945 H   0  0  0  0  0  0  0  0  0  0  0  0
   -7.5192   14.1410  -36.8823 H   0  0  0  0  0  0  0  0  0  0  0  0
   -8.3059   14.5054  -38.4120 H   0  0  0  0  0  0  0  0  0  0  0  0
  -13.3162   14.3480  -41.6151 H   0  0  0  0  0  0  0  0  0  0  0  0
  -13.4447   13.1369  -40.3194 H   0  0  0  0  0  0  0  0  0  0  0  0
  -14.2846   12.9065  -41.8684 H   0  0  0  0  0  0  0  0  0  0  0  0
  -17.0478   13.9188  -39.4831 H   0  0  0  0  0  0  0  0  0  0  0  0
  -15.6761   12.9298  -39.0147 H   0  0  0  0  0  0  0  0  0  0  0  0
  -16.5026   12.6103  -40.5557 H   0  0  0  0  0  0  0  0  0  0  0  0
  -16.8316   15.6500  -41.2960 H   0  0  0  0  0  0  0  0  0  0  0  0
  -15.3002   15.8599  -42.1724 H   0  0  0  0  0  0  0  0  0  0  0  0
  -16.3191   14.4286  -42.4475 H   0  0  0  0  0  0  0  0  0  0  0  0
  -10.8149   13.5344  -38.6932 H   0  0  0  0  0  0  0  0  0  0  0  0
  1 14  1  0  0  0  0
  1 15  2  0  0  0  0
  1 17  1  0  0  0  0
  2  6  1  0  0  0  0
  2  8  1  0  0  0  0
  3  7  1  0  0  0  0
  3 13  1  0  0  0  0
  4  8  1  0  0  0  0
  4 14  1  0  0  0  0
  5  8  1  0  0  0  0
  5 14  1  0  0  0  0
  6 16  1  0  0  0  0
  7 16  1  0  0  0  0
  8 13  1  0  0  0  0
  9 12  1  0  0  0  0
 10 12  1  0  0  0  0
 11 12  1  0  0  0  0
 12 17  1  0  0  0  0
  2 18  1  0  0  0  0
  2 19  1  0  0  0  0
  3 20  1  0  0  0  0
  3 21  1  0  0  0  0
  4 22  1  0  0  0  0
  4 23  1  0  0  0  0
  5 24  1  0  0  0  0
  5 25  1  0  0  0  0
  6 26  1  0  0  0  0
  6 27  1  0  0  0  0
  7 28  1  0  0  0  0
  7 29  1  0  0  0  0
  9 30  1  0  0  0  0
  9 31  1  0  0  0  0
  9 32  1  0  0  0  0
 10 33  1  0  0  0  0
 10 34  1  0  0  0  0
 10 35  1  0  0  0  0
 11 36  1  0  0  0  0
 11 37  1  0  0  0  0
 11 38  1  0  0  0  0
 13 39  1  0  0  0  0
M  END
> <id>
EN300-7354048

> <smiles>
Cl.CC(C)(C)OC(=O)N1CC2(C1)CCOCCN2

> <MDLNUMBER>
MFCD31915552

> <IUPAC Name>
tert-butyl 8-oxa-2,5-diazaspiro[3.6]decane-2-carboxylate hydrochloride

> <CAS>
2309476-61-5

> <Purity>
95

> <URL>
https://www.enaminestore.com/catalog/EN300-7354048

> <Saltdate>
Cl

> <ROCS_ShapeQuery>
x1247relevant_x1083L0AP1_x1305L0BP1_

> <ROCS_TanimotoCombo>
0.826 

> <ROCS_ShapeTanimoto>
0.507 

> <ROCS_ColorTanimoto>
0.319 

> <ROCS_RefTversky>
0.435 

> <ROCS_RefColorTversky>
0.331 

> <ROCS_RefTverskyCombo>
0.765 

> <ROCS_FitTversky>
1.489 

> <ROCS_FitColorTversky>
0.901 

> <ROCS_FitTverskyCombo>
2.390 

> <ROCS_ColorScore>
-6.976

> <ROCS_Overlap>
1281.857

> <ROCS_Rank>
175                 

$$$$
untitled-dbase-34685_0
  -OEChem-06162310163D

 22 24  0     1  0  0  0  0  0999 V2000
   -8.9461   14.9908  -37.5292 C   0  0  0  0  0  0  0  0  0  0  0  0
   -9.7812   14.9719  -38.6462 C   0  0  0  0  0  0  0  0  0  0  0  0
   -9.5179   14.9513  -36.2504 C   0  0  0  0  0  0  0  0  0  0  0  0
  -11.1316   14.9047  -38.4117 C   0  0  0  0  0  0  0  0  0  0  0  0
  -11.6019   14.8689  -37.1017 C   0  0  0  0  0  0  0  0  0  0  0  0
  -13.6138   16.1979  -37.7040 C   0  0  0  0  0  0  0  0  0  0  0  0
  -12.3409   14.9037  -39.2881 C   0  0  2  0  0  0  0  0  0  0  0  0
  -13.1023   14.8399  -37.2094 C   0  0  1  0  0  0  0  0  0  0  0  0
  -13.0598   16.2585  -39.1568 C   0  0  1  0  0  0  0  0  0  0  0  0
  -10.8494   14.8947  -35.9975 N   0  0  0  0  0  0  0  0  0  0  0  0
  -14.1473   16.3765  -40.1241 N   0  0  0  0  0  0  0  0  0  0  0  0
  -13.1999   14.0687  -38.4451 O   0  0  0  0  0  0  0  0  0  0  0  0
   -7.8687   15.0421  -37.6470 H   0  0  0  0  0  0  0  0  0  0  0  0
   -9.3766   15.0126  -39.6501 H   0  0  0  0  0  0  0  0  0  0  0  0
   -8.8848   14.9676  -35.3683 H   0  0  0  0  0  0  0  0  0  0  0  0
  -14.7103   16.2117  -37.6962 H   0  0  0  0  0  0  0  0  0  0  0  0
  -13.2605   17.0358  -37.0936 H   0  0  0  0  0  0  0  0  0  0  0  0
  -12.2093   14.4765  -40.2842 H   0  0  0  0  0  0  0  0  0  0  0  0
  -13.6342   14.3706  -36.3810 H   0  0  0  0  0  0  0  0  0  0  0  0
  -12.3765   17.1049  -39.2878 H   0  0  0  0  0  0  0  0  0  0  0  0
  -14.6207   17.2327  -39.9567 H   0  0  0  0  0  0  0  0  0  0  0  0
  -13.7544   16.3654  -41.0355 H   0  0  0  0  0  0  0  0  0  0  0  0
  1  2  1  0  0  0  0
  1  3  2  0  0  0  0
  2  4  2  0  0  0  0
  3 10  1  0  0  0  0
  4  5  1  0  0  0  0
  4  7  1  0  0  0  0
  5  8  1  0  0  0  0
  5 10  2  0  0  0  0
  6  8  1  0  0  0  0
  6  9  1  0  0  0  0
  7  9  1  0  0  0  0
  7 12  1  0  0  0  0
  8 12  1  0  0  0  0
  9 11  1  0  0  0  0
  1 13  1  0  0  0  0
  2 14  1  0  0  0  0
  3 15  1  0  0  0  0
  6 16  1  0  0  0  0
  6 17  1  0  0  0  0
  7 18  1  0  0  0  0
  8 19  1  0  0  0  0
  9 20  1  0  0  0  0
 11 21  1  0  0  0  0
 11 22  1  0  0  0  0
M  END
> <id>
EN300-37468730

> <smiles>
NC1CC2OC1C=3C=CC=NC23

> <IUPAC Name>
11-oxa-3-azatricyclo[6.2.1.0,2,7]undeca-2,4,6-trien-9-amine

> <URL>
https://www.enaminestore.com/catalog/EN300-37468730

> <ROCS_ShapeQuery>
x1247relevant_x1083L0AP1_x1305L0BP1_

> <ROCS_TanimotoCombo>
0.826 

> <ROCS_ShapeTanimoto>
0.473 

> <ROCS_ColorTanimoto>
0.353 

> <ROCS_RefTversky>
0.397 

> <ROCS_RefColorTversky>
0.407 

> <ROCS_RefTverskyCombo>
0.804 

> <ROCS_FitTversky>
1.687 

> <ROCS_FitColorTversky>
0.726 

> <ROCS_FitTverskyCombo>
2.413 

> <ROCS_ColorScore>
-8.685

> <ROCS_Overlap>
1165.590

> <ROCS_Rank>
176                 

$$$$
untitled-dbase-24496_4
  -OEChem-06162310163D

 27 28  0     1  0  0  0  0  0999 V2000
  -13.4878   15.6701  -39.2280 C   0  0  0  0  0  0  0  0  0  0  0  0
   -9.1882   13.4985  -37.5410 C   0  0  0  0  0  0  0  0  0  0  0  0
  -11.0678   15.3189  -39.0203 C   0  0  0  0  0  0  0  0  0  0  0  0
   -8.5254   14.4904  -36.5971 C   0  0  0  0  0  0  0  0  0  0  0  0
  -12.6918   14.8604  -37.1439 C   0  0  0  0  0  0  0  0  0  0  0  0
  -10.4504   15.8385  -36.5971 C   0  0  0  0  0  0  0  0  0  0  0  0
  -11.2048   14.8825  -37.5482 C   0  0  2  0  0  0  0  0  0  0  0  0
  -11.9357   17.1865  -40.4261 C   0  0  0  0  0  0  0  0  0  0  0  0
  -10.6459   13.5207  -37.3844 N   0  0  0  0  0  0  0  0  0  0  0  0
  -12.1923   16.1345  -39.4578 N   0  0  0  0  0  0  0  0  0  0  0  0
  -14.4920   16.0489  -39.8254 O   0  0  0  0  0  0  0  0  0  0  0  0
  -13.5694   14.6902  -38.2700 O   0  0  0  0  0  0  0  0  0  0  0  0
   -9.0398   15.8013  -36.8244 O   0  0  0  0  0  0  0  0  0  0  0  0
   -8.9234   13.7285  -38.5794 H   0  0  0  0  0  0  0  0  0  0  0  0
   -8.8202   12.4885  -37.3307 H   0  0  0  0  0  0  0  0  0  0  0  0
  -10.1480   15.8901  -39.1758 H   0  0  0  0  0  0  0  0  0  0  0  0
  -11.0380   14.4480  -39.6842 H   0  0  0  0  0  0  0  0  0  0  0  0
   -8.6765   14.2135  -35.5475 H   0  0  0  0  0  0  0  0  0  0  0  0
   -7.4474   14.5179  -36.7810 H   0  0  0  0  0  0  0  0  0  0  0  0
  -12.9086   14.0519  -36.4319 H   0  0  0  0  0  0  0  0  0  0  0  0
  -12.9730   15.8013  -36.6528 H   0  0  0  0  0  0  0  0  0  0  0  0
  -10.7689   16.8792  -36.7352 H   0  0  0  0  0  0  0  0  0  0  0  0
  -10.6457   15.5912  -35.5427 H   0  0  0  0  0  0  0  0  0  0  0  0
  -11.9949   18.1658  -39.9287 H   0  0  0  0  0  0  0  0  0  0  0  0
  -10.9314   17.0532  -40.8547 H   0  0  0  0  0  0  0  0  0  0  0  0
  -12.6864   17.1371  -41.2287 H   0  0  0  0  0  0  0  0  0  0  0  0
  -11.0716   12.8848  -38.0520 H   0  0  0  0  0  0  0  0  0  0  0  0
  1 10  1  0  0  0  0
  1 11  2  0  0  0  0
  1 12  1  0  0  0  0
  2  4  1  0  0  0  0
  2  9  1  0  0  0  0
  3  7  1  0  0  0  0
  3 10  1  0  0  0  0
  4 13  1  0  0  0  0
  5  7  1  0  0  0  0
  5 12  1  0  0  0  0
  6  7  1  0  0  0  0
  6 13  1  0  0  0  0
  7  9  1  0  0  0  0
  8 10  1  0  0  0  0
  2 14  1  0  0  0  0
  2 15  1  0  0  0  0
  3 16  1  0  0  0  0
  3 17  1  0  0  0  0
  4 18  1  0  0  0  0
  4 19  1  0  0  0  0
  5 20  1  0  0  0  0
  5 21  1  0  0  0  0
  6 22  1  0  0  0  0
  6 23  1  0  0  0  0
  8 24  1  0  0  0  0
  8 25  1  0  0  0  0
  8 26  1  0  0  0  0
  9 27  1  0  0  0  0
M  END
> <id>
EN300-6487450

> <smiles>
CN1CC2(COCCN2)COC1=O

> <MDLNUMBER>
MFCD31667990

> <IUPAC Name>
10-methyl-4,8-dioxa-1,10-diazaspiro[5.5]undecan-9-one

> <CAS>
2243505-08-8

> <Purity>
95

> <URL>
https://www.enaminestore.com/catalog/EN300-6487450

> <ROCS_ShapeQuery>
x1247relevant_x1083L0AP1_x1305L0BP1_

> <ROCS_TanimotoCombo>
0.826 

> <ROCS_ShapeTanimoto>
0.497 

> <ROCS_ColorTanimoto>
0.329 

> <ROCS_RefTversky>
0.411 

> <ROCS_RefColorTversky>
0.327 

> <ROCS_RefTverskyCombo>
0.738 

> <ROCS_FitTversky>
1.722 

> <ROCS_FitColorTversky>
1.014 

> <ROCS_FitTverskyCombo>
2.736 

> <ROCS_ColorScore>
-6.887

> <ROCS_Overlap>
1209.558

> <ROCS_Rank>
177                 

$$$$
untitled-dbase-17059_4
  -OEChem-06162310163D

 36 39  0     1  0  0  0  0  0999 V2000
  -13.6449   15.7404  -37.1801 C   0  0  0  0  0  0  0  0  0  0  0  0
  -13.3170   13.7867  -38.6493 C   0  0  0  0  0  0  0  0  0  0  0  0
  -13.2692   16.6881  -38.3282 C   0  0  0  0  0  0  0  0  0  0  0  0
  -13.1077   14.7860  -39.7974 C   0  0  0  0  0  0  0  0  0  0  0  0
   -9.4094   13.4922  -36.5810 C   0  0  0  0  0  0  0  0  0  0  0  0
  -11.1325   15.6329  -38.7146 C   0  0  0  0  0  0  0  0  0  0  0  0
   -7.8170   15.1565  -37.7615 C   0  0  0  0  0  0  0  0  0  0  0  0
   -7.3488   14.8210  -35.7857 C   0  0  0  0  0  0  0  0  0  0  0  0
   -9.6523   15.9429  -36.0833 C   0  0  0  0  0  0  0  0  0  0  0  0
  -12.8443   14.4290  -37.3307 C   0  0  0  0  0  0  0  0  0  0  0  0
   -8.7012   14.8401  -36.5306 C   0  0  0  0  0  0  0  0  0  0  0  0
  -11.3239   14.7804  -37.4208 C   0  0  1  0  0  0  0  0  0  0  0  0
  -10.5236   13.5429  -37.5274 N   0  0  0  0  0  0  0  0  0  0  0  0
  -12.4254   16.0144  -39.3368 N   0  0  0  0  0  0  0  0  0  0  0  0
   -6.6157   14.8042  -37.0336 O   0  0  0  0  0  0  0  0  0  0  0  0
  -11.0212   15.5517  -36.2423 O   0  0  0  0  0  0  0  0  0  0  0  0
  -13.4425   16.2170  -36.2157 H   0  0  0  0  0  0  0  0  0  0  0  0
  -14.7190   15.5242  -37.2099 H   0  0  0  0  0  0  0  0  0  0  0  0
  -14.3790   13.5233  -38.5782 H   0  0  0  0  0  0  0  0  0  0  0  0
  -12.7707   12.8580  -38.8468 H   0  0  0  0  0  0  0  0  0  0  0  0
  -14.1788   17.0756  -38.8036 H   0  0  0  0  0  0  0  0  0  0  0  0
  -12.7446   17.5681  -37.9352 H   0  0  0  0  0  0  0  0  0  0  0  0
  -12.5261   14.3153  -40.6001 H   0  0  0  0  0  0  0  0  0  0  0  0
  -14.0729   15.0470  -40.2500 H   0  0  0  0  0  0  0  0  0  0  0  0
   -8.7206   12.6971  -36.8924 H   0  0  0  0  0  0  0  0  0  0  0  0
   -9.7687   13.2039  -35.5858 H   0  0  0  0  0  0  0  0  0  0  0  0
  -10.5577   16.5435  -38.4992 H   0  0  0  0  0  0  0  0  0  0  0  0
  -10.5461   15.0967  -39.4737 H   0  0  0  0  0  0  0  0  0  0  0  0
   -7.9498   14.5073  -38.6324 H   0  0  0  0  0  0  0  0  0  0  0  0
   -7.8012   16.2003  -38.0868 H   0  0  0  0  0  0  0  0  0  0  0  0
   -7.1161   15.7091  -35.1910 H   0  0  0  0  0  0  0  0  0  0  0  0
   -7.1362   13.9241  -35.1951 H   0  0  0  0  0  0  0  0  0  0  0  0
   -9.4714   16.2302  -35.0323 H   0  0  0  0  0  0  0  0  0  0  0  0
   -9.5068   16.8643  -36.6741 H   0  0  0  0  0  0  0  0  0  0  0  0
  -13.0764   13.7732  -36.4839 H   0  0  0  0  0  0  0  0  0  0  0  0
  -10.1446   13.4777  -38.4781 H   0  0  0  0  0  0  0  0  0  0  0  0
  1  3  1  0  0  0  0
  1 10  1  0  0  0  0
  2  4  1  0  0  0  0
  2 10  1  0  0  0  0
  3 14  1  0  0  0  0
  4 14  1  0  0  0  0
  5 11  1  0  0  0  0
  5 13  1  0  0  0  0
  6 12  1  0  0  0  0
  6 14  1  0  0  0  0
  7 11  1  0  0  0  0
  7 15  1  0  0  0  0
  8 11  1  0  0  0  0
  8 15  1  0  0  0  0
  9 11  1  0  0  0  0
  9 16  1  0  0  0  0
 10 12  1  0  0  0  0
 12 13  1  0  0  0  0
 12 16  1  0  0  0  0
  1 17  1  0  0  0  0
  1 18  1  0  0  0  0
  2 19  1  0  0  0  0
  2 20  1  0  0  0  0
  3 21  1  0  0  0  0
  3 22  1  0  0  0  0
  4 23  1  0  0  0  0
  4 24  1  0  0  0  0
  5 25  1  0  0  0  0
  5 26  1  0  0  0  0
  6 27  1  0  0  0  0
  6 28  1  0  0  0  0
  7 29  1  0  0  0  0
  7 30  1  0  0  0  0
  8 31  1  0  0  0  0
  8 32  1  0  0  0  0
  9 33  1  0  0  0  0
  9 34  1  0  0  0  0
 10 35  1  0  0  0  0
 13 36  1  0  0  0  0
M  END
> <id>
EN300-1278755

> <smiles>
C1OCC12CNC3(CN4CCC3CC4)OC2

> <IUPAC Name>
dispiro[4-azabicyclo[2.2.2]octane-2,2'-[1,3]oxazinane-5',3''-oxetane]

> <URL>
https://www.enaminestore.com/catalog/EN300-1278755

> <ROCS_ShapeQuery>
x1247relevant_x1083L0AP1_x1305L0BP1_

> <ROCS_TanimotoCombo>
0.825 

> <ROCS_ShapeTanimoto>
0.488 

> <ROCS_ColorTanimoto>
0.337 

> <ROCS_RefTversky>
0.423 

> <ROCS_RefColorTversky>
0.411 

> <ROCS_RefTverskyCombo>
0.834 

> <ROCS_FitTversky>
1.466 

> <ROCS_FitColorTversky>
0.651 

> <ROCS_FitTverskyCombo>
2.117 

> <ROCS_ColorScore>
-8.804

> <ROCS_Overlap>
1246.311

> <ROCS_Rank>
178                 

$$$$
untitled-dbase-14540_1
  -OEChem-06162310163D

 34 37  0     1  0  0  0  0  0999 V2000
   -9.1336   16.6920  -35.0296 C   0  0  0  0  0  0  0  0  0  0  0  0
  -10.1732   17.5543  -35.3026 C   0  0  0  0  0  0  0  0  0  0  0  0
   -9.3624   15.5517  -35.8285 C   0  0  0  0  0  0  0  0  0  0  0  0
  -10.5348   15.7870  -36.5160 C   0  0  0  0  0  0  0  0  0  0  0  0
   -8.6023   14.2930  -36.0109 C   0  0  0  0  0  0  0  0  0  0  0  0
  -13.3699   13.7449  -38.2950 C   0  0  0  0  0  0  0  0  0  0  0  0
  -10.9858   15.4449  -38.9678 C   0  0  0  0  0  0  0  0  0  0  0  0
   -9.0521   13.6023  -37.3147 C   0  0  0  0  0  0  0  0  0  0  0  0
  -13.7707   14.6688  -39.4519 C   0  0  0  0  0  0  0  0  0  0  0  0
  -12.0846   16.4389  -39.3858 C   0  0  0  0  0  0  0  0  0  0  0  0
  -13.5312   15.9477  -37.5382 C   0  0  0  0  0  0  0  0  0  0  0  0
  -12.7159   14.6840  -37.2603 C   0  0  2  0  0  0  0  0  0  0  0  0
  -11.1878   14.8886  -37.5350 C   0  0  2  0  0  0  0  0  0  0  0  0
  -10.5223   13.5463  -37.4409 N   0  0  0  0  0  0  0  0  0  0  0  0
  -13.4571   16.0424  -39.0056 N   0  0  2  0  0  0  0  0  0  0  0  0
  -11.0246   17.0149  -36.2177 O   0  0  0  0  0  0  0  0  0  0  0  0
   -8.3135   16.8746  -34.3508 H   0  0  0  0  0  0  0  0  0  0  0  0
  -10.4343   18.5419  -34.9514 H   0  0  0  0  0  0  0  0  0  0  0  0
   -7.5352   14.5287  -36.0707 H   0  0  0  0  0  0  0  0  0  0  0  0
   -8.7549   13.6208  -35.1630 H   0  0  0  0  0  0  0  0  0  0  0  0
  -14.2696   13.2928  -37.8601 H   0  0  0  0  0  0  0  0  0  0  0  0
  -12.7192   12.9309  -38.6249 H   0  0  0  0  0  0  0  0  0  0  0  0
  -10.9969   14.6182  -39.6915 H   0  0  0  0  0  0  0  0  0  0  0  0
  -10.0023   15.9201  -39.0759 H   0  0  0  0  0  0  0  0  0  0  0  0
   -8.6461   14.1522  -38.1680 H   0  0  0  0  0  0  0  0  0  0  0  0
   -8.6334   12.5937  -37.3726 H   0  0  0  0  0  0  0  0  0  0  0  0
  -13.2780   14.4013  -40.3930 H   0  0  0  0  0  0  0  0  0  0  0  0
  -14.8497   14.5860  -39.6278 H   0  0  0  0  0  0  0  0  0  0  0  0
  -11.8717   17.4274  -38.9591 H   0  0  0  0  0  0  0  0  0  0  0  0
  -12.0429   16.5804  -40.4734 H   0  0  0  0  0  0  0  0  0  0  0  0
  -14.5763   15.8137  -37.2284 H   0  0  0  0  0  0  0  0  0  0  0  0
  -13.1749   16.8492  -37.0336 H   0  0  0  0  0  0  0  0  0  0  0  0
  -12.8979   14.3245  -36.2411 H   0  0  0  0  0  0  0  0  0  0  0  0
  -10.7518   13.0055  -38.2785 H   0  0  0  0  0  0  0  0  0  0  0  0
  1  2  2  0  0  0  0
  1  3  1  0  0  0  0
  2 16  1  0  0  0  0
  3  4  2  0  0  0  0
  3  5  1  0  0  0  0
  4 13  1  0  0  0  0
  4 16  1  0  0  0  0
  5  8  1  0  0  0  0
  6  9  1  0  0  0  0
  6 12  1  0  0  0  0
  7 10  1  0  0  0  0
  7 13  1  0  0  0  0
  8 14  1  0  0  0  0
  9 15  1  0  0  0  0
 10 15  1  0  0  0  0
 11 12  1  0  0  0  0
 11 15  1  0  0  0  0
 12 13  1  0  0  0  0
 13 14  1  0  0  0  0
  1 17  1  0  0  0  0
  2 18  1  0  0  0  0
  5 19  1  0  0  0  0
  5 20  1  0  0  0  0
  6 21  1  0  0  0  0
  6 22  1  0  0  0  0
  7 23  1  0  0  0  0
  7 24  1  0  0  0  0
  8 25  1  0  0  0  0
  8 26  1  0  0  0  0
  9 27  1  0  0  0  0
  9 28  1  0  0  0  0
 10 29  1  0  0  0  0
 10 30  1  0  0  0  0
 11 31  1  0  0  0  0
 11 32  1  0  0  0  0
 12 33  1  0  0  0  0
 14 34  1  0  0  0  0
M  END
> <id>
EN300-1076680

> <smiles>
C1CN2CC1C3(CC2)NCCC=4C=COC43

> <IUPAC Name>
5',6'-dihydro-4'H-5-azaspiro[bicyclo[3.2.1]octane-2,7'-furo[2,3-c]pyridine]

> <CAS>
2253629-62-6

> <URL>
https://www.enaminestore.com/catalog/EN300-1076680

> <ROCS_ShapeQuery>
x1247relevant_x1083L0AP1_x1305L0BP1_

> <ROCS_TanimotoCombo>
0.824 

> <ROCS_ShapeTanimoto>
0.488 

> <ROCS_ColorTanimoto>
0.336 

> <ROCS_RefTversky>
0.424 

> <ROCS_RefColorTversky>
0.398 

> <ROCS_RefTverskyCombo>
0.821 

> <ROCS_FitTversky>
1.449 

> <ROCS_FitColorTversky>
0.686 

> <ROCS_FitTverskyCombo>
2.135 

> <ROCS_ColorScore>
-8.488

> <ROCS_Overlap>
1249.838

> <ROCS_Rank>
179                 

$$$$
untitled-dbase-15087_0
  -OEChem-06162310163D

 27 30  0     1  0  0  0  0  0999 V2000
  -13.5659   14.6679  -37.4472 C   0  0  0  0  0  0  0  0  0  0  0  0
  -12.5079   14.5048  -39.5889 C   0  0  0  0  0  0  0  0  0  0  0  0
  -11.9290   16.4073  -37.3534 C   0  0  0  0  0  0  0  0  0  0  0  0
   -9.0487   14.4015  -37.5047 C   0  0  0  0  0  0  0  0  0  0  0  0
   -9.4685   14.6164  -36.0771 C   0  0  0  0  0  0  0  0  0  0  0  0
  -13.1427   16.9335  -40.4785 C   0  0  0  0  0  0  0  0  0  0  0  0
  -12.2847   14.1219  -38.1000 C   0  0  1  0  0  0  0  0  0  0  0  0
  -13.3205   16.1021  -37.9468 C   0  0  1  0  0  0  0  0  0  0  0  0
  -13.1325   15.8626  -39.4240 C   0  0  2  0  0  0  0  0  0  0  0  0
  -11.2143   15.0382  -37.4536 C   0  0  0  0  0  0  0  0  0  0  0  0
  -14.2887   16.1024  -40.2332 O   0  0  0  0  0  0  0  0  0  0  0  0
  -10.0271   15.1301  -38.2430 O   0  0  0  0  0  0  0  0  0  0  0  0
  -10.8918   14.5496  -36.1427 O   0  0  0  0  0  0  0  0  0  0  0  0
  -14.4746   14.2177  -37.8612 H   0  0  0  0  0  0  0  0  0  0  0  0
  -13.5769   14.5849  -36.3558 H   0  0  0  0  0  0  0  0  0  0  0  0
  -11.5773   14.5343  -40.1620 H   0  0  0  0  0  0  0  0  0  0  0  0
  -13.2020   13.8038  -40.0656 H   0  0  0  0  0  0  0  0  0  0  0  0
  -11.4134   17.1914  -37.9180 H   0  0  0  0  0  0  0  0  0  0  0  0
  -12.0293   16.7260  -36.3097 H   0  0  0  0  0  0  0  0  0  0  0  0
   -8.0435   14.7705  -37.7228 H   0  0  0  0  0  0  0  0  0  0  0  0
   -9.1195   13.3470  -37.7925 H   0  0  0  0  0  0  0  0  0  0  0  0
   -9.0761   13.8627  -35.3902 H   0  0  0  0  0  0  0  0  0  0  0  0
   -9.1906   15.6143  -35.7205 H   0  0  0  0  0  0  0  0  0  0  0  0
  -13.1983   17.9672  -40.1632 H   0  0  0  0  0  0  0  0  0  0  0  0
  -12.5880   16.7634  -41.3919 H   0  0  0  0  0  0  0  0  0  0  0  0
  -12.1098   13.0551  -37.9433 H   0  0  0  0  0  0  0  0  0  0  0  0
  -14.0938   16.8278  -37.6861 H   0  0  0  0  0  0  0  0  0  0  0  0
  1  7  1  0  0  0  0
  1  8  1  0  0  0  0
  2  7  1  0  0  0  0
  2  9  1  0  0  0  0
  3  8  1  0  0  0  0
  3 10  1  0  0  0  0
  4  5  1  0  0  0  0
  4 12  1  0  0  0  0
  5 13  1  0  0  0  0
  6  9  1  0  0  0  0
  6 11  1  0  0  0  0
  7 10  1  0  0  0  0
  8  9  1  0  0  0  0
  9 11  1  0  0  0  0
 10 12  1  0  0  0  0
 10 13  1  0  0  0  0
  1 14  1  0  0  0  0
  1 15  1  0  0  0  0
  2 16  1  0  0  0  0
  2 17  1  0  0  0  0
  3 18  1  0  0  0  0
  3 19  1  0  0  0  0
  4 20  1  0  0  0  0
  4 21  1  0  0  0  0
  5 22  1  0  0  0  0
  5 23  1  0  0  0  0
  6 24  1  0  0  0  0
  6 25  1  0  0  0  0
  7 26  1  0  0  0  0
  8 27  1  0  0  0  0
M  END
> <id>
EN300-37408257

> <smiles>
C1OC12CC3CC2CC43OCCO4

> <IUPAC Name>
dispiro[1,3-dioxolane-2,2'-bicyclo[2.2.1]heptane-5',2''-oxirane]

> <URL>
https://www.enaminestore.com/catalog/EN300-37408257

> <ROCS_ShapeQuery>
x1247relevant_x1083L0AP1_x1305L0BP1_

> <ROCS_TanimotoCombo>
0.824 

> <ROCS_ShapeTanimoto>
0.496 

> <ROCS_ColorTanimoto>
0.329 

> <ROCS_RefTversky>
0.414 

> <ROCS_RefColorTversky>
0.374 

> <ROCS_RefTverskyCombo>
0.788 

> <ROCS_FitTversky>
1.662 

> <ROCS_FitColorTversky>
0.730 

> <ROCS_FitTverskyCombo>
2.391 

> <ROCS_ColorScore>
-7.964

> <ROCS_Overlap>
1217.467

> <ROCS_Rank>
180                 

$$$$
untitled-dbase-27893_0
  -OEChem-06162310163D

 27 30  0     1  0  0  0  0  0999 V2000
  -13.5663   14.6540  -37.4571 C   0  0  0  0  0  0  0  0  0  0  0  0
  -12.5007   14.5146  -39.5966 C   0  0  0  0  0  0  0  0  0  0  0  0
  -11.9397   16.4019  -37.3437 C   0  0  0  0  0  0  0  0  0  0  0  0
   -9.0470   14.4152  -37.5022 C   0  0  0  0  0  0  0  0  0  0  0  0
   -9.4728   14.6160  -36.0743 C   0  0  0  0  0  0  0  0  0  0  0  0
  -13.1471   16.9468  -40.4684 C   0  0  0  0  0  0  0  0  0  0  0  0
  -12.2799   14.1207  -38.1102 C   0  0  1  0  0  0  0  0  0  0  0  0
  -13.3276   16.0937  -37.9441 C   0  0  1  0  0  0  0  0  0  0  0  0
  -13.1337   15.8674  -39.4226 C   0  0  2  0  0  0  0  0  0  0  0  0
  -11.2168   15.0379  -37.4530 C   0  0  0  0  0  0  0  0  0  0  0  0
  -14.2889   16.1068  -40.2334 O   0  0  0  0  0  0  0  0  0  0  0  0
  -10.0278   15.1434  -38.2380 O   0  0  0  0  0  0  0  0  0  0  0  0
  -10.8954   14.5405  -36.1452 O   0  0  0  0  0  0  0  0  0  0  0  0
  -14.4710   14.2019  -37.8776 H   0  0  0  0  0  0  0  0  0  0  0  0
  -13.5802   14.5620  -36.3663 H   0  0  0  0  0  0  0  0  0  0  0  0
  -11.5685   14.5541  -40.1664 H   0  0  0  0  0  0  0  0  0  0  0  0
  -13.1892   13.8134  -40.0812 H   0  0  0  0  0  0  0  0  0  0  0  0
  -11.4268   17.1936  -37.9000 H   0  0  0  0  0  0  0  0  0  0  0  0
  -12.0450   16.7113  -36.2976 H   0  0  0  0  0  0  0  0  0  0  0  0
   -8.0436   14.7925  -37.7140 H   0  0  0  0  0  0  0  0  0  0  0  0
   -9.1100   13.3623  -37.7987 H   0  0  0  0  0  0  0  0  0  0  0  0
   -9.0777   13.8596  -35.3921 H   0  0  0  0  0  0  0  0  0  0  0  0
   -9.2028   15.6126  -35.7091 H   0  0  0  0  0  0  0  0  0  0  0  0
  -13.2099   17.9775  -40.1449 H   0  0  0  0  0  0  0  0  0  0  0  0
  -12.5886   16.7874  -41.3814 H   0  0  0  0  0  0  0  0  0  0  0  0
  -12.0993   13.0537  -37.9616 H   0  0  0  0  0  0  0  0  0  0  0  0
  -14.1058   16.8128  -37.6798 H   0  0  0  0  0  0  0  0  0  0  0  0
  1  7  1  0  0  0  0
  1  8  1  0  0  0  0
  2  7  1  6  0  0  0
  2  9  1  0  0  0  0
  3  8  1  6  0  0  0
  3 10  1  0  0  0  0
  4  5  1  0  0  0  0
  4 12  1  0  0  0  0
  5 13  1  0  0  0  0
  6  9  1  0  0  0  0
  6 11  1  0  0  0  0
  7 10  1  0  0  0  0
  8  9  1  0  0  0  0
  9 11  1  0  0  0  0
 10 12  1  0  0  0  0
 10 13  1  0  0  0  0
  1 14  1  0  0  0  0
  1 15  1  0  0  0  0
  2 16  1  0  0  0  0
  2 17  1  0  0  0  0
  3 18  1  0  0  0  0
  3 19  1  0  0  0  0
  4 20  1  0  0  0  0
  4 21  1  0  0  0  0
  5 22  1  0  0  0  0
  5 23  1  0  0  0  0
  6 24  1  0  0  0  0
  6 25  1  0  0  0  0
  7 26  1  0  0  0  0
  8 27  1  0  0  0  0
M  END
> <id>
EN300-7465897

> <smiles>
C1OC12C[C@@H]3C[C@H]2CC43OCCO4 |&1:4,6,r|

> <IUPAC Name>
rac-(1'R,4'R)-dispiro[1,3-dioxolane-2,2'-bicyclo[2.2.1]heptane-5',2''-oxirane]

> <Purity>
95

> <URL>
https://www.enaminestore.com/catalog/EN300-7465897

> <ROCS_ShapeQuery>
x1247relevant_x1083L0AP1_x1305L0BP1_

> <ROCS_TanimotoCombo>
0.824 

> <ROCS_ShapeTanimoto>
0.495 

> <ROCS_ColorTanimoto>
0.329 

> <ROCS_RefTversky>
0.414 

> <ROCS_RefColorTversky>
0.374 

> <ROCS_RefTverskyCombo>
0.788 

> <ROCS_FitTversky>
1.661 

> <ROCS_FitColorTversky>
0.730 

> <ROCS_FitTverskyCombo>
2.391 

> <ROCS_ColorScore>
-7.964

> <ROCS_Overlap>
1217.340

> <ROCS_Rank>
181                 

$$$$
untitled-dbase-35430_0
  -OEChem-06162310163D

 42 45  0     1  0  0  0  0  0999 V2000
  -11.5479   15.3591  -39.6333 C   0  0  0  0  0  0  0  0  0  0  0  0
  -12.5177   16.8035  -37.8766 C   0  0  0  0  0  0  0  0  0  0  0  0
   -8.0317   14.9559  -34.8501 C   0  0  0  0  0  0  0  0  0  0  0  0
   -9.7289   13.1450  -34.4663 C   0  0  0  0  0  0  0  0  0  0  0  0
  -12.9703   14.8143  -39.8389 C   0  0  0  0  0  0  0  0  0  0  0  0
  -13.8688   16.0860  -38.0021 C   0  0  0  0  0  0  0  0  0  0  0  0
   -9.2398   13.9604  -36.8260 C   0  0  0  0  0  0  0  0  0  0  0  0
  -12.9275   13.8972  -37.6180 C   0  0  0  0  0  0  0  0  0  0  0  0
   -8.0010   15.1489  -33.3383 C   0  0  0  0  0  0  0  0  0  0  0  0
   -9.5854   13.4293  -32.9734 C   0  0  0  0  0  0  0  0  0  0  0  0
  -10.4880   15.4427  -35.2650 C   0  0  0  0  0  0  0  0  0  0  0  0
  -11.3836   15.7987  -38.1667 C   0  0  0  0  0  0  0  0  0  0  0  0
   -9.3759   14.3756  -35.3422 C   0  0  0  0  0  0  0  0  0  0  0  0
  -11.5653   14.5596  -37.2329 C   0  0  2  0  0  0  0  0  0  0  0  0
  -10.5145   13.5395  -37.4082 N   0  0  0  0  0  0  0  0  0  0  0  0
  -13.7136   14.7283  -38.5624 N   0  0  0  0  0  0  0  0  0  0  0  0
   -8.2828   13.9218  -32.6697 O   0  0  0  0  0  0  0  0  0  0  0  0
  -11.6984   14.9663  -35.8560 O   0  0  0  0  0  0  0  0  0  0  0  0
  -10.8016   14.6122  -39.9205 H   0  0  0  0  0  0  0  0  0  0  0  0
  -11.3915   16.2204  -40.2949 H   0  0  0  0  0  0  0  0  0  0  0  0
  -12.4679   17.6354  -38.5900 H   0  0  0  0  0  0  0  0  0  0  0  0
  -12.4133   17.2379  -36.8762 H   0  0  0  0  0  0  0  0  0  0  0  0
   -7.8091   15.9056  -35.3507 H   0  0  0  0  0  0  0  0  0  0  0  0
   -7.2288   14.2563  -35.1190 H   0  0  0  0  0  0  0  0  0  0  0  0
   -9.0376   12.3298  -34.7188 H   0  0  0  0  0  0  0  0  0  0  0  0
  -10.7409   12.7788  -34.6731 H   0  0  0  0  0  0  0  0  0  0  0  0
  -13.5195   15.4494  -40.5455 H   0  0  0  0  0  0  0  0  0  0  0  0
  -12.9245   13.8242  -40.3091 H   0  0  0  0  0  0  0  0  0  0  0  0
  -14.3587   16.0280  -37.0218 H   0  0  0  0  0  0  0  0  0  0  0  0
  -14.5449   16.6743  -38.6346 H   0  0  0  0  0  0  0  0  0  0  0  0
   -8.8152   14.7824  -37.4155 H   0  0  0  0  0  0  0  0  0  0  0  0
   -8.5312   13.1282  -36.9162 H   0  0  0  0  0  0  0  0  0  0  0  0
  -12.7823   12.9107  -38.0797 H   0  0  0  0  0  0  0  0  0  0  0  0
  -13.5325   13.7061  -36.7217 H   0  0  0  0  0  0  0  0  0  0  0  0
   -7.0012   15.4710  -33.0294 H   0  0  0  0  0  0  0  0  0  0  0  0
   -8.7063   15.9196  -33.0082 H   0  0  0  0  0  0  0  0  0  0  0  0
  -10.3391   14.1399  -32.6168 H   0  0  0  0  0  0  0  0  0  0  0  0
   -9.7266   12.5015  -32.4094 H   0  0  0  0  0  0  0  0  0  0  0  0
  -10.7231   15.7106  -34.2310 H   0  0  0  0  0  0  0  0  0  0  0  0
  -10.1837   16.3722  -35.7597 H   0  0  0  0  0  0  0  0  0  0  0  0
  -10.4188   16.2950  -38.0238 H   0  0  0  0  0  0  0  0  0  0  0  0
  -10.3898   13.2986  -38.3885 H   0  0  0  0  0  0  0  0  0  0  0  0
  1  5  1  0  0  0  0
  1 12  1  0  0  0  0
  2  6  1  0  0  0  0
  2 12  1  0  0  0  0
  3  9  1  0  0  0  0
  3 13  1  0  0  0  0
  4 10  1  0  0  0  0
  4 13  1  0  0  0  0
  5 16  1  0  0  0  0
  6 16  1  0  0  0  0
  7 13  1  0  0  0  0
  7 15  1  0  0  0  0
  8 14  1  0  0  0  0
  8 16  1  0  0  0  0
  9 17  1  0  0  0  0
 10 17  1  0  0  0  0
 11 13  1  0  0  0  0
 11 18  1  0  0  0  0
 12 14  1  0  0  0  0
 14 15  1  0  0  0  0
 14 18  1  0  0  0  0
  1 19  1  0  0  0  0
  1 20  1  0  0  0  0
  2 21  1  0  0  0  0
  2 22  1  0  0  0  0
  3 23  1  0  0  0  0
  3 24  1  0  0  0  0
  4 25  1  0  0  0  0
  4 26  1  0  0  0  0
  5 27  1  0  0  0  0
  5 28  1  0  0  0  0
  6 29  1  0  0  0  0
  6 30  1  0  0  0  0
  7 31  1  0  0  0  0
  7 32  1  0  0  0  0
  8 33  1  0  0  0  0
  8 34  1  0  0  0  0
  9 35  1  0  0  0  0
  9 36  1  0  0  0  0
 10 37  1  0  0  0  0
 10 38  1  0  0  0  0
 11 39  1  0  0  0  0
 11 40  1  0  0  0  0
 12 41  1  0  0  0  0
 15 42  1  0  0  0  0
M  END
> <id>
EN300-1278969

> <smiles>
C1CC2(CCO1)CNC3(CN4CCC3CC4)OC2

> <IUPAC Name>
dispiro[4-azabicyclo[2.2.2]octane-2,2'-[1,3]oxazinane-5',4''-oxane]

> <CAS>
2172372-50-6

> <URL>
https://www.enaminestore.com/catalog/EN300-1278969

> <ROCS_ShapeQuery>
x1247relevant_x1083L0AP1_x1305L0BP1_

> <ROCS_TanimotoCombo>
0.824 

> <ROCS_ShapeTanimoto>
0.466 

> <ROCS_ColorTanimoto>
0.358 

> <ROCS_RefTversky>
0.418 

> <ROCS_RefColorTversky>
0.430 

> <ROCS_RefTverskyCombo>
0.848 

> <ROCS_FitTversky>
1.329 

> <ROCS_FitColorTversky>
0.681 

> <ROCS_FitTverskyCombo>
2.010 

> <ROCS_ColorScore>
-9.200

> <ROCS_Overlap>
1234.359

> <ROCS_Rank>
182                 

$$$$
untitled-dbase-53388_1
  -OEChem-06162310163D

 21 23  0     1  0  0  0  0  0999 V2000
  -13.8930   16.1346  -38.1585 C   0  0  0  0  0  0  0  0  0  0  0  0
  -13.3628   16.1126  -39.3884 C   0  0  0  0  0  0  0  0  0  0  0  0
  -10.9467   14.4180  -36.3261 C   0  0  0  0  0  0  0  0  0  0  0  0
  -10.0300   14.3803  -38.4523 C   0  0  0  0  0  0  0  0  0  0  0  0
  -13.2093   15.0373  -37.3954 C   0  0  2  0  0  0  0  0  0  0  0  0
  -12.3529   15.0018  -39.3819 C   0  0  1  0  0  0  0  0  0  0  0  0
  -11.7521   15.4549  -37.1047 C   0  0  2  0  0  0  0  0  0  0  0  0
  -11.1356   15.4295  -38.5347 C   0  0  1  0  0  0  0  0  0  0  0  0
  -10.3898   13.5052  -37.3308 N   0  0  0  0  0  0  0  0  0  0  0  0
  -13.0110   14.0814  -38.4710 O   0  0  0  0  0  0  0  0  0  0  0  0
  -14.6126   16.8404  -37.7777 H   0  0  0  0  0  0  0  0  0  0  0  0
  -13.5711   16.7967  -40.1946 H   0  0  0  0  0  0  0  0  0  0  0  0
  -10.1259   14.9122  -35.7919 H   0  0  0  0  0  0  0  0  0  0  0  0
  -11.5523   13.8790  -35.5914 H   0  0  0  0  0  0  0  0  0  0  0  0
   -9.9178   13.8121  -39.3803 H   0  0  0  0  0  0  0  0  0  0  0  0
   -9.0721   14.8691  -38.2363 H   0  0  0  0  0  0  0  0  0  0  0  0
  -13.7810   14.6041  -36.5732 H   0  0  0  0  0  0  0  0  0  0  0  0
  -12.1534   14.5366  -40.3485 H   0  0  0  0  0  0  0  0  0  0  0  0
  -11.6917   16.4389  -36.6265 H   0  0  0  0  0  0  0  0  0  0  0  0
  -10.7340   16.3993  -38.8485 H   0  0  0  0  0  0  0  0  0  0  0  0
   -9.5681   13.0256  -36.9676 H   0  0  0  0  0  0  0  0  0  0  0  0
  1  2  2  0  0  0  0
  1  5  1  0  0  0  0
  2  6  1  0  0  0  0
  3  7  1  0  0  0  0
  3  9  1  0  0  0  0
  4  8  1  0  0  0  0
  4  9  1  0  0  0  0
  5  7  1  0  0  0  0
  5 10  1  0  0  0  0
  6  8  1  0  0  0  0
  6 10  1  0  0  0  0
  7  8  1  0  0  0  0
  1 11  1  0  0  0  0
  2 12  1  0  0  0  0
  3 13  1  0  0  0  0
  3 14  1  0  0  0  0
  4 15  1  0  0  0  0
  4 16  1  0  0  0  0
  5 17  1  0  0  0  0
  6 18  1  0  0  0  0
  7 19  1  0  0  0  0
  8 20  1  0  0  0  0
  9 21  1  0  0  0  0
M  END
> <id>
EN300-243964

> <smiles>
Cl.C1NCC2C1C3OC2C=C3

> <MDLNUMBER>
MFCD29041106

> <IUPAC Name>
10-oxa-4-azatricyclo[5.2.1.0,2,6]dec-8-ene hydrochloride

> <CAS>
1864058-33-2

> <Purity>
95

> <URL>
https://www.enaminestore.com/catalog/EN300-243964

> <Saltdate>
Cl

> <ROCS_ShapeQuery>
x1247relevant_x1083L0AP1_x1305L0BP1_

> <ROCS_TanimotoCombo>
0.824 

> <ROCS_ShapeTanimoto>
0.415 

> <ROCS_ColorTanimoto>
0.410 

> <ROCS_RefTversky>
0.353 

> <ROCS_RefColorTversky>
0.442 

> <ROCS_RefTverskyCombo>
0.795 

> <ROCS_FitTversky>
1.729 

> <ROCS_FitColorTversky>
0.849 

> <ROCS_FitTverskyCombo>
2.578 

> <ROCS_ColorScore>
-9.404

> <ROCS_Overlap>
1035.457

> <ROCS_Rank>
183                 

$$$$
untitled-dbase-31785_1
  -OEChem-06162310163D

 21 23  0     1  0  0  0  0  0999 V2000
  -13.8930   16.1346  -38.1585 C   0  0  0  0  0  0  0  0  0  0  0  0
  -13.3628   16.1126  -39.3884 C   0  0  0  0  0  0  0  0  0  0  0  0
  -10.9467   14.4180  -36.3261 C   0  0  0  0  0  0  0  0  0  0  0  0
  -10.0300   14.3803  -38.4523 C   0  0  0  0  0  0  0  0  0  0  0  0
  -13.2093   15.0373  -37.3954 C   0  0  2  0  0  0  0  0  0  0  0  0
  -12.3529   15.0018  -39.3819 C   0  0  1  0  0  0  0  0  0  0  0  0
  -11.7521   15.4549  -37.1047 C   0  0  2  0  0  0  0  0  0  0  0  0
  -11.1356   15.4295  -38.5347 C   0  0  1  0  0  0  0  0  0  0  0  0
  -10.3898   13.5052  -37.3308 N   0  0  0  0  0  0  0  0  0  0  0  0
  -13.0110   14.0814  -38.4710 O   0  0  0  0  0  0  0  0  0  0  0  0
  -14.6126   16.8404  -37.7777 H   0  0  0  0  0  0  0  0  0  0  0  0
  -13.5711   16.7967  -40.1946 H   0  0  0  0  0  0  0  0  0  0  0  0
  -10.1259   14.9122  -35.7919 H   0  0  0  0  0  0  0  0  0  0  0  0
  -11.5523   13.8790  -35.5914 H   0  0  0  0  0  0  0  0  0  0  0  0
   -9.9178   13.8121  -39.3803 H   0  0  0  0  0  0  0  0  0  0  0  0
   -9.0721   14.8691  -38.2363 H   0  0  0  0  0  0  0  0  0  0  0  0
  -13.7810   14.6041  -36.5732 H   0  0  0  0  0  0  0  0  0  0  0  0
  -12.1534   14.5366  -40.3485 H   0  0  0  0  0  0  0  0  0  0  0  0
  -11.6917   16.4389  -36.6265 H   0  0  0  0  0  0  0  0  0  0  0  0
  -10.7340   16.3993  -38.8485 H   0  0  0  0  0  0  0  0  0  0  0  0
   -9.5681   13.0256  -36.9676 H   0  0  0  0  0  0  0  0  0  0  0  0
  1  2  2  0  0  0  0
  1  5  1  0  0  0  0
  2  6  1  0  0  0  0
  3  7  1  0  0  0  0
  3  9  1  0  0  0  0
  4  8  1  0  0  0  0
  4  9  1  0  0  0  0
  5  7  1  0  0  0  0
  5 10  1  0  0  0  0
  6  8  1  0  0  0  0
  6 10  1  0  0  0  0
  7  8  1  0  0  0  0
  1 11  1  0  0  0  0
  2 12  1  0  0  0  0
  3 13  1  0  0  0  0
  3 14  1  0  0  0  0
  4 15  1  0  0  0  0
  4 16  1  0  0  0  0
  5 17  1  0  0  0  0
  6 18  1  0  0  0  0
  7 19  1  0  0  0  0
  8 20  1  0  0  0  0
  9 21  1  0  0  0  0
M  END
> <id>
EN300-243965

> <smiles>
C1NCC2C1C3OC2C=C3

> <MDLNUMBER>
MFCD29041107

> <IUPAC Name>
10-oxa-4-azatricyclo[5.2.1.0,2,6]dec-8-ene

> <CAS>
53209-42-0

> <URL>
https://www.enaminestore.com/catalog/EN300-243965

> <ROCS_ShapeQuery>
x1247relevant_x1083L0AP1_x1305L0BP1_

> <ROCS_TanimotoCombo>
0.824 

> <ROCS_ShapeTanimoto>
0.415 

> <ROCS_ColorTanimoto>
0.410 

> <ROCS_RefTversky>
0.353 

> <ROCS_RefColorTversky>
0.442 

> <ROCS_RefTverskyCombo>
0.795 

> <ROCS_FitTversky>
1.729 

> <ROCS_FitColorTversky>
0.849 

> <ROCS_FitTverskyCombo>
2.578 

> <ROCS_ColorScore>
-9.404

> <ROCS_Overlap>
1035.457

> <ROCS_Rank>
184                 

$$$$
untitled-dbase-49693_0
  -OEChem-06162310163D

 29 31  0     1  0  0  0  0  0999 V2000
  -12.9422   14.8103  -36.5187 C   0  0  0  0  0  0  0  0  0  0  0  0
  -11.2648   16.3724  -37.5543 C   0  0  0  0  0  0  0  0  0  0  0  0
  -13.7069   16.6504  -38.0360 C   0  0  0  0  0  0  0  0  0  0  0  0
  -13.8310   14.2584  -38.7903 C   0  0  0  0  0  0  0  0  0  0  0  0
  -12.1579   15.8217  -39.8248 C   0  0  0  0  0  0  0  0  0  0  0  0
  -12.6802   16.2614  -36.9601 C   0  0  0  0  0  0  0  0  0  0  0  0
  -12.7980   13.8526  -37.7203 C   0  0  1  0  0  0  0  0  0  0  0  0
  -11.1170   15.4217  -38.7605 C   0  0  2  0  0  0  0  0  0  0  0  0
  -11.3846   13.9525  -38.3467 C   0  0  0  0  0  0  0  0  0  0  0  0
  -13.5788   15.7077  -39.2452 C   0  0  0  0  0  0  0  0  0  0  0  0
  -10.3552   13.4332  -37.4448 N   0  0  0  0  0  0  0  0  0  0  0  0
  -14.5350   16.0817  -40.2265 O   0  0  0  0  0  0  0  0  0  0  0  0
  -12.2528   14.5314  -35.7140 H   0  0  0  0  0  0  0  0  0  0  0  0
  -13.9534   14.7277  -36.1006 H   0  0  0  0  0  0  0  0  0  0  0  0
  -11.0776   17.4056  -37.8733 H   0  0  0  0  0  0  0  0  0  0  0  0
  -10.5155   16.1461  -36.7876 H   0  0  0  0  0  0  0  0  0  0  0  0
  -14.7256   16.6063  -37.6289 H   0  0  0  0  0  0  0  0  0  0  0  0
  -13.5593   17.6918  -38.3502 H   0  0  0  0  0  0  0  0  0  0  0  0
  -13.7800   13.5773  -39.6496 H   0  0  0  0  0  0  0  0  0  0  0  0
  -14.8508   14.1593  -38.3962 H   0  0  0  0  0  0  0  0  0  0  0  0
  -11.9746   16.8461  -40.1743 H   0  0  0  0  0  0  0  0  0  0  0  0
  -12.0589   15.1855  -40.7139 H   0  0  0  0  0  0  0  0  0  0  0  0
  -12.7749   16.9334  -36.0998 H   0  0  0  0  0  0  0  0  0  0  0  0
  -12.9984   12.8237  -37.3980 H   0  0  0  0  0  0  0  0  0  0  0  0
  -10.1109   15.5195  -39.1858 H   0  0  0  0  0  0  0  0  0  0  0  0
  -11.3552   13.3221  -39.2448 H   0  0  0  0  0  0  0  0  0  0  0  0
  -10.5765   12.4894  -37.2371 H   0  0  0  0  0  0  0  0  0  0  0  0
   -9.4810   13.4974  -37.9079 H   0  0  0  0  0  0  0  0  0  0  0  0
  -14.4269   15.4691  -40.9723 H   0  0  0  0  0  0  0  0  0  0  0  0
  1  6  1  0  0  0  0
  1  7  1  0  0  0  0
  2  6  1  0  0  0  0
  2  8  1  0  0  0  0
  3  6  1  0  0  0  0
  3 10  1  0  0  0  0
  4  7  1  0  0  0  0
  4 10  1  0  0  0  0
  5  8  1  0  0  0  0
  5 10  1  0  0  0  0
  7  9  1  0  0  0  0
  8  9  1  0  0  0  0
  9 11  1  6  0  0  0
 10 12  1  1  0  0  0
  1 13  1  0  0  0  0
  1 14  1  0  0  0  0
  2 15  1  0  0  0  0
  2 16  1  0  0  0  0
  3 17  1  0  0  0  0
  3 18  1  0  0  0  0
  4 19  1  0  0  0  0
  4 20  1  0  0  0  0
  5 21  1  0  0  0  0
  5 22  1  0  0  0  0
  6 23  1  0  0  0  0
  7 24  1  0  0  0  0
  8 25  1  0  0  0  0
  9 26  1  0  0  0  0
 11 27  1  0  0  0  0
 11 28  1  0  0  0  0
 12 29  1  0  0  0  0
M  END
> <id>
EN300-6490144

> <smiles>
Cl.N[C@H]1C2CC3CC1C[C@](O)(C3)C2

> <IUPAC Name>
(1r,4s)-4-aminoadamantan-1-ol hydrochloride

> <Purity>
95

> <URL>
https://www.enaminestore.com/catalog/EN300-6490144

> <Saltdate>
Cl

> <ROCS_ShapeQuery>
x1247relevant_x1083L0AP1_x1305L0BP1_

> <ROCS_TanimotoCombo>
0.824 

> <ROCS_ShapeTanimoto>
0.425 

> <ROCS_ColorTanimoto>
0.399 

> <ROCS_RefTversky>
0.366 

> <ROCS_RefColorTversky>
0.433 

> <ROCS_RefTverskyCombo>
0.799 

> <ROCS_FitTversky>
1.618 

> <ROCS_FitColorTversky>
0.836 

> <ROCS_FitTverskyCombo>
2.453 

> <ROCS_ColorScore>
-9.219

> <ROCS_Overlap>
1074.000

> <ROCS_Rank>
185                 

$$$$
untitled-dbase-24933_0
  -OEChem-06162310163D

 29 31  0     1  0  0  0  0  0999 V2000
  -12.9422   14.8103  -36.5187 C   0  0  0  0  0  0  0  0  0  0  0  0
  -11.2648   16.3724  -37.5543 C   0  0  0  0  0  0  0  0  0  0  0  0
  -13.7069   16.6504  -38.0360 C   0  0  0  0  0  0  0  0  0  0  0  0
  -13.8310   14.2584  -38.7903 C   0  0  0  0  0  0  0  0  0  0  0  0
  -12.1579   15.8217  -39.8248 C   0  0  0  0  0  0  0  0  0  0  0  0
  -12.6802   16.2614  -36.9601 C   0  0  0  0  0  0  0  0  0  0  0  0
  -12.7980   13.8526  -37.7203 C   0  0  1  0  0  0  0  0  0  0  0  0
  -11.1170   15.4217  -38.7605 C   0  0  2  0  0  0  0  0  0  0  0  0
  -11.3846   13.9525  -38.3467 C   0  0  0  0  0  0  0  0  0  0  0  0
  -13.5788   15.7077  -39.2452 C   0  0  0  0  0  0  0  0  0  0  0  0
  -10.3552   13.4332  -37.4448 N   0  0  0  0  0  0  0  0  0  0  0  0
  -14.5350   16.0817  -40.2265 O   0  0  0  0  0  0  0  0  0  0  0  0
  -12.2528   14.5314  -35.7140 H   0  0  0  0  0  0  0  0  0  0  0  0
  -13.9534   14.7277  -36.1006 H   0  0  0  0  0  0  0  0  0  0  0  0
  -11.0776   17.4056  -37.8733 H   0  0  0  0  0  0  0  0  0  0  0  0
  -10.5155   16.1461  -36.7876 H   0  0  0  0  0  0  0  0  0  0  0  0
  -14.7256   16.6063  -37.6289 H   0  0  0  0  0  0  0  0  0  0  0  0
  -13.5593   17.6918  -38.3502 H   0  0  0  0  0  0  0  0  0  0  0  0
  -13.7800   13.5773  -39.6496 H   0  0  0  0  0  0  0  0  0  0  0  0
  -14.8508   14.1593  -38.3962 H   0  0  0  0  0  0  0  0  0  0  0  0
  -11.9746   16.8461  -40.1743 H   0  0  0  0  0  0  0  0  0  0  0  0
  -12.0589   15.1855  -40.7139 H   0  0  0  0  0  0  0  0  0  0  0  0
  -12.7749   16.9334  -36.0998 H   0  0  0  0  0  0  0  0  0  0  0  0
  -12.9984   12.8237  -37.3980 H   0  0  0  0  0  0  0  0  0  0  0  0
  -10.1109   15.5195  -39.1858 H   0  0  0  0  0  0  0  0  0  0  0  0
  -11.3552   13.3221  -39.2448 H   0  0  0  0  0  0  0  0  0  0  0  0
  -10.5765   12.4894  -37.2371 H   0  0  0  0  0  0  0  0  0  0  0  0
   -9.4810   13.4974  -37.9079 H   0  0  0  0  0  0  0  0  0  0  0  0
  -14.4269   15.4691  -40.9723 H   0  0  0  0  0  0  0  0  0  0  0  0
  1  6  1  0  0  0  0
  1  7  1  0  0  0  0
  2  6  1  0  0  0  0
  2  8  1  0  0  0  0
  3  6  1  0  0  0  0
  3 10  1  0  0  0  0
  4  7  1  0  0  0  0
  4 10  1  0  0  0  0
  5  8  1  0  0  0  0
  5 10  1  0  0  0  0
  7  9  1  0  0  0  0
  8  9  1  0  0  0  0
  9 11  1  6  0  0  0
 10 12  1  1  0  0  0
  1 13  1  0  0  0  0
  1 14  1  0  0  0  0
  2 15  1  0  0  0  0
  2 16  1  0  0  0  0
  3 17  1  0  0  0  0
  3 18  1  0  0  0  0
  4 19  1  0  0  0  0
  4 20  1  0  0  0  0
  5 21  1  0  0  0  0
  5 22  1  0  0  0  0
  6 23  1  0  0  0  0
  7 24  1  0  0  0  0
  8 25  1  0  0  0  0
  9 26  1  0  0  0  0
 11 27  1  0  0  0  0
 11 28  1  0  0  0  0
 12 29  1  0  0  0  0
M  END
> <id>
EN300-6490145

> <smiles>
N[C@H]1C2CC3CC1C[C@](O)(C3)C2

> <MDLNUMBER>
MFCD16879080

> <IUPAC Name>
(1r,4s)-4-aminoadamantan-1-ol

> <URL>
https://www.enaminestore.com/catalog/EN300-6490145

> <MP>
230-235

> <ROCS_ShapeQuery>
x1247relevant_x1083L0AP1_x1305L0BP1_

> <ROCS_TanimotoCombo>
0.824 

> <ROCS_ShapeTanimoto>
0.425 

> <ROCS_ColorTanimoto>
0.399 

> <ROCS_RefTversky>
0.366 

> <ROCS_RefColorTversky>
0.433 

> <ROCS_RefTverskyCombo>
0.799 

> <ROCS_FitTversky>
1.618 

> <ROCS_FitColorTversky>
0.836 

> <ROCS_FitTverskyCombo>
2.453 

> <ROCS_ColorScore>
-9.219

> <ROCS_Overlap>
1074.000

> <ROCS_Rank>
186                 

$$$$
untitled-dbase-27509_0
  -OEChem-06162310163D

 31 34  0     0  0  0  0  0  0999 V2000
   -9.3921   14.2005  -36.5639 C   0  0  0  0  0  0  0  0  0  0  0  0
  -10.0470   15.5860  -36.6615 C   0  0  0  0  0  0  0  0  0  0  0  0
  -14.1441   15.6083  -39.2376 C   0  0  0  0  0  0  0  0  0  0  0  0
  -13.1914   16.1955  -36.9913 C   0  0  0  0  0  0  0  0  0  0  0  0
  -11.8755   16.6700  -39.0800 C   0  0  0  0  0  0  0  0  0  0  0  0
  -13.4048   13.7883  -37.6762 C   0  0  0  0  0  0  0  0  0  0  0  0
  -12.0922   14.2616  -39.7599 C   0  0  0  0  0  0  0  0  0  0  0  0
  -13.2888   16.6274  -38.4673 C   0  0  0  0  0  0  0  0  0  0  0  0
  -13.5053   14.2125  -39.1523 C   0  0  0  0  0  0  0  0  0  0  0  0
  -12.5493   14.7981  -36.8877 C   0  0  0  0  0  0  0  0  0  0  0  0
  -11.2191   15.2777  -38.9993 C   0  0  0  0  0  0  0  0  0  0  0  0
  -11.1463   14.8775  -37.5151 C   0  0  0  0  0  0  0  0  0  0  0  0
  -10.3801   13.6456  -37.3123 N   0  0  0  0  0  0  0  0  0  0  0  0
   -8.4024   13.7362  -36.0467 O   0  0  0  0  0  0  0  0  0  0  0  0
  -10.3656   15.9839  -35.6941 H   0  0  0  0  0  0  0  0  0  0  0  0
   -9.4283   16.3221  -37.1821 H   0  0  0  0  0  0  0  0  0  0  0  0
  -15.1593   15.5816  -38.8229 H   0  0  0  0  0  0  0  0  0  0  0  0
  -14.2368   15.9142  -40.2870 H   0  0  0  0  0  0  0  0  0  0  0  0
  -12.5999   16.9294  -36.4310 H   0  0  0  0  0  0  0  0  0  0  0  0
  -14.1911   16.1804  -36.5403 H   0  0  0  0  0  0  0  0  0  0  0  0
  -11.9321   16.9950  -40.1261 H   0  0  0  0  0  0  0  0  0  0  0  0
  -11.2658   17.4104  -38.5486 H   0  0  0  0  0  0  0  0  0  0  0  0
  -14.4084   13.7301  -37.2371 H   0  0  0  0  0  0  0  0  0  0  0  0
  -12.9719   12.7832  -37.6084 H   0  0  0  0  0  0  0  0  0  0  0  0
  -11.6388   13.2639  -39.7244 H   0  0  0  0  0  0  0  0  0  0  0  0
  -12.1523   14.5437  -40.8184 H   0  0  0  0  0  0  0  0  0  0  0  0
  -13.7487   17.6199  -38.5316 H   0  0  0  0  0  0  0  0  0  0  0  0
  -14.1192   13.4910  -39.7029 H   0  0  0  0  0  0  0  0  0  0  0  0
  -12.4971   14.4937  -35.8354 H   0  0  0  0  0  0  0  0  0  0  0  0
  -10.2200   15.3148  -39.4500 H   0  0  0  0  0  0  0  0  0  0  0  0
  -10.5089   12.6885  -37.6111 H   0  0  0  0  0  0  0  0  0  0  0  0
  1  2  1  0  0  0  0
  1 13  1  0  0  0  0
  1 14  2  0  0  0  0
  2 12  1  0  0  0  0
  3  8  1  0  0  0  0
  3  9  1  0  0  0  0
  4  8  1  0  0  0  0
  4 10  1  0  0  0  0
  5  8  1  0  0  0  0
  5 11  1  0  0  0  0
  6  9  1  0  0  0  0
  6 10  1  0  0  0  0
  7  9  1  0  0  0  0
  7 11  1  0  0  0  0
 10 12  1  0  0  0  0
 11 12  1  0  0  0  0
 12 13  1  0  0  0  0
  2 15  1  0  0  0  0
  2 16  1  0  0  0  0
  3 17  1  0  0  0  0
  3 18  1  0  0  0  0
  4 19  1  0  0  0  0
  4 20  1  0  0  0  0
  5 21  1  0  0  0  0
  5 22  1  0  0  0  0
  6 23  1  0  0  0  0
  6 24  1  0  0  0  0
  7 25  1  0  0  0  0
  7 26  1  0  0  0  0
  8 27  1  0  0  0  0
  9 28  1  0  0  0  0
 10 29  1  0  0  0  0
 11 30  1  0  0  0  0
 13 31  1  0  0  0  0
M  END
> <id>
EN300-7465223

> <smiles>
O=C1CC2(N1)C3CC4CC(C3)CC2C4

> <IUPAC Name>
spiro[adamantane-2,2'-azetidine]-4'-one

> <CAS>
59592-02-8

> <Purity>
95

> <URL>
https://www.enaminestore.com/catalog/EN300-7465223

> <MP>
153-156

> <ROCS_ShapeQuery>
x1247relevant_x1083L0AP1_x1305L0BP1_

> <ROCS_TanimotoCombo>
0.824 

> <ROCS_ShapeTanimoto>
0.505 

> <ROCS_ColorTanimoto>
0.319 

> <ROCS_RefTversky>
0.423 

> <ROCS_RefColorTversky>
0.357 

> <ROCS_RefTverskyCombo>
0.780 

> <ROCS_FitTversky>
1.621 

> <ROCS_FitColorTversky>
0.750 

> <ROCS_FitTverskyCombo>
2.371 

> <ROCS_ColorScore>
-7.576

> <ROCS_Overlap>
1245.310

> <ROCS_Rank>
187                 

$$$$
untitled-dbase-39887_0
  -OEChem-06162310163D

 35 38  0     1  0  0  0  0  0999 V2000
   -9.0495   16.4113  -34.7391 C   0  0  0  0  0  0  0  0  0  0  0  0
  -10.0902   17.2291  -34.3664 C   0  0  0  0  0  0  0  0  0  0  0  0
   -9.4229   15.5107  -35.7803 C   0  0  0  0  0  0  0  0  0  0  0  0
  -10.7405   15.6833  -36.1821 C   0  0  0  0  0  0  0  0  0  0  0  0
   -8.5468   14.4558  -36.3759 C   0  0  0  0  0  0  0  0  0  0  0  0
  -13.3685   14.1576  -39.3867 C   0  0  0  0  0  0  0  0  0  0  0  0
  -13.8853   16.2991  -38.1932 C   0  0  0  0  0  0  0  0  0  0  0  0
  -12.0035   14.7383  -39.7817 C   0  0  0  0  0  0  0  0  0  0  0  0
  -12.5024   16.8294  -38.5864 C   0  0  0  0  0  0  0  0  0  0  0  0
  -12.8523   14.3957  -36.9400 C   0  0  0  0  0  0  0  0  0  0  0  0
   -9.1564   13.8758  -37.6554 C   0  0  0  0  0  0  0  0  0  0  0  0
  -13.8477   14.7693  -38.0588 C   0  0  0  0  0  0  0  0  0  0  0  0
  -11.4838   15.6693  -38.6570 C   0  0  0  0  0  0  0  0  0  0  0  0
  -11.4069   14.8689  -37.3001 C   0  0  1  0  0  0  0  0  0  0  0  0
  -10.5966   13.6239  -37.5055 N   0  0  0  0  0  0  0  0  0  0  0  0
  -11.5086   16.9031  -35.2578 S   0  0  0  0  0  0  0  0  0  0  0  0
   -8.0707   16.4492  -34.2784 H   0  0  0  0  0  0  0  0  0  0  0  0
  -10.0859   17.9958  -33.6044 H   0  0  0  0  0  0  0  0  0  0  0  0
   -7.5525   14.8629  -36.5927 H   0  0  0  0  0  0  0  0  0  0  0  0
   -8.4197   13.6548  -35.6366 H   0  0  0  0  0  0  0  0  0  0  0  0
  -14.0983   14.3551  -40.1810 H   0  0  0  0  0  0  0  0  0  0  0  0
  -13.2949   13.0675  -39.2926 H   0  0  0  0  0  0  0  0  0  0  0  0
  -14.2068   16.7548  -37.2494 H   0  0  0  0  0  0  0  0  0  0  0  0
  -14.6232   16.5942  -38.9489 H   0  0  0  0  0  0  0  0  0  0  0  0
  -11.2951   13.9444  -40.0382 H   0  0  0  0  0  0  0  0  0  0  0  0
  -12.1177   15.3172  -40.7080 H   0  0  0  0  0  0  0  0  0  0  0  0
  -12.5711   17.3195  -39.5665 H   0  0  0  0  0  0  0  0  0  0  0  0
  -12.1782   17.6160  -37.9010 H   0  0  0  0  0  0  0  0  0  0  0  0
  -13.2064   14.8082  -35.9890 H   0  0  0  0  0  0  0  0  0  0  0  0
  -12.8849   13.3066  -36.7957 H   0  0  0  0  0  0  0  0  0  0  0  0
   -8.9627   14.5355  -38.5083 H   0  0  0  0  0  0  0  0  0  0  0  0
   -8.6541   12.9286  -37.8835 H   0  0  0  0  0  0  0  0  0  0  0  0
  -14.8447   14.3899  -37.8091 H   0  0  0  0  0  0  0  0  0  0  0  0
  -10.5077   16.0799  -38.9397 H   0  0  0  0  0  0  0  0  0  0  0  0
  -10.9476   13.0686  -38.2803 H   0  0  0  0  0  0  0  0  0  0  0  0
  1  2  2  0  0  0  0
  1  3  1  0  0  0  0
  2 16  1  0  0  0  0
  3  4  2  0  0  0  0
  3  5  1  0  0  0  0
  4 14  1  0  0  0  0
  4 16  1  0  0  0  0
  5 11  1  0  0  0  0
  6  8  1  0  0  0  0
  6 12  1  0  0  0  0
  7  9  1  0  0  0  0
  7 12  1  0  0  0  0
  8 13  1  0  0  0  0
  9 13  1  0  0  0  0
 10 12  1  0  0  0  0
 10 14  1  0  0  0  0
 11 15  1  0  0  0  0
 13 14  1  0  0  0  0
 14 15  1  0  0  0  0
  1 17  1  0  0  0  0
  2 18  1  0  0  0  0
  5 19  1  0  0  0  0
  5 20  1  0  0  0  0
  6 21  1  0  0  0  0
  6 22  1  0  0  0  0
  7 23  1  0  0  0  0
  7 24  1  0  0  0  0
  8 25  1  0  0  0  0
  8 26  1  0  0  0  0
  9 27  1  0  0  0  0
  9 28  1  0  0  0  0
 10 29  1  0  0  0  0
 10 30  1  0  0  0  0
 11 31  1  0  0  0  0
 11 32  1  0  0  0  0
 12 33  1  0  0  0  0
 13 34  1  0  0  0  0
 15 35  1  0  0  0  0
M  END
> <id>
EN300-1075633

> <smiles>
C1CC=2C=CSC2C3(CC4CCC3CC4)N1

> <IUPAC Name>
5',6'-dihydro-4'H-spiro[bicyclo[2.2.2]octane-2,7'-thieno[2,3-c]pyridine]

> <CAS>
2137958-19-9

> <URL>
https://www.enaminestore.com/catalog/EN300-1075633

> <ROCS_ShapeQuery>
x1247relevant_x1083L0AP1_x1305L0BP1_

> <ROCS_TanimotoCombo>
0.823 

> <ROCS_ShapeTanimoto>
0.456 

> <ROCS_ColorTanimoto>
0.367 

> <ROCS_RefTversky>
0.401 

> <ROCS_RefColorTversky>
0.402 

> <ROCS_RefTverskyCombo>
0.803 

> <ROCS_FitTversky>
1.426 

> <ROCS_FitColorTversky>
0.809 

> <ROCS_FitTverskyCombo>
2.235 

> <ROCS_ColorScore>
-8.545

> <ROCS_Overlap>
1181.842

> <ROCS_Rank>
188                 

$$$$
untitled-dbase-27018_0
  -OEChem-06162310163D

 24 26  0     0  0  0  0  0  0999 V2000
  -11.1667   15.3444  -37.6717 C   0  0  0  0  0  0  0  0  0  0  0  0
  -11.6908   14.1189  -37.7807 C   0  0  0  0  0  0  0  0  0  0  0  0
   -9.7944   15.1286  -37.1909 C   0  0  0  0  0  0  0  0  0  0  0  0
  -12.2948   16.1572  -39.6616 C   0  0  0  0  0  0  0  0  0  0  0  0
  -13.3453   16.3894  -37.4185 C   0  0  0  0  0  0  0  0  0  0  0  0
  -12.9098   14.7325  -39.8042 C   0  0  0  0  0  0  0  0  0  0  0  0
  -13.9653   14.9669  -37.5627 C   0  0  0  0  0  0  0  0  0  0  0  0
  -11.9928   16.4722  -38.1732 C   0  0  0  0  0  0  0  0  0  0  0  0
  -13.0427   14.0550  -38.4143 C   0  0  0  0  0  0  0  0  0  0  0  0
  -10.8351   13.1391  -37.4004 N   0  0  0  0  0  0  0  0  0  0  0  0
   -9.6495   13.7428  -37.0600 N   0  0  0  0  0  0  0  0  0  0  0  0
   -8.9770   16.0063  -36.9792 O   0  0  0  0  0  0  0  0  0  0  0  0
  -11.3753   16.2173  -40.2576 H   0  0  0  0  0  0  0  0  0  0  0  0
  -12.9876   16.9002  -40.0749 H   0  0  0  0  0  0  0  0  0  0  0  0
  -14.0457   17.1373  -37.8092 H   0  0  0  0  0  0  0  0  0  0  0  0
  -13.2016   16.6170  -36.3546 H   0  0  0  0  0  0  0  0  0  0  0  0
  -13.8911   14.8023  -40.2888 H   0  0  0  0  0  0  0  0  0  0  0  0
  -12.2746   14.1266  -40.4628 H   0  0  0  0  0  0  0  0  0  0  0  0
  -14.1142   14.5325  -36.5660 H   0  0  0  0  0  0  0  0  0  0  0  0
  -14.9567   15.0428  -38.0253 H   0  0  0  0  0  0  0  0  0  0  0  0
  -11.5117   17.4456  -38.0488 H   0  0  0  0  0  0  0  0  0  0  0  0
  -13.4332   13.0366  -38.4915 H   0  0  0  0  0  0  0  0  0  0  0  0
  -10.8608   12.2101  -37.7973 H   0  0  0  0  0  0  0  0  0  0  0  0
   -8.8094   13.2643  -36.7632 H   0  0  0  0  0  0  0  0  0  0  0  0
  1  2  2  0  0  0  0
  1  3  1  0  0  0  0
  1  8  1  0  0  0  0
  2  9  1  0  0  0  0
  2 10  1  0  0  0  0
  3 11  1  0  0  0  0
  3 12  2  0  0  0  0
  4  6  1  0  0  0  0
  4  8  1  0  0  0  0
  5  7  1  0  0  0  0
  5  8  1  0  0  0  0
  6  9  1  0  0  0  0
  7  9  1  0  0  0  0
 10 11  1  0  0  0  0
  4 13  1  0  0  0  0
  4 14  1  0  0  0  0
  5 15  1  0  0  0  0
  5 16  1  0  0  0  0
  6 17  1  0  0  0  0
  6 18  1  0  0  0  0
  7 19  1  0  0  0  0
  7 20  1  0  0  0  0
  8 21  1  0  0  0  0
  9 22  1  0  0  0  0
 10 23  1  0  0  0  0
 11 24  1  0  0  0  0
M  END
> <id>
EN300-7433517

> <smiles>
O=C1NNC=2C3CCC(CC3)C21

> <MDLNUMBER>
MFCD32066723

> <IUPAC Name>
3,4-diazatricyclo[5.2.2.0,2,6]undec-2(6)-en-5-one

> <CAS>
2361644-30-4

> <Purity>
95

> <URL>
https://www.enaminestore.com/catalog/EN300-7433517

> <ROCS_ShapeQuery>
x1247relevant_x1083L0AP1_x1305L0BP1_

> <ROCS_TanimotoCombo>
0.823 

> <ROCS_ShapeTanimoto>
0.467 

> <ROCS_ColorTanimoto>
0.355 

> <ROCS_RefTversky>
0.393 

> <ROCS_RefColorTversky>
0.398 

> <ROCS_RefTverskyCombo>
0.790 

> <ROCS_FitTversky>
1.687 

> <ROCS_FitColorTversky>
0.769 

> <ROCS_FitTverskyCombo>
2.457 

> <ROCS_ColorScore>
-8.460

> <ROCS_Overlap>
1154.030

> <ROCS_Rank>
189                 

$$$$
untitled-dbase-49110_17
  -OEChem-06162310163D

 44 47  0     1  0  0  0  0  0999 V2000
   -7.8874   11.5209  -34.7750 C   0  0  0  0  0  0  0  0  0  0  0  0
   -9.3830   11.8367  -34.7138 C   0  0  0  0  0  0  0  0  0  0  0  0
   -7.1359   12.3588  -35.8114 C   0  0  0  0  0  0  0  0  0  0  0  0
  -12.9861   17.0083  -38.3872 C   0  0  0  0  0  0  0  0  0  0  0  0
  -13.9309   16.1855  -37.5097 C   0  0  0  0  0  0  0  0  0  0  0  0
   -9.6533   13.2988  -35.0545 C   0  0  0  0  0  0  0  0  0  0  0  0
   -8.0479   12.7541  -36.9684 C   0  0  0  0  0  0  0  0  0  0  0  0
   -8.8073   15.1404  -36.5915 C   0  0  0  0  0  0  0  0  0  0  0  0
  -11.1612   15.2658  -38.9407 C   0  0  0  0  0  0  0  0  0  0  0  0
  -12.7232   13.9036  -37.4813 C   0  0  0  0  0  0  0  0  0  0  0  0
   -9.9614   16.0831  -36.2754 C   0  0  0  0  0  0  0  0  0  0  0  0
  -12.4345   16.0067  -39.3992 C   0  0  1  0  0  0  0  0  0  0  0  0
  -13.8480   14.7717  -38.0809 C   0  0  2  0  0  0  0  0  0  0  0  0
   -9.2251   13.6615  -36.5065 C   0  0  0  0  0  0  0  0  0  0  0  0
  -11.3101   14.5448  -37.5686 C   0  0  0  0  0  0  0  0  0  0  0  0
  -13.5181   15.0148  -39.4945 N   0  0  0  0  0  0  0  0  0  0  0  0
  -10.3492   13.4288  -37.4327 N   0  0  0  0  0  0  0  0  0  0  0  0
  -11.2360   15.4838  -36.4837 O   0  0  0  0  0  0  0  0  0  0  0  0
   -7.4421   11.6937  -33.7820 H   0  0  0  0  0  0  0  0  0  0  0  0
   -7.7449   10.4514  -34.9927 H   0  0  0  0  0  0  0  0  0  0  0  0
   -9.9251   11.1785  -35.4009 H   0  0  0  0  0  0  0  0  0  0  0  0
   -9.7549   11.6192  -33.7070 H   0  0  0  0  0  0  0  0  0  0  0  0
   -6.7401   13.2583  -35.3299 H   0  0  0  0  0  0  0  0  0  0  0  0
   -6.2753   11.7931  -36.1823 H   0  0  0  0  0  0  0  0  0  0  0  0
  -13.5630   17.7885  -38.8997 H   0  0  0  0  0  0  0  0  0  0  0  0
  -12.2042   17.5105  -37.8094 H   0  0  0  0  0  0  0  0  0  0  0  0
  -13.6680   16.2361  -36.4487 H   0  0  0  0  0  0  0  0  0  0  0  0
  -14.9500   16.5788  -37.6125 H   0  0  0  0  0  0  0  0  0  0  0  0
  -10.7014   13.5240  -34.8684 H   0  0  0  0  0  0  0  0  0  0  0  0
   -9.0901   13.9270  -34.3542 H   0  0  0  0  0  0  0  0  0  0  0  0
   -7.4546   13.2851  -37.7193 H   0  0  0  0  0  0  0  0  0  0  0  0
   -8.4253   11.8488  -37.4519 H   0  0  0  0  0  0  0  0  0  0  0  0
   -8.4642   15.3607  -37.6132 H   0  0  0  0  0  0  0  0  0  0  0  0
   -7.9639   15.3514  -35.9216 H   0  0  0  0  0  0  0  0  0  0  0  0
  -10.9123   14.5369  -39.7217 H   0  0  0  0  0  0  0  0  0  0  0  0
  -10.3380   15.9869  -38.8950 H   0  0  0  0  0  0  0  0  0  0  0  0
  -13.0018   13.6951  -36.4466 H   0  0  0  0  0  0  0  0  0  0  0  0
  -12.7216   12.9450  -38.0162 H   0  0  0  0  0  0  0  0  0  0  0  0
   -9.8922   16.4892  -35.2476 H   0  0  0  0  0  0  0  0  0  0  0  0
   -9.9047   16.9674  -36.9386 H   0  0  0  0  0  0  0  0  0  0  0  0
  -12.2507   16.4816  -40.3691 H   0  0  0  0  0  0  0  0  0  0  0  0
  -14.8031   14.2460  -37.9889 H   0  0  0  0  0  0  0  0  0  0  0  0
  -14.3223   15.4500  -39.9491 H   0  0  0  0  0  0  0  0  0  0  0  0
   -9.9619   13.2369  -38.3523 H   0  0  0  0  0  0  0  0  0  0  0  0
  1  2  1  0  0  0  0
  1  3  1  0  0  0  0
  2  6  1  0  0  0  0
  3  7  1  0  0  0  0
  4  5  1  0  0  0  0
  4 12  1  0  0  0  0
  5 13  1  0  0  0  0
  6 14  1  0  0  0  0
  7 14  1  0  0  0  0
  8 11  1  0  0  0  0
  8 14  1  0  0  0  0
  9 12  1  0  0  0  0
  9 15  1  0  0  0  0
 10 13  1  0  0  0  0
 10 15  1  0  0  0  0
 11 18  1  0  0  0  0
 12 16  1  0  0  0  0
 13 16  1  0  0  0  0
 14 17  1  0  0  0  0
 15 17  1  0  0  0  0
 15 18  1  0  0  0  0
  1 19  1  0  0  0  0
  1 20  1  0  0  0  0
  2 21  1  0  0  0  0
  2 22  1  0  0  0  0
  3 23  1  0  0  0  0
  3 24  1  0  0  0  0
  4 25  1  0  0  0  0
  4 26  1  0  0  0  0
  5 27  1  0  0  0  0
  5 28  1  0  0  0  0
  6 29  1  0  0  0  0
  6 30  1  0  0  0  0
  7 31  1  0  0  0  0
  7 32  1  0  0  0  0
  8 33  1  0  0  0  0
  8 34  1  0  0  0  0
  9 35  1  0  0  0  0
  9 36  1  0  0  0  0
 10 37  1  0  0  0  0
 10 38  1  0  0  0  0
 11 39  1  0  0  0  0
 11 40  1  0  0  0  0
 12 41  1  0  0  0  0
 13 42  1  0  0  0  0
 16 43  1  0  0  0  0
 17 44  1  0  0  0  0
M  END
> <id>
EN300-1279216

> <smiles>
C1CC2CC3(CC1N2)NC4(CCCCC4)CCO3

> <IUPAC Name>
dispiro[8-azabicyclo[3.2.1]octane-3,2'-[1,3]oxazinane-4',1''-cyclohexane]

> <URL>
https://www.enaminestore.com/catalog/EN300-1279216

> <ROCS_ShapeQuery>
x1247relevant_x1083L0AP1_x1305L0BP1_

> <ROCS_TanimotoCombo>
0.823 

> <ROCS_ShapeTanimoto>
0.497 

> <ROCS_ColorTanimoto>
0.326 

> <ROCS_RefTversky>
0.435 

> <ROCS_RefColorTversky>
0.398 

> <ROCS_RefTverskyCombo>
0.833 

> <ROCS_FitTversky>
1.396 

> <ROCS_FitColorTversky>
0.643 

> <ROCS_FitTverskyCombo>
2.039 

> <ROCS_ColorScore>
-8.505

> <ROCS_Overlap>
1285.336

> <ROCS_Rank>
190                 

$$$$
untitled-dbase-14414_1
  -OEChem-06162310163D

 32 35  0     1  0  0  0  0  0999 V2000
   -9.6833   17.2294  -37.7500 C   0  0  0  0  0  0  0  0  0  0  0  0
   -8.4392   17.4609  -37.2004 C   0  0  0  0  0  0  0  0  0  0  0  0
  -10.0258   15.8911  -37.4265 C   0  0  0  0  0  0  0  0  0  0  0  0
   -8.9448   15.4215  -36.7094 C   0  0  0  0  0  0  0  0  0  0  0  0
   -8.7598   14.0599  -36.1746 C   0  0  0  0  0  0  0  0  0  0  0  0
  -14.0008   14.3948  -38.5340 C   0  0  0  0  0  0  0  0  0  0  0  0
  -12.8412   14.1403  -39.5075 C   0  0  0  0  0  0  0  0  0  0  0  0
  -12.8091   16.4167  -38.9206 C   0  0  0  0  0  0  0  0  0  0  0  0
  -12.4527   15.3735  -36.8098 C   0  0  0  0  0  0  0  0  0  0  0  0
  -10.1107   13.3276  -36.2661 C   0  0  0  0  0  0  0  0  0  0  0  0
  -13.5746   15.6892  -37.8212 C   0  0  2  0  0  0  0  0  0  0  0  0
  -11.8308   15.2516  -39.1400 C   0  0  1  0  0  0  0  0  0  0  0  0
  -11.2323   15.0213  -37.7099 C   0  0  1  0  0  0  0  0  0  0  0  0
  -10.8158   13.6007  -37.5348 N   0  0  0  0  0  0  0  0  0  0  0  0
   -7.9778   16.3521  -36.5617 O   0  0  0  0  0  0  0  0  0  0  0  0
  -10.2636   17.9475  -38.3122 H   0  0  0  0  0  0  0  0  0  0  0  0
   -7.7841   18.3195  -37.1753 H   0  0  0  0  0  0  0  0  0  0  0  0
   -7.9931   13.5144  -36.7336 H   0  0  0  0  0  0  0  0  0  0  0  0
   -8.4401   14.1240  -35.1283 H   0  0  0  0  0  0  0  0  0  0  0  0
  -14.9344   14.5396  -39.0895 H   0  0  0  0  0  0  0  0  0  0  0  0
  -14.1440   13.5620  -37.8379 H   0  0  0  0  0  0  0  0  0  0  0  0
  -12.4549   13.1209  -39.4629 H   0  0  0  0  0  0  0  0  0  0  0  0
  -13.1936   14.2914  -40.5356 H   0  0  0  0  0  0  0  0  0  0  0  0
  -13.4230   16.6337  -39.8020 H   0  0  0  0  0  0  0  0  0  0  0  0
  -12.3385   17.3430  -38.5842 H   0  0  0  0  0  0  0  0  0  0  0  0
  -12.2608   16.2458  -36.1734 H   0  0  0  0  0  0  0  0  0  0  0  0
  -12.7458   14.5530  -36.1429 H   0  0  0  0  0  0  0  0  0  0  0  0
   -9.9674   12.2466  -36.1451 H   0  0  0  0  0  0  0  0  0  0  0  0
  -10.7427   13.6519  -35.4316 H   0  0  0  0  0  0  0  0  0  0  0  0
  -14.4088   16.2416  -37.3835 H   0  0  0  0  0  0  0  0  0  0  0  0
  -11.0886   15.4269  -39.9228 H   0  0  0  0  0  0  0  0  0  0  0  0
  -10.2688   13.2700  -38.3272 H   0  0  0  0  0  0  0  0  0  0  0  0
  1  2  2  0  0  0  0
  1  3  1  0  0  0  0
  2 15  1  0  0  0  0
  3  4  2  0  0  0  0
  3 13  1  0  0  0  0
  4  5  1  0  0  0  0
  4 15  1  0  0  0  0
  5 10  1  0  0  0  0
  6  7  1  0  0  0  0
  6 11  1  0  0  0  0
  7 12  1  0  0  0  0
  8 11  1  0  0  0  0
  8 12  1  0  0  0  0
  9 11  1  0  0  0  0
  9 13  1  0  0  0  0
 10 14  1  0  0  0  0
 12 13  1  0  0  0  0
 13 14  1  0  0  0  0
  1 16  1  0  0  0  0
  2 17  1  0  0  0  0
  5 18  1  0  0  0  0
  5 19  1  0  0  0  0
  6 20  1  0  0  0  0
  6 21  1  0  0  0  0
  7 22  1  0  0  0  0
  7 23  1  0  0  0  0
  8 24  1  0  0  0  0
  8 25  1  0  0  0  0
  9 26  1  0  0  0  0
  9 27  1  0  0  0  0
 10 28  1  0  0  0  0
 10 29  1  0  0  0  0
 11 30  1  0  0  0  0
 12 31  1  0  0  0  0
 14 32  1  0  0  0  0
M  END
> <id>
EN300-1076400

> <smiles>
C1CC2CC1CC32NCCC=4OC=CC43

> <IUPAC Name>
6',7'-dihydro-5'H-spiro[bicyclo[2.2.1]heptane-2,4'-furo[3,2-c]pyridine]

> <CAS>
2010304-27-3

> <URL>
https://www.enaminestore.com/catalog/EN300-1076400

> <ROCS_ShapeQuery>
x1247relevant_x1083L0AP1_x1305L0BP1_

> <ROCS_TanimotoCombo>
0.822 

> <ROCS_ShapeTanimoto>
0.450 

> <ROCS_ColorTanimoto>
0.373 

> <ROCS_RefTversky>
0.397 

> <ROCS_RefColorTversky>
0.422 

> <ROCS_RefTverskyCombo>
0.819 

> <ROCS_FitTversky>
1.426 

> <ROCS_FitColorTversky>
0.761 

> <ROCS_FitTverskyCombo>
2.186 

> <ROCS_ColorScore>
-9.001

> <ROCS_Overlap>
1168.364

> <ROCS_Rank>
191                 

$$$$
untitled-dbase-45396_56
  -OEChem-06162310163D

 33 34  0     1  0  0  0  0  0999 V2000
   -9.7915   14.8248  -36.9408 C   0  0  0  0  0  0  0  0  0  0  0  0
  -11.7546   16.2847  -37.3163 C   0  0  0  0  0  0  0  0  0  0  0  0
  -11.9564   13.8992  -37.8211 C   0  0  0  0  0  0  0  0  0  0  0  0
  -12.9842   16.0897  -38.1681 C   0  0  2  0  0  0  0  0  0  0  0  0
  -13.2829   14.5775  -38.1767 C   0  0  1  0  0  0  0  0  0  0  0  0
  -12.7970   16.0354  -39.7090 C   0  0  0  0  0  0  0  0  0  0  0  0
  -13.5951   14.7087  -39.6990 C   0  0  0  0  0  0  0  0  0  0  0  0
   -9.7165   14.7026  -34.3247 C   0  0  0  0  0  0  0  0  0  0  0  0
   -9.6441   12.1972  -34.4882 C   0  0  0  0  0  0  0  0  0  0  0  0
   -7.6023   13.5467  -35.0517 C   0  0  0  0  0  0  0  0  0  0  0  0
   -9.1296   13.5090  -35.0768 C   0  0  0  0  0  0  0  0  0  0  0  0
  -11.1059   14.9899  -37.3622 N   0  0  0  0  0  0  0  0  0  0  0  0
   -8.9297   15.6986  -37.0075 O   0  0  0  0  0  0  0  0  0  0  0  0
   -9.5648   13.5704  -36.4395 O   0  0  0  0  0  0  0  0  0  0  0  0
  -11.5229   15.9362  -40.1538 F   0  0  0  0  0  0  0  0  0  0  0  0
  -13.3683   17.0493  -40.3970 F   0  0  0  0  0  0  0  0  0  0  0  0
  -14.9052   14.8412  -40.0166 F   0  0  0  0  0  0  0  0  0  0  0  0
  -13.1072   13.7284  -40.4918 F   0  0  0  0  0  0  0  0  0  0  0  0
  -14.6235   14.0198  -37.1378 Cl  0  0  0  0  0  0  0  0  0  0  0  0
  -11.0886   17.0727  -37.6800 H   0  0  0  0  0  0  0  0  0  0  0  0
  -12.0141   16.4897  -36.2723 H   0  0  0  0  0  0  0  0  0  0  0  0
  -12.0419   13.1628  -37.0148 H   0  0  0  0  0  0  0  0  0  0  0  0
  -11.4770   13.4165  -38.6792 H   0  0  0  0  0  0  0  0  0  0  0  0
  -13.8239   16.7361  -37.8846 H   0  0  0  0  0  0  0  0  0  0  0  0
   -9.3496   15.6462  -34.7442 H   0  0  0  0  0  0  0  0  0  0  0  0
  -10.8106   14.7063  -34.3649 H   0  0  0  0  0  0  0  0  0  0  0  0
   -9.4089   14.6917  -33.2728 H   0  0  0  0  0  0  0  0  0  0  0  0
   -9.2256   11.3380  -35.0248 H   0  0  0  0  0  0  0  0  0  0  0  0
  -10.7329   12.1241  -34.5901 H   0  0  0  0  0  0  0  0  0  0  0  0
   -9.3880   12.1021  -33.4280 H   0  0  0  0  0  0  0  0  0  0  0  0
   -7.1810   12.6907  -35.5911 H   0  0  0  0  0  0  0  0  0  0  0  0
   -7.2140   14.4651  -35.5039 H   0  0  0  0  0  0  0  0  0  0  0  0
   -7.2277   13.4793  -34.0239 H   0  0  0  0  0  0  0  0  0  0  0  0
  1 12  1  0  0  0  0
  1 13  2  0  0  0  0
  1 14  1  0  0  0  0
  2  4  1  0  0  0  0
  2 12  1  0  0  0  0
  3  5  1  0  0  0  0
  3 12  1  0  0  0  0
  4  5  1  0  0  0  0
  4  6  1  0  0  0  0
  5  7  1  0  0  0  0
  5 19  1  0  0  0  0
  6  7  1  0  0  0  0
  6 15  1  0  0  0  0
  6 16  1  0  0  0  0
  7 17  1  0  0  0  0
  7 18  1  0  0  0  0
  8 11  1  0  0  0  0
  9 11  1  0  0  0  0
 10 11  1  0  0  0  0
 11 14  1  0  0  0  0
  2 20  1  0  0  0  0
  2 21  1  0  0  0  0
  3 22  1  0  0  0  0
  3 23  1  0  0  0  0
  4 24  1  0  0  0  0
  8 25  1  0  0  0  0
  8 26  1  0  0  0  0
  8 27  1  0  0  0  0
  9 28  1  0  0  0  0
  9 29  1  0  0  0  0
  9 30  1  0  0  0  0
 10 31  1  0  0  0  0
 10 32  1  0  0  0  0
 10 33  1  0  0  0  0
M  END
> <id>
EN300-28291020

> <smiles>
CC(C)(C)OC(=O)N1CC2C(F)(F)C(F)(F)C2(Cl)C1

> <IUPAC Name>
tert-butyl 1-chloro-6,6,7,7-tetrafluoro-3-azabicyclo[3.2.0]heptane-3-carboxylate

> <CAS>
2680746-00-1

> <URL>
https://www.enaminestore.com/catalog/EN300-28291020

> <ROCS_ShapeQuery>
x1247relevant_x1083L0AP1_x1305L0BP1_

> <ROCS_TanimotoCombo>
0.822 

> <ROCS_ShapeTanimoto>
0.555 

> <ROCS_ColorTanimoto>
0.268 

> <ROCS_RefTversky>
0.474 

> <ROCS_RefColorTversky>
0.293 

> <ROCS_RefTverskyCombo>
0.766 

> <ROCS_FitTversky>
1.446 

> <ROCS_FitColorTversky>
0.759 

> <ROCS_FitTverskyCombo>
2.206 

> <ROCS_ColorScore>
-6.182

> <ROCS_Overlap>
1398.726

> <ROCS_Rank>
192                 

$$$$
untitled-dbase-34681_0
  -OEChem-06162310163D

 19 21  0     1  0  0  0  0  0999 V2000
   -9.2713   15.2250  -36.6203 C   0  0  0  0  0  0  0  0  0  0  0  0
  -10.1919   16.1804  -37.0506 C   0  0  0  0  0  0  0  0  0  0  0  0
   -9.5971   13.8672  -36.7319 C   0  0  0  0  0  0  0  0  0  0  0  0
  -11.3827   15.7180  -37.5522 C   0  0  0  0  0  0  0  0  0  0  0  0
  -11.6119   14.3438  -37.6241 C   0  0  0  0  0  0  0  0  0  0  0  0
  -12.6811   16.0047  -39.6069 C   0  0  0  0  0  0  0  0  0  0  0  0
  -12.9568   14.5144  -39.7441 C   0  0  0  0  0  0  0  0  0  0  0  0
  -12.5724   16.3767  -38.1445 C   0  0  1  0  0  0  0  0  0  0  0  0
  -12.9707   14.1703  -38.2543 C   0  0  2  0  0  0  0  0  0  0  0  0
  -10.7613   13.3878  -37.2361 N   0  0  0  0  0  0  0  0  0  0  0  0
  -12.5313   16.7778  -40.5410 O   0  0  0  0  0  0  0  0  0  0  0  0
  -13.5971   15.3872  -37.7453 O   0  0  0  0  0  0  0  0  0  0  0  0
   -8.3131   15.5273  -36.2108 H   0  0  0  0  0  0  0  0  0  0  0  0
   -9.9695   17.2391  -36.9929 H   0  0  0  0  0  0  0  0  0  0  0  0
   -8.8927   13.1076  -36.4066 H   0  0  0  0  0  0  0  0  0  0  0  0
  -13.9416   14.3831  -40.2000 H   0  0  0  0  0  0  0  0  0  0  0  0
  -12.1710   14.0019  -40.3020 H   0  0  0  0  0  0  0  0  0  0  0  0
  -12.8678   17.3792  -37.8444 H   0  0  0  0  0  0  0  0  0  0  0  0
  -13.5172   13.2732  -37.9589 H   0  0  0  0  0  0  0  0  0  0  0  0
  1  2  1  0  0  0  0
  1  3  2  0  0  0  0
  2  4  2  0  0  0  0
  3 10  1  0  0  0  0
  4  5  1  0  0  0  0
  4  8  1  0  0  0  0
  5  9  1  0  0  0  0
  5 10  2  0  0  0  0
  6  7  1  0  0  0  0
  6  8  1  0  0  0  0
  6 11  2  0  0  0  0
  7  9  1  0  0  0  0
  8 12  1  0  0  0  0
  9 12  1  0  0  0  0
  1 13  1  0  0  0  0
  2 14  1  0  0  0  0
  3 15  1  0  0  0  0
  7 16  1  0  0  0  0
  7 17  1  0  0  0  0
  8 18  1  0  0  0  0
  9 19  1  0  0  0  0
M  END
> <id>
EN300-37468729

> <smiles>
O=C1CC2OC1C=3C=CC=NC23

> <IUPAC Name>
11-oxa-3-azatricyclo[6.2.1.0,2,7]undeca-2,4,6-trien-9-one

> <URL>
https://www.enaminestore.com/catalog/EN300-37468729

> <ROCS_ShapeQuery>
x1247relevant_x1083L0AP1_x1305L0BP1_

> <ROCS_TanimotoCombo>
0.822 

> <ROCS_ShapeTanimoto>
0.491 

> <ROCS_ColorTanimoto>
0.331 

> <ROCS_RefTversky>
0.408 

> <ROCS_RefColorTversky>
0.378 

> <ROCS_RefTverskyCombo>
0.785 

> <ROCS_FitTversky>
1.716 

> <ROCS_FitColorTversky>
0.728 

> <ROCS_FitTverskyCombo>
2.445 

> <ROCS_ColorScore>
-8.033

> <ROCS_Overlap>
1198.416

> <ROCS_Rank>
193                 

$$$$
untitled-dbase-30266_0
  -OEChem-06162310163D

 25 27  0     1  0  0  0  0  0999 V2000
   -9.4627   14.4641  -37.3306 C   0  0  0  0  0  0  0  0  0  0  0  0
   -9.7762   15.4086  -38.2207 C   0  0  0  0  0  0  0  0  0  0  0  0
  -10.6006   14.1285  -36.4261 C   0  0  0  0  0  0  0  0  0  0  0  0
  -12.4404   14.0700  -38.9884 C   0  0  0  0  0  0  0  0  0  0  0  0
  -14.0693   15.3207  -37.8033 C   0  0  0  0  0  0  0  0  0  0  0  0
  -11.1788   15.8976  -38.0604 C   0  0  2  0  0  0  0  0  0  0  0  0
  -11.7430   15.0428  -36.8944 C   0  0  1  0  0  0  0  0  0  0  0  0
  -12.9328   14.3042  -37.5599 C   0  0  2  0  0  0  0  0  0  0  0  0
  -12.1326   15.5561  -39.2271 C   0  0  2  0  0  0  0  0  0  0  0  0
  -13.4966   16.2130  -38.9203 C   0  0  1  0  0  0  0  0  0  0  0  0
  -14.3443   16.1525  -40.0588 O   0  0  0  0  0  0  0  0  0  0  0  0
   -8.4955   13.9858  -37.2728 H   0  0  0  0  0  0  0  0  0  0  0  0
   -9.0926   15.7883  -38.9666 H   0  0  0  0  0  0  0  0  0  0  0  0
  -10.8600   13.0672  -36.4909 H   0  0  0  0  0  0  0  0  0  0  0  0
  -10.3288   14.3526  -35.3891 H   0  0  0  0  0  0  0  0  0  0  0  0
  -11.5660   13.4167  -39.0543 H   0  0  0  0  0  0  0  0  0  0  0  0
  -13.2204   13.6810  -39.6519 H   0  0  0  0  0  0  0  0  0  0  0  0
  -14.9866   14.8126  -38.1219 H   0  0  0  0  0  0  0  0  0  0  0  0
  -14.2916   15.8972  -36.8996 H   0  0  0  0  0  0  0  0  0  0  0  0
  -11.1787   16.9668  -37.8224 H   0  0  0  0  0  0  0  0  0  0  0  0
  -12.0898   15.6661  -36.0611 H   0  0  0  0  0  0  0  0  0  0  0  0
  -13.2606   13.4116  -37.0229 H   0  0  0  0  0  0  0  0  0  0  0  0
  -11.7405   15.7750  -40.2233 H   0  0  0  0  0  0  0  0  0  0  0  0
  -13.4105   17.2589  -38.6083 H   0  0  0  0  0  0  0  0  0  0  0  0
  -13.9480   16.7262  -40.7347 H   0  0  0  0  0  0  0  0  0  0  0  0
  1  2  2  0  0  0  0
  1  3  1  0  0  0  0
  2  6  1  0  0  0  0
  3  7  1  0  0  0  0
  4  8  1  0  0  0  0
  4  9  1  0  0  0  0
  5  8  1  1  0  0  0
  5 10  1  0  0  0  0
  6  7  1  0  0  0  0
  6  9  1  0  0  0  0
  7  8  1  0  0  0  0
  9 10  1  1  0  0  0
 10 11  1  0  0  0  0
  1 12  1  0  0  0  0
  2 13  1  0  0  0  0
  3 14  1  0  0  0  0
  3 15  1  0  0  0  0
  4 16  1  0  0  0  0
  4 17  1  0  0  0  0
  5 18  1  0  0  0  0
  5 19  1  0  0  0  0
  6 20  1  0  0  0  0
  7 21  1  0  0  0  0
  8 22  1  0  0  0  0
  9 23  1  0  0  0  0
 10 24  1  0  0  0  0
 11 25  1  0  0  0  0
M  END
> <id>
EN300-19632235

> <smiles>
OC1C[C@H]2C[C@@H]1C3C=CCC23

> <MDLNUMBER>
MFCD19237754

> <IUPAC Name>
(1R,7R)-tricyclo[5.2.1.0,2,6]dec-4-en-8-ol

> <Purity>
92

> <URL>
https://www.enaminestore.com/catalog/EN300-19632235

> <ROCS_ShapeQuery>
x1247relevant_x1083L0AP1_x1305L0BP1_

> <ROCS_TanimotoCombo>
0.822 

> <ROCS_ShapeTanimoto>
0.452 

> <ROCS_ColorTanimoto>
0.370 

> <ROCS_RefTversky>
0.378 

> <ROCS_RefColorTversky>
0.398 

> <ROCS_RefTverskyCombo>
0.776 

> <ROCS_FitTversky>
1.767 

> <ROCS_FitColorTversky>
0.840 

> <ROCS_FitTverskyCombo>
2.607 

> <ROCS_ColorScore>
-8.453

> <ROCS_Overlap>
1109.036

> <ROCS_Rank>
194                 

$$$$
untitled-dbase-6195_25
  -OEChem-06162310163D

 39 42  0     1  0  0  0  0  0999 V2000
   -8.5425   15.4745  -35.9832 C   0  0  0  0  0  0  0  0  0  0  0  0
  -11.9591   16.4737  -38.4230 C   0  0  0  0  0  0  0  0  0  0  0  0
  -11.0221   15.0557  -35.8276 C   0  0  0  0  0  0  0  0  0  0  0  0
   -9.8099   14.3249  -37.7838 C   0  0  0  0  0  0  0  0  0  0  0  0
  -12.9241   15.8340  -37.4060 C   0  0  2  0  0  0  0  0  0  0  0  0
  -11.7999   15.1631  -39.2175 C   0  0  1  0  0  0  0  0  0  0  0  0
  -12.0723   14.6551  -36.8556 C   0  0  1  0  0  0  0  0  0  0  0  0
  -11.2878   14.1853  -38.1222 C   0  0  2  0  0  0  0  0  0  0  0  0
  -13.9945   15.2141  -38.2974 C   0  0  2  0  0  0  0  0  0  0  0  0
  -13.2428   14.7658  -39.5091 C   0  0  1  0  0  0  0  0  0  0  0  0
   -6.1170   15.1381  -34.5089 C   0  0  0  0  0  0  0  0  0  0  0  0
   -7.5971   14.5939  -32.5538 C   0  0  0  0  0  0  0  0  0  0  0  0
   -7.6389   13.1355  -34.5982 C   0  0  0  0  0  0  0  0  0  0  0  0
   -7.4632   14.5603  -34.0747 C   0  0  0  0  0  0  0  0  0  0  0  0
   -9.7388   15.0079  -36.5071 N   0  0  0  0  0  0  0  0  0  0  0  0
   -7.6197   15.9213  -36.6610 O   0  0  0  0  0  0  0  0  0  0  0  0
  -14.2256   15.8028  -39.5806 O   0  0  0  0  0  0  0  0  0  0  0  0
   -8.5063   15.3773  -34.6177 O   0  0  0  0  0  0  0  0  0  0  0  0
  -12.4199   17.2778  -39.0068 H   0  0  0  0  0  0  0  0  0  0  0  0
  -11.0304   16.8519  -37.9879 H   0  0  0  0  0  0  0  0  0  0  0  0
  -11.1904   16.0446  -35.3897 H   0  0  0  0  0  0  0  0  0  0  0  0
  -10.9821   14.3261  -35.0108 H   0  0  0  0  0  0  0  0  0  0  0  0
   -9.3497   13.3394  -37.6485 H   0  0  0  0  0  0  0  0  0  0  0  0
   -9.2301   14.8644  -38.5395 H   0  0  0  0  0  0  0  0  0  0  0  0
  -13.3205   16.5132  -36.6490 H   0  0  0  0  0  0  0  0  0  0  0  0
  -11.1733   15.2311  -40.1087 H   0  0  0  0  0  0  0  0  0  0  0  0
  -12.7097   13.8548  -36.4617 H   0  0  0  0  0  0  0  0  0  0  0  0
  -11.5268   13.1457  -38.3756 H   0  0  0  0  0  0  0  0  0  0  0  0
  -14.7294   14.5757  -37.8370 H   0  0  0  0  0  0  0  0  0  0  0  0
  -13.4234   13.7966  -39.9426 H   0  0  0  0  0  0  0  0  0  0  0  0
   -6.0170   15.1158  -35.5999 H   0  0  0  0  0  0  0  0  0  0  0  0
   -5.9934   16.1717  -34.1694 H   0  0  0  0  0  0  0  0  0  0  0  0
   -5.2885   14.5415  -34.1102 H   0  0  0  0  0  0  0  0  0  0  0  0
   -8.5616   14.1802  -32.2378 H   0  0  0  0  0  0  0  0  0  0  0  0
   -7.5666   15.6244  -32.1820 H   0  0  0  0  0  0  0  0  0  0  0  0
   -6.7992   14.0253  -32.0653 H   0  0  0  0  0  0  0  0  0  0  0  0
   -8.6045   12.7208  -34.2869 H   0  0  0  0  0  0  0  0  0  0  0  0
   -7.5826   13.0976  -35.6909 H   0  0  0  0  0  0  0  0  0  0  0  0
   -6.8701   12.4716  -34.1866 H   0  0  0  0  0  0  0  0  0  0  0  0
  1 15  1  0  0  0  0
  1 16  2  0  0  0  0
  1 18  1  0  0  0  0
  2  5  1  0  0  0  0
  2  6  1  0  0  0  0
  3  7  1  0  0  0  0
  3 15  1  0  0  0  0
  4  8  1  0  0  0  0
  4 15  1  0  0  0  0
  5  7  1  0  0  0  0
  5  9  1  0  0  0  0
  6  8  1  0  0  0  0
  6 10  1  0  0  0  0
  7  8  1  0  0  0  0
  9 10  1  0  0  0  0
  9 17  1  0  0  0  0
 10 17  1  0  0  0  0
 11 14  1  0  0  0  0
 12 14  1  0  0  0  0
 13 14  1  0  0  0  0
 14 18  1  0  0  0  0
  2 19  1  0  0  0  0
  2 20  1  0  0  0  0
  3 21  1  0  0  0  0
  3 22  1  0  0  0  0
  4 23  1  0  0  0  0
  4 24  1  0  0  0  0
  5 25  1  0  0  0  0
  6 26  1  0  0  0  0
  7 27  1  0  0  0  0
  8 28  1  0  0  0  0
  9 29  1  0  0  0  0
 10 30  1  0  0  0  0
 11 31  1  0  0  0  0
 11 32  1  0  0  0  0
 11 33  1  0  0  0  0
 12 34  1  0  0  0  0
 12 35  1  0  0  0  0
 12 36  1  0  0  0  0
 13 37  1  0  0  0  0
 13 38  1  0  0  0  0
 13 39  1  0  0  0  0
M  END
> <id>
EN300-244736

> <smiles>
CC(C)(C)OC(=O)N1CC2C3CC(C4OC43)C2C1

> <MDLNUMBER>
MFCD29034945

> <IUPAC Name>
tert-butyl 9-oxa-4-azatetracyclo[5.3.1.0^{2,6}.0^{8,10}]undecane-4-carboxylate

> <CAS>
1936182-08-9

> <URL>
https://www.enaminestore.com/catalog/EN300-244736

> <ROCS_ShapeQuery>
x1247relevant_x1083L0AP1_x1305L0BP1_

> <ROCS_TanimotoCombo>
0.822 

> <ROCS_ShapeTanimoto>
0.461 

> <ROCS_ColorTanimoto>
0.361 

> <ROCS_RefTversky>
0.416 

> <ROCS_RefColorTversky>
0.525 

> <ROCS_RefTverskyCombo>
0.941 

> <ROCS_FitTversky>
1.304 

> <ROCS_FitColorTversky>
0.536 

> <ROCS_FitTverskyCombo>
1.840 

> <ROCS_ColorScore>
-11.456

> <ROCS_Overlap>
1228.823

> <ROCS_Rank>
195                 

$$$$
untitled-dbase-36472_1
  -OEChem-06162310163D

 23 25  0     1  0  0  0  0  0999 V2000
  -13.9474   16.1515  -38.0771 C   0  0  0  0  0  0  0  0  0  0  0  0
  -13.3394   16.1299  -39.4809 C   0  0  0  0  0  0  0  0  0  0  0  0
  -10.9313   14.4131  -36.3169 C   0  0  0  0  0  0  0  0  0  0  0  0
  -10.0117   14.3807  -38.4404 C   0  0  0  0  0  0  0  0  0  0  0  0
  -11.7386   15.4441  -37.1034 C   0  0  1  0  0  0  0  0  0  0  0  0
  -11.1262   15.4224  -38.5177 C   0  0  2  0  0  0  0  0  0  0  0  0
  -13.1889   15.0185  -37.3856 C   0  0  2  0  0  0  0  0  0  0  0  0
  -12.3291   14.9878  -39.3712 C   0  0  1  0  0  0  0  0  0  0  0  0
  -10.3887   13.5099  -37.3293 N   0  0  0  0  0  0  0  0  0  0  0  0
  -13.0297   14.0890  -38.4815 O   0  0  0  0  0  0  0  0  0  0  0  0
  -13.8323   17.1158  -37.5736 H   0  0  0  0  0  0  0  0  0  0  0  0
  -15.0165   15.9188  -38.1388 H   0  0  0  0  0  0  0  0  0  0  0  0
  -14.1186   15.8866  -40.2121 H   0  0  0  0  0  0  0  0  0  0  0  0
  -12.8829   17.0819  -39.7664 H   0  0  0  0  0  0  0  0  0  0  0  0
  -10.1080   14.9084  -35.7877 H   0  0  0  0  0  0  0  0  0  0  0  0
  -11.5346   13.8752  -35.5797 H   0  0  0  0  0  0  0  0  0  0  0  0
   -9.8929   13.8174  -39.3706 H   0  0  0  0  0  0  0  0  0  0  0  0
   -9.0571   14.8713  -38.2148 H   0  0  0  0  0  0  0  0  0  0  0  0
  -11.6872   16.4257  -36.6210 H   0  0  0  0  0  0  0  0  0  0  0  0
  -10.7285   16.3918  -38.8357 H   0  0  0  0  0  0  0  0  0  0  0  0
  -13.7157   14.5752  -36.5370 H   0  0  0  0  0  0  0  0  0  0  0  0
  -12.0760   14.5169  -40.3237 H   0  0  0  0  0  0  0  0  0  0  0  0
   -9.5781   13.0085  -36.9706 H   0  0  0  0  0  0  0  0  0  0  0  0
  1  2  1  0  0  0  0
  1  7  1  0  0  0  0
  2  8  1  0  0  0  0
  3  5  1  0  0  0  0
  3  9  1  0  0  0  0
  4  6  1  0  0  0  0
  4  9  1  0  0  0  0
  5  6  1  0  0  0  0
  5  7  1  0  0  0  0
  6  8  1  0  0  0  0
  7 10  1  0  0  0  0
  8 10  1  0  0  0  0
  1 11  1  0  0  0  0
  1 12  1  0  0  0  0
  2 13  1  0  0  0  0
  2 14  1  0  0  0  0
  3 15  1  0  0  0  0
  3 16  1  0  0  0  0
  4 17  1  0  0  0  0
  4 18  1  0  0  0  0
  5 19  1  0  0  0  0
  6 20  1  0  0  0  0
  7 21  1  0  0  0  0
  8 22  1  0  0  0  0
  9 23  1  0  0  0  0
M  END
> <id>
EN300-93931

> <smiles>
C1CC2OC1C3CNCC23

> <MDLNUMBER>
MFCD20502125

> <IUPAC Name>
10-oxa-4-azatricyclo[5.2.1.0,2,6]decane

> <CAS>
157182-65-5

> <URL>
https://www.enaminestore.com/catalog/EN300-93931

> <ROCS_ShapeQuery>
x1247relevant_x1083L0AP1_x1305L0BP1_

> <ROCS_TanimotoCombo>
0.822 

> <ROCS_ShapeTanimoto>
0.411 

> <ROCS_ColorTanimoto>
0.410 

> <ROCS_RefTversky>
0.350 

> <ROCS_RefColorTversky>
0.442 

> <ROCS_RefTverskyCombo>
0.792 

> <ROCS_FitTversky>
1.737 

> <ROCS_FitColorTversky>
0.852 

> <ROCS_FitTverskyCombo>
2.589 

> <ROCS_ColorScore>
-9.402

> <ROCS_Overlap>
1027.518

> <ROCS_Rank>
196                 

$$$$
untitled-dbase-40598_1
  -OEChem-06162310163D

 23 25  0     1  0  0  0  0  0999 V2000
  -13.9474   16.1515  -38.0771 C   0  0  0  0  0  0  0  0  0  0  0  0
  -13.3394   16.1299  -39.4809 C   0  0  0  0  0  0  0  0  0  0  0  0
  -10.9313   14.4131  -36.3169 C   0  0  0  0  0  0  0  0  0  0  0  0
  -10.0117   14.3807  -38.4404 C   0  0  0  0  0  0  0  0  0  0  0  0
  -11.7386   15.4441  -37.1034 C   0  0  1  0  0  0  0  0  0  0  0  0
  -11.1262   15.4224  -38.5177 C   0  0  2  0  0  0  0  0  0  0  0  0
  -13.1889   15.0185  -37.3856 C   0  0  2  0  0  0  0  0  0  0  0  0
  -12.3291   14.9878  -39.3712 C   0  0  1  0  0  0  0  0  0  0  0  0
  -10.3887   13.5099  -37.3293 N   0  0  0  0  0  0  0  0  0  0  0  0
  -13.0297   14.0890  -38.4815 O   0  0  0  0  0  0  0  0  0  0  0  0
  -13.8323   17.1158  -37.5736 H   0  0  0  0  0  0  0  0  0  0  0  0
  -15.0165   15.9188  -38.1388 H   0  0  0  0  0  0  0  0  0  0  0  0
  -14.1186   15.8866  -40.2121 H   0  0  0  0  0  0  0  0  0  0  0  0
  -12.8829   17.0819  -39.7664 H   0  0  0  0  0  0  0  0  0  0  0  0
  -10.1080   14.9084  -35.7877 H   0  0  0  0  0  0  0  0  0  0  0  0
  -11.5346   13.8752  -35.5797 H   0  0  0  0  0  0  0  0  0  0  0  0
   -9.8929   13.8174  -39.3706 H   0  0  0  0  0  0  0  0  0  0  0  0
   -9.0571   14.8713  -38.2148 H   0  0  0  0  0  0  0  0  0  0  0  0
  -11.6872   16.4257  -36.6210 H   0  0  0  0  0  0  0  0  0  0  0  0
  -10.7285   16.3918  -38.8357 H   0  0  0  0  0  0  0  0  0  0  0  0
  -13.7157   14.5752  -36.5370 H   0  0  0  0  0  0  0  0  0  0  0  0
  -12.0760   14.5169  -40.3237 H   0  0  0  0  0  0  0  0  0  0  0  0
   -9.5781   13.0085  -36.9706 H   0  0  0  0  0  0  0  0  0  0  0  0
  1  2  1  0  0  0  0
  1  7  1  0  0  0  0
  2  8  1  0  0  0  0
  3  5  1  0  0  0  0
  3  9  1  0  0  0  0
  4  6  1  0  0  0  0
  4  9  1  0  0  0  0
  5  6  1  0  0  0  0
  5  7  1  0  0  0  0
  6  8  1  0  0  0  0
  7 10  1  0  0  0  0
  8 10  1  0  0  0  0
  1 11  1  0  0  0  0
  1 12  1  0  0  0  0
  2 13  1  0  0  0  0
  2 14  1  0  0  0  0
  3 15  1  0  0  0  0
  3 16  1  0  0  0  0
  4 17  1  0  0  0  0
  4 18  1  0  0  0  0
  5 19  1  0  0  0  0
  6 20  1  0  0  0  0
  7 21  1  0  0  0  0
  8 22  1  0  0  0  0
  9 23  1  0  0  0  0
M  END
> <id>
EN300-7732397

> <smiles>
Cl.C1CC2OC1C3CNCC23

> <MDLNUMBER>
MFCD22422688

> <IUPAC Name>
10-oxa-4-azatricyclo[5.2.1.0,2,6]decane hydrochloride

> <CAS>
157182-66-6

> <URL>
https://www.enaminestore.com/catalog/EN300-7732397

> <Saltdate>
Cl

> <ROCS_ShapeQuery>
x1247relevant_x1083L0AP1_x1305L0BP1_

> <ROCS_TanimotoCombo>
0.822 

> <ROCS_ShapeTanimoto>
0.411 

> <ROCS_ColorTanimoto>
0.410 

> <ROCS_RefTversky>
0.350 

> <ROCS_RefColorTversky>
0.442 

> <ROCS_RefTverskyCombo>
0.792 

> <ROCS_FitTversky>
1.737 

> <ROCS_FitColorTversky>
0.852 

> <ROCS_FitTverskyCombo>
2.589 

> <ROCS_ColorScore>
-9.402

> <ROCS_Overlap>
1027.518

> <ROCS_Rank>
197                 

$$$$
untitled-dbase-36263_2
  -OEChem-06162310163D

 38 41  0     1  0  0  0  0  0999 V2000
   -9.6764   15.5825  -33.5088 C   0  0  0  0  0  0  0  0  0  0  0  0
  -13.9304   16.2017  -37.5160 C   0  0  0  0  0  0  0  0  0  0  0  0
  -12.9830   17.0124  -38.4020 C   0  0  0  0  0  0  0  0  0  0  0  0
   -9.9997   16.6001  -34.6153 C   0  0  0  0  0  0  0  0  0  0  0  0
  -10.3377   14.5015  -34.3797 C   0  0  0  0  0  0  0  0  0  0  0  0
   -8.8227   15.1646  -36.4191 C   0  0  0  0  0  0  0  0  0  0  0  0
  -12.7398   13.9122  -37.4668 C   0  0  0  0  0  0  0  0  0  0  0  0
  -11.1659   15.2634  -38.9419 C   0  0  0  0  0  0  0  0  0  0  0  0
   -8.9690   13.9128  -37.2877 C   0  0  0  0  0  0  0  0  0  0  0  0
  -13.8575   14.7826  -38.0761 C   0  0  2  0  0  0  0  0  0  0  0  0
  -12.4385   15.9995  -39.4074 C   0  0  1  0  0  0  0  0  0  0  0  0
  -10.1001   15.4154  -35.6205 C   0  0  0  0  0  0  0  0  0  0  0  0
  -11.3250   14.5348  -37.5821 C   0  0  0  0  0  0  0  0  0  0  0  0
  -10.3456   13.4497  -37.4320 N   0  0  0  0  0  0  0  0  0  0  0  0
  -13.5254   15.0103  -39.4922 N   0  0  0  0  0  0  0  0  0  0  0  0
  -11.2197   15.5188  -36.5332 O   0  0  0  0  0  0  0  0  0  0  0  0
   -8.6031   15.4272  -33.3503 H   0  0  0  0  0  0  0  0  0  0  0  0
  -10.1516   15.7671  -32.5416 H   0  0  0  0  0  0  0  0  0  0  0  0
  -13.6659   16.2594  -36.4558 H   0  0  0  0  0  0  0  0  0  0  0  0
  -14.9474   16.6001  -37.6210 H   0  0  0  0  0  0  0  0  0  0  0  0
  -13.5566   17.7904  -38.9202 H   0  0  0  0  0  0  0  0  0  0  0  0
  -12.2025   17.5141  -37.8268 H   0  0  0  0  0  0  0  0  0  0  0  0
  -10.9420   17.1321  -34.4460 H   0  0  0  0  0  0  0  0  0  0  0  0
   -9.2144   17.3375  -34.8042 H   0  0  0  0  0  0  0  0  0  0  0  0
   -9.8300   13.5334  -34.3816 H   0  0  0  0  0  0  0  0  0  0  0  0
  -11.3966   14.3391  -34.1479 H   0  0  0  0  0  0  0  0  0  0  0  0
   -7.9694   15.0367  -35.7336 H   0  0  0  0  0  0  0  0  0  0  0  0
   -8.5733   16.0223  -37.0617 H   0  0  0  0  0  0  0  0  0  0  0  0
  -12.9791   13.7244  -36.4124 H   0  0  0  0  0  0  0  0  0  0  0  0
  -12.7693   12.9392  -37.9769 H   0  0  0  0  0  0  0  0  0  0  0  0
  -10.9007   14.5351  -39.7207 H   0  0  0  0  0  0  0  0  0  0  0  0
  -10.3432   15.9833  -38.9027 H   0  0  0  0  0  0  0  0  0  0  0  0
   -8.5094   14.0761  -38.2909 H   0  0  0  0  0  0  0  0  0  0  0  0
   -8.3675   13.0933  -36.8343 H   0  0  0  0  0  0  0  0  0  0  0  0
  -14.8194   14.2690  -37.9779 H   0  0  0  0  0  0  0  0  0  0  0  0
  -12.2573   16.4669  -40.3800 H   0  0  0  0  0  0  0  0  0  0  0  0
  -10.4087   12.8060  -38.2245 H   0  0  0  0  0  0  0  0  0  0  0  0
  -13.2050   14.1508  -39.9361 H   0  0  0  0  0  0  0  0  0  0  0  0
  1  4  1  0  0  0  0
  1  5  1  0  0  0  0
  2  3  1  0  0  0  0
  2 10  1  0  0  0  0
  3 11  1  0  0  0  0
  4 12  1  0  0  0  0
  5 12  1  0  0  0  0
  6  9  1  0  0  0  0
  6 12  1  0  0  0  0
  7 10  1  0  0  0  0
  7 13  1  0  0  0  0
  8 11  1  0  0  0  0
  8 13  1  0  0  0  0
  9 14  1  0  0  0  0
 10 15  1  0  0  0  0
 11 15  1  0  0  0  0
 12 16  1  0  0  0  0
 13 14  1  0  0  0  0
 13 16  1  0  0  0  0
  1 17  1  0  0  0  0
  1 18  1  0  0  0  0
  2 19  1  0  0  0  0
  2 20  1  0  0  0  0
  3 21  1  0  0  0  0
  3 22  1  0  0  0  0
  4 23  1  0  0  0  0
  4 24  1  0  0  0  0
  5 25  1  0  0  0  0
  5 26  1  0  0  0  0
  6 27  1  0  0  0  0
  6 28  1  0  0  0  0
  7 29  1  0  0  0  0
  7 30  1  0  0  0  0
  8 31  1  0  0  0  0
  8 32  1  0  0  0  0
  9 33  1  0  0  0  0
  9 34  1  0  0  0  0
 10 35  1  0  0  0  0
 11 36  1  0  0  0  0
 14 37  1  0  0  0  0
 15 38  1  0  0  0  0
M  END
> <id>
EN300-1280018

> <smiles>
C1CC2(C1)CCNC3(CC4CCC(C3)N4)O2

> <IUPAC Name>
dispiro[8-azabicyclo[3.2.1]octane-3,2'-[1,3]oxazinane-6',1''-cyclobutane]

> <URL>
https://www.enaminestore.com/catalog/EN300-1280018

> <ROCS_ShapeQuery>
x1247relevant_x1083L0AP1_x1305L0BP1_

> <ROCS_TanimotoCombo>
0.822 

> <ROCS_ShapeTanimoto>
0.496 

> <ROCS_ColorTanimoto>
0.325 

> <ROCS_RefTversky>
0.426 

> <ROCS_RefColorTversky>
0.397 

> <ROCS_RefTverskyCombo>
0.824 

> <ROCS_FitTversky>
1.491 

> <ROCS_FitColorTversky>
0.643 

> <ROCS_FitTverskyCombo>
2.133 

> <ROCS_ColorScore>
-8.502

> <ROCS_Overlap>
1256.944

> <ROCS_Rank>
198                 

$$$$
untitled-dbase-34805_0
  -OEChem-06162310163D

 27 29  0     1  0  0  0  0  0999 V2000
   -9.3233   14.7457  -36.9737 C   0  0  0  0  0  0  0  0  0  0  0  0
  -10.6064   14.1412  -36.4231 C   0  0  0  0  0  0  0  0  0  0  0  0
   -9.7232   15.2171  -38.3636 C   0  0  0  0  0  0  0  0  0  0  0  0
  -12.5572   13.9952  -38.8800 C   0  0  0  0  0  0  0  0  0  0  0  0
  -14.0386   15.4656  -37.7556 C   0  0  0  0  0  0  0  0  0  0  0  0
  -11.7056   15.0842  -36.9155 C   0  0  1  0  0  0  0  0  0  0  0  0
  -11.1283   15.7884  -38.1698 C   0  0  2  0  0  0  0  0  0  0  0  0
  -12.9723   14.3893  -37.4606 C   0  0  2  0  0  0  0  0  0  0  0  0
  -12.1511   15.4250  -39.2662 C   0  0  2  0  0  0  0  0  0  0  0  0
  -13.4503   16.2078  -38.9712 C   0  0  1  0  0  0  0  0  0  0  0  0
  -14.3403   16.1655  -40.0772 O   0  0  0  0  0  0  0  0  0  0  0  0
   -9.0109   15.5982  -36.3588 H   0  0  0  0  0  0  0  0  0  0  0  0
   -8.5020   14.0242  -37.0000 H   0  0  0  0  0  0  0  0  0  0  0  0
  -10.7415   13.1234  -36.8061 H   0  0  0  0  0  0  0  0  0  0  0  0
  -10.5880   14.0770  -35.3307 H   0  0  0  0  0  0  0  0  0  0  0  0
   -9.0304   15.9708  -38.7510 H   0  0  0  0  0  0  0  0  0  0  0  0
   -9.7162   14.3773  -39.0675 H   0  0  0  0  0  0  0  0  0  0  0  0
  -11.7356   13.2751  -38.9171 H   0  0  0  0  0  0  0  0  0  0  0  0
  -13.3900   13.6087  -39.4776 H   0  0  0  0  0  0  0  0  0  0  0  0
  -15.0042   15.0046  -37.9926 H   0  0  0  0  0  0  0  0  0  0  0  0
  -14.1777   16.1364  -36.9015 H   0  0  0  0  0  0  0  0  0  0  0  0
  -11.9485   15.8138  -36.1337 H   0  0  0  0  0  0  0  0  0  0  0  0
  -11.0673   16.8724  -38.0156 H   0  0  0  0  0  0  0  0  0  0  0  0
  -13.3395   13.5740  -36.8341 H   0  0  0  0  0  0  0  0  0  0  0  0
  -11.7845   15.5287  -40.2898 H   0  0  0  0  0  0  0  0  0  0  0  0
  -13.2534   17.2734  -38.7362 H   0  0  0  0  0  0  0  0  0  0  0  0
  -13.9102   16.6479  -40.8018 H   0  0  0  0  0  0  0  0  0  0  0  0
  1  2  1  0  0  0  0
  1  3  1  0  0  0  0
  2  6  1  0  0  0  0
  3  7  1  0  0  0  0
  4  8  1  0  0  0  0
  4  9  1  0  0  0  0
  5  8  1  1  0  0  0
  5 10  1  0  0  0  0
  6  7  1  0  0  0  0
  6  8  1  0  0  0  0
  7  9  1  0  0  0  0
  9 10  1  1  0  0  0
 10 11  1  0  0  0  0
  1 12  1  0  0  0  0
  1 13  1  0  0  0  0
  2 14  1  0  0  0  0
  2 15  1  0  0  0  0
  3 16  1  0  0  0  0
  3 17  1  0  0  0  0
  4 18  1  0  0  0  0
  4 19  1  0  0  0  0
  5 20  1  0  0  0  0
  5 21  1  0  0  0  0
  6 22  1  0  0  0  0
  7 23  1  0  0  0  0
  8 24  1  0  0  0  0
  9 25  1  0  0  0  0
 10 26  1  0  0  0  0
 11 27  1  0  0  0  0
M  END
> <id>
EN300-6814356

> <smiles>
OC1C[C@H]2C[C@@H]1C3CCCC23

> <MDLNUMBER>
MFCD00168035

> <IUPAC Name>
(1R,7R)-tricyclo[5.2.1.0,2,6]decan-8-ol

> <URL>
https://www.enaminestore.com/catalog/EN300-6814356

> <ROCS_ShapeQuery>
x1247relevant_x1083L0AP1_x1305L0BP1_

> <ROCS_TanimotoCombo>
0.821 

> <ROCS_ShapeTanimoto>
0.451 

> <ROCS_ColorTanimoto>
0.370 

> <ROCS_RefTversky>
0.377 

> <ROCS_RefColorTversky>
0.398 

> <ROCS_RefTverskyCombo>
0.775 

> <ROCS_FitTversky>
1.781 

> <ROCS_FitColorTversky>
0.841 

> <ROCS_FitTverskyCombo>
2.622 

> <ROCS_ColorScore>
-8.443

> <ROCS_Overlap>
1106.364

> <ROCS_Rank>
199                 

$$$$
untitled-dbase-42410_0
  -OEChem-06162310163D

 25 26  0     1  0  0  0  0  0999 V2000
  -13.4302   15.9328  -37.3543 C   0  0  0  0  0  0  0  0  0  0  0  0
  -11.1541   15.9719  -38.0466 C   0  0  0  0  0  0  0  0  0  0  0  0
  -13.3247   14.1182  -38.8938 C   0  0  0  0  0  0  0  0  0  0  0  0
  -12.5564   16.3789  -38.5378 C   0  0  1  0  0  0  0  0  0  0  0  0
  -12.9526   14.4797  -37.4377 C   0  0  1  0  0  0  0  0  0  0  0  0
  -11.4282   14.6770  -37.2546 C   0  0  1  0  0  0  0  0  0  0  0  0
  -13.0658   15.4358  -39.6565 C   0  0  1  0  0  0  0  0  0  0  0  0
  -12.1494   15.2674  -40.8610 C   0  0  0  0  0  0  0  0  0  0  0  0
  -10.5951   13.5582  -37.6613 N   0  0  0  0  0  0  0  0  0  0  0  0
  -14.3188   15.9326  -40.1385 O   0  0  0  0  0  0  0  0  0  0  0  0
  -13.1649   16.4246  -36.4120 H   0  0  0  0  0  0  0  0  0  0  0  0
  -14.5047   16.0474  -37.5303 H   0  0  0  0  0  0  0  0  0  0  0  0
  -10.4308   15.8545  -38.8582 H   0  0  0  0  0  0  0  0  0  0  0  0
  -10.7510   16.7352  -37.3694 H   0  0  0  0  0  0  0  0  0  0  0  0
  -12.7368   13.2768  -39.2712 H   0  0  0  0  0  0  0  0  0  0  0  0
  -14.3827   13.8337  -38.9472 H   0  0  0  0  0  0  0  0  0  0  0  0
  -12.6523   17.4411  -38.7765 H   0  0  0  0  0  0  0  0  0  0  0  0
  -13.3936   13.8043  -36.7006 H   0  0  0  0  0  0  0  0  0  0  0  0
  -11.2232   14.8695  -36.1935 H   0  0  0  0  0  0  0  0  0  0  0  0
  -12.0042   16.2274  -41.3571 H   0  0  0  0  0  0  0  0  0  0  0  0
  -12.5901   14.5665  -41.5704 H   0  0  0  0  0  0  0  0  0  0  0  0
  -11.1797   14.8845  -40.5420 H   0  0  0  0  0  0  0  0  0  0  0  0
   -9.6414   13.8050  -37.5228 H   0  0  0  0  0  0  0  0  0  0  0  0
  -10.8315   12.7678  -37.1054 H   0  0  0  0  0  0  0  0  0  0  0  0
  -14.1201   16.7548  -40.6091 H   0  0  0  0  0  0  0  0  0  0  0  0
  1  4  1  0  0  0  0
  1  5  1  0  0  0  0
  2  4  1  6  0  0  0
  2  6  1  0  0  0  0
  3  5  1  6  0  0  0
  3  7  1  0  0  0  0
  4  7  1  0  0  0  0
  5  6  1  0  0  0  0
  6  9  1  6  0  0  0
  7  8  1  6  0  0  0
  7 10  1  0  0  0  0
  1 11  1  0  0  0  0
  1 12  1  0  0  0  0
  2 13  1  0  0  0  0
  2 14  1  0  0  0  0
  3 15  1  0  0  0  0
  3 16  1  0  0  0  0
  4 17  1  0  0  0  0
  5 18  1  0  0  0  0
  6 19  1  0  0  0  0
  8 20  1  0  0  0  0
  8 21  1  0  0  0  0
  8 22  1  0  0  0  0
  9 23  1  0  0  0  0
  9 24  1  0  0  0  0
 10 25  1  0  0  0  0
M  END
> <id>
EN300-7444643

> <smiles>
C[C@@]1(O)C[C@@H]2C[C@H]1C[C@@H]2N |&1:1,4,6,8,r|

> <IUPAC Name>
rac-(1R,2S,4R,5R)-5-amino-2-methylbicyclo[2.2.1]heptan-2-ol

> <CAS>
2375247-57-5

> <URL>
https://www.enaminestore.com/catalog/EN300-7444643

> <ROCS_ShapeQuery>
x1247relevant_x1083L0AP1_x1305L0BP1_

> <ROCS_TanimotoCombo>
0.821 

> <ROCS_ShapeTanimoto>
0.399 

> <ROCS_ColorTanimoto>
0.422 

> <ROCS_RefTversky>
0.340 

> <ROCS_RefColorTversky>
0.448 

> <ROCS_RefTverskyCombo>
0.789 

> <ROCS_FitTversky>
1.760 

> <ROCS_FitColorTversky>
0.879 

> <ROCS_FitTverskyCombo>
2.639 

> <ROCS_ColorScore>
-9.536

> <ROCS_Overlap>
998.427

> <ROCS_Rank>
200                 

$$$$
untitled-dbase-27585_0
  -OEChem-06162310163D

 25 26  0     1  0  0  0  0  0999 V2000
  -13.4302   15.9328  -37.3543 C   0  0  0  0  0  0  0  0  0  0  0  0
  -11.1541   15.9719  -38.0466 C   0  0  0  0  0  0  0  0  0  0  0  0
  -13.3247   14.1182  -38.8938 C   0  0  0  0  0  0  0  0  0  0  0  0
  -12.5564   16.3789  -38.5378 C   0  0  1  0  0  0  0  0  0  0  0  0
  -12.9526   14.4797  -37.4377 C   0  0  1  0  0  0  0  0  0  0  0  0
  -11.4282   14.6770  -37.2546 C   0  0  1  0  0  0  0  0  0  0  0  0
  -13.0658   15.4358  -39.6565 C   0  0  1  0  0  0  0  0  0  0  0  0
  -12.1494   15.2674  -40.8610 C   0  0  0  0  0  0  0  0  0  0  0  0
  -10.5951   13.5582  -37.6613 N   0  0  0  0  0  0  0  0  0  0  0  0
  -14.3188   15.9326  -40.1385 O   0  0  0  0  0  0  0  0  0  0  0  0
  -13.1649   16.4246  -36.4120 H   0  0  0  0  0  0  0  0  0  0  0  0
  -14.5047   16.0474  -37.5303 H   0  0  0  0  0  0  0  0  0  0  0  0
  -10.4308   15.8545  -38.8582 H   0  0  0  0  0  0  0  0  0  0  0  0
  -10.7510   16.7352  -37.3694 H   0  0  0  0  0  0  0  0  0  0  0  0
  -12.7368   13.2768  -39.2712 H   0  0  0  0  0  0  0  0  0  0  0  0
  -14.3827   13.8337  -38.9472 H   0  0  0  0  0  0  0  0  0  0  0  0
  -12.6523   17.4411  -38.7765 H   0  0  0  0  0  0  0  0  0  0  0  0
  -13.3936   13.8043  -36.7006 H   0  0  0  0  0  0  0  0  0  0  0  0
  -11.2232   14.8695  -36.1935 H   0  0  0  0  0  0  0  0  0  0  0  0
  -12.0042   16.2274  -41.3571 H   0  0  0  0  0  0  0  0  0  0  0  0
  -12.5901   14.5665  -41.5704 H   0  0  0  0  0  0  0  0  0  0  0  0
  -11.1797   14.8845  -40.5420 H   0  0  0  0  0  0  0  0  0  0  0  0
   -9.6414   13.8050  -37.5228 H   0  0  0  0  0  0  0  0  0  0  0  0
  -10.8315   12.7678  -37.1054 H   0  0  0  0  0  0  0  0  0  0  0  0
  -14.1201   16.7548  -40.6091 H   0  0  0  0  0  0  0  0  0  0  0  0
  1  4  1  0  0  0  0
  1  5  1  0  0  0  0
  2  4  1  6  0  0  0
  2  6  1  0  0  0  0
  3  5  1  6  0  0  0
  3  7  1  0  0  0  0
  4  7  1  0  0  0  0
  5  6  1  0  0  0  0
  6  9  1  6  0  0  0
  7  8  1  6  0  0  0
  7 10  1  0  0  0  0
  1 11  1  0  0  0  0
  1 12  1  0  0  0  0
  2 13  1  0  0  0  0
  2 14  1  0  0  0  0
  3 15  1  0  0  0  0
  3 16  1  0  0  0  0
  4 17  1  0  0  0  0
  5 18  1  0  0  0  0
  6 19  1  0  0  0  0
  8 20  1  0  0  0  0
  8 21  1  0  0  0  0
  8 22  1  0  0  0  0
  9 23  1  0  0  0  0
  9 24  1  0  0  0  0
 10 25  1  0  0  0  0
M  END
> <id>
EN300-7444642

> <smiles>
Cl.C[C@@]1(O)C[C@@H]2C[C@H]1C[C@@H]2N |&1:2,5,7,9,r|

> <IUPAC Name>
rac-(1R,2S,4R,5R)-5-amino-2-methylbicyclo[2.2.1]heptan-2-ol hydrochloride

> <CAS>
2375247-58-6

> <Purity>
95

> <URL>
https://www.enaminestore.com/catalog/EN300-7444642

> <Saltdate>
Cl

> <ROCS_ShapeQuery>
x1247relevant_x1083L0AP1_x1305L0BP1_

> <ROCS_TanimotoCombo>
0.821 

> <ROCS_ShapeTanimoto>
0.399 

> <ROCS_ColorTanimoto>
0.422 

> <ROCS_RefTversky>
0.340 

> <ROCS_RefColorTversky>
0.448 

> <ROCS_RefTverskyCombo>
0.789 

> <ROCS_FitTversky>
1.760 

> <ROCS_FitColorTversky>
0.879 

> <ROCS_FitTverskyCombo>
2.639 

> <ROCS_ColorScore>
-9.536

> <ROCS_Overlap>
998.427

> <ROCS_Rank>
201                 

$$$$
untitled-dbase-19816_25
  -OEChem-06162310163D

 39 42  0     1  0  0  0  0  0999 V2000
   -8.5367   15.4867  -35.9906 C   0  0  0  0  0  0  0  0  0  0  0  0
  -11.9255   16.4521  -38.4822 C   0  0  0  0  0  0  0  0  0  0  0  0
  -10.9878   15.1112  -35.8436 C   0  0  0  0  0  0  0  0  0  0  0  0
   -9.8235   14.2779  -37.7881 C   0  0  0  0  0  0  0  0  0  0  0  0
  -12.8907   15.8812  -37.4255 C   0  0  2  0  0  0  0  0  0  0  0  0
  -11.8146   15.1064  -39.2247 C   0  0  1  0  0  0  0  0  0  0  0  0
  -12.0631   14.7018  -36.8407 C   0  0  1  0  0  0  0  0  0  0  0  0
  -11.3102   14.1607  -38.0980 C   0  0  2  0  0  0  0  0  0  0  0  0
  -13.9919   15.2556  -38.2746 C   0  0  2  0  0  0  0  0  0  0  0  0
  -13.2721   14.7372  -39.4777 C   0  0  1  0  0  0  0  0  0  0  0  0
   -6.1594   15.2018  -34.4295 C   0  0  0  0  0  0  0  0  0  0  0  0
   -7.7013   14.7270  -32.5043 C   0  0  0  0  0  0  0  0  0  0  0  0
   -7.6805   13.1977  -34.4966 C   0  0  0  0  0  0  0  0  0  0  0  0
   -7.5195   14.6399  -34.0181 C   0  0  0  0  0  0  0  0  0  0  0  0
   -9.7181   15.0062  -36.5353 N   0  0  0  0  0  0  0  0  0  0  0  0
   -7.5922   15.9091  -36.6541 O   0  0  0  0  0  0  0  0  0  0  0  0
  -14.2275   15.7973  -39.5775 O   0  0  0  0  0  0  0  0  0  0  0  0
   -8.5437   15.4377  -34.6222 O   0  0  0  0  0  0  0  0  0  0  0  0
  -12.3738   17.2443  -39.0915 H   0  0  0  0  0  0  0  0  0  0  0  0
  -10.9806   16.8221  -38.0763 H   0  0  0  0  0  0  0  0  0  0  0  0
  -11.1199   16.1183  -35.4354 H   0  0  0  0  0  0  0  0  0  0  0  0
  -10.9549   14.4100  -35.0017 H   0  0  0  0  0  0  0  0  0  0  0  0
   -9.3827   13.2880  -37.6246 H   0  0  0  0  0  0  0  0  0  0  0  0
   -9.2492   14.7782  -38.5743 H   0  0  0  0  0  0  0  0  0  0  0  0
  -13.2566   16.6009  -36.6910 H   0  0  0  0  0  0  0  0  0  0  0  0
  -11.2014   15.1213  -40.1277 H   0  0  0  0  0  0  0  0  0  0  0  0
  -12.7165   13.9352  -36.4074 H   0  0  0  0  0  0  0  0  0  0  0  0
  -11.5784   13.1180  -38.3049 H   0  0  0  0  0  0  0  0  0  0  0  0
  -14.7365   14.6571  -37.7775 H   0  0  0  0  0  0  0  0  0  0  0  0
  -13.4858   13.7564  -39.8677 H   0  0  0  0  0  0  0  0  0  0  0  0
   -6.0251   15.1411  -35.5155 H   0  0  0  0  0  0  0  0  0  0  0  0
   -6.0451   16.2466  -34.1229 H   0  0  0  0  0  0  0  0  0  0  0  0
   -5.3448   14.6193  -33.9843 H   0  0  0  0  0  0  0  0  0  0  0  0
   -8.6759   14.3249  -32.2046 H   0  0  0  0  0  0  0  0  0  0  0  0
   -7.6811   15.7700  -32.1682 H   0  0  0  0  0  0  0  0  0  0  0  0
   -6.9200   14.1757  -31.9712 H   0  0  0  0  0  0  0  0  0  0  0  0
   -8.6560   12.7944  -34.2016 H   0  0  0  0  0  0  0  0  0  0  0  0
   -7.5898   13.1213  -35.5850 H   0  0  0  0  0  0  0  0  0  0  0  0
   -6.9260   12.5485  -34.0378 H   0  0  0  0  0  0  0  0  0  0  0  0
  1 15  1  0  0  0  0
  1 16  2  0  0  0  0
  1 18  1  0  0  0  0
  2  5  1  0  0  0  0
  2  6  1  0  0  0  0
  3  7  1  6  0  0  0
  3 15  1  0  0  0  0
  4  8  1  6  0  0  0
  4 15  1  0  0  0  0
  5  7  1  0  0  0  0
  5  9  1  0  0  0  0
  6  8  1  0  0  0  0
  6 10  1  0  0  0  0
  7  8  1  0  0  0  0
  9 10  1  0  0  0  0
  9 17  1  0  0  0  0
 10 17  1  0  0  0  0
 11 14  1  0  0  0  0
 12 14  1  0  0  0  0
 13 14  1  0  0  0  0
 14 18  1  0  0  0  0
  2 19  1  0  0  0  0
  2 20  1  0  0  0  0
  3 21  1  0  0  0  0
  3 22  1  0  0  0  0
  4 23  1  0  0  0  0
  4 24  1  0  0  0  0
  5 25  1  0  0  0  0
  6 26  1  0  0  0  0
  7 27  1  0  0  0  0
  8 28  1  0  0  0  0
  9 29  1  0  0  0  0
 10 30  1  0  0  0  0
 11 31  1  0  0  0  0
 11 32  1  0  0  0  0
 11 33  1  0  0  0  0
 12 34  1  0  0  0  0
 12 35  1  0  0  0  0
 12 36  1  0  0  0  0
 13 37  1  0  0  0  0
 13 38  1  0  0  0  0
 13 39  1  0  0  0  0
M  END
> <id>
EN300-1708343

> <smiles>
CC(C)(C)OC(=O)N1C[C@H]2C3CC(C4OC43)[C@H]2C1

> <IUPAC Name>
tert-butyl (2R,6S)-9-oxa-4-azatetracyclo[5.3.1.0^{2,6}.0^{8,10}]undecane-4-carboxylate

> <URL>
https://www.enaminestore.com/catalog/EN300-1708343

> <ROCS_ShapeQuery>
x1247relevant_x1083L0AP1_x1305L0BP1_

> <ROCS_TanimotoCombo>
0.821 

> <ROCS_ShapeTanimoto>
0.460 

> <ROCS_ColorTanimoto>
0.361 

> <ROCS_RefTversky>
0.416 

> <ROCS_RefColorTversky>
0.525 

> <ROCS_RefTverskyCombo>
0.940 

> <ROCS_FitTversky>
1.303 

> <ROCS_FitColorTversky>
0.536 

> <ROCS_FitTverskyCombo>
1.839 

> <ROCS_ColorScore>
-11.448

> <ROCS_Overlap>
1227.994

> <ROCS_Rank>
202                 

$$$$
untitled-dbase-16673_4
  -OEChem-06162310163D

 42 45  0     1  0  0  0  0  0999 V2000
  -13.0394   16.9875  -38.1569 C   0  0  0  0  0  0  0  0  0  0  0  0
  -13.9958   16.0124  -37.4683 C   0  0  0  0  0  0  0  0  0  0  0  0
   -8.4682   15.1769  -34.6229 C   0  0  0  0  0  0  0  0  0  0  0  0
   -9.3891   12.8528  -34.4485 C   0  0  0  0  0  0  0  0  0  0  0  0
  -11.0836   15.4176  -38.7708 C   0  0  0  0  0  0  0  0  0  0  0  0
  -12.6806   13.7997  -37.6368 C   0  0  0  0  0  0  0  0  0  0  0  0
   -9.0975   13.9553  -36.7254 C   0  0  0  0  0  0  0  0  0  0  0  0
   -8.5634   15.2552  -33.1009 C   0  0  0  0  0  0  0  0  0  0  0  0
   -9.4805   13.0797  -32.9436 C   0  0  0  0  0  0  0  0  0  0  0  0
  -10.9273   14.7330  -35.1616 C   0  0  0  0  0  0  0  0  0  0  0  0
  -12.3560   16.1536  -39.2385 C   0  0  1  0  0  0  0  0  0  0  0  0
  -13.7978   14.6934  -38.2123 C   0  0  2  0  0  0  0  0  0  0  0  0
   -9.4788   14.1803  -35.2412 C   0  0  0  0  0  0  0  0  0  0  0  0
  -11.3028   14.5053  -37.5314 C   0  0  0  0  0  0  0  0  0  0  0  0
  -10.2552   13.4642  -37.4650 N   0  0  0  0  0  0  0  0  0  0  0  0
  -13.3727   15.1360  -39.5504 N   0  0  0  0  0  0  0  0  0  0  0  0
   -8.4476   13.9627  -32.5114 O   0  0  0  0  0  0  0  0  0  0  0  0
  -11.2942   15.3799  -36.3799 O   0  0  0  0  0  0  0  0  0  0  0  0
  -13.6220   17.7972  -38.6141 H   0  0  0  0  0  0  0  0  0  0  0  0
  -12.3345   17.4499  -37.4596 H   0  0  0  0  0  0  0  0  0  0  0  0
  -13.8107   15.9306  -36.3933 H   0  0  0  0  0  0  0  0  0  0  0  0
  -15.0250   16.3703  -37.5954 H   0  0  0  0  0  0  0  0  0  0  0  0
   -8.5835   16.1874  -35.0371 H   0  0  0  0  0  0  0  0  0  0  0  0
   -7.4499   14.8457  -34.8776 H   0  0  0  0  0  0  0  0  0  0  0  0
   -8.4224   12.3828  -34.6638 H   0  0  0  0  0  0  0  0  0  0  0  0
  -10.1680   12.1544  -34.7686 H   0  0  0  0  0  0  0  0  0  0  0  0
  -10.7217   14.8171  -39.6174 H   0  0  0  0  0  0  0  0  0  0  0  0
  -10.3080   16.1631  -38.5525 H   0  0  0  0  0  0  0  0  0  0  0  0
  -13.0122   13.4199  -36.6644 H   0  0  0  0  0  0  0  0  0  0  0  0
  -12.5882   12.9221  -38.2938 H   0  0  0  0  0  0  0  0  0  0  0  0
   -8.7608   14.8876  -37.1777 H   0  0  0  0  0  0  0  0  0  0  0  0
   -8.2727   13.2479  -36.8079 H   0  0  0  0  0  0  0  0  0  0  0  0
   -7.7421   15.8686  -32.7145 H   0  0  0  0  0  0  0  0  0  0  0  0
   -9.4967   15.7264  -32.7722 H   0  0  0  0  0  0  0  0  0  0  0  0
  -10.4551   13.4786  -32.6470 H   0  0  0  0  0  0  0  0  0  0  0  0
   -9.3428   12.1294  -32.4200 H   0  0  0  0  0  0  0  0  0  0  0  0
  -11.6416   13.9373  -34.9375 H   0  0  0  0  0  0  0  0  0  0  0  0
  -11.0312   15.4715  -34.3651 H   0  0  0  0  0  0  0  0  0  0  0  0
  -12.1225   16.7593  -40.1210 H   0  0  0  0  0  0  0  0  0  0  0  0
  -14.7301   14.1212  -38.2667 H   0  0  0  0  0  0  0  0  0  0  0  0
   -9.9745   13.2123  -38.4023 H   0  0  0  0  0  0  0  0  0  0  0  0
  -14.1620   15.5911  -40.0114 H   0  0  0  0  0  0  0  0  0  0  0  0
  1  2  1  0  0  0  0
  1 11  1  0  0  0  0
  2 12  1  0  0  0  0
  3  8  1  0  0  0  0
  3 13  1  0  0  0  0
  4  9  1  0  0  0  0
  4 13  1  0  0  0  0
  5 11  1  0  0  0  0
  5 14  1  0  0  0  0
  6 12  1  0  0  0  0
  6 14  1  0  0  0  0
  7 13  1  0  0  0  0
  7 15  1  0  0  0  0
  8 17  1  0  0  0  0
  9 17  1  0  0  0  0
 10 13  1  0  0  0  0
 10 18  1  0  0  0  0
 11 16  1  0  0  0  0
 12 16  1  0  0  0  0
 14 15  1  0  0  0  0
 14 18  1  0  0  0  0
  1 19  1  0  0  0  0
  1 20  1  0  0  0  0
  2 21  1  0  0  0  0
  2 22  1  0  0  0  0
  3 23  1  0  0  0  0
  3 24  1  0  0  0  0
  4 25  1  0  0  0  0
  4 26  1  0  0  0  0
  5 27  1  0  0  0  0
  5 28  1  0  0  0  0
  6 29  1  0  0  0  0
  6 30  1  0  0  0  0
  7 31  1  0  0  0  0
  7 32  1  0  0  0  0
  8 33  1  0  0  0  0
  8 34  1  0  0  0  0
  9 35  1  0  0  0  0
  9 36  1  0  0  0  0
 10 37  1  0  0  0  0
 10 38  1  0  0  0  0
 11 39  1  0  0  0  0
 12 40  1  0  0  0  0
 15 41  1  0  0  0  0
 16 42  1  0  0  0  0
M  END
> <id>
EN300-1278993

> <smiles>
C1CC2CC3(CC1N2)NCC4(CCOCC4)CO3

> <IUPAC Name>
dispiro[8-azabicyclo[3.2.1]octane-3,2'-[1,3]oxazinane-5',4''-oxane]

> <URL>
https://www.enaminestore.com/catalog/EN300-1278993

> <ROCS_ShapeQuery>
x1247relevant_x1083L0AP1_x1305L0BP1_

> <ROCS_TanimotoCombo>
0.821 

> <ROCS_ShapeTanimoto>
0.477 

> <ROCS_ColorTanimoto>
0.344 

> <ROCS_RefTversky>
0.425 

> <ROCS_RefColorTversky>
0.425 

> <ROCS_RefTverskyCombo>
0.849 

> <ROCS_FitTversky>
1.351 

> <ROCS_FitColorTversky>
0.643 

> <ROCS_FitTverskyCombo>
1.994 

> <ROCS_ColorScore>
-9.112

> <ROCS_Overlap>
1253.416

> <ROCS_Rank>
203                 

$$$$
untitled-dbase-41458_0
  -OEChem-06162310163D

 44 47  0     1  0  0  0  0  0999 V2000
   -7.0283   14.8389  -33.6977 C   0  0  0  0  0  0  0  0  0  0  0  0
   -8.4704   14.3572  -33.5922 C   0  0  0  0  0  0  0  0  0  0  0  0
   -6.8333   15.7918  -34.8710 C   0  0  0  0  0  0  0  0  0  0  0  0
   -8.9645   13.7473  -34.9047 C   0  0  0  0  0  0  0  0  0  0  0  0
   -7.3122   15.1725  -36.1830 C   0  0  0  0  0  0  0  0  0  0  0  0
  -12.0549   14.9096  -39.8169 C   0  0  0  0  0  0  0  0  0  0  0  0
  -12.3751   16.8255  -38.2978 C   0  0  0  0  0  0  0  0  0  0  0  0
  -13.4929   14.4959  -39.4663 C   0  0  0  0  0  0  0  0  0  0  0  0
  -13.7401   16.2744  -37.8607 C   0  0  0  0  0  0  0  0  0  0  0  0
   -9.0933   13.9046  -37.4325 C   0  0  0  0  0  0  0  0  0  0  0  0
  -12.8425   14.1385  -37.1807 C   0  0  0  0  0  0  0  0  0  0  0  0
   -9.7490   15.8801  -36.0676 C   0  0  0  0  0  0  0  0  0  0  0  0
  -11.4335   15.6437  -38.6143 C   0  0  0  0  0  0  0  0  0  0  0  0
   -8.7778   14.6819  -36.1316 C   0  0  0  0  0  0  0  0  0  0  0  0
  -11.3971   14.6971  -37.3699 C   0  0  2  0  0  0  0  0  0  0  0  0
  -10.5039   13.5363  -37.5119 N   0  0  0  0  0  0  0  0  0  0  0  0
  -13.8279   14.8133  -38.0607 N   0  0  0  0  0  0  0  0  0  0  0  0
  -11.1066   15.4466  -36.1709 O   0  0  0  0  0  0  0  0  0  0  0  0
   -6.7357   15.3356  -32.7657 H   0  0  0  0  0  0  0  0  0  0  0  0
   -6.3646   13.9737  -33.8184 H   0  0  0  0  0  0  0  0  0  0  0  0
   -8.5459   13.6095  -32.7940 H   0  0  0  0  0  0  0  0  0  0  0  0
   -9.1177   15.1907  -33.2971 H   0  0  0  0  0  0  0  0  0  0  0  0
   -7.3678   16.7294  -34.6798 H   0  0  0  0  0  0  0  0  0  0  0  0
   -5.7715   16.0505  -34.9573 H   0  0  0  0  0  0  0  0  0  0  0  0
   -8.4097   12.8147  -35.0763 H   0  0  0  0  0  0  0  0  0  0  0  0
  -10.0157   13.4596  -34.7834 H   0  0  0  0  0  0  0  0  0  0  0  0
   -7.1844   15.9030  -36.9918 H   0  0  0  0  0  0  0  0  0  0  0  0
   -6.6548   14.3269  -36.4256 H   0  0  0  0  0  0  0  0  0  0  0  0
  -11.4608   14.0333  -40.0961 H   0  0  0  0  0  0  0  0  0  0  0  0
  -12.0670   15.5708  -40.6920 H   0  0  0  0  0  0  0  0  0  0  0  0
  -12.4933   17.4561  -39.1878 H   0  0  0  0  0  0  0  0  0  0  0  0
  -11.9570   17.4648  -37.5124 H   0  0  0  0  0  0  0  0  0  0  0  0
  -14.2024   14.9962  -40.1375 H   0  0  0  0  0  0  0  0  0  0  0  0
  -13.6261   13.4221  -39.6471 H   0  0  0  0  0  0  0  0  0  0  0  0
  -13.9251   16.5157  -36.8064 H   0  0  0  0  0  0  0  0  0  0  0  0
  -14.5395   16.7745  -38.4213 H   0  0  0  0  0  0  0  0  0  0  0  0
   -8.8106   14.4952  -38.3126 H   0  0  0  0  0  0  0  0  0  0  0  0
   -8.4930   12.9879  -37.4752 H   0  0  0  0  0  0  0  0  0  0  0  0
  -12.8930   13.0606  -37.3883 H   0  0  0  0  0  0  0  0  0  0  0  0
  -13.1661   14.2438  -36.1365 H   0  0  0  0  0  0  0  0  0  0  0  0
   -9.6608   16.4253  -35.1237 H   0  0  0  0  0  0  0  0  0  0  0  0
   -9.5385   16.6066  -36.8606 H   0  0  0  0  0  0  0  0  0  0  0  0
  -10.4434   16.0308  -38.8739 H   0  0  0  0  0  0  0  0  0  0  0  0
  -10.6850   13.0428  -38.3835 H   0  0  0  0  0  0  0  0  0  0  0  0
  1  2  1  0  0  0  0
  1  3  1  0  0  0  0
  2  4  1  0  0  0  0
  3  5  1  0  0  0  0
  4 14  1  0  0  0  0
  5 14  1  0  0  0  0
  6  8  1  0  0  0  0
  6 13  1  0  0  0  0
  7  9  1  0  0  0  0
  7 13  1  0  0  0  0
  8 17  1  0  0  0  0
  9 17  1  0  0  0  0
 10 14  1  0  0  0  0
 10 16  1  0  0  0  0
 11 15  1  0  0  0  0
 11 17  1  0  0  0  0
 12 14  1  0  0  0  0
 12 18  1  0  0  0  0
 13 15  1  0  0  0  0
 15 16  1  0  0  0  0
 15 18  1  0  0  0  0
  1 19  1  0  0  0  0
  1 20  1  0  0  0  0
  2 21  1  0  0  0  0
  2 22  1  0  0  0  0
  3 23  1  0  0  0  0
  3 24  1  0  0  0  0
  4 25  1  0  0  0  0
  4 26  1  0  0  0  0
  5 27  1  0  0  0  0
  5 28  1  0  0  0  0
  6 29  1  0  0  0  0
  6 30  1  0  0  0  0
  7 31  1  0  0  0  0
  7 32  1  0  0  0  0
  8 33  1  0  0  0  0
  8 34  1  0  0  0  0
  9 35  1  0  0  0  0
  9 36  1  0  0  0  0
 10 37  1  0  0  0  0
 10 38  1  0  0  0  0
 11 39  1  0  0  0  0
 11 40  1  0  0  0  0
 12 41  1  0  0  0  0
 12 42  1  0  0  0  0
 13 43  1  0  0  0  0
 16 44  1  0  0  0  0
M  END
> <id>
EN300-1279842

> <smiles>
C1CCC2(CC1)CNC3(CN4CCC3CC4)OC2

> <IUPAC Name>
dispiro[4-azabicyclo[2.2.2]octane-2,2'-[1,3]oxazinane-5',1''-cyclohexane]

> <CAS>
2172325-62-9

> <URL>
https://www.enaminestore.com/catalog/EN300-1279842

> <ROCS_ShapeQuery>
x1247relevant_x1083L0AP1_x1305L0BP1_

> <ROCS_TanimotoCombo>
0.821 

> <ROCS_ShapeTanimoto>
0.473 

> <ROCS_ColorTanimoto>
0.348 

> <ROCS_RefTversky>
0.421 

> <ROCS_RefColorTversky>
0.410 

> <ROCS_RefTverskyCombo>
0.831 

> <ROCS_FitTversky>
1.348 

> <ROCS_FitColorTversky>
0.698 

> <ROCS_FitTverskyCombo>
2.046 

> <ROCS_ColorScore>
-8.764

> <ROCS_Overlap>
1242.907

> <ROCS_Rank>
204                 

$$$$
untitled-dbase-36926_0
  -OEChem-06162310163D

 23 25  0     1  0  0  0  0  0999 V2000
  -13.9473   16.1515  -38.0770 C   0  0  0  0  0  0  0  0  0  0  0  0
  -13.3395   16.1297  -39.4809 C   0  0  0  0  0  0  0  0  0  0  0  0
  -10.9315   14.4130  -36.3169 C   0  0  0  0  0  0  0  0  0  0  0  0
  -10.0117   14.3808  -38.4403 C   0  0  0  0  0  0  0  0  0  0  0  0
  -11.7386   15.4440  -37.1034 C   0  0  1  0  0  0  0  0  0  0  0  0
  -11.1261   15.4224  -38.5177 C   0  0  2  0  0  0  0  0  0  0  0  0
  -13.1889   15.0185  -37.3856 C   0  0  2  0  0  0  0  0  0  0  0  0
  -12.3291   14.9878  -39.3712 C   0  0  1  0  0  0  0  0  0  0  0  0
  -10.3887   13.5100  -37.3293 N   0  0  0  0  0  0  0  0  0  0  0  0
  -13.0297   14.0891  -38.4815 O   0  0  0  0  0  0  0  0  0  0  0  0
  -13.8327   17.1157  -37.5735 H   0  0  0  0  0  0  0  0  0  0  0  0
  -15.0165   15.9190  -38.1383 H   0  0  0  0  0  0  0  0  0  0  0  0
  -14.1185   15.8862  -40.2121 H   0  0  0  0  0  0  0  0  0  0  0  0
  -12.8824   17.0817  -39.7660 H   0  0  0  0  0  0  0  0  0  0  0  0
  -10.1083   14.9078  -35.7874 H   0  0  0  0  0  0  0  0  0  0  0  0
  -11.5346   13.8751  -35.5798 H   0  0  0  0  0  0  0  0  0  0  0  0
   -9.8930   13.8174  -39.3704 H   0  0  0  0  0  0  0  0  0  0  0  0
   -9.0570   14.8714  -38.2142 H   0  0  0  0  0  0  0  0  0  0  0  0
  -11.6875   16.4258  -36.6210 H   0  0  0  0  0  0  0  0  0  0  0  0
  -10.7288   16.3919  -38.8358 H   0  0  0  0  0  0  0  0  0  0  0  0
  -13.7158   14.5755  -36.5373 H   0  0  0  0  0  0  0  0  0  0  0  0
  -12.0760   14.5168  -40.3241 H   0  0  0  0  0  0  0  0  0  0  0  0
   -9.5785   13.0081  -36.9705 H   0  0  0  0  0  0  0  0  0  0  0  0
  1  2  1  0  0  0  0
  1  7  1  6  0  0  0
  2  8  1  6  0  0  0
  3  5  1  1  0  0  0
  3  9  1  0  0  0  0
  4  6  1  1  0  0  0
  4  9  1  0  0  0  0
  5  6  1  0  0  0  0
  5  7  1  0  0  0  0
  6  8  1  0  0  0  0
  7 10  1  0  0  0  0
  8 10  1  0  0  0  0
  1 11  1  0  0  0  0
  1 12  1  0  0  0  0
  2 13  1  0  0  0  0
  2 14  1  0  0  0  0
  3 15  1  0  0  0  0
  3 16  1  0  0  0  0
  4 17  1  0  0  0  0
  4 18  1  0  0  0  0
  5 19  1  0  0  0  0
  6 20  1  0  0  0  0
  7 21  1  0  0  0  0
  8 22  1  0  0  0  0
  9 23  1  0  0  0  0
M  END
> <id>
EN300-392631

> <smiles>
C1C[C@@H]2O[C@H]1[C@H]3CNC[C@@H]23

> <MDLNUMBER>
MFCD18917046

> <IUPAC Name>
(1R,2R,6S,7S)-10-oxa-4-azatricyclo[5.2.1.0,2,6]decane

> <CAS>
73611-42-4

> <Purity>
95

> <URL>
https://www.enaminestore.com/catalog/EN300-392631

> <ROCS_ShapeQuery>
x1247relevant_x1083L0AP1_x1305L0BP1_

> <ROCS_TanimotoCombo>
0.820 

> <ROCS_ShapeTanimoto>
0.411 

> <ROCS_ColorTanimoto>
0.409 

> <ROCS_RefTversky>
0.350 

> <ROCS_RefColorTversky>
0.442 

> <ROCS_RefTverskyCombo>
0.792 

> <ROCS_FitTversky>
1.733 

> <ROCS_FitColorTversky>
0.848 

> <ROCS_FitTverskyCombo>
2.581 

> <ROCS_ColorScore>
-9.403

> <ROCS_Overlap>
1027.527

> <ROCS_Rank>
205                 

$$$$
untitled-dbase-12982_0
  -OEChem-06162310163D

 23 25  0     1  0  0  0  0  0999 V2000
  -13.9473   16.1515  -38.0770 C   0  0  0  0  0  0  0  0  0  0  0  0
  -13.3395   16.1297  -39.4809 C   0  0  0  0  0  0  0  0  0  0  0  0
  -10.9315   14.4130  -36.3169 C   0  0  0  0  0  0  0  0  0  0  0  0
  -10.0117   14.3808  -38.4403 C   0  0  0  0  0  0  0  0  0  0  0  0
  -11.7386   15.4440  -37.1034 C   0  0  1  0  0  0  0  0  0  0  0  0
  -11.1261   15.4224  -38.5177 C   0  0  2  0  0  0  0  0  0  0  0  0
  -13.1889   15.0185  -37.3856 C   0  0  2  0  0  0  0  0  0  0  0  0
  -12.3291   14.9878  -39.3712 C   0  0  1  0  0  0  0  0  0  0  0  0
  -10.3887   13.5100  -37.3293 N   0  0  0  0  0  0  0  0  0  0  0  0
  -13.0297   14.0891  -38.4815 O   0  0  0  0  0  0  0  0  0  0  0  0
  -13.8327   17.1157  -37.5735 H   0  0  0  0  0  0  0  0  0  0  0  0
  -15.0165   15.9190  -38.1383 H   0  0  0  0  0  0  0  0  0  0  0  0
  -14.1185   15.8862  -40.2121 H   0  0  0  0  0  0  0  0  0  0  0  0
  -12.8824   17.0817  -39.7660 H   0  0  0  0  0  0  0  0  0  0  0  0
  -10.1083   14.9078  -35.7874 H   0  0  0  0  0  0  0  0  0  0  0  0
  -11.5346   13.8751  -35.5798 H   0  0  0  0  0  0  0  0  0  0  0  0
   -9.8930   13.8174  -39.3704 H   0  0  0  0  0  0  0  0  0  0  0  0
   -9.0570   14.8714  -38.2142 H   0  0  0  0  0  0  0  0  0  0  0  0
  -11.6875   16.4258  -36.6210 H   0  0  0  0  0  0  0  0  0  0  0  0
  -10.7288   16.3919  -38.8358 H   0  0  0  0  0  0  0  0  0  0  0  0
  -13.7158   14.5755  -36.5373 H   0  0  0  0  0  0  0  0  0  0  0  0
  -12.0760   14.5168  -40.3241 H   0  0  0  0  0  0  0  0  0  0  0  0
   -9.5785   13.0081  -36.9705 H   0  0  0  0  0  0  0  0  0  0  0  0
  1  2  1  0  0  0  0
  1  7  1  6  0  0  0
  2  8  1  6  0  0  0
  3  5  1  1  0  0  0
  3  9  1  0  0  0  0
  4  6  1  1  0  0  0
  4  9  1  0  0  0  0
  5  6  1  0  0  0  0
  5  7  1  0  0  0  0
  6  8  1  0  0  0  0
  7 10  1  0  0  0  0
  8 10  1  0  0  0  0
  1 11  1  0  0  0  0
  1 12  1  0  0  0  0
  2 13  1  0  0  0  0
  2 14  1  0  0  0  0
  3 15  1  0  0  0  0
  3 16  1  0  0  0  0
  4 17  1  0  0  0  0
  4 18  1  0  0  0  0
  5 19  1  0  0  0  0
  6 20  1  0  0  0  0
  7 21  1  0  0  0  0
  8 22  1  0  0  0  0
  9 23  1  0  0  0  0
M  END
> <id>
EN300-37380835

> <smiles>
Cl.C1C[C@@H]2O[C@H]1[C@H]3CNC[C@@H]23

> <IUPAC Name>
(1R,2R,6S,7S)-10-oxa-4-azatricyclo[5.2.1.0,2,6]decane hydrochloride

> <CAS>
2763741-10-0

> <Purity>
95

> <URL>
https://www.enaminestore.com/catalog/EN300-37380835

> <ROCS_ShapeQuery>
x1247relevant_x1083L0AP1_x1305L0BP1_

> <ROCS_TanimotoCombo>
0.820 

> <ROCS_ShapeTanimoto>
0.411 

> <ROCS_ColorTanimoto>
0.409 

> <ROCS_RefTversky>
0.350 

> <ROCS_RefColorTversky>
0.442 

> <ROCS_RefTverskyCombo>
0.792 

> <ROCS_FitTversky>
1.733 

> <ROCS_FitColorTversky>
0.848 

> <ROCS_FitTverskyCombo>
2.581 

> <ROCS_ColorScore>
-9.403

> <ROCS_Overlap>
1027.527

> <ROCS_Rank>
206                 

$$$$
untitled-dbase-38574_0
  -OEChem-06162310163D

 28 30  0     1  0  0  0  0  0999 V2000
   -9.7218   13.9949  -35.8447 C   0  0  0  0  0  0  0  0  0  0  0  0
   -8.9448   14.9416  -36.5095 C   0  0  0  0  0  0  0  0  0  0  0  0
  -11.0267   13.7407  -36.2649 C   0  0  0  0  0  0  0  0  0  0  0  0
   -9.4678   15.6361  -37.6005 C   0  0  0  0  0  0  0  0  0  0  0  0
  -11.5602   14.4274  -37.3626 C   0  0  0  0  0  0  0  0  0  0  0  0
  -10.7755   15.3855  -38.0411 C   0  0  0  0  0  0  0  0  0  0  0  0
  -13.8659   15.3571  -37.2778 C   0  0  0  0  0  0  0  0  0  0  0  0
  -13.7170   16.4551  -38.3412 C   0  0  0  0  0  0  0  0  0  0  0  0
  -13.1292   14.3392  -39.3027 C   0  0  0  0  0  0  0  0  0  0  0  0
  -12.9988   14.1974  -37.7852 C   0  0  1  0  0  0  0  0  0  0  0  0
  -11.3412   16.1315  -39.2423 C   0  0  2  0  0  0  0  0  0  0  0  0
  -12.8528   15.8379  -39.4612 C   0  0  2  0  0  0  0  0  0  0  0  0
  -10.6149   15.7525  -40.4632 N   0  0  0  0  0  0  0  0  0  0  0  0
   -9.3123   13.4590  -34.9932 H   0  0  0  0  0  0  0  0  0  0  0  0
   -7.9302   15.1407  -36.1767 H   0  0  0  0  0  0  0  0  0  0  0  0
  -11.6267   13.0105  -35.7283 H   0  0  0  0  0  0  0  0  0  0  0  0
   -8.8493   16.3742  -38.1047 H   0  0  0  0  0  0  0  0  0  0  0  0
  -13.5806   15.7138  -36.2823 H   0  0  0  0  0  0  0  0  0  0  0  0
  -14.9164   15.0456  -37.2279 H   0  0  0  0  0  0  0  0  0  0  0  0
  -14.7075   16.7186  -38.7308 H   0  0  0  0  0  0  0  0  0  0  0  0
  -13.2776   17.3677  -37.9256 H   0  0  0  0  0  0  0  0  0  0  0  0
  -12.4305   13.7056  -39.8588 H   0  0  0  0  0  0  0  0  0  0  0  0
  -14.1475   14.0964  -39.6305 H   0  0  0  0  0  0  0  0  0  0  0  0
  -13.3610   13.2243  -37.4381 H   0  0  0  0  0  0  0  0  0  0  0  0
  -11.2104   17.2090  -39.0820 H   0  0  0  0  0  0  0  0  0  0  0  0
  -13.1810   16.2157  -40.4366 H   0  0  0  0  0  0  0  0  0  0  0  0
  -10.9984   16.2700  -41.2142 H   0  0  0  0  0  0  0  0  0  0  0  0
   -9.6605   15.9747  -40.3258 H   0  0  0  0  0  0  0  0  0  0  0  0
  1  2  2  0  0  0  0
  1  3  1  0  0  0  0
  2  4  1  0  0  0  0
  3  5  2  0  0  0  0
  4  6  2  0  0  0  0
  5  6  1  0  0  0  0
  5 10  1  0  0  0  0
  6 11  1  0  0  0  0
  7  8  1  0  0  0  0
  7 10  1  0  0  0  0
  8 12  1  0  0  0  0
  9 10  1  0  0  0  0
  9 12  1  0  0  0  0
 11 12  1  0  0  0  0
 11 13  1  0  0  0  0
  1 14  1  0  0  0  0
  2 15  1  0  0  0  0
  3 16  1  0  0  0  0
  4 17  1  0  0  0  0
  7 18  1  0  0  0  0
  7 19  1  0  0  0  0
  8 20  1  0  0  0  0
  8 21  1  0  0  0  0
  9 22  1  0  0  0  0
  9 23  1  0  0  0  0
 10 24  1  0  0  0  0
 11 25  1  0  0  0  0
 12 26  1  0  0  0  0
 13 27  1  0  0  0  0
 13 28  1  0  0  0  0
M  END
> <id>
EN300-7466303

> <smiles>
NC1C2CCC(C2)C=3C=CC=CC13

> <MDLNUMBER>
MFCD32219651

> <IUPAC Name>
tricyclo[7.2.1.0,2,7]dodeca-2,4,6-trien-8-amine

> <CAS>
2402831-02-9

> <URL>
https://www.enaminestore.com/catalog/EN300-7466303

> <ROCS_ShapeQuery>
x1247relevant_x1083L0AP1_x1305L0BP1_

> <ROCS_TanimotoCombo>
0.820 

> <ROCS_ShapeTanimoto>
0.493 

> <ROCS_ColorTanimoto>
0.328 

> <ROCS_RefTversky>
0.410 

> <ROCS_RefColorTversky>
0.356 

> <ROCS_RefTverskyCombo>
0.766 

> <ROCS_FitTversky>
1.694 

> <ROCS_FitColorTversky>
0.802 

> <ROCS_FitTverskyCombo>
2.496 

> <ROCS_ColorScore>
-7.555

> <ROCS_Overlap>
1205.529

> <ROCS_Rank>
207                 

$$$$
untitled-dbase-38200_0
  -OEChem-06162310163D

 28 30  0     1  0  0  0  0  0999 V2000
   -9.7218   13.9949  -35.8447 C   0  0  0  0  0  0  0  0  0  0  0  0
   -8.9448   14.9416  -36.5095 C   0  0  0  0  0  0  0  0  0  0  0  0
  -11.0267   13.7407  -36.2649 C   0  0  0  0  0  0  0  0  0  0  0  0
   -9.4678   15.6361  -37.6005 C   0  0  0  0  0  0  0  0  0  0  0  0
  -11.5602   14.4274  -37.3626 C   0  0  0  0  0  0  0  0  0  0  0  0
  -10.7755   15.3855  -38.0411 C   0  0  0  0  0  0  0  0  0  0  0  0
  -13.8659   15.3571  -37.2778 C   0  0  0  0  0  0  0  0  0  0  0  0
  -13.7170   16.4551  -38.3412 C   0  0  0  0  0  0  0  0  0  0  0  0
  -13.1292   14.3392  -39.3027 C   0  0  0  0  0  0  0  0  0  0  0  0
  -12.9988   14.1974  -37.7852 C   0  0  1  0  0  0  0  0  0  0  0  0
  -11.3412   16.1315  -39.2423 C   0  0  2  0  0  0  0  0  0  0  0  0
  -12.8528   15.8379  -39.4612 C   0  0  2  0  0  0  0  0  0  0  0  0
  -10.6149   15.7525  -40.4632 N   0  0  0  0  0  0  0  0  0  0  0  0
   -9.3123   13.4590  -34.9932 H   0  0  0  0  0  0  0  0  0  0  0  0
   -7.9302   15.1407  -36.1767 H   0  0  0  0  0  0  0  0  0  0  0  0
  -11.6267   13.0105  -35.7283 H   0  0  0  0  0  0  0  0  0  0  0  0
   -8.8493   16.3742  -38.1047 H   0  0  0  0  0  0  0  0  0  0  0  0
  -13.5806   15.7138  -36.2823 H   0  0  0  0  0  0  0  0  0  0  0  0
  -14.9164   15.0456  -37.2279 H   0  0  0  0  0  0  0  0  0  0  0  0
  -14.7075   16.7186  -38.7308 H   0  0  0  0  0  0  0  0  0  0  0  0
  -13.2776   17.3677  -37.9256 H   0  0  0  0  0  0  0  0  0  0  0  0
  -12.4305   13.7056  -39.8588 H   0  0  0  0  0  0  0  0  0  0  0  0
  -14.1475   14.0964  -39.6305 H   0  0  0  0  0  0  0  0  0  0  0  0
  -13.3610   13.2243  -37.4381 H   0  0  0  0  0  0  0  0  0  0  0  0
  -11.2104   17.2090  -39.0820 H   0  0  0  0  0  0  0  0  0  0  0  0
  -13.1810   16.2157  -40.4366 H   0  0  0  0  0  0  0  0  0  0  0  0
  -10.9984   16.2700  -41.2142 H   0  0  0  0  0  0  0  0  0  0  0  0
   -9.6605   15.9747  -40.3258 H   0  0  0  0  0  0  0  0  0  0  0  0
  1  2  2  0  0  0  0
  1  3  1  0  0  0  0
  2  4  1  0  0  0  0
  3  5  2  0  0  0  0
  4  6  2  0  0  0  0
  5  6  1  0  0  0  0
  5 10  1  0  0  0  0
  6 11  1  0  0  0  0
  7  8  1  0  0  0  0
  7 10  1  0  0  0  0
  8 12  1  0  0  0  0
  9 10  1  0  0  0  0
  9 12  1  0  0  0  0
 11 12  1  0  0  0  0
 11 13  1  0  0  0  0
  1 14  1  0  0  0  0
  2 15  1  0  0  0  0
  3 16  1  0  0  0  0
  4 17  1  0  0  0  0
  7 18  1  0  0  0  0
  7 19  1  0  0  0  0
  8 20  1  0  0  0  0
  8 21  1  0  0  0  0
  9 22  1  0  0  0  0
  9 23  1  0  0  0  0
 10 24  1  0  0  0  0
 11 25  1  0  0  0  0
 12 26  1  0  0  0  0
 13 27  1  0  0  0  0
 13 28  1  0  0  0  0
M  END
> <id>
EN300-7466302

> <smiles>
Cl.NC1C2CCC(C2)C=3C=CC=CC13

> <MDLNUMBER>
MFCD32220136

> <IUPAC Name>
tricyclo[7.2.1.0,2,7]dodeca-2,4,6-trien-8-amine hydrochloride

> <CAS>
2402831-13-2

> <Purity>
95

> <URL>
https://www.enaminestore.com/catalog/EN300-7466302

> <Saltdate>
Cl

> <ROCS_ShapeQuery>
x1247relevant_x1083L0AP1_x1305L0BP1_

> <ROCS_TanimotoCombo>
0.820 

> <ROCS_ShapeTanimoto>
0.493 

> <ROCS_ColorTanimoto>
0.328 

> <ROCS_RefTversky>
0.410 

> <ROCS_RefColorTversky>
0.356 

> <ROCS_RefTverskyCombo>
0.766 

> <ROCS_FitTversky>
1.694 

> <ROCS_FitColorTversky>
0.802 

> <ROCS_FitTverskyCombo>
2.496 

> <ROCS_ColorScore>
-7.555

> <ROCS_Overlap>
1205.529

> <ROCS_Rank>
208                 

$$$$
untitled-dbase-50117_0
  -OEChem-06162310163D

 20 22  0     1  0  0  0  0  0999 V2000
  -13.5577   14.8212  -37.1861 C   0  0  0  0  0  0  0  0  0  0  0  0
  -12.8717   15.9611  -37.0155 C   0  0  0  0  0  0  0  0  0  0  0  0
  -13.2953   15.7420  -39.1199 C   0  0  0  0  0  0  0  0  0  0  0  0
  -11.2891   12.9900  -37.9384 C   0  0  0  0  0  0  0  0  0  0  0  0
  -10.1013   14.9635  -37.6416 C   0  0  0  0  0  0  0  0  0  0  0  0
  -11.9146   13.9523  -38.9157 C   0  0  2  0  0  0  0  0  0  0  0  0
  -11.1079   15.2920  -38.7146 C   0  0  1  0  0  0  0  0  0  0  0  0
  -13.3789   14.3370  -38.6002 C   0  0  1  0  0  0  0  0  0  0  0  0
  -12.1812   16.3263  -38.3024 C   0  0  2  0  0  0  0  0  0  0  0  0
  -10.2701   13.6453  -37.2877 N   0  0  0  0  0  0  0  0  0  0  0  0
  -13.9667   16.2755  -39.9831 O   0  0  0  0  0  0  0  0  0  0  0  0
  -11.6536   11.8369  -37.7612 O   0  0  0  0  0  0  0  0  0  0  0  0
   -9.2963   15.7542  -37.1715 O   0  0  0  0  0  0  0  0  0  0  0  0
  -14.4114   13.9416  -36.0132 Cl  0  0  0  0  0  0  0  0  0  0  0  0
  -12.6669   16.8409  -35.5795 Cl  0  0  0  0  0  0  0  0  0  0  0  0
  -14.6277   13.3969  -39.3360 Cl  0  0  0  0  0  0  0  0  0  0  0  0
  -11.8631   17.9887  -38.6489 Cl  0  0  0  0  0  0  0  0  0  0  0  0
  -11.7800   13.5854  -39.9402 H   0  0  0  0  0  0  0  0  0  0  0  0
  -10.5905   15.5595  -39.6436 H   0  0  0  0  0  0  0  0  0  0  0  0
   -9.7030   13.1970  -36.5762 H   0  0  0  0  0  0  0  0  0  0  0  0
  1  2  2  0  0  0  0
  1  8  1  0  0  0  0
  1 14  1  0  0  0  0
  2  9  1  0  0  0  0
  2 15  1  0  0  0  0
  3  8  1  0  0  0  0
  3  9  1  0  0  0  0
  3 11  2  0  0  0  0
  4  6  1  0  0  0  0
  4 10  1  0  0  0  0
  4 12  2  0  0  0  0
  5  7  1  0  0  0  0
  5 10  1  0  0  0  0
  5 13  2  0  0  0  0
  6  7  1  0  0  0  0
  6  8  1  0  0  0  0
  7  9  1  0  0  0  0
  8 16  1  0  0  0  0
  9 17  1  0  0  0  0
  6 18  1  0  0  0  0
  7 19  1  0  0  0  0
 10 20  1  0  0  0  0
M  END
> <id>
EN300-27746681

> <smiles>
ClC1=C(Cl)C2(Cl)C3C(C(=O)NC3=O)C1(Cl)C2=O

> <IUPAC Name>
1,7,8,9-tetrachloro-4-azatricyclo[5.2.1.0,2,6]dec-8-ene-3,5,10-trione

> <CAS>
858812-36-9

> <URL>
https://www.enaminestore.com/catalog/EN300-27746681

> <ROCS_ShapeQuery>
x1247relevant_x1083L0AP1_x1305L0BP1_

> <ROCS_TanimotoCombo>
0.820 

> <ROCS_ShapeTanimoto>
0.476 

> <ROCS_ColorTanimoto>
0.344 

> <ROCS_RefTversky>
0.419 

> <ROCS_RefColorTversky>
0.401 

> <ROCS_RefTverskyCombo>
0.820 

> <ROCS_FitTversky>
1.397 

> <ROCS_FitColorTversky>
0.710 

> <ROCS_FitTverskyCombo>
2.106 

> <ROCS_ColorScore>
-8.552

> <ROCS_Overlap>
1236.449

> <ROCS_Rank>
209                 

$$$$
untitled-dbase-42875_79
  -OEChem-06162310163D

 32 33  0     1  0  0  0  0  0999 V2000
  -10.0741   15.9919  -37.4977 C   0  0  0  0  0  0  0  0  0  0  0  0
  -12.4545   15.4030  -36.8162 C   0  0  0  0  0  0  0  0  0  0  0  0
  -12.2823   14.2445  -39.4215 C   0  0  0  0  0  0  0  0  0  0  0  0
  -11.9882   15.7148  -39.1211 C   0  0  1  0  0  0  0  0  0  0  0  0
  -13.6280   15.1614  -37.7756 C   0  0  1  0  0  0  0  0  0  0  0  0
  -13.3896   16.2307  -38.8367 C   0  0  2  0  0  0  0  0  0  0  0  0
   -7.3634   15.1651  -37.1322 C   0  0  0  0  0  0  0  0  0  0  0  0
   -8.2479   13.7203  -35.2776 C   0  0  0  0  0  0  0  0  0  0  0  0
   -9.0154   13.3348  -37.6378 C   0  0  0  0  0  0  0  0  0  0  0  0
   -8.5689   14.3803  -36.6168 C   0  0  0  0  0  0  0  0  0  0  0  0
  -11.4006   15.7437  -37.7770 N   0  0  0  0  0  0  0  0  0  0  0  0
   -9.3582   16.7460  -38.1519 O   0  0  0  0  0  0  0  0  0  0  0  0
  -13.3433   13.9202  -38.4812 O   0  0  0  0  0  0  0  0  0  0  0  0
  -14.2649   16.1209  -39.9383 O   0  0  0  0  0  0  0  0  0  0  0  0
   -9.6489   15.2951  -36.3989 O   0  0  0  0  0  0  0  0  0  0  0  0
  -12.6115   16.2562  -36.1497 H   0  0  0  0  0  0  0  0  0  0  0  0
  -12.1567   14.5153  -36.2509 H   0  0  0  0  0  0  0  0  0  0  0  0
  -12.6650   14.0894  -40.4352 H   0  0  0  0  0  0  0  0  0  0  0  0
  -11.4280   13.5813  -39.2536 H   0  0  0  0  0  0  0  0  0  0  0  0
  -11.3937   16.2248  -39.8806 H   0  0  0  0  0  0  0  0  0  0  0  0
  -14.6198   15.1254  -37.3221 H   0  0  0  0  0  0  0  0  0  0  0  0
  -13.4117   17.2554  -38.4490 H   0  0  0  0  0  0  0  0  0  0  0  0
   -7.5898   15.6404  -38.0933 H   0  0  0  0  0  0  0  0  0  0  0  0
   -7.0549   15.9414  -36.4244 H   0  0  0  0  0  0  0  0  0  0  0  0
   -6.5106   14.4999  -37.3096 H   0  0  0  0  0  0  0  0  0  0  0  0
   -9.1101   13.1561  -34.9041 H   0  0  0  0  0  0  0  0  0  0  0  0
   -8.0189   14.4742  -34.5158 H   0  0  0  0  0  0  0  0  0  0  0  0
   -7.3954   13.0380  -35.3575 H   0  0  0  0  0  0  0  0  0  0  0  0
   -9.8802   12.7718  -37.2683 H   0  0  0  0  0  0  0  0  0  0  0  0
   -9.2853   13.7945  -38.5941 H   0  0  0  0  0  0  0  0  0  0  0  0
   -8.2216   12.6005  -37.8161 H   0  0  0  0  0  0  0  0  0  0  0  0
  -15.1284   16.4740  -39.6590 H   0  0  0  0  0  0  0  0  0  0  0  0
  1 11  1  0  0  0  0
  1 12  2  0  0  0  0
  1 15  1  0  0  0  0
  2  5  1  1  0  0  0
  2 11  1  0  0  0  0
  3  4  1  1  0  0  0
  3 13  1  0  0  0  0
  4  6  1  0  0  0  0
  4 11  1  0  0  0  0
  5  6  1  0  0  0  0
  5 13  1  0  0  0  0
  6 14  1  6  0  0  0
  7 10  1  0  0  0  0
  8 10  1  0  0  0  0
  9 10  1  0  0  0  0
 10 15  1  0  0  0  0
  2 16  1  0  0  0  0
  2 17  1  0  0  0  0
  3 18  1  0  0  0  0
  3 19  1  0  0  0  0
  4 20  1  0  0  0  0
  5 21  1  0  0  0  0
  6 22  1  0  0  0  0
  7 23  1  0  0  0  0
  7 24  1  0  0  0  0
  7 25  1  0  0  0  0
  8 26  1  0  0  0  0
  8 27  1  0  0  0  0
  8 28  1  0  0  0  0
  9 29  1  0  0  0  0
  9 30  1  0  0  0  0
  9 31  1  0  0  0  0
 14 32  1  0  0  0  0
M  END
> <id>
EN300-27718416

> <smiles>
CC(C)(C)OC(=O)N1C[C@@H]2OC[C@H]1[C@H]2O

> <MDLNUMBER>
MFCD31925820

> <IUPAC Name>
tert-butyl (1S,4S,7R)-7-hydroxy-2-oxa-5-azabicyclo[2.2.1]heptane-5-carboxylate

> <CAS>
1637399-25-7

> <URL>
https://www.enaminestore.com/catalog/EN300-27718416

> <ROCS_ShapeQuery>
x1247relevant_x1083L0AP1_x1305L0BP1_

> <ROCS_TanimotoCombo>
0.820 

> <ROCS_ShapeTanimoto>
0.459 

> <ROCS_ColorTanimoto>
0.361 

> <ROCS_RefTversky>
0.400 

> <ROCS_RefColorTversky>
0.414 

> <ROCS_RefTverskyCombo>
0.814 

> <ROCS_FitTversky>
1.475 

> <ROCS_FitColorTversky>
0.738 

> <ROCS_FitTverskyCombo>
2.214 

> <ROCS_ColorScore>
-8.828

> <ROCS_Overlap>
1177.978

> <ROCS_Rank>
210                 

$$$$
untitled-dbase-28159_16
  -OEChem-06162310163D

 43 46  0     1  0  0  0  0  0999 V2000
  -15.7800   15.3280  -40.1649 C   0  0  0  0  0  0  0  0  0  0  0  0
  -12.9039   17.3906  -41.1171 C   0  0  0  0  0  0  0  0  0  0  0  0
  -15.3063   15.4192  -38.7057 C   0  0  0  0  0  0  0  0  0  0  0  0
  -14.4882   14.5722  -40.5048 C   0  0  0  0  0  0  0  0  0  0  0  0
  -11.9943   16.3241  -40.4923 C   0  0  0  0  0  0  0  0  0  0  0  0
  -13.5032   17.6482  -39.7301 C   0  0  0  0  0  0  0  0  0  0  0  0
   -9.9113   15.5564  -37.8134 C   0  0  0  0  0  0  0  0  0  0  0  0
  -13.2746   13.9455  -38.2751 C   0  0  0  0  0  0  0  0  0  0  0  0
  -11.4081   15.2289  -36.0398 C   0  0  0  0  0  0  0  0  0  0  0  0
  -13.8627   15.0566  -39.1663 C   0  0  0  0  0  0  0  0  0  0  0  0
  -12.9006   16.3103  -39.2193 C   0  0  0  0  0  0  0  0  0  0  0  0
  -11.3978   15.3120  -37.5631 C   0  0  2  0  0  0  0  0  0  0  0  0
   -9.1923   14.8497  -36.6577 C   0  0  0  0  0  0  0  0  0  0  0  0
   -8.1318   15.7533  -36.0266 C   0  0  0  0  0  0  0  0  0  0  0  0
   -8.5575   13.5248  -37.0791 C   0  0  0  0  0  0  0  0  0  0  0  0
  -11.8170   14.0445  -38.1870 N   0  0  0  0  0  0  0  0  0  0  0  0
  -10.1935   14.5723  -35.6597 O   0  0  0  0  0  0  0  0  0  0  0  0
  -12.1541   16.4552  -37.9800 O   0  0  0  0  0  0  0  0  0  0  0  0
  -16.6940   14.7313  -40.2987 H   0  0  0  0  0  0  0  0  0  0  0  0
  -15.9190   16.2877  -40.6785 H   0  0  0  0  0  0  0  0  0  0  0  0
  -12.3579   18.2517  -41.5293 H   0  0  0  0  0  0  0  0  0  0  0  0
  -13.6049   17.0298  -41.8801 H   0  0  0  0  0  0  0  0  0  0  0  0
  -15.4433   16.4253  -38.2771 H   0  0  0  0  0  0  0  0  0  0  0  0
  -15.8056   14.7167  -38.0204 H   0  0  0  0  0  0  0  0  0  0  0  0
  -14.6031   13.4817  -40.6092 H   0  0  0  0  0  0  0  0  0  0  0  0
  -14.0199   14.9320  -41.4335 H   0  0  0  0  0  0  0  0  0  0  0  0
  -11.9551   15.3890  -41.0735 H   0  0  0  0  0  0  0  0  0  0  0  0
  -10.9556   16.6563  -40.3601 H   0  0  0  0  0  0  0  0  0  0  0  0
  -13.1209   18.5574  -39.2339 H   0  0  0  0  0  0  0  0  0  0  0  0
  -14.6023   17.7399  -39.7471 H   0  0  0  0  0  0  0  0  0  0  0  0
   -9.6207   15.0909  -38.7704 H   0  0  0  0  0  0  0  0  0  0  0  0
   -9.6332   16.6144  -37.8918 H   0  0  0  0  0  0  0  0  0  0  0  0
  -13.6863   14.0038  -37.2537 H   0  0  0  0  0  0  0  0  0  0  0  0
  -13.5715   12.9509  -38.6511 H   0  0  0  0  0  0  0  0  0  0  0  0
  -11.4434   16.2100  -35.5530 H   0  0  0  0  0  0  0  0  0  0  0  0
  -12.2366   14.6170  -35.6596 H   0  0  0  0  0  0  0  0  0  0  0  0
   -7.6391   15.2271  -35.2116 H   0  0  0  0  0  0  0  0  0  0  0  0
   -8.6015   16.6549  -35.6389 H   0  0  0  0  0  0  0  0  0  0  0  0
   -7.3914   16.0283  -36.7751 H   0  0  0  0  0  0  0  0  0  0  0  0
   -8.0623   13.0662  -36.2253 H   0  0  0  0  0  0  0  0  0  0  0  0
   -7.8254   13.7012  -37.8648 H   0  0  0  0  0  0  0  0  0  0  0  0
   -9.3264   12.8504  -37.4513 H   0  0  0  0  0  0  0  0  0  0  0  0
  -11.4495   13.2651  -37.6518 H   0  0  0  0  0  0  0  0  0  0  0  0
  1  3  1  0  0  0  0
  1  4  1  0  0  0  0
  2  5  1  0  0  0  0
  2  6  1  0  0  0  0
  3 10  1  0  0  0  0
  4 10  1  0  0  0  0
  5 11  1  0  0  0  0
  6 11  1  0  0  0  0
  7 12  1  0  0  0  0
  7 13  1  0  0  0  0
  8 10  1  0  0  0  0
  8 16  1  0  0  0  0
  9 12  1  0  0  0  0
  9 17  1  0  0  0  0
 10 11  1  0  0  0  0
 11 18  1  0  0  0  0
 12 16  1  0  0  0  0
 12 18  1  0  0  0  0
 13 14  1  0  0  0  0
 13 15  1  0  0  0  0
 13 17  1  0  0  0  0
  1 19  1  0  0  0  0
  1 20  1  0  0  0  0
  2 21  1  0  0  0  0
  2 22  1  0  0  0  0
  3 23  1  0  0  0  0
  3 24  1  0  0  0  0
  4 25  1  0  0  0  0
  4 26  1  0  0  0  0
  5 27  1  0  0  0  0
  5 28  1  0  0  0  0
  6 29  1  0  0  0  0
  6 30  1  0  0  0  0
  7 31  1  0  0  0  0
  7 32  1  0  0  0  0
  8 33  1  0  0  0  0
  8 34  1  0  0  0  0
  9 35  1  0  0  0  0
  9 36  1  0  0  0  0
 14 37  1  0  0  0  0
 14 38  1  0  0  0  0
 14 39  1  0  0  0  0
 15 40  1  0  0  0  0
 15 41  1  0  0  0  0
 15 42  1  0  0  0  0
 16 43  1  0  0  0  0
M  END
> <id>
EN300-1280377

> <smiles>
CC1(C)CC2(CO1)NCC3(CCC3)C4(CCC4)O2

> <IUPAC Name>
13,13-dimethyl-9,12-dioxa-15-azatrispiro[3.0.3^{5}.1.4^{10}.2^{4}]hexadecane

> <URL>
https://www.enaminestore.com/catalog/EN300-1280377

> <ROCS_ShapeQuery>
x1247relevant_x1083L0AP1_x1305L0BP1_

> <ROCS_TanimotoCombo>
0.820 

> <ROCS_ShapeTanimoto>
0.544 

> <ROCS_ColorTanimoto>
0.276 

> <ROCS_RefTversky>
0.463 

> <ROCS_RefColorTversky>
0.315 

> <ROCS_RefTverskyCombo>
0.778 

> <ROCS_FitTversky>
1.476 

> <ROCS_FitColorTversky>
0.692 

> <ROCS_FitTverskyCombo>
2.168 

> <ROCS_ColorScore>
-6.680

> <ROCS_Overlap>
1365.657

> <ROCS_Rank>
211                 

$$$$
untitled-dbase-30492_79
  -OEChem-06162310163D

 32 33  0     1  0  0  0  0  0999 V2000
  -10.0739   15.9943  -37.4976 C   0  0  0  0  0  0  0  0  0  0  0  0
  -12.4545   15.4061  -36.8164 C   0  0  0  0  0  0  0  0  0  0  0  0
  -12.2820   14.2442  -39.4197 C   0  0  0  0  0  0  0  0  0  0  0  0
  -11.9872   15.7147  -39.1214 C   0  0  1  0  0  0  0  0  0  0  0  0
  -13.6278   15.1642  -37.7758 C   0  0  1  0  0  0  0  0  0  0  0  0
  -13.3883   16.2319  -38.8383 C   0  0  2  0  0  0  0  0  0  0  0  0
   -7.3632   15.1690  -37.1290 C   0  0  0  0  0  0  0  0  0  0  0  0
   -8.2482   13.7273  -35.2723 C   0  0  0  0  0  0  0  0  0  0  0  0
   -9.0144   13.3373  -37.6322 C   0  0  0  0  0  0  0  0  0  0  0  0
   -8.5687   14.3848  -36.6129 C   0  0  0  0  0  0  0  0  0  0  0  0
  -11.4002   15.7453  -37.7771 N   0  0  0  0  0  0  0  0  0  0  0  0
   -9.3577   16.7473  -38.1527 O   0  0  0  0  0  0  0  0  0  0  0  0
  -13.3439   13.9219  -38.4798 O   0  0  0  0  0  0  0  0  0  0  0  0
  -14.2633   16.1211  -39.9400 O   0  0  0  0  0  0  0  0  0  0  0  0
   -9.6490   15.2996  -36.3973 O   0  0  0  0  0  0  0  0  0  0  0  0
  -12.6112   16.2601  -36.1508 H   0  0  0  0  0  0  0  0  0  0  0  0
  -12.1574   14.5188  -36.2500 H   0  0  0  0  0  0  0  0  0  0  0  0
  -12.6640   14.0880  -40.4335 H   0  0  0  0  0  0  0  0  0  0  0  0
  -11.4284   13.5805  -39.2502 H   0  0  0  0  0  0  0  0  0  0  0  0
  -11.3921   16.2234  -39.8813 H   0  0  0  0  0  0  0  0  0  0  0  0
  -14.6198   15.1296  -37.3225 H   0  0  0  0  0  0  0  0  0  0  0  0
  -13.4100   17.2571  -38.4519 H   0  0  0  0  0  0  0  0  0  0  0  0
   -7.5892   15.6425  -38.0912 H   0  0  0  0  0  0  0  0  0  0  0  0
   -7.0553   15.9467  -36.4226 H   0  0  0  0  0  0  0  0  0  0  0  0
   -6.5101   14.5037  -37.3048 H   0  0  0  0  0  0  0  0  0  0  0  0
   -9.1104   13.1635  -34.8982 H   0  0  0  0  0  0  0  0  0  0  0  0
   -8.0198   14.4827  -34.5118 H   0  0  0  0  0  0  0  0  0  0  0  0
   -7.3954   13.0452  -35.3505 H   0  0  0  0  0  0  0  0  0  0  0  0
   -9.8791   12.7747  -37.2621 H   0  0  0  0  0  0  0  0  0  0  0  0
   -9.2839   13.7952  -38.5894 H   0  0  0  0  0  0  0  0  0  0  0  0
   -8.2202   12.6029  -37.8088 H   0  0  0  0  0  0  0  0  0  0  0  0
  -15.1267   16.4751  -39.6615 H   0  0  0  0  0  0  0  0  0  0  0  0
  1 11  1  0  0  0  0
  1 12  2  0  0  0  0
  1 15  1  0  0  0  0
  2  5  1  1  0  0  0
  2 11  1  0  0  0  0
  3  4  1  0  0  0  0
  3 13  1  0  0  0  0
  4  6  1  0  0  0  0
  4 11  1  0  0  0  0
  5  6  1  0  0  0  0
  5 13  1  0  0  0  0
  6 14  1  6  0  0  0
  7 10  1  0  0  0  0
  8 10  1  0  0  0  0
  9 10  1  0  0  0  0
 10 15  1  0  0  0  0
  2 16  1  0  0  0  0
  2 17  1  0  0  0  0
  3 18  1  0  0  0  0
  3 19  1  0  0  0  0
  4 20  1  0  0  0  0
  5 21  1  0  0  0  0
  6 22  1  0  0  0  0
  7 23  1  0  0  0  0
  7 24  1  0  0  0  0
  7 25  1  0  0  0  0
  8 26  1  0  0  0  0
  8 27  1  0  0  0  0
  8 28  1  0  0  0  0
  9 29  1  0  0  0  0
  9 30  1  0  0  0  0
  9 31  1  0  0  0  0
 14 32  1  0  0  0  0
M  END
> <id>
EN300-26666016

> <smiles>
CC(C)(C)OC(=O)N1C[C@@H]2OCC1[C@H]2O

> <IUPAC Name>
tert-butyl (1S,7R)-7-hydroxy-2-oxa-5-azabicyclo[2.2.1]heptane-5-carboxylate

> <CAS>
2413864-23-8

> <URL>
https://www.enaminestore.com/catalog/EN300-26666016

> <ROCS_ShapeQuery>
x1247relevant_x1083L0AP1_x1305L0BP1_

> <ROCS_TanimotoCombo>
0.820 

> <ROCS_ShapeTanimoto>
0.459 

> <ROCS_ColorTanimoto>
0.361 

> <ROCS_RefTversky>
0.400 

> <ROCS_RefColorTversky>
0.414 

> <ROCS_RefTverskyCombo>
0.814 

> <ROCS_FitTversky>
1.475 

> <ROCS_FitColorTversky>
0.738 

> <ROCS_FitTverskyCombo>
2.213 

> <ROCS_ColorScore>
-8.828

> <ROCS_Overlap>
1177.774

> <ROCS_Rank>
212                 

$$$$
untitled-dbase-26160_49
  -OEChem-06162310163D

 48 50  0     1  0  0  0  0  0999 V2000
  -13.4098   17.2037  -39.8408 C   0  0  0  0  0  0  0  0  0  0  0  0
   -8.5401   15.4772  -36.7533 C   0  0  0  0  0  0  0  0  0  0  0  0
   -8.6571   14.1374  -36.0402 C   0  0  0  0  0  0  0  0  0  0  0  0
  -13.5545   13.8355  -38.6254 C   0  0  0  0  0  0  0  0  0  0  0  0
  -13.7385   14.6438  -37.3242 C   0  0  0  0  0  0  0  0  0  0  0  0
   -9.2514   15.4171  -38.1024 C   0  0  0  0  0  0  0  0  0  0  0  0
  -11.2760   14.7048  -39.4394 C   0  0  0  0  0  0  0  0  0  0  0  0
  -11.5972   16.0623  -37.2782 C   0  0  0  0  0  0  0  0  0  0  0  0
  -10.1104   13.6865  -35.9524 C   0  0  0  0  0  0  0  0  0  0  0  0
  -12.8122   14.7823  -39.5727 C   0  0  2  0  0  0  0  0  0  0  0  0
  -13.1029   16.0069  -37.6157 C   0  0  1  0  0  0  0  0  0  0  0  0
  -10.7295   14.9617  -37.9873 C   0  0  0  0  0  0  0  0  0  0  0  0
  -15.7774   17.0735  -40.9551 C   0  0  0  0  0  0  0  0  0  0  0  0
  -16.6665   18.5555  -39.1324 C   0  0  0  0  0  0  0  0  0  0  0  0
  -15.2367   19.5316  -40.9520 C   0  0  0  0  0  0  0  0  0  0  0  0
  -15.5021   18.3004  -40.0869 C   0  0  0  0  0  0  0  0  0  0  0  0
  -10.7705   13.6716  -37.2589 N   0  0  0  0  0  0  0  0  0  0  0  0
  -13.2002   16.0821  -39.0630 N   0  0  0  0  0  0  0  0  0  0  0  0
  -12.8307   17.4267  -40.9015 O   0  0  0  0  0  0  0  0  0  0  0  0
  -14.3399   18.0436  -39.2907 O   0  0  0  0  0  0  0  0  0  0  0  0
   -8.9810   16.2669  -36.1352 H   0  0  0  0  0  0  0  0  0  0  0  0
   -7.4840   15.7346  -36.8942 H   0  0  0  0  0  0  0  0  0  0  0  0
   -8.0637   13.3819  -36.5672 H   0  0  0  0  0  0  0  0  0  0  0  0
   -8.2381   14.2245  -35.0297 H   0  0  0  0  0  0  0  0  0  0  0  0
  -13.0613   12.8704  -38.4889 H   0  0  0  0  0  0  0  0  0  0  0  0
  -14.5482   13.6153  -39.0367 H   0  0  0  0  0  0  0  0  0  0  0  0
  -14.8147   14.7771  -37.1525 H   0  0  0  0  0  0  0  0  0  0  0  0
  -13.3486   14.1539  -36.4290 H   0  0  0  0  0  0  0  0  0  0  0  0
   -9.2086   16.4137  -38.5633 H   0  0  0  0  0  0  0  0  0  0  0  0
   -8.6973   14.7462  -38.7709 H   0  0  0  0  0  0  0  0  0  0  0  0
  -10.9327   13.7436  -39.8365 H   0  0  0  0  0  0  0  0  0  0  0  0
  -10.8469   15.4601  -40.1138 H   0  0  0  0  0  0  0  0  0  0  0  0
  -11.2256   17.0550  -37.5683 H   0  0  0  0  0  0  0  0  0  0  0  0
  -11.4660   16.0043  -36.1897 H   0  0  0  0  0  0  0  0  0  0  0  0
  -10.1787   12.7082  -35.4655 H   0  0  0  0  0  0  0  0  0  0  0  0
  -10.6517   14.3847  -35.3036 H   0  0  0  0  0  0  0  0  0  0  0  0
  -13.1126   14.6431  -40.6167 H   0  0  0  0  0  0  0  0  0  0  0  0
  -13.6347   16.8307  -37.1320 H   0  0  0  0  0  0  0  0  0  0  0  0
  -14.9439   16.8870  -41.6417 H   0  0  0  0  0  0  0  0  0  0  0  0
  -15.9349   16.1765  -40.3475 H   0  0  0  0  0  0  0  0  0  0  0  0
  -16.6642   17.2281  -41.5804 H   0  0  0  0  0  0  0  0  0  0  0  0
  -16.4732   19.4349  -38.5074 H   0  0  0  0  0  0  0  0  0  0  0  0
  -16.8001   17.7120  -38.4454 H   0  0  0  0  0  0  0  0  0  0  0  0
  -17.6050   18.7142  -39.6733 H   0  0  0  0  0  0  0  0  0  0  0  0
  -15.0391   20.4118  -40.3294 H   0  0  0  0  0  0  0  0  0  0  0  0
  -14.3808   19.3800  -41.6176 H   0  0  0  0  0  0  0  0  0  0  0  0
  -16.1137   19.7753  -41.5625 H   0  0  0  0  0  0  0  0  0  0  0  0
  -10.4032   12.9010  -37.7984 H   0  0  0  0  0  0  0  0  0  0  0  0
  1 18  1  0  0  0  0
  1 19  2  0  0  0  0
  1 20  1  0  0  0  0
  2  3  1  0  0  0  0
  2  6  1  0  0  0  0
  3  9  1  0  0  0  0
  4  5  1  0  0  0  0
  4 10  1  0  0  0  0
  5 11  1  0  0  0  0
  6 12  1  0  0  0  0
  7 10  1  0  0  0  0
  7 12  1  0  0  0  0
  8 11  1  0  0  0  0
  8 12  1  0  0  0  0
  9 17  1  0  0  0  0
 10 18  1  0  0  0  0
 11 18  1  0  0  0  0
 12 17  1  0  0  0  0
 13 16  1  0  0  0  0
 14 16  1  0  0  0  0
 15 16  1  0  0  0  0
 16 20  1  0  0  0  0
  2 21  1  0  0  0  0
  2 22  1  0  0  0  0
  3 23  1  0  0  0  0
  3 24  1  0  0  0  0
  4 25  1  0  0  0  0
  4 26  1  0  0  0  0
  5 27  1  0  0  0  0
  5 28  1  0  0  0  0
  6 29  1  0  0  0  0
  6 30  1  0  0  0  0
  7 31  1  0  0  0  0
  7 32  1  0  0  0  0
  8 33  1  0  0  0  0
  8 34  1  0  0  0  0
  9 35  1  0  0  0  0
  9 36  1  0  0  0  0
 10 37  1  0  0  0  0
 11 38  1  0  0  0  0
 13 39  1  0  0  0  0
 13 40  1  0  0  0  0
 13 41  1  0  0  0  0
 14 42  1  0  0  0  0
 14 43  1  0  0  0  0
 14 44  1  0  0  0  0
 15 45  1  0  0  0  0
 15 46  1  0  0  0  0
 15 47  1  0  0  0  0
 17 48  1  0  0  0  0
M  END
> <id>
EN300-6738470

> <smiles>
CC(C)(C)OC(=O)N1C2CCC1CC3(CCCCN3)C2

> <MDLNUMBER>
MFCD31746496

> <IUPAC Name>
tert-butyl 8-azaspiro[bicyclo[3.2.1]octane-3,2'-piperidine]-8-carboxylate

> <CAS>
2287345-38-2

> <Purity>
95

> <URL>
https://www.enaminestore.com/catalog/EN300-6738470

> <ROCS_ShapeQuery>
x1247relevant_x1083L0AP1_x1305L0BP1_

> <ROCS_TanimotoCombo>
0.820 

> <ROCS_ShapeTanimoto>
0.453 

> <ROCS_ColorTanimoto>
0.366 

> <ROCS_RefTversky>
0.417 

> <ROCS_RefColorTversky>
0.411 

> <ROCS_RefTverskyCombo>
0.828 

> <ROCS_FitTversky>
1.236 

> <ROCS_FitColorTversky>
0.771 

> <ROCS_FitTverskyCombo>
2.007 

> <ROCS_ColorScore>
-8.750

> <ROCS_Overlap>
1233.302

> <ROCS_Rank>
213                 

$$$$
untitled-dbase-30755_67
  -OEChem-06162310163D

 35 36  0     1  0  0  0  0  0999 V2000
   -9.5987   14.9148  -37.3772 C   0  0  0  0  0  0  0  0  0  0  0  0
  -11.5675   16.3856  -37.6380 C   0  0  0  0  0  0  0  0  0  0  0  0
  -11.2857   14.3964  -39.1692 C   0  0  0  0  0  0  0  0  0  0  0  0
  -13.7367   15.1158  -37.3692 C   0  0  0  0  0  0  0  0  0  0  0  0
  -13.0593   16.3277  -38.0065 C   0  0  2  0  0  0  0  0  0  0  0  0
  -12.7925   14.5317  -39.4117 C   0  0  2  0  0  0  0  0  0  0  0  0
  -13.2309   15.9835  -39.4736 C   0  0  2  0  0  0  0  0  0  0  0  0
  -10.0114   13.8922  -34.9976 C   0  0  0  0  0  0  0  0  0  0  0  0
   -9.6279   11.6054  -35.9634 C   0  0  0  0  0  0  0  0  0  0  0  0
   -7.6809   13.1469  -35.5875 C   0  0  0  0  0  0  0  0  0  0  0  0
   -9.1612   13.0595  -35.9560 C   0  0  0  0  0  0  0  0  0  0  0  0
  -10.8228   15.1749  -38.0070 N   0  0  0  0  0  0  0  0  0  0  0  0
   -8.8378   15.7855  -36.9588 O   0  0  0  0  0  0  0  0  0  0  0  0
  -13.4779   14.0040  -38.2554 O   0  0  0  0  0  0  0  0  0  0  0  0
  -12.4539   16.7808  -40.3377 O   0  0  0  0  0  0  0  0  0  0  0  0
   -9.3322   13.5742  -37.2814 O   0  0  0  0  0  0  0  0  0  0  0  0
  -11.0799   17.2265  -38.1456 H   0  0  0  0  0  0  0  0  0  0  0  0
  -11.4526   16.5566  -36.5611 H   0  0  0  0  0  0  0  0  0  0  0  0
  -11.0350   13.3434  -39.0000 H   0  0  0  0  0  0  0  0  0  0  0  0
  -10.7161   14.7434  -40.0387 H   0  0  0  0  0  0  0  0  0  0  0  0
  -13.3659   14.8801  -36.3673 H   0  0  0  0  0  0  0  0  0  0  0  0
  -14.8227   15.2482  -37.3200 H   0  0  0  0  0  0  0  0  0  0  0  0
  -13.5372   17.2718  -37.7279 H   0  0  0  0  0  0  0  0  0  0  0  0
  -13.0844   13.9665  -40.3020 H   0  0  0  0  0  0  0  0  0  0  0  0
  -14.2865   16.0660  -39.7603 H   0  0  0  0  0  0  0  0  0  0  0  0
   -9.6796   14.9366  -34.9894 H   0  0  0  0  0  0  0  0  0  0  0  0
  -11.0711   13.8662  -35.2719 H   0  0  0  0  0  0  0  0  0  0  0  0
   -9.9111   13.5280  -33.9688 H   0  0  0  0  0  0  0  0  0  0  0  0
   -9.0206   11.0043  -36.6497 H   0  0  0  0  0  0  0  0  0  0  0  0
  -10.6619   11.5292  -36.3186 H   0  0  0  0  0  0  0  0  0  0  0  0
   -9.5699   11.1575  -34.9661 H   0  0  0  0  0  0  0  0  0  0  0  0
   -7.0709   12.5497  -36.2748 H   0  0  0  0  0  0  0  0  0  0  0  0
   -7.3192   14.1800  -35.6130 H   0  0  0  0  0  0  0  0  0  0  0  0
   -7.5044   12.7408  -34.5849 H   0  0  0  0  0  0  0  0  0  0  0  0
  -12.6329   16.4845  -41.2485 H   0  0  0  0  0  0  0  0  0  0  0  0
  1 12  1  0  0  0  0
  1 13  2  0  0  0  0
  1 16  1  0  0  0  0
  2  5  1  1  0  0  0
  2 12  1  0  0  0  0
  3  6  1  1  0  0  0
  3 12  1  0  0  0  0
  4  5  1  0  0  0  0
  4 14  1  0  0  0  0
  5  7  1  0  0  0  0
  6  7  1  0  0  0  0
  6 14  1  0  0  0  0
  7 15  1  6  0  0  0
  8 11  1  0  0  0  0
  9 11  1  0  0  0  0
 10 11  1  0  0  0  0
 11 16  1  0  0  0  0
  2 17  1  0  0  0  0
  2 18  1  0  0  0  0
  3 19  1  0  0  0  0
  3 20  1  0  0  0  0
  4 21  1  0  0  0  0
  4 22  1  0  0  0  0
  5 23  1  0  0  0  0
  6 24  1  0  0  0  0
  7 25  1  0  0  0  0
  8 26  1  0  0  0  0
  8 27  1  0  0  0  0
  8 28  1  0  0  0  0
  9 29  1  0  0  0  0
  9 30  1  0  0  0  0
  9 31  1  0  0  0  0
 10 32  1  0  0  0  0
 10 33  1  0  0  0  0
 10 34  1  0  0  0  0
 15 35  1  0  0  0  0
M  END
> <id>
EN300-26666272

> <smiles>
CC(C)(C)OC(=O)N1C[C@@H]2CO[C@H](C1)[C@@H]2O |&1:9,12,14,r|

> <IUPAC Name>
rac-tert-butyl (1R,5R,8R)-8-hydroxy-6-oxa-3-azabicyclo[3.2.1]octane-3-carboxylate

> <CAS>
1228676-24-1

> <URL>
https://www.enaminestore.com/catalog/EN300-26666272

> <ROCS_ShapeQuery>
x1247relevant_x1083L0AP1_x1305L0BP1_

> <ROCS_TanimotoCombo>
0.819 

> <ROCS_ShapeTanimoto>
0.472 

> <ROCS_ColorTanimoto>
0.347 

> <ROCS_RefTversky>
0.411 

> <ROCS_RefColorTversky>
0.396 

> <ROCS_RefTverskyCombo>
0.807 

> <ROCS_FitTversky>
1.457 

> <ROCS_FitColorTversky>
0.738 

> <ROCS_FitTverskyCombo>
2.195 

> <ROCS_ColorScore>
-8.425

> <ROCS_Overlap>
1211.634

> <ROCS_Rank>
214                 

$$$$
untitled-dbase-23745_0
  -OEChem-06162310163D

 27 29  0     1  0  0  0  0  0999 V2000
  -12.6268   16.0571  -39.6831 C   0  0  0  0  0  0  0  0  0  0  0  0
  -12.0210   14.6698  -39.7833 C   0  0  0  0  0  0  0  0  0  0  0  0
  -14.0521   15.4269  -37.7885 C   0  0  0  0  0  0  0  0  0  0  0  0
  -13.4448   14.0150  -37.8319 C   0  0  0  0  0  0  0  0  0  0  0  0
  -11.7614   16.4206  -37.4169 C   0  0  0  0  0  0  0  0  0  0  0  0
   -9.0037   14.8527  -36.7396 C   0  0  0  0  0  0  0  0  0  0  0  0
   -9.8567   13.9591  -35.8851 C   0  0  0  0  0  0  0  0  0  0  0  0
  -13.0347   16.4661  -38.2764 C   0  0  1  0  0  0  0  0  0  0  0  0
  -11.9966   14.0795  -38.3581 C   0  0  2  0  0  0  0  0  0  0  0  0
  -11.1626   14.9962  -37.4282 C   0  0  0  0  0  0  0  0  0  0  0  0
  -12.7743   16.7866  -40.6589 O   0  0  0  0  0  0  0  0  0  0  0  0
   -9.8049   15.0480  -37.9027 O   0  0  0  0  0  0  0  0  0  0  0  0
  -11.1705   14.4752  -36.0865 O   0  0  0  0  0  0  0  0  0  0  0  0
  -12.6426   14.0596  -40.4460 H   0  0  0  0  0  0  0  0  0  0  0  0
  -11.0128   14.7486  -40.2004 H   0  0  0  0  0  0  0  0  0  0  0  0
  -14.9507   15.4540  -38.4170 H   0  0  0  0  0  0  0  0  0  0  0  0
  -14.3718   15.6620  -36.7665 H   0  0  0  0  0  0  0  0  0  0  0  0
  -13.4769   13.5633  -36.8337 H   0  0  0  0  0  0  0  0  0  0  0  0
  -14.0521   13.3714  -38.4799 H   0  0  0  0  0  0  0  0  0  0  0  0
  -11.0342   17.1421  -37.8110 H   0  0  0  0  0  0  0  0  0  0  0  0
  -12.0050   16.7314  -36.3935 H   0  0  0  0  0  0  0  0  0  0  0  0
   -8.8416   15.8285  -36.2690 H   0  0  0  0  0  0  0  0  0  0  0  0
   -8.0392   14.4115  -37.0026 H   0  0  0  0  0  0  0  0  0  0  0  0
   -9.8392   12.9230  -36.2399 H   0  0  0  0  0  0  0  0  0  0  0  0
   -9.5882   13.9847  -34.8261 H   0  0  0  0  0  0  0  0  0  0  0  0
  -13.4682   17.4706  -38.2886 H   0  0  0  0  0  0  0  0  0  0  0  0
  -11.5685   13.0709  -38.3851 H   0  0  0  0  0  0  0  0  0  0  0  0
  1  2  1  0  0  0  0
  1  8  1  0  0  0  0
  1 11  2  0  0  0  0
  2  9  1  0  0  0  0
  3  4  1  0  0  0  0
  3  8  1  0  0  0  0
  4  9  1  0  0  0  0
  5  8  1  0  0  0  0
  5 10  1  0  0  0  0
  6  7  1  0  0  0  0
  6 12  1  0  0  0  0
  7 13  1  0  0  0  0
  9 10  1  0  0  0  0
 10 12  1  0  0  0  0
 10 13  1  0  0  0  0
  2 14  1  0  0  0  0
  2 15  1  0  0  0  0
  3 16  1  0  0  0  0
  3 17  1  0  0  0  0
  4 18  1  0  0  0  0
  4 19  1  0  0  0  0
  5 20  1  0  0  0  0
  5 21  1  0  0  0  0
  6 22  1  0  0  0  0
  6 23  1  0  0  0  0
  7 24  1  0  0  0  0
  7 25  1  0  0  0  0
  8 26  1  0  0  0  0
  9 27  1  0  0  0  0
M  END
> <id>
EN300-7537269

> <smiles>
O=C1CC2CCC1CC32OCCO3

> <MDLNUMBER>
MFCD26967872

> <IUPAC Name>
spiro[bicyclo[2.2.2]octane-2,2'-[1,3]dioxolane]-5-one

> <CAS>
132435-30-4

> <Purity>
95

> <URL>
https://www.enaminestore.com/catalog/EN300-7537269

> <MP>
35.2999999999999971578290569595992565155-35.5

> <ROCS_ShapeQuery>
x1247relevant_x1083L0AP1_x1305L0BP1_

> <ROCS_TanimotoCombo>
0.818 

> <ROCS_ShapeTanimoto>
0.486 

> <ROCS_ColorTanimoto>
0.333 

> <ROCS_RefTversky>
0.407 

> <ROCS_RefColorTversky>
0.374 

> <ROCS_RefTverskyCombo>
0.781 

> <ROCS_FitTversky>
1.666 

> <ROCS_FitColorTversky>
0.750 

> <ROCS_FitTverskyCombo>
2.416 

> <ROCS_ColorScore>
-7.957

> <ROCS_Overlap>
1195.877

> <ROCS_Rank>
215                 

$$$$
untitled-dbase-22891_74
  -OEChem-06162310163D

 31 32  0     0  0  0  0  0  0999 V2000
  -10.0441   15.1291  -37.4402 C   0  0  0  0  0  0  0  0  0  0  0  0
  -13.2638   14.0601  -38.7846 C   0  0  0  0  0  0  0  0  0  0  0  0
  -13.6569   15.6482  -37.4844 C   0  0  0  0  0  0  0  0  0  0  0  0
  -11.7635   16.0272  -39.0598 C   0  0  0  0  0  0  0  0  0  0  0  0
  -12.5559   14.5226  -37.4564 C   0  0  0  0  0  0  0  0  0  0  0  0
  -13.2377   15.6131  -38.9940 C   0  0  0  0  0  0  0  0  0  0  0  0
  -10.1016   15.0972  -34.8228 C   0  0  0  0  0  0  0  0  0  0  0  0
   -9.9080   12.5939  -34.8946 C   0  0  0  0  0  0  0  0  0  0  0  0
   -7.9023   14.0184  -35.4004 C   0  0  0  0  0  0  0  0  0  0  0  0
   -9.4229   13.9085  -35.5018 C   0  0  0  0  0  0  0  0  0  0  0  0
  -11.3289   15.2089  -37.9258 N   0  0  0  0  0  0  0  0  0  0  0  0
   -9.2270   16.0446  -37.4972 O   0  0  0  0  0  0  0  0  0  0  0  0
  -14.0825   16.2024  -39.9789 O   0  0  0  0  0  0  0  0  0  0  0  0
   -9.7884   13.9050  -36.8864 O   0  0  0  0  0  0  0  0  0  0  0  0
  -12.6541   13.4633  -39.4698 H   0  0  0  0  0  0  0  0  0  0  0  0
  -14.2493   13.5925  -38.6818 H   0  0  0  0  0  0  0  0  0  0  0  0
  -14.6825   15.3422  -37.2499 H   0  0  0  0  0  0  0  0  0  0  0  0
  -13.4209   16.5630  -36.9323 H   0  0  0  0  0  0  0  0  0  0  0  0
  -11.2508   15.7089  -39.9712 H   0  0  0  0  0  0  0  0  0  0  0  0
  -11.5874   17.0852  -38.8485 H   0  0  0  0  0  0  0  0  0  0  0  0
  -12.4889   13.8448  -36.6086 H   0  0  0  0  0  0  0  0  0  0  0  0
   -9.7561   16.0427  -35.2558 H   0  0  0  0  0  0  0  0  0  0  0  0
  -11.1912   15.0484  -34.9187 H   0  0  0  0  0  0  0  0  0  0  0  0
   -9.8494   15.1349  -33.7568 H   0  0  0  0  0  0  0  0  0  0  0  0
   -9.4236   11.7383  -35.3789 H   0  0  0  0  0  0  0  0  0  0  0  0
  -10.9856   12.4667  -35.0493 H   0  0  0  0  0  0  0  0  0  0  0  0
   -9.7038   12.5455  -33.8202 H   0  0  0  0  0  0  0  0  0  0  0  0
   -7.4152   13.1659  -35.8874 H   0  0  0  0  0  0  0  0  0  0  0  0
   -7.5326   14.9388  -35.8640 H   0  0  0  0  0  0  0  0  0  0  0  0
   -7.5794   14.0021  -34.3531 H   0  0  0  0  0  0  0  0  0  0  0  0
  -13.8287   15.8124  -40.8297 H   0  0  0  0  0  0  0  0  0  0  0  0
  1 11  1  0  0  0  0
  1 12  2  0  0  0  0
  1 14  1  0  0  0  0
  2  5  1  0  0  0  0
  2  6  1  0  0  0  0
  3  5  1  0  0  0  0
  3  6  1  0  0  0  0
  4  6  1  0  0  0  0
  4 11  1  0  0  0  0
  5 11  1  0  0  0  0
  6 13  1  0  0  0  0
  7 10  1  0  0  0  0
  8 10  1  0  0  0  0
  9 10  1  0  0  0  0
 10 14  1  0  0  0  0
  2 15  1  0  0  0  0
  2 16  1  0  0  0  0
  3 17  1  0  0  0  0
  3 18  1  0  0  0  0
  4 19  1  0  0  0  0
  4 20  1  0  0  0  0
  5 21  1  0  0  0  0
  7 22  1  0  0  0  0
  7 23  1  0  0  0  0
  7 24  1  0  0  0  0
  8 25  1  0  0  0  0
  8 26  1  0  0  0  0
  8 27  1  0  0  0  0
  9 28  1  0  0  0  0
  9 29  1  0  0  0  0
  9 30  1  0  0  0  0
 13 31  1  0  0  0  0
M  END
> <id>
EN300-7455739

> <smiles>
CC(C)(C)OC(=O)N1CC2(O)CC1C2

> <MDLNUMBER>
MFCD32268559

> <IUPAC Name>
tert-butyl 4-hydroxy-2-azabicyclo[2.1.1]hexane-2-carboxylate

> <CAS>
2408971-50-4

> <Purity>
95

> <URL>
https://www.enaminestore.com/catalog/EN300-7455739

> <ROCS_ShapeQuery>
x1247relevant_x1083L0AP1_x1305L0BP1_

> <ROCS_TanimotoCombo>
0.818 

> <ROCS_ShapeTanimoto>
0.476 

> <ROCS_ColorTanimoto>
0.343 

> <ROCS_RefTversky>
0.404 

> <ROCS_RefColorTversky>
0.391 

> <ROCS_RefTverskyCombo>
0.795 

> <ROCS_FitTversky>
1.597 

> <ROCS_FitColorTversky>
0.735 

> <ROCS_FitTverskyCombo>
2.332 

> <ROCS_ColorScore>
-8.325

> <ROCS_Overlap>
1188.459

> <ROCS_Rank>
216                 

$$$$
untitled-dbase-50979_73
  -OEChem-06162310163D

 31 32  0     0  0  0  0  0  0999 V2000
  -10.0440   15.1294  -37.4405 C   0  0  0  0  0  0  0  0  0  0  0  0
  -13.6569   15.6484  -37.4842 C   0  0  0  0  0  0  0  0  0  0  0  0
  -13.2640   14.0602  -38.7844 C   0  0  0  0  0  0  0  0  0  0  0  0
  -11.7636   16.0268  -39.0601 C   0  0  0  0  0  0  0  0  0  0  0  0
  -12.5559   14.5227  -37.4563 C   0  0  0  0  0  0  0  0  0  0  0  0
  -13.2379   15.6130  -38.9939 C   0  0  0  0  0  0  0  0  0  0  0  0
  -10.1011   15.0989  -34.8232 C   0  0  0  0  0  0  0  0  0  0  0  0
   -9.9068   12.5956  -34.8936 C   0  0  0  0  0  0  0  0  0  0  0  0
   -7.9015   14.0204  -35.4006 C   0  0  0  0  0  0  0  0  0  0  0  0
   -9.4222   13.9100  -35.5017 C   0  0  0  0  0  0  0  0  0  0  0  0
  -11.3289   15.2090  -37.9259 N   0  0  0  0  0  0  0  0  0  0  0  0
   -9.2272   16.0451  -37.4980 O   0  0  0  0  0  0  0  0  0  0  0  0
  -14.0826   16.2025  -39.9790 O   0  0  0  0  0  0  0  0  0  0  0  0
   -9.7879   13.9055  -36.8861 O   0  0  0  0  0  0  0  0  0  0  0  0
  -14.6823   15.3423  -37.2493 H   0  0  0  0  0  0  0  0  0  0  0  0
  -13.4206   16.5631  -36.9321 H   0  0  0  0  0  0  0  0  0  0  0  0
  -12.6544   13.4634  -39.4698 H   0  0  0  0  0  0  0  0  0  0  0  0
  -14.2496   13.5928  -38.6819 H   0  0  0  0  0  0  0  0  0  0  0  0
  -11.2508   15.7081  -39.9713 H   0  0  0  0  0  0  0  0  0  0  0  0
  -11.5876   17.0849  -38.8495 H   0  0  0  0  0  0  0  0  0  0  0  0
  -12.4888   13.8450  -36.6084 H   0  0  0  0  0  0  0  0  0  0  0  0
   -9.7559   16.0443  -35.2569 H   0  0  0  0  0  0  0  0  0  0  0  0
  -11.1907   15.0497  -34.9189 H   0  0  0  0  0  0  0  0  0  0  0  0
   -9.8487   15.1374  -33.7574 H   0  0  0  0  0  0  0  0  0  0  0  0
   -9.4222   11.7398  -35.3774 H   0  0  0  0  0  0  0  0  0  0  0  0
  -10.9843   12.4680  -35.0479 H   0  0  0  0  0  0  0  0  0  0  0  0
   -9.7024   12.5479  -33.8191 H   0  0  0  0  0  0  0  0  0  0  0  0
   -7.4143   13.1677  -35.8872 H   0  0  0  0  0  0  0  0  0  0  0  0
   -7.5322   14.9405  -35.8649 H   0  0  0  0  0  0  0  0  0  0  0  0
   -7.5785   14.0048  -34.3534 H   0  0  0  0  0  0  0  0  0  0  0  0
  -14.1636   17.1409  -39.7479 H   0  0  0  0  0  0  0  0  0  0  0  0
  1 11  1  0  0  0  0
  1 12  2  0  0  0  0
  1 14  1  0  0  0  0
  2  5  1  6  0  0  0
  2  6  1  0  0  0  0
  3  5  1  0  0  0  0
  3  6  1  0  0  0  0
  4  6  1  0  0  0  0
  4 11  1  0  0  0  0
  5 11  1  0  0  0  0
  6 13  1  1  0  0  0
  7 10  1  0  0  0  0
  8 10  1  0  0  0  0
  9 10  1  0  0  0  0
 10 14  1  0  0  0  0
  2 15  1  0  0  0  0
  2 16  1  0  0  0  0
  3 17  1  0  0  0  0
  3 18  1  0  0  0  0
  4 19  1  0  0  0  0
  4 20  1  0  0  0  0
  5 21  1  0  0  0  0
  7 22  1  0  0  0  0
  7 23  1  0  0  0  0
  7 24  1  0  0  0  0
  8 25  1  0  0  0  0
  8 26  1  0  0  0  0
  8 27  1  0  0  0  0
  9 28  1  0  0  0  0
  9 29  1  0  0  0  0
  9 30  1  0  0  0  0
 13 31  1  0  0  0  0
M  END
> <id>
EN300-37375337

> <smiles>
CC(C)(C)OC(=O)N1C[C@]2(O)C[C@H]1C2

> <IUPAC Name>
tert-butyl (4r)-4-hydroxy-2-azabicyclo[2.1.1]hexane-2-carboxylate

> <CAS>
2408971-50-4

> <URL>
https://www.enaminestore.com/catalog/EN300-37375337

> <ROCS_ShapeQuery>
x1247relevant_x1083L0AP1_x1305L0BP1_

> <ROCS_TanimotoCombo>
0.818 

> <ROCS_ShapeTanimoto>
0.476 

> <ROCS_ColorTanimoto>
0.343 

> <ROCS_RefTversky>
0.404 

> <ROCS_RefColorTversky>
0.391 

> <ROCS_RefTverskyCombo>
0.795 

> <ROCS_FitTversky>
1.597 

> <ROCS_FitColorTversky>
0.735 

> <ROCS_FitTverskyCombo>
2.332 

> <ROCS_ColorScore>
-8.324

> <ROCS_Overlap>
1188.445

> <ROCS_Rank>
217                 

$$$$
untitled-dbase-13211_1
  -OEChem-06162310163D

 30 32  0     1  0  0  0  0  0999 V2000
  -10.5763   15.6573  -36.3785 C   0  0  0  0  0  0  0  0  0  0  0  0
   -9.2137   15.0677  -36.1487 C   0  0  0  0  0  0  0  0  0  0  0  0
  -13.3586   14.7591  -39.6579 C   0  0  0  0  0  0  0  0  0  0  0  0
  -13.5394   13.9675  -38.3555 C   0  0  0  0  0  0  0  0  0  0  0  0
  -13.2850   16.2530  -37.8191 C   0  0  0  0  0  0  0  0  0  0  0  0
  -11.1861   15.6734  -38.8169 C   0  0  0  0  0  0  0  0  0  0  0  0
   -9.1780   13.9931  -37.2257 C   0  0  0  0  0  0  0  0  0  0  0  0
  -12.6418   16.0312  -39.1842 C   0  0  1  0  0  0  0  0  0  0  0  0
  -12.8711   14.8698  -37.2918 C   0  0  2  0  0  0  0  0  0  0  0  0
  -11.3310   14.8949  -37.4763 C   0  0  2  0  0  0  0  0  0  0  0  0
  -11.0356   12.6625  -36.4657 C   0  0  0  0  0  0  0  0  0  0  0  0
  -10.5841   13.6156  -37.4896 N   0  0  2  0  0  0  0  0  0  0  0  0
  -10.9996   16.6214  -35.7552 O   0  0  0  0  0  0  0  0  0  0  0  0
   -8.4567   15.8393  -36.3140 H   0  0  0  0  0  0  0  0  0  0  0  0
   -9.1353   14.6433  -35.1454 H   0  0  0  0  0  0  0  0  0  0  0  0
  -12.7810   14.2012  -40.4015 H   0  0  0  0  0  0  0  0  0  0  0  0
  -14.3359   14.9968  -40.0917 H   0  0  0  0  0  0  0  0  0  0  0  0
  -14.6088   13.8487  -38.1354 H   0  0  0  0  0  0  0  0  0  0  0  0
  -13.1055   12.9636  -38.4155 H   0  0  0  0  0  0  0  0  0  0  0  0
  -12.8519   17.0907  -37.2663 H   0  0  0  0  0  0  0  0  0  0  0  0
  -14.3715   16.3843  -37.8708 H   0  0  0  0  0  0  0  0  0  0  0  0
  -10.7328   15.0978  -39.6266 H   0  0  0  0  0  0  0  0  0  0  0  0
  -10.5875   16.5819  -38.6890 H   0  0  0  0  0  0  0  0  0  0  0  0
   -8.6424   14.3248  -38.1214 H   0  0  0  0  0  0  0  0  0  0  0  0
   -8.6403   13.1115  -36.8555 H   0  0  0  0  0  0  0  0  0  0  0  0
  -12.7217   16.8644  -39.8846 H   0  0  0  0  0  0  0  0  0  0  0  0
  -13.2163   14.6691  -36.2742 H   0  0  0  0  0  0  0  0  0  0  0  0
  -12.0810   12.3814  -36.6612 H   0  0  0  0  0  0  0  0  0  0  0  0
  -10.4024   11.7636  -36.4969 H   0  0  0  0  0  0  0  0  0  0  0  0
  -10.9612   13.1291  -35.4723 H   0  0  0  0  0  0  0  0  0  0  0  0
  1  2  1  0  0  0  0
  1 10  1  0  0  0  0
  1 13  2  0  0  0  0
  2  7  1  0  0  0  0
  3  4  1  0  0  0  0
  3  8  1  0  0  0  0
  4  9  1  0  0  0  0
  5  8  1  0  0  0  0
  5  9  1  0  0  0  0
  6  8  1  0  0  0  0
  6 10  1  0  0  0  0
  7 12  1  0  0  0  0
  9 10  1  0  0  0  0
 10 12  1  0  0  0  0
 11 12  1  0  0  0  0
  2 14  1  0  0  0  0
  2 15  1  0  0  0  0
  3 16  1  0  0  0  0
  3 17  1  0  0  0  0
  4 18  1  0  0  0  0
  4 19  1  0  0  0  0
  5 20  1  0  0  0  0
  5 21  1  0  0  0  0
  6 22  1  0  0  0  0
  6 23  1  0  0  0  0
  7 24  1  0  0  0  0
  7 25  1  0  0  0  0
  8 26  1  0  0  0  0
  9 27  1  0  0  0  0
 11 28  1  0  0  0  0
 11 29  1  0  0  0  0
 11 30  1  0  0  0  0
M  END
> <id>
EN300-785419

> <smiles>
CN1CCC(=O)C21CC3CCC2C3

> <IUPAC Name>
1'-methylspiro[bicyclo[2.2.1]heptane-2,2'-pyrrolidine]-3'-one

> <CAS>
2137583-24-3

> <URL>
https://www.enaminestore.com/catalog/EN300-785419

> <ROCS_ShapeQuery>
x1247relevant_x1083L0AP1_x1305L0BP1_

> <ROCS_TanimotoCombo>
0.818 

> <ROCS_ShapeTanimoto>
0.480 

> <ROCS_ColorTanimoto>
0.338 

> <ROCS_RefTversky>
0.403 

> <ROCS_RefColorTversky>
0.371 

> <ROCS_RefTverskyCombo>
0.774 

> <ROCS_FitTversky>
1.659 

> <ROCS_FitColorTversky>
0.793 

> <ROCS_FitTverskyCombo>
2.452 

> <ROCS_ColorScore>
-7.875

> <ROCS_Overlap>
1185.278

> <ROCS_Rank>
218                 

$$$$
untitled-dbase-15994_2
  -OEChem-06162310163D

 43 45  0     1  0  0  0  0  0999 V2000
  -12.9345   17.0157  -38.5454 C   0  0  0  0  0  0  0  0  0  0  0  0
  -13.8534   16.3130  -37.5447 C   0  0  0  0  0  0  0  0  0  0  0  0
  -11.2069   15.1604  -39.0293 C   0  0  0  0  0  0  0  0  0  0  0  0
  -12.7344   13.9935  -37.3732 C   0  0  0  0  0  0  0  0  0  0  0  0
   -8.9773   13.9166  -37.3108 C   0  0  0  0  0  0  0  0  0  0  0  0
  -12.4769   15.9050  -39.4888 C   0  0  1  0  0  0  0  0  0  0  0  0
  -13.8568   14.8522  -37.9906 C   0  0  2  0  0  0  0  0  0  0  0  0
   -8.7847   14.9862  -36.1926 C   0  0  0  0  0  0  0  0  0  0  0  0
  -11.3051   14.5576  -37.5995 C   0  0  0  0  0  0  0  0  0  0  0  0
  -10.1740   15.4374  -35.5959 C   0  0  0  0  0  0  0  0  0  0  0  0
   -8.0332   16.1770  -36.8411 C   0  0  0  0  0  0  0  0  0  0  0  0
   -7.8560   14.4134  -35.0994 C   0  0  0  0  0  0  0  0  0  0  0  0
  -10.7715   14.4496  -34.5686 C   0  0  0  0  0  0  0  0  0  0  0  0
  -10.1059   16.8028  -34.8811 C   0  0  0  0  0  0  0  0  0  0  0  0
  -10.3525   13.4518  -37.4275 N   0  0  0  0  0  0  0  0  0  0  0  0
  -13.5981   14.9535  -39.4358 N   0  0  0  0  0  0  0  0  0  0  0  0
  -11.1071   15.6415  -36.6713 O   0  0  0  0  0  0  0  0  0  0  0  0
  -13.5134   17.7680  -39.0964 H   0  0  0  0  0  0  0  0  0  0  0  0
  -12.1040   17.5375  -38.0603 H   0  0  0  0  0  0  0  0  0  0  0  0
  -13.5273   16.4492  -36.5120 H   0  0  0  0  0  0  0  0  0  0  0  0
  -14.8614   16.7370  -37.6267 H   0  0  0  0  0  0  0  0  0  0  0  0
  -11.0188   14.3648  -39.7641 H   0  0  0  0  0  0  0  0  0  0  0  0
  -10.3584   15.8543  -39.0849 H   0  0  0  0  0  0  0  0  0  0  0  0
  -12.9513   13.8622  -36.3131 H   0  0  0  0  0  0  0  0  0  0  0  0
  -12.8004   12.9927  -37.8233 H   0  0  0  0  0  0  0  0  0  0  0  0
   -8.6703   14.3365  -38.2867 H   0  0  0  0  0  0  0  0  0  0  0  0
   -8.3036   13.0539  -37.1602 H   0  0  0  0  0  0  0  0  0  0  0  0
  -12.3294   16.2836  -40.5061 H   0  0  0  0  0  0  0  0  0  0  0  0
  -14.8243   14.3786  -37.7975 H   0  0  0  0  0  0  0  0  0  0  0  0
   -7.8826   16.9400  -36.0905 H   0  0  0  0  0  0  0  0  0  0  0  0
   -8.6335   16.5628  -37.6529 H   0  0  0  0  0  0  0  0  0  0  0  0
   -7.0819   15.8233  -37.2129 H   0  0  0  0  0  0  0  0  0  0  0  0
   -7.7239   15.1581  -34.3241 H   0  0  0  0  0  0  0  0  0  0  0  0
   -6.8992   14.1682  -35.5436 H   0  0  0  0  0  0  0  0  0  0  0  0
   -8.3101   13.5225  -34.6832 H   0  0  0  0  0  0  0  0  0  0  0  0
  -11.7194   14.8373  -34.2135 H   0  0  0  0  0  0  0  0  0  0  0  0
  -10.0835   14.3427  -33.7378 H   0  0  0  0  0  0  0  0  0  0  0  0
  -10.9229   13.4888  -35.0471 H   0  0  0  0  0  0  0  0  0  0  0  0
  -11.0886   17.0492  -34.4980 H   0  0  0  0  0  0  0  0  0  0  0  0
   -9.7860   17.5562  -35.5905 H   0  0  0  0  0  0  0  0  0  0  0  0
   -9.3964   16.7381  -34.0651 H   0  0  0  0  0  0  0  0  0  0  0  0
  -10.4198   12.8111  -38.2092 H   0  0  0  0  0  0  0  0  0  0  0  0
  -14.4105   15.3781  -39.8861 H   0  0  0  0  0  0  0  0  0  0  0  0
  1  2  1  0  0  0  0
  1  6  1  0  0  0  0
  2  7  1  0  0  0  0
  3  6  1  0  0  0  0
  3  9  1  0  0  0  0
  4  7  1  0  0  0  0
  4  9  1  0  0  0  0
  5  8  1  0  0  0  0
  5 15  1  0  0  0  0
  6 16  1  0  0  0  0
  7 16  1  0  0  0  0
  8 10  1  0  0  0  0
  8 11  1  0  0  0  0
  8 12  1  0  0  0  0
  9 15  1  0  0  0  0
  9 17  1  0  0  0  0
 10 13  1  0  0  0  0
 10 14  1  0  0  0  0
 10 17  1  0  0  0  0
  1 18  1  0  0  0  0
  1 19  1  0  0  0  0
  2 20  1  0  0  0  0
  2 21  1  0  0  0  0
  3 22  1  0  0  0  0
  3 23  1  0  0  0  0
  4 24  1  0  0  0  0
  4 25  1  0  0  0  0
  5 26  1  0  0  0  0
  5 27  1  0  0  0  0
  6 28  1  0  0  0  0
  7 29  1  0  0  0  0
 11 30  1  0  0  0  0
 11 31  1  0  0  0  0
 11 32  1  0  0  0  0
 12 33  1  0  0  0  0
 12 34  1  0  0  0  0
 12 35  1  0  0  0  0
 13 36  1  0  0  0  0
 13 37  1  0  0  0  0
 13 38  1  0  0  0  0
 14 39  1  0  0  0  0
 14 40  1  0  0  0  0
 14 41  1  0  0  0  0
 15 42  1  0  0  0  0
 16 43  1  0  0  0  0
M  END
> <id>
EN300-1280167

> <smiles>
CC1(C)CNC2(CC3CCC(C2)N3)OC1(C)C

> <IUPAC Name>
5',5',6',6'-tetramethyl-8-azaspiro[bicyclo[3.2.1]octane-3,2'-[1,3]oxazinane]

> <CAS>
2172528-60-6

> <URL>
https://www.enaminestore.com/catalog/EN300-1280167

> <ROCS_ShapeQuery>
x1247relevant_x1083L0AP1_x1305L0BP1_

> <ROCS_TanimotoCombo>
0.818 

> <ROCS_ShapeTanimoto>
0.506 

> <ROCS_ColorTanimoto>
0.312 

> <ROCS_RefTversky>
0.435 

> <ROCS_RefColorTversky>
0.395 

> <ROCS_RefTverskyCombo>
0.830 

> <ROCS_FitTversky>
1.473 

> <ROCS_FitColorTversky>
0.597 

> <ROCS_FitTverskyCombo>
2.070 

> <ROCS_ColorScore>
-8.469

> <ROCS_Overlap>
1283.216

> <ROCS_Rank>
219                 

$$$$
untitled-dbase-5055_0
  -OEChem-06162310163D

 34 36  0     1  0  0  0  0  0999 V2000
  -10.4470   15.8033  -36.8409 C   0  0  0  0  0  0  0  0  0  0  0  0
   -9.3029   13.8504  -36.7978 C   0  0  0  0  0  0  0  0  0  0  0  0
  -13.6063   16.4784  -38.3401 C   0  0  0  0  0  0  0  0  0  0  0  0
  -12.2841   16.5561  -39.1212 C   0  0  0  0  0  0  0  0  0  0  0  0
  -12.7353   14.6722  -36.8625 C   0  0  0  0  0  0  0  0  0  0  0  0
  -13.7312   14.9716  -38.0161 C   0  0  2  0  0  0  0  0  0  0  0  0
  -11.3611   14.7848  -37.5575 C   0  0  1  0  0  0  0  0  0  0  0  0
  -11.7504   15.0947  -39.0486 C   0  0  1  0  0  0  0  0  0  0  0  0
  -13.0857   14.2842  -39.2476 C   0  0  0  0  0  0  0  0  0  0  0  0
  -10.6527   14.8451  -40.0707 C   0  0  0  0  0  0  0  0  0  0  0  0
  -13.8292   14.5450  -40.5788 C   0  0  0  0  0  0  0  0  0  0  0  0
  -13.0018   12.7493  -39.1316 C   0  0  0  0  0  0  0  0  0  0  0  0
   -9.2730   15.1853  -36.4901 N   0  0  0  0  0  0  0  0  0  0  0  0
  -10.5313   13.6022  -37.4018 N   0  0  0  0  0  0  0  0  0  0  0  0
  -10.7253   16.9683  -36.5902 O   0  0  0  0  0  0  0  0  0  0  0  0
   -8.4248   13.0276  -36.5779 O   0  0  0  0  0  0  0  0  0  0  0  0
  -13.5834   17.0982  -37.4377 H   0  0  0  0  0  0  0  0  0  0  0  0
  -14.4418   16.8266  -38.9565 H   0  0  0  0  0  0  0  0  0  0  0  0
  -12.4656   16.8714  -40.1551 H   0  0  0  0  0  0  0  0  0  0  0  0
  -11.6012   17.3045  -38.7163 H   0  0  0  0  0  0  0  0  0  0  0  0
  -12.8586   15.3754  -36.0314 H   0  0  0  0  0  0  0  0  0  0  0  0
  -12.9091   13.6700  -36.4561 H   0  0  0  0  0  0  0  0  0  0  0  0
  -14.7543   14.6641  -37.7866 H   0  0  0  0  0  0  0  0  0  0  0  0
  -10.2980   13.8158  -39.9977 H   0  0  0  0  0  0  0  0  0  0  0  0
   -9.8133   15.5192  -39.8930 H   0  0  0  0  0  0  0  0  0  0  0  0
  -11.0325   15.0151  -41.0793 H   0  0  0  0  0  0  0  0  0  0  0  0
  -13.3098   14.0293  -41.3761 H   0  0  0  0  0  0  0  0  0  0  0  0
  -13.8401   15.6101  -40.7702 H   0  0  0  0  0  0  0  0  0  0  0  0
  -14.8416   14.1722  -40.4924 H   0  0  0  0  0  0  0  0  0  0  0  0
  -12.5411   12.3504  -40.0281 H   0  0  0  0  0  0  0  0  0  0  0  0
  -14.0023   12.3466  -39.0220 H   0  0  0  0  0  0  0  0  0  0  0  0
  -12.4042   12.4911  -38.2648 H   0  0  0  0  0  0  0  0  0  0  0  0
   -8.4855   15.6556  -36.0589 H   0  0  0  0  0  0  0  0  0  0  0  0
  -10.7820   12.6759  -37.7287 H   0  0  0  0  0  0  0  0  0  0  0  0
  1  7  1  0  0  0  0
  1 13  1  0  0  0  0
  1 15  2  0  0  0  0
  2 13  1  0  0  0  0
  2 14  1  0  0  0  0
  2 16  2  0  0  0  0
  3  4  1  0  0  0  0
  3  6  1  0  0  0  0
  4  8  1  0  0  0  0
  5  6  1  0  0  0  0
  5  7  1  0  0  0  0
  6  9  1  0  0  0  0
  7  8  1  0  0  0  0
  7 14  1  0  0  0  0
  8  9  1  0  0  0  0
  8 10  1  0  0  0  0
  9 11  1  0  0  0  0
  9 12  1  0  0  0  0
  3 17  1  0  0  0  0
  3 18  1  0  0  0  0
  4 19  1  0  0  0  0
  4 20  1  0  0  0  0
  5 21  1  0  0  0  0
  5 22  1  0  0  0  0
  6 23  1  0  0  0  0
 10 24  1  0  0  0  0
 10 25  1  0  0  0  0
 10 26  1  0  0  0  0
 11 27  1  0  0  0  0
 11 28  1  0  0  0  0
 11 29  1  0  0  0  0
 12 30  1  0  0  0  0
 12 31  1  0  0  0  0
 12 32  1  0  0  0  0
 13 33  1  0  0  0  0
 14 34  1  0  0  0  0
M  END
> <id>
EN300-198650

> <smiles>
CC1(C)C2CCC1(C)C3(C2)NC(=O)NC3=O

> <MDLNUMBER>
MFCD13818260

> <IUPAC Name>
1,7,7-trimethylspiro[bicyclo[2.2.1]heptane-2,4'-imidazolidine]-2',5'-dione

> <CAS>
6929-30-2

> <Purity>
95

> <URL>
https://www.enaminestore.com/catalog/EN300-198650

> <ROCS_ShapeQuery>
x1247relevant_x1083L0AP1_x1305L0BP1_

> <ROCS_TanimotoCombo>
0.818 

> <ROCS_ShapeTanimoto>
0.523 

> <ROCS_ColorTanimoto>
0.295 

> <ROCS_RefTversky>
0.442 

> <ROCS_RefColorTversky>
0.364 

> <ROCS_RefTverskyCombo>
0.806 

> <ROCS_FitTversky>
1.530 

> <ROCS_FitColorTversky>
0.609 

> <ROCS_FitTverskyCombo>
2.139 

> <ROCS_ColorScore>
-7.778

> <ROCS_Overlap>
1304.387

> <ROCS_Rank>
220                 

$$$$
untitled-dbase-27336_4
  -OEChem-06162310163D

 36 39  0     1  0  0  0  0  0999 V2000
  -12.9985   17.0020  -38.3642 C   0  0  0  0  0  0  0  0  0  0  0  0
  -13.9410   16.1643  -37.4986 C   0  0  0  0  0  0  0  0  0  0  0  0
   -8.7995   15.1899  -36.6113 C   0  0  0  0  0  0  0  0  0  0  0  0
  -11.1587   15.2793  -38.9275 C   0  0  0  0  0  0  0  0  0  0  0  0
  -12.7200   13.8897  -37.4882 C   0  0  0  0  0  0  0  0  0  0  0  0
   -9.9763   16.0834  -36.2450 C   0  0  0  0  0  0  0  0  0  0  0  0
   -9.5213   13.0999  -35.1699 C   0  0  0  0  0  0  0  0  0  0  0  0
   -8.1700   12.6492  -36.6610 C   0  0  0  0  0  0  0  0  0  0  0  0
  -12.4361   16.0143  -39.3840 C   0  0  1  0  0  0  0  0  0  0  0  0
  -13.8471   14.7571  -38.0840 C   0  0  2  0  0  0  0  0  0  0  0  0
   -9.2343   13.7515  -36.5344 C   0  0  0  0  0  0  0  0  0  0  0  0
  -11.3100   14.5383  -37.5671 C   0  0  0  0  0  0  0  0  0  0  0  0
  -13.5123   15.0161  -39.4937 N   0  0  0  0  0  0  0  0  0  0  0  0
  -10.3432   13.4239  -37.4394 N   0  0  0  0  0  0  0  0  0  0  0  0
   -8.7105   11.9459  -35.5122 O   0  0  0  0  0  0  0  0  0  0  0  0
  -11.2427   15.4641  -36.4670 O   0  0  0  0  0  0  0  0  0  0  0  0
  -13.5785   17.7829  -38.8721 H   0  0  0  0  0  0  0  0  0  0  0  0
  -12.2230   17.5046  -37.7785 H   0  0  0  0  0  0  0  0  0  0  0  0
  -13.6849   16.2055  -36.4359 H   0  0  0  0  0  0  0  0  0  0  0  0
  -14.9620   16.5522  -37.6029 H   0  0  0  0  0  0  0  0  0  0  0  0
   -8.4741   15.4283  -37.6338 H   0  0  0  0  0  0  0  0  0  0  0  0
   -7.9521   15.3954  -35.9449 H   0  0  0  0  0  0  0  0  0  0  0  0
  -10.8948   14.5618  -39.7157 H   0  0  0  0  0  0  0  0  0  0  0  0
  -10.3405   16.0066  -38.8657 H   0  0  0  0  0  0  0  0  0  0  0  0
  -12.9900   13.6449  -36.4564 H   0  0  0  0  0  0  0  0  0  0  0  0
  -12.7122   12.9400  -38.0421 H   0  0  0  0  0  0  0  0  0  0  0  0
   -9.9074   16.4376  -35.1957 H   0  0  0  0  0  0  0  0  0  0  0  0
   -9.9484   17.0041  -36.8620 H   0  0  0  0  0  0  0  0  0  0  0  0
   -9.1142   13.6267  -34.3016 H   0  0  0  0  0  0  0  0  0  0  0  0
  -10.5489   12.7899  -34.9555 H   0  0  0  0  0  0  0  0  0  0  0  0
   -8.1976   12.0107  -37.5526 H   0  0  0  0  0  0  0  0  0  0  0  0
   -7.1352   12.9608  -36.4810 H   0  0  0  0  0  0  0  0  0  0  0  0
  -12.2508   16.5000  -40.3487 H   0  0  0  0  0  0  0  0  0  0  0  0
  -14.8000   14.2246  -37.9999 H   0  0  0  0  0  0  0  0  0  0  0  0
  -14.3174   15.4497  -39.9483 H   0  0  0  0  0  0  0  0  0  0  0  0
  -10.0098   13.1778  -38.3746 H   0  0  0  0  0  0  0  0  0  0  0  0
  1  2  1  0  0  0  0
  1  9  1  0  0  0  0
  2 10  1  0  0  0  0
  3  6  1  0  0  0  0
  3 11  1  0  0  0  0
  4  9  1  0  0  0  0
  4 12  1  0  0  0  0
  5 10  1  0  0  0  0
  5 12  1  0  0  0  0
  6 16  1  0  0  0  0
  7 11  1  0  0  0  0
  7 15  1  0  0  0  0
  8 11  1  0  0  0  0
  8 15  1  0  0  0  0
  9 13  1  0  0  0  0
 10 13  1  0  0  0  0
 11 14  1  0  0  0  0
 12 14  1  0  0  0  0
 12 16  1  0  0  0  0
  1 17  1  0  0  0  0
  1 18  1  0  0  0  0
  2 19  1  0  0  0  0
  2 20  1  0  0  0  0
  3 21  1  0  0  0  0
  3 22  1  0  0  0  0
  4 23  1  0  0  0  0
  4 24  1  0  0  0  0
  5 25  1  0  0  0  0
  5 26  1  0  0  0  0
  6 27  1  0  0  0  0
  6 28  1  0  0  0  0
  7 29  1  0  0  0  0
  7 30  1  0  0  0  0
  8 31  1  0  0  0  0
  8 32  1  0  0  0  0
  9 33  1  0  0  0  0
 10 34  1  0  0  0  0
 13 35  1  0  0  0  0
 14 36  1  0  0  0  0
M  END
> <id>
EN300-1280072

> <smiles>
C1OCC12CCOC3(CC4CCC(C3)N4)N2

> <IUPAC Name>
dispiro[8-azabicyclo[3.2.1]octane-3,2'-[1,3]oxazinane-4',3''-oxetane]

> <URL>
https://www.enaminestore.com/catalog/EN300-1280072

> <ROCS_ShapeQuery>
x1247relevant_x1083L0AP1_x1305L0BP1_

> <ROCS_TanimotoCombo>
0.817 

> <ROCS_ShapeTanimoto>
0.504 

> <ROCS_ColorTanimoto>
0.314 

> <ROCS_RefTversky>
0.432 

> <ROCS_RefColorTversky>
0.397 

> <ROCS_RefTverskyCombo>
0.828 

> <ROCS_FitTversky>
1.496 

> <ROCS_FitColorTversky>
0.600 

> <ROCS_FitTverskyCombo>
2.096 

> <ROCS_ColorScore>
-8.506

> <ROCS_Overlap>
1272.423

> <ROCS_Rank>
221                 

$$$$
untitled-dbase-36132_0
  -OEChem-06162310163D

 22 24  0     1  0  0  0  0  0999 V2000
  -12.6557   16.0882  -39.7632 C   0  0  0  0  0  0  0  0  0  0  0  0
  -12.5437   14.5812  -39.9472 C   0  0  0  0  0  0  0  0  0  0  0  0
  -14.2628   15.8630  -37.9549 C   0  0  0  0  0  0  0  0  0  0  0  0
  -14.1299   14.3204  -38.0368 C   0  0  0  0  0  0  0  0  0  0  0  0
  -12.9187   16.5271  -38.3264 C   0  0  1  0  0  0  0  0  0  0  0  0
  -12.7199   13.9350  -38.5588 C   0  0  2  0  0  0  0  0  0  0  0  0
  -11.8598   15.9780  -37.3921 C   0  0  1  0  0  0  0  0  0  0  0  0
  -11.7185   14.4729  -37.5444 C   0  0  2  0  0  0  0  0  0  0  0  0
  -10.5625   15.3799  -37.8175 C   0  0  0  0  0  0  0  0  0  0  0  0
  -12.5471   16.8797  -40.6944 O   0  0  0  0  0  0  0  0  0  0  0  0
   -9.4916   15.3954  -36.9487 F   0  0  0  0  0  0  0  0  0  0  0  0
  -10.0474   15.5754  -39.0763 F   0  0  0  0  0  0  0  0  0  0  0  0
  -13.3301   14.2498  -40.6328 H   0  0  0  0  0  0  0  0  0  0  0  0
  -11.5671   14.3393  -40.3754 H   0  0  0  0  0  0  0  0  0  0  0  0
  -15.0561   16.1978  -38.6344 H   0  0  0  0  0  0  0  0  0  0  0  0
  -14.5637   16.1495  -36.9401 H   0  0  0  0  0  0  0  0  0  0  0  0
  -14.2951   13.8880  -37.0423 H   0  0  0  0  0  0  0  0  0  0  0  0
  -14.9074   13.9149  -38.6949 H   0  0  0  0  0  0  0  0  0  0  0  0
  -12.9758   17.6177  -38.2680 H   0  0  0  0  0  0  0  0  0  0  0  0
  -12.6263   12.8465  -38.6334 H   0  0  0  0  0  0  0  0  0  0  0  0
  -11.9375   16.3759  -36.3880 H   0  0  0  0  0  0  0  0  0  0  0  0
  -11.6924   13.8809  -36.6371 H   0  0  0  0  0  0  0  0  0  0  0  0
  1  2  1  0  0  0  0
  1  5  1  0  0  0  0
  1 10  2  0  0  0  0
  2  6  1  0  0  0  0
  3  4  1  0  0  0  0
  3  5  1  6  0  0  0
  4  6  1  6  0  0  0
  5  7  1  0  0  0  0
  6  8  1  0  0  0  0
  7  8  1  0  0  0  0
  7  9  1  0  0  0  0
  8  9  1  0  0  0  0
  9 11  1  0  0  0  0
  9 12  1  0  0  0  0
  2 13  1  0  0  0  0
  2 14  1  0  0  0  0
  3 15  1  0  0  0  0
  3 16  1  0  0  0  0
  4 17  1  0  0  0  0
  4 18  1  0  0  0  0
  5 19  1  0  0  0  0
  6 20  1  0  0  0  0
  7 21  1  0  0  0  0
  8 22  1  0  0  0  0
M  END
> <id>
EN300-1725740

> <smiles>
FC1(F)C2C1[C@@H]3CC[C@H]2CC3=O

> <IUPAC Name>
(1S,5S)-3,3-difluorotricyclo[3.2.2.0,2,4]nonan-6-one

> <CAS>
2225132-10-3

> <URL>
https://www.enaminestore.com/catalog/EN300-1725740

> <ROCS_ShapeQuery>
x1247relevant_x1083L0AP1_x1305L0BP1_

> <ROCS_TanimotoCombo>
0.817 

> <ROCS_ShapeTanimoto>
0.447 

> <ROCS_ColorTanimoto>
0.371 

> <ROCS_RefTversky>
0.379 

> <ROCS_RefColorTversky>
0.489 

> <ROCS_RefTverskyCombo>
0.869 

> <ROCS_FitTversky>
1.656 

> <ROCS_FitColorTversky>
0.605 

> <ROCS_FitTverskyCombo>
2.261 

> <ROCS_ColorScore>
-10.576

> <ROCS_Overlap>
1114.981

> <ROCS_Rank>
222                 

$$$$
untitled-dbase-26830_0
  -OEChem-06162310163D

 36 39  0     0  0  0  0  0  0999 V2000
  -14.2699   15.8302  -39.4629 C   0  0  0  0  0  0  0  0  0  0  0  0
  -13.9693   14.6758  -37.2598 C   0  0  0  0  0  0  0  0  0  0  0  0
  -12.7765   13.8281  -39.3049 C   0  0  0  0  0  0  0  0  0  0  0  0
  -12.9818   16.9414  -37.6255 C   0  0  0  0  0  0  0  0  0  0  0  0
  -11.7855   16.0943  -39.6651 C   0  0  0  0  0  0  0  0  0  0  0  0
   -8.7727   14.1196  -36.6606 C   0  0  0  0  0  0  0  0  0  0  0  0
  -11.1164   13.6366  -36.6480 C   0  0  0  0  0  0  0  0  0  0  0  0
   -9.0635   15.4130  -37.4047 C   0  0  0  0  0  0  0  0  0  0  0  0
  -14.0734   14.4658  -38.7799 C   0  0  0  0  0  0  0  0  0  0  0  0
  -13.0777   16.7496  -39.1482 C   0  0  0  0  0  0  0  0  0  0  0  0
  -12.7622   15.5768  -36.9310 C   0  0  0  0  0  0  0  0  0  0  0  0
  -11.5669   14.7278  -38.9752 C   0  0  0  0  0  0  0  0  0  0  0  0
  -11.4283   14.9355  -37.4311 C   0  0  0  0  0  0  0  0  0  0  0  0
   -9.7866   13.1162  -36.9788 N   0  0  0  0  0  0  0  0  0  0  0  0
  -10.3806   15.8821  -37.1201 O   0  0  0  0  0  0  0  0  0  0  0  0
  -14.3653   15.6973  -40.5475 H   0  0  0  0  0  0  0  0  0  0  0  0
  -15.2023   16.2927  -39.1164 H   0  0  0  0  0  0  0  0  0  0  0  0
  -14.8905   15.1420  -36.8873 H   0  0  0  0  0  0  0  0  0  0  0  0
  -13.8891   13.7107  -36.7485 H   0  0  0  0  0  0  0  0  0  0  0  0
  -12.6468   12.8271  -38.8804 H   0  0  0  0  0  0  0  0  0  0  0  0
  -12.8475   13.6903  -40.3914 H   0  0  0  0  0  0  0  0  0  0  0  0
  -12.1672   17.6343  -37.3840 H   0  0  0  0  0  0  0  0  0  0  0  0
  -13.9030   17.4049  -37.2501 H   0  0  0  0  0  0  0  0  0  0  0  0
  -11.8496   15.9550  -40.7517 H   0  0  0  0  0  0  0  0  0  0  0  0
  -10.9310   16.7577  -39.4877 H   0  0  0  0  0  0  0  0  0  0  0  0
   -7.7817   13.7417  -36.9321 H   0  0  0  0  0  0  0  0  0  0  0  0
   -8.7675   14.2971  -35.5785 H   0  0  0  0  0  0  0  0  0  0  0  0
  -11.1543   13.8313  -35.5681 H   0  0  0  0  0  0  0  0  0  0  0  0
  -11.8468   12.8471  -36.8411 H   0  0  0  0  0  0  0  0  0  0  0  0
   -8.3636   16.1887  -37.0767 H   0  0  0  0  0  0  0  0  0  0  0  0
   -8.9268   15.3008  -38.4854 H   0  0  0  0  0  0  0  0  0  0  0  0
  -14.9252   13.8153  -39.0070 H   0  0  0  0  0  0  0  0  0  0  0  0
  -13.2218   17.7201  -39.6357 H   0  0  0  0  0  0  0  0  0  0  0  0
  -12.7098   15.7502  -35.8490 H   0  0  0  0  0  0  0  0  0  0  0  0
  -10.6644   14.2780  -39.4011 H   0  0  0  0  0  0  0  0  0  0  0  0
   -9.7442   12.8913  -37.9718 H   0  0  0  0  0  0  0  0  0  0  0  0
  1  9  1  0  0  0  0
  1 10  1  0  0  0  0
  2  9  1  0  0  0  0
  2 11  1  0  0  0  0
  3  9  1  0  0  0  0
  3 12  1  0  0  0  0
  4 10  1  0  0  0  0
  4 11  1  0  0  0  0
  5 10  1  0  0  0  0
  5 12  1  0  0  0  0
  6  8  1  0  0  0  0
  6 14  1  0  0  0  0
  7 13  1  0  0  0  0
  7 14  1  0  0  0  0
  8 15  1  0  0  0  0
 11 13  1  0  0  0  0
 12 13  1  0  0  0  0
 13 15  1  0  0  0  0
  1 16  1  0  0  0  0
  1 17  1  0  0  0  0
  2 18  1  0  0  0  0
  2 19  1  0  0  0  0
  3 20  1  0  0  0  0
  3 21  1  0  0  0  0
  4 22  1  0  0  0  0
  4 23  1  0  0  0  0
  5 24  1  0  0  0  0
  5 25  1  0  0  0  0
  6 26  1  0  0  0  0
  6 27  1  0  0  0  0
  7 28  1  0  0  0  0
  7 29  1  0  0  0  0
  8 30  1  0  0  0  0
  8 31  1  0  0  0  0
  9 32  1  0  0  0  0
 10 33  1  0  0  0  0
 11 34  1  0  0  0  0
 12 35  1  0  0  0  0
 14 36  1  0  0  0  0
M  END
> <id>
EN300-6763477

> <smiles>
Cl.C1COC2(CN1)C3CC4CC(C3)CC2C4

> <MDLNUMBER>
MFCD31810989

> <IUPAC Name>
spiro[adamantane-2,2'-morpholine] hydrochloride

> <CAS>
2305252-92-8

> <Purity>
95

> <URL>
https://www.enaminestore.com/catalog/EN300-6763477

> <Saltdate>
Cl

> <ROCS_ShapeQuery>
x1247relevant_x1083L0AP1_x1305L0BP1_

> <ROCS_TanimotoCombo>
0.817 

> <ROCS_ShapeTanimoto>
0.527 

> <ROCS_ColorTanimoto>
0.291 

> <ROCS_RefTversky>
0.439 

> <ROCS_RefColorTversky>
0.342 

> <ROCS_RefTverskyCombo>
0.781 

> <ROCS_FitTversky>
1.609 

> <ROCS_FitColorTversky>
0.660 

> <ROCS_FitTverskyCombo>
2.269 

> <ROCS_ColorScore>
-7.271

> <ROCS_Overlap>
1293.301

> <ROCS_Rank>
223                 

$$$$
untitled-dbase-53372_0
  -OEChem-06162310163D

 36 39  0     0  0  0  0  0  0999 V2000
  -14.2699   15.8302  -39.4629 C   0  0  0  0  0  0  0  0  0  0  0  0
  -13.9693   14.6758  -37.2598 C   0  0  0  0  0  0  0  0  0  0  0  0
  -12.7765   13.8281  -39.3049 C   0  0  0  0  0  0  0  0  0  0  0  0
  -12.9818   16.9414  -37.6255 C   0  0  0  0  0  0  0  0  0  0  0  0
  -11.7855   16.0943  -39.6651 C   0  0  0  0  0  0  0  0  0  0  0  0
   -8.7727   14.1196  -36.6606 C   0  0  0  0  0  0  0  0  0  0  0  0
  -11.1164   13.6366  -36.6480 C   0  0  0  0  0  0  0  0  0  0  0  0
   -9.0635   15.4130  -37.4047 C   0  0  0  0  0  0  0  0  0  0  0  0
  -14.0734   14.4658  -38.7799 C   0  0  0  0  0  0  0  0  0  0  0  0
  -13.0777   16.7496  -39.1482 C   0  0  0  0  0  0  0  0  0  0  0  0
  -12.7622   15.5768  -36.9310 C   0  0  0  0  0  0  0  0  0  0  0  0
  -11.5669   14.7278  -38.9752 C   0  0  0  0  0  0  0  0  0  0  0  0
  -11.4283   14.9355  -37.4311 C   0  0  0  0  0  0  0  0  0  0  0  0
   -9.7866   13.1162  -36.9788 N   0  0  0  0  0  0  0  0  0  0  0  0
  -10.3806   15.8821  -37.1201 O   0  0  0  0  0  0  0  0  0  0  0  0
  -14.3653   15.6973  -40.5475 H   0  0  0  0  0  0  0  0  0  0  0  0
  -15.2023   16.2927  -39.1164 H   0  0  0  0  0  0  0  0  0  0  0  0
  -14.8905   15.1420  -36.8873 H   0  0  0  0  0  0  0  0  0  0  0  0
  -13.8891   13.7107  -36.7485 H   0  0  0  0  0  0  0  0  0  0  0  0
  -12.6468   12.8271  -38.8804 H   0  0  0  0  0  0  0  0  0  0  0  0
  -12.8475   13.6903  -40.3914 H   0  0  0  0  0  0  0  0  0  0  0  0
  -12.1672   17.6343  -37.3840 H   0  0  0  0  0  0  0  0  0  0  0  0
  -13.9030   17.4049  -37.2501 H   0  0  0  0  0  0  0  0  0  0  0  0
  -11.8496   15.9550  -40.7517 H   0  0  0  0  0  0  0  0  0  0  0  0
  -10.9310   16.7577  -39.4877 H   0  0  0  0  0  0  0  0  0  0  0  0
   -7.7817   13.7417  -36.9321 H   0  0  0  0  0  0  0  0  0  0  0  0
   -8.7675   14.2971  -35.5785 H   0  0  0  0  0  0  0  0  0  0  0  0
  -11.1543   13.8313  -35.5681 H   0  0  0  0  0  0  0  0  0  0  0  0
  -11.8468   12.8471  -36.8411 H   0  0  0  0  0  0  0  0  0  0  0  0
   -8.3636   16.1887  -37.0767 H   0  0  0  0  0  0  0  0  0  0  0  0
   -8.9268   15.3008  -38.4854 H   0  0  0  0  0  0  0  0  0  0  0  0
  -14.9252   13.8153  -39.0070 H   0  0  0  0  0  0  0  0  0  0  0  0
  -13.2218   17.7201  -39.6357 H   0  0  0  0  0  0  0  0  0  0  0  0
  -12.7098   15.7502  -35.8490 H   0  0  0  0  0  0  0  0  0  0  0  0
  -10.6644   14.2780  -39.4011 H   0  0  0  0  0  0  0  0  0  0  0  0
   -9.7442   12.8913  -37.9718 H   0  0  0  0  0  0  0  0  0  0  0  0
  1  9  1  0  0  0  0
  1 10  1  0  0  0  0
  2  9  1  0  0  0  0
  2 11  1  0  0  0  0
  3  9  1  0  0  0  0
  3 12  1  0  0  0  0
  4 10  1  0  0  0  0
  4 11  1  0  0  0  0
  5 10  1  0  0  0  0
  5 12  1  0  0  0  0
  6  8  1  0  0  0  0
  6 14  1  0  0  0  0
  7 13  1  0  0  0  0
  7 14  1  0  0  0  0
  8 15  1  0  0  0  0
 11 13  1  0  0  0  0
 12 13  1  0  0  0  0
 13 15  1  0  0  0  0
  1 16  1  0  0  0  0
  1 17  1  0  0  0  0
  2 18  1  0  0  0  0
  2 19  1  0  0  0  0
  3 20  1  0  0  0  0
  3 21  1  0  0  0  0
  4 22  1  0  0  0  0
  4 23  1  0  0  0  0
  5 24  1  0  0  0  0
  5 25  1  0  0  0  0
  6 26  1  0  0  0  0
  6 27  1  0  0  0  0
  7 28  1  0  0  0  0
  7 29  1  0  0  0  0
  8 30  1  0  0  0  0
  8 31  1  0  0  0  0
  9 32  1  0  0  0  0
 10 33  1  0  0  0  0
 11 34  1  0  0  0  0
 12 35  1  0  0  0  0
 14 36  1  0  0  0  0
M  END
> <id>
EN300-6763478

> <smiles>
C1COC2(CN1)C3CC4CC(C3)CC2C4

> <IUPAC Name>
spiro[adamantane-2,2'-morpholine]

> <CAS>
101672-27-9

> <URL>
https://www.enaminestore.com/catalog/EN300-6763478

> <ROCS_ShapeQuery>
x1247relevant_x1083L0AP1_x1305L0BP1_

> <ROCS_TanimotoCombo>
0.817 

> <ROCS_ShapeTanimoto>
0.527 

> <ROCS_ColorTanimoto>
0.291 

> <ROCS_RefTversky>
0.439 

> <ROCS_RefColorTversky>
0.342 

> <ROCS_RefTverskyCombo>
0.781 

> <ROCS_FitTversky>
1.609 

> <ROCS_FitColorTversky>
0.660 

> <ROCS_FitTverskyCombo>
2.269 

> <ROCS_ColorScore>
-7.271

> <ROCS_Overlap>
1293.301

> <ROCS_Rank>
224                 

$$$$
untitled-dbase-35095_0
  -OEChem-06162310163D

 27 29  0     1  0  0  0  0  0999 V2000
  -12.1481   16.5367  -39.1721 C   0  0  0  0  0  0  0  0  0  0  0  0
  -12.6231   14.1205  -39.5197 C   0  0  0  0  0  0  0  0  0  0  0  0
   -9.9804   15.6144  -37.0321 C   0  0  0  0  0  0  0  0  0  0  0  0
  -13.3951   16.6152  -38.2742 C   0  0  0  0  0  0  0  0  0  0  0  0
  -13.8663   14.2826  -38.6302 C   0  0  0  0  0  0  0  0  0  0  0  0
   -9.6459   14.2758  -36.3608 C   0  0  0  0  0  0  0  0  0  0  0  0
  -12.5135   14.9610  -36.7532 C   0  0  0  0  0  0  0  0  0  0  0  0
  -11.5427   15.1255  -39.0845 C   0  0  0  0  0  0  0  0  0  0  0  0
  -11.2260   14.8738  -37.6015 C   0  0  1  0  0  0  0  0  0  0  0  0
  -10.4677   13.6065  -37.3880 N   0  0  0  0  0  0  0  0  0  0  0  0
  -13.6745   15.3275  -37.6032 N   0  0  0  0  0  0  0  0  0  0  0  0
  -12.4196   16.7640  -40.2098 H   0  0  0  0  0  0  0  0  0  0  0  0
  -11.4163   17.2880  -38.8533 H   0  0  0  0  0  0  0  0  0  0  0  0
  -12.2474   13.0933  -39.4474 H   0  0  0  0  0  0  0  0  0  0  0  0
  -12.8915   14.2927  -40.5689 H   0  0  0  0  0  0  0  0  0  0  0  0
  -10.1655   16.4549  -36.3582 H   0  0  0  0  0  0  0  0  0  0  0  0
   -9.2462   15.9222  -37.7867 H   0  0  0  0  0  0  0  0  0  0  0  0
  -13.2658   17.4039  -37.5224 H   0  0  0  0  0  0  0  0  0  0  0  0
  -14.2649   16.9187  -38.8703 H   0  0  0  0  0  0  0  0  0  0  0  0
  -14.7391   14.5266  -39.2487 H   0  0  0  0  0  0  0  0  0  0  0  0
  -14.1078   13.3274  -38.1474 H   0  0  0  0  0  0  0  0  0  0  0  0
   -8.5886   13.9969  -36.3615 H   0  0  0  0  0  0  0  0  0  0  0  0
  -10.0395   14.1650  -35.3440 H   0  0  0  0  0  0  0  0  0  0  0  0
  -12.7272   14.0115  -36.2454 H   0  0  0  0  0  0  0  0  0  0  0  0
  -12.4081   15.7093  -35.9576 H   0  0  0  0  0  0  0  0  0  0  0  0
  -10.6551   15.0449  -39.7219 H   0  0  0  0  0  0  0  0  0  0  0  0
   -9.9229   13.3150  -38.2004 H   0  0  0  0  0  0  0  0  0  0  0  0
  1  4  1  0  0  0  0
  1  8  1  0  0  0  0
  2  5  1  0  0  0  0
  2  8  1  0  0  0  0
  3  6  1  0  0  0  0
  3  9  1  0  0  0  0
  4 11  1  0  0  0  0
  5 11  1  0  0  0  0
  6 10  1  0  0  0  0
  7  9  1  0  0  0  0
  7 11  1  0  0  0  0
  8  9  1  0  0  0  0
  9 10  1  0  0  0  0
  1 12  1  0  0  0  0
  1 13  1  0  0  0  0
  2 14  1  0  0  0  0
  2 15  1  0  0  0  0
  3 16  1  0  0  0  0
  3 17  1  0  0  0  0
  4 18  1  0  0  0  0
  4 19  1  0  0  0  0
  5 20  1  0  0  0  0
  5 21  1  0  0  0  0
  6 22  1  0  0  0  0
  6 23  1  0  0  0  0
  7 24  1  0  0  0  0
  7 25  1  0  0  0  0
  8 26  1  0  0  0  0
 10 27  1  0  0  0  0
M  END
> <id>
EN300-1297117

> <smiles>
C1CC2(CN3CCC2CC3)N1

> <IUPAC Name>
4'-azaspiro[azetidine-2,2'-bicyclo[2.2.2]octane]

> <CAS>
2169124-63-2

> <URL>
https://www.enaminestore.com/catalog/EN300-1297117

> <ROCS_ShapeQuery>
x1247relevant_x1083L0AP1_x1305L0BP1_

> <ROCS_TanimotoCombo>
0.817 

> <ROCS_ShapeTanimoto>
0.442 

> <ROCS_ColorTanimoto>
0.375 

> <ROCS_RefTversky>
0.372 

> <ROCS_RefColorTversky>
0.410 

> <ROCS_RefTverskyCombo>
0.781 

> <ROCS_FitTversky>
1.752 

> <ROCS_FitColorTversky>
0.815 

> <ROCS_FitTverskyCombo>
2.567 

> <ROCS_ColorScore>
-8.710

> <ROCS_Overlap>
1091.103

> <ROCS_Rank>
225                 

$$$$
untitled-dbase-38815_0
  -OEChem-06162310163D

 19 21  0     1  0  0  0  0  0999 V2000
   -9.7658   15.3043  -37.4650 C   0  0  0  0  0  0  0  0  0  0  0  0
  -11.9619   14.1079  -37.2537 C   0  0  0  0  0  0  0  0  0  0  0  0
  -12.6796   16.3536  -37.5166 C   0  0  0  0  0  0  0  0  0  0  0  0
  -10.9534   14.8337  -38.1919 C   0  0  1  0  0  0  0  0  0  0  0  0
  -13.2607   14.9316  -37.4351 C   0  0  1  0  0  0  0  0  0  0  0  0
  -11.8028   16.0143  -38.7411 C   0  0  1  0  0  0  0  0  0  0  0  0
  -13.7669   14.6791  -38.8473 C   0  0  2  0  0  0  0  0  0  0  0  0
  -12.8009   15.4100  -39.7211 C   0  0  1  0  0  0  0  0  0  0  0  0
   -8.8283   15.6757  -36.8911 N   0  0  0  0  0  0  0  0  0  0  0  0
  -14.1709   15.8107  -39.6237 O   0  0  0  0  0  0  0  0  0  0  0  0
  -12.1001   13.0640  -37.5567 H   0  0  0  0  0  0  0  0  0  0  0  0
  -11.6362   14.1235  -36.2069 H   0  0  0  0  0  0  0  0  0  0  0  0
  -13.4344   17.1190  -37.7256 H   0  0  0  0  0  0  0  0  0  0  0  0
  -12.1102   16.6460  -36.6285 H   0  0  0  0  0  0  0  0  0  0  0  0
  -10.6377   14.1633  -39.0001 H   0  0  0  0  0  0  0  0  0  0  0  0
  -14.0117   14.7753  -36.6590 H   0  0  0  0  0  0  0  0  0  0  0  0
  -11.2376   16.8552  -39.1493 H   0  0  0  0  0  0  0  0  0  0  0  0
  -14.0928   13.6840  -39.0983 H   0  0  0  0  0  0  0  0  0  0  0  0
  -12.4173   14.9566  -40.6194 H   0  0  0  0  0  0  0  0  0  0  0  0
  1  4  1  0  0  0  0
  1  9  3  0  0  0  0
  2  4  1  0  0  0  0
  2  5  1  0  0  0  0
  3  5  1  0  0  0  0
  3  6  1  0  0  0  0
  4  6  1  0  0  0  0
  5  7  1  0  0  0  0
  6  8  1  0  0  0  0
  7  8  1  0  0  0  0
  7 10  1  0  0  0  0
  8 10  1  0  0  0  0
  2 11  1  0  0  0  0
  2 12  1  0  0  0  0
  3 13  1  0  0  0  0
  3 14  1  0  0  0  0
  4 15  1  0  0  0  0
  5 16  1  0  0  0  0
  6 17  1  0  0  0  0
  7 18  1  0  0  0  0
  8 19  1  0  0  0  0
M  END
> <id>
EN300-295867

> <smiles>
N#CC1CC2CC1C3OC32

> <MDLNUMBER>
MFCD24526320

> <IUPAC Name>
3-oxatricyclo[3.2.1.0,2,4]octane-6-carbonitrile

> <CAS>
18776-20-0

> <URL>
https://www.enaminestore.com/catalog/EN300-295867

> <ROCS_ShapeQuery>
x1247relevant_x1083L0AP1_x1305L0BP1_

> <ROCS_TanimotoCombo>
0.817 

> <ROCS_ShapeTanimoto>
0.432 

> <ROCS_ColorTanimoto>
0.385 

> <ROCS_RefTversky>
0.362 

> <ROCS_RefColorTversky>
0.525 

> <ROCS_RefTverskyCombo>
0.887 

> <ROCS_FitTversky>
1.815 

> <ROCS_FitColorTversky>
0.590 

> <ROCS_FitTverskyCombo>
2.405 

> <ROCS_ColorScore>
-11.412

> <ROCS_Overlap>
1061.656

> <ROCS_Rank>
226                 

$$$$
untitled-dbase-1707_0
  -OEChem-06162310163D

 19 21  0     1  0  0  0  0  0999 V2000
   -9.7659   15.3040  -37.4650 C   0  0  0  0  0  0  0  0  0  0  0  0
  -11.9623   14.1082  -37.2532 C   0  0  0  0  0  0  0  0  0  0  0  0
  -12.6790   16.3541  -37.5173 C   0  0  0  0  0  0  0  0  0  0  0  0
  -10.9535   14.8332  -38.1918 C   0  0  1  0  0  0  0  0  0  0  0  0
  -13.2607   14.9324  -37.4347 C   0  0  1  0  0  0  0  0  0  0  0  0
  -11.8025   16.0138  -38.7418 C   0  0  1  0  0  0  0  0  0  0  0  0
  -13.7673   14.6794  -38.8467 C   0  0  2  0  0  0  0  0  0  0  0  0
  -12.8011   15.4091  -39.7211 C   0  0  1  0  0  0  0  0  0  0  0  0
   -8.8285   15.6757  -36.8913 N   0  0  0  0  0  0  0  0  0  0  0  0
  -14.1708   15.8106  -39.6238 O   0  0  0  0  0  0  0  0  0  0  0  0
  -12.1011   13.0642  -37.5560 H   0  0  0  0  0  0  0  0  0  0  0  0
  -11.6364   14.1239  -36.2065 H   0  0  0  0  0  0  0  0  0  0  0  0
  -13.4334   17.1195  -37.7265 H   0  0  0  0  0  0  0  0  0  0  0  0
  -12.1091   16.6470  -36.6293 H   0  0  0  0  0  0  0  0  0  0  0  0
  -10.6378   14.1623  -38.9995 H   0  0  0  0  0  0  0  0  0  0  0  0
  -14.0117   14.7771  -36.6585 H   0  0  0  0  0  0  0  0  0  0  0  0
  -11.2370   16.8541  -39.1505 H   0  0  0  0  0  0  0  0  0  0  0  0
  -14.0936   13.6842  -39.0969 H   0  0  0  0  0  0  0  0  0  0  0  0
  -12.4179   14.9550  -40.6193 H   0  0  0  0  0  0  0  0  0  0  0  0
  1  4  1  6  0  0  0
  1  9  3  0  0  0  0
  2  4  1  0  0  0  0
  2  5  1  0  0  0  0
  3  5  1  0  0  0  0
  3  6  1  0  0  0  0
  4  6  1  0  0  0  0
  5  7  1  0  0  0  0
  6  8  1  0  0  0  0
  7  8  1  0  0  0  0
  7 10  1  0  0  0  0
  8 10  1  0  0  0  0
  2 11  1  0  0  0  0
  2 12  1  0  0  0  0
  3 13  1  0  0  0  0
  3 14  1  0  0  0  0
  4 15  1  0  0  0  0
  5 16  1  0  0  0  0
  6 17  1  0  0  0  0
  7 18  1  0  0  0  0
  8 19  1  0  0  0  0
M  END
> <id>
EN300-98741

> <smiles>
N#C[C@H]1CC2CC1C3OC32

> <MDLNUMBER>
MFCD21602721

> <IUPAC Name>
(6S)-3-oxatricyclo[3.2.1.0,2,4]octane-6-carbonitrile

> <URL>
https://www.enaminestore.com/catalog/EN300-98741

> <ROCS_ShapeQuery>
x1247relevant_x1083L0AP1_x1305L0BP1_

> <ROCS_TanimotoCombo>
0.817 

> <ROCS_ShapeTanimoto>
0.432 

> <ROCS_ColorTanimoto>
0.385 

> <ROCS_RefTversky>
0.362 

> <ROCS_RefColorTversky>
0.525 

> <ROCS_RefTverskyCombo>
0.887 

> <ROCS_FitTversky>
1.815 

> <ROCS_FitColorTversky>
0.590 

> <ROCS_FitTverskyCombo>
2.405 

> <ROCS_ColorScore>
-11.412

> <ROCS_Overlap>
1061.654

> <ROCS_Rank>
227                 

$$$$
untitled-dbase-15352_5
  -OEChem-06162310163D

 31 33  0     1  0  0  0  0  0999 V2000
  -10.3040   13.7923  -38.2781 C   0  0  0  0  0  0  0  0  0  0  0  0
   -9.4707   15.8961  -36.2741 C   0  0  0  0  0  0  0  0  0  0  0  0
  -10.1219   14.9328  -35.3009 C   0  0  0  0  0  0  0  0  0  0  0  0
  -13.8157   16.4131  -38.4656 C   0  0  0  0  0  0  0  0  0  0  0  0
  -13.3743   15.9241  -37.0882 C   0  0  0  0  0  0  0  0  0  0  0  0
  -10.2983   16.1921  -37.5264 C   0  0  0  0  0  0  0  0  0  0  0  0
  -11.7048   15.5470  -39.5179 C   0  0  0  0  0  0  0  0  0  0  0  0
  -10.0568   13.4714  -35.7338 C   0  0  0  0  0  0  0  0  0  0  0  0
  -13.2142   15.3539  -39.3865 C   0  0  1  0  0  0  0  0  0  0  0  0
  -12.5096   14.7134  -37.4371 C   0  0  2  0  0  0  0  0  0  0  0  0
  -11.1642   15.0638  -38.1307 C   0  0  1  0  0  0  0  0  0  0  0  0
   -9.8116   13.1913  -37.1419 N   0  0  0  0  0  0  0  0  0  0  0  0
  -10.0240   13.3213  -39.3847 O   0  0  0  0  0  0  0  0  0  0  0  0
  -13.2718   14.1786  -38.5577 O   0  0  0  0  0  0  0  0  0  0  0  0
   -9.3078   16.8438  -35.7489 H   0  0  0  0  0  0  0  0  0  0  0  0
   -8.4774   15.5328  -36.5501 H   0  0  0  0  0  0  0  0  0  0  0  0
   -9.6066   15.0243  -34.3317 H   0  0  0  0  0  0  0  0  0  0  0  0
  -11.1668   15.2252  -35.1099 H   0  0  0  0  0  0  0  0  0  0  0  0
  -14.9102   16.4058  -38.5248 H   0  0  0  0  0  0  0  0  0  0  0  0
  -13.4668   17.4247  -38.6959 H   0  0  0  0  0  0  0  0  0  0  0  0
  -12.8887   16.6924  -36.4855 H   0  0  0  0  0  0  0  0  0  0  0  0
  -14.2616   15.5944  -36.5331 H   0  0  0  0  0  0  0  0  0  0  0  0
  -10.9406   17.0662  -37.3241 H   0  0  0  0  0  0  0  0  0  0  0  0
   -9.5684   16.5411  -38.2686 H   0  0  0  0  0  0  0  0  0  0  0  0
  -11.3381   14.9053  -40.3242 H   0  0  0  0  0  0  0  0  0  0  0  0
  -11.4542   16.5811  -39.7580 H   0  0  0  0  0  0  0  0  0  0  0  0
   -9.3137   12.9060  -35.1213 H   0  0  0  0  0  0  0  0  0  0  0  0
  -11.0334   12.9849  -35.4995 H   0  0  0  0  0  0  0  0  0  0  0  0
  -13.7384   15.2269  -40.3355 H   0  0  0  0  0  0  0  0  0  0  0  0
  -12.4435   13.9887  -36.6196 H   0  0  0  0  0  0  0  0  0  0  0  0
   -9.1604   12.4129  -37.3157 H   0  0  0  0  0  0  0  0  0  0  0  0
  1 11  1  0  0  0  0
  1 12  1  0  0  0  0
  1 13  2  0  0  0  0
  2  3  1  0  0  0  0
  2  6  1  0  0  0  0
  3  8  1  0  0  0  0
  4  5  1  0  0  0  0
  4  9  1  0  0  0  0
  5 10  1  0  0  0  0
  6 11  1  0  0  0  0
  7  9  1  0  0  0  0
  7 11  1  0  0  0  0
  8 12  1  0  0  0  0
  9 14  1  0  0  0  0
 10 11  1  0  0  0  0
 10 14  1  0  0  0  0
  2 15  1  0  0  0  0
  2 16  1  0  0  0  0
  3 17  1  0  0  0  0
  3 18  1  0  0  0  0
  4 19  1  0  0  0  0
  4 20  1  0  0  0  0
  5 21  1  0  0  0  0
  5 22  1  0  0  0  0
  6 23  1  0  0  0  0
  6 24  1  0  0  0  0
  7 25  1  0  0  0  0
  7 26  1  0  0  0  0
  8 27  1  0  0  0  0
  8 28  1  0  0  0  0
  9 29  1  0  0  0  0
 10 30  1  0  0  0  0
 12 31  1  0  0  0  0
M  END
> <id>
EN300-1153651

> <smiles>
O=C1NCCCCC21CC3CCC2O3

> <IUPAC Name>
7'-oxaspiro[azepane-3,2'-bicyclo[2.2.1]heptane]-2-one

> <CAS>
2138037-29-1

> <URL>
https://www.enaminestore.com/catalog/EN300-1153651

> <ROCS_ShapeQuery>
x1247relevant_x1083L0AP1_x1305L0BP1_

> <ROCS_TanimotoCombo>
0.817 

> <ROCS_ShapeTanimoto>
0.468 

> <ROCS_ColorTanimoto>
0.349 

> <ROCS_RefTversky>
0.400 

> <ROCS_RefColorTversky>
0.391 

> <ROCS_RefTverskyCombo>
0.792 

> <ROCS_FitTversky>
1.563 

> <ROCS_FitColorTversky>
0.764 

> <ROCS_FitTverskyCombo>
2.328 

> <ROCS_ColorScore>
-8.325

> <ROCS_Overlap>
1177.856

> <ROCS_Rank>
228                 

$$$$
untitled-dbase-30340_2
  -OEChem-06162310163D

 26 28  0     1  0  0  0  0  0999 V2000
   -9.3860   15.2094  -36.3399 C   0  0  0  0  0  0  0  0  0  0  0  0
   -9.4352   13.8644  -36.7661 C   0  0  0  0  0  0  0  0  0  0  0  0
  -10.3590   16.1315  -36.7362 C   0  0  0  0  0  0  0  0  0  0  0  0
  -10.4588   13.4051  -37.6000 C   0  0  0  0  0  0  0  0  0  0  0  0
  -11.3579   15.6715  -37.5633 C   0  0  0  0  0  0  0  0  0  0  0  0
  -11.4074   14.3221  -37.9905 C   0  0  0  0  0  0  0  0  0  0  0  0
  -12.8698   16.0424  -40.6613 C   0  0  0  0  0  0  0  0  0  0  0  0
  -13.7992   15.7942  -37.4086 C   0  0  0  0  0  0  0  0  0  0  0  0
  -13.8538   14.2947  -37.8832 C   0  0  0  0  0  0  0  0  0  0  0  0
  -12.5701   16.3460  -38.1648 C   0  0  2  0  0  0  0  0  0  0  0  0
  -12.6491   14.1978  -38.8467 C   0  0  1  0  0  0  0  0  0  0  0  0
  -12.6869   15.5579  -39.3884 N   0  0  0  0  0  0  0  0  0  0  0  0
  -13.5664   15.2132  -41.5132 N   0  0  0  0  0  0  0  0  0  0  0  0
  -12.4484   17.1395  -41.0349 O   0  0  0  0  0  0  0  0  0  0  0  0
   -8.5775   15.5304  -35.6878 H   0  0  0  0  0  0  0  0  0  0  0  0
   -8.6636   13.1739  -36.4345 H   0  0  0  0  0  0  0  0  0  0  0  0
  -10.3242   17.1612  -36.4017 H   0  0  0  0  0  0  0  0  0  0  0  0
  -10.4993   12.3708  -37.9196 H   0  0  0  0  0  0  0  0  0  0  0  0
  -14.7162   16.3102  -37.7150 H   0  0  0  0  0  0  0  0  0  0  0  0
  -13.7017   15.8621  -36.3197 H   0  0  0  0  0  0  0  0  0  0  0  0
  -13.7834   13.6071  -37.0335 H   0  0  0  0  0  0  0  0  0  0  0  0
  -14.7965   14.1110  -38.4109 H   0  0  0  0  0  0  0  0  0  0  0  0
  -12.5093   17.4249  -38.3118 H   0  0  0  0  0  0  0  0  0  0  0  0
  -12.6531   13.3845  -39.5707 H   0  0  0  0  0  0  0  0  0  0  0  0
  -13.7285   15.5247  -42.4651 H   0  0  0  0  0  0  0  0  0  0  0  0
  -13.9242   14.3078  -41.2346 H   0  0  0  0  0  0  0  0  0  0  0  0
  1  2  2  0  0  0  0
  1  3  1  0  0  0  0
  2  4  1  0  0  0  0
  3  5  2  0  0  0  0
  4  6  2  0  0  0  0
  5  6  1  0  0  0  0
  5 10  1  0  0  0  0
  6 11  1  0  0  0  0
  7 12  1  0  0  0  0
  7 13  1  0  0  0  0
  7 14  2  0  0  0  0
  8  9  1  0  0  0  0
  8 10  1  0  0  0  0
  9 11  1  0  0  0  0
 10 12  1  0  0  0  0
 11 12  1  0  0  0  0
  1 15  1  0  0  0  0
  2 16  1  0  0  0  0
  3 17  1  0  0  0  0
  4 18  1  0  0  0  0
  8 19  1  0  0  0  0
  8 20  1  0  0  0  0
  9 21  1  0  0  0  0
  9 22  1  0  0  0  0
 10 23  1  0  0  0  0
 11 24  1  0  0  0  0
 13 25  1  0  0  0  0
 13 26  1  0  0  0  0
M  END
> <id>
EN300-7536311

> <smiles>
NC(=O)N1C2CCC1C=3C=CC=CC23

> <MDLNUMBER>
MFCD30673366

> <IUPAC Name>
11-azatricyclo[6.2.1.0,2,7]undeca-2,4,6-triene-11-carboxamide

> <CAS>
2125207-35-2

> <Purity>
95

> <URL>
https://www.enaminestore.com/catalog/EN300-7536311

> <ROCS_ShapeQuery>
x1247relevant_x1083L0AP1_x1305L0BP1_

> <ROCS_TanimotoCombo>
0.816 

> <ROCS_ShapeTanimoto>
0.494 

> <ROCS_ColorTanimoto>
0.323 

> <ROCS_RefTversky>
0.417 

> <ROCS_RefColorTversky>
0.360 

> <ROCS_RefTverskyCombo>
0.777 

> <ROCS_FitTversky>
1.586 

> <ROCS_FitColorTversky>
0.758 

> <ROCS_FitTverskyCombo>
2.344 

> <ROCS_ColorScore>
-7.641

> <ROCS_Overlap>
1228.886

> <ROCS_Rank>
229                 

$$$$
untitled-dbase-16193_0
  -OEChem-06162310163D

 38 41  0     1  0  0  0  0  0999 V2000
   -7.9758   15.0570  -34.0827 C   0  0  0  0  0  0  0  0  0  0  0  0
  -12.9938   17.0076  -38.3395 C   0  0  0  0  0  0  0  0  0  0  0  0
  -13.9479   16.1594  -37.4967 C   0  0  0  0  0  0  0  0  0  0  0  0
   -7.5519   15.2962  -35.5444 C   0  0  0  0  0  0  0  0  0  0  0  0
   -9.0626   14.1003  -34.6089 C   0  0  0  0  0  0  0  0  0  0  0  0
  -11.1629   15.2882  -38.9284 C   0  0  0  0  0  0  0  0  0  0  0  0
  -12.7306   13.8814  -37.5189 C   0  0  0  0  0  0  0  0  0  0  0  0
   -8.9858   13.9246  -37.2077 C   0  0  0  0  0  0  0  0  0  0  0  0
   -9.9751   15.9751  -36.1660 C   0  0  0  0  0  0  0  0  0  0  0  0
  -12.4344   16.0365  -39.3769 C   0  0  1  0  0  0  0  0  0  0  0  0
  -13.8543   14.7614  -38.1042 C   0  0  2  0  0  0  0  0  0  0  0  0
   -8.9735   14.8361  -35.9831 C   0  0  0  0  0  0  0  0  0  0  0  0
  -11.3201   14.5328  -37.5774 C   0  0  0  0  0  0  0  0  0  0  0  0
  -10.3432   13.4356  -37.4386 N   0  0  0  0  0  0  0  0  0  0  0  0
  -13.5141   15.0445  -39.5079 N   0  0  0  0  0  0  0  0  0  0  0  0
  -11.2674   15.4374  -36.4542 O   0  0  0  0  0  0  0  0  0  0  0  0
   -7.2179   14.6041  -33.4382 H   0  0  0  0  0  0  0  0  0  0  0  0
   -8.3736   15.9489  -33.5858 H   0  0  0  0  0  0  0  0  0  0  0  0
  -13.5639   17.8047  -38.8324 H   0  0  0  0  0  0  0  0  0  0  0  0
  -12.2164   17.4882  -37.7385 H   0  0  0  0  0  0  0  0  0  0  0  0
  -13.7035   16.1831  -36.4308 H   0  0  0  0  0  0  0  0  0  0  0  0
  -14.9662   16.5530  -37.6053 H   0  0  0  0  0  0  0  0  0  0  0  0
   -7.2772   16.3261  -35.7902 H   0  0  0  0  0  0  0  0  0  0  0  0
   -6.7409   14.6337  -35.8704 H   0  0  0  0  0  0  0  0  0  0  0  0
   -8.7381   13.0529  -34.6324 H   0  0  0  0  0  0  0  0  0  0  0  0
  -10.0236   14.1531  -34.0895 H   0  0  0  0  0  0  0  0  0  0  0  0
  -10.9082   14.5691  -39.7203 H   0  0  0  0  0  0  0  0  0  0  0  0
  -10.3381   16.0068  -38.8898 H   0  0  0  0  0  0  0  0  0  0  0  0
  -12.9834   13.6359  -36.4787 H   0  0  0  0  0  0  0  0  0  0  0  0
  -12.7308   12.9348  -38.0786 H   0  0  0  0  0  0  0  0  0  0  0  0
   -8.6104   14.4551  -38.0909 H   0  0  0  0  0  0  0  0  0  0  0  0
   -8.3247   13.0635  -37.0565 H   0  0  0  0  0  0  0  0  0  0  0  0
  -10.0713   16.5791  -35.2575 H   0  0  0  0  0  0  0  0  0  0  0  0
   -9.6669   16.6580  -36.9642 H   0  0  0  0  0  0  0  0  0  0  0  0
  -12.2446   16.5378  -40.3318 H   0  0  0  0  0  0  0  0  0  0  0  0
  -14.8092   14.2303  -38.0306 H   0  0  0  0  0  0  0  0  0  0  0  0
  -10.3573   12.8479  -38.2716 H   0  0  0  0  0  0  0  0  0  0  0  0
  -14.3160   15.4897  -39.9565 H   0  0  0  0  0  0  0  0  0  0  0  0
  1  4  1  0  0  0  0
  1  5  1  0  0  0  0
  2  3  1  0  0  0  0
  2 10  1  0  0  0  0
  3 11  1  0  0  0  0
  4 12  1  0  0  0  0
  5 12  1  0  0  0  0
  6 10  1  0  0  0  0
  6 13  1  0  0  0  0
  7 11  1  0  0  0  0
  7 13  1  0  0  0  0
  8 12  1  0  0  0  0
  8 14  1  0  0  0  0
  9 12  1  0  0  0  0
  9 16  1  0  0  0  0
 10 15  1  0  0  0  0
 11 15  1  0  0  0  0
 13 14  1  0  0  0  0
 13 16  1  0  0  0  0
  1 17  1  0  0  0  0
  1 18  1  0  0  0  0
  2 19  1  0  0  0  0
  2 20  1  0  0  0  0
  3 21  1  0  0  0  0
  3 22  1  0  0  0  0
  4 23  1  0  0  0  0
  4 24  1  0  0  0  0
  5 25  1  0  0  0  0
  5 26  1  0  0  0  0
  6 27  1  0  0  0  0
  6 28  1  0  0  0  0
  7 29  1  0  0  0  0
  7 30  1  0  0  0  0
  8 31  1  0  0  0  0
  8 32  1  0  0  0  0
  9 33  1  0  0  0  0
  9 34  1  0  0  0  0
 10 35  1  0  0  0  0
 11 36  1  0  0  0  0
 14 37  1  0  0  0  0
 15 38  1  0  0  0  0
M  END
> <id>
EN300-1278901

> <smiles>
C1CC2(C1)CNC3(CC4CCC(C3)N4)OC2

> <IUPAC Name>
dispiro[8-azabicyclo[3.2.1]octane-3,2'-[1,3]oxazinane-5',1''-cyclobutane]

> <CAS>
2172139-87-4

> <URL>
https://www.enaminestore.com/catalog/EN300-1278901

> <ROCS_ShapeQuery>
x1247relevant_x1083L0AP1_x1305L0BP1_

> <ROCS_TanimotoCombo>
0.816 

> <ROCS_ShapeTanimoto>
0.490 

> <ROCS_ColorTanimoto>
0.326 

> <ROCS_RefTversky>
0.423 

> <ROCS_RefColorTversky>
0.398 

> <ROCS_RefTverskyCombo>
0.821 

> <ROCS_FitTversky>
1.478 

> <ROCS_FitColorTversky>
0.643 

> <ROCS_FitTverskyCombo>
2.122 

> <ROCS_ColorScore>
-8.512

> <ROCS_Overlap>
1247.421

> <ROCS_Rank>
230                 

$$$$
untitled-dbase-27359_9
  -OEChem-06162310163D

 39 42  0     1  0  0  0  0  0999 V2000
  -12.0289   14.9216  -39.8082 C   0  0  0  0  0  0  0  0  0  0  0  0
  -12.3794   16.8270  -38.2833 C   0  0  0  0  0  0  0  0  0  0  0  0
   -8.7692   15.0862  -36.6136 C   0  0  0  0  0  0  0  0  0  0  0  0
   -9.9148   14.2051  -34.4987 C   0  0  0  0  0  0  0  0  0  0  0  0
  -13.4664   14.4908  -39.4749 C   0  0  0  0  0  0  0  0  0  0  0  0
  -13.7493   16.2678  -37.8728 C   0  0  0  0  0  0  0  0  0  0  0  0
   -9.0907   13.9095  -37.5354 C   0  0  0  0  0  0  0  0  0  0  0  0
  -12.8491   14.1374  -37.1783 C   0  0  0  0  0  0  0  0  0  0  0  0
   -8.8378   14.6261  -33.5205 C   0  0  0  0  0  0  0  0  0  0  0  0
   -9.5606   16.5083  -34.6809 C   0  0  0  0  0  0  0  0  0  0  0  0
  -11.4285   15.6506  -38.5926 C   0  0  0  0  0  0  0  0  0  0  0  0
   -9.8625   15.2972  -35.5584 C   0  0  1  0  0  0  0  0  0  0  0  0
  -11.4031   14.6933  -37.3576 C   0  0  2  0  0  0  0  0  0  0  0  0
  -10.5019   13.5477  -37.5173 N   0  0  0  0  0  0  0  0  0  0  0  0
  -13.8247   14.8061  -38.0741 N   0  0  0  0  0  0  0  0  0  0  0  0
   -8.7302   16.0529  -33.6049 O   0  0  0  0  0  0  0  0  0  0  0  0
  -11.1310   15.4852  -36.1789 O   0  0  0  0  0  0  0  0  0  0  0  0
  -11.4257   14.0540  -40.0919 H   0  0  0  0  0  0  0  0  0  0  0  0
  -12.0418   15.5912  -40.6763 H   0  0  0  0  0  0  0  0  0  0  0  0
  -12.4849   17.4632  -39.1713 H   0  0  0  0  0  0  0  0  0  0  0  0
  -11.9814   17.4647  -37.4867 H   0  0  0  0  0  0  0  0  0  0  0  0
   -7.8143   14.8776  -36.1099 H   0  0  0  0  0  0  0  0  0  0  0  0
   -8.6149   15.9949  -37.2085 H   0  0  0  0  0  0  0  0  0  0  0  0
   -9.6527   13.2290  -34.9320 H   0  0  0  0  0  0  0  0  0  0  0  0
  -10.8891   14.1099  -34.0032 H   0  0  0  0  0  0  0  0  0  0  0  0
  -14.1746   14.9801  -40.1569 H   0  0  0  0  0  0  0  0  0  0  0  0
  -13.5842   13.4143  -39.6564 H   0  0  0  0  0  0  0  0  0  0  0  0
  -13.9565   16.5073  -36.8218 H   0  0  0  0  0  0  0  0  0  0  0  0
  -14.5408   16.7638  -38.4485 H   0  0  0  0  0  0  0  0  0  0  0  0
   -8.7466   14.1184  -38.5731 H   0  0  0  0  0  0  0  0  0  0  0  0
   -8.4941   13.0295  -37.2121 H   0  0  0  0  0  0  0  0  0  0  0  0
  -12.9011   13.0580  -37.3753 H   0  0  0  0  0  0  0  0  0  0  0  0
  -13.1860   14.2543  -36.1400 H   0  0  0  0  0  0  0  0  0  0  0  0
   -9.1096   14.3709  -32.4892 H   0  0  0  0  0  0  0  0  0  0  0  0
   -7.8676   14.1698  -33.7436 H   0  0  0  0  0  0  0  0  0  0  0  0
   -8.9872   17.2697  -35.2260 H   0  0  0  0  0  0  0  0  0  0  0  0
  -10.4345   16.9953  -34.2483 H   0  0  0  0  0  0  0  0  0  0  0  0
  -10.4352   16.0255  -38.8479 H   0  0  0  0  0  0  0  0  0  0  0  0
  -10.7326   13.0138  -38.3580 H   0  0  0  0  0  0  0  0  0  0  0  0
  1  5  1  0  0  0  0
  1 11  1  0  0  0  0
  2  6  1  0  0  0  0
  2 11  1  0  0  0  0
  3  7  1  0  0  0  0
  3 12  1  0  0  0  0
  4  9  1  0  0  0  0
  4 12  1  0  0  0  0
  5 15  1  0  0  0  0
  6 15  1  0  0  0  0
  7 14  1  0  0  0  0
  8 13  1  0  0  0  0
  8 15  1  0  0  0  0
  9 16  1  0  0  0  0
 10 12  1  0  0  0  0
 10 16  1  0  0  0  0
 11 13  1  0  0  0  0
 12 17  1  0  0  0  0
 13 14  1  0  0  0  0
 13 17  1  0  0  0  0
  1 18  1  0  0  0  0
  1 19  1  0  0  0  0
  2 20  1  0  0  0  0
  2 21  1  0  0  0  0
  3 22  1  0  0  0  0
  3 23  1  0  0  0  0
  4 24  1  0  0  0  0
  4 25  1  0  0  0  0
  5 26  1  0  0  0  0
  5 27  1  0  0  0  0
  6 28  1  0  0  0  0
  6 29  1  0  0  0  0
  7 30  1  0  0  0  0
  7 31  1  0  0  0  0
  8 32  1  0  0  0  0
  8 33  1  0  0  0  0
  9 34  1  0  0  0  0
  9 35  1  0  0  0  0
 10 36  1  0  0  0  0
 10 37  1  0  0  0  0
 11 38  1  0  0  0  0
 14 39  1  0  0  0  0
M  END
> <id>
EN300-1280305

> <smiles>
C1CC2(CO1)CCNC3(CN4CCC3CC4)O2

> <IUPAC Name>
dispiro[4-azabicyclo[2.2.2]octane-2,2'-[1,3]oxazinane-6',3''-oxolane]

> <URL>
https://www.enaminestore.com/catalog/EN300-1280305

> <ROCS_ShapeQuery>
x1247relevant_x1083L0AP1_x1305L0BP1_

> <ROCS_TanimotoCombo>
0.816 

> <ROCS_ShapeTanimoto>
0.481 

> <ROCS_ColorTanimoto>
0.335 

> <ROCS_RefTversky>
0.423 

> <ROCS_RefColorTversky>
0.409 

> <ROCS_RefTverskyCombo>
0.833 

> <ROCS_FitTversky>
1.395 

> <ROCS_FitColorTversky>
0.649 

> <ROCS_FitTverskyCombo>
2.044 

> <ROCS_ColorScore>
-8.764

> <ROCS_Overlap>
1249.361

> <ROCS_Rank>
231                 

$$$$
untitled-dbase-52514_0
  -OEChem-06162310163D

 24 25  0     1  0  0  0  0  0999 V2000
  -10.2121   14.6643  -36.7235 C   0  0  0  0  0  0  0  0  0  0  0  0
  -12.9019   16.4662  -38.2876 C   0  0  0  0  0  0  0  0  0  0  0  0
  -11.2365   14.9329  -39.0467 C   0  0  0  0  0  0  0  0  0  0  0  0
  -13.5349   14.3926  -37.4359 C   0  0  0  0  0  0  0  0  0  0  0  0
  -12.5386   15.5176  -37.1567 C   0  0  1  0  0  0  0  0  0  0  0  0
  -12.6783   15.3819  -39.3378 C   0  0  2  0  0  0  0  0  0  0  0  0
  -12.9585   15.7615  -40.7697 C   0  0  0  0  0  0  0  0  0  0  0  0
   -8.9744   14.1122  -37.3829 C   0  0  0  0  0  0  0  0  0  0  0  0
  -11.2257   15.0237  -37.5852 N   0  0  0  0  0  0  0  0  0  0  0  0
  -10.2756   14.7702  -35.4981 O   0  0  0  0  0  0  0  0  0  0  0  0
  -13.5573   14.3156  -38.8885 O   0  0  0  0  0  0  0  0  0  0  0  0
   -9.1230   14.0847  -38.7196 F   0  0  0  0  0  0  0  0  0  0  0  0
   -7.9031   14.8726  -37.0936 F   0  0  0  0  0  0  0  0  0  0  0  0
   -8.7275   12.8590  -36.9606 F   0  0  0  0  0  0  0  0  0  0  0  0
  -13.9410   16.8081  -38.2310 H   0  0  0  0  0  0  0  0  0  0  0  0
  -12.2268   17.3230  -38.3821 H   0  0  0  0  0  0  0  0  0  0  0  0
  -11.0327   13.9016  -39.3495 H   0  0  0  0  0  0  0  0  0  0  0  0
  -10.4800   15.6132  -39.4496 H   0  0  0  0  0  0  0  0  0  0  0  0
  -13.2376   13.4247  -37.0210 H   0  0  0  0  0  0  0  0  0  0  0  0
  -14.5454   14.6403  -37.0952 H   0  0  0  0  0  0  0  0  0  0  0  0
  -12.5468   15.9097  -36.1387 H   0  0  0  0  0  0  0  0  0  0  0  0
  -12.7677   14.9165  -41.4405 H   0  0  0  0  0  0  0  0  0  0  0  0
  -12.3210   16.5957  -41.0827 H   0  0  0  0  0  0  0  0  0  0  0  0
  -14.0037   16.0660  -40.8938 H   0  0  0  0  0  0  0  0  0  0  0  0
  1  8  1  0  0  0  0
  1  9  1  0  0  0  0
  1 10  2  0  0  0  0
  2  5  1  0  0  0  0
  2  6  1  0  0  0  0
  3  6  1  0  0  0  0
  3  9  1  0  0  0  0
  4  5  1  0  0  0  0
  4 11  1  0  0  0  0
  5  9  1  0  0  0  0
  6  7  1  0  0  0  0
  6 11  1  0  0  0  0
  8 12  1  0  0  0  0
  8 13  1  0  0  0  0
  8 14  1  0  0  0  0
  2 15  1  0  0  0  0
  2 16  1  0  0  0  0
  3 17  1  0  0  0  0
  3 18  1  0  0  0  0
  4 19  1  0  0  0  0
  4 20  1  0  0  0  0
  5 21  1  0  0  0  0
  7 22  1  0  0  0  0
  7 23  1  0  0  0  0
  7 24  1  0  0  0  0
M  END
> <id>
EN300-7072511

> <smiles>
CC1(CC2CO1)CN2C(=O)C(F)(F)F

> <MDLNUMBER>
MFCD32807111

> <IUPAC Name>
2,2,2-trifluoro-1-{1-methyl-2-oxa-5-azabicyclo[2.2.1]heptan-5-yl}ethan-1-one

> <URL>
https://www.enaminestore.com/catalog/EN300-7072511

> <ROCS_ShapeQuery>
x1247relevant_x1083L0AP1_x1305L0BP1_

> <ROCS_TanimotoCombo>
0.816 

> <ROCS_ShapeTanimoto>
0.484 

> <ROCS_ColorTanimoto>
0.332 

> <ROCS_RefTversky>
0.412 

> <ROCS_RefColorTversky>
0.356 

> <ROCS_RefTverskyCombo>
0.768 

> <ROCS_FitTversky>
1.568 

> <ROCS_FitColorTversky>
0.828 

> <ROCS_FitTverskyCombo>
2.397 

> <ROCS_ColorScore>
-7.542

> <ROCS_Overlap>
1212.491

> <ROCS_Rank>
232                 

$$$$
untitled-dbase-12614_0
  -OEChem-06162310163D

 20 22  0     1  0  0  0  0  0999 V2000
  -13.8343   16.2448  -39.8930 C   0  0  0  0  0  0  0  0  0  0  0  0
  -12.1466   15.1469  -36.6818 C   0  0  0  0  0  0  0  0  0  0  0  0
  -13.4172   16.3511  -38.4504 C   0  0  2  0  0  0  0  0  0  0  0  0
  -12.4179   15.9440  -39.4797 C   0  0  1  0  0  0  0  0  0  0  0  0
  -11.0930   14.7561  -37.7486 C   0  0  2  0  0  0  0  0  0  0  0  0
  -13.4392   15.1680  -37.5092 C   0  0  1  0  0  0  0  0  0  0  0  0
  -11.9758   14.5771  -38.9993 C   0  0  1  0  0  0  0  0  0  0  0  0
  -10.4254   13.5092  -37.3943 N   0  0  0  0  0  0  0  0  0  0  0  0
  -13.1819   14.0456  -38.3901 O   0  0  0  0  0  0  0  0  0  0  0  0
  -14.4772   15.4271  -40.1931 H   0  0  0  0  0  0  0  0  0  0  0  0
  -14.0129   17.1672  -40.4327 H   0  0  0  0  0  0  0  0  0  0  0  0
  -12.2164   14.3888  -35.8926 H   0  0  0  0  0  0  0  0  0  0  0  0
  -11.9230   16.1107  -36.2136 H   0  0  0  0  0  0  0  0  0  0  0  0
  -13.3400   17.3199  -37.9820 H   0  0  0  0  0  0  0  0  0  0  0  0
  -11.6241   16.6208  -39.7561 H   0  0  0  0  0  0  0  0  0  0  0  0
  -10.3436   15.5438  -37.8833 H   0  0  0  0  0  0  0  0  0  0  0  0
  -14.3642   15.0462  -36.9422 H   0  0  0  0  0  0  0  0  0  0  0  0
  -11.5880   13.9251  -39.7859 H   0  0  0  0  0  0  0  0  0  0  0  0
   -9.8040   13.2669  -38.1302 H   0  0  0  0  0  0  0  0  0  0  0  0
   -9.9255   13.6521  -36.5481 H   0  0  0  0  0  0  0  0  0  0  0  0
  1  3  1  1  0  0  0
  1  4  1  1  0  0  0
  2  5  1  0  0  0  0
  2  6  1  6  0  0  0
  3  4  1  0  0  0  0
  3  6  1  0  0  0  0
  4  7  1  0  0  0  0
  5  7  1  0  0  0  0
  5  8  1  1  0  0  0
  6  9  1  0  0  0  0
  7  9  1  1  0  0  0
  1 10  1  0  0  0  0
  1 11  1  0  0  0  0
  2 12  1  0  0  0  0
  2 13  1  0  0  0  0
  3 14  1  0  0  0  0
  4 15  1  0  0  0  0
  5 16  1  0  0  0  0
  6 17  1  0  0  0  0
  7 18  1  0  0  0  0
  8 19  1  0  0  0  0
  8 20  1  0  0  0  0
M  END
> <id>
EN300-725096

> <smiles>
N[C@@H]1C[C@@H]2O[C@H]1[C@H]3C[C@H]32 |&1:1,3,5,6,8,r|

> <IUPAC Name>
rac-(1R,2S,4R,5R,6S)-8-oxatricyclo[3.2.1.0,2,4]octan-6-amine

> <CAS>
2137765-05-8

> <URL>
https://www.enaminestore.com/catalog/EN300-725096

> <ROCS_ShapeQuery>
x1247relevant_x1083L0AP1_x1305L0BP1_

> <ROCS_TanimotoCombo>
0.816 

> <ROCS_ShapeTanimoto>
0.387 

> <ROCS_ColorTanimoto>
0.429 

> <ROCS_RefTversky>
0.331 

> <ROCS_RefColorTversky>
0.580 

> <ROCS_RefTverskyCombo>
0.910 

> <ROCS_FitTversky>
1.775 

> <ROCS_FitColorTversky>
0.623 

> <ROCS_FitTverskyCombo>
2.397 

> <ROCS_ColorScore>
-12.616

> <ROCS_Overlap>
969.792

> <ROCS_Rank>
233                 

$$$$
untitled-dbase-21830_0
  -OEChem-06162310163D

 20 22  0     1  0  0  0  0  0999 V2000
  -13.8343   16.2448  -39.8930 C   0  0  0  0  0  0  0  0  0  0  0  0
  -12.1466   15.1469  -36.6818 C   0  0  0  0  0  0  0  0  0  0  0  0
  -13.4172   16.3511  -38.4504 C   0  0  2  0  0  0  0  0  0  0  0  0
  -12.4179   15.9440  -39.4797 C   0  0  1  0  0  0  0  0  0  0  0  0
  -11.0930   14.7561  -37.7486 C   0  0  2  0  0  0  0  0  0  0  0  0
  -13.4392   15.1680  -37.5092 C   0  0  1  0  0  0  0  0  0  0  0  0
  -11.9758   14.5771  -38.9993 C   0  0  1  0  0  0  0  0  0  0  0  0
  -10.4254   13.5092  -37.3943 N   0  0  0  0  0  0  0  0  0  0  0  0
  -13.1819   14.0456  -38.3901 O   0  0  0  0  0  0  0  0  0  0  0  0
  -14.4772   15.4271  -40.1931 H   0  0  0  0  0  0  0  0  0  0  0  0
  -14.0129   17.1672  -40.4327 H   0  0  0  0  0  0  0  0  0  0  0  0
  -12.2164   14.3888  -35.8926 H   0  0  0  0  0  0  0  0  0  0  0  0
  -11.9230   16.1107  -36.2136 H   0  0  0  0  0  0  0  0  0  0  0  0
  -13.3400   17.3199  -37.9820 H   0  0  0  0  0  0  0  0  0  0  0  0
  -11.6241   16.6208  -39.7561 H   0  0  0  0  0  0  0  0  0  0  0  0
  -10.3436   15.5438  -37.8833 H   0  0  0  0  0  0  0  0  0  0  0  0
  -14.3642   15.0462  -36.9422 H   0  0  0  0  0  0  0  0  0  0  0  0
  -11.5880   13.9251  -39.7859 H   0  0  0  0  0  0  0  0  0  0  0  0
   -9.8040   13.2669  -38.1302 H   0  0  0  0  0  0  0  0  0  0  0  0
   -9.9255   13.6521  -36.5481 H   0  0  0  0  0  0  0  0  0  0  0  0
  1  3  1  1  0  0  0
  1  4  1  1  0  0  0
  2  5  1  0  0  0  0
  2  6  1  6  0  0  0
  3  4  1  0  0  0  0
  3  6  1  0  0  0  0
  4  7  1  0  0  0  0
  5  7  1  0  0  0  0
  5  8  1  1  0  0  0
  6  9  1  0  0  0  0
  7  9  1  1  0  0  0
  1 10  1  0  0  0  0
  1 11  1  0  0  0  0
  2 12  1  0  0  0  0
  2 13  1  0  0  0  0
  3 14  1  0  0  0  0
  4 15  1  0  0  0  0
  5 16  1  0  0  0  0
  6 17  1  0  0  0  0
  7 18  1  0  0  0  0
  8 19  1  0  0  0  0
  8 20  1  0  0  0  0
M  END
> <id>
EN300-725095

> <smiles>
N[C@@H]1C[C@@H]2O[C@H]1[C@H]3C[C@H]32.OC(=O)C(F)(F)F |&1:1,3,5,6,8,r|

> <IUPAC Name>
rac-(1R,2S,4R,5R,6S)-8-oxatricyclo[3.2.1.0,2,4]octan-6-amine; trifluoroacetic acid

> <CAS>
2138205-47-5

> <Purity>
95

> <URL>
https://www.enaminestore.com/catalog/EN300-725095

> <Saltdate>
OC(=O)C(F)(F)F

> <ROCS_ShapeQuery>
x1247relevant_x1083L0AP1_x1305L0BP1_

> <ROCS_TanimotoCombo>
0.816 

> <ROCS_ShapeTanimoto>
0.387 

> <ROCS_ColorTanimoto>
0.429 

> <ROCS_RefTversky>
0.331 

> <ROCS_RefColorTversky>
0.580 

> <ROCS_RefTverskyCombo>
0.910 

> <ROCS_FitTversky>
1.775 

> <ROCS_FitColorTversky>
0.623 

> <ROCS_FitTverskyCombo>
2.397 

> <ROCS_ColorScore>
-12.616

> <ROCS_Overlap>
969.792

> <ROCS_Rank>
234                 

$$$$
untitled-dbase-37935_0
  -OEChem-06162310163D

 20 22  0     1  0  0  0  0  0999 V2000
  -13.8358   16.2444  -39.8927 C   0  0  0  0  0  0  0  0  0  0  0  0
  -12.1459   15.1482  -36.6821 C   0  0  0  0  0  0  0  0  0  0  0  0
  -13.4186   16.3506  -38.4500 C   0  0  2  0  0  0  0  0  0  0  0  0
  -12.4192   15.9447  -39.4794 C   0  0  1  0  0  0  0  0  0  0  0  0
  -11.0922   14.7557  -37.7492 C   0  0  2  0  0  0  0  0  0  0  0  0
  -13.4389   15.1675  -37.5089 C   0  0  1  0  0  0  0  0  0  0  0  0
  -11.9762   14.5780  -39.0003 C   0  0  1  0  0  0  0  0  0  0  0  0
  -10.4252   13.5086  -37.3942 N   0  0  0  0  0  0  0  0  0  0  0  0
  -13.1810   14.0453  -38.3900 O   0  0  0  0  0  0  0  0  0  0  0  0
  -14.4779   15.4261  -40.1925 H   0  0  0  0  0  0  0  0  0  0  0  0
  -14.0150   17.1666  -40.4325 H   0  0  0  0  0  0  0  0  0  0  0  0
  -12.2148   14.3908  -35.8921 H   0  0  0  0  0  0  0  0  0  0  0  0
  -11.9225   16.1125  -36.2150 H   0  0  0  0  0  0  0  0  0  0  0  0
  -13.3438   17.3197  -37.9815 H   0  0  0  0  0  0  0  0  0  0  0  0
  -11.6257   16.6232  -39.7528 H   0  0  0  0  0  0  0  0  0  0  0  0
  -10.3425   15.5431  -37.8842 H   0  0  0  0  0  0  0  0  0  0  0  0
  -14.3634   15.0444  -36.9413 H   0  0  0  0  0  0  0  0  0  0  0  0
  -11.5880   13.9271  -39.7875 H   0  0  0  0  0  0  0  0  0  0  0  0
   -9.8038   13.2657  -38.1299 H   0  0  0  0  0  0  0  0  0  0  0  0
   -9.9253   13.6517  -36.5479 H   0  0  0  0  0  0  0  0  0  0  0  0
  1  3  1  1  0  0  0
  1  4  1  1  0  0  0
  2  5  1  0  0  0  0
  2  6  1  6  0  0  0
  3  4  1  0  0  0  0
  3  6  1  0  0  0  0
  4  7  1  0  0  0  0
  5  7  1  6  0  0  0
  5  8  1  0  0  0  0
  6  9  1  0  0  0  0
  7  9  1  0  0  0  0
  1 10  1  0  0  0  0
  1 11  1  0  0  0  0
  2 12  1  0  0  0  0
  2 13  1  0  0  0  0
  3 14  1  0  0  0  0
  4 15  1  0  0  0  0
  5 16  1  0  0  0  0
  6 17  1  0  0  0  0
  7 18  1  0  0  0  0
  8 19  1  0  0  0  0
  8 20  1  0  0  0  0
M  END
> <id>
EN300-1276310

> <smiles>
NC1C[C@@H]2O[C@H]1[C@H]3C[C@H]32 |&1:3,5,6,8,r|

> <IUPAC Name>
rac-(1R,2S,4R,5R)-8-oxatricyclo[3.2.1.0,2,4]octan-6-amine

> <CAS>
2228017-70-5

> <URL>
https://www.enaminestore.com/catalog/EN300-1276310

> <ROCS_ShapeQuery>
x1247relevant_x1083L0AP1_x1305L0BP1_

> <ROCS_TanimotoCombo>
0.815 

> <ROCS_ShapeTanimoto>
0.387 

> <ROCS_ColorTanimoto>
0.429 

> <ROCS_RefTversky>
0.331 

> <ROCS_RefColorTversky>
0.580 

> <ROCS_RefTverskyCombo>
0.910 

> <ROCS_FitTversky>
1.775 

> <ROCS_FitColorTversky>
0.623 

> <ROCS_FitTverskyCombo>
2.397 

> <ROCS_ColorScore>
-12.615

> <ROCS_Overlap>
969.695

> <ROCS_Rank>
235                 

$$$$
untitled-dbase-36299_0
  -OEChem-06162310163D

 26 27  0     1  0  0  0  0  0999 V2000
  -13.8076   16.3034  -37.3426 C   0  0  0  0  0  0  0  0  0  0  0  0
  -12.3938   16.8703  -37.5267 C   0  0  0  0  0  0  0  0  0  0  0  0
  -12.9173   13.9629  -37.2677 C   0  0  0  0  0  0  0  0  0  0  0  0
  -13.9070   14.9043  -37.9798 C   0  0  2  0  0  0  0  0  0  0  0  0
  -11.4847   15.8216  -38.2034 C   0  0  1  0  0  0  0  0  0  0  0  0
  -11.4928   14.5577  -37.3080 C   0  0  2  0  0  0  0  0  0  0  0  0
  -13.5149   14.9913  -39.4718 C   0  0  2  0  0  0  0  0  0  0  0  0
  -12.0554   15.4790  -39.6009 C   0  0  1  0  0  0  0  0  0  0  0  0
  -10.5338   13.5563  -37.7701 N   0  0  0  0  0  0  0  0  0  0  0  0
  -14.4088   15.8523  -40.1674 O   0  0  0  0  0  0  0  0  0  0  0  0
  -11.9329   16.5908  -40.4800 O   0  0  0  0  0  0  0  0  0  0  0  0
  -14.0448   16.2442  -36.2733 H   0  0  0  0  0  0  0  0  0  0  0  0
  -14.5429   16.9861  -37.7840 H   0  0  0  0  0  0  0  0  0  0  0  0
  -12.4358   17.7862  -38.1278 H   0  0  0  0  0  0  0  0  0  0  0  0
  -11.9812   17.1595  -36.5526 H   0  0  0  0  0  0  0  0  0  0  0  0
  -13.2200   13.8149  -36.2234 H   0  0  0  0  0  0  0  0  0  0  0  0
  -12.9572   12.9722  -37.7388 H   0  0  0  0  0  0  0  0  0  0  0  0
  -14.9333   14.5334  -37.8788 H   0  0  0  0  0  0  0  0  0  0  0  0
  -10.4744   16.2387  -38.2956 H   0  0  0  0  0  0  0  0  0  0  0  0
  -11.2015   14.8425  -36.2886 H   0  0  0  0  0  0  0  0  0  0  0  0
  -13.6015   13.9978  -39.9262 H   0  0  0  0  0  0  0  0  0  0  0  0
  -11.4487   14.6653  -40.0418 H   0  0  0  0  0  0  0  0  0  0  0  0
   -9.6296   13.9643  -37.7564 H   0  0  0  0  0  0  0  0  0  0  0  0
  -10.5784   12.7791  -37.1550 H   0  0  0  0  0  0  0  0  0  0  0  0
  -14.1169   15.8692  -41.0930 H   0  0  0  0  0  0  0  0  0  0  0  0
  -12.4354   17.3186  -40.0805 H   0  0  0  0  0  0  0  0  0  0  0  0
  1  2  1  0  0  0  0
  1  4  1  0  0  0  0
  2  5  1  1  0  0  0
  3  4  1  6  0  0  0
  3  6  1  0  0  0  0
  4  7  1  0  0  0  0
  5  6  1  0  0  0  0
  5  8  1  0  0  0  0
  6  9  1  6  0  0  0
  7  8  1  0  0  0  0
  7 10  1  1  0  0  0
  8 11  1  1  0  0  0
  1 12  1  0  0  0  0
  1 13  1  0  0  0  0
  2 14  1  0  0  0  0
  2 15  1  0  0  0  0
  3 16  1  0  0  0  0
  3 17  1  0  0  0  0
  4 18  1  0  0  0  0
  5 19  1  0  0  0  0
  6 20  1  0  0  0  0
  7 21  1  0  0  0  0
  8 22  1  0  0  0  0
  9 23  1  0  0  0  0
  9 24  1  0  0  0  0
 10 25  1  0  0  0  0
 11 26  1  0  0  0  0
M  END
> <id>
EN300-26990236

> <smiles>
Cl.N[C@@H]1C[C@H]2CC[C@@H]1[C@H](O)[C@@H]2O |&1:2,4,7,8,10,r|

> <IUPAC Name>
rac-(1R,2R,3S,4S,5R)-5-aminobicyclo[2.2.2]octane-2,3-diol hydrochloride

> <CAS>
2460740-54-7

> <Purity>
95

> <URL>
https://www.enaminestore.com/catalog/EN300-26990236

> <Saltdate>
Cl

> <ROCS_ShapeQuery>
x1247relevant_x1083L0AP1_x1305L0BP1_

> <ROCS_TanimotoCombo>
0.815 

> <ROCS_ShapeTanimoto>
0.415 

> <ROCS_ColorTanimoto>
0.400 

> <ROCS_RefTversky>
0.354 

> <ROCS_RefColorTversky>
0.453 

> <ROCS_RefTverskyCombo>
0.806 

> <ROCS_FitTversky>
1.718 

> <ROCS_FitColorTversky>
0.775 

> <ROCS_FitTverskyCombo>
2.493 

> <ROCS_ColorScore>
-9.667

> <ROCS_Overlap>
1038.391

> <ROCS_Rank>
236                 

$$$$
untitled-dbase-25211_0
  -OEChem-06162310163D

 26 27  0     1  0  0  0  0  0999 V2000
  -13.8076   16.3034  -37.3426 C   0  0  0  0  0  0  0  0  0  0  0  0
  -12.3938   16.8703  -37.5267 C   0  0  0  0  0  0  0  0  0  0  0  0
  -12.9173   13.9629  -37.2677 C   0  0  0  0  0  0  0  0  0  0  0  0
  -13.9070   14.9043  -37.9798 C   0  0  2  0  0  0  0  0  0  0  0  0
  -11.4847   15.8216  -38.2034 C   0  0  1  0  0  0  0  0  0  0  0  0
  -11.4928   14.5577  -37.3080 C   0  0  2  0  0  0  0  0  0  0  0  0
  -13.5149   14.9913  -39.4718 C   0  0  2  0  0  0  0  0  0  0  0  0
  -12.0554   15.4790  -39.6009 C   0  0  1  0  0  0  0  0  0  0  0  0
  -10.5338   13.5563  -37.7701 N   0  0  0  0  0  0  0  0  0  0  0  0
  -14.4088   15.8523  -40.1674 O   0  0  0  0  0  0  0  0  0  0  0  0
  -11.9329   16.5908  -40.4800 O   0  0  0  0  0  0  0  0  0  0  0  0
  -14.0448   16.2442  -36.2733 H   0  0  0  0  0  0  0  0  0  0  0  0
  -14.5429   16.9861  -37.7840 H   0  0  0  0  0  0  0  0  0  0  0  0
  -12.4358   17.7862  -38.1278 H   0  0  0  0  0  0  0  0  0  0  0  0
  -11.9812   17.1595  -36.5526 H   0  0  0  0  0  0  0  0  0  0  0  0
  -13.2200   13.8149  -36.2234 H   0  0  0  0  0  0  0  0  0  0  0  0
  -12.9572   12.9722  -37.7388 H   0  0  0  0  0  0  0  0  0  0  0  0
  -14.9333   14.5334  -37.8788 H   0  0  0  0  0  0  0  0  0  0  0  0
  -10.4744   16.2387  -38.2956 H   0  0  0  0  0  0  0  0  0  0  0  0
  -11.2015   14.8425  -36.2886 H   0  0  0  0  0  0  0  0  0  0  0  0
  -13.6015   13.9978  -39.9262 H   0  0  0  0  0  0  0  0  0  0  0  0
  -11.4487   14.6653  -40.0418 H   0  0  0  0  0  0  0  0  0  0  0  0
   -9.6296   13.9643  -37.7564 H   0  0  0  0  0  0  0  0  0  0  0  0
  -10.5784   12.7791  -37.1550 H   0  0  0  0  0  0  0  0  0  0  0  0
  -14.1169   15.8692  -41.0930 H   0  0  0  0  0  0  0  0  0  0  0  0
  -12.4354   17.3186  -40.0805 H   0  0  0  0  0  0  0  0  0  0  0  0
  1  2  1  0  0  0  0
  1  4  1  0  0  0  0
  2  5  1  1  0  0  0
  3  4  1  6  0  0  0
  3  6  1  0  0  0  0
  4  7  1  0  0  0  0
  5  6  1  0  0  0  0
  5  8  1  0  0  0  0
  6  9  1  6  0  0  0
  7  8  1  0  0  0  0
  7 10  1  1  0  0  0
  8 11  1  1  0  0  0
  1 12  1  0  0  0  0
  1 13  1  0  0  0  0
  2 14  1  0  0  0  0
  2 15  1  0  0  0  0
  3 16  1  0  0  0  0
  3 17  1  0  0  0  0
  4 18  1  0  0  0  0
  5 19  1  0  0  0  0
  6 20  1  0  0  0  0
  7 21  1  0  0  0  0
  8 22  1  0  0  0  0
  9 23  1  0  0  0  0
  9 24  1  0  0  0  0
 10 25  1  0  0  0  0
 11 26  1  0  0  0  0
M  END
> <id>
EN300-26990237

> <smiles>
N[C@@H]1C[C@H]2CC[C@@H]1[C@H](O)[C@@H]2O |&1:1,3,6,7,9,r|

> <IUPAC Name>
rac-(1R,2R,3S,4S,5R)-5-aminobicyclo[2.2.2]octane-2,3-diol

> <CAS>
2460739-56-2

> <URL>
https://www.enaminestore.com/catalog/EN300-26990237

> <ROCS_ShapeQuery>
x1247relevant_x1083L0AP1_x1305L0BP1_

> <ROCS_TanimotoCombo>
0.815 

> <ROCS_ShapeTanimoto>
0.415 

> <ROCS_ColorTanimoto>
0.400 

> <ROCS_RefTversky>
0.354 

> <ROCS_RefColorTversky>
0.453 

> <ROCS_RefTverskyCombo>
0.806 

> <ROCS_FitTversky>
1.718 

> <ROCS_FitColorTversky>
0.775 

> <ROCS_FitTverskyCombo>
2.493 

> <ROCS_ColorScore>
-9.667

> <ROCS_Overlap>
1038.391

> <ROCS_Rank>
237                 

$$$$
untitled-dbase-48994_0
  -OEChem-06162310163D

 32 34  0     1  0  0  0  0  0999 V2000
  -10.6336   15.6371  -36.3741 C   0  0  0  0  0  0  0  0  0  0  0  0
   -9.2734   15.0973  -36.0391 C   0  0  0  0  0  0  0  0  0  0  0  0
  -13.6071   15.9171  -37.2440 C   0  0  0  0  0  0  0  0  0  0  0  0
  -13.4027   13.8051  -38.4684 C   0  0  0  0  0  0  0  0  0  0  0  0
   -9.1029   14.0513  -37.1252 C   0  0  0  0  0  0  0  0  0  0  0  0
  -13.2087   16.7246  -38.4851 C   0  0  0  0  0  0  0  0  0  0  0  0
  -13.2119   14.6643  -39.7304 C   0  0  0  0  0  0  0  0  0  0  0  0
  -11.1500   15.5222  -38.8360 C   0  0  0  0  0  0  0  0  0  0  0  0
  -12.8503   14.5711  -37.2437 C   0  0  0  0  0  0  0  0  0  0  0  0
  -11.3253   14.7969  -37.4619 C   0  0  2  0  0  0  0  0  0  0  0  0
  -10.8703   12.5464  -36.4934 C   0  0  0  0  0  0  0  0  0  0  0  0
  -12.4490   15.8987  -39.4442 N   0  0  0  0  0  0  0  0  0  0  0  0
  -10.4617   13.5752  -37.4572 N   0  0  2  0  0  0  0  0  0  0  0  0
  -11.0897   16.6400  -35.8415 O   0  0  0  0  0  0  0  0  0  0  0  0
   -8.5150   15.8804  -36.1060 H   0  0  0  0  0  0  0  0  0  0  0  0
   -9.2977   14.6556  -35.0392 H   0  0  0  0  0  0  0  0  0  0  0  0
  -13.4170   16.4907  -36.3326 H   0  0  0  0  0  0  0  0  0  0  0  0
  -14.6888   15.7293  -37.2583 H   0  0  0  0  0  0  0  0  0  0  0  0
  -14.4685   13.5881  -38.3267 H   0  0  0  0  0  0  0  0  0  0  0  0
  -12.9002   12.8415  -38.5986 H   0  0  0  0  0  0  0  0  0  0  0  0
   -8.6559   14.5073  -38.0177 H   0  0  0  0  0  0  0  0  0  0  0  0
   -8.4241   13.2465  -36.8210 H   0  0  0  0  0  0  0  0  0  0  0  0
  -14.1065   17.1263  -38.9707 H   0  0  0  0  0  0  0  0  0  0  0  0
  -12.6141   17.6001  -38.1955 H   0  0  0  0  0  0  0  0  0  0  0  0
  -12.6972   14.0810  -40.5040 H   0  0  0  0  0  0  0  0  0  0  0  0
  -14.1877   14.9240  -40.1598 H   0  0  0  0  0  0  0  0  0  0  0  0
  -10.5299   16.4230  -38.7361 H   0  0  0  0  0  0  0  0  0  0  0  0
  -10.6164   14.8883  -39.5578 H   0  0  0  0  0  0  0  0  0  0  0  0
  -13.0669   14.0388  -36.3120 H   0  0  0  0  0  0  0  0  0  0  0  0
  -11.8819   12.1923  -36.7411 H   0  0  0  0  0  0  0  0  0  0  0  0
  -10.1658   11.7027  -36.5371 H   0  0  0  0  0  0  0  0  0  0  0  0
  -10.8693   12.9729  -35.4795 H   0  0  0  0  0  0  0  0  0  0  0  0
  1  2  1  0  0  0  0
  1 10  1  0  0  0  0
  1 14  2  0  0  0  0
  2  5  1  0  0  0  0
  3  6  1  0  0  0  0
  3  9  1  0  0  0  0
  4  7  1  0  0  0  0
  4  9  1  0  0  0  0
  5 13  1  0  0  0  0
  6 12  1  0  0  0  0
  7 12  1  0  0  0  0
  8 10  1  0  0  0  0
  8 12  1  0  0  0  0
  9 10  1  0  0  0  0
 10 13  1  0  0  0  0
 11 13  1  0  0  0  0
  2 15  1  0  0  0  0
  2 16  1  0  0  0  0
  3 17  1  0  0  0  0
  3 18  1  0  0  0  0
  4 19  1  0  0  0  0
  4 20  1  0  0  0  0
  5 21  1  0  0  0  0
  5 22  1  0  0  0  0
  6 23  1  0  0  0  0
  6 24  1  0  0  0  0
  7 25  1  0  0  0  0
  7 26  1  0  0  0  0
  8 27  1  0  0  0  0
  8 28  1  0  0  0  0
  9 29  1  0  0  0  0
 11 30  1  0  0  0  0
 11 31  1  0  0  0  0
 11 32  1  0  0  0  0
M  END
> <id>
EN300-785409

> <smiles>
CN1CCC(=O)C21CN3CCC2CC3

> <IUPAC Name>
1'-methyl-4-azaspiro[bicyclo[2.2.2]octane-2,2'-pyrrolidine]-3'-one

> <CAS>
2137630-75-0

> <URL>
https://www.enaminestore.com/catalog/EN300-785409

> <ROCS_ShapeQuery>
x1247relevant_x1083L0AP1_x1305L0BP1_

> <ROCS_TanimotoCombo>
0.815 

> <ROCS_ShapeTanimoto>
0.495 

> <ROCS_ColorTanimoto>
0.320 

> <ROCS_RefTversky>
0.416 

> <ROCS_RefColorTversky>
0.364 

> <ROCS_RefTverskyCombo>
0.780 

> <ROCS_FitTversky>
1.620 

> <ROCS_FitColorTversky>
0.726 

> <ROCS_FitTverskyCombo>
2.346 

> <ROCS_ColorScore>
-7.746

> <ROCS_Overlap>
1224.088

> <ROCS_Rank>
238                 

$$$$
untitled-dbase-5380_0
  -OEChem-06162310163D

 21 23  0     1  0  0  0  0  0999 V2000
  -11.0872   14.8027  -36.9550 C   0  0  0  0  0  0  0  0  0  0  0  0
  -13.3990   15.7773  -37.0646 C   0  0  0  0  0  0  0  0  0  0  0  0
  -13.9289   14.6963  -39.1120 C   0  0  0  0  0  0  0  0  0  0  0  0
  -12.5474   14.4988  -37.1415 C   0  0  1  0  0  0  0  0  0  0  0  0
  -13.6464   16.0942  -38.5529 C   0  0  2  0  0  0  0  0  0  0  0  0
  -12.6092   14.1274  -38.6236 C   0  0  2  0  0  0  0  0  0  0  0  0
  -11.5526   15.0855  -39.1726 C   0  0  1  0  0  0  0  0  0  0  0  0
  -12.2958   16.4371  -39.2199 C   0  0  1  0  0  0  0  0  0  0  0  0
  -10.4907   14.8242  -35.8903 O   0  0  0  0  0  0  0  0  0  0  0  0
  -10.5310   15.1012  -38.1706 O   0  0  0  0  0  0  0  0  0  0  0  0
  -12.5239   16.8323  -40.5654 O   0  0  0  0  0  0  0  0  0  0  0  0
  -14.3504   15.5644  -36.5634 H   0  0  0  0  0  0  0  0  0  0  0  0
  -12.9057   16.6012  -36.5389 H   0  0  0  0  0  0  0  0  0  0  0  0
  -14.7982   14.2178  -38.6494 H   0  0  0  0  0  0  0  0  0  0  0  0
  -14.0303   14.6735  -40.2014 H   0  0  0  0  0  0  0  0  0  0  0  0
  -12.8871   13.6992  -36.4796 H   0  0  0  0  0  0  0  0  0  0  0  0
  -14.4411   16.8197  -38.7387 H   0  0  0  0  0  0  0  0  0  0  0  0
  -12.4139   13.0727  -38.8294 H   0  0  0  0  0  0  0  0  0  0  0  0
  -11.1423   14.7724  -40.1372 H   0  0  0  0  0  0  0  0  0  0  0  0
  -11.7700   17.2449  -38.6997 H   0  0  0  0  0  0  0  0  0  0  0  0
  -11.6557   17.0385  -40.9484 H   0  0  0  0  0  0  0  0  0  0  0  0
  1  4  1  0  0  0  0
  1  9  2  0  0  0  0
  1 10  1  0  0  0  0
  2  4  1  0  0  0  0
  2  5  1  0  0  0  0
  3  5  1  0  0  0  0
  3  6  1  0  0  0  0
  4  6  1  0  0  0  0
  5  8  1  0  0  0  0
  6  7  1  0  0  0  0
  7  8  1  0  0  0  0
  7 10  1  0  0  0  0
  8 11  1  0  0  0  0
  2 12  1  0  0  0  0
  2 13  1  0  0  0  0
  3 14  1  0  0  0  0
  3 15  1  0  0  0  0
  4 16  1  0  0  0  0
  5 17  1  0  0  0  0
  6 18  1  0  0  0  0
  7 19  1  0  0  0  0
  8 20  1  0  0  0  0
 11 21  1  0  0  0  0
M  END
> <id>
EN300-214446

> <smiles>
OC1C2CC3C(C2)C(=O)OC13

> <MDLNUMBER>
MFCD00988184

> <IUPAC Name>
2-hydroxy-4-oxatricyclo[4.2.1.0,3,7]nonan-5-one

> <CAS>
92343-46-9

> <Purity>
95

> <URL>
https://www.enaminestore.com/catalog/EN300-214446

> <MP>
158-159

> <ROCS_ShapeQuery>
x1247relevant_x1083L0AP1_x1305L0BP1_

> <ROCS_TanimotoCombo>
0.815 

> <ROCS_ShapeTanimoto>
0.460 

> <ROCS_ColorTanimoto>
0.355 

> <ROCS_RefTversky>
0.385 

> <ROCS_RefColorTversky>
0.456 

> <ROCS_RefTverskyCombo>
0.841 

> <ROCS_FitTversky>
1.749 

> <ROCS_FitColorTversky>
0.614 

> <ROCS_FitTverskyCombo>
2.363 

> <ROCS_ColorScore>
-9.832

> <ROCS_Overlap>
1129.362

> <ROCS_Rank>
239                 

$$$$
untitled-dbase-4816_0
  -OEChem-06162310163D

 24 26  0     1  0  0  0  0  0999 V2000
   -9.0803   14.2437  -37.1156 C   0  0  0  0  0  0  0  0  0  0  0  0
   -9.6078   14.7938  -35.9370 C   0  0  0  0  0  0  0  0  0  0  0  0
   -9.8439   14.1914  -38.2836 C   0  0  0  0  0  0  0  0  0  0  0  0
  -10.9079   15.3021  -35.9057 C   0  0  0  0  0  0  0  0  0  0  0  0
  -11.1357   14.6945  -38.2528 C   0  0  0  0  0  0  0  0  0  0  0  0
  -11.6661   15.2497  -37.0653 C   0  0  0  0  0  0  0  0  0  0  0  0
  -12.5766   16.1839  -39.5875 C   0  0  0  0  0  0  0  0  0  0  0  0
  -13.3684   13.9322  -38.9699 C   0  0  0  0  0  0  0  0  0  0  0  0
  -13.9410   14.5336  -37.6538 C   0  0  0  0  0  0  0  0  0  0  0  0
  -12.1150   14.7271  -39.4124 C   0  0  2  0  0  0  0  0  0  0  0  0
  -13.0864   15.7495  -37.2373 C   0  0  2  0  0  0  0  0  0  0  0  0
  -13.0823   16.6747  -38.3739 N   0  0  0  0  0  0  0  0  0  0  0  0
  -12.5086   16.8055  -40.6401 O   0  0  0  0  0  0  0  0  0  0  0  0
   -8.0657   13.8543  -37.1176 H   0  0  0  0  0  0  0  0  0  0  0  0
   -8.9959   14.8246  -35.0393 H   0  0  0  0  0  0  0  0  0  0  0  0
   -9.4292   13.7645  -39.1907 H   0  0  0  0  0  0  0  0  0  0  0  0
  -11.3091   15.7272  -34.9917 H   0  0  0  0  0  0  0  0  0  0  0  0
  -13.1206   12.8753  -38.8122 H   0  0  0  0  0  0  0  0  0  0  0  0
  -14.1374   13.9719  -39.7509 H   0  0  0  0  0  0  0  0  0  0  0  0
  -14.9858   14.8310  -37.8044 H   0  0  0  0  0  0  0  0  0  0  0  0
  -13.9355   13.7679  -36.8681 H   0  0  0  0  0  0  0  0  0  0  0  0
  -11.6838   14.3418  -40.3403 H   0  0  0  0  0  0  0  0  0  0  0  0
  -13.4725   16.2588  -36.3502 H   0  0  0  0  0  0  0  0  0  0  0  0
  -13.4287   17.6251  -38.2874 H   0  0  0  0  0  0  0  0  0  0  0  0
  1  2  2  0  0  0  0
  1  3  1  0  0  0  0
  2  4  1  0  0  0  0
  3  5  2  0  0  0  0
  4  6  2  0  0  0  0
  5  6  1  0  0  0  0
  5 10  1  0  0  0  0
  6 11  1  0  0  0  0
  7 10  1  0  0  0  0
  7 12  1  0  0  0  0
  7 13  2  0  0  0  0
  8  9  1  0  0  0  0
  8 10  1  0  0  0  0
  9 11  1  0  0  0  0
 11 12  1  0  0  0  0
  1 14  1  0  0  0  0
  2 15  1  0  0  0  0
  3 16  1  0  0  0  0
  4 17  1  0  0  0  0
  8 18  1  0  0  0  0
  8 19  1  0  0  0  0
  9 20  1  0  0  0  0
  9 21  1  0  0  0  0
 10 22  1  0  0  0  0
 11 23  1  0  0  0  0
 12 24  1  0  0  0  0
M  END
> <id>
EN300-203744

> <smiles>
O=C1NC2CCC1C=3C=CC=CC23

> <MDLNUMBER>
MFCD24551084

> <IUPAC Name>
9-azatricyclo[6.2.2.0,2,7]dodeca-2,4,6-trien-10-one

> <CAS>
3118-16-9

> <Purity>
95

> <URL>
https://www.enaminestore.com/catalog/EN300-203744

> <ROCS_ShapeQuery>
x1247relevant_x1083L0AP1_x1305L0BP1_

> <ROCS_TanimotoCombo>
0.815 

> <ROCS_ShapeTanimoto>
0.483 

> <ROCS_ColorTanimoto>
0.332 

> <ROCS_RefTversky>
0.406 

> <ROCS_RefColorTversky>
0.364 

> <ROCS_RefTverskyCombo>
0.770 

> <ROCS_FitTversky>
1.644 

> <ROCS_FitColorTversky>
0.793 

> <ROCS_FitTverskyCombo>
2.437 

> <ROCS_ColorScore>
-7.721

> <ROCS_Overlap>
1193.701

> <ROCS_Rank>
240                 

$$$$
untitled-dbase-35316_0
  -OEChem-06162310163D

 43 45  0     1  0  0  0  0  0999 V2000
  -12.0315   14.8809  -39.7979 C   0  0  0  0  0  0  0  0  0  0  0  0
  -12.3703   16.8238  -38.3064 C   0  0  0  0  0  0  0  0  0  0  0  0
  -13.4810   14.4920  -39.4657 C   0  0  0  0  0  0  0  0  0  0  0  0
  -13.7391   16.2802  -37.8742 C   0  0  0  0  0  0  0  0  0  0  0  0
   -9.0952   13.9175  -37.4625 C   0  0  0  0  0  0  0  0  0  0  0  0
  -12.8519   14.1488  -37.1713 C   0  0  0  0  0  0  0  0  0  0  0  0
   -9.7500   15.8861  -36.0635 C   0  0  0  0  0  0  0  0  0  0  0  0
  -11.4268   15.6396  -38.6022 C   0  0  0  0  0  0  0  0  0  0  0  0
   -8.7924   14.7019  -36.1826 C   0  0  2  0  0  0  0  0  0  0  0  0
  -11.4010   14.6998  -37.3548 C   0  0  2  0  0  0  0  0  0  0  0  0
   -6.4022   13.9467  -36.2421 C   0  0  0  0  0  0  0  0  0  0  0  0
   -7.0607   15.9147  -34.8350 C   0  0  0  0  0  0  0  0  0  0  0  0
   -7.0630   16.1045  -37.3350 C   0  0  0  0  0  0  0  0  0  0  0  0
   -7.3395   15.1638  -36.1489 C   0  0  0  0  0  0  0  0  0  0  0  0
  -10.5066   13.5363  -37.5147 N   0  0  0  0  0  0  0  0  0  0  0  0
  -13.8285   14.8184  -38.0650 N   0  0  0  0  0  0  0  0  0  0  0  0
  -11.1037   15.4429  -36.1546 O   0  0  0  0  0  0  0  0  0  0  0  0
  -11.4425   13.9958  -40.0572 H   0  0  0  0  0  0  0  0  0  0  0  0
  -12.0248   15.5267  -40.6849 H   0  0  0  0  0  0  0  0  0  0  0  0
  -12.4805   17.4438  -39.2047 H   0  0  0  0  0  0  0  0  0  0  0  0
  -11.9577   17.4706  -37.5243 H   0  0  0  0  0  0  0  0  0  0  0  0
  -14.1744   15.0003  -40.1476 H   0  0  0  0  0  0  0  0  0  0  0  0
  -13.6280   13.4195  -39.6442 H   0  0  0  0  0  0  0  0  0  0  0  0
  -13.9298   16.5288  -36.8226 H   0  0  0  0  0  0  0  0  0  0  0  0
  -14.5336   16.7787  -38.4432 H   0  0  0  0  0  0  0  0  0  0  0  0
   -8.8196   14.4948  -38.3527 H   0  0  0  0  0  0  0  0  0  0  0  0
   -8.4887   13.0048  -37.4831 H   0  0  0  0  0  0  0  0  0  0  0  0
  -12.9038   13.0689  -37.3677 H   0  0  0  0  0  0  0  0  0  0  0  0
  -13.1822   14.2657  -36.1307 H   0  0  0  0  0  0  0  0  0  0  0  0
   -9.6301   16.3724  -35.0894 H   0  0  0  0  0  0  0  0  0  0  0  0
   -9.5562   16.6473  -36.8271 H   0  0  0  0  0  0  0  0  0  0  0  0
  -10.4356   16.0266  -38.8576 H   0  0  0  0  0  0  0  0  0  0  0  0
   -8.9659   14.0330  -35.3285 H   0  0  0  0  0  0  0  0  0  0  0  0
   -5.3488   14.2475  -36.2203 H   0  0  0  0  0  0  0  0  0  0  0  0
   -6.5711   13.3912  -37.1715 H   0  0  0  0  0  0  0  0  0  0  0  0
   -6.5695   13.2575  -35.4069 H   0  0  0  0  0  0  0  0  0  0  0  0
   -6.0202   16.2557  -34.7907 H   0  0  0  0  0  0  0  0  0  0  0  0
   -7.7046   16.7964  -34.7424 H   0  0  0  0  0  0  0  0  0  0  0  0
   -7.2401   15.2777  -33.9616 H   0  0  0  0  0  0  0  0  0  0  0  0
   -6.0225   16.4484  -37.3292 H   0  0  0  0  0  0  0  0  0  0  0  0
   -7.7071   16.9904  -37.3046 H   0  0  0  0  0  0  0  0  0  0  0  0
   -7.2405   15.5958  -38.2893 H   0  0  0  0  0  0  0  0  0  0  0  0
  -10.7012   13.0361  -38.3790 H   0  0  0  0  0  0  0  0  0  0  0  0
  1  3  1  0  0  0  0
  1  8  1  0  0  0  0
  2  4  1  0  0  0  0
  2  8  1  0  0  0  0
  3 16  1  0  0  0  0
  4 16  1  0  0  0  0
  5  9  1  0  0  0  0
  5 15  1  0  0  0  0
  6 10  1  0  0  0  0
  6 16  1  0  0  0  0
  7  9  1  0  0  0  0
  7 17  1  0  0  0  0
  8 10  1  0  0  0  0
  9 14  1  0  0  0  0
 10 15  1  0  0  0  0
 10 17  1  0  0  0  0
 11 14  1  0  0  0  0
 12 14  1  0  0  0  0
 13 14  1  0  0  0  0
  1 18  1  0  0  0  0
  1 19  1  0  0  0  0
  2 20  1  0  0  0  0
  2 21  1  0  0  0  0
  3 22  1  0  0  0  0
  3 23  1  0  0  0  0
  4 24  1  0  0  0  0
  4 25  1  0  0  0  0
  5 26  1  0  0  0  0
  5 27  1  0  0  0  0
  6 28  1  0  0  0  0
  6 29  1  0  0  0  0
  7 30  1  0  0  0  0
  7 31  1  0  0  0  0
  8 32  1  0  0  0  0
  9 33  1  0  0  0  0
 11 34  1  0  0  0  0
 11 35  1  0  0  0  0
 11 36  1  0  0  0  0
 12 37  1  0  0  0  0
 12 38  1  0  0  0  0
 12 39  1  0  0  0  0
 13 40  1  0  0  0  0
 13 41  1  0  0  0  0
 13 42  1  0  0  0  0
 15 43  1  0  0  0  0
M  END
> <id>
EN300-1279305

> <smiles>
CC(C)(C)C1CNC2(CN3CCC2CC3)OC1

> <IUPAC Name>
5'-tert-butyl-4-azaspiro[bicyclo[2.2.2]octane-2,2'-[1,3]oxazinane]

> <CAS>
2172201-69-1

> <URL>
https://www.enaminestore.com/catalog/EN300-1279305

> <ROCS_ShapeQuery>
x1247relevant_x1083L0AP1_x1305L0BP1_

> <ROCS_TanimotoCombo>
0.814 

> <ROCS_ShapeTanimoto>
0.466 

> <ROCS_ColorTanimoto>
0.349 

> <ROCS_RefTversky>
0.411 

> <ROCS_RefColorTversky>
0.411 

> <ROCS_RefTverskyCombo>
0.822 

> <ROCS_FitTversky>
1.397 

> <ROCS_FitColorTversky>
0.698 

> <ROCS_FitTverskyCombo>
2.095 

> <ROCS_ColorScore>
-8.770

> <ROCS_Overlap>
1213.145

> <ROCS_Rank>
241                 

$$$$
untitled-dbase-39960_3
  -OEChem-06162310163D

 35 38  0     1  0  0  0  0  0999 V2000
   -9.0763   16.5912  -34.9038 C   0  0  0  0  0  0  0  0  0  0  0  0
  -10.2050   17.3767  -35.0088 C   0  0  0  0  0  0  0  0  0  0  0  0
   -9.2820   15.5034  -35.7787 C   0  0  0  0  0  0  0  0  0  0  0  0
  -10.5213   15.6980  -36.3476 C   0  0  0  0  0  0  0  0  0  0  0  0
   -8.4574   14.3212  -36.1220 C   0  0  0  0  0  0  0  0  0  0  0  0
  -13.2042   14.8862  -40.0451 C   0  0  0  0  0  0  0  0  0  0  0  0
  -14.1194   14.3297  -38.9565 C   0  0  0  0  0  0  0  0  0  0  0  0
  -13.3820   16.4957  -38.2870 C   0  0  0  0  0  0  0  0  0  0  0  0
  -11.1081   15.5169  -38.7740 C   0  0  0  0  0  0  0  0  0  0  0  0
  -12.6590   14.5076  -36.8995 C   0  0  0  0  0  0  0  0  0  0  0  0
   -8.9853   13.6775  -37.4224 C   0  0  0  0  0  0  0  0  0  0  0  0
  -12.4271   16.0293  -39.3748 C   0  0  1  0  0  0  0  0  0  0  0  0
  -13.8002   15.1555  -37.7018 C   0  0  2  0  0  0  0  0  0  0  0  0
  -11.2065   14.8291  -37.3763 C   0  0  0  0  0  0  0  0  0  0  0  0
  -10.4579   13.5273  -37.4273 N   0  0  0  0  0  0  0  0  0  0  0  0
  -11.0923   16.8405  -35.8927 O   0  0  0  0  0  0  0  0  0  0  0  0
   -8.2216   16.7838  -34.2716 H   0  0  0  0  0  0  0  0  0  0  0  0
  -10.5154   18.3007  -34.5432 H   0  0  0  0  0  0  0  0  0  0  0  0
   -7.4166   14.6379  -36.2625 H   0  0  0  0  0  0  0  0  0  0  0  0
   -8.4769   13.5857  -35.3103 H   0  0  0  0  0  0  0  0  0  0  0  0
  -12.5512   14.1274  -40.4875 H   0  0  0  0  0  0  0  0  0  0  0  0
  -13.8181   15.2879  -40.8619 H   0  0  0  0  0  0  0  0  0  0  0  0
  -15.1656   14.4895  -39.2475 H   0  0  0  0  0  0  0  0  0  0  0  0
  -13.9963   13.2532  -38.8012 H   0  0  0  0  0  0  0  0  0  0  0  0
  -12.9123   17.1608  -37.5537 H   0  0  0  0  0  0  0  0  0  0  0  0
  -14.2433   17.0209  -38.7197 H   0  0  0  0  0  0  0  0  0  0  0  0
  -10.6150   14.8434  -39.4987 H   0  0  0  0  0  0  0  0  0  0  0  0
  -10.4250   16.3834  -38.7104 H   0  0  0  0  0  0  0  0  0  0  0  0
  -12.7729   14.8329  -35.8489 H   0  0  0  0  0  0  0  0  0  0  0  0
  -12.8238   13.4173  -36.8598 H   0  0  0  0  0  0  0  0  0  0  0  0
   -8.6952   14.3023  -38.2735 H   0  0  0  0  0  0  0  0  0  0  0  0
   -8.5097   12.7041  -37.5817 H   0  0  0  0  0  0  0  0  0  0  0  0
  -12.2084   16.8202  -40.1047 H   0  0  0  0  0  0  0  0  0  0  0  0
  -14.6898   15.2390  -37.0645 H   0  0  0  0  0  0  0  0  0  0  0  0
  -10.7155   13.0306  -38.2778 H   0  0  0  0  0  0  0  0  0  0  0  0
  1  2  2  0  0  0  0
  1  3  1  0  0  0  0
  2 16  1  0  0  0  0
  3  4  2  0  0  0  0
  3  5  1  0  0  0  0
  4 14  1  0  0  0  0
  4 16  1  0  0  0  0
  5 11  1  0  0  0  0
  6  7  1  0  0  0  0
  6 12  1  6  0  0  0
  7 13  1  6  0  0  0
  8 12  1  0  0  0  0
  8 13  1  0  0  0  0
  9 12  1  0  0  0  0
  9 14  1  0  0  0  0
 10 13  1  0  0  0  0
 10 14  1  0  0  0  0
 11 15  1  0  0  0  0
 14 15  1  0  0  0  0
  1 17  1  0  0  0  0
  2 18  1  0  0  0  0
  5 19  1  0  0  0  0
  5 20  1  0  0  0  0
  6 21  1  0  0  0  0
  6 22  1  0  0  0  0
  7 23  1  0  0  0  0
  7 24  1  0  0  0  0
  8 25  1  0  0  0  0
  8 26  1  0  0  0  0
  9 27  1  0  0  0  0
  9 28  1  0  0  0  0
 10 29  1  0  0  0  0
 10 30  1  0  0  0  0
 11 31  1  0  0  0  0
 11 32  1  0  0  0  0
 12 33  1  0  0  0  0
 13 34  1  0  0  0  0
 15 35  1  0  0  0  0
M  END
> <id>
EN300-1075923

> <smiles>
C1C[C@@H]2C[C@H]1CC3(C2)NCCC=4C=COC43

> <IUPAC Name>
(1S,5R)-5',6'-dihydro-4'H-spiro[bicyclo[3.2.1]octane-3,7'-furo[2,3-c]pyridine]

> <URL>
https://www.enaminestore.com/catalog/EN300-1075923

> <ROCS_ShapeQuery>
x1247relevant_x1083L0AP1_x1305L0BP1_

> <ROCS_TanimotoCombo>
0.814 

> <ROCS_ShapeTanimoto>
0.471 

> <ROCS_ColorTanimoto>
0.343 

> <ROCS_RefTversky>
0.413 

> <ROCS_RefColorTversky>
0.391 

> <ROCS_RefTverskyCombo>
0.804 

> <ROCS_FitTversky>
1.425 

> <ROCS_FitColorTversky>
0.736 

> <ROCS_FitTverskyCombo>
2.161 

> <ROCS_ColorScore>
-8.333

> <ROCS_Overlap>
1217.597

> <ROCS_Rank>
242                 

$$$$
untitled-dbase-35896_0
  -OEChem-06162310163D

 30 33  0     1  0  0  0  0  0999 V2000
  -13.5000   15.8655  -39.4918 C   0  0  0  0  0  0  0  0  0  0  0  0
  -12.3230   16.6493  -38.8621 C   0  0  0  0  0  0  0  0  0  0  0  0
  -12.4332   13.6883  -38.8534 C   0  0  0  0  0  0  0  0  0  0  0  0
  -10.9489   16.3493  -36.6769 C   0  0  0  0  0  0  0  0  0  0  0  0
  -13.6514   14.6330  -38.5592 C   0  0  1  0  0  0  0  0  0  0  0  0
  -11.9384   15.7593  -37.6551 C   0  0  1  0  0  0  0  0  0  0  0  0
  -13.3214   15.2316  -37.1513 C   0  0  0  0  0  0  0  0  0  0  0  0
  -11.3566   14.5088  -38.2463 C   0  0  1  0  0  0  0  0  0  0  0  0
  -13.2667   14.1805  -36.0249 C   0  0  0  0  0  0  0  0  0  0  0  0
  -14.3009   16.3219  -36.6762 C   0  0  0  0  0  0  0  0  0  0  0  0
  -10.2450   13.9219  -37.5149 N   0  0  1  0  0  0  0  0  0  0  0  0
   -9.9600   14.5446  -35.0196 O   0  0  0  0  0  0  0  0  0  0  0  0
   -8.4093   15.5915  -36.7193 O   0  0  0  0  0  0  0  0  0  0  0  0
  -10.0531   14.5357  -38.8028 O   0  0  0  0  0  0  0  0  0  0  0  0
   -9.7131   15.0819  -36.3431 S   0  0  0  0  0  0  0  0  0  0  0  0
  -14.4101   16.4743  -39.5026 H   0  0  0  0  0  0  0  0  0  0  0  0
  -13.2850   15.5785  -40.5266 H   0  0  0  0  0  0  0  0  0  0  0  0
  -11.5022   16.7600  -39.5798 H   0  0  0  0  0  0  0  0  0  0  0  0
  -12.6344   17.6533  -38.5563 H   0  0  0  0  0  0  0  0  0  0  0  0
  -12.5530   12.7207  -38.3571 H   0  0  0  0  0  0  0  0  0  0  0  0
  -12.2931   13.5241  -39.9261 H   0  0  0  0  0  0  0  0  0  0  0  0
  -10.4147   17.1998  -37.1124 H   0  0  0  0  0  0  0  0  0  0  0  0
  -11.4068   16.6557  -35.7338 H   0  0  0  0  0  0  0  0  0  0  0  0
  -14.6180   14.1330  -38.6521 H   0  0  0  0  0  0  0  0  0  0  0  0
  -13.0341   14.6753  -35.0889 H   0  0  0  0  0  0  0  0  0  0  0  0
  -12.4983   13.4519  -36.2566 H   0  0  0  0  0  0  0  0  0  0  0  0
  -14.2300   13.6887  -35.9515 H   0  0  0  0  0  0  0  0  0  0  0  0
  -13.9935   16.6743  -35.6979 H   0  0  0  0  0  0  0  0  0  0  0  0
  -15.2991   15.9024  -36.6183 H   0  0  0  0  0  0  0  0  0  0  0  0
  -14.2883   17.1439  -37.3832 H   0  0  0  0  0  0  0  0  0  0  0  0
  1  2  1  0  0  0  0
  1  5  1  6  0  0  0
  2  6  1  6  0  0  0
  3  5  1  0  0  0  0
  3  8  1  1  0  0  0
  4  6  1  0  0  0  0
  4 15  1  0  0  0  0
  5  7  1  0  0  0  0
  6  7  1  0  0  0  0
  6  8  1  0  0  0  0
  7  9  1  0  0  0  0
  7 10  1  0  0  0  0
  8 11  1  0  0  0  0
  8 14  1  0  0  0  0
 11 14  1  0  0  0  0
 11 15  1  0  0  0  0
 12 15  2  0  0  0  0
 13 15  2  0  0  0  0
  1 16  1  0  0  0  0
  1 17  1  0  0  0  0
  2 18  1  0  0  0  0
  2 19  1  0  0  0  0
  3 20  1  0  0  0  0
  3 21  1  0  0  0  0
  4 22  1  0  0  0  0
  4 23  1  0  0  0  0
  5 24  1  0  0  0  0
  9 25  1  0  0  0  0
  9 26  1  0  0  0  0
  9 27  1  0  0  0  0
 10 28  1  0  0  0  0
 10 29  1  0  0  0  0
 10 30  1  0  0  0  0
M  END
> <id>
EN300-6480224

> <smiles>
CC1(C)[C@H]2CC[C@]31CS(=O)(=O)N4O[C@@]43C2

> <MDLNUMBER>
MFCD30486441

> <IUPAC Name>
(1R,6R,8S)-11,11-dimethyl-5-oxa-3lambda6-thia-4-azatetracyclo[6.2.1.0^{1,6}.0^{4,6}]undecane-3,3-dione

> <CAS>
104372-31-8

> <Purity>
95

> <URL>
https://www.enaminestore.com/catalog/EN300-6480224

> <MP>
165-167

> <ROCS_ShapeQuery>
x1247relevant_x1083L0AP1_x1305L0BP1_

> <ROCS_TanimotoCombo>
0.814 

> <ROCS_ShapeTanimoto>
0.490 

> <ROCS_ColorTanimoto>
0.324 

> <ROCS_RefTversky>
0.418 

> <ROCS_RefColorTversky>
0.401 

> <ROCS_RefTverskyCombo>
0.820 

> <ROCS_FitTversky>
1.542 

> <ROCS_FitColorTversky>
0.626 

> <ROCS_FitTverskyCombo>
2.168 

> <ROCS_ColorScore>
-8.598

> <ROCS_Overlap>
1232.042

> <ROCS_Rank>
243                 

$$$$
untitled-dbase-13985_3
  -OEChem-06162310163D

 35 38  0     1  0  0  0  0  0999 V2000
   -9.0852   16.5912  -34.8965 C   0  0  0  0  0  0  0  0  0  0  0  0
  -10.2146   17.3755  -35.0022 C   0  0  0  0  0  0  0  0  0  0  0  0
   -9.2880   15.5044  -35.7736 C   0  0  0  0  0  0  0  0  0  0  0  0
  -10.5266   15.6983  -36.3441 C   0  0  0  0  0  0  0  0  0  0  0  0
   -8.4614   14.3239  -36.1175 C   0  0  0  0  0  0  0  0  0  0  0  0
  -13.2034   14.8864  -40.0453 C   0  0  0  0  0  0  0  0  0  0  0  0
  -14.1200   14.3281  -38.9587 C   0  0  0  0  0  0  0  0  0  0  0  0
  -13.3868   16.4942  -38.2860 C   0  0  0  0  0  0  0  0  0  0  0  0
  -11.1104   15.5208  -38.7714 C   0  0  0  0  0  0  0  0  0  0  0  0
  -12.6617   14.5054  -36.9003 C   0  0  0  0  0  0  0  0  0  0  0  0
   -8.9863   13.6820  -37.4200 C   0  0  0  0  0  0  0  0  0  0  0  0
  -12.4298   16.0307  -39.3732 C   0  0  1  0  0  0  0  0  0  0  0  0
  -13.8032   15.1526  -37.7027 C   0  0  2  0  0  0  0  0  0  0  0  0
  -11.2093   14.8302  -37.3750 C   0  0  0  0  0  0  0  0  0  0  0  0
  -10.4586   13.5296  -37.4275 N   0  0  0  0  0  0  0  0  0  0  0  0
  -11.0997   16.8396  -35.8884 O   0  0  0  0  0  0  0  0  0  0  0  0
   -8.2314   16.7842  -34.2630 H   0  0  0  0  0  0  0  0  0  0  0  0
  -10.5269   18.2984  -34.5356 H   0  0  0  0  0  0  0  0  0  0  0  0
   -7.4207   14.6421  -36.2553 H   0  0  0  0  0  0  0  0  0  0  0  0
   -8.4813   13.5865  -35.3073 H   0  0  0  0  0  0  0  0  0  0  0  0
  -12.5477   14.1290  -40.4864 H   0  0  0  0  0  0  0  0  0  0  0  0
  -13.8164   15.2871  -40.8633 H   0  0  0  0  0  0  0  0  0  0  0  0
  -15.1657   14.4877  -39.2514 H   0  0  0  0  0  0  0  0  0  0  0  0
  -13.9966   13.2516  -38.8042 H   0  0  0  0  0  0  0  0  0  0  0  0
  -12.9192   17.1593  -37.5515 H   0  0  0  0  0  0  0  0  0  0  0  0
  -14.2487   17.0183  -38.7187 H   0  0  0  0  0  0  0  0  0  0  0  0
  -10.6140   14.8504  -39.4968 H   0  0  0  0  0  0  0  0  0  0  0  0
  -10.4299   16.3894  -38.7060 H   0  0  0  0  0  0  0  0  0  0  0  0
  -12.7763   14.8292  -35.8493 H   0  0  0  0  0  0  0  0  0  0  0  0
  -12.8254   13.4149  -36.8625 H   0  0  0  0  0  0  0  0  0  0  0  0
   -8.6956   14.3085  -38.2695 H   0  0  0  0  0  0  0  0  0  0  0  0
   -8.5094   12.7093  -37.5795 H   0  0  0  0  0  0  0  0  0  0  0  0
  -12.2118   16.8229  -40.1019 H   0  0  0  0  0  0  0  0  0  0  0  0
  -14.6934   15.2337  -37.0659 H   0  0  0  0  0  0  0  0  0  0  0  0
  -10.7143   13.0347  -38.2797 H   0  0  0  0  0  0  0  0  0  0  0  0
  1  2  2  0  0  0  0
  1  3  1  0  0  0  0
  2 16  1  0  0  0  0
  3  4  2  0  0  0  0
  3  5  1  0  0  0  0
  4 14  1  0  0  0  0
  4 16  1  0  0  0  0
  5 11  1  0  0  0  0
  6  7  1  0  0  0  0
  6 12  1  0  0  0  0
  7 13  1  0  0  0  0
  8 12  1  0  0  0  0
  8 13  1  0  0  0  0
  9 12  1  0  0  0  0
  9 14  1  0  0  0  0
 10 13  1  0  0  0  0
 10 14  1  0  0  0  0
 11 15  1  0  0  0  0
 14 15  1  0  0  0  0
  1 17  1  0  0  0  0
  2 18  1  0  0  0  0
  5 19  1  0  0  0  0
  5 20  1  0  0  0  0
  6 21  1  0  0  0  0
  6 22  1  0  0  0  0
  7 23  1  0  0  0  0
  7 24  1  0  0  0  0
  8 25  1  0  0  0  0
  8 26  1  0  0  0  0
  9 27  1  0  0  0  0
  9 28  1  0  0  0  0
 10 29  1  0  0  0  0
 10 30  1  0  0  0  0
 11 31  1  0  0  0  0
 11 32  1  0  0  0  0
 12 33  1  0  0  0  0
 13 34  1  0  0  0  0
 15 35  1  0  0  0  0
M  END
> <id>
EN300-1076882

> <smiles>
C1CC2CC1CC3(C2)NCCC=4C=COC43

> <IUPAC Name>
5',6'-dihydro-4'H-spiro[bicyclo[3.2.1]octane-3,7'-furo[2,3-c]pyridine]

> <URL>
https://www.enaminestore.com/catalog/EN300-1076882

> <ROCS_ShapeQuery>
x1247relevant_x1083L0AP1_x1305L0BP1_

> <ROCS_TanimotoCombo>
0.814 

> <ROCS_ShapeTanimoto>
0.471 

> <ROCS_ColorTanimoto>
0.343 

> <ROCS_RefTversky>
0.413 

> <ROCS_RefColorTversky>
0.391 

> <ROCS_RefTverskyCombo>
0.804 

> <ROCS_FitTversky>
1.425 

> <ROCS_FitColorTversky>
0.736 

> <ROCS_FitTverskyCombo>
2.161 

> <ROCS_ColorScore>
-8.333

> <ROCS_Overlap>
1217.340

> <ROCS_Rank>
244                 

$$$$
untitled-dbase-16657_0
  -OEChem-06162310163D

 41 44  0     1  0  0  0  0  0999 V2000
   -7.5228   15.7808  -34.2481 C   0  0  0  0  0  0  0  0  0  0  0  0
   -8.5713   14.9042  -33.5642 C   0  0  0  0  0  0  0  0  0  0  0  0
  -12.9866   17.0088  -38.3473 C   0  0  0  0  0  0  0  0  0  0  0  0
  -13.9404   16.1684  -37.4963 C   0  0  0  0  0  0  0  0  0  0  0  0
   -7.5308   15.3784  -35.7196 C   0  0  0  0  0  0  0  0  0  0  0  0
   -9.2096   14.0592  -34.6658 C   0  0  0  0  0  0  0  0  0  0  0  0
  -11.1633   15.2803  -38.9328 C   0  0  0  0  0  0  0  0  0  0  0  0
  -12.7309   13.8862  -37.5103 C   0  0  0  0  0  0  0  0  0  0  0  0
   -8.9880   13.9179  -37.2033 C   0  0  0  0  0  0  0  0  0  0  0  0
   -9.9622   15.9658  -36.1711 C   0  0  0  0  0  0  0  0  0  0  0  0
  -12.4340   16.0301  -39.3811 C   0  0  1  0  0  0  0  0  0  0  0  0
  -13.8537   14.7668  -38.0965 C   0  0  2  0  0  0  0  0  0  0  0  0
   -8.9416   14.8316  -35.9716 C   0  0  0  0  0  0  0  0  0  0  0  0
  -11.3185   14.5321  -37.5775 C   0  0  0  0  0  0  0  0  0  0  0  0
  -10.3452   13.4341  -37.4388 N   0  0  0  0  0  0  0  0  0  0  0  0
  -13.5172   15.0409  -39.5028 N   0  0  0  0  0  0  0  0  0  0  0  0
  -11.2583   15.4436  -36.4632 O   0  0  0  0  0  0  0  0  0  0  0  0
   -7.7854   16.8377  -34.1334 H   0  0  0  0  0  0  0  0  0  0  0  0
   -6.5311   15.6410  -33.8076 H   0  0  0  0  0  0  0  0  0  0  0  0
   -8.1304   14.2743  -32.7838 H   0  0  0  0  0  0  0  0  0  0  0  0
   -9.3279   15.5353  -33.0819 H   0  0  0  0  0  0  0  0  0  0  0  0
  -13.5560   17.8050  -38.8434 H   0  0  0  0  0  0  0  0  0  0  0  0
  -12.2064   17.4924  -37.7525 H   0  0  0  0  0  0  0  0  0  0  0  0
  -13.6890   16.1955  -36.4320 H   0  0  0  0  0  0  0  0  0  0  0  0
  -14.9580   16.5654  -37.5999 H   0  0  0  0  0  0  0  0  0  0  0  0
   -7.2624   16.2212  -36.3654 H   0  0  0  0  0  0  0  0  0  0  0  0
   -6.7787   14.5942  -35.8757 H   0  0  0  0  0  0  0  0  0  0  0  0
   -8.7194   13.0779  -34.6952 H   0  0  0  0  0  0  0  0  0  0  0  0
  -10.2754   13.8891  -34.4820 H   0  0  0  0  0  0  0  0  0  0  0  0
  -10.9094   14.5637  -39.7264 H   0  0  0  0  0  0  0  0  0  0  0  0
  -10.3350   15.9980  -38.8699 H   0  0  0  0  0  0  0  0  0  0  0  0
  -13.0018   13.6229  -36.4815 H   0  0  0  0  0  0  0  0  0  0  0  0
  -12.7226   12.9431  -38.0775 H   0  0  0  0  0  0  0  0  0  0  0  0
   -8.6488   14.4553  -38.0969 H   0  0  0  0  0  0  0  0  0  0  0  0
   -8.3012   13.0713  -37.0825 H   0  0  0  0  0  0  0  0  0  0  0  0
  -10.0175   16.6117  -35.2884 H   0  0  0  0  0  0  0  0  0  0  0  0
   -9.6860   16.6158  -37.0079 H   0  0  0  0  0  0  0  0  0  0  0  0
  -12.2423   16.5216  -40.3405 H   0  0  0  0  0  0  0  0  0  0  0  0
  -14.8068   14.2337  -38.0210 H   0  0  0  0  0  0  0  0  0  0  0  0
  -10.3523   12.8742  -38.2914 H   0  0  0  0  0  0  0  0  0  0  0  0
  -14.3174   15.4787  -39.9563 H   0  0  0  0  0  0  0  0  0  0  0  0
  1  2  1  0  0  0  0
  1  5  1  0  0  0  0
  2  6  1  0  0  0  0
  3  4  1  0  0  0  0
  3 11  1  0  0  0  0
  4 12  1  0  0  0  0
  5 13  1  0  0  0  0
  6 13  1  0  0  0  0
  7 11  1  0  0  0  0
  7 14  1  0  0  0  0
  8 12  1  0  0  0  0
  8 14  1  0  0  0  0
  9 13  1  0  0  0  0
  9 15  1  0  0  0  0
 10 13  1  0  0  0  0
 10 17  1  0  0  0  0
 11 16  1  0  0  0  0
 12 16  1  0  0  0  0
 14 15  1  0  0  0  0
 14 17  1  0  0  0  0
  1 18  1  0  0  0  0
  1 19  1  0  0  0  0
  2 20  1  0  0  0  0
  2 21  1  0  0  0  0
  3 22  1  0  0  0  0
  3 23  1  0  0  0  0
  4 24  1  0  0  0  0
  4 25  1  0  0  0  0
  5 26  1  0  0  0  0
  5 27  1  0  0  0  0
  6 28  1  0  0  0  0
  6 29  1  0  0  0  0
  7 30  1  0  0  0  0
  7 31  1  0  0  0  0
  8 32  1  0  0  0  0
  8 33  1  0  0  0  0
  9 34  1  0  0  0  0
  9 35  1  0  0  0  0
 10 36  1  0  0  0  0
 10 37  1  0  0  0  0
 11 38  1  0  0  0  0
 12 39  1  0  0  0  0
 15 40  1  0  0  0  0
 16 41  1  0  0  0  0
M  END
> <id>
EN300-1278950

> <smiles>
C1CCC2(C1)CNC3(CC4CCC(C3)N4)OC2

> <IUPAC Name>
dispiro[8-azabicyclo[3.2.1]octane-3,2'-[1,3]oxazinane-5',1''-cyclopentane]

> <URL>
https://www.enaminestore.com/catalog/EN300-1278950

> <ROCS_ShapeQuery>
x1247relevant_x1083L0AP1_x1305L0BP1_

> <ROCS_TanimotoCombo>
0.814 

> <ROCS_ShapeTanimoto>
0.488 

> <ROCS_ColorTanimoto>
0.326 

> <ROCS_RefTversky>
0.426 

> <ROCS_RefColorTversky>
0.398 

> <ROCS_RefTverskyCombo>
0.824 

> <ROCS_FitTversky>
1.420 

> <ROCS_FitColorTversky>
0.643 

> <ROCS_FitTverskyCombo>
2.063 

> <ROCS_ColorScore>
-8.510

> <ROCS_Overlap>
1257.670

> <ROCS_Rank>
245                 

$$$$
untitled-dbase-51901_0
  -OEChem-06162310163D

 24 25  0     1  0  0  0  0  0999 V2000
  -10.1059   14.6858  -37.3688 C   0  0  0  0  0  0  0  0  0  0  0  0
  -13.3709   15.1360  -37.1434 C   0  0  0  0  0  0  0  0  0  0  0  0
  -12.3407   16.7374  -38.9413 C   0  0  0  0  0  0  0  0  0  0  0  0
  -12.7572   14.2657  -39.5330 C   0  0  0  0  0  0  0  0  0  0  0  0
  -12.2435   16.1327  -37.5387 C   0  0  2  0  0  0  0  0  0  0  0  0
  -12.5758   14.1248  -38.0191 C   0  0  1  0  0  0  0  0  0  0  0  0
  -12.9897   15.7396  -39.9180 C   0  0  0  0  0  0  0  0  0  0  0  0
   -9.6887   13.2527  -37.5589 C   0  0  0  0  0  0  0  0  0  0  0  0
  -11.4283   14.9240  -37.6045 N   0  0  0  0  0  0  0  0  0  0  0  0
   -9.2997   15.5485  -37.0246 O   0  0  0  0  0  0  0  0  0  0  0  0
  -14.3968   15.9993  -39.9424 O   0  0  0  0  0  0  0  0  0  0  0  0
  -13.3965   14.8853  -36.0746 H   0  0  0  0  0  0  0  0  0  0  0  0
  -14.3882   15.3796  -37.4582 H   0  0  0  0  0  0  0  0  0  0  0  0
  -12.9216   17.6661  -38.9014 H   0  0  0  0  0  0  0  0  0  0  0  0
  -11.3333   16.9948  -39.2906 H   0  0  0  0  0  0  0  0  0  0  0  0
  -11.8586   13.8916  -40.0386 H   0  0  0  0  0  0  0  0  0  0  0  0
  -13.5984   13.6441  -39.8601 H   0  0  0  0  0  0  0  0  0  0  0  0
  -11.9429   16.8316  -36.7534 H   0  0  0  0  0  0  0  0  0  0  0  0
  -12.5730   13.0966  -37.6477 H   0  0  0  0  0  0  0  0  0  0  0  0
  -12.6330   15.9291  -40.9363 H   0  0  0  0  0  0  0  0  0  0  0  0
   -9.3792   13.1034  -38.5892 H   0  0  0  0  0  0  0  0  0  0  0  0
  -10.5270   12.6014  -37.3280 H   0  0  0  0  0  0  0  0  0  0  0  0
   -8.8628   13.0281  -36.8898 H   0  0  0  0  0  0  0  0  0  0  0  0
  -14.7788   15.3607  -40.5616 H   0  0  0  0  0  0  0  0  0  0  0  0
  1  8  1  0  0  0  0
  1  9  1  0  0  0  0
  1 10  2  0  0  0  0
  2  5  1  1  0  0  0
  2  6  1  1  0  0  0
  3  5  1  0  0  0  0
  3  7  1  0  0  0  0
  4  6  1  0  0  0  0
  4  7  1  0  0  0  0
  5  9  1  0  0  0  0
  6  9  1  0  0  0  0
  7 11  1  1  0  0  0
  2 12  1  0  0  0  0
  2 13  1  0  0  0  0
  3 14  1  0  0  0  0
  3 15  1  0  0  0  0
  4 16  1  0  0  0  0
  4 17  1  0  0  0  0
  5 18  1  0  0  0  0
  6 19  1  0  0  0  0
  7 20  1  0  0  0  0
  8 21  1  0  0  0  0
  8 22  1  0  0  0  0
  8 23  1  0  0  0  0
 11 24  1  0  0  0  0
M  END
> <id>
EN300-45377141

> <smiles>
CC(=O)N1[C@H]2C[C@@H]1C[C@H](O)C2

> <IUPAC Name>
1-[(1R,3r,5S)-3-hydroxy-6-azabicyclo[3.1.1]heptan-6-yl]ethan-1-one

> <URL>
https://www.enaminestore.com/catalog/EN300-45377141

> <ROCS_ShapeQuery>
x1247relevant_x1083L0AP1_x1305L0BP1_

> <ROCS_TanimotoCombo>
0.814 

> <ROCS_ShapeTanimoto>
0.448 

> <ROCS_ColorTanimoto>
0.366 

> <ROCS_RefTversky>
0.374 

> <ROCS_RefColorTversky>
0.392 

> <ROCS_RefTverskyCombo>
0.765 

> <ROCS_FitTversky>
1.793 

> <ROCS_FitColorTversky>
0.848 

> <ROCS_FitTverskyCombo>
2.641 

> <ROCS_ColorScore>
-8.308

> <ROCS_Overlap>
1097.082

> <ROCS_Rank>
246                 

$$$$
untitled-dbase-4942_1
  -OEChem-06162310163D

 29 31  0     1  0  0  0  0  0999 V2000
  -13.7114   14.8400  -39.5811 C   0  0  0  0  0  0  0  0  0  0  0  0
  -13.4508   13.8973  -38.3992 C   0  0  0  0  0  0  0  0  0  0  0  0
  -13.4470   16.1217  -37.5920 C   0  0  0  0  0  0  0  0  0  0  0  0
  -11.6001   16.0991  -39.1064 C   0  0  0  0  0  0  0  0  0  0  0  0
   -9.2788   14.0493  -36.1905 C   0  0  0  0  0  0  0  0  0  0  0  0
  -10.3504   14.0159  -38.3217 C   0  0  0  0  0  0  0  0  0  0  0  0
  -10.1477   15.2331  -35.7867 C   0  0  0  0  0  0  0  0  0  0  0  0
  -13.1394   16.1796  -39.0858 C   0  0  1  0  0  0  0  0  0  0  0  0
  -12.7010   14.7940  -37.3990 C   0  0  2  0  0  0  0  0  0  0  0  0
  -11.2747   15.1691  -37.9071 C   0  0  2  0  0  0  0  0  0  0  0  0
   -9.9676   13.2012  -37.1655 N   0  0  0  0  0  0  0  0  0  0  0  0
  -10.5823   15.9725  -36.9292 O   0  0  0  0  0  0  0  0  0  0  0  0
  -13.2292   14.4924  -40.4999 H   0  0  0  0  0  0  0  0  0  0  0  0
  -14.7878   14.9191  -39.7691 H   0  0  0  0  0  0  0  0  0  0  0  0
  -14.4062   13.5686  -37.9706 H   0  0  0  0  0  0  0  0  0  0  0  0
  -12.9031   12.9974  -38.6904 H   0  0  0  0  0  0  0  0  0  0  0  0
  -13.0175   16.9555  -37.0267 H   0  0  0  0  0  0  0  0  0  0  0  0
  -14.5185   16.0508  -37.3741 H   0  0  0  0  0  0  0  0  0  0  0  0
  -11.2432   15.7054  -40.0648 H   0  0  0  0  0  0  0  0  0  0  0  0
  -11.1861   17.1046  -38.9710 H   0  0  0  0  0  0  0  0  0  0  0  0
   -8.3312   14.4056  -36.6196 H   0  0  0  0  0  0  0  0  0  0  0  0
   -9.0184   13.4473  -35.3061 H   0  0  0  0  0  0  0  0  0  0  0  0
  -10.8498   13.3749  -39.0571 H   0  0  0  0  0  0  0  0  0  0  0  0
   -9.4324   14.3859  -38.7859 H   0  0  0  0  0  0  0  0  0  0  0  0
  -11.0451   14.8712  -35.2721 H   0  0  0  0  0  0  0  0  0  0  0  0
   -9.6238   15.8932  -35.0852 H   0  0  0  0  0  0  0  0  0  0  0  0
  -13.5368   17.0449  -39.6184 H   0  0  0  0  0  0  0  0  0  0  0  0
  -12.7200   14.4265  -36.3718 H   0  0  0  0  0  0  0  0  0  0  0  0
   -9.3382   12.4622  -37.4678 H   0  0  0  0  0  0  0  0  0  0  0  0
  1  2  1  0  0  0  0
  1  8  1  0  0  0  0
  2  9  1  0  0  0  0
  3  8  1  0  0  0  0
  3  9  1  0  0  0  0
  4  8  1  0  0  0  0
  4 10  1  0  0  0  0
  5  7  1  0  0  0  0
  5 11  1  0  0  0  0
  6 10  1  0  0  0  0
  6 11  1  0  0  0  0
  7 12  1  0  0  0  0
  9 10  1  0  0  0  0
 10 12  1  0  0  0  0
  1 13  1  0  0  0  0
  1 14  1  0  0  0  0
  2 15  1  0  0  0  0
  2 16  1  0  0  0  0
  3 17  1  0  0  0  0
  3 18  1  0  0  0  0
  4 19  1  0  0  0  0
  4 20  1  0  0  0  0
  5 21  1  0  0  0  0
  5 22  1  0  0  0  0
  6 23  1  0  0  0  0
  6 24  1  0  0  0  0
  7 25  1  0  0  0  0
  7 26  1  0  0  0  0
  8 27  1  0  0  0  0
  9 28  1  0  0  0  0
 11 29  1  0  0  0  0
M  END
> <id>
EN300-200685

> <smiles>
C1CC2CC1CC32CNCCO3

> <MDLNUMBER>
MFCD24121870

> <IUPAC Name>
spiro[bicyclo[2.2.1]heptane-2,2'-morpholine]

> <CAS>
1559914-99-6

> <Purity>
95

> <URL>
https://www.enaminestore.com/catalog/EN300-200685

> <ROCS_ShapeQuery>
x1247relevant_x1083L0AP1_x1305L0BP1_

> <ROCS_TanimotoCombo>
0.813 

> <ROCS_ShapeTanimoto>
0.476 

> <ROCS_ColorTanimoto>
0.337 

> <ROCS_RefTversky>
0.396 

> <ROCS_RefColorTversky>
0.381 

> <ROCS_RefTverskyCombo>
0.777 

> <ROCS_FitTversky>
1.743 

> <ROCS_FitColorTversky>
0.746 

> <ROCS_FitTverskyCombo>
2.489 

> <ROCS_ColorScore>
-8.103

> <ROCS_Overlap>
1162.550

> <ROCS_Rank>
247                 

$$$$
untitled-dbase-39932_2
  -OEChem-06162310163D

 35 38  0     1  0  0  0  0  0999 V2000
   -7.6864   16.1520  -35.9022 C   0  0  0  0  0  0  0  0  0  0  0  0
   -7.5629   17.2051  -36.7805 C   0  0  0  0  0  0  0  0  0  0  0  0
   -8.8447   15.3732  -36.1755 C   0  0  0  0  0  0  0  0  0  0  0  0
   -9.5595   15.8459  -37.2605 C   0  0  0  0  0  0  0  0  0  0  0  0
   -9.3367   14.1758  -35.4447 C   0  0  0  0  0  0  0  0  0  0  0  0
  -13.2750   13.9585  -39.2878 C   0  0  0  0  0  0  0  0  0  0  0  0
  -13.7917   14.1178  -37.8503 C   0  0  0  0  0  0  0  0  0  0  0  0
  -13.4815   16.2792  -38.8005 C   0  0  0  0  0  0  0  0  0  0  0  0
  -11.1709   15.4567  -39.2389 C   0  0  0  0  0  0  0  0  0  0  0  0
  -12.0393   15.7084  -36.8423 C   0  0  0  0  0  0  0  0  0  0  0  0
   -9.9653   13.1800  -36.4277 C   0  0  0  0  0  0  0  0  0  0  0  0
  -12.6547   15.3143  -39.6447 C   0  0  1  0  0  0  0  0  0  0  0  0
  -13.4472   15.5602  -37.4568 C   0  0  2  0  0  0  0  0  0  0  0  0
  -10.8582   15.1894  -37.7276 C   0  0  0  0  0  0  0  0  0  0  0  0
  -10.7478   13.7147  -37.5540 N   0  0  0  0  0  0  0  0  0  0  0  0
   -8.8453   17.2509  -37.9120 S   0  0  0  0  0  0  0  0  0  0  0  0
   -6.9824   15.9582  -35.1058 H   0  0  0  0  0  0  0  0  0  0  0  0
   -6.7836   17.9527  -36.8076 H   0  0  0  0  0  0  0  0  0  0  0  0
   -8.4958   13.7036  -34.9246 H   0  0  0  0  0  0  0  0  0  0  0  0
  -10.0774   14.4607  -34.6910 H   0  0  0  0  0  0  0  0  0  0  0  0
  -12.5793   13.1224  -39.4008 H   0  0  0  0  0  0  0  0  0  0  0  0
  -14.1251   13.7536  -39.9503 H   0  0  0  0  0  0  0  0  0  0  0  0
  -14.8801   13.9811  -37.8455 H   0  0  0  0  0  0  0  0  0  0  0  0
  -13.3767   13.3746  -37.1639 H   0  0  0  0  0  0  0  0  0  0  0  0
  -13.0609   17.2891  -38.7617 H   0  0  0  0  0  0  0  0  0  0  0  0
  -14.5077   16.3502  -39.1807 H   0  0  0  0  0  0  0  0  0  0  0  0
  -10.5559   14.8088  -39.8804 H   0  0  0  0  0  0  0  0  0  0  0  0
  -10.8731   16.4763  -39.5165 H   0  0  0  0  0  0  0  0  0  0  0  0
  -11.8979   16.7777  -36.6280 H   0  0  0  0  0  0  0  0  0  0  0  0
  -12.0307   15.2287  -35.8547 H   0  0  0  0  0  0  0  0  0  0  0  0
   -9.1468   12.5352  -36.8525 H   0  0  0  0  0  0  0  0  0  0  0  0
  -10.5862   12.4299  -35.8599 H   0  0  0  0  0  0  0  0  0  0  0  0
  -12.7586   15.5278  -40.7143 H   0  0  0  0  0  0  0  0  0  0  0  0
  -14.1898   15.9675  -36.7629 H   0  0  0  0  0  0  0  0  0  0  0  0
  -10.3526   13.3015  -38.4248 H   0  0  0  0  0  0  0  0  0  0  0  0
  1  2  2  0  0  0  0
  1  3  1  0  0  0  0
  2 16  1  0  0  0  0
  3  4  2  0  0  0  0
  3  5  1  0  0  0  0
  4 14  1  0  0  0  0
  4 16  1  0  0  0  0
  5 11  1  0  0  0  0
  6  7  1  0  0  0  0
  6 12  1  6  0  0  0
  7 13  1  6  0  0  0
  8 12  1  0  0  0  0
  8 13  1  0  0  0  0
  9 12  1  0  0  0  0
  9 14  1  0  0  0  0
 10 13  1  0  0  0  0
 10 14  1  0  0  0  0
 11 15  1  0  0  0  0
 14 15  1  0  0  0  0
  1 17  1  0  0  0  0
  2 18  1  0  0  0  0
  5 19  1  0  0  0  0
  5 20  1  0  0  0  0
  6 21  1  0  0  0  0
  6 22  1  0  0  0  0
  7 23  1  0  0  0  0
  7 24  1  0  0  0  0
  8 25  1  0  0  0  0
  8 26  1  0  0  0  0
  9 27  1  0  0  0  0
  9 28  1  0  0  0  0
 10 29  1  0  0  0  0
 10 30  1  0  0  0  0
 11 31  1  0  0  0  0
 11 32  1  0  0  0  0
 12 33  1  0  0  0  0
 13 34  1  0  0  0  0
 15 35  1  0  0  0  0
M  END
> <id>
EN300-1075918

> <smiles>
C1C[C@@H]2C[C@H]1CC3(C2)NCCC=4C=CSC43

> <IUPAC Name>
(1S,5R)-5',6'-dihydro-4'H-spiro[bicyclo[3.2.1]octane-3,7'-thieno[2,3-c]pyridine]

> <URL>
https://www.enaminestore.com/catalog/EN300-1075918

> <ROCS_ShapeQuery>
x1247relevant_x1083L0AP1_x1305L0BP1_

> <ROCS_TanimotoCombo>
0.813 

> <ROCS_ShapeTanimoto>
0.456 

> <ROCS_ColorTanimoto>
0.357 

> <ROCS_RefTversky>
0.401 

> <ROCS_RefColorTversky>
0.392 

> <ROCS_RefTverskyCombo>
0.793 

> <ROCS_FitTversky>
1.426 

> <ROCS_FitColorTversky>
0.803 

> <ROCS_FitTverskyCombo>
2.229 

> <ROCS_ColorScore>
-8.318

> <ROCS_Overlap>
1182.169

> <ROCS_Rank>
248                 

$$$$
untitled-dbase-46767_0
  -OEChem-06162310163D

 23 25  0     1  0  0  0  0  0999 V2000
  -14.1466   15.7351  -38.2917 C   0  0  0  0  0  0  0  0  0  0  0  0
  -12.9507   13.7001  -38.5155 C   0  0  0  0  0  0  0  0  0  0  0  0
  -13.4358   14.8937  -39.3560 C   0  0  2  0  0  0  0  0  0  0  0  0
  -12.9118   15.8398  -37.4100 C   0  0  2  0  0  0  0  0  0  0  0  0
  -11.8565   16.4230  -38.3730 C   0  0  2  0  0  0  0  0  0  0  0  0
  -12.2203   15.7726  -39.7192 C   0  0  2  0  0  0  0  0  0  0  0  0
  -12.4743   14.3733  -37.2148 C   0  0  2  0  0  0  0  0  0  0  0  0
  -10.5289   15.9481  -37.8834 N   0  0  0  0  0  0  0  0  0  0  0  0
  -10.3853   14.6553  -35.6343 O   0  0  0  0  0  0  0  0  0  0  0  0
  -10.0712   13.3805  -37.7952 O   0  0  0  0  0  0  0  0  0  0  0  0
  -12.5985   16.7845  -40.6435 O   0  0  0  0  0  0  0  0  0  0  0  0
  -10.6981   14.4393  -37.0327 S   0  0  0  0  0  0  0  0  0  0  0  0
  -14.4938   16.7041  -38.6642 H   0  0  0  0  0  0  0  0  0  0  0  0
  -14.9756   15.2075  -37.8085 H   0  0  0  0  0  0  0  0  0  0  0  0
  -13.7980   13.0394  -38.2958 H   0  0  0  0  0  0  0  0  0  0  0  0
  -12.1925   13.1083  -39.0340 H   0  0  0  0  0  0  0  0  0  0  0  0
  -14.0665   14.6224  -40.2052 H   0  0  0  0  0  0  0  0  0  0  0  0
  -13.0207   16.4000  -36.4788 H   0  0  0  0  0  0  0  0  0  0  0  0
  -11.8802   17.5165  -38.4029 H   0  0  0  0  0  0  0  0  0  0  0  0
  -11.4066   15.1917  -40.1664 H   0  0  0  0  0  0  0  0  0  0  0  0
  -12.9120   13.9053  -36.3289 H   0  0  0  0  0  0  0  0  0  0  0  0
   -9.8138   15.9648  -38.6231 H   0  0  0  0  0  0  0  0  0  0  0  0
  -12.9354   16.3307  -41.4328 H   0  0  0  0  0  0  0  0  0  0  0  0
  1  3  1  0  0  0  0
  1  4  1  0  0  0  0
  2  3  1  0  0  0  0
  2  7  1  0  0  0  0
  3  6  1  0  0  0  0
  4  5  1  0  0  0  0
  4  7  1  0  0  0  0
  5  6  1  0  0  0  0
  5  8  1  0  0  0  0
  6 11  1  0  0  0  0
  7 12  1  0  0  0  0
  8 12  1  0  0  0  0
  9 12  2  0  0  0  0
 10 12  2  0  0  0  0
  1 13  1  0  0  0  0
  1 14  1  0  0  0  0
  2 15  1  0  0  0  0
  2 16  1  0  0  0  0
  3 17  1  0  0  0  0
  4 18  1  0  0  0  0
  5 19  1  0  0  0  0
  6 20  1  0  0  0  0
  7 21  1  0  0  0  0
  8 22  1  0  0  0  0
 11 23  1  0  0  0  0
M  END
> <id>
EN300-264041

> <smiles>
OC1C2CC3C(C2)S(=O)(=O)NC13

> <MDLNUMBER>
MFCD29907085

> <IUPAC Name>
9-hydroxy-4lambda6-thia-5-azatricyclo[4.2.1.0,3,7]nonane-4,4-dione

> <CAS>
1453422-57-5

> <Purity>
95

> <URL>
https://www.enaminestore.com/catalog/EN300-264041

> <ROCS_ShapeQuery>
x1247relevant_x1083L0AP1_x1305L0BP1_

> <ROCS_TanimotoCombo>
0.813 

> <ROCS_ShapeTanimoto>
0.477 

> <ROCS_ColorTanimoto>
0.336 

> <ROCS_RefTversky>
0.395 

> <ROCS_RefColorTversky>
0.456 

> <ROCS_RefTverskyCombo>
0.851 

> <ROCS_FitTversky>
1.764 

> <ROCS_FitColorTversky>
0.562 

> <ROCS_FitTverskyCombo>
2.327 

> <ROCS_ColorScore>
-9.855

> <ROCS_Overlap>
1160.406

> <ROCS_Rank>
249                 

$$$$
untitled-dbase-36348_10
  -OEChem-06162310163D

 41 43  0     1  0  0  0  0  0999 V2000
  -15.8352   15.5128  -39.2838 C   0  0  0  0  0  0  0  0  0  0  0  0
  -14.5937   16.3266  -38.9230 C   0  0  0  0  0  0  0  0  0  0  0  0
  -13.8759   14.7789  -40.5809 C   0  0  0  0  0  0  0  0  0  0  0  0
   -8.9779   13.6402  -37.4822 C   0  0  0  0  0  0  0  0  0  0  0  0
  -11.0534   15.2121  -38.9993 C   0  0  0  0  0  0  0  0  0  0  0  0
   -8.4513   14.7108  -36.5378 C   0  0  0  0  0  0  0  0  0  0  0  0
  -10.5271   15.8133  -36.5590 C   0  0  0  0  0  0  0  0  0  0  0  0
  -12.6324   14.5680  -37.1226 C   0  0  0  0  0  0  0  0  0  0  0  0
  -11.1468   14.7701  -37.5162 C   0  0  1  0  0  0  0  0  0  0  0  0
  -15.4213   14.6519  -40.4995 C   0  0  0  0  0  0  0  0  0  0  0  0
  -13.4364   15.3708  -39.2285 C   0  0  1  0  0  0  0  0  0  0  0  0
  -16.0661   15.1864  -41.7864 C   0  0  0  0  0  0  0  0  0  0  0  0
  -15.8501   13.1920  -40.3002 C   0  0  0  0  0  0  0  0  0  0  0  0
  -10.4292   13.4862  -37.3441 N   0  0  0  0  0  0  0  0  0  0  0  0
  -12.1665   16.1030  -39.3178 N   0  0  0  0  0  0  0  0  0  0  0  0
   -9.1205   15.9485  -36.7749 O   0  0  0  0  0  0  0  0  0  0  0  0
  -13.4302   14.2900  -38.2719 O   0  0  0  0  0  0  0  0  0  0  0  0
  -16.1167   14.8827  -38.4314 H   0  0  0  0  0  0  0  0  0  0  0  0
  -16.6865   16.1690  -39.4919 H   0  0  0  0  0  0  0  0  0  0  0  0
  -14.5514   17.2242  -39.5523 H   0  0  0  0  0  0  0  0  0  0  0  0
  -14.6253   16.6371  -37.8737 H   0  0  0  0  0  0  0  0  0  0  0  0
  -13.4043   13.8182  -40.8099 H   0  0  0  0  0  0  0  0  0  0  0  0
  -13.6014   15.4702  -41.3898 H   0  0  0  0  0  0  0  0  0  0  0  0
   -8.7285   13.8940  -38.5183 H   0  0  0  0  0  0  0  0  0  0  0  0
   -8.4932   12.6839  -37.2596 H   0  0  0  0  0  0  0  0  0  0  0  0
  -10.1246   15.7432  -39.2001 H   0  0  0  0  0  0  0  0  0  0  0  0
  -11.0775   14.3468  -39.6626 H   0  0  0  0  0  0  0  0  0  0  0  0
   -8.5771   14.4211  -35.4883 H   0  0  0  0  0  0  0  0  0  0  0  0
   -7.3832   14.8698  -36.7120 H   0  0  0  0  0  0  0  0  0  0  0  0
  -10.9743   16.8066  -36.6829 H   0  0  0  0  0  0  0  0  0  0  0  0
  -10.6940   15.5369  -35.5068 H   0  0  0  0  0  0  0  0  0  0  0  0
  -12.7491   13.7588  -36.3958 H   0  0  0  0  0  0  0  0  0  0  0  0
  -13.0341   15.4714  -36.6537 H   0  0  0  0  0  0  0  0  0  0  0  0
  -15.7628   14.5683  -42.6266 H   0  0  0  0  0  0  0  0  0  0  0  0
  -15.7436   16.2100  -41.9543 H   0  0  0  0  0  0  0  0  0  0  0  0
  -17.1475   15.1585  -41.6875 H   0  0  0  0  0  0  0  0  0  0  0  0
  -15.5501   12.6063  -41.1642 H   0  0  0  0  0  0  0  0  0  0  0  0
  -16.9292   13.1449  -40.1869 H   0  0  0  0  0  0  0  0  0  0  0  0
  -15.3737   12.7942  -39.4089 H   0  0  0  0  0  0  0  0  0  0  0  0
  -10.7668   12.8047  -38.0165 H   0  0  0  0  0  0  0  0  0  0  0  0
  -12.1807   16.8808  -38.6722 H   0  0  0  0  0  0  0  0  0  0  0  0
  1  2  1  0  0  0  0
  1 10  1  0  0  0  0
  2 11  1  0  0  0  0
  3 10  1  0  0  0  0
  3 11  1  0  0  0  0
  4  6  1  0  0  0  0
  4 14  1  0  0  0  0
  5  9  1  0  0  0  0
  5 15  1  0  0  0  0
  6 16  1  0  0  0  0
  7  9  1  0  0  0  0
  7 16  1  0  0  0  0
  8  9  1  0  0  0  0
  8 17  1  0  0  0  0
  9 14  1  0  0  0  0
 10 12  1  0  0  0  0
 10 13  1  0  0  0  0
 11 15  1  0  0  0  0
 11 17  1  0  0  0  0
  1 18  1  0  0  0  0
  1 19  1  0  0  0  0
  2 20  1  0  0  0  0
  2 21  1  0  0  0  0
  3 22  1  0  0  0  0
  3 23  1  0  0  0  0
  4 24  1  0  0  0  0
  4 25  1  0  0  0  0
  5 26  1  0  0  0  0
  5 27  1  0  0  0  0
  6 28  1  0  0  0  0
  6 29  1  0  0  0  0
  7 30  1  0  0  0  0
  7 31  1  0  0  0  0
  8 32  1  0  0  0  0
  8 33  1  0  0  0  0
 12 34  1  0  0  0  0
 12 35  1  0  0  0  0
 12 36  1  0  0  0  0
 13 37  1  0  0  0  0
 13 38  1  0  0  0  0
 13 39  1  0  0  0  0
 14 40  1  0  0  0  0
 15 41  1  0  0  0  0
M  END
> <id>
EN300-1280611

> <smiles>
CC1(C)CCC2(C1)NCC3(COCCN3)CO2

> <IUPAC Name>
2,2-dimethyl-6,12-dioxa-9,15-diazadispiro[4.2.5^{8}.2^{5}]pentadecane

> <CAS>
2172101-69-6

> <URL>
https://www.enaminestore.com/catalog/EN300-1280611

> <ROCS_ShapeQuery>
x1247relevant_x1083L0AP1_x1305L0BP1_

> <ROCS_TanimotoCombo>
0.812 

> <ROCS_ShapeTanimoto>
0.518 

> <ROCS_ColorTanimoto>
0.295 

> <ROCS_RefTversky>
0.442 

> <ROCS_RefColorTversky>
0.341 

> <ROCS_RefTverskyCombo>
0.783 

> <ROCS_FitTversky>
1.497 

> <ROCS_FitColorTversky>
0.684 

> <ROCS_FitTverskyCombo>
2.182 

> <ROCS_ColorScore>
-7.252

> <ROCS_Overlap>
1302.561

> <ROCS_Rank>
250                 

$$$$
untitled-dbase-49228_18
  -OEChem-06162310163D

 38 39  0     1  0  0  0  0  0999 V2000
   -8.9256   14.7256  -37.6643 C   0  0  0  0  0  0  0  0  0  0  0  0
   -9.9794   15.5869  -38.3536 C   0  0  0  0  0  0  0  0  0  0  0  0
  -13.2715   13.8057  -37.9559 C   0  0  0  0  0  0  0  0  0  0  0  0
   -9.0137   14.8913  -36.1545 C   0  0  0  0  0  0  0  0  0  0  0  0
  -13.6029   16.2782  -38.0746 C   0  0  0  0  0  0  0  0  0  0  0  0
  -11.3057   15.4937  -36.2446 C   0  0  0  0  0  0  0  0  0  0  0  0
  -14.1228   14.9263  -38.5649 C   0  0  1  0  0  0  0  0  0  0  0  0
  -11.3966   15.3609  -37.7800 C   0  0  2  0  0  0  0  0  0  0  0  0
  -15.4620   15.3967  -40.6392 C   0  0  0  0  0  0  0  0  0  0  0  0
  -13.9341   13.4103  -40.5606 C   0  0  0  0  0  0  0  0  0  0  0  0
  -12.9763   15.7254  -40.6539 C   0  0  0  0  0  0  0  0  0  0  0  0
  -14.1238   14.8650  -40.0963 C   0  0  0  0  0  0  0  0  0  0  0  0
  -11.8400   14.0098  -38.1819 N   0  0  0  0  0  0  0  0  0  0  0  0
  -10.3318   14.6081  -35.6903 O   0  0  0  0  0  0  0  0  0  0  0  0
  -12.2071   16.4116  -38.3374 O   0  0  0  0  0  0  0  0  0  0  0  0
   -9.0578   13.6734  -37.9372 H   0  0  0  0  0  0  0  0  0  0  0  0
   -7.9307   15.0332  -38.0076 H   0  0  0  0  0  0  0  0  0  0  0  0
   -9.6703   16.6408  -38.2740 H   0  0  0  0  0  0  0  0  0  0  0  0
   -9.9760   15.3519  -39.4326 H   0  0  0  0  0  0  0  0  0  0  0  0
  -13.4490   13.7493  -36.8680 H   0  0  0  0  0  0  0  0  0  0  0  0
  -13.5774   12.8213  -38.3516 H   0  0  0  0  0  0  0  0  0  0  0  0
   -8.2981   14.2393  -35.6390 H   0  0  0  0  0  0  0  0  0  0  0  0
   -8.7760   15.9237  -35.8778 H   0  0  0  0  0  0  0  0  0  0  0  0
  -14.1475   17.1158  -38.5271 H   0  0  0  0  0  0  0  0  0  0  0  0
  -13.7401   16.3631  -36.9898 H   0  0  0  0  0  0  0  0  0  0  0  0
  -10.9909   16.5089  -35.9654 H   0  0  0  0  0  0  0  0  0  0  0  0
  -12.2746   15.3052  -35.7582 H   0  0  0  0  0  0  0  0  0  0  0  0
  -15.1513   14.8042  -38.2099 H   0  0  0  0  0  0  0  0  0  0  0  0
  -15.4929   15.3653  -41.7341 H   0  0  0  0  0  0  0  0  0  0  0  0
  -15.6263   16.4353  -40.3307 H   0  0  0  0  0  0  0  0  0  0  0  0
  -16.3020   14.8010  -40.2649 H   0  0  0  0  0  0  0  0  0  0  0  0
  -13.9319   13.3442  -41.6544 H   0  0  0  0  0  0  0  0  0  0  0  0
  -12.9824   13.0039  -40.2003 H   0  0  0  0  0  0  0  0  0  0  0  0
  -14.7354   12.7616  -40.1892 H   0  0  0  0  0  0  0  0  0  0  0  0
  -12.9593   15.6952  -41.7492 H   0  0  0  0  0  0  0  0  0  0  0  0
  -12.0013   15.3768  -40.2957 H   0  0  0  0  0  0  0  0  0  0  0  0
  -13.0878   16.7727  -40.3511 H   0  0  0  0  0  0  0  0  0  0  0  0
  -11.3273   13.3217  -37.6338 H   0  0  0  0  0  0  0  0  0  0  0  0
  1  2  1  0  0  0  0
  1  4  1  0  0  0  0
  2  8  1  0  0  0  0
  3  7  1  0  0  0  0
  3 13  1  0  0  0  0
  4 14  1  0  0  0  0
  5  7  1  0  0  0  0
  5 15  1  0  0  0  0
  6  8  1  0  0  0  0
  6 14  1  0  0  0  0
  7 12  1  0  0  0  0
  8 13  1  0  0  0  0
  8 15  1  0  0  0  0
  9 12  1  0  0  0  0
 10 12  1  0  0  0  0
 11 12  1  0  0  0  0
  1 16  1  0  0  0  0
  1 17  1  0  0  0  0
  2 18  1  0  0  0  0
  2 19  1  0  0  0  0
  3 20  1  0  0  0  0
  3 21  1  0  0  0  0
  4 22  1  0  0  0  0
  4 23  1  0  0  0  0
  5 24  1  0  0  0  0
  5 25  1  0  0  0  0
  6 26  1  0  0  0  0
  6 27  1  0  0  0  0
  7 28  1  0  0  0  0
  9 29  1  0  0  0  0
  9 30  1  0  0  0  0
  9 31  1  0  0  0  0
 10 32  1  0  0  0  0
 10 33  1  0  0  0  0
 10 34  1  0  0  0  0
 11 35  1  0  0  0  0
 11 36  1  0  0  0  0
 11 37  1  0  0  0  0
 13 38  1  0  0  0  0
M  END
> <id>
EN300-1279326

> <smiles>
CC(C)(C)C1CNC2(CCCOC2)OC1

> <IUPAC Name>
3-tert-butyl-1,8-dioxa-5-azaspiro[5.5]undecane

> <CAS>
2172396-32-4

> <URL>
https://www.enaminestore.com/catalog/EN300-1279326

> <ROCS_ShapeQuery>
x1247relevant_x1083L0AP1_x1305L0BP1_

> <ROCS_TanimotoCombo>
0.812 

> <ROCS_ShapeTanimoto>
0.500 

> <ROCS_ColorTanimoto>
0.312 

> <ROCS_RefTversky>
0.420 

> <ROCS_RefColorTversky>
0.325 

> <ROCS_RefTverskyCombo>
0.745 

> <ROCS_FitTversky>
1.613 

> <ROCS_FitColorTversky>
0.886 

> <ROCS_FitTverskyCombo>
2.499 

> <ROCS_ColorScore>
-6.858

> <ROCS_Overlap>
1236.858

> <ROCS_Rank>
251                 

$$$$
untitled-dbase-24356_0
  -OEChem-06162310163D

 35 38  0     1  0  0  0  0  0999 V2000
   -9.2773   16.6089  -34.8835 C   0  0  0  0  0  0  0  0  0  0  0  0
  -10.4757   17.2905  -34.8564 C   0  0  0  0  0  0  0  0  0  0  0  0
   -9.4438   15.5749  -35.8296 C   0  0  0  0  0  0  0  0  0  0  0  0
  -10.7265   15.7022  -36.3152 C   0  0  0  0  0  0  0  0  0  0  0  0
   -8.5496   14.4864  -36.2912 C   0  0  0  0  0  0  0  0  0  0  0  0
  -13.5047   14.1915  -39.3243 C   0  0  0  0  0  0  0  0  0  0  0  0
  -13.8063   16.3865  -38.1540 C   0  0  0  0  0  0  0  0  0  0  0  0
  -12.1128   14.6406  -39.7897 C   0  0  0  0  0  0  0  0  0  0  0  0
  -12.4202   16.8118  -38.6506 C   0  0  0  0  0  0  0  0  0  0  0  0
  -12.8328   14.4379  -36.9219 C   0  0  0  0  0  0  0  0  0  0  0  0
   -9.1205   13.8362  -37.5704 C   0  0  0  0  0  0  0  0  0  0  0  0
  -13.8653   14.8605  -37.9868 C   0  0  0  0  0  0  0  0  0  0  0  0
  -11.4844   15.5844  -38.7379 C   0  0  0  0  0  0  0  0  0  0  0  0
  -11.3924   14.8473  -37.3555 C   0  0  1  0  0  0  0  0  0  0  0  0
  -10.5778   13.5951  -37.4925 N   0  0  0  0  0  0  0  0  0  0  0  0
  -11.3694   16.7405  -35.7250 O   0  0  0  0  0  0  0  0  0  0  0  0
   -8.4039   16.8303  -34.2873 H   0  0  0  0  0  0  0  0  0  0  0  0
  -10.8356   18.1428  -34.2987 H   0  0  0  0  0  0  0  0  0  0  0  0
   -7.5423   14.8689  -36.4878 H   0  0  0  0  0  0  0  0  0  0  0  0
   -8.4734   13.7308  -35.4997 H   0  0  0  0  0  0  0  0  0  0  0  0
  -14.2504   14.4437  -40.0876 H   0  0  0  0  0  0  0  0  0  0  0  0
  -13.5229   13.1005  -39.2152 H   0  0  0  0  0  0  0  0  0  0  0  0
  -14.0282   16.8801  -37.2002 H   0  0  0  0  0  0  0  0  0  0  0  0
  -14.5723   16.7201  -38.8642 H   0  0  0  0  0  0  0  0  0  0  0  0
  -11.4790   13.7784  -40.0176 H   0  0  0  0  0  0  0  0  0  0  0  0
  -12.2124   15.1758  -40.7433 H   0  0  0  0  0  0  0  0  0  0  0  0
  -12.5151   17.2773  -39.6401 H   0  0  0  0  0  0  0  0  0  0  0  0
  -12.0041   17.5887  -38.0014 H   0  0  0  0  0  0  0  0  0  0  0  0
  -13.1072   14.8756  -35.9536 H   0  0  0  0  0  0  0  0  0  0  0  0
  -12.9062   13.3514  -36.7764 H   0  0  0  0  0  0  0  0  0  0  0  0
   -8.8869   14.4527  -38.4464 H   0  0  0  0  0  0  0  0  0  0  0  0
   -8.6155   12.8759  -37.7260 H   0  0  0  0  0  0  0  0  0  0  0  0
  -14.8692   14.5552  -37.6724 H   0  0  0  0  0  0  0  0  0  0  0  0
  -10.4996   15.9189  -39.0843 H   0  0  0  0  0  0  0  0  0  0  0  0
  -10.8874   13.0303  -38.2780 H   0  0  0  0  0  0  0  0  0  0  0  0
  1  2  2  0  0  0  0
  1  3  1  0  0  0  0
  2 16  1  0  0  0  0
  3  4  2  0  0  0  0
  3  5  1  0  0  0  0
  4 14  1  0  0  0  0
  4 16  1  0  0  0  0
  5 11  1  0  0  0  0
  6  8  1  0  0  0  0
  6 12  1  0  0  0  0
  7  9  1  0  0  0  0
  7 12  1  0  0  0  0
  8 13  1  0  0  0  0
  9 13  1  0  0  0  0
 10 12  1  0  0  0  0
 10 14  1  0  0  0  0
 11 15  1  0  0  0  0
 13 14  1  0  0  0  0
 14 15  1  0  0  0  0
  1 17  1  0  0  0  0
  2 18  1  0  0  0  0
  5 19  1  0  0  0  0
  5 20  1  0  0  0  0
  6 21  1  0  0  0  0
  6 22  1  0  0  0  0
  7 23  1  0  0  0  0
  7 24  1  0  0  0  0
  8 25  1  0  0  0  0
  8 26  1  0  0  0  0
  9 27  1  0  0  0  0
  9 28  1  0  0  0  0
 10 29  1  0  0  0  0
 10 30  1  0  0  0  0
 11 31  1  0  0  0  0
 11 32  1  0  0  0  0
 12 33  1  0  0  0  0
 13 34  1  0  0  0  0
 15 35  1  0  0  0  0
M  END
> <id>
EN300-1076659

> <smiles>
C1CC=2C=COC2C3(CC4CCC3CC4)N1

> <IUPAC Name>
5',6'-dihydro-4'H-spiro[bicyclo[2.2.2]octane-2,7'-furo[2,3-c]pyridine]

> <CAS>
2138009-13-7

> <URL>
https://www.enaminestore.com/catalog/EN300-1076659

> <ROCS_ShapeQuery>
x1247relevant_x1083L0AP1_x1305L0BP1_

> <ROCS_TanimotoCombo>
0.812 

> <ROCS_ShapeTanimoto>
0.459 

> <ROCS_ColorTanimoto>
0.352 

> <ROCS_RefTversky>
0.406 

> <ROCS_RefColorTversky>
0.402 

> <ROCS_RefTverskyCombo>
0.808 

> <ROCS_FitTversky>
1.400 

> <ROCS_FitColorTversky>
0.742 

> <ROCS_FitTverskyCombo>
2.142 

> <ROCS_ColorScore>
-8.557

> <ROCS_Overlap>
1197.277

> <ROCS_Rank>
252                 

$$$$
untitled-dbase-18123_29
  -OEChem-06162310163D

 34 36  0     1  0  0  0  0  0999 V2000
  -10.2551   14.8107  -37.1042 C   0  0  0  0  0  0  0  0  0  0  0  0
  -13.6041   14.2503  -37.2845 C   0  0  0  0  0  0  0  0  0  0  0  0
  -13.4942   15.7677  -36.9053 C   0  0  0  0  0  0  0  0  0  0  0  0
  -11.8261   15.6845  -40.2990 C   0  0  0  0  0  0  0  0  0  0  0  0
  -12.7825   14.7891  -39.5509 C   0  0  2  0  0  0  0  0  0  0  0  0
  -12.6768   16.2465  -39.1868 C   0  0  1  0  0  0  0  0  0  0  0  0
  -12.4199   14.0605  -38.2596 C   0  0  1  0  0  0  0  0  0  0  0  0
  -12.2632   16.2289  -37.7181 C   0  0  2  0  0  0  0  0  0  0  0  0
  -10.4732   14.7983  -34.4948 C   0  0  0  0  0  0  0  0  0  0  0  0
  -10.5055   12.2874  -34.5552 C   0  0  0  0  0  0  0  0  0  0  0  0
   -8.3509   13.5200  -34.9382 C   0  0  0  0  0  0  0  0  0  0  0  0
   -9.8663   13.5489  -35.1316 C   0  0  0  0  0  0  0  0  0  0  0  0
  -11.4899   15.0046  -37.6660 N   0  0  0  0  0  0  0  0  0  0  0  0
   -9.3545   15.6461  -37.1105 O   0  0  0  0  0  0  0  0  0  0  0  0
  -10.1463   13.5714  -36.5357 O   0  0  0  0  0  0  0  0  0  0  0  0
  -13.4813   13.6342  -36.3867 H   0  0  0  0  0  0  0  0  0  0  0  0
  -14.5729   14.0254  -37.7420 H   0  0  0  0  0  0  0  0  0  0  0  0
  -14.4073   16.3099  -37.1709 H   0  0  0  0  0  0  0  0  0  0  0  0
  -13.3193   15.8687  -35.8284 H   0  0  0  0  0  0  0  0  0  0  0  0
  -10.7614   15.5676  -40.1420 H   0  0  0  0  0  0  0  0  0  0  0  0
  -12.0885   15.9573  -41.3148 H   0  0  0  0  0  0  0  0  0  0  0  0
  -13.6692   14.4273  -40.0500 H   0  0  0  0  0  0  0  0  0  0  0  0
  -13.4883   16.9167  -39.4283 H   0  0  0  0  0  0  0  0  0  0  0  0
  -12.0501   13.0415  -38.3791 H   0  0  0  0  0  0  0  0  0  0  0  0
  -11.7486   17.1206  -37.3569 H   0  0  0  0  0  0  0  0  0  0  0  0
  -10.0170   15.7060  -34.9059 H   0  0  0  0  0  0  0  0  0  0  0  0
  -11.5548   14.8487  -34.6566 H   0  0  0  0  0  0  0  0  0  0  0  0
  -10.2833   14.8186  -33.4155 H   0  0  0  0  0  0  0  0  0  0  0  0
  -10.0731   11.3885  -35.0093 H   0  0  0  0  0  0  0  0  0  0  0  0
  -11.5789   12.2584  -34.7748 H   0  0  0  0  0  0  0  0  0  0  0  0
  -10.3718   12.2263  -33.4703 H   0  0  0  0  0  0  0  0  0  0  0  0
   -7.9154   12.6239  -35.3949 H   0  0  0  0  0  0  0  0  0  0  0  0
   -7.8713   14.4002  -35.3785 H   0  0  0  0  0  0  0  0  0  0  0  0
   -8.0947   13.4799  -33.8733 H   0  0  0  0  0  0  0  0  0  0  0  0
  1 13  1  0  0  0  0
  1 14  2  0  0  0  0
  1 15  1  0  0  0  0
  2  3  1  0  0  0  0
  2  7  1  1  0  0  0
  3  8  1  1  0  0  0
  4  5  1  0  0  0  0
  4  6  1  0  0  0  0
  5  6  1  0  0  0  0
  5  7  1  0  0  0  0
  6  8  1  0  0  0  0
  7 13  1  0  0  0  0
  8 13  1  0  0  0  0
  9 12  1  0  0  0  0
 10 12  1  0  0  0  0
 11 12  1  0  0  0  0
 12 15  1  0  0  0  0
  2 16  1  0  0  0  0
  2 17  1  0  0  0  0
  3 18  1  0  0  0  0
  3 19  1  0  0  0  0
  4 20  1  0  0  0  0
  4 21  1  0  0  0  0
  5 22  1  0  0  0  0
  6 23  1  0  0  0  0
  7 24  1  0  0  0  0
  8 25  1  0  0  0  0
  9 26  1  0  0  0  0
  9 27  1  0  0  0  0
  9 28  1  0  0  0  0
 10 29  1  0  0  0  0
 10 30  1  0  0  0  0
 10 31  1  0  0  0  0
 11 32  1  0  0  0  0
 11 33  1  0  0  0  0
 11 34  1  0  0  0  0
M  END
> <id>
EN300-1653064

> <smiles>
CC(C)(C)OC(=O)N1[C@H]2CC[C@@H]1C3CC32

> <IUPAC Name>
tert-butyl (1R,5S)-8-azatricyclo[3.2.1.0,2,4]octane-8-carboxylate

> <CAS>
2171446-46-9

> <URL>
https://www.enaminestore.com/catalog/EN300-1653064

> <ROCS_ShapeQuery>
x1247relevant_x1083L0AP1_x1305L0BP1_

> <ROCS_TanimotoCombo>
0.811 

> <ROCS_ShapeTanimoto>
0.478 

> <ROCS_ColorTanimoto>
0.334 

> <ROCS_RefTversky>
0.411 

> <ROCS_RefColorTversky>
0.473 

> <ROCS_RefTverskyCombo>
0.884 

> <ROCS_FitTversky>
1.510 

> <ROCS_FitColorTversky>
0.531 

> <ROCS_FitTverskyCombo>
2.041 

> <ROCS_ColorScore>
-10.274

> <ROCS_Overlap>
1211.904

> <ROCS_Rank>
253                 

$$$$
untitled-dbase-16409_4
  -OEChem-06162310163D

 44 47  0     1  0  0  0  0  0999 V2000
   -7.1190   14.4313  -33.5162 C   0  0  0  0  0  0  0  0  0  0  0  0
   -8.6427   14.5032  -33.4093 C   0  0  0  0  0  0  0  0  0  0  0  0
   -6.6031   14.5998  -34.9458 C   0  0  0  0  0  0  0  0  0  0  0  0
  -12.9963   17.0068  -38.3325 C   0  0  0  0  0  0  0  0  0  0  0  0
  -13.9523   16.1532  -37.4974 C   0  0  0  0  0  0  0  0  0  0  0  0
   -9.3189   13.9818  -34.6736 C   0  0  0  0  0  0  0  0  0  0  0  0
   -7.5422   15.4630  -35.7808 C   0  0  0  0  0  0  0  0  0  0  0  0
  -11.1611   15.2926  -38.9233 C   0  0  0  0  0  0  0  0  0  0  0  0
  -12.7325   13.8767  -37.5267 C   0  0  0  0  0  0  0  0  0  0  0  0
   -8.9929   13.9235  -37.1880 C   0  0  0  0  0  0  0  0  0  0  0  0
   -9.9821   15.9512  -36.1451 C   0  0  0  0  0  0  0  0  0  0  0  0
  -12.4320   16.0415  -39.3727 C   0  0  1  0  0  0  0  0  0  0  0  0
  -13.8550   14.7584  -38.1117 C   0  0  2  0  0  0  0  0  0  0  0  0
   -8.9491   14.8255  -35.9320 C   0  0  0  0  0  0  0  0  0  0  0  0
  -11.3226   14.5296  -37.5771 C   0  0  0  0  0  0  0  0  0  0  0  0
  -10.3458   13.4344  -37.4424 N   0  0  0  0  0  0  0  0  0  0  0  0
  -13.5099   15.0490  -39.5127 N   0  0  0  0  0  0  0  0  0  0  0  0
  -11.2741   15.4299  -36.4535 O   0  0  0  0  0  0  0  0  0  0  0  0
   -6.6756   15.2134  -32.8785 H   0  0  0  0  0  0  0  0  0  0  0  0
   -6.7675   13.4702  -33.1098 H   0  0  0  0  0  0  0  0  0  0  0  0
   -8.9771   13.9334  -32.5362 H   0  0  0  0  0  0  0  0  0  0  0  0
   -8.9423   15.5426  -33.2368 H   0  0  0  0  0  0  0  0  0  0  0  0
   -5.6094   15.0599  -34.9187 H   0  0  0  0  0  0  0  0  0  0  0  0
   -6.4799   13.6153  -35.4096 H   0  0  0  0  0  0  0  0  0  0  0  0
  -13.5659   17.8053  -38.8241 H   0  0  0  0  0  0  0  0  0  0  0  0
  -12.2217   17.4857  -37.7267 H   0  0  0  0  0  0  0  0  0  0  0  0
  -13.7116   16.1717  -36.4304 H   0  0  0  0  0  0  0  0  0  0  0  0
  -14.9710   16.5458  -37.6074 H   0  0  0  0  0  0  0  0  0  0  0  0
   -9.0614   12.9312  -34.8129 H   0  0  0  0  0  0  0  0  0  0  0  0
  -10.4016   14.0221  -34.5246 H   0  0  0  0  0  0  0  0  0  0  0  0
   -7.6392   16.4399  -35.2991 H   0  0  0  0  0  0  0  0  0  0  0  0
   -7.0983   15.6362  -36.7636 H   0  0  0  0  0  0  0  0  0  0  0  0
  -10.9018   14.5787  -39.7182 H   0  0  0  0  0  0  0  0  0  0  0  0
  -10.3369   16.0115  -38.8771 H   0  0  0  0  0  0  0  0  0  0  0  0
  -12.9884   13.6255  -36.4885 H   0  0  0  0  0  0  0  0  0  0  0  0
  -12.7296   12.9326  -38.0908 H   0  0  0  0  0  0  0  0  0  0  0  0
   -8.6258   14.4714  -38.0640 H   0  0  0  0  0  0  0  0  0  0  0  0
   -8.3348   13.0575  -37.0750 H   0  0  0  0  0  0  0  0  0  0  0  0
  -10.0867   16.5564  -35.2362 H   0  0  0  0  0  0  0  0  0  0  0  0
   -9.6665   16.6432  -36.9347 H   0  0  0  0  0  0  0  0  0  0  0  0
  -12.2390   16.5471  -40.3249 H   0  0  0  0  0  0  0  0  0  0  0  0
  -14.8092   14.2252  -38.0445 H   0  0  0  0  0  0  0  0  0  0  0  0
  -10.3499   12.8555  -38.2803 H   0  0  0  0  0  0  0  0  0  0  0  0
  -14.3107   15.4954  -39.9620 H   0  0  0  0  0  0  0  0  0  0  0  0
  1  2  1  0  0  0  0
  1  3  1  0  0  0  0
  2  6  1  0  0  0  0
  3  7  1  0  0  0  0
  4  5  1  0  0  0  0
  4 12  1  0  0  0  0
  5 13  1  0  0  0  0
  6 14  1  0  0  0  0
  7 14  1  0  0  0  0
  8 12  1  0  0  0  0
  8 15  1  0  0  0  0
  9 13  1  0  0  0  0
  9 15  1  0  0  0  0
 10 14  1  0  0  0  0
 10 16  1  0  0  0  0
 11 14  1  0  0  0  0
 11 18  1  0  0  0  0
 12 17  1  0  0  0  0
 13 17  1  0  0  0  0
 15 16  1  0  0  0  0
 15 18  1  0  0  0  0
  1 19  1  0  0  0  0
  1 20  1  0  0  0  0
  2 21  1  0  0  0  0
  2 22  1  0  0  0  0
  3 23  1  0  0  0  0
  3 24  1  0  0  0  0
  4 25  1  0  0  0  0
  4 26  1  0  0  0  0
  5 27  1  0  0  0  0
  5 28  1  0  0  0  0
  6 29  1  0  0  0  0
  6 30  1  0  0  0  0
  7 31  1  0  0  0  0
  7 32  1  0  0  0  0
  8 33  1  0  0  0  0
  8 34  1  0  0  0  0
  9 35  1  0  0  0  0
  9 36  1  0  0  0  0
 10 37  1  0  0  0  0
 10 38  1  0  0  0  0
 11 39  1  0  0  0  0
 11 40  1  0  0  0  0
 12 41  1  0  0  0  0
 13 42  1  0  0  0  0
 16 43  1  0  0  0  0
 17 44  1  0  0  0  0
M  END
> <id>
EN300-1279942

> <smiles>
C1CC2CC3(CC1N2)NCC4(CCCCC4)CO3

> <IUPAC Name>
dispiro[8-azabicyclo[3.2.1]octane-3,2'-[1,3]oxazinane-5',1''-cyclohexane]

> <URL>
https://www.enaminestore.com/catalog/EN300-1279942

> <ROCS_ShapeQuery>
x1247relevant_x1083L0AP1_x1305L0BP1_

> <ROCS_TanimotoCombo>
0.811 

> <ROCS_ShapeTanimoto>
0.486 

> <ROCS_ColorTanimoto>
0.326 

> <ROCS_RefTversky>
0.429 

> <ROCS_RefColorTversky>
0.398 

> <ROCS_RefTverskyCombo>
0.826 

> <ROCS_FitTversky>
1.375 

> <ROCS_FitColorTversky>
0.643 

> <ROCS_FitTverskyCombo>
2.018 

> <ROCS_ColorScore>
-8.508

> <ROCS_Overlap>
1265.748

> <ROCS_Rank>
254                 

$$$$
untitled-dbase-37344_0
  -OEChem-06162310163D

 32 35  0     1  0  0  0  0  0999 V2000
  -10.1700   15.7821  -36.8355 C   0  0  0  0  0  0  0  0  0  0  0  0
   -9.5425   13.6104  -36.6437 C   0  0  0  0  0  0  0  0  0  0  0  0
  -15.7998   13.9282  -38.6717 C   0  0  0  0  0  0  0  0  0  0  0  0
  -15.0302   14.7346  -39.7072 C   0  0  0  0  0  0  0  0  0  0  0  0
  -15.0208   14.1663  -37.3871 C   0  0  0  0  0  0  0  0  0  0  0  0
  -13.0193   16.4549  -38.0153 C   0  0  0  0  0  0  0  0  0  0  0  0
  -11.2122   15.4075  -39.1541 C   0  0  0  0  0  0  0  0  0  0  0  0
  -13.5610   14.5260  -39.3336 C   0  0  2  0  0  0  0  0  0  0  0  0
  -13.5575   14.1316  -37.8343 C   0  0  1  0  0  0  0  0  0  0  0  0
  -12.6927   15.8042  -39.3610 C   0  0  1  0  0  0  0  0  0  0  0  0
  -12.6398   15.2032  -37.2022 C   0  0  1  0  0  0  0  0  0  0  0  0
  -11.1798   14.9834  -37.6738 C   0  0  2  0  0  0  0  0  0  0  0  0
   -9.2744   14.9057  -36.2735 N   0  0  0  0  0  0  0  0  0  0  0  0
  -10.6611   13.6498  -37.4728 N   0  0  0  0  0  0  0  0  0  0  0  0
  -10.1669   16.9971  -36.6919 O   0  0  0  0  0  0  0  0  0  0  0  0
   -8.9178   12.6107  -36.3167 O   0  0  0  0  0  0  0  0  0  0  0  0
  -16.8432   14.2456  -38.5896 H   0  0  0  0  0  0  0  0  0  0  0  0
  -15.7849   12.8634  -38.9326 H   0  0  0  0  0  0  0  0  0  0  0  0
  -15.2406   14.3913  -40.7250 H   0  0  0  0  0  0  0  0  0  0  0  0
  -15.3166   15.7912  -39.6547 H   0  0  0  0  0  0  0  0  0  0  0  0
  -15.2948   15.1313  -36.9474 H   0  0  0  0  0  0  0  0  0  0  0  0
  -15.2317   13.3974  -36.6371 H   0  0  0  0  0  0  0  0  0  0  0  0
  -12.3974   17.3295  -37.8031 H   0  0  0  0  0  0  0  0  0  0  0  0
  -14.0667   16.7509  -37.9125 H   0  0  0  0  0  0  0  0  0  0  0  0
  -10.9196   14.6028  -39.8376 H   0  0  0  0  0  0  0  0  0  0  0  0
  -10.5561   16.2650  -39.3435 H   0  0  0  0  0  0  0  0  0  0  0  0
  -13.1273   13.7296  -39.9500 H   0  0  0  0  0  0  0  0  0  0  0  0
  -13.1756   13.1148  -37.6976 H   0  0  0  0  0  0  0  0  0  0  0  0
  -12.8537   16.4332  -40.2391 H   0  0  0  0  0  0  0  0  0  0  0  0
  -12.7572   15.3180  -36.1217 H   0  0  0  0  0  0  0  0  0  0  0  0
   -8.5072   15.1806  -35.6711 H   0  0  0  0  0  0  0  0  0  0  0  0
  -11.0501   12.8177  -37.9048 H   0  0  0  0  0  0  0  0  0  0  0  0
  1 12  1  0  0  0  0
  1 13  1  0  0  0  0
  1 15  2  0  0  0  0
  2 13  1  0  0  0  0
  2 14  1  0  0  0  0
  2 16  2  0  0  0  0
  3  4  1  0  0  0  0
  3  5  1  0  0  0  0
  4  8  1  0  0  0  0
  5  9  1  0  0  0  0
  6 10  1  0  0  0  0
  6 11  1  0  0  0  0
  7 10  1  0  0  0  0
  7 12  1  0  0  0  0
  8  9  1  0  0  0  0
  8 10  1  0  0  0  0
  9 11  1  0  0  0  0
 11 12  1  0  0  0  0
 12 14  1  0  0  0  0
  3 17  1  0  0  0  0
  3 18  1  0  0  0  0
  4 19  1  0  0  0  0
  4 20  1  0  0  0  0
  5 21  1  0  0  0  0
  5 22  1  0  0  0  0
  6 23  1  0  0  0  0
  6 24  1  0  0  0  0
  7 25  1  0  0  0  0
  7 26  1  0  0  0  0
  8 27  1  0  0  0  0
  9 28  1  0  0  0  0
 10 29  1  0  0  0  0
 11 30  1  0  0  0  0
 13 31  1  0  0  0  0
 14 32  1  0  0  0  0
M  END
> <id>
EN300-196583

> <smiles>
O=C1NC(=O)C2(CC3CC2C4CCCC34)N1

> <MDLNUMBER>
MFCD17237707

> <IUPAC Name>
spiro[imidazolidine-4,8'-tricyclo[5.2.1.0,2,6]decane]-2,5-dione

> <CAS>
59455-06-0

> <Purity>
95

> <URL>
https://www.enaminestore.com/catalog/EN300-196583

> <ROCS_ShapeQuery>
x1247relevant_x1083L0AP1_x1305L0BP1_

> <ROCS_TanimotoCombo>
0.811 

> <ROCS_ShapeTanimoto>
0.510 

> <ROCS_ColorTanimoto>
0.301 

> <ROCS_RefTversky>
0.437 

> <ROCS_RefColorTversky>
0.371 

> <ROCS_RefTverskyCombo>
0.808 

> <ROCS_FitTversky>
1.486 

> <ROCS_FitColorTversky>
0.615 

> <ROCS_FitTverskyCombo>
2.101 

> <ROCS_ColorScore>
-7.922

> <ROCS_Overlap>
1289.797

> <ROCS_Rank>
255                 

$$$$
untitled-dbase-39847_3
  -OEChem-06162310163D

 30 33  0     1  0  0  0  0  0999 V2000
   -8.4940   17.1352  -36.3323 C   0  0  0  0  0  0  0  0  0  0  0  0
   -9.4222   18.0557  -36.7657 C   0  0  0  0  0  0  0  0  0  0  0  0
   -9.0681   15.8650  -36.5687 C   0  0  0  0  0  0  0  0  0  0  0  0
  -10.3011   16.1007  -37.1401 C   0  0  0  0  0  0  0  0  0  0  0  0
   -8.5496   14.4992  -36.3085 C   0  0  0  0  0  0  0  0  0  0  0  0
  -12.5964   14.8588  -36.7889 C   0  0  0  0  0  0  0  0  0  0  0  0
   -9.7036   13.4817  -36.2965 C   0  0  0  0  0  0  0  0  0  0  0  0
  -14.4253   15.2969  -38.6492 C   0  0  0  0  0  0  0  0  0  0  0  0
  -12.5469   16.3368  -39.4324 C   0  0  0  0  0  0  0  0  0  0  0  0
  -13.2615   14.4706  -38.1404 C   0  0  1  0  0  0  0  0  0  0  0  0
  -12.0178   15.0307  -38.8607 C   0  0  2  0  0  0  0  0  0  0  0  0
  -11.2396   14.9394  -37.5187 C   0  0  1  0  0  0  0  0  0  0  0  0
  -10.5666   13.6147  -37.4829 N   0  0  0  0  0  0  0  0  0  0  0  0
  -10.5290   17.4337  -37.2533 O   0  0  0  0  0  0  0  0  0  0  0  0
  -13.9223   16.0908  -39.7277 O   0  0  0  0  0  0  0  0  0  0  0  0
   -7.5300   17.3564  -35.8978 H   0  0  0  0  0  0  0  0  0  0  0  0
   -9.4457   19.1353  -36.7920 H   0  0  0  0  0  0  0  0  0  0  0  0
   -7.8179   14.2157  -37.0714 H   0  0  0  0  0  0  0  0  0  0  0  0
   -8.0409   14.4914  -35.3378 H   0  0  0  0  0  0  0  0  0  0  0  0
  -12.9548   15.8060  -36.3789 H   0  0  0  0  0  0  0  0  0  0  0  0
  -12.6895   14.1013  -36.0089 H   0  0  0  0  0  0  0  0  0  0  0  0
   -9.3101   12.4602  -36.2315 H   0  0  0  0  0  0  0  0  0  0  0  0
  -10.3083   13.6474  -35.3985 H   0  0  0  0  0  0  0  0  0  0  0  0
  -15.2300   14.6560  -39.0361 H   0  0  0  0  0  0  0  0  0  0  0  0
  -14.8507   15.9512  -37.8782 H   0  0  0  0  0  0  0  0  0  0  0  0
  -12.4539   17.1799  -38.7512 H   0  0  0  0  0  0  0  0  0  0  0  0
  -12.0393   16.5857  -40.3665 H   0  0  0  0  0  0  0  0  0  0  0  0
  -13.3866   13.3768  -38.2516 H   0  0  0  0  0  0  0  0  0  0  0  0
  -11.6421   14.3851  -39.6641 H   0  0  0  0  0  0  0  0  0  0  0  0
  -10.0194   13.4012  -38.3193 H   0  0  0  0  0  0  0  0  0  0  0  0
  1  2  2  0  0  0  0
  1  3  1  0  0  0  0
  2 14  1  0  0  0  0
  3  4  2  0  0  0  0
  3  5  1  0  0  0  0
  4 12  1  0  0  0  0
  4 14  1  0  0  0  0
  5  7  1  0  0  0  0
  6 10  1  0  0  0  0
  6 12  1  0  0  0  0
  7 13  1  0  0  0  0
  8 10  1  0  0  0  0
  8 15  1  0  0  0  0
  9 11  1  0  0  0  0
  9 15  1  0  0  0  0
 10 11  1  0  0  0  0
 11 12  1  0  0  0  0
 12 13  1  0  0  0  0
  1 16  1  0  0  0  0
  2 17  1  0  0  0  0
  5 18  1  0  0  0  0
  5 19  1  0  0  0  0
  6 20  1  0  0  0  0
  6 21  1  0  0  0  0
  7 22  1  0  0  0  0
  7 23  1  0  0  0  0
  8 24  1  0  0  0  0
  8 25  1  0  0  0  0
  9 26  1  0  0  0  0
  9 27  1  0  0  0  0
 10 28  1  0  0  0  0
 11 29  1  0  0  0  0
 13 30  1  0  0  0  0
M  END
> <id>
EN300-1075470

> <smiles>
C1C2COCC2C13NCCC=4C=COC43

> <IUPAC Name>
5',6'-dihydro-4'H-3-oxaspiro[bicyclo[3.2.0]heptane-6,7'-furo[2,3-c]pyridine]

> <URL>
https://www.enaminestore.com/catalog/EN300-1075470

> <ROCS_ShapeQuery>
x1247relevant_x1083L0AP1_x1305L0BP1_

> <ROCS_TanimotoCombo>
0.811 

> <ROCS_ShapeTanimoto>
0.456 

> <ROCS_ColorTanimoto>
0.355 

> <ROCS_RefTversky>
0.400 

> <ROCS_RefColorTversky>
0.409 

> <ROCS_RefTverskyCombo>
0.809 

> <ROCS_FitTversky>
1.441 

> <ROCS_FitColorTversky>
0.730 

> <ROCS_FitTverskyCombo>
2.170 

> <ROCS_ColorScore>
-8.723

> <ROCS_Overlap>
1178.812

> <ROCS_Rank>
256                 

$$$$
untitled-dbase-35777_9
  -OEChem-06162310163D

 39 41  0     1  0  0  0  0  0999 V2000
  -13.7338   14.7381  -40.6512 C   0  0  0  0  0  0  0  0  0  0  0  0
   -8.9868   13.5471  -37.3993 C   0  0  0  0  0  0  0  0  0  0  0  0
  -10.9588   15.1650  -39.0356 C   0  0  0  0  0  0  0  0  0  0  0  0
   -8.4277   14.6336  -36.4926 C   0  0  0  0  0  0  0  0  0  0  0  0
  -10.4439   15.8340  -36.6080 C   0  0  0  0  0  0  0  0  0  0  0  0
  -12.5903   14.6580  -37.1641 C   0  0  0  0  0  0  0  0  0  0  0  0
  -14.4877   16.3395  -39.1070 C   0  0  0  0  0  0  0  0  0  0  0  0
  -11.0939   14.7857  -37.5371 C   0  0  1  0  0  0  0  0  0  0  0  0
  -13.3296   15.3719  -39.3240 C   0  0  2  0  0  0  0  0  0  0  0  0
  -15.2670   14.7011  -40.5888 C   0  0  0  0  0  0  0  0  0  0  0  0
  -15.8051   13.3436  -40.1331 C   0  0  0  0  0  0  0  0  0  0  0  0
  -15.8922   15.0810  -41.9310 C   0  0  0  0  0  0  0  0  0  0  0  0
  -10.4434   13.4834  -37.2868 N   0  0  0  0  0  0  0  0  0  0  0  0
  -12.0403   16.0684  -39.4351 N   0  0  0  0  0  0  0  0  0  0  0  0
   -9.0284   15.8909  -36.7993 O   0  0  0  0  0  0  0  0  0  0  0  0
  -13.3724   14.3435  -38.3149 O   0  0  0  0  0  0  0  0  0  0  0  0
  -15.6623   15.6848  -39.6133 O   0  0  0  0  0  0  0  0  0  0  0  0
  -13.4120   15.3843  -41.4805 H   0  0  0  0  0  0  0  0  0  0  0  0
  -13.3064   13.7472  -40.8354 H   0  0  0  0  0  0  0  0  0  0  0  0
   -8.7116   13.7495  -38.4388 H   0  0  0  0  0  0  0  0  0  0  0  0
   -8.5545   12.5757  -37.1398 H   0  0  0  0  0  0  0  0  0  0  0  0
  -10.0029   15.6596  -39.2242 H   0  0  0  0  0  0  0  0  0  0  0  0
  -10.9797   14.2717  -39.6656 H   0  0  0  0  0  0  0  0  0  0  0  0
   -8.6562   14.4007  -35.4476 H   0  0  0  0  0  0  0  0  0  0  0  0
   -7.3376   14.7155  -36.5820 H   0  0  0  0  0  0  0  0  0  0  0  0
  -10.8635   16.8367  -36.7716 H   0  0  0  0  0  0  0  0  0  0  0  0
  -10.6048   15.5920  -35.5510 H   0  0  0  0  0  0  0  0  0  0  0  0
  -12.7458   13.8914  -36.3990 H   0  0  0  0  0  0  0  0  0  0  0  0
  -12.9849   15.5935  -36.7590 H   0  0  0  0  0  0  0  0  0  0  0  0
  -14.6545   16.5882  -38.0540 H   0  0  0  0  0  0  0  0  0  0  0  0
  -14.3695   17.2688  -39.6775 H   0  0  0  0  0  0  0  0  0  0  0  0
  -16.8924   13.3705  -40.1060 H   0  0  0  0  0  0  0  0  0  0  0  0
  -15.4273   13.1145  -39.1390 H   0  0  0  0  0  0  0  0  0  0  0  0
  -15.4826   12.5698  -40.8266 H   0  0  0  0  0  0  0  0  0  0  0  0
  -16.9774   15.0455  -41.8547 H   0  0  0  0  0  0  0  0  0  0  0  0
  -15.5650   14.3836  -42.6999 H   0  0  0  0  0  0  0  0  0  0  0  0
  -15.5860   16.0881  -42.2077 H   0  0  0  0  0  0  0  0  0  0  0  0
  -10.7892   12.8078  -37.9678 H   0  0  0  0  0  0  0  0  0  0  0  0
  -12.0457   16.8812  -38.8346 H   0  0  0  0  0  0  0  0  0  0  0  0
  1  9  1  0  0  0  0
  1 10  1  0  0  0  0
  2  4  1  0  0  0  0
  2 13  1  0  0  0  0
  3  8  1  0  0  0  0
  3 14  1  0  0  0  0
  4 15  1  0  0  0  0
  5  8  1  0  0  0  0
  5 15  1  0  0  0  0
  6  8  1  0  0  0  0
  6 16  1  0  0  0  0
  7  9  1  0  0  0  0
  7 17  1  0  0  0  0
  8 13  1  0  0  0  0
  9 14  1  0  0  0  0
  9 16  1  0  0  0  0
 10 11  1  0  0  0  0
 10 12  1  0  0  0  0
 10 17  1  0  0  0  0
  1 18  1  0  0  0  0
  1 19  1  0  0  0  0
  2 20  1  0  0  0  0
  2 21  1  0  0  0  0
  3 22  1  0  0  0  0
  3 23  1  0  0  0  0
  4 24  1  0  0  0  0
  4 25  1  0  0  0  0
  5 26  1  0  0  0  0
  5 27  1  0  0  0  0
  6 28  1  0  0  0  0
  6 29  1  0  0  0  0
  7 30  1  0  0  0  0
  7 31  1  0  0  0  0
 11 32  1  0  0  0  0
 11 33  1  0  0  0  0
 11 34  1  0  0  0  0
 12 35  1  0  0  0  0
 12 36  1  0  0  0  0
 12 37  1  0  0  0  0
 13 38  1  0  0  0  0
 14 39  1  0  0  0  0
M  END
> <id>
EN300-1280614

> <smiles>
CC1(C)CC2(CO1)NCC3(COCCN3)CO2

> <IUPAC Name>
3,3-dimethyl-2,6,12-trioxa-9,15-diazadispiro[4.2.5^{8}.2^{5}]pentadecane

> <CAS>
2172202-58-1

> <URL>
https://www.enaminestore.com/catalog/EN300-1280614

> <ROCS_ShapeQuery>
x1247relevant_x1083L0AP1_x1305L0BP1_

> <ROCS_TanimotoCombo>
0.811 

> <ROCS_ShapeTanimoto>
0.519 

> <ROCS_ColorTanimoto>
0.292 

> <ROCS_RefTversky>
0.443 

> <ROCS_RefColorTversky>
0.349 

> <ROCS_RefTverskyCombo>
0.792 

> <ROCS_FitTversky>
1.487 

> <ROCS_FitColorTversky>
0.643 

> <ROCS_FitTverskyCombo>
2.130 

> <ROCS_ColorScore>
-7.426

> <ROCS_Overlap>
1307.509

> <ROCS_Rank>
257                 

$$$$
untitled-dbase-27490_9
  -OEChem-06162310163D

 24 25  0     1  0  0  0  0  0999 V2000
  -12.6026   13.8133  -38.7136 C   0  0  0  0  0  0  0  0  0  0  0  0
  -11.1790   15.8808  -38.3783 C   0  0  0  0  0  0  0  0  0  0  0  0
  -12.4522   14.6703  -36.5427 C   0  0  0  0  0  0  0  0  0  0  0  0
  -13.8177   14.6816  -38.4316 C   0  0  2  0  0  0  0  0  0  0  0  0
  -12.2433   16.5593  -39.2592 C   0  0  2  0  0  0  0  0  0  0  0  0
  -13.6875   16.1128  -38.9774 C   0  0  1  0  0  0  0  0  0  0  0  0
  -11.5963   14.5018  -37.8049 C   0  0  1  0  0  0  0  0  0  0  0  0
  -10.4111   13.7012  -37.5294 N   0  0  0  0  0  0  0  0  0  0  0  0
  -13.8155   14.7934  -36.9893 O   0  0  0  0  0  0  0  0  0  0  0  0
  -11.9062   16.3476  -40.6349 O   0  0  0  0  0  0  0  0  0  0  0  0
  -14.4903   16.2629  -40.1450 O   0  0  0  0  0  0  0  0  0  0  0  0
  -12.7908   12.7833  -38.3809 H   0  0  0  0  0  0  0  0  0  0  0  0
  -12.3073   13.7796  -39.7673 H   0  0  0  0  0  0  0  0  0  0  0  0
  -10.2389   15.7785  -38.9565 H   0  0  0  0  0  0  0  0  0  0  0  0
  -10.9183   16.5763  -37.5568 H   0  0  0  0  0  0  0  0  0  0  0  0
  -12.4079   13.7861  -35.8935 H   0  0  0  0  0  0  0  0  0  0  0  0
  -12.1758   15.5444  -35.9414 H   0  0  0  0  0  0  0  0  0  0  0  0
  -14.7465   14.2139  -38.7591 H   0  0  0  0  0  0  0  0  0  0  0  0
  -12.1707   17.6492  -39.1010 H   0  0  0  0  0  0  0  0  0  0  0  0
  -14.1192   16.8336  -38.2264 H   0  0  0  0  0  0  0  0  0  0  0  0
  -10.6944   12.8576  -37.0855 H   0  0  0  0  0  0  0  0  0  0  0  0
   -9.9559   13.5027  -38.3912 H   0  0  0  0  0  0  0  0  0  0  0  0
  -12.5937   16.7857  -41.1618 H   0  0  0  0  0  0  0  0  0  0  0  0
  -15.4042   16.0802  -39.8771 H   0  0  0  0  0  0  0  0  0  0  0  0
  1  4  1  0  0  0  0
  1  7  1  0  0  0  0
  2  5  1  0  0  0  0
  2  7  1  0  0  0  0
  3  7  1  0  0  0  0
  3  9  1  0  0  0  0
  4  6  1  0  0  0  0
  4  9  1  0  0  0  0
  5  6  1  0  0  0  0
  5 10  1  1  0  0  0
  6 11  1  1  0  0  0
  7  8  1  0  0  0  0
  1 12  1  0  0  0  0
  1 13  1  0  0  0  0
  2 14  1  0  0  0  0
  2 15  1  0  0  0  0
  3 16  1  0  0  0  0
  3 17  1  0  0  0  0
  4 18  1  0  0  0  0
  5 19  1  0  0  0  0
  6 20  1  0  0  0  0
  8 21  1  0  0  0  0
  8 22  1  0  0  0  0
 10 23  1  0  0  0  0
 11 24  1  0  0  0  0
M  END
> <id>
EN300-7440589

> <smiles>
Cl.NC1(COC2C1)C[C@@H](O)[C@H]2O |&1:8,10,r|

> <IUPAC Name>
rac-(3R,4R)-1-amino-6-oxabicyclo[3.2.1]octane-3,4-diol hydrochloride

> <CAS>
2422964-51-8

> <Purity>
95

> <URL>
https://www.enaminestore.com/catalog/EN300-7440589

> <Saltdate>
Cl

> <ROCS_ShapeQuery>
x1247relevant_x1083L0AP1_x1305L0BP1_

> <ROCS_TanimotoCombo>
0.810 

> <ROCS_ShapeTanimoto>
0.422 

> <ROCS_ColorTanimoto>
0.389 

> <ROCS_RefTversky>
0.359 

> <ROCS_RefColorTversky>
0.454 

> <ROCS_RefTverskyCombo>
0.813 

> <ROCS_FitTversky>
1.713 

> <ROCS_FitColorTversky>
0.729 

> <ROCS_FitTverskyCombo>
2.442 

> <ROCS_ColorScore>
-9.717

> <ROCS_Overlap>
1053.455

> <ROCS_Rank>
258                 

$$$$
untitled-dbase-49461_9
  -OEChem-06162310163D

 24 25  0     1  0  0  0  0  0999 V2000
  -12.6026   13.8133  -38.7136 C   0  0  0  0  0  0  0  0  0  0  0  0
  -11.1790   15.8808  -38.3783 C   0  0  0  0  0  0  0  0  0  0  0  0
  -12.4522   14.6703  -36.5427 C   0  0  0  0  0  0  0  0  0  0  0  0
  -13.8177   14.6816  -38.4316 C   0  0  2  0  0  0  0  0  0  0  0  0
  -12.2433   16.5593  -39.2592 C   0  0  2  0  0  0  0  0  0  0  0  0
  -13.6875   16.1128  -38.9774 C   0  0  1  0  0  0  0  0  0  0  0  0
  -11.5963   14.5018  -37.8049 C   0  0  1  0  0  0  0  0  0  0  0  0
  -10.4111   13.7012  -37.5294 N   0  0  0  0  0  0  0  0  0  0  0  0
  -13.8155   14.7934  -36.9893 O   0  0  0  0  0  0  0  0  0  0  0  0
  -11.9062   16.3476  -40.6349 O   0  0  0  0  0  0  0  0  0  0  0  0
  -14.4903   16.2629  -40.1450 O   0  0  0  0  0  0  0  0  0  0  0  0
  -12.7908   12.7833  -38.3809 H   0  0  0  0  0  0  0  0  0  0  0  0
  -12.3073   13.7796  -39.7673 H   0  0  0  0  0  0  0  0  0  0  0  0
  -10.2389   15.7785  -38.9565 H   0  0  0  0  0  0  0  0  0  0  0  0
  -10.9183   16.5763  -37.5568 H   0  0  0  0  0  0  0  0  0  0  0  0
  -12.4079   13.7861  -35.8935 H   0  0  0  0  0  0  0  0  0  0  0  0
  -12.1758   15.5444  -35.9414 H   0  0  0  0  0  0  0  0  0  0  0  0
  -14.7465   14.2139  -38.7591 H   0  0  0  0  0  0  0  0  0  0  0  0
  -12.1707   17.6492  -39.1010 H   0  0  0  0  0  0  0  0  0  0  0  0
  -14.1192   16.8336  -38.2264 H   0  0  0  0  0  0  0  0  0  0  0  0
  -10.6944   12.8576  -37.0855 H   0  0  0  0  0  0  0  0  0  0  0  0
   -9.9559   13.5027  -38.3912 H   0  0  0  0  0  0  0  0  0  0  0  0
  -12.5937   16.7857  -41.1618 H   0  0  0  0  0  0  0  0  0  0  0  0
  -15.4042   16.0802  -39.8771 H   0  0  0  0  0  0  0  0  0  0  0  0
  1  4  1  0  0  0  0
  1  7  1  0  0  0  0
  2  5  1  0  0  0  0
  2  7  1  0  0  0  0
  3  7  1  0  0  0  0
  3  9  1  0  0  0  0
  4  6  1  0  0  0  0
  4  9  1  0  0  0  0
  5  6  1  0  0  0  0
  5 10  1  1  0  0  0
  6 11  1  1  0  0  0
  7  8  1  0  0  0  0
  1 12  1  0  0  0  0
  1 13  1  0  0  0  0
  2 14  1  0  0  0  0
  2 15  1  0  0  0  0
  3 16  1  0  0  0  0
  3 17  1  0  0  0  0
  4 18  1  0  0  0  0
  5 19  1  0  0  0  0
  6 20  1  0  0  0  0
  8 21  1  0  0  0  0
  8 22  1  0  0  0  0
 10 23  1  0  0  0  0
 11 24  1  0  0  0  0
M  END
> <id>
EN300-7437679

> <smiles>
NC1(COC2C1)C[C@@H](O)[C@H]2O |&1:7,9,r|

> <IUPAC Name>
rac-(3R,4R)-1-amino-6-oxabicyclo[3.2.1]octane-3,4-diol

> <CAS>
2422964-50-7

> <URL>
https://www.enaminestore.com/catalog/EN300-7437679

> <ROCS_ShapeQuery>
x1247relevant_x1083L0AP1_x1305L0BP1_

> <ROCS_TanimotoCombo>
0.810 

> <ROCS_ShapeTanimoto>
0.422 

> <ROCS_ColorTanimoto>
0.389 

> <ROCS_RefTversky>
0.359 

> <ROCS_RefColorTversky>
0.454 

> <ROCS_RefTverskyCombo>
0.813 

> <ROCS_FitTversky>
1.713 

> <ROCS_FitColorTversky>
0.729 

> <ROCS_FitTverskyCombo>
2.442 

> <ROCS_ColorScore>
-9.717

> <ROCS_Overlap>
1053.455

> <ROCS_Rank>
259                 

$$$$
untitled-dbase-51173_36
  -OEChem-06162310163D

 32 33  0     0  0  0  0  0  0999 V2000
  -12.3983   16.1718  -39.6331 C   0  0  0  0  0  0  0  0  0  0  0  0
   -9.9129   14.9095  -37.0723 C   0  0  0  0  0  0  0  0  0  0  0  0
  -11.0364   15.9935  -38.9769 C   0  0  0  0  0  0  0  0  0  0  0  0
  -13.2238   13.9645  -38.5300 C   0  0  0  0  0  0  0  0  0  0  0  0
  -13.5608   15.6864  -37.3564 C   0  0  0  0  0  0  0  0  0  0  0  0
  -13.5683   15.4414  -38.8976 C   0  0  0  0  0  0  0  0  0  0  0  0
  -12.4420   14.6035  -37.3447 C   0  0  0  0  0  0  0  0  0  0  0  0
  -10.9105   14.5441  -34.4173 C   0  0  0  0  0  0  0  0  0  0  0  0
   -9.8032   12.2914  -34.5103 C   0  0  0  0  0  0  0  0  0  0  0  0
   -8.4140   14.3761  -34.6887 C   0  0  0  0  0  0  0  0  0  0  0  0
   -9.7612   13.7326  -35.0136 C   0  0  0  0  0  0  0  0  0  0  0  0
  -11.1037   15.1546  -37.7694 N   0  0  0  0  0  0  0  0  0  0  0  0
  -12.5177   16.8463  -40.6580 O   0  0  0  0  0  0  0  0  0  0  0  0
   -8.9648   15.6916  -37.0322 O   0  0  0  0  0  0  0  0  0  0  0  0
   -9.9185   13.6974  -36.4365 O   0  0  0  0  0  0  0  0  0  0  0  0
  -10.3535   15.5150  -39.6856 H   0  0  0  0  0  0  0  0  0  0  0  0
  -10.6430   16.9733  -38.6885 H   0  0  0  0  0  0  0  0  0  0  0  0
  -14.0855   13.3539  -38.2354 H   0  0  0  0  0  0  0  0  0  0  0  0
  -12.6303   13.4061  -39.2594 H   0  0  0  0  0  0  0  0  0  0  0  0
  -13.2727   16.6873  -37.0229 H   0  0  0  0  0  0  0  0  0  0  0  0
  -14.4853   15.3966  -36.8431 H   0  0  0  0  0  0  0  0  0  0  0  0
  -14.5374   15.5833  -39.3841 H   0  0  0  0  0  0  0  0  0  0  0  0
  -12.4083   13.9931  -36.4392 H   0  0  0  0  0  0  0  0  0  0  0  0
  -10.8839   15.5792  -34.7762 H   0  0  0  0  0  0  0  0  0  0  0  0
  -11.8839   14.1125  -34.6725 H   0  0  0  0  0  0  0  0  0  0  0  0
  -10.8292   14.5932  -33.3255 H   0  0  0  0  0  0  0  0  0  0  0  0
   -8.9804   11.7055  -34.9355 H   0  0  0  0  0  0  0  0  0  0  0  0
  -10.7292   11.7955  -34.8232 H   0  0  0  0  0  0  0  0  0  0  0  0
   -9.7357   12.2425  -33.4187 H   0  0  0  0  0  0  0  0  0  0  0  0
   -7.5894   13.7943  -35.1163 H   0  0  0  0  0  0  0  0  0  0  0  0
   -8.3519   15.3987  -35.0749 H   0  0  0  0  0  0  0  0  0  0  0  0
   -8.2454   14.4019  -33.6061 H   0  0  0  0  0  0  0  0  0  0  0  0
  1  3  1  0  0  0  0
  1  6  1  0  0  0  0
  1 13  2  0  0  0  0
  2 12  1  0  0  0  0
  2 14  2  0  0  0  0
  2 15  1  0  0  0  0
  3 12  1  0  0  0  0
  4  6  1  1  0  0  0
  4  7  1  1  0  0  0
  5  6  1  0  0  0  0
  5  7  1  0  0  0  0
  7 12  1  0  0  0  0
  8 11  1  0  0  0  0
  9 11  1  0  0  0  0
 10 11  1  0  0  0  0
 11 15  1  0  0  0  0
  3 16  1  0  0  0  0
  3 17  1  0  0  0  0
  4 18  1  0  0  0  0
  4 19  1  0  0  0  0
  5 20  1  0  0  0  0
  5 21  1  0  0  0  0
  6 22  1  0  0  0  0
  7 23  1  0  0  0  0
  8 24  1  0  0  0  0
  8 25  1  0  0  0  0
  8 26  1  0  0  0  0
  9 27  1  0  0  0  0
  9 28  1  0  0  0  0
  9 29  1  0  0  0  0
 10 30  1  0  0  0  0
 10 31  1  0  0  0  0
 10 32  1  0  0  0  0
M  END
> <id>
EN300-37367421

> <smiles>
CC(C)(C)OC(=O)N1CC(=O)[C@H]2C[C@@H]1C2

> <IUPAC Name>
tert-butyl (1s,5s)-4-oxo-2-azabicyclo[3.1.1]heptane-2-carboxylate

> <CAS>
2731010-29-8

> <URL>
https://www.enaminestore.com/catalog/EN300-37367421

> <ROCS_ShapeQuery>
x1247relevant_x1083L0AP1_x1305L0BP1_

> <ROCS_TanimotoCombo>
0.810 

> <ROCS_ShapeTanimoto>
0.487 

> <ROCS_ColorTanimoto>
0.323 

> <ROCS_RefTversky>
0.414 

> <ROCS_RefColorTversky>
0.356 

> <ROCS_RefTverskyCombo>
0.770 

> <ROCS_FitTversky>
1.564 

> <ROCS_FitColorTversky>
0.780 

> <ROCS_FitTverskyCombo>
2.344 

> <ROCS_ColorScore>
-7.545

> <ROCS_Overlap>
1219.946

> <ROCS_Rank>
260                 

$$$$
untitled-dbase-38742_24
  -OEChem-06162310163D

 39 42  0     1  0  0  0  0  0999 V2000
   -8.9573   15.5630  -36.1521 C   0  0  0  0  0  0  0  0  0  0  0  0
  -13.8397   14.3537  -38.7644 C   0  0  0  0  0  0  0  0  0  0  0  0
  -11.3669   14.9746  -35.9836 C   0  0  0  0  0  0  0  0  0  0  0  0
  -10.1491   14.3030  -37.9819 C   0  0  0  0  0  0  0  0  0  0  0  0
  -13.5321   15.1640  -37.4832 C   0  0  1  0  0  0  0  0  0  0  0  0
  -12.4104   14.5441  -39.3242 C   0  0  2  0  0  0  0  0  0  0  0  0
  -12.3706   14.3150  -36.9108 C   0  0  1  0  0  0  0  0  0  0  0  0
  -11.5944   13.8862  -38.1845 C   0  0  2  0  0  0  0  0  0  0  0  0
  -13.0826   16.4779  -38.0987 C   0  0  2  0  0  0  0  0  0  0  0  0
  -12.3278   16.0609  -39.3374 C   0  0  1  0  0  0  0  0  0  0  0  0
   -6.5573   15.4956  -34.6016 C   0  0  0  0  0  0  0  0  0  0  0  0
   -8.0422   14.8928  -32.6675 C   0  0  0  0  0  0  0  0  0  0  0  0
   -7.8949   13.3643  -34.6550 C   0  0  0  0  0  0  0  0  0  0  0  0
   -7.8603   14.8168  -34.1818 C   0  0  0  0  0  0  0  0  0  0  0  0
  -10.0941   14.9767  -36.6893 N   0  0  0  0  0  0  0  0  0  0  0  0
   -8.0574   16.0649  -36.8221 O   0  0  0  0  0  0  0  0  0  0  0  0
  -11.6988   16.7524  -38.2673 O   0  0  0  0  0  0  0  0  0  0  0  0
   -8.9539   15.5185  -34.7835 O   0  0  0  0  0  0  0  0  0  0  0  0
  -14.1047   13.3084  -38.5740 H   0  0  0  0  0  0  0  0  0  0  0  0
  -14.6070   14.8237  -39.3902 H   0  0  0  0  0  0  0  0  0  0  0  0
  -11.6344   15.9933  -35.6856 H   0  0  0  0  0  0  0  0  0  0  0  0
  -11.2340   14.3892  -35.0665 H   0  0  0  0  0  0  0  0  0  0  0  0
   -9.4917   13.4280  -37.9264 H   0  0  0  0  0  0  0  0  0  0  0  0
   -9.7611   14.9586  -38.7678 H   0  0  0  0  0  0  0  0  0  0  0  0
  -14.3799   15.2722  -36.8033 H   0  0  0  0  0  0  0  0  0  0  0  0
  -12.2462   14.0932  -40.3052 H   0  0  0  0  0  0  0  0  0  0  0  0
  -12.7866   13.4221  -36.4247 H   0  0  0  0  0  0  0  0  0  0  0  0
  -11.6496   12.7944  -38.2897 H   0  0  0  0  0  0  0  0  0  0  0  0
  -13.8281   17.2528  -38.1846 H   0  0  0  0  0  0  0  0  0  0  0  0
  -12.5574   16.5503  -40.2708 H   0  0  0  0  0  0  0  0  0  0  0  0
   -6.4229   15.4432  -35.6879 H   0  0  0  0  0  0  0  0  0  0  0  0
   -6.5347   16.5476  -34.2987 H   0  0  0  0  0  0  0  0  0  0  0  0
   -5.6921   14.9893  -34.1584 H   0  0  0  0  0  0  0  0  0  0  0  0
   -8.9759   14.4069  -32.3619 H   0  0  0  0  0  0  0  0  0  0  0  0
   -8.1131   15.9346  -32.3347 H   0  0  0  0  0  0  0  0  0  0  0  0
   -7.2127   14.4148  -32.1364 H   0  0  0  0  0  0  0  0  0  0  0  0
   -8.8294   12.8772  -34.3541 H   0  0  0  0  0  0  0  0  0  0  0  0
   -7.8027   13.2925  -35.7436 H   0  0  0  0  0  0  0  0  0  0  0  0
   -7.0837   12.7862  -34.1979 H   0  0  0  0  0  0  0  0  0  0  0  0
  1 15  1  0  0  0  0
  1 16  2  0  0  0  0
  1 18  1  0  0  0  0
  2  5  1  1  0  0  0
  2  6  1  1  0  0  0
  3  7  1  6  0  0  0
  3 15  1  0  0  0  0
  4  8  1  6  0  0  0
  4 15  1  0  0  0  0
  5  7  1  0  0  0  0
  5  9  1  0  0  0  0
  6  8  1  0  0  0  0
  6 10  1  0  0  0  0
  7  8  1  0  0  0  0
  9 10  1  0  0  0  0
  9 17  1  6  0  0  0
 10 17  1  6  0  0  0
 11 14  1  0  0  0  0
 12 14  1  0  0  0  0
 13 14  1  0  0  0  0
 14 18  1  0  0  0  0
  2 19  1  0  0  0  0
  2 20  1  0  0  0  0
  3 21  1  0  0  0  0
  3 22  1  0  0  0  0
  4 23  1  0  0  0  0
  4 24  1  0  0  0  0
  5 25  1  0  0  0  0
  6 26  1  0  0  0  0
  7 27  1  0  0  0  0
  8 28  1  0  0  0  0
  9 29  1  0  0  0  0
 10 30  1  0  0  0  0
 11 31  1  0  0  0  0
 11 32  1  0  0  0  0
 11 33  1  0  0  0  0
 12 34  1  0  0  0  0
 12 35  1  0  0  0  0
 12 36  1  0  0  0  0
 13 37  1  0  0  0  0
 13 38  1  0  0  0  0
 13 39  1  0  0  0  0
M  END
> <id>
EN300-383916

> <smiles>
CC(C)(C)OC(=O)N1C[C@H]2[C@@H]3C[C@@H]([C@@H]4O[C@@H]43)[C@H]2C1

> <MDLNUMBER>
MFCD30750666

> <IUPAC Name>
tert-butyl (1R,2S,6R,7S,8R,10S)-9-oxa-4-azatetracyclo[5.3.1.0^{2,6}.0^{8,10}]undecane-4-carboxylate

> <CAS>
2126143-04-0

> <Purity>
95

> <URL>
https://www.enaminestore.com/catalog/EN300-383916

> <ROCS_ShapeQuery>
x1247relevant_x1083L0AP1_x1305L0BP1_

> <ROCS_TanimotoCombo>
0.810 

> <ROCS_ShapeTanimoto>
0.471 

> <ROCS_ColorTanimoto>
0.339 

> <ROCS_RefTversky>
0.423 

> <ROCS_RefColorTversky>
0.503 

> <ROCS_RefTverskyCombo>
0.925 

> <ROCS_FitTversky>
1.320 

> <ROCS_FitColorTversky>
0.511 

> <ROCS_FitTverskyCombo>
1.831 

> <ROCS_ColorScore>
-10.973

> <ROCS_Overlap>
1248.529

> <ROCS_Rank>
261                 

$$$$
untitled-dbase-19195_36
  -OEChem-06162310163D

 32 33  0     0  0  0  0  0  0999 V2000
  -12.3988   16.1714  -39.6336 C   0  0  0  0  0  0  0  0  0  0  0  0
   -9.9143   14.9107  -37.0712 C   0  0  0  0  0  0  0  0  0  0  0  0
  -11.0367   15.9910  -38.9784 C   0  0  0  0  0  0  0  0  0  0  0  0
  -13.5616   15.6874  -37.3567 C   0  0  0  0  0  0  0  0  0  0  0  0
  -13.2252   13.9649  -38.5295 C   0  0  0  0  0  0  0  0  0  0  0  0
  -13.5691   15.4418  -38.8978 C   0  0  0  0  0  0  0  0  0  0  0  0
  -12.4432   14.6041  -37.3444 C   0  0  0  0  0  0  0  0  0  0  0  0
  -10.9138   14.5510  -34.4160 C   0  0  0  0  0  0  0  0  0  0  0  0
   -9.8068   12.2979  -34.5035 C   0  0  0  0  0  0  0  0  0  0  0  0
   -8.4171   14.3821  -34.6853 C   0  0  0  0  0  0  0  0  0  0  0  0
   -9.7642   13.7381  -35.0098 C   0  0  0  0  0  0  0  0  0  0  0  0
  -11.1046   15.1545  -37.7693 N   0  0  0  0  0  0  0  0  0  0  0  0
  -12.5179   16.8461  -40.6584 O   0  0  0  0  0  0  0  0  0  0  0  0
   -8.9660   15.6927  -37.0322 O   0  0  0  0  0  0  0  0  0  0  0  0
   -9.9205   13.7000  -36.4328 O   0  0  0  0  0  0  0  0  0  0  0  0
  -10.3557   15.5090  -39.6869 H   0  0  0  0  0  0  0  0  0  0  0  0
  -10.6402   16.9703  -38.6923 H   0  0  0  0  0  0  0  0  0  0  0  0
  -13.2730   16.6884  -37.0238 H   0  0  0  0  0  0  0  0  0  0  0  0
  -14.4866   15.3986  -36.8437 H   0  0  0  0  0  0  0  0  0  0  0  0
  -14.0875   13.3550  -38.2350 H   0  0  0  0  0  0  0  0  0  0  0  0
  -12.6321   13.4059  -39.2586 H   0  0  0  0  0  0  0  0  0  0  0  0
  -14.5383   15.5838  -39.3844 H   0  0  0  0  0  0  0  0  0  0  0  0
  -12.4099   13.9942  -36.4389 H   0  0  0  0  0  0  0  0  0  0  0  0
  -10.8867   15.5854  -34.7769 H   0  0  0  0  0  0  0  0  0  0  0  0
  -11.8870   14.1191  -34.6709 H   0  0  0  0  0  0  0  0  0  0  0  0
  -10.8333   14.6024  -33.3242 H   0  0  0  0  0  0  0  0  0  0  0  0
   -8.9838   11.7110  -34.9270 H   0  0  0  0  0  0  0  0  0  0  0  0
  -10.7326   11.8016  -34.8161 H   0  0  0  0  0  0  0  0  0  0  0  0
   -9.7400   12.2513  -33.4118 H   0  0  0  0  0  0  0  0  0  0  0  0
   -7.5923   13.7992  -35.1111 H   0  0  0  0  0  0  0  0  0  0  0  0
   -8.3546   15.4039  -35.0735 H   0  0  0  0  0  0  0  0  0  0  0  0
   -8.2492   14.4100  -33.6026 H   0  0  0  0  0  0  0  0  0  0  0  0
  1  3  1  0  0  0  0
  1  6  1  0  0  0  0
  1 13  2  0  0  0  0
  2 12  1  0  0  0  0
  2 14  2  0  0  0  0
  2 15  1  0  0  0  0
  3 12  1  0  0  0  0
  4  6  1  0  0  0  0
  4  7  1  0  0  0  0
  5  6  1  0  0  0  0
  5  7  1  0  0  0  0
  7 12  1  0  0  0  0
  8 11  1  0  0  0  0
  9 11  1  0  0  0  0
 10 11  1  0  0  0  0
 11 15  1  0  0  0  0
  3 16  1  0  0  0  0
  3 17  1  0  0  0  0
  4 18  1  0  0  0  0
  4 19  1  0  0  0  0
  5 20  1  0  0  0  0
  5 21  1  0  0  0  0
  6 22  1  0  0  0  0
  7 23  1  0  0  0  0
  8 24  1  0  0  0  0
  8 25  1  0  0  0  0
  8 26  1  0  0  0  0
  9 27  1  0  0  0  0
  9 28  1  0  0  0  0
  9 29  1  0  0  0  0
 10 30  1  0  0  0  0
 10 31  1  0  0  0  0
 10 32  1  0  0  0  0
M  END
> <id>
EN300-7463323

> <smiles>
CC(C)(C)OC(=O)N1CC(=O)C2CC1C2

> <MDLNUMBER>
MFCD34562773

> <IUPAC Name>
tert-butyl 4-oxo-2-azabicyclo[3.1.1]heptane-2-carboxylate

> <CAS>
2731010-29-8

> <URL>
https://www.enaminestore.com/catalog/EN300-7463323

> <ROCS_ShapeQuery>
x1247relevant_x1083L0AP1_x1305L0BP1_

> <ROCS_TanimotoCombo>
0.810 

> <ROCS_ShapeTanimoto>
0.487 

> <ROCS_ColorTanimoto>
0.323 

> <ROCS_RefTversky>
0.414 

> <ROCS_RefColorTversky>
0.356 

> <ROCS_RefTverskyCombo>
0.770 

> <ROCS_FitTversky>
1.564 

> <ROCS_FitColorTversky>
0.780 

> <ROCS_FitTverskyCombo>
2.344 

> <ROCS_ColorScore>
-7.545

> <ROCS_Overlap>
1219.934

> <ROCS_Rank>
262                 

$$$$
untitled-dbase-14634_1
  -OEChem-06162310163D

 35 38  0     1  0  0  0  0  0999 V2000
  -10.5156   16.8622  -35.3244 C   0  0  0  0  0  0  0  0  0  0  0  0
   -9.5004   17.1027  -34.4240 C   0  0  0  0  0  0  0  0  0  0  0  0
  -10.2979   15.6743  -36.0992 C   0  0  0  0  0  0  0  0  0  0  0  0
   -9.0921   15.0922  -35.7526 C   0  0  0  0  0  0  0  0  0  0  0  0
   -8.5506   13.8527  -36.3794 C   0  0  0  0  0  0  0  0  0  0  0  0
  -12.6347   14.4916  -39.8926 C   0  0  0  0  0  0  0  0  0  0  0  0
  -13.5407   13.8469  -38.8329 C   0  0  0  0  0  0  0  0  0  0  0  0
  -13.6570   16.2132  -38.6011 C   0  0  0  0  0  0  0  0  0  0  0  0
  -11.1713   16.0422  -38.4551 C   0  0  0  0  0  0  0  0  0  0  0  0
  -12.6742   14.9644  -36.6792 C   0  0  0  0  0  0  0  0  0  0  0  0
   -9.2739   13.6071  -37.7075 C   0  0  0  0  0  0  0  0  0  0  0  0
  -12.3882   15.9216  -39.3954 C   0  0  1  0  0  0  0  0  0  0  0  0
  -13.7606   14.9353  -37.7750 C   0  0  2  0  0  0  0  0  0  0  0  0
  -11.2040   15.1134  -37.1991 C   0  0  0  0  0  0  0  0  0  0  0  0
  -10.7295   13.7428  -37.5577 N   0  0  0  0  0  0  0  0  0  0  0  0
   -8.2726   15.9161  -34.5125 S   0  0  0  0  0  0  0  0  0  0  0  0
  -11.3756   17.5123  -35.4234 H   0  0  0  0  0  0  0  0  0  0  0  0
   -9.4212   17.9218  -33.7233 H   0  0  0  0  0  0  0  0  0  0  0  0
   -7.4727   13.9338  -36.5585 H   0  0  0  0  0  0  0  0  0  0  0  0
   -8.7165   13.0052  -35.7027 H   0  0  0  0  0  0  0  0  0  0  0  0
  -11.7235   13.9363  -40.1255 H   0  0  0  0  0  0  0  0  0  0  0  0
  -13.1952   14.5367  -40.8362 H   0  0  0  0  0  0  0  0  0  0  0  0
  -14.5014   13.5954  -39.3009 H   0  0  0  0  0  0  0  0  0  0  0  0
  -13.1512   12.9119  -38.4223 H   0  0  0  0  0  0  0  0  0  0  0  0
  -13.5853   17.1184  -37.9894 H   0  0  0  0  0  0  0  0  0  0  0  0
  -14.5210   16.3191  -39.2685 H   0  0  0  0  0  0  0  0  0  0  0  0
  -10.2554   15.8866  -39.0373 H   0  0  0  0  0  0  0  0  0  0  0  0
  -11.1189   17.0905  -38.1284 H   0  0  0  0  0  0  0  0  0  0  0  0
  -12.9226   15.7949  -36.0058 H   0  0  0  0  0  0  0  0  0  0  0  0
  -12.7611   14.0616  -36.0585 H   0  0  0  0  0  0  0  0  0  0  0  0
   -8.8953   14.2801  -38.4847 H   0  0  0  0  0  0  0  0  0  0  0  0
   -9.0476   12.5890  -38.0444 H   0  0  0  0  0  0  0  0  0  0  0  0
  -12.2701   16.6173  -40.2328 H   0  0  0  0  0  0  0  0  0  0  0  0
  -14.7455   14.8375  -37.3064 H   0  0  0  0  0  0  0  0  0  0  0  0
  -11.1717   13.3848  -38.3912 H   0  0  0  0  0  0  0  0  0  0  0  0
  1  2  2  0  0  0  0
  1  3  1  0  0  0  0
  2 16  1  0  0  0  0
  3  4  2  0  0  0  0
  3 14  1  0  0  0  0
  4  5  1  0  0  0  0
  4 16  1  0  0  0  0
  5 11  1  0  0  0  0
  6  7  1  0  0  0  0
  6 12  1  6  0  0  0
  7 13  1  6  0  0  0
  8 12  1  0  0  0  0
  8 13  1  0  0  0  0
  9 12  1  0  0  0  0
  9 14  1  0  0  0  0
 10 13  1  0  0  0  0
 10 14  1  0  0  0  0
 11 15  1  0  0  0  0
 14 15  1  0  0  0  0
  1 17  1  0  0  0  0
  2 18  1  0  0  0  0
  5 19  1  0  0  0  0
  5 20  1  0  0  0  0
  6 21  1  0  0  0  0
  6 22  1  0  0  0  0
  7 23  1  0  0  0  0
  7 24  1  0  0  0  0
  8 25  1  0  0  0  0
  8 26  1  0  0  0  0
  9 27  1  0  0  0  0
  9 28  1  0  0  0  0
 10 29  1  0  0  0  0
 10 30  1  0  0  0  0
 11 31  1  0  0  0  0
 11 32  1  0  0  0  0
 12 33  1  0  0  0  0
 13 34  1  0  0  0  0
 15 35  1  0  0  0  0
M  END
> <id>
EN300-1075920

> <smiles>
C1C[C@@H]2C[C@H]1CC3(C2)NCCC=4SC=CC43

> <IUPAC Name>
(1S,5R)-6',7'-dihydro-5'H-spiro[bicyclo[3.2.1]octane-3,4'-thieno[3,2-c]pyridine]

> <URL>
https://www.enaminestore.com/catalog/EN300-1075920

> <ROCS_ShapeQuery>
x1247relevant_x1083L0AP1_x1305L0BP1_

> <ROCS_TanimotoCombo>
0.810 

> <ROCS_ShapeTanimoto>
0.456 

> <ROCS_ColorTanimoto>
0.354 

> <ROCS_RefTversky>
0.402 

> <ROCS_RefColorTversky>
0.389 

> <ROCS_RefTverskyCombo>
0.791 

> <ROCS_FitTversky>
1.426 

> <ROCS_FitColorTversky>
0.798 

> <ROCS_FitTverskyCombo>
2.223 

> <ROCS_ColorScore>
-8.266

> <ROCS_Overlap>
1183.244

> <ROCS_Rank>
263                 

$$$$
untitled-dbase-39768_1
  -OEChem-06162310163D

 35 38  0     1  0  0  0  0  0999 V2000
  -10.5163   16.8615  -35.3235 C   0  0  0  0  0  0  0  0  0  0  0  0
   -9.5010   17.1022  -34.4232 C   0  0  0  0  0  0  0  0  0  0  0  0
  -10.2983   15.6740  -36.0987 C   0  0  0  0  0  0  0  0  0  0  0  0
   -9.0922   15.0923  -35.7524 C   0  0  0  0  0  0  0  0  0  0  0  0
   -8.5504   13.8533  -36.3797 C   0  0  0  0  0  0  0  0  0  0  0  0
  -12.6346   14.4921  -39.8930 C   0  0  0  0  0  0  0  0  0  0  0  0
  -13.5404   13.8470  -38.8335 C   0  0  0  0  0  0  0  0  0  0  0  0
  -13.6570   16.2132  -38.6009 C   0  0  0  0  0  0  0  0  0  0  0  0
  -11.1714   16.0423  -38.4546 C   0  0  0  0  0  0  0  0  0  0  0  0
  -12.6746   14.9639  -36.6793 C   0  0  0  0  0  0  0  0  0  0  0  0
   -9.2739   13.6074  -37.7076 C   0  0  0  0  0  0  0  0  0  0  0  0
  -12.3881   15.9219  -39.3952 C   0  0  1  0  0  0  0  0  0  0  0  0
  -13.7607   14.9349  -37.7753 C   0  0  2  0  0  0  0  0  0  0  0  0
  -11.2042   15.1132  -37.1989 C   0  0  0  0  0  0  0  0  0  0  0  0
  -10.7294   13.7428  -37.5578 N   0  0  0  0  0  0  0  0  0  0  0  0
   -8.2729   15.9161  -34.5122 S   0  0  0  0  0  0  0  0  0  0  0  0
  -11.3769   17.5109  -35.4215 H   0  0  0  0  0  0  0  0  0  0  0  0
   -9.4223   17.9209  -33.7220 H   0  0  0  0  0  0  0  0  0  0  0  0
   -7.4724   13.9350  -36.5589 H   0  0  0  0  0  0  0  0  0  0  0  0
   -8.7155   13.0053  -35.7032 H   0  0  0  0  0  0  0  0  0  0  0  0
  -11.7233   13.9369  -40.1261 H   0  0  0  0  0  0  0  0  0  0  0  0
  -13.1949   14.5377  -40.8366 H   0  0  0  0  0  0  0  0  0  0  0  0
  -14.5010   13.5959  -39.3020 H   0  0  0  0  0  0  0  0  0  0  0  0
  -13.1514   12.9117  -38.4230 H   0  0  0  0  0  0  0  0  0  0  0  0
  -13.5845   17.1178  -37.9883 H   0  0  0  0  0  0  0  0  0  0  0  0
  -14.5211   16.3199  -39.2681 H   0  0  0  0  0  0  0  0  0  0  0  0
  -10.2550   15.8871  -39.0364 H   0  0  0  0  0  0  0  0  0  0  0  0
  -11.1186   17.0903  -38.1271 H   0  0  0  0  0  0  0  0  0  0  0  0
  -12.9233   15.7944  -36.0058 H   0  0  0  0  0  0  0  0  0  0  0  0
  -12.7615   14.0611  -36.0587 H   0  0  0  0  0  0  0  0  0  0  0  0
   -8.8952   14.2808  -38.4845 H   0  0  0  0  0  0  0  0  0  0  0  0
   -9.0467   12.5896  -38.0447 H   0  0  0  0  0  0  0  0  0  0  0  0
  -12.2701   16.6182  -40.2320 H   0  0  0  0  0  0  0  0  0  0  0  0
  -14.7456   14.8373  -37.3068 H   0  0  0  0  0  0  0  0  0  0  0  0
  -11.1718   13.3851  -38.3912 H   0  0  0  0  0  0  0  0  0  0  0  0
  1  2  2  0  0  0  0
  1  3  1  0  0  0  0
  2 16  1  0  0  0  0
  3  4  2  0  0  0  0
  3 14  1  0  0  0  0
  4  5  1  0  0  0  0
  4 16  1  0  0  0  0
  5 11  1  0  0  0  0
  6  7  1  0  0  0  0
  6 12  1  0  0  0  0
  7 13  1  0  0  0  0
  8 12  1  0  0  0  0
  8 13  1  0  0  0  0
  9 12  1  0  0  0  0
  9 14  1  0  0  0  0
 10 13  1  0  0  0  0
 10 14  1  0  0  0  0
 11 15  1  0  0  0  0
 14 15  1  0  0  0  0
  1 17  1  0  0  0  0
  2 18  1  0  0  0  0
  5 19  1  0  0  0  0
  5 20  1  0  0  0  0
  6 21  1  0  0  0  0
  6 22  1  0  0  0  0
  7 23  1  0  0  0  0
  7 24  1  0  0  0  0
  8 25  1  0  0  0  0
  8 26  1  0  0  0  0
  9 27  1  0  0  0  0
  9 28  1  0  0  0  0
 10 29  1  0  0  0  0
 10 30  1  0  0  0  0
 11 31  1  0  0  0  0
 11 32  1  0  0  0  0
 12 33  1  0  0  0  0
 13 34  1  0  0  0  0
 15 35  1  0  0  0  0
M  END
> <id>
EN300-1076879

> <smiles>
C1CC2CC1CC3(C2)NCCC=4SC=CC43

> <IUPAC Name>
6',7'-dihydro-5'H-spiro[bicyclo[3.2.1]octane-3,4'-thieno[3,2-c]pyridine]

> <URL>
https://www.enaminestore.com/catalog/EN300-1076879

> <ROCS_ShapeQuery>
x1247relevant_x1083L0AP1_x1305L0BP1_

> <ROCS_TanimotoCombo>
0.810 

> <ROCS_ShapeTanimoto>
0.456 

> <ROCS_ColorTanimoto>
0.354 

> <ROCS_RefTversky>
0.402 

> <ROCS_RefColorTversky>
0.389 

> <ROCS_RefTverskyCombo>
0.791 

> <ROCS_FitTversky>
1.426 

> <ROCS_FitColorTversky>
0.798 

> <ROCS_FitTverskyCombo>
2.223 

> <ROCS_ColorScore>
-8.266

> <ROCS_Overlap>
1183.237

> <ROCS_Rank>
264                 

$$$$
untitled-dbase-24498_0
  -OEChem-06162310163D

 27 28  0     1  0  0  0  0  0999 V2000
  -13.2292   14.4232  -39.6193 C   0  0  0  0  0  0  0  0  0  0  0  0
  -13.2393   16.7152  -38.6089 C   0  0  0  0  0  0  0  0  0  0  0  0
  -13.4125   13.8170  -38.2215 C   0  0  0  0  0  0  0  0  0  0  0  0
  -13.4396   16.0831  -37.2253 C   0  0  0  0  0  0  0  0  0  0  0  0
  -11.0762   15.4934  -38.9145 C   0  0  0  0  0  0  0  0  0  0  0  0
  -12.4661   15.7551  -39.5286 C   0  0  0  0  0  0  0  0  0  0  0  0
  -12.7306   14.7137  -37.1625 C   0  0  0  0  0  0  0  0  0  0  0  0
  -11.2142   14.8748  -37.4971 C   0  0  2  0  0  0  0  0  0  0  0  0
  -10.4920   15.7507  -36.4588 C   0  0  0  0  0  0  0  0  0  0  0  0
  -10.5242   13.5760  -37.4609 N   0  0  0  0  0  0  0  0  0  0  0  0
  -11.0301   16.9756  -36.4531 F   0  0  0  0  0  0  0  0  0  0  0  0
  -10.6199   15.2045  -35.2443 F   0  0  0  0  0  0  0  0  0  0  0  0
   -9.1940   15.8383  -36.7711 F   0  0  0  0  0  0  0  0  0  0  0  0
  -12.6843   13.7190  -40.2595 H   0  0  0  0  0  0  0  0  0  0  0  0
  -14.2088   14.5787  -40.0869 H   0  0  0  0  0  0  0  0  0  0  0  0
  -14.2138   16.9587  -39.0487 H   0  0  0  0  0  0  0  0  0  0  0  0
  -12.6946   17.6618  -38.5090 H   0  0  0  0  0  0  0  0  0  0  0  0
  -14.4838   13.7296  -38.0000 H   0  0  0  0  0  0  0  0  0  0  0  0
  -13.0216   12.7940  -38.1960 H   0  0  0  0  0  0  0  0  0  0  0  0
  -13.0766   16.7578  -36.4430 H   0  0  0  0  0  0  0  0  0  0  0  0
  -14.5126   15.9559  -37.0338 H   0  0  0  0  0  0  0  0  0  0  0  0
  -10.5109   14.8332  -39.5859 H   0  0  0  0  0  0  0  0  0  0  0  0
  -10.5094   16.4327  -38.8799 H   0  0  0  0  0  0  0  0  0  0  0  0
  -12.3566   16.1955  -40.5256 H   0  0  0  0  0  0  0  0  0  0  0  0
  -12.8670   14.2749  -36.1666 H   0  0  0  0  0  0  0  0  0  0  0  0
  -10.9500   12.9913  -38.1357 H   0  0  0  0  0  0  0  0  0  0  0  0
   -9.5720   13.7368  -37.6755 H   0  0  0  0  0  0  0  0  0  0  0  0
  1  3  1  0  0  0  0
  1  6  1  0  0  0  0
  2  4  1  0  0  0  0
  2  6  1  0  0  0  0
  3  7  1  0  0  0  0
  4  7  1  0  0  0  0
  5  6  1  0  0  0  0
  5  8  1  0  0  0  0
  7  8  1  0  0  0  0
  8  9  1  0  0  0  0
  8 10  1  0  0  0  0
  9 11  1  0  0  0  0
  9 12  1  0  0  0  0
  9 13  1  0  0  0  0
  1 14  1  0  0  0  0
  1 15  1  0  0  0  0
  2 16  1  0  0  0  0
  2 17  1  0  0  0  0
  3 18  1  0  0  0  0
  3 19  1  0  0  0  0
  4 20  1  0  0  0  0
  4 21  1  0  0  0  0
  5 22  1  0  0  0  0
  5 23  1  0  0  0  0
  6 24  1  0  0  0  0
  7 25  1  0  0  0  0
 10 26  1  0  0  0  0
 10 27  1  0  0  0  0
M  END
> <id>
EN300-3121936

> <smiles>
NC1(CC2CCC1CC2)C(F)(F)F

> <MDLNUMBER>
MFCD31668001

> <IUPAC Name>
2-(trifluoromethyl)bicyclo[2.2.2]octan-2-amine

> <CAS>
1855645-71-4

> <URL>
https://www.enaminestore.com/catalog/EN300-3121936

> <ROCS_ShapeQuery>
x1247relevant_x1083L0AP1_x1305L0BP1_

> <ROCS_TanimotoCombo>
0.810 

> <ROCS_ShapeTanimoto>
0.462 

> <ROCS_ColorTanimoto>
0.349 

> <ROCS_RefTversky>
0.392 

> <ROCS_RefColorTversky>
0.364 

> <ROCS_RefTverskyCombo>
0.756 

> <ROCS_FitTversky>
1.625 

> <ROCS_FitColorTversky>
0.890 

> <ROCS_FitTverskyCombo>
2.515 

> <ROCS_ColorScore>
-7.710

> <ROCS_Overlap>
1152.723

> <ROCS_Rank>
265                 

$$$$
untitled-dbase-24676_0
  -OEChem-06162310163D

 27 28  0     1  0  0  0  0  0999 V2000
  -13.2292   14.4232  -39.6193 C   0  0  0  0  0  0  0  0  0  0  0  0
  -13.2393   16.7152  -38.6089 C   0  0  0  0  0  0  0  0  0  0  0  0
  -13.4125   13.8170  -38.2215 C   0  0  0  0  0  0  0  0  0  0  0  0
  -13.4396   16.0831  -37.2253 C   0  0  0  0  0  0  0  0  0  0  0  0
  -11.0762   15.4934  -38.9145 C   0  0  0  0  0  0  0  0  0  0  0  0
  -12.4661   15.7551  -39.5286 C   0  0  0  0  0  0  0  0  0  0  0  0
  -12.7306   14.7137  -37.1625 C   0  0  0  0  0  0  0  0  0  0  0  0
  -11.2142   14.8748  -37.4971 C   0  0  2  0  0  0  0  0  0  0  0  0
  -10.4920   15.7507  -36.4588 C   0  0  0  0  0  0  0  0  0  0  0  0
  -10.5242   13.5760  -37.4609 N   0  0  0  0  0  0  0  0  0  0  0  0
  -11.0301   16.9756  -36.4531 F   0  0  0  0  0  0  0  0  0  0  0  0
  -10.6199   15.2045  -35.2443 F   0  0  0  0  0  0  0  0  0  0  0  0
   -9.1940   15.8383  -36.7711 F   0  0  0  0  0  0  0  0  0  0  0  0
  -12.6843   13.7190  -40.2595 H   0  0  0  0  0  0  0  0  0  0  0  0
  -14.2088   14.5787  -40.0869 H   0  0  0  0  0  0  0  0  0  0  0  0
  -14.2138   16.9587  -39.0487 H   0  0  0  0  0  0  0  0  0  0  0  0
  -12.6946   17.6618  -38.5090 H   0  0  0  0  0  0  0  0  0  0  0  0
  -14.4838   13.7296  -38.0000 H   0  0  0  0  0  0  0  0  0  0  0  0
  -13.0216   12.7940  -38.1960 H   0  0  0  0  0  0  0  0  0  0  0  0
  -13.0766   16.7578  -36.4430 H   0  0  0  0  0  0  0  0  0  0  0  0
  -14.5126   15.9559  -37.0338 H   0  0  0  0  0  0  0  0  0  0  0  0
  -10.5109   14.8332  -39.5859 H   0  0  0  0  0  0  0  0  0  0  0  0
  -10.5094   16.4327  -38.8799 H   0  0  0  0  0  0  0  0  0  0  0  0
  -12.3566   16.1955  -40.5256 H   0  0  0  0  0  0  0  0  0  0  0  0
  -12.8670   14.2749  -36.1666 H   0  0  0  0  0  0  0  0  0  0  0  0
  -10.9500   12.9913  -38.1357 H   0  0  0  0  0  0  0  0  0  0  0  0
   -9.5720   13.7368  -37.6755 H   0  0  0  0  0  0  0  0  0  0  0  0
  1  3  1  0  0  0  0
  1  6  1  0  0  0  0
  2  4  1  0  0  0  0
  2  6  1  0  0  0  0
  3  7  1  0  0  0  0
  4  7  1  0  0  0  0
  5  6  1  0  0  0  0
  5  8  1  0  0  0  0
  7  8  1  0  0  0  0
  8  9  1  0  0  0  0
  8 10  1  0  0  0  0
  9 11  1  0  0  0  0
  9 12  1  0  0  0  0
  9 13  1  0  0  0  0
  1 14  1  0  0  0  0
  1 15  1  0  0  0  0
  2 16  1  0  0  0  0
  2 17  1  0  0  0  0
  3 18  1  0  0  0  0
  3 19  1  0  0  0  0
  4 20  1  0  0  0  0
  4 21  1  0  0  0  0
  5 22  1  0  0  0  0
  5 23  1  0  0  0  0
  6 24  1  0  0  0  0
  7 25  1  0  0  0  0
 10 26  1  0  0  0  0
 10 27  1  0  0  0  0
M  END
> <id>
EN300-6481915

> <smiles>
Cl.NC1(CC2CCC1CC2)C(F)(F)F

> <MDLNUMBER>
MFCD31668262

> <IUPAC Name>
2-(trifluoromethyl)bicyclo[2.2.2]octan-2-amine hydrochloride

> <CAS>
2243512-22-1

> <Purity>
95

> <URL>
https://www.enaminestore.com/catalog/EN300-6481915

> <Saltdate>
Cl

> <ROCS_ShapeQuery>
x1247relevant_x1083L0AP1_x1305L0BP1_

> <ROCS_TanimotoCombo>
0.810 

> <ROCS_ShapeTanimoto>
0.462 

> <ROCS_ColorTanimoto>
0.349 

> <ROCS_RefTversky>
0.392 

> <ROCS_RefColorTversky>
0.364 

> <ROCS_RefTverskyCombo>
0.756 

> <ROCS_FitTversky>
1.625 

> <ROCS_FitColorTversky>
0.890 

> <ROCS_FitTverskyCombo>
2.515 

> <ROCS_ColorScore>
-7.710

> <ROCS_Overlap>
1152.723

> <ROCS_Rank>
266                 

$$$$
untitled-dbase-1549_0
  -OEChem-06162310163D

 27 32  0     1  0  0  0  0  0999 V2000
  -12.1808   16.1445  -40.1729 C   0  0  0  0  0  0  0  0  0  0  0  0
  -14.5857   14.9845  -37.6940 C   0  0  0  0  0  0  0  0  0  0  0  0
   -9.8395   13.8747  -36.6790 C   0  0  0  0  0  0  0  0  0  0  0  0
  -13.2675   16.3487  -39.1381 C   0  0  1  0  0  0  0  0  0  0  0  0
  -13.9176   14.9543  -39.0526 C   0  0  1  0  0  0  0  0  0  0  0  0
  -11.4896   15.0488  -39.3900 C   0  0  2  0  0  0  0  0  0  0  0  0
  -13.2977   15.2530  -36.9449 C   0  0  2  0  0  0  0  0  0  0  0  0
  -12.5509   16.3868  -37.7512 C   0  0  1  0  0  0  0  0  0  0  0  0
  -12.6349   14.0788  -38.8908 C   0  0  1  0  0  0  0  0  0  0  0  0
  -11.1424   15.7534  -38.0549 C   0  0  1  0  0  0  0  0  0  0  0  0
  -12.4214   14.0355  -37.3309 C   0  0  1  0  0  0  0  0  0  0  0  0
  -11.0647   14.5865  -37.1573 C   0  0  0  0  0  0  0  0  0  0  0  0
  -10.5812   14.7873  -35.8361 O   0  0  0  0  0  0  0  0  0  0  0  0
  -12.5672   15.8014  -41.1374 H   0  0  0  0  0  0  0  0  0  0  0  0
  -11.5535   17.0300  -40.3135 H   0  0  0  0  0  0  0  0  0  0  0  0
  -15.3148   15.7941  -37.5934 H   0  0  0  0  0  0  0  0  0  0  0  0
  -15.0462   14.0295  -37.4233 H   0  0  0  0  0  0  0  0  0  0  0  0
   -9.9110   12.8197  -36.4505 H   0  0  0  0  0  0  0  0  0  0  0  0
   -8.8747   14.2064  -37.0389 H   0  0  0  0  0  0  0  0  0  0  0  0
  -13.9691   17.1663  -39.3155 H   0  0  0  0  0  0  0  0  0  0  0  0
  -14.5474   14.6938  -39.9057 H   0  0  0  0  0  0  0  0  0  0  0  0
  -10.6484   14.5442  -39.8704 H   0  0  0  0  0  0  0  0  0  0  0  0
  -13.3746   15.4373  -35.8714 H   0  0  0  0  0  0  0  0  0  0  0  0
  -12.5268   17.3631  -37.2642 H   0  0  0  0  0  0  0  0  0  0  0  0
  -12.6662   13.1058  -39.3843 H   0  0  0  0  0  0  0  0  0  0  0  0
  -10.3086   16.4568  -38.0951 H   0  0  0  0  0  0  0  0  0  0  0  0
  -12.6834   13.0924  -36.8477 H   0  0  0  0  0  0  0  0  0  0  0  0
  1  4  1  0  0  0  0
  1  6  1  0  0  0  0
  2  5  1  0  0  0  0
  2  7  1  0  0  0  0
  3 12  1  0  0  0  0
  3 13  1  0  0  0  0
  4  5  1  0  0  0  0
  4  8  1  0  0  0  0
  5  9  1  0  0  0  0
  6  9  1  0  0  0  0
  6 10  1  0  0  0  0
  7  8  1  0  0  0  0
  7 11  1  0  0  0  0
  8 10  1  0  0  0  0
  9 11  1  0  0  0  0
 10 12  1  0  0  0  0
 11 12  1  0  0  0  0
 12 13  1  0  0  0  0
  1 14  1  0  0  0  0
  1 15  1  0  0  0  0
  2 16  1  0  0  0  0
  2 17  1  0  0  0  0
  3 18  1  0  0  0  0
  3 19  1  0  0  0  0
  4 20  1  0  0  0  0
  5 21  1  0  0  0  0
  6 22  1  0  0  0  0
  7 23  1  0  0  0  0
  8 24  1  0  0  0  0
  9 25  1  0  0  0  0
 10 26  1  0  0  0  0
 11 27  1  0  0  0  0
M  END
> <id>
EN300-94450

> <smiles>
C1OC12C3C4CC5C6CC(C53)C2C64

> <MDLNUMBER>
MFCD20264544

> <IUPAC Name>
spiro[oxirane-2,4'-pentacyclo[6.3.0.0^{2,6}.0^{3,10}.0^{5,9}]undecane]

> <CAS>
1373932-60-5

> <Purity>
95

> <URL>
https://www.enaminestore.com/catalog/EN300-94450

> <ROCS_ShapeQuery>
x1247relevant_x1083L0AP1_x1305L0BP1_

> <ROCS_TanimotoCombo>
0.810 

> <ROCS_ShapeTanimoto>
0.529 

> <ROCS_ColorTanimoto>
0.281 

> <ROCS_RefTversky>
0.437 

> <ROCS_RefColorTversky>
0.795 

> <ROCS_RefTverskyCombo>
1.232 

> <ROCS_FitTversky>
1.655 

> <ROCS_FitColorTversky>
0.303 

> <ROCS_FitTverskyCombo>
1.958 

> <ROCS_ColorScore>
-19.089

> <ROCS_Overlap>
1287.150

> <ROCS_Rank>
267                 

$$$$
untitled-dbase-19925_2
  -OEChem-06162310163D

 42 45  0     1  0  0  0  0  0999 V2000
   -9.2454   15.3752  -36.8289 C   0  0  0  0  0  0  0  0  0  0  0  0
   -9.9431   12.5230  -37.9853 C   0  0  0  0  0  0  0  0  0  0  0  0
  -13.3379   14.3315  -39.9640 C   0  0  0  0  0  0  0  0  0  0  0  0
  -10.8562   11.5871  -38.7533 C   0  0  0  0  0  0  0  0  0  0  0  0
  -14.0299   15.6300  -39.5606 C   0  0  0  0  0  0  0  0  0  0  0  0
   -9.9482   14.2608  -36.0962 C   0  0  1  0  0  0  0  0  0  0  0  0
  -10.7837   13.3871  -37.0508 C   0  0  1  0  0  0  0  0  0  0  0  0
  -12.6583   13.4482  -38.8659 C   0  0  1  0  0  0  0  0  0  0  0  0
  -11.8183   12.3721  -39.6399 C   0  0  2  0  0  0  0  0  0  0  0  0
  -11.1811   15.5114  -38.4141 C   0  0  2  0  0  0  0  0  0  0  0  0
  -11.8159   14.2599  -37.8002 C   0  0  2  0  0  0  0  0  0  0  0  0
  -13.4895   16.2572  -38.2854 C   0  0  2  0  0  0  0  0  0  0  0  0
   -8.9558   13.4453  -35.2617 C   0  0  0  0  0  0  0  0  0  0  0  0
  -12.7065   11.3719  -40.3957 C   0  0  0  0  0  0  0  0  0  0  0  0
  -14.2318   17.5606  -37.9918 C   0  0  0  0  0  0  0  0  0  0  0  0
   -8.1304   15.7808  -36.5112 O   0  0  0  0  0  0  0  0  0  0  0  0
   -9.9462   15.9782  -37.8100 O   0  0  0  0  0  0  0  0  0  0  0  0
  -12.1085   16.6036  -38.4014 O   0  0  0  0  0  0  0  0  0  0  0  0
  -12.6389   14.7558  -36.7149 O   0  0  0  0  0  0  0  0  0  0  0  0
  -13.8447   15.3440  -37.2453 O   0  0  0  0  0  0  0  0  0  0  0  0
   -9.2390   11.9150  -37.4179 H   0  0  0  0  0  0  0  0  0  0  0  0
   -9.3642   13.1333  -38.6776 H   0  0  0  0  0  0  0  0  0  0  0  0
  -14.0780   13.7032  -40.5051 H   0  0  0  0  0  0  0  0  0  0  0  0
  -12.5786   14.5729  -40.7407 H   0  0  0  0  0  0  0  0  0  0  0  0
  -10.2486   10.9155  -39.3627 H   0  0  0  0  0  0  0  0  0  0  0  0
  -11.4174   10.9690  -38.0484 H   0  0  0  0  0  0  0  0  0  0  0  0
  -13.8941   16.3230  -40.4097 H   0  0  0  0  0  0  0  0  0  0  0  0
  -15.1188   15.4649  -39.4849 H   0  0  0  0  0  0  0  0  0  0  0  0
  -10.6250   14.7506  -35.3973 H   0  0  0  0  0  0  0  0  0  0  0  0
  -11.3506   12.6913  -36.3959 H   0  0  0  0  0  0  0  0  0  0  0  0
  -13.4595   12.9378  -38.3533 H   0  0  0  0  0  0  0  0  0  0  0  0
  -11.2161   12.8927  -40.4127 H   0  0  0  0  0  0  0  0  0  0  0  0
  -10.9413   15.3658  -39.4751 H   0  0  0  0  0  0  0  0  0  0  0  0
   -8.2565   12.9359  -35.9205 H   0  0  0  0  0  0  0  0  0  0  0  0
   -9.4945   12.7086  -34.6704 H   0  0  0  0  0  0  0  0  0  0  0  0
   -8.4063   14.1080  -34.5971 H   0  0  0  0  0  0  0  0  0  0  0  0
  -13.3243   10.8275  -39.6867 H   0  0  0  0  0  0  0  0  0  0  0  0
  -12.0804   10.6717  -40.9421 H   0  0  0  0  0  0  0  0  0  0  0  0
  -13.3438   11.9082  -41.0937 H   0  0  0  0  0  0  0  0  0  0  0  0
  -13.8440   18.0090  -37.0783 H   0  0  0  0  0  0  0  0  0  0  0  0
  -15.2948   17.3604  -37.8669 H   0  0  0  0  0  0  0  0  0  0  0  0
  -14.0949   18.2578  -38.8170 H   0  0  0  0  0  0  0  0  0  0  0  0
  1  6  1  0  0  0  0
  1 16  2  0  0  0  0
  1 17  1  0  0  0  0
  2  4  1  0  0  0  0
  2  7  1  0  0  0  0
  3  5  1  0  0  0  0
  3  8  1  1  0  0  0
  4  9  1  0  0  0  0
  5 12  1  0  0  0  0
  6  7  1  0  0  0  0
  6 13  1  1  0  0  0
  7 11  1  0  0  0  0
  8  9  1  0  0  0  0
  8 11  1  0  0  0  0
  9 14  1  6  0  0  0
 10 11  1  0  0  0  0
 10 17  1  6  0  0  0
 10 18  1  0  0  0  0
 11 19  1  6  0  0  0
 12 15  1  0  0  0  0
 12 18  1  0  0  0  0
 12 20  1  0  0  0  0
 19 20  1  0  0  0  0
  2 21  1  0  0  0  0
  2 22  1  0  0  0  0
  3 23  1  0  0  0  0
  3 24  1  0  0  0  0
  4 25  1  0  0  0  0
  4 26  1  0  0  0  0
  5 27  1  0  0  0  0
  5 28  1  0  0  0  0
  6 29  1  0  0  0  0
  7 30  1  0  0  0  0
  8 31  1  0  0  0  0
  9 32  1  0  0  0  0
 10 33  1  0  0  0  0
 13 34  1  0  0  0  0
 13 35  1  0  0  0  0
 13 36  1  0  0  0  0
 14 37  1  0  0  0  0
 14 38  1  0  0  0  0
 14 39  1  0  0  0  0
 15 40  1  0  0  0  0
 15 41  1  0  0  0  0
 15 42  1  0  0  0  0
M  END
> <id>
EN300-1694131

> <smiles>
C[C@@H]1CCC2[C@@H](C)C(=O)O[C@@H]3OC4(C)CC[C@@H]1[C@@]23OO4

> <MDLNUMBER>
MFCD31665763

> <IUPAC Name>
(4S,5R,9R,12S,13R)-1,5,9-trimethyl-11,14,15,16-tetraoxatetracyclo[10.3.1.0^{4,13}.0^{8,13}]hexadecan-10-one

> <CAS>
63968-64-9

> <Purity>
95

> <URL>
https://www.enaminestore.com/catalog/EN300-1694131

> <MP>
156-157

> <ROCS_ShapeQuery>
x1247relevant_x1083L0AP1_x1305L0BP1_

> <ROCS_TanimotoCombo>
0.809 

> <ROCS_ShapeTanimoto>
0.494 

> <ROCS_ColorTanimoto>
0.315 

> <ROCS_RefTversky>
0.446 

> <ROCS_RefColorTversky>
0.357 

> <ROCS_RefTverskyCombo>
0.803 

> <ROCS_FitTversky>
1.280 

> <ROCS_FitColorTversky>
0.730 

> <ROCS_FitTverskyCombo>
2.009 

> <ROCS_ColorScore>
-7.587

> <ROCS_Overlap>
1318.329

> <ROCS_Rank>
268                 

$$$$
untitled-dbase-23951_2
  -OEChem-06162310163D

 42 45  0     1  0  0  0  0  0999 V2000
   -9.2452   15.3759  -36.8316 C   0  0  0  0  0  0  0  0  0  0  0  0
   -9.9452   12.5225  -37.9864 C   0  0  0  0  0  0  0  0  0  0  0  0
  -13.3426   14.3310  -39.9611 C   0  0  0  0  0  0  0  0  0  0  0  0
  -10.8599   11.5866  -38.7527 C   0  0  0  0  0  0  0  0  0  0  0  0
  -14.0340   15.6297  -39.5572 C   0  0  0  0  0  0  0  0  0  0  0  0
   -9.9469   14.2613  -36.0981 C   0  0  1  0  0  0  0  0  0  0  0  0
  -10.7842   13.3875  -37.0513 C   0  0  1  0  0  0  0  0  0  0  0  0
  -12.6615   13.4483  -38.8634 C   0  0  1  0  0  0  0  0  0  0  0  0
  -11.8229   12.3716  -39.6382 C   0  0  2  0  0  0  0  0  0  0  0  0
  -11.1814   15.5102  -38.4168 C   0  0  2  0  0  0  0  0  0  0  0  0
  -11.8168   14.2605  -37.7999 C   0  0  2  0  0  0  0  0  0  0  0  0
  -13.4888   16.2590  -38.2851 C   0  0  2  0  0  0  0  0  0  0  0  0
   -8.9528   13.4455  -35.2656 C   0  0  0  0  0  0  0  0  0  0  0  0
  -12.7121   11.3714  -40.3930 C   0  0  0  0  0  0  0  0  0  0  0  0
  -14.2285   17.5640  -37.9922 C   0  0  0  0  0  0  0  0  0  0  0  0
   -8.1311   15.7835  -36.5133 O   0  0  0  0  0  0  0  0  0  0  0  0
   -9.9457   15.9768  -37.8143 O   0  0  0  0  0  0  0  0  0  0  0  0
  -12.1076   16.6033  -38.4060 O   0  0  0  0  0  0  0  0  0  0  0  0
  -12.6368   14.7590  -36.7136 O   0  0  0  0  0  0  0  0  0  0  0  0
  -13.8427   15.3487  -37.2420 O   0  0  0  0  0  0  0  0  0  0  0  0
   -9.2407   11.9144  -37.4197 H   0  0  0  0  0  0  0  0  0  0  0  0
   -9.3670   13.1321  -38.6798 H   0  0  0  0  0  0  0  0  0  0  0  0
  -14.0834   13.7025  -40.5009 H   0  0  0  0  0  0  0  0  0  0  0  0
  -12.5843   14.5721  -40.7389 H   0  0  0  0  0  0  0  0  0  0  0  0
  -10.2533   10.9147  -39.3628 H   0  0  0  0  0  0  0  0  0  0  0  0
  -11.4201   10.9689  -38.0468 H   0  0  0  0  0  0  0  0  0  0  0  0
  -13.9019   16.3214  -40.4077 H   0  0  0  0  0  0  0  0  0  0  0  0
  -15.1224   15.4639  -39.4769 H   0  0  0  0  0  0  0  0  0  0  0  0
  -10.6223   14.7508  -35.3978 H   0  0  0  0  0  0  0  0  0  0  0  0
  -11.3506   12.6925  -36.3954 H   0  0  0  0  0  0  0  0  0  0  0  0
  -13.4618   12.9385  -38.3492 H   0  0  0  0  0  0  0  0  0  0  0  0
  -11.2215   12.8919  -40.4120 H   0  0  0  0  0  0  0  0  0  0  0  0
  -10.9422   15.3620  -39.4775 H   0  0  0  0  0  0  0  0  0  0  0  0
   -8.2547   12.9363  -35.9258 H   0  0  0  0  0  0  0  0  0  0  0  0
   -9.4904   12.7086  -34.6735 H   0  0  0  0  0  0  0  0  0  0  0  0
   -8.4021   14.1080  -34.6018 H   0  0  0  0  0  0  0  0  0  0  0  0
  -13.3292   10.8273  -39.6832 H   0  0  0  0  0  0  0  0  0  0  0  0
  -12.0867   10.6710  -40.9397 H   0  0  0  0  0  0  0  0  0  0  0  0
  -13.3499   11.9077  -41.0903 H   0  0  0  0  0  0  0  0  0  0  0  0
  -13.8375   18.0141  -37.0810 H   0  0  0  0  0  0  0  0  0  0  0  0
  -15.2915   17.3655  -37.8637 H   0  0  0  0  0  0  0  0  0  0  0  0
  -14.0933   18.2592  -38.8195 H   0  0  0  0  0  0  0  0  0  0  0  0
  1  6  1  0  0  0  0
  1 16  2  0  0  0  0
  1 17  1  0  0  0  0
  2  4  1  0  0  0  0
  2  7  1  1  0  0  0
  3  5  1  0  0  0  0
  3  8  1  1  0  0  0
  4  9  1  0  0  0  0
  5 12  1  0  0  0  0
  6  7  1  0  0  0  0
  6 13  1  1  0  0  0
  7 11  1  0  0  0  0
  8  9  1  0  0  0  0
  8 11  1  0  0  0  0
  9 14  1  6  0  0  0
 10 11  1  0  0  0  0
 10 17  1  6  0  0  0
 10 18  1  0  0  0  0
 11 19  1  6  0  0  0
 12 15  1  1  0  0  0
 12 18  1  0  0  0  0
 12 20  1  0  0  0  0
 19 20  1  0  0  0  0
  2 21  1  0  0  0  0
  2 22  1  0  0  0  0
  3 23  1  0  0  0  0
  3 24  1  0  0  0  0
  4 25  1  0  0  0  0
  4 26  1  0  0  0  0
  5 27  1  0  0  0  0
  5 28  1  0  0  0  0
  6 29  1  0  0  0  0
  7 30  1  0  0  0  0
  8 31  1  0  0  0  0
  9 32  1  0  0  0  0
 10 33  1  0  0  0  0
 13 34  1  0  0  0  0
 13 35  1  0  0  0  0
 13 36  1  0  0  0  0
 14 37  1  0  0  0  0
 14 38  1  0  0  0  0
 14 39  1  0  0  0  0
 15 40  1  0  0  0  0
 15 41  1  0  0  0  0
 15 42  1  0  0  0  0
M  END
> <id>
EN300-7390753

> <smiles>
C[C@@H]1CC[C@H]2[C@@H](C)C(=O)O[C@@H]3O[C@@]4(C)CC[C@@H]1[C@@]23OO4

> <MDLNUMBER>
MFCD00081057

> <IUPAC Name>
(1R,4S,5R,8S,9R,12S,13R)-1,5,9-trimethyl-11,14,15,16-tetraoxatetracyclo[10.3.1.0^{4,13}.0^{8,13}]hexadecan-10-one

> <CAS>
63968-64-9

> <URL>
https://www.enaminestore.com/catalog/EN300-7390753

> <ROCS_ShapeQuery>
x1247relevant_x1083L0AP1_x1305L0BP1_

> <ROCS_TanimotoCombo>
0.809 

> <ROCS_ShapeTanimoto>
0.494 

> <ROCS_ColorTanimoto>
0.315 

> <ROCS_RefTversky>
0.446 

> <ROCS_RefColorTversky>
0.357 

> <ROCS_RefTverskyCombo>
0.803 

> <ROCS_FitTversky>
1.280 

> <ROCS_FitColorTversky>
0.730 

> <ROCS_FitTverskyCombo>
2.009 

> <ROCS_ColorScore>
-7.586

> <ROCS_Overlap>
1318.361

> <ROCS_Rank>
269                 

$$$$
untitled-dbase-9588_25
  -OEChem-06162310163D

 42 44  0     1  0  0  0  0  0999 V2000
   -9.9502   14.8798  -36.9508 C   0  0  0  0  0  0  0  0  0  0  0  0
  -14.0198   15.5520  -37.6499 C   0  0  0  0  0  0  0  0  0  0  0  0
  -13.3908   14.1650  -37.4251 C   0  0  0  0  0  0  0  0  0  0  0  0
  -11.8574   16.4721  -40.7696 C   0  0  0  0  0  0  0  0  0  0  0  0
  -10.9569   14.3502  -40.4739 C   0  0  0  0  0  0  0  0  0  0  0  0
  -11.7279   16.5068  -37.6750 C   0  0  0  0  0  0  0  0  0  0  0  0
  -13.0494   16.4393  -38.4599 C   0  0  1  0  0  0  0  0  0  0  0  0
  -12.8404   15.7607  -39.8399 C   0  0  2  0  0  0  0  0  0  0  0  0
  -12.2354   14.3502  -39.6371 C   0  0  2  0  0  0  0  0  0  0  0  0
  -12.0202   14.0921  -38.1255 C   0  0  1  0  0  0  0  0  0  0  0  0
  -10.2421   14.8840  -34.3459 C   0  0  0  0  0  0  0  0  0  0  0  0
  -10.4188   12.3791  -34.4063 C   0  0  0  0  0  0  0  0  0  0  0  0
   -8.1861   13.4835  -34.7284 C   0  0  0  0  0  0  0  0  0  0  0  0
   -9.6912   13.6001  -34.9648 C   0  0  0  0  0  0  0  0  0  0  0  0
  -10.5930   15.7596  -40.5966 N   0  0  0  0  0  0  0  0  0  0  0  0
  -11.1724   15.1547  -37.5568 N   0  0  0  0  0  0  0  0  0  0  0  0
   -8.9960   15.6539  -36.9268 O   0  0  0  0  0  0  0  0  0  0  0  0
   -9.9296   13.6360  -36.3764 O   0  0  0  0  0  0  0  0  0  0  0  0
  -14.9750   15.4488  -38.1783 H   0  0  0  0  0  0  0  0  0  0  0  0
  -14.2442   16.0177  -36.6828 H   0  0  0  0  0  0  0  0  0  0  0  0
  -13.2780   13.9750  -36.3508 H   0  0  0  0  0  0  0  0  0  0  0  0
  -14.0594   13.3870  -37.8123 H   0  0  0  0  0  0  0  0  0  0  0  0
  -12.1916   16.3756  -41.8099 H   0  0  0  0  0  0  0  0  0  0  0  0
  -11.7540   17.5381  -40.5475 H   0  0  0  0  0  0  0  0  0  0  0  0
  -10.1507   13.7633  -40.0239 H   0  0  0  0  0  0  0  0  0  0  0  0
  -11.1612   13.9365  -41.4690 H   0  0  0  0  0  0  0  0  0  0  0  0
  -10.9902   17.1540  -38.1606 H   0  0  0  0  0  0  0  0  0  0  0  0
  -11.8871   16.8975  -36.6630 H   0  0  0  0  0  0  0  0  0  0  0  0
  -13.4695   17.4427  -38.5858 H   0  0  0  0  0  0  0  0  0  0  0  0
  -13.8115   15.6802  -40.3454 H   0  0  0  0  0  0  0  0  0  0  0  0
  -12.9210   13.5895  -40.0325 H   0  0  0  0  0  0  0  0  0  0  0  0
  -11.5634   13.1100  -37.9652 H   0  0  0  0  0  0  0  0  0  0  0  0
   -9.7224   15.7628  -34.7443 H   0  0  0  0  0  0  0  0  0  0  0  0
  -11.3140   14.9970  -34.5384 H   0  0  0  0  0  0  0  0  0  0  0  0
  -10.0821   14.8954  -33.2617 H   0  0  0  0  0  0  0  0  0  0  0  0
  -10.0268   11.4557  -34.8477 H   0  0  0  0  0  0  0  0  0  0  0  0
  -11.4854   12.4122  -34.6564 H   0  0  0  0  0  0  0  0  0  0  0  0
  -10.3197   12.3126  -33.3181 H   0  0  0  0  0  0  0  0  0  0  0  0
   -7.7908   12.5626  -35.1723 H   0  0  0  0  0  0  0  0  0  0  0  0
   -7.6438   14.3334  -35.1552 H   0  0  0  0  0  0  0  0  0  0  0  0
   -7.9630   13.4307  -33.6566 H   0  0  0  0  0  0  0  0  0  0  0  0
   -9.9802   15.9084  -41.3962 H   0  0  0  0  0  0  0  0  0  0  0  0
  1 16  1  0  0  0  0
  1 17  2  0  0  0  0
  1 18  1  0  0  0  0
  2  3  1  0  0  0  0
  2  7  1  0  0  0  0
  3 10  1  0  0  0  0
  4  8  1  0  0  0  0
  4 15  1  0  0  0  0
  5  9  1  0  0  0  0
  5 15  1  0  0  0  0
  6  7  1  0  0  0  0
  6 16  1  0  0  0  0
  7  8  1  0  0  0  0
  8  9  1  0  0  0  0
  9 10  1  0  0  0  0
 10 16  1  0  0  0  0
 11 14  1  0  0  0  0
 12 14  1  0  0  0  0
 13 14  1  0  0  0  0
 14 18  1  0  0  0  0
  2 19  1  0  0  0  0
  2 20  1  0  0  0  0
  3 21  1  0  0  0  0
  3 22  1  0  0  0  0
  4 23  1  0  0  0  0
  4 24  1  0  0  0  0
  5 25  1  0  0  0  0
  5 26  1  0  0  0  0
  6 27  1  0  0  0  0
  6 28  1  0  0  0  0
  7 29  1  0  0  0  0
  8 30  1  0  0  0  0
  9 31  1  0  0  0  0
 10 32  1  0  0  0  0
 11 33  1  0  0  0  0
 11 34  1  0  0  0  0
 11 35  1  0  0  0  0
 12 36  1  0  0  0  0
 12 37  1  0  0  0  0
 12 38  1  0  0  0  0
 13 39  1  0  0  0  0
 13 40  1  0  0  0  0
 13 41  1  0  0  0  0
 15 42  1  0  0  0  0
M  END
> <id>
EN300-298656

> <smiles>
CC(C)(C)OC(=O)N1CC2CCC1C3CNCC32

> <MDLNUMBER>
MFCD30486923

> <IUPAC Name>
tert-butyl 4,8-diazatricyclo[5.2.2.0,2,6]undecane-8-carboxylate

> <CAS>
2044773-54-6

> <Purity>
95

> <URL>
https://www.enaminestore.com/catalog/EN300-298656

> <ROCS_ShapeQuery>
x1247relevant_x1083L0AP1_x1305L0BP1_

> <ROCS_TanimotoCombo>
0.809 

> <ROCS_ShapeTanimoto>
0.504 

> <ROCS_ColorTanimoto>
0.305 

> <ROCS_RefTversky>
0.440 

> <ROCS_RefColorTversky>
0.362 

> <ROCS_RefTverskyCombo>
0.802 

> <ROCS_FitTversky>
1.406 

> <ROCS_FitColorTversky>
0.661 

> <ROCS_FitTverskyCombo>
2.068 

> <ROCS_ColorScore>
-7.709

> <ROCS_Overlap>
1298.458

> <ROCS_Rank>
270                 

$$$$
untitled-dbase-14722_1
  -OEChem-06162310163D

 35 38  0     1  0  0  0  0  0999 V2000
   -8.4039   15.8835  -34.7310 C   0  0  0  0  0  0  0  0  0  0  0  0
   -9.1113   17.0133  -34.3892 C   0  0  0  0  0  0  0  0  0  0  0  0
   -9.0637   15.1249  -35.7417 C   0  0  0  0  0  0  0  0  0  0  0  0
  -10.2663   15.6958  -36.1258 C   0  0  0  0  0  0  0  0  0  0  0  0
   -8.5790   13.8518  -36.3521 C   0  0  0  0  0  0  0  0  0  0  0  0
  -12.6550   14.4688  -39.8822 C   0  0  0  0  0  0  0  0  0  0  0  0
  -13.5548   13.8463  -38.8043 C   0  0  0  0  0  0  0  0  0  0  0  0
  -13.6499   16.2166  -38.6049 C   0  0  0  0  0  0  0  0  0  0  0  0
  -11.1632   16.0293  -38.4817 C   0  0  0  0  0  0  0  0  0  0  0  0
  -12.6611   14.9883  -36.6723 C   0  0  0  0  0  0  0  0  0  0  0  0
   -9.2828   13.5945  -37.6886 C   0  0  0  0  0  0  0  0  0  0  0  0
  -12.3914   15.9033  -39.4076 C   0  0  1  0  0  0  0  0  0  0  0  0
  -13.7562   14.9511  -37.7601 C   0  0  2  0  0  0  0  0  0  0  0  0
  -11.1943   15.1256  -37.2061 C   0  0  0  0  0  0  0  0  0  0  0  0
  -10.7398   13.7450  -37.5641 N   0  0  0  0  0  0  0  0  0  0  0  0
  -10.5590   17.1596  -35.2854 S   0  0  0  0  0  0  0  0  0  0  0  0
   -7.4603   15.6137  -34.2742 H   0  0  0  0  0  0  0  0  0  0  0  0
   -8.8482   17.7570  -33.6503 H   0  0  0  0  0  0  0  0  0  0  0  0
   -7.4954   13.9240  -36.5083 H   0  0  0  0  0  0  0  0  0  0  0  0
   -8.7594   13.0096  -35.6746 H   0  0  0  0  0  0  0  0  0  0  0  0
  -11.7393   13.8970  -40.0561 H   0  0  0  0  0  0  0  0  0  0  0  0
  -13.2009   14.4877  -40.8335 H   0  0  0  0  0  0  0  0  0  0  0  0
  -14.5192   13.5803  -39.2553 H   0  0  0  0  0  0  0  0  0  0  0  0
  -13.1394   12.9265  -38.3823 H   0  0  0  0  0  0  0  0  0  0  0  0
  -13.5654   17.1297  -38.0067 H   0  0  0  0  0  0  0  0  0  0  0  0
  -14.5194   16.3201  -39.2655 H   0  0  0  0  0  0  0  0  0  0  0  0
  -10.2493   15.8448  -39.0643 H   0  0  0  0  0  0  0  0  0  0  0  0
  -11.0980   17.0881  -38.1996 H   0  0  0  0  0  0  0  0  0  0  0  0
  -12.8950   15.8360  -36.0150 H   0  0  0  0  0  0  0  0  0  0  0  0
  -12.7650   14.1044  -36.0327 H   0  0  0  0  0  0  0  0  0  0  0  0
   -8.9169   14.3116  -38.4320 H   0  0  0  0  0  0  0  0  0  0  0  0
   -9.0276   12.6008  -38.0728 H   0  0  0  0  0  0  0  0  0  0  0  0
  -12.2749   16.5837  -40.2578 H   0  0  0  0  0  0  0  0  0  0  0  0
  -14.7384   14.8703  -37.2824 H   0  0  0  0  0  0  0  0  0  0  0  0
  -11.1602   13.4730  -38.4534 H   0  0  0  0  0  0  0  0  0  0  0  0
  1  2  2  0  0  0  0
  1  3  1  0  0  0  0
  2 16  1  0  0  0  0
  3  4  2  0  0  0  0
  3  5  1  0  0  0  0
  4 14  1  0  0  0  0
  4 16  1  0  0  0  0
  5 11  1  0  0  0  0
  6  7  1  0  0  0  0
  6 12  1  0  0  0  0
  7 13  1  0  0  0  0
  8 12  1  0  0  0  0
  8 13  1  0  0  0  0
  9 12  1  0  0  0  0
  9 14  1  0  0  0  0
 10 13  1  0  0  0  0
 10 14  1  0  0  0  0
 11 15  1  0  0  0  0
 14 15  1  0  0  0  0
  1 17  1  0  0  0  0
  2 18  1  0  0  0  0
  5 19  1  0  0  0  0
  5 20  1  0  0  0  0
  6 21  1  0  0  0  0
  6 22  1  0  0  0  0
  7 23  1  0  0  0  0
  7 24  1  0  0  0  0
  8 25  1  0  0  0  0
  8 26  1  0  0  0  0
  9 27  1  0  0  0  0
  9 28  1  0  0  0  0
 10 29  1  0  0  0  0
 10 30  1  0  0  0  0
 11 31  1  0  0  0  0
 11 32  1  0  0  0  0
 12 33  1  0  0  0  0
 13 34  1  0  0  0  0
 15 35  1  0  0  0  0
M  END
> <id>
EN300-1075817

> <smiles>
C1CC2CC1CC3(C2)NCCC=4C=CSC43

> <IUPAC Name>
5',6'-dihydro-4'H-spiro[bicyclo[3.2.1]octane-3,7'-thieno[2,3-c]pyridine]

> <URL>
https://www.enaminestore.com/catalog/EN300-1075817

> <ROCS_ShapeQuery>
x1247relevant_x1083L0AP1_x1305L0BP1_

> <ROCS_TanimotoCombo>
0.808 

> <ROCS_ShapeTanimoto>
0.454 

> <ROCS_ColorTanimoto>
0.354 

> <ROCS_RefTversky>
0.400 

> <ROCS_RefColorTversky>
0.389 

> <ROCS_RefTverskyCombo>
0.789 

> <ROCS_FitTversky>
1.423 

> <ROCS_FitColorTversky>
0.797 

> <ROCS_FitTverskyCombo>
2.220 

> <ROCS_ColorScore>
-8.256

> <ROCS_Overlap>
1179.639

> <ROCS_Rank>
271                 

$$$$
untitled-dbase-30750_24
  -OEChem-06162310163D

 40 41  0     1  0  0  0  0  0999 V2000
   -9.7851   14.7152  -37.2244 C   0  0  0  0  0  0  0  0  0  0  0  0
  -13.3734   13.8958  -37.4072 C   0  0  0  0  0  0  0  0  0  0  0  0
  -11.9197   13.4599  -37.5507 C   0  0  0  0  0  0  0  0  0  0  0  0
  -13.4337   15.3218  -37.9525 C   0  0  1  0  0  0  0  0  0  0  0  0
  -12.0008   15.8791  -37.7600 C   0  0  2  0  0  0  0  0  0  0  0  0
  -13.2863   15.5194  -39.4839 C   0  0  2  0  0  0  0  0  0  0  0  0
  -12.0533   16.4414  -39.2147 C   0  0  0  0  0  0  0  0  0  0  0  0
  -12.3646   17.9435  -39.2168 C   0  0  0  0  0  0  0  0  0  0  0  0
  -10.8757   16.1400  -40.1398 C   0  0  0  0  0  0  0  0  0  0  0  0
   -9.4022   14.1252  -34.7011 C   0  0  0  0  0  0  0  0  0  0  0  0
   -8.9220   11.7537  -35.3755 C   0  0  0  0  0  0  0  0  0  0  0  0
   -7.2153   13.5459  -35.8040 C   0  0  0  0  0  0  0  0  0  0  0  0
   -8.7070   13.2254  -35.7219 C   0  0  0  0  0  0  0  0  0  0  0  0
  -11.1425   14.6945  -37.5041 N   0  0  0  0  0  0  0  0  0  0  0  0
   -9.1025   15.7356  -37.1776 O   0  0  0  0  0  0  0  0  0  0  0  0
  -14.4158   16.1206  -40.1446 O   0  0  0  0  0  0  0  0  0  0  0  0
   -9.2941   13.4562  -37.0071 O   0  0  0  0  0  0  0  0  0  0  0  0
  -14.0580   13.2239  -37.9333 H   0  0  0  0  0  0  0  0  0  0  0  0
  -13.6493   13.8992  -36.3461 H   0  0  0  0  0  0  0  0  0  0  0  0
  -11.6043   12.7671  -36.7649 H   0  0  0  0  0  0  0  0  0  0  0  0
  -11.7326   12.9929  -38.5236 H   0  0  0  0  0  0  0  0  0  0  0  0
  -14.2273   15.9326  -37.5071 H   0  0  0  0  0  0  0  0  0  0  0  0
  -11.9132   16.6192  -36.9567 H   0  0  0  0  0  0  0  0  0  0  0  0
  -13.0226   14.5882  -40.0026 H   0  0  0  0  0  0  0  0  0  0  0  0
  -12.3947   18.3059  -40.2406 H   0  0  0  0  0  0  0  0  0  0  0  0
  -11.5921   18.4744  -38.6675 H   0  0  0  0  0  0  0  0  0  0  0  0
  -13.3277   18.1145  -38.7438 H   0  0  0  0  0  0  0  0  0  0  0  0
  -11.0479   16.5916  -41.1154 H   0  0  0  0  0  0  0  0  0  0  0  0
  -10.7667   15.0634  -40.2593 H   0  0  0  0  0  0  0  0  0  0  0  0
   -9.9594   16.5466  -39.7150 H   0  0  0  0  0  0  0  0  0  0  0  0
   -9.2503   15.1824  -34.9463 H   0  0  0  0  0  0  0  0  0  0  0  0
  -10.4786   13.9294  -34.6578 H   0  0  0  0  0  0  0  0  0  0  0  0
   -8.9829   13.9768  -33.6994 H   0  0  0  0  0  0  0  0  0  0  0  0
   -8.4248   11.1045  -36.1053 H   0  0  0  0  0  0  0  0  0  0  0  0
   -9.9868   11.4965  -35.4085 H   0  0  0  0  0  0  0  0  0  0  0  0
   -8.5378   11.5129  -34.3790 H   0  0  0  0  0  0  0  0  0  0  0  0
   -6.7164   12.9006  -36.5361 H   0  0  0  0  0  0  0  0  0  0  0  0
   -7.0418   14.5889  -36.0877 H   0  0  0  0  0  0  0  0  0  0  0  0
   -6.7234   13.3602  -34.8423 H   0  0  0  0  0  0  0  0  0  0  0  0
  -14.1740   16.1753  -41.0779 H   0  0  0  0  0  0  0  0  0  0  0  0
  1 14  1  0  0  0  0
  1 15  2  0  0  0  0
  1 17  1  0  0  0  0
  2  3  1  0  0  0  0
  2  4  1  6  0  0  0
  3 14  1  0  0  0  0
  4  5  1  0  0  0  0
  4  6  1  0  0  0  0
  5  7  1  0  0  0  0
  5 14  1  6  0  0  0
  6  7  1  0  0  0  0
  6 16  1  0  0  0  0
  7  8  1  0  0  0  0
  7  9  1  0  0  0  0
 10 13  1  0  0  0  0
 11 13  1  0  0  0  0
 12 13  1  0  0  0  0
 13 17  1  0  0  0  0
  2 18  1  0  0  0  0
  2 19  1  0  0  0  0
  3 20  1  0  0  0  0
  3 21  1  0  0  0  0
  4 22  1  0  0  0  0
  5 23  1  0  0  0  0
  6 24  1  0  0  0  0
  8 25  1  0  0  0  0
  8 26  1  0  0  0  0
  8 27  1  0  0  0  0
  9 28  1  0  0  0  0
  9 29  1  0  0  0  0
  9 30  1  0  0  0  0
 10 31  1  0  0  0  0
 10 32  1  0  0  0  0
 10 33  1  0  0  0  0
 11 34  1  0  0  0  0
 11 35  1  0  0  0  0
 11 36  1  0  0  0  0
 12 37  1  0  0  0  0
 12 38  1  0  0  0  0
 12 39  1  0  0  0  0
 16 40  1  0  0  0  0
M  END
> <id>
EN300-7459252

> <smiles>
CC(C)(C)OC(=O)N1CC[C@@H]2C(O)C(C)(C)[C@@H]21 |&1:10,16,r|

> <IUPAC Name>
rac-tert-butyl (1R,5S)-6-hydroxy-7,7-dimethyl-2-azabicyclo[3.2.0]heptane-2-carboxylate

> <CAS>
2413864-25-0

> <Purity>
95

> <URL>
https://www.enaminestore.com/catalog/EN300-7459252

> <ROCS_ShapeQuery>
x1247relevant_x1083L0AP1_x1305L0BP1_

> <ROCS_TanimotoCombo>
0.808 

> <ROCS_ShapeTanimoto>
0.508 

> <ROCS_ColorTanimoto>
0.300 

> <ROCS_RefTversky>
0.435 

> <ROCS_RefColorTversky>
0.349 

> <ROCS_RefTverskyCombo>
0.785 

> <ROCS_FitTversky>
1.494 

> <ROCS_FitColorTversky>
0.678 

> <ROCS_FitTverskyCombo>
2.172 

> <ROCS_ColorScore>
-7.433

> <ROCS_Overlap>
1283.117

> <ROCS_Rank>
272                 

$$$$
untitled-dbase-14557_0
  -OEChem-06162310163D

 35 38  0     1  0  0  0  0  0999 V2000
   -9.1963   17.2015  -37.4345 C   0  0  0  0  0  0  0  0  0  0  0  0
   -7.9671   17.2435  -36.8099 C   0  0  0  0  0  0  0  0  0  0  0  0
   -9.6785   15.8764  -37.2775 C   0  0  0  0  0  0  0  0  0  0  0  0
   -8.7031   15.2287  -36.5535 C   0  0  0  0  0  0  0  0  0  0  0  0
   -8.7173   13.8222  -36.1165 C   0  0  0  0  0  0  0  0  0  0  0  0
  -13.3054   13.9328  -39.3219 C   0  0  0  0  0  0  0  0  0  0  0  0
  -13.8562   14.0836  -37.8960 C   0  0  0  0  0  0  0  0  0  0  0  0
  -13.5703   16.2497  -38.8450 C   0  0  0  0  0  0  0  0  0  0  0  0
  -11.2354   15.4614  -39.2281 C   0  0  0  0  0  0  0  0  0  0  0  0
  -12.1630   15.7144  -36.8547 C   0  0  0  0  0  0  0  0  0  0  0  0
  -10.1607   13.3050  -36.2605 C   0  0  0  0  0  0  0  0  0  0  0  0
  -12.7054   15.3011  -39.6687 C   0  0  1  0  0  0  0  0  0  0  0  0
  -13.5531   15.5338  -37.4986 C   0  0  2  0  0  0  0  0  0  0  0  0
  -10.9628   15.2018  -37.7103 C   0  0  0  0  0  0  0  0  0  0  0  0
  -10.7876   13.7223  -37.5317 N   0  0  0  0  0  0  0  0  0  0  0  0
   -7.6570   16.0338  -36.2664 O   0  0  0  0  0  0  0  0  0  0  0  0
   -9.6807   18.0271  -37.9361 H   0  0  0  0  0  0  0  0  0  0  0  0
   -7.2298   18.0200  -36.6670 H   0  0  0  0  0  0  0  0  0  0  0  0
   -8.0434   13.2366  -36.7522 H   0  0  0  0  0  0  0  0  0  0  0  0
   -8.3818   13.7236  -35.0794 H   0  0  0  0  0  0  0  0  0  0  0  0
  -12.5896   13.1117  -39.4181 H   0  0  0  0  0  0  0  0  0  0  0  0
  -14.1365   13.7089  -40.0024 H   0  0  0  0  0  0  0  0  0  0  0  0
  -14.9409   13.9211  -37.9135 H   0  0  0  0  0  0  0  0  0  0  0  0
  -13.4381   13.3514  -37.1991 H   0  0  0  0  0  0  0  0  0  0  0  0
  -13.1708   17.2680  -38.7978 H   0  0  0  0  0  0  0  0  0  0  0  0
  -14.5891   16.3006  -39.2480 H   0  0  0  0  0  0  0  0  0  0  0  0
  -10.5972   14.8189  -39.8504 H   0  0  0  0  0  0  0  0  0  0  0  0
  -10.9354   16.4865  -39.4865 H   0  0  0  0  0  0  0  0  0  0  0  0
  -12.0328   16.7887  -36.6594 H   0  0  0  0  0  0  0  0  0  0  0  0
  -12.1678   15.2489  -35.8620 H   0  0  0  0  0  0  0  0  0  0  0  0
  -10.1545   12.2102  -36.2143 H   0  0  0  0  0  0  0  0  0  0  0  0
  -10.7689   13.6388  -35.4125 H   0  0  0  0  0  0  0  0  0  0  0  0
  -12.7880   15.5096  -40.7405 H   0  0  0  0  0  0  0  0  0  0  0  0
  -14.3198   15.9282  -36.8234 H   0  0  0  0  0  0  0  0  0  0  0  0
  -10.2172   13.3593  -38.2964 H   0  0  0  0  0  0  0  0  0  0  0  0
  1  2  2  0  0  0  0
  1  3  1  0  0  0  0
  2 16  1  0  0  0  0
  3  4  2  0  0  0  0
  3 14  1  0  0  0  0
  4  5  1  0  0  0  0
  4 16  1  0  0  0  0
  5 11  1  0  0  0  0
  6  7  1  0  0  0  0
  6 12  1  0  0  0  0
  7 13  1  0  0  0  0
  8 12  1  0  0  0  0
  8 13  1  0  0  0  0
  9 12  1  0  0  0  0
  9 14  1  0  0  0  0
 10 13  1  0  0  0  0
 10 14  1  0  0  0  0
 11 15  1  0  0  0  0
 14 15  1  0  0  0  0
  1 17  1  0  0  0  0
  2 18  1  0  0  0  0
  5 19  1  0  0  0  0
  5 20  1  0  0  0  0
  6 21  1  0  0  0  0
  6 22  1  0  0  0  0
  7 23  1  0  0  0  0
  7 24  1  0  0  0  0
  8 25  1  0  0  0  0
  8 26  1  0  0  0  0
  9 27  1  0  0  0  0
  9 28  1  0  0  0  0
 10 29  1  0  0  0  0
 10 30  1  0  0  0  0
 11 31  1  0  0  0  0
 11 32  1  0  0  0  0
 12 33  1  0  0  0  0
 13 34  1  0  0  0  0
 15 35  1  0  0  0  0
M  END
> <id>
EN300-1076881

> <smiles>
C1CC2CC1CC3(C2)NCCC=4OC=CC43

> <IUPAC Name>
6',7'-dihydro-5'H-spiro[bicyclo[3.2.1]octane-3,4'-furo[3,2-c]pyridine]

> <URL>
https://www.enaminestore.com/catalog/EN300-1076881

> <ROCS_ShapeQuery>
x1247relevant_x1083L0AP1_x1305L0BP1_

> <ROCS_TanimotoCombo>
0.808 

> <ROCS_ShapeTanimoto>
0.458 

> <ROCS_ColorTanimoto>
0.350 

> <ROCS_RefTversky>
0.405 

> <ROCS_RefColorTversky>
0.397 

> <ROCS_RefTverskyCombo>
0.802 

> <ROCS_FitTversky>
1.398 

> <ROCS_FitColorTversky>
0.747 

> <ROCS_FitTverskyCombo>
2.146 

> <ROCS_ColorScore>
-8.458

> <ROCS_Overlap>
1193.634

> <ROCS_Rank>
273                 

$$$$
untitled-dbase-14635_0
  -OEChem-06162310163D

 35 38  0     1  0  0  0  0  0999 V2000
   -9.1980   17.2029  -37.4323 C   0  0  0  0  0  0  0  0  0  0  0  0
   -7.9689   17.2454  -36.8075 C   0  0  0  0  0  0  0  0  0  0  0  0
   -9.6791   15.8774  -37.2762 C   0  0  0  0  0  0  0  0  0  0  0  0
   -8.7033   15.2299  -36.5525 C   0  0  0  0  0  0  0  0  0  0  0  0
   -8.7165   13.8230  -36.1168 C   0  0  0  0  0  0  0  0  0  0  0  0
  -13.3052   13.9333  -39.3223 C   0  0  0  0  0  0  0  0  0  0  0  0
  -13.8557   14.0829  -37.8961 C   0  0  0  0  0  0  0  0  0  0  0  0
  -13.5703   16.2500  -38.8442 C   0  0  0  0  0  0  0  0  0  0  0  0
  -11.2353   15.4623  -39.2273 C   0  0  0  0  0  0  0  0  0  0  0  0
  -12.1634   15.7137  -36.8537 C   0  0  0  0  0  0  0  0  0  0  0  0
  -10.1595   13.3049  -36.2610 C   0  0  0  0  0  0  0  0  0  0  0  0
  -12.7053   15.3018  -39.6682 C   0  0  1  0  0  0  0  0  0  0  0  0
  -13.5534   15.5331  -37.4979 C   0  0  2  0  0  0  0  0  0  0  0  0
  -10.9629   15.2022  -37.7096 C   0  0  0  0  0  0  0  0  0  0  0  0
  -10.7867   13.7226  -37.5319 N   0  0  0  0  0  0  0  0  0  0  0  0
   -7.6577   16.0354  -36.2652 O   0  0  0  0  0  0  0  0  0  0  0  0
   -9.6810   18.0265  -37.9384 H   0  0  0  0  0  0  0  0  0  0  0  0
   -7.2283   18.0200  -36.6715 H   0  0  0  0  0  0  0  0  0  0  0  0
   -8.0334   13.2133  -36.7166 H   0  0  0  0  0  0  0  0  0  0  0  0
   -8.3993   13.7638  -35.0694 H   0  0  0  0  0  0  0  0  0  0  0  0
  -12.6198   13.0957  -39.4699 H   0  0  0  0  0  0  0  0  0  0  0  0
  -14.1517   13.7376  -39.9944 H   0  0  0  0  0  0  0  0  0  0  0  0
  -14.9425   13.9319  -37.9228 H   0  0  0  0  0  0  0  0  0  0  0  0
  -13.4655   13.3469  -37.1886 H   0  0  0  0  0  0  0  0  0  0  0  0
  -13.1705   17.2681  -38.7965 H   0  0  0  0  0  0  0  0  0  0  0  0
  -14.5889   16.3011  -39.2476 H   0  0  0  0  0  0  0  0  0  0  0  0
  -10.6028   14.8242  -39.8554 H   0  0  0  0  0  0  0  0  0  0  0  0
  -10.9317   16.4893  -39.4753 H   0  0  0  0  0  0  0  0  0  0  0  0
  -12.0430   16.7855  -36.6437 H   0  0  0  0  0  0  0  0  0  0  0  0
  -12.1556   15.2281  -35.8674 H   0  0  0  0  0  0  0  0  0  0  0  0
  -10.1839   12.2137  -36.1635 H   0  0  0  0  0  0  0  0  0  0  0  0
  -10.7546   13.7007  -35.4298 H   0  0  0  0  0  0  0  0  0  0  0  0
  -12.7888   15.5132  -40.7394 H   0  0  0  0  0  0  0  0  0  0  0  0
  -14.3204   15.9251  -36.8219 H   0  0  0  0  0  0  0  0  0  0  0  0
  -10.2750   13.3015  -38.2935 H   0  0  0  0  0  0  0  0  0  0  0  0
  1  2  2  0  0  0  0
  1  3  1  0  0  0  0
  2 16  1  0  0  0  0
  3  4  2  0  0  0  0
  3 14  1  0  0  0  0
  4  5  1  0  0  0  0
  4 16  1  0  0  0  0
  5 11  1  0  0  0  0
  6  7  1  0  0  0  0
  6 12  1  6  0  0  0
  7 13  1  6  0  0  0
  8 12  1  0  0  0  0
  8 13  1  0  0  0  0
  9 12  1  0  0  0  0
  9 14  1  0  0  0  0
 10 13  1  0  0  0  0
 10 14  1  0  0  0  0
 11 15  1  0  0  0  0
 14 15  1  0  0  0  0
  1 17  1  0  0  0  0
  2 18  1  0  0  0  0
  5 19  1  0  0  0  0
  5 20  1  0  0  0  0
  6 21  1  0  0  0  0
  6 22  1  0  0  0  0
  7 23  1  0  0  0  0
  7 24  1  0  0  0  0
  8 25  1  0  0  0  0
  8 26  1  0  0  0  0
  9 27  1  0  0  0  0
  9 28  1  0  0  0  0
 10 29  1  0  0  0  0
 10 30  1  0  0  0  0
 11 31  1  0  0  0  0
 11 32  1  0  0  0  0
 12 33  1  0  0  0  0
 13 34  1  0  0  0  0
 15 35  1  0  0  0  0
M  END
> <id>
EN300-1075922

> <smiles>
C1C[C@@H]2C[C@H]1CC3(C2)NCCC=4OC=CC43

> <IUPAC Name>
(1S,5R)-6',7'-dihydro-5'H-spiro[bicyclo[3.2.1]octane-3,4'-furo[3,2-c]pyridine]

> <URL>
https://www.enaminestore.com/catalog/EN300-1075922

> <ROCS_ShapeQuery>
x1247relevant_x1083L0AP1_x1305L0BP1_

> <ROCS_TanimotoCombo>
0.808 

> <ROCS_ShapeTanimoto>
0.458 

> <ROCS_ColorTanimoto>
0.350 

> <ROCS_RefTversky>
0.405 

> <ROCS_RefColorTversky>
0.397 

> <ROCS_RefTverskyCombo>
0.802 

> <ROCS_FitTversky>
1.398 

> <ROCS_FitColorTversky>
0.747 

> <ROCS_FitTverskyCombo>
2.146 

> <ROCS_ColorScore>
-8.458

> <ROCS_Overlap>
1193.577

> <ROCS_Rank>
274                 

$$$$
untitled-dbase-25631_24
  -OEChem-06162310163D

 35 36  0     1  0  0  0  0  0999 V2000
  -12.5963   16.1785  -39.5854 C   0  0  0  0  0  0  0  0  0  0  0  0
  -10.2636   14.5229  -36.6386 C   0  0  0  0  0  0  0  0  0  0  0  0
  -12.3712   16.8743  -38.2532 C   0  0  0  0  0  0  0  0  0  0  0  0
  -13.9764   14.4345  -38.5670 C   0  0  0  0  0  0  0  0  0  0  0  0
  -13.7203   15.0490  -37.1768 C   0  0  0  0  0  0  0  0  0  0  0  0
  -11.4924   14.1394  -38.8039 C   0  0  0  0  0  0  0  0  0  0  0  0
  -12.7627   14.6689  -39.4793 C   0  0  2  0  0  0  0  0  0  0  0  0
  -12.3665   15.7835  -37.1655 C   0  0  1  0  0  0  0  0  0  0  0  0
   -7.6228   14.9734  -35.6379 C   0  0  0  0  0  0  0  0  0  0  0  0
   -6.8440   14.3864  -37.9527 C   0  0  0  0  0  0  0  0  0  0  0  0
   -8.3144   16.3917  -37.5987 C   0  0  0  0  0  0  0  0  0  0  0  0
   -7.9815   14.9782  -37.1231 C   0  0  0  0  0  0  0  0  0  0  0  0
  -11.3221   14.7967  -37.4998 N   0  0  0  0  0  0  0  0  0  0  0  0
  -12.6426   16.7836  -40.6515 O   0  0  0  0  0  0  0  0  0  0  0  0
  -10.3246   14.6033  -35.4138 O   0  0  0  0  0  0  0  0  0  0  0  0
   -9.1331   14.1491  -37.3165 O   0  0  0  0  0  0  0  0  0  0  0  0
  -11.4120   17.4006  -38.2812 H   0  0  0  0  0  0  0  0  0  0  0  0
  -13.1815   17.5902  -38.0844 H   0  0  0  0  0  0  0  0  0  0  0  0
  -14.1749   13.3612  -38.4662 H   0  0  0  0  0  0  0  0  0  0  0  0
  -14.8742   14.8869  -39.0057 H   0  0  0  0  0  0  0  0  0  0  0  0
  -14.5316   15.7416  -36.9227 H   0  0  0  0  0  0  0  0  0  0  0  0
  -13.7294   14.2615  -36.4133 H   0  0  0  0  0  0  0  0  0  0  0  0
  -11.5460   13.0571  -38.6416 H   0  0  0  0  0  0  0  0  0  0  0  0
  -10.6013   14.3520  -39.4059 H   0  0  0  0  0  0  0  0  0  0  0  0
  -12.9094   14.2306  -40.4704 H   0  0  0  0  0  0  0  0  0  0  0  0
  -12.1795   16.2254  -36.1819 H   0  0  0  0  0  0  0  0  0  0  0  0
   -8.4367   15.3974  -35.0390 H   0  0  0  0  0  0  0  0  0  0  0  0
   -7.4159   13.9609  -35.2761 H   0  0  0  0  0  0  0  0  0  0  0  0
   -6.7414   15.5961  -35.4465 H   0  0  0  0  0  0  0  0  0  0  0  0
   -7.0971   14.3879  -39.0191 H   0  0  0  0  0  0  0  0  0  0  0  0
   -6.6650   13.3403  -37.6794 H   0  0  0  0  0  0  0  0  0  0  0  0
   -5.9121   14.9446  -37.8168 H   0  0  0  0  0  0  0  0  0  0  0  0
   -8.5717   16.3954  -38.6640 H   0  0  0  0  0  0  0  0  0  0  0  0
   -9.1530   16.8184  -37.0391 H   0  0  0  0  0  0  0  0  0  0  0  0
   -7.4484   17.0542  -37.4875 H   0  0  0  0  0  0  0  0  0  0  0  0
  1  3  1  0  0  0  0
  1  7  1  0  0  0  0
  1 14  2  0  0  0  0
  2 13  1  0  0  0  0
  2 15  2  0  0  0  0
  2 16  1  0  0  0  0
  3  8  1  0  0  0  0
  4  5  1  0  0  0  0
  4  7  1  0  0  0  0
  5  8  1  0  0  0  0
  6  7  1  0  0  0  0
  6 13  1  0  0  0  0
  8 13  1  0  0  0  0
  9 12  1  0  0  0  0
 10 12  1  0  0  0  0
 11 12  1  0  0  0  0
 12 16  1  0  0  0  0
  3 17  1  0  0  0  0
  3 18  1  0  0  0  0
  4 19  1  0  0  0  0
  4 20  1  0  0  0  0
  5 21  1  0  0  0  0
  5 22  1  0  0  0  0
  6 23  1  0  0  0  0
  6 24  1  0  0  0  0
  7 25  1  0  0  0  0
  8 26  1  0  0  0  0
  9 27  1  0  0  0  0
  9 28  1  0  0  0  0
  9 29  1  0  0  0  0
 10 30  1  0  0  0  0
 10 31  1  0  0  0  0
 10 32  1  0  0  0  0
 11 33  1  0  0  0  0
 11 34  1  0  0  0  0
 11 35  1  0  0  0  0
M  END
> <id>
EN300-1229122

> <smiles>
CC(C)(C)OC(=O)N1CC2CCC1CC2=O

> <MDLNUMBER>
MFCD17016701

> <IUPAC Name>
tert-butyl 5-oxo-2-azabicyclo[2.2.2]octane-2-carboxylate

> <CAS>
617714-22-4

> <Purity>
95

> <URL>
https://www.enaminestore.com/catalog/EN300-1229122

> <ROCS_ShapeQuery>
x1247relevant_x1083L0AP1_x1305L0BP1_

> <ROCS_TanimotoCombo>
0.808 

> <ROCS_ShapeTanimoto>
0.477 

> <ROCS_ColorTanimoto>
0.331 

> <ROCS_RefTversky>
0.414 

> <ROCS_RefColorTversky>
0.362 

> <ROCS_RefTverskyCombo>
0.776 

> <ROCS_FitTversky>
1.473 

> <ROCS_FitColorTversky>
0.792 

> <ROCS_FitTverskyCombo>
2.265 

> <ROCS_ColorScore>
-7.678

> <ROCS_Overlap>
1219.215

> <ROCS_Rank>
275                 

$$$$
untitled-dbase-21993_0
  -OEChem-06162310163D

 31 32  0     1  0  0  0  0  0999 V2000
  -11.0613   15.2961  -38.2497 C   0  0  1  0  0  0  0  0  0  0  0  0
  -11.8744   14.6282  -37.1107 C   0  0  1  0  0  0  0  0  0  0  0  0
  -13.2475   15.8354  -39.4832 C   0  0  2  0  0  0  0  0  0  0  0  0
  -11.9058   16.3621  -38.9619 C   0  0  0  0  0  0  0  0  0  0  0  0
   -9.7400   15.8545  -37.7078 C   0  0  0  0  0  0  0  0  0  0  0  0
  -13.2066   14.0836  -37.6335 C   0  0  0  0  0  0  0  0  0  0  0  0
  -11.0342   13.5628  -36.3995 C   0  0  0  0  0  0  0  0  0  0  0  0
  -14.0149   15.1558  -38.3483 C   0  0  0  0  0  0  0  0  0  0  0  0
   -8.9264   14.7892  -36.9940 C   0  0  0  0  0  0  0  0  0  0  0  0
   -9.7215   14.1279  -35.8863 C   0  0  0  0  0  0  0  0  0  0  0  0
  -13.1032   14.9458  -40.7170 C   0  0  0  0  0  0  0  0  0  0  0  0
  -10.7396   14.3331  -39.1647 F   0  0  0  0  0  0  0  0  0  0  0  0
  -12.1704   15.5939  -36.1849 F   0  0  0  0  0  0  0  0  0  0  0  0
  -13.9840   16.9162  -39.8907 F   0  0  0  0  0  0  0  0  0  0  0  0
  -12.1588   17.3743  -38.0850 F   0  0  0  0  0  0  0  0  0  0  0  0
  -11.2017   16.9136  -39.9810 F   0  0  0  0  0  0  0  0  0  0  0  0
   -9.9888   16.8735  -36.8455 F   0  0  0  0  0  0  0  0  0  0  0  0
   -9.0040   16.3751  -38.7203 F   0  0  0  0  0  0  0  0  0  0  0  0
  -12.9849   13.0412  -38.4716 F   0  0  0  0  0  0  0  0  0  0  0  0
  -13.9392   13.5935  -36.6013 F   0  0  0  0  0  0  0  0  0  0  0  0
  -11.7295   13.0351  -35.3627 F   0  0  0  0  0  0  0  0  0  0  0  0
  -10.7732   12.5391  -37.2526 F   0  0  0  0  0  0  0  0  0  0  0  0
  -14.3645   16.1040  -37.4348 F   0  0  0  0  0  0  0  0  0  0  0  0
  -15.1742   14.6293  -38.8105 F   0  0  0  0  0  0  0  0  0  0  0  0
   -7.7958   15.3352  -36.4872 F   0  0  0  0  0  0  0  0  0  0  0  0
   -8.5364   13.8467  -37.8900 F   0  0  0  0  0  0  0  0  0  0  0  0
   -9.9757   15.0389  -34.9123 F   0  0  0  0  0  0  0  0  0  0  0  0
   -8.9874   13.1434  -35.3159 F   0  0  0  0  0  0  0  0  0  0  0  0
  -12.3405   13.8807  -40.4284 F   0  0  0  0  0  0  0  0  0  0  0  0
  -14.3098   14.5206  -41.1202 F   0  0  0  0  0  0  0  0  0  0  0  0
  -12.5288   15.6345  -41.7146 F   0  0  0  0  0  0  0  0  0  0  0  0
  1  2  1  0  0  0  0
  1  4  1  0  0  0  0
  1  5  1  0  0  0  0
  1 12  1  0  0  0  0
  2  6  1  0  0  0  0
  2  7  1  0  0  0  0
  2 13  1  0  0  0  0
  3  4  1  0  0  0  0
  3  8  1  0  0  0  0
  3 11  1  0  0  0  0
  3 14  1  0  0  0  0
  4 15  1  0  0  0  0
  4 16  1  0  0  0  0
  5  9  1  0  0  0  0
  5 17  1  0  0  0  0
  5 18  1  0  0  0  0
  6  8  1  0  0  0  0
  6 19  1  0  0  0  0
  6 20  1  0  0  0  0
  7 10  1  0  0  0  0
  7 21  1  0  0  0  0
  7 22  1  0  0  0  0
  8 23  1  0  0  0  0
  8 24  1  0  0  0  0
  9 10  1  0  0  0  0
  9 25  1  0  0  0  0
  9 26  1  0  0  0  0
 10 27  1  0  0  0  0
 10 28  1  0  0  0  0
 11 29  1  0  0  0  0
 11 30  1  0  0  0  0
 11 31  1  0  0  0  0
M  END
> <id>
EN300-6739856

> <smiles>
FC(F)(F)C1(F)C(F)(F)C(F)(F)C2(F)C(F)(F)C(F)(F)C(F)(F)C(F)(F)C2(F)C1(F)F.FC(F)(F)C1(F)C(F)(F)C(F)(F)C(F)(F)C2(F)C(F)(F)C(F)(F)C(F)(F)C(F)(F)C12F

> <MDLNUMBER>
MFCD32640294

> <IUPAC Name>
1,1,2,2,3,3,4,4,4a,5,5,6,6,7,7,8,8a-heptadecafluoro-8-(trifluoromethyl)-decahydronaphthalene; 1,1,2,2,3,3,4,4,4a,5,5,6,6,7,8,8,8a-heptadecafluoro-7-(trifluoromethyl)-decahydronaphthalene

> <CAS>
51294-16-7

> <Purity>
95

> <URL>
https://www.enaminestore.com/catalog/EN300-6739856

> <Saltdate>
FC(F)(F)C1(F)C(F)(F)C(F)(F)C(F)(F)C2(F)C(F)(F)C(F)(F)C(F)(F)C(F)(F)C12F

> <ROCS_ShapeQuery>
x1247relevant_x1083L0AP1_x1305L0BP1_

> <ROCS_TanimotoCombo>
0.808 

> <ROCS_ShapeTanimoto>
0.651 

> <ROCS_ColorTanimoto>
0.157 

> <ROCS_RefTversky>
0.615 

> <ROCS_RefColorTversky>
0.155 

> <ROCS_RefTverskyCombo>
0.771 

> <ROCS_FitTversky>
1.096 

> <ROCS_FitColorTversky>
1.081 

> <ROCS_FitTverskyCombo>
2.177 

> <ROCS_ColorScore>
-3.238

> <ROCS_Overlap>
1840.918

> <ROCS_Rank>
276                 

$$$$
untitled-dbase-49064_18
  -OEChem-06162310163D

 38 39  0     1  0  0  0  0  0999 V2000
  -10.4209   14.3143  -35.5708 C   0  0  0  0  0  0  0  0  0  0  0  0
  -11.4644   15.2795  -36.1284 C   0  0  0  0  0  0  0  0  0  0  0  0
  -13.1984   13.8979  -38.3433 C   0  0  0  0  0  0  0  0  0  0  0  0
   -9.1410   14.3263  -36.3975 C   0  0  0  0  0  0  0  0  0  0  0  0
   -9.9760   15.7881  -38.0742 C   0  0  0  0  0  0  0  0  0  0  0  0
  -13.8687   14.9568  -39.2662 C   0  0  0  0  0  0  0  0  0  0  0  0
  -11.4176   15.3736  -37.6680 C   0  0  1  0  0  0  0  0  0  0  0  0
  -13.0299   16.3046  -39.2764 C   0  0  0  0  0  0  0  0  0  0  0  0
  -14.0296   14.3728  -40.6873 C   0  0  0  0  0  0  0  0  0  0  0  0
  -15.3006   15.1492  -38.7048 C   0  0  0  0  0  0  0  0  0  0  0  0
  -13.9173   17.5643  -39.3566 C   0  0  0  0  0  0  0  0  0  0  0  0
  -12.0304   16.4338  -40.4491 C   0  0  0  0  0  0  0  0  0  0  0  0
  -11.7526   14.0615  -38.2573 N   0  0  0  0  0  0  0  0  0  0  0  0
   -8.9952   15.5814  -37.0506 O   0  0  0  0  0  0  0  0  0  0  0  0
  -12.3262   16.4359  -38.0258 O   0  0  0  0  0  0  0  0  0  0  0  0
  -10.1845   14.5982  -34.5319 H   0  0  0  0  0  0  0  0  0  0  0  0
  -10.8326   13.2930  -35.5318 H   0  0  0  0  0  0  0  0  0  0  0  0
  -12.4618   14.9311  -35.8085 H   0  0  0  0  0  0  0  0  0  0  0  0
  -11.3315   16.2559  -35.6482 H   0  0  0  0  0  0  0  0  0  0  0  0
  -13.6421   13.9118  -37.3343 H   0  0  0  0  0  0  0  0  0  0  0  0
  -13.4057   12.8866  -38.7321 H   0  0  0  0  0  0  0  0  0  0  0  0
   -8.2767   14.1824  -35.7460 H   0  0  0  0  0  0  0  0  0  0  0  0
   -9.1407   13.5244  -37.1407 H   0  0  0  0  0  0  0  0  0  0  0  0
   -9.6406   15.2622  -38.9920 H   0  0  0  0  0  0  0  0  0  0  0  0
   -9.9461   16.8692  -38.3121 H   0  0  0  0  0  0  0  0  0  0  0  0
  -14.4957   15.1184  -41.3157 H   0  0  0  0  0  0  0  0  0  0  0  0
  -14.6503   13.4900  -40.6290 H   0  0  0  0  0  0  0  0  0  0  0  0
  -13.0507   14.1191  -41.0687 H   0  0  0  0  0  0  0  0  0  0  0  0
  -15.8222   15.8810  -39.3102 H   0  0  0  0  0  0  0  0  0  0  0  0
  -15.2349   15.4971  -37.6807 H   0  0  0  0  0  0  0  0  0  0  0  0
  -15.8242   14.2011  -38.7395 H   0  0  0  0  0  0  0  0  0  0  0  0
  -13.2847   18.4448  -39.3596 H   0  0  0  0  0  0  0  0  0  0  0  0
  -14.5773   17.5892  -38.4969 H   0  0  0  0  0  0  0  0  0  0  0  0
  -14.5025   17.5291  -40.2685 H   0  0  0  0  0  0  0  0  0  0  0  0
  -11.5111   17.3809  -40.3669 H   0  0  0  0  0  0  0  0  0  0  0  0
  -12.5764   16.3917  -41.3837 H   0  0  0  0  0  0  0  0  0  0  0  0
  -11.3203   15.6173  -40.3986 H   0  0  0  0  0  0  0  0  0  0  0  0
  -11.3441   13.3165  -37.7183 H   0  0  0  0  0  0  0  0  0  0  0  0
  1  2  1  0  0  0  0
  1  4  1  0  0  0  0
  2  7  1  0  0  0  0
  3  6  1  0  0  0  0
  3 13  1  0  0  0  0
  4 14  1  0  0  0  0
  5  7  1  0  0  0  0
  5 14  1  0  0  0  0
  6  8  1  0  0  0  0
  6  9  1  0  0  0  0
  6 10  1  0  0  0  0
  7 13  1  0  0  0  0
  7 15  1  0  0  0  0
  8 11  1  0  0  0  0
  8 12  1  0  0  0  0
  8 15  1  0  0  0  0
  1 16  1  0  0  0  0
  1 17  1  0  0  0  0
  2 18  1  0  0  0  0
  2 19  1  0  0  0  0
  3 20  1  0  0  0  0
  3 21  1  0  0  0  0
  4 22  1  0  0  0  0
  4 23  1  0  0  0  0
  5 24  1  0  0  0  0
  5 25  1  0  0  0  0
  9 26  1  0  0  0  0
  9 27  1  0  0  0  0
  9 28  1  0  0  0  0
 10 29  1  0  0  0  0
 10 30  1  0  0  0  0
 10 31  1  0  0  0  0
 11 32  1  0  0  0  0
 11 33  1  0  0  0  0
 11 34  1  0  0  0  0
 12 35  1  0  0  0  0
 12 36  1  0  0  0  0
 12 37  1  0  0  0  0
 13 38  1  0  0  0  0
M  END
> <id>
EN300-1280162

> <smiles>
CC1(C)CNC2(CCCOC2)OC1(C)C

> <IUPAC Name>
2,2,3,3-tetramethyl-1,8-dioxa-5-azaspiro[5.5]undecane

> <CAS>
2168314-54-1

> <URL>
https://www.enaminestore.com/catalog/EN300-1280162

> <ROCS_ShapeQuery>
x1247relevant_x1083L0AP1_x1305L0BP1_

> <ROCS_TanimotoCombo>
0.808 

> <ROCS_ShapeTanimoto>
0.507 

> <ROCS_ColorTanimoto>
0.301 

> <ROCS_RefTversky>
0.424 

> <ROCS_RefColorTversky>
0.326 

> <ROCS_RefTverskyCombo>
0.751 

> <ROCS_FitTversky>
1.621 

> <ROCS_FitColorTversky>
0.794 

> <ROCS_FitTverskyCombo>
2.415 

> <ROCS_ColorScore>
-6.906

> <ROCS_Overlap>
1249.112

> <ROCS_Rank>
277                 

$$$$
untitled-dbase-30779_24
  -OEChem-06162310163D

 40 41  0     1  0  0  0  0  0999 V2000
   -9.7824   14.7177  -37.2286 C   0  0  0  0  0  0  0  0  0  0  0  0
  -13.3686   13.8876  -37.4118 C   0  0  0  0  0  0  0  0  0  0  0  0
  -11.9135   13.4571  -37.5572 C   0  0  0  0  0  0  0  0  0  0  0  0
  -13.4335   15.3157  -37.9506 C   0  0  1  0  0  0  0  0  0  0  0  0
  -12.0023   15.8768  -37.7574 C   0  0  2  0  0  0  0  0  0  0  0  0
  -13.2880   15.5193  -39.4818 C   0  0  2  0  0  0  0  0  0  0  0  0
  -12.0578   16.4438  -39.2104 C   0  0  0  0  0  0  0  0  0  0  0  0
  -10.8795   16.1496  -40.1370 C   0  0  0  0  0  0  0  0  0  0  0  0
  -12.3747   17.9447  -39.2080 C   0  0  0  0  0  0  0  0  0  0  0  0
   -9.3939   14.1177  -34.7085 C   0  0  0  0  0  0  0  0  0  0  0  0
   -8.9074   11.7507  -35.3941 C   0  0  0  0  0  0  0  0  0  0  0  0
   -7.2069   13.5500  -35.8172 C   0  0  0  0  0  0  0  0  0  0  0  0
   -8.6975   13.2246  -35.7343 C   0  0  0  0  0  0  0  0  0  0  0  0
  -11.1403   14.6938  -37.5064 N   0  0  0  0  0  0  0  0  0  0  0  0
   -9.1029   15.7401  -37.1783 O   0  0  0  0  0  0  0  0  0  0  0  0
  -14.4144   16.1242  -40.1443 O   0  0  0  0  0  0  0  0  0  0  0  0
   -9.2873   13.4593  -37.0176 O   0  0  0  0  0  0  0  0  0  0  0  0
  -14.0512   13.2158  -37.9408 H   0  0  0  0  0  0  0  0  0  0  0  0
  -13.6448   13.8857  -36.3508 H   0  0  0  0  0  0  0  0  0  0  0  0
  -11.5960   12.7622  -36.7740 H   0  0  0  0  0  0  0  0  0  0  0  0
  -11.7250   12.9942  -38.5318 H   0  0  0  0  0  0  0  0  0  0  0  0
  -14.2286   15.9220  -37.5018 H   0  0  0  0  0  0  0  0  0  0  0  0
  -11.9165   16.6145  -36.9518 H   0  0  0  0  0  0  0  0  0  0  0  0
  -13.0208   14.5919  -40.0053 H   0  0  0  0  0  0  0  0  0  0  0  0
  -11.0538   16.6038  -41.1109 H   0  0  0  0  0  0  0  0  0  0  0  0
  -10.7666   15.0739  -40.2600 H   0  0  0  0  0  0  0  0  0  0  0  0
   -9.9645   16.5583  -39.7112 H   0  0  0  0  0  0  0  0  0  0  0  0
  -12.4066   18.3100  -40.2307 H   0  0  0  0  0  0  0  0  0  0  0  0
  -11.6038   18.4769  -38.6575 H   0  0  0  0  0  0  0  0  0  0  0  0
  -13.3382   18.1109  -38.7340 H   0  0  0  0  0  0  0  0  0  0  0  0
   -9.2456   15.1765  -34.9492 H   0  0  0  0  0  0  0  0  0  0  0  0
  -10.4696   13.9185  -34.6645 H   0  0  0  0  0  0  0  0  0  0  0  0
   -8.9726   13.9662  -33.7081 H   0  0  0  0  0  0  0  0  0  0  0  0
   -8.4094   11.1063  -36.1276 H   0  0  0  0  0  0  0  0  0  0  0  0
   -9.9715   11.4904  -35.4266 H   0  0  0  0  0  0  0  0  0  0  0  0
   -8.5210   11.5067  -34.3993 H   0  0  0  0  0  0  0  0  0  0  0  0
   -6.7071   12.9095  -36.5529 H   0  0  0  0  0  0  0  0  0  0  0  0
   -7.0370   14.5949  -36.0966 H   0  0  0  0  0  0  0  0  0  0  0  0
   -6.7129   13.3616  -34.8571 H   0  0  0  0  0  0  0  0  0  0  0  0
  -14.1700   16.1804  -41.0768 H   0  0  0  0  0  0  0  0  0  0  0  0
  1 14  1  0  0  0  0
  1 15  2  0  0  0  0
  1 17  1  0  0  0  0
  2  3  1  0  0  0  0
  2  4  1  6  0  0  0
  3 14  1  0  0  0  0
  4  5  1  0  0  0  0
  4  6  1  0  0  0  0
  5  7  1  0  0  0  0
  5 14  1  6  0  0  0
  6  7  1  0  0  0  0
  6 16  1  1  0  0  0
  7  8  1  0  0  0  0
  7  9  1  0  0  0  0
 10 13  1  0  0  0  0
 11 13  1  0  0  0  0
 12 13  1  0  0  0  0
 13 17  1  0  0  0  0
  2 18  1  0  0  0  0
  2 19  1  0  0  0  0
  3 20  1  0  0  0  0
  3 21  1  0  0  0  0
  4 22  1  0  0  0  0
  5 23  1  0  0  0  0
  6 24  1  0  0  0  0
  8 25  1  0  0  0  0
  8 26  1  0  0  0  0
  8 27  1  0  0  0  0
  9 28  1  0  0  0  0
  9 29  1  0  0  0  0
  9 30  1  0  0  0  0
 10 31  1  0  0  0  0
 10 32  1  0  0  0  0
 10 33  1  0  0  0  0
 11 34  1  0  0  0  0
 11 35  1  0  0  0  0
 11 36  1  0  0  0  0
 12 37  1  0  0  0  0
 12 38  1  0  0  0  0
 12 39  1  0  0  0  0
 16 40  1  0  0  0  0
M  END
> <id>
EN300-7491856

> <smiles>
CC(C)(C)OC(=O)N1CC[C@@H]2[C@@H](O)C(C)(C)[C@@H]21 |&1:10,11,16,r|

> <IUPAC Name>
rac-tert-butyl (1R,5S,6R)-6-hydroxy-7,7-dimethyl-2-azabicyclo[3.2.0]heptane-2-carboxylate

> <CAS>
2413846-94-1

> <Purity>
95

> <URL>
https://www.enaminestore.com/catalog/EN300-7491856

> <ROCS_ShapeQuery>
x1247relevant_x1083L0AP1_x1305L0BP1_

> <ROCS_TanimotoCombo>
0.807 

> <ROCS_ShapeTanimoto>
0.508 

> <ROCS_ColorTanimoto>
0.299 

> <ROCS_RefTversky>
0.435 

> <ROCS_RefColorTversky>
0.349 

> <ROCS_RefTverskyCombo>
0.784 

> <ROCS_FitTversky>
1.493 

> <ROCS_FitColorTversky>
0.678 

> <ROCS_FitTverskyCombo>
2.171 

> <ROCS_ColorScore>
-7.429

> <ROCS_Overlap>
1282.603

> <ROCS_Rank>
278                 

$$$$
untitled-dbase-43791_20
  -OEChem-06162310163D

 37 38  0     1  0  0  0  0  0999 V2000
  -10.3291   14.9339  -36.7439 C   0  0  0  0  0  0  0  0  0  0  0  0
  -12.8586   14.2164  -39.1884 C   0  0  0  0  0  0  0  0  0  0  0  0
  -13.7444   16.3309  -38.5214 C   0  0  0  0  0  0  0  0  0  0  0  0
  -12.8518   14.6636  -36.8624 C   0  0  0  0  0  0  0  0  0  0  0  0
  -13.7452   14.8394  -38.1041 C   0  0  2  0  0  0  0  0  0  0  0  0
  -11.6749   15.1375  -38.8665 C   0  0  1  0  0  0  0  0  0  0  0  0
  -12.3121   16.5332  -39.0828 C   0  0  2  0  0  0  0  0  0  0  0  0
  -11.5704   17.6957  -38.4345 C   0  0  0  0  0  0  0  0  0  0  0  0
   -8.9193   12.8216  -37.3825 C   0  0  0  0  0  0  0  0  0  0  0  0
   -7.6519   14.2230  -39.0374 C   0  0  0  0  0  0  0  0  0  0  0  0
   -7.2059   14.4810  -36.5792 C   0  0  0  0  0  0  0  0  0  0  0  0
   -8.2641   14.1779  -37.6391 C   0  0  0  0  0  0  0  0  0  0  0  0
  -11.5265   14.9092  -37.4276 N   0  0  0  0  0  0  0  0  0  0  0  0
  -10.2186   14.7468  -35.5348 O   0  0  0  0  0  0  0  0  0  0  0  0
  -12.3989   16.7960  -40.4844 O   0  0  0  0  0  0  0  0  0  0  0  0
   -9.2742   15.1908  -37.5775 O   0  0  0  0  0  0  0  0  0  0  0  0
  -12.6381   13.1580  -39.0108 H   0  0  0  0  0  0  0  0  0  0  0  0
  -13.2579   14.3401  -40.2001 H   0  0  0  0  0  0  0  0  0  0  0  0
  -14.5023   16.5096  -39.2927 H   0  0  0  0  0  0  0  0  0  0  0  0
  -13.9624   16.9754  -37.6631 H   0  0  0  0  0  0  0  0  0  0  0  0
  -13.0622   15.3735  -36.0572 H   0  0  0  0  0  0  0  0  0  0  0  0
  -12.8775   13.6413  -36.4712 H   0  0  0  0  0  0  0  0  0  0  0  0
  -14.7416   14.4067  -37.9994 H   0  0  0  0  0  0  0  0  0  0  0  0
  -10.7650   14.9472  -39.4403 H   0  0  0  0  0  0  0  0  0  0  0  0
  -10.5742   17.7896  -38.8666 H   0  0  0  0  0  0  0  0  0  0  0  0
  -11.4763   17.5259  -37.3620 H   0  0  0  0  0  0  0  0  0  0  0  0
  -12.1166   18.6245  -38.5993 H   0  0  0  0  0  0  0  0  0  0  0  0
   -9.3600   12.7852  -36.3797 H   0  0  0  0  0  0  0  0  0  0  0  0
   -9.7043   12.6077  -38.1152 H   0  0  0  0  0  0  0  0  0  0  0  0
   -8.1782   12.0152  -37.4239 H   0  0  0  0  0  0  0  0  0  0  0  0
   -7.1806   15.1944  -39.2258 H   0  0  0  0  0  0  0  0  0  0  0  0
   -8.4239   14.1003  -39.8056 H   0  0  0  0  0  0  0  0  0  0  0  0
   -6.8990   13.4400  -39.1743 H   0  0  0  0  0  0  0  0  0  0  0  0
   -6.7358   15.4538  -36.7631 H   0  0  0  0  0  0  0  0  0  0  0  0
   -7.6348   14.4893  -35.5719 H   0  0  0  0  0  0  0  0  0  0  0  0
   -6.4008   13.7379  -36.6088 H   0  0  0  0  0  0  0  0  0  0  0  0
  -12.9306   17.6004  -40.5787 H   0  0  0  0  0  0  0  0  0  0  0  0
  1 13  1  0  0  0  0
  1 14  2  0  0  0  0
  1 16  1  0  0  0  0
  2  5  1  0  0  0  0
  2  6  1  0  0  0  0
  3  5  1  0  0  0  0
  3  7  1  0  0  0  0
  4  5  1  0  0  0  0
  4 13  1  0  0  0  0
  6  7  1  0  0  0  0
  6 13  1  0  0  0  0
  7  8  1  0  0  0  0
  7 15  1  0  0  0  0
  9 12  1  0  0  0  0
 10 12  1  0  0  0  0
 11 12  1  0  0  0  0
 12 16  1  0  0  0  0
  2 17  1  0  0  0  0
  2 18  1  0  0  0  0
  3 19  1  0  0  0  0
  3 20  1  0  0  0  0
  4 21  1  0  0  0  0
  4 22  1  0  0  0  0
  5 23  1  0  0  0  0
  6 24  1  0  0  0  0
  8 25  1  0  0  0  0
  8 26  1  0  0  0  0
  8 27  1  0  0  0  0
  9 28  1  0  0  0  0
  9 29  1  0  0  0  0
  9 30  1  0  0  0  0
 10 31  1  0  0  0  0
 10 32  1  0  0  0  0
 10 33  1  0  0  0  0
 11 34  1  0  0  0  0
 11 35  1  0  0  0  0
 11 36  1  0  0  0  0
 15 37  1  0  0  0  0
M  END
> <id>
EN300-7339599

> <smiles>
CC(C)(C)OC(=O)N1CC2CC1C(C)(O)C2

> <IUPAC Name>
tert-butyl 6-hydroxy-6-methyl-2-azabicyclo[2.2.1]heptane-2-carboxylate

> <CAS>
2639426-61-0

> <URL>
https://www.enaminestore.com/catalog/EN300-7339599

> <ROCS_ShapeQuery>
x1247relevant_x1083L0AP1_x1305L0BP1_

> <ROCS_TanimotoCombo>
0.807 

> <ROCS_ShapeTanimoto>
0.495 

> <ROCS_ColorTanimoto>
0.312 

> <ROCS_RefTversky>
0.425 

> <ROCS_RefColorTversky>
0.360 

> <ROCS_RefTverskyCombo>
0.785 

> <ROCS_FitTversky>
1.504 

> <ROCS_FitColorTversky>
0.701 

> <ROCS_FitTverskyCombo>
2.205 

> <ROCS_ColorScore>
-7.663

> <ROCS_Overlap>
1251.491

> <ROCS_Rank>
279                 

$$$$
untitled-dbase-35011_1
  -OEChem-06162310163D

 31 33  0     1  0  0  0  0  0999 V2000
   -9.2188   15.5734  -37.4010 C   0  0  0  0  0  0  0  0  0  0  0  0
  -13.4758   16.6163  -39.0644 C   0  0  0  0  0  0  0  0  0  0  0  0
  -12.1338   16.1316  -39.6295 C   0  0  0  0  0  0  0  0  0  0  0  0
  -10.6156   16.0395  -36.9981 C   0  0  0  0  0  0  0  0  0  0  0  0
  -13.3534   14.2411  -38.9429 C   0  0  0  0  0  0  0  0  0  0  0  0
  -13.0944   15.4241  -36.8884 C   0  0  0  0  0  0  0  0  0  0  0  0
   -8.9024   14.2090  -36.7926 C   0  0  0  0  0  0  0  0  0  0  0  0
  -11.2571   13.6556  -36.6862 C   0  0  0  0  0  0  0  0  0  0  0  0
  -13.9264   15.4359  -38.1861 C   0  0  1  0  0  0  0  0  0  0  0  0
  -11.9193   14.7894  -38.9039 C   0  0  2  0  0  0  0  0  0  0  0  0
  -11.6809   14.9857  -37.3656 C   0  0  2  0  0  0  0  0  0  0  0  0
   -9.9264   13.2172  -37.1191 N   0  0  0  0  0  0  0  0  0  0  0  0
   -9.1519   15.5121  -38.4900 H   0  0  0  0  0  0  0  0  0  0  0  0
   -8.4730   16.3031  -37.0734 H   0  0  0  0  0  0  0  0  0  0  0  0
  -13.3728   17.5457  -38.4954 H   0  0  0  0  0  0  0  0  0  0  0  0
  -14.1857   16.7926  -39.8802 H   0  0  0  0  0  0  0  0  0  0  0  0
  -12.2268   15.9654  -40.7103 H   0  0  0  0  0  0  0  0  0  0  0  0
  -11.3270   16.8542  -39.4868 H   0  0  0  0  0  0  0  0  0  0  0  0
  -10.6064   16.2461  -35.9269 H   0  0  0  0  0  0  0  0  0  0  0  0
  -10.8411   16.9775  -37.5127 H   0  0  0  0  0  0  0  0  0  0  0  0
  -13.4883   13.2906  -38.4200 H   0  0  0  0  0  0  0  0  0  0  0  0
  -13.7505   14.1455  -39.9596 H   0  0  0  0  0  0  0  0  0  0  0  0
  -13.1046   16.4071  -36.4037 H   0  0  0  0  0  0  0  0  0  0  0  0
  -13.5247   14.7020  -36.1833 H   0  0  0  0  0  0  0  0  0  0  0  0
   -7.9160   13.8612  -37.1328 H   0  0  0  0  0  0  0  0  0  0  0  0
   -8.8396   14.3091  -35.7007 H   0  0  0  0  0  0  0  0  0  0  0  0
  -11.2298   13.7649  -35.6009 H   0  0  0  0  0  0  0  0  0  0  0  0
  -11.9897   12.8727  -36.9048 H   0  0  0  0  0  0  0  0  0  0  0  0
  -15.0036   15.4104  -38.0103 H   0  0  0  0  0  0  0  0  0  0  0  0
  -11.1759   14.1558  -39.3898 H   0  0  0  0  0  0  0  0  0  0  0  0
   -9.9357   13.0662  -38.1288 H   0  0  0  0  0  0  0  0  0  0  0  0
  1  4  1  0  0  0  0
  1  7  1  0  0  0  0
  2  3  1  0  0  0  0
  2  9  1  0  0  0  0
  3 10  1  0  0  0  0
  4 11  1  0  0  0  0
  5  9  1  0  0  0  0
  5 10  1  0  0  0  0
  6  9  1  0  0  0  0
  6 11  1  0  0  0  0
  7 12  1  0  0  0  0
  8 11  1  0  0  0  0
  8 12  1  0  0  0  0
 10 11  1  0  0  0  0
  1 13  1  0  0  0  0
  1 14  1  0  0  0  0
  2 15  1  0  0  0  0
  2 16  1  0  0  0  0
  3 17  1  0  0  0  0
  3 18  1  0  0  0  0
  4 19  1  0  0  0  0
  4 20  1  0  0  0  0
  5 21  1  0  0  0  0
  5 22  1  0  0  0  0
  6 23  1  0  0  0  0
  6 24  1  0  0  0  0
  7 25  1  0  0  0  0
  7 26  1  0  0  0  0
  8 27  1  0  0  0  0
  8 28  1  0  0  0  0
  9 29  1  0  0  0  0
 10 30  1  0  0  0  0
 12 31  1  0  0  0  0
M  END
> <id>
EN300-1197992

> <smiles>
C1CC2CC1CC32CCCNC3

> <MDLNUMBER>
MFCD20685597

> <IUPAC Name>
spiro[bicyclo[2.2.1]heptane-2,3'-piperidine]

> <CAS>
52918-72-6

> <URL>
https://www.enaminestore.com/catalog/EN300-1197992

> <ROCS_ShapeQuery>
x1247relevant_x1083L0AP1_x1305L0BP1_

> <ROCS_TanimotoCombo>
0.807 

> <ROCS_ShapeTanimoto>
0.467 

> <ROCS_ColorTanimoto>
0.340 

> <ROCS_RefTversky>
0.390 

> <ROCS_RefColorTversky>
0.372 

> <ROCS_RefTverskyCombo>
0.762 

> <ROCS_FitTversky>
1.743 

> <ROCS_FitColorTversky>
0.796 

> <ROCS_FitTverskyCombo>
2.539 

> <ROCS_ColorScore>
-7.897

> <ROCS_Overlap>
1144.577

> <ROCS_Rank>
280                 

$$$$
untitled-dbase-16015_17
  -OEChem-06162310163D

 43 45  0     1  0  0  0  0  0999 V2000
   -9.0338   14.6594  -37.5182 C   0  0  0  0  0  0  0  0  0  0  0  0
  -10.0833   15.7115  -37.8774 C   0  0  0  0  0  0  0  0  0  0  0  0
  -12.1556   15.9257  -40.7150 C   0  0  0  0  0  0  0  0  0  0  0  0
  -11.9519   15.4731  -36.1920 C   0  0  0  0  0  0  0  0  0  0  0  0
  -13.2867   13.7807  -38.4125 C   0  0  0  0  0  0  0  0  0  0  0  0
   -9.2133   13.8951  -36.2150 C   0  0  0  0  0  0  0  0  0  0  0  0
  -11.7251   17.3509  -41.0076 C   0  0  0  0  0  0  0  0  0  0  0  0
  -11.2767   14.5115  -35.2239 C   0  0  0  0  0  0  0  0  0  0  0  0
  -13.7833   17.3983  -39.9172 C   0  0  0  0  0  0  0  0  0  0  0  0
  -13.0783   16.0978  -39.5066 C   0  0  1  0  0  0  0  0  0  0  0  0
  -14.0439   14.9125  -39.1686 C   0  0  0  0  0  0  0  0  0  0  0  0
  -11.5789   15.3578  -37.6927 C   0  0  2  0  0  0  0  0  0  0  0  0
  -15.1958   15.4035  -38.2544 C   0  0  0  0  0  0  0  0  0  0  0  0
  -14.7028   14.3070  -40.4274 C   0  0  0  0  0  0  0  0  0  0  0  0
  -11.8601   14.0396  -38.2658 N   0  0  0  0  0  0  0  0  0  0  0  0
   -9.8615   14.6599  -35.2109 O   0  0  0  0  0  0  0  0  0  0  0  0
  -12.8207   18.1926  -40.6339 O   0  0  0  0  0  0  0  0  0  0  0  0
  -12.3090   16.4367  -38.3327 O   0  0  0  0  0  0  0  0  0  0  0  0
   -8.9894   13.9243  -38.3523 H   0  0  0  0  0  0  0  0  0  0  0  0
   -8.0316   15.1453  -37.5164 H   0  0  0  0  0  0  0  0  0  0  0  0
   -9.8451   16.5933  -37.2494 H   0  0  0  0  0  0  0  0  0  0  0  0
   -9.8977   16.0439  -38.9182 H   0  0  0  0  0  0  0  0  0  0  0  0
  -12.6955   15.5294  -41.5808 H   0  0  0  0  0  0  0  0  0  0  0  0
  -11.2860   15.2889  -40.5266 H   0  0  0  0  0  0  0  0  0  0  0  0
  -13.0406   15.3512  -36.0949 H   0  0  0  0  0  0  0  0  0  0  0  0
  -11.7680   16.4896  -35.8237 H   0  0  0  0  0  0  0  0  0  0  0  0
  -13.7436   13.6082  -37.4227 H   0  0  0  0  0  0  0  0  0  0  0  0
  -13.4072   12.8289  -38.9578 H   0  0  0  0  0  0  0  0  0  0  0  0
   -9.7186   12.9159  -36.3737 H   0  0  0  0  0  0  0  0  0  0  0  0
   -8.2094   13.6418  -35.8179 H   0  0  0  0  0  0  0  0  0  0  0  0
  -10.8585   17.6404  -40.4056 H   0  0  0  0  0  0  0  0  0  0  0  0
  -11.4845   17.5048  -42.0625 H   0  0  0  0  0  0  0  0  0  0  0  0
  -11.6132   14.7015  -34.2154 H   0  0  0  0  0  0  0  0  0  0  0  0
  -11.5274   13.4878  -35.4676 H   0  0  0  0  0  0  0  0  0  0  0  0
  -14.6099   17.2260  -40.6162 H   0  0  0  0  0  0  0  0  0  0  0  0
  -14.1741   17.9886  -39.0876 H   0  0  0  0  0  0  0  0  0  0  0  0
  -15.7374   16.1930  -38.7617 H   0  0  0  0  0  0  0  0  0  0  0  0
  -14.7764   15.7796  -37.3289 H   0  0  0  0  0  0  0  0  0  0  0  0
  -15.8611   14.5735  -38.0478 H   0  0  0  0  0  0  0  0  0  0  0  0
  -15.2291   15.0911  -40.9539 H   0  0  0  0  0  0  0  0  0  0  0  0
  -15.3935   13.5344  -40.1191 H   0  0  0  0  0  0  0  0  0  0  0  0
  -13.9289   13.8883  -41.0559 H   0  0  0  0  0  0  0  0  0  0  0  0
  -11.4251   13.3036  -37.7183 H   0  0  0  0  0  0  0  0  0  0  0  0
  1  2  1  0  0  0  0
  1  6  1  0  0  0  0
  2 12  1  0  0  0  0
  3  7  1  0  0  0  0
  3 10  1  0  0  0  0
  4  8  1  0  0  0  0
  4 12  1  0  0  0  0
  5 11  1  0  0  0  0
  5 15  1  0  0  0  0
  6 16  1  0  0  0  0
  7 17  1  0  0  0  0
  8 16  1  0  0  0  0
  9 10  1  0  0  0  0
  9 17  1  0  0  0  0
 10 11  1  0  0  0  0
 10 18  1  0  0  0  0
 11 13  1  0  0  0  0
 11 14  1  0  0  0  0
 12 15  1  0  0  0  0
 12 18  1  0  0  0  0
  1 19  1  0  0  0  0
  1 20  1  0  0  0  0
  2 21  1  0  0  0  0
  2 22  1  0  0  0  0
  3 23  1  0  0  0  0
  3 24  1  0  0  0  0
  4 25  1  0  0  0  0
  4 26  1  0  0  0  0
  5 27  1  0  0  0  0
  5 28  1  0  0  0  0
  6 29  1  0  0  0  0
  6 30  1  0  0  0  0
  7 31  1  0  0  0  0
  7 32  1  0  0  0  0
  8 33  1  0  0  0  0
  8 34  1  0  0  0  0
  9 35  1  0  0  0  0
  9 36  1  0  0  0  0
 13 37  1  0  0  0  0
 13 38  1  0  0  0  0
 13 39  1  0  0  0  0
 14 40  1  0  0  0  0
 14 41  1  0  0  0  0
 14 42  1  0  0  0  0
 15 43  1  0  0  0  0
M  END
> <id>
EN300-1280291

> <smiles>
CC1(C)CNC2(CCCOCC2)OC31CCOC3

> <IUPAC Name>
16,16-dimethyl-2,6,10-trioxa-14-azadispiro[4.1.6^{7}.3^{5}]hexadecane

> <CAS>
2172494-22-1

> <URL>
https://www.enaminestore.com/catalog/EN300-1280291

> <ROCS_ShapeQuery>
x1247relevant_x1083L0AP1_x1305L0BP1_

> <ROCS_TanimotoCombo>
0.807 

> <ROCS_ShapeTanimoto>
0.516 

> <ROCS_ColorTanimoto>
0.291 

> <ROCS_RefTversky>
0.446 

> <ROCS_RefColorTversky>
0.328 

> <ROCS_RefTverskyCombo>
0.774 

> <ROCS_FitTversky>
1.441 

> <ROCS_FitColorTversky>
0.721 

> <ROCS_FitTverskyCombo>
2.161 

> <ROCS_ColorScore>
-6.954

> <ROCS_Overlap>
1315.152

> <ROCS_Rank>
281                 

$$$$
untitled-dbase-42252_18
  -OEChem-06162310163D

 37 38  0     1  0  0  0  0  0999 V2000
   -9.9349   14.8850  -37.4877 C   0  0  0  0  0  0  0  0  0  0  0  0
  -13.5678   14.7772  -37.5528 C   0  0  0  0  0  0  0  0  0  0  0  0
  -12.5168   14.3964  -39.6572 C   0  0  0  0  0  0  0  0  0  0  0  0
  -11.8954   16.4427  -37.6052 C   0  0  0  0  0  0  0  0  0  0  0  0
  -13.2978   16.1535  -38.1783 C   0  0  1  0  0  0  0  0  0  0  0  0
  -12.2971   14.1668  -38.1474 C   0  0  1  0  0  0  0  0  0  0  0  0
  -13.1935   15.7936  -39.6898 C   0  0  2  0  0  0  0  0  0  0  0  0
  -14.5502   15.7595  -40.3908 C   0  0  0  0  0  0  0  0  0  0  0  0
   -9.6293   13.5611  -35.2482 C   0  0  0  0  0  0  0  0  0  0  0  0
   -9.4787   11.4357  -36.5783 C   0  0  0  0  0  0  0  0  0  0  0  0
   -7.5447   13.0380  -36.5580 C   0  0  0  0  0  0  0  0  0  0  0  0
   -9.0660   12.9043  -36.5076 C   0  0  0  0  0  0  0  0  0  0  0  0
  -11.2752   15.1267  -37.7058 N   0  0  0  0  0  0  0  0  0  0  0  0
   -9.1187   15.7523  -37.1852 O   0  0  0  0  0  0  0  0  0  0  0  0
  -12.3647   16.7163  -40.3864 O   0  0  0  0  0  0  0  0  0  0  0  0
   -9.6198   13.5636  -37.6519 O   0  0  0  0  0  0  0  0  0  0  0  0
  -13.5631   14.7936  -36.4573 H   0  0  0  0  0  0  0  0  0  0  0  0
  -14.4870   14.2984  -37.9025 H   0  0  0  0  0  0  0  0  0  0  0  0
  -11.5768   14.3601  -40.2182 H   0  0  0  0  0  0  0  0  0  0  0  0
  -13.1837   13.6199  -40.0497 H   0  0  0  0  0  0  0  0  0  0  0  0
  -11.3150   17.1890  -38.1541 H   0  0  0  0  0  0  0  0  0  0  0  0
  -11.9319   16.7234  -36.5469 H   0  0  0  0  0  0  0  0  0  0  0  0
  -14.0280   16.9315  -37.9461 H   0  0  0  0  0  0  0  0  0  0  0  0
  -12.0742   13.1351  -37.8705 H   0  0  0  0  0  0  0  0  0  0  0  0
  -14.9898   16.7555  -40.3922 H   0  0  0  0  0  0  0  0  0  0  0  0
  -15.2178   15.0757  -39.8693 H   0  0  0  0  0  0  0  0  0  0  0  0
  -14.4260   15.4228  -41.4187 H   0  0  0  0  0  0  0  0  0  0  0  0
   -9.3353   14.6154  -35.1938 H   0  0  0  0  0  0  0  0  0  0  0  0
  -10.7222   13.5028  -35.2172 H   0  0  0  0  0  0  0  0  0  0  0  0
   -9.2314   13.0823  -34.3462 H   0  0  0  0  0  0  0  0  0  0  0  0
   -9.0768   10.9605  -37.4805 H   0  0  0  0  0  0  0  0  0  0  0  0
  -10.5688   11.3390  -36.6381 H   0  0  0  0  0  0  0  0  0  0  0  0
   -9.1283   10.8751  -35.7057 H   0  0  0  0  0  0  0  0  0  0  0  0
   -7.1405   12.5670  -37.4613 H   0  0  0  0  0  0  0  0  0  0  0  0
   -7.2314   14.0870  -36.5455 H   0  0  0  0  0  0  0  0  0  0  0  0
   -7.0802   12.5256  -35.7078 H   0  0  0  0  0  0  0  0  0  0  0  0
  -12.2544   16.3682  -41.2857 H   0  0  0  0  0  0  0  0  0  0  0  0
  1 13  1  0  0  0  0
  1 14  2  0  0  0  0
  1 16  1  0  0  0  0
  2  5  1  0  0  0  0
  2  6  1  0  0  0  0
  3  6  1  6  0  0  0
  3  7  1  0  0  0  0
  4  5  1  6  0  0  0
  4 13  1  0  0  0  0
  5  7  1  0  0  0  0
  6 13  1  0  0  0  0
  7  8  1  1  0  0  0
  7 15  1  0  0  0  0
  9 12  1  0  0  0  0
 10 12  1  0  0  0  0
 11 12  1  0  0  0  0
 12 16  1  0  0  0  0
  2 17  1  0  0  0  0
  2 18  1  0  0  0  0
  3 19  1  0  0  0  0
  3 20  1  0  0  0  0
  4 21  1  0  0  0  0
  4 22  1  0  0  0  0
  5 23  1  0  0  0  0
  6 24  1  0  0  0  0
  8 25  1  0  0  0  0
  8 26  1  0  0  0  0
  8 27  1  0  0  0  0
  9 28  1  0  0  0  0
  9 29  1  0  0  0  0
  9 30  1  0  0  0  0
 10 31  1  0  0  0  0
 10 32  1  0  0  0  0
 10 33  1  0  0  0  0
 11 34  1  0  0  0  0
 11 35  1  0  0  0  0
 11 36  1  0  0  0  0
 15 37  1  0  0  0  0
M  END
> <id>
EN300-27718635

> <smiles>
CC(C)(C)OC(=O)N1C[C@@H]2C[C@H]1C[C@]2(C)O |&1:9,11,13,r|

> <IUPAC Name>
rac-tert-butyl (1R,4R,5R)-5-hydroxy-5-methyl-2-azabicyclo[2.2.1]heptane-2-carboxylate

> <CAS>
2416821-06-0

> <URL>
https://www.enaminestore.com/catalog/EN300-27718635

> <ROCS_ShapeQuery>
x1247relevant_x1083L0AP1_x1305L0BP1_

> <ROCS_TanimotoCombo>
0.807 

> <ROCS_ShapeTanimoto>
0.499 

> <ROCS_ColorTanimoto>
0.308 

> <ROCS_RefTversky>
0.427 

> <ROCS_RefColorTversky>
0.356 

> <ROCS_RefTverskyCombo>
0.783 

> <ROCS_FitTversky>
1.512 

> <ROCS_FitColorTversky>
0.694 

> <ROCS_FitTverskyCombo>
2.206 

> <ROCS_ColorScore>
-7.583

> <ROCS_Overlap>
1257.071

> <ROCS_Rank>
282                 

$$$$
untitled-dbase-53151_0
  -OEChem-06162310163D

 36 40  0     1  0  0  0  0  0999 V2000
  -15.1867   17.5896  -36.7621 C   0  0  0  0  0  0  0  0  0  0  0  0
   -9.1327   14.9434  -36.4050 C   0  0  0  0  0  0  0  0  0  0  0  0
  -15.7477   16.3434  -36.4417 C   0  0  0  0  0  0  0  0  0  0  0  0
   -9.6995   13.6994  -36.0837 C   0  0  0  0  0  0  0  0  0  0  0  0
  -13.9689   17.6730  -37.4401 C   0  0  0  0  0  0  0  0  0  0  0  0
   -9.8236   15.8626  -37.1975 C   0  0  0  0  0  0  0  0  0  0  0  0
  -15.1020   15.1566  -36.7937 C   0  0  0  0  0  0  0  0  0  0  0  0
  -10.9683   13.3485  -36.5492 C   0  0  0  0  0  0  0  0  0  0  0  0
  -13.3258   16.4959  -37.7935 C   0  0  0  0  0  0  0  0  0  0  0  0
  -11.0832   15.5176  -37.6633 C   0  0  0  0  0  0  0  0  0  0  0  0
  -13.8935   15.2364  -37.4701 C   0  0  0  0  0  0  0  0  0  0  0  0
  -11.6562   14.2569  -37.3397 C   0  0  0  0  0  0  0  0  0  0  0  0
  -13.1952   16.2109  -40.7648 C   0  0  0  0  0  0  0  0  0  0  0  0
  -14.2098   14.2696  -40.2076 C   0  0  0  0  0  0  0  0  0  0  0  0
  -11.9906   16.3917  -38.5275 C   0  0  0  0  0  0  0  0  0  0  0  0
  -13.0488   14.0502  -37.9394 C   0  0  0  0  0  0  0  0  0  0  0  0
  -12.2218   15.5609  -39.8264 C   0  0  1  0  0  0  0  0  0  0  0  0
  -12.8799   14.1910  -39.4942 C   0  0  2  0  0  0  0  0  0  0  0  0
  -12.0977   13.0229  -40.1107 C   0  0  0  0  0  0  0  0  0  0  0  0
  -13.0432   17.3004  -41.2967 O   0  0  0  0  0  0  0  0  0  0  0  0
  -15.0913   13.4239  -40.1644 O   0  0  0  0  0  0  0  0  0  0  0  0
  -14.2907   15.4215  -40.9292 O   0  0  0  0  0  0  0  0  0  0  0  0
  -15.7076   18.4999  -36.4775 H   0  0  0  0  0  0  0  0  0  0  0  0
   -8.1437   15.1937  -36.0301 H   0  0  0  0  0  0  0  0  0  0  0  0
  -16.6962   16.3036  -35.9126 H   0  0  0  0  0  0  0  0  0  0  0  0
   -9.1420   13.0013  -35.4646 H   0  0  0  0  0  0  0  0  0  0  0  0
  -13.5419   18.6404  -37.6827 H   0  0  0  0  0  0  0  0  0  0  0  0
   -9.3795   16.8226  -37.4379 H   0  0  0  0  0  0  0  0  0  0  0  0
  -15.5422   14.1974  -36.5428 H   0  0  0  0  0  0  0  0  0  0  0  0
  -11.3990   12.3854  -36.2967 H   0  0  0  0  0  0  0  0  0  0  0  0
  -11.5575   17.3762  -38.7313 H   0  0  0  0  0  0  0  0  0  0  0  0
  -13.4950   13.0941  -37.6464 H   0  0  0  0  0  0  0  0  0  0  0  0
  -11.2767   15.4179  -40.3662 H   0  0  0  0  0  0  0  0  0  0  0  0
  -11.1323   12.9358  -39.6206 H   0  0  0  0  0  0  0  0  0  0  0  0
  -11.9508   13.2062  -41.1712 H   0  0  0  0  0  0  0  0  0  0  0  0
  -12.6575   12.1019  -39.9757 H   0  0  0  0  0  0  0  0  0  0  0  0
  1  3  2  0  0  0  0
  1  5  1  0  0  0  0
  2  4  2  0  0  0  0
  2  6  1  0  0  0  0
  3  7  1  0  0  0  0
  4  8  1  0  0  0  0
  5  9  2  0  0  0  0
  6 10  2  0  0  0  0
  7 11  2  0  0  0  0
  8 12  2  0  0  0  0
  9 11  1  0  0  0  0
  9 15  1  0  0  0  0
 10 12  1  0  0  0  0
 10 15  1  0  0  0  0
 11 16  1  0  0  0  0
 12 16  1  0  0  0  0
 13 17  1  0  0  0  0
 13 20  2  0  0  0  0
 13 22  1  0  0  0  0
 14 18  1  0  0  0  0
 14 21  2  0  0  0  0
 14 22  1  0  0  0  0
 15 17  1  0  0  0  0
 16 18  1  0  0  0  0
 17 18  1  0  0  0  0
 18 19  1  0  0  0  0
  1 23  1  0  0  0  0
  2 24  1  0  0  0  0
  3 25  1  0  0  0  0
  4 26  1  0  0  0  0
  5 27  1  0  0  0  0
  6 28  1  0  0  0  0
  7 29  1  0  0  0  0
  8 30  1  0  0  0  0
 15 31  1  0  0  0  0
 16 32  1  0  0  0  0
 17 33  1  0  0  0  0
 19 34  1  0  0  0  0
 19 35  1  0  0  0  0
 19 36  1  0  0  0  0
M  END
> <id>
EN300-43352814

> <smiles>
CC1(C2C3C=4C=CC=CC4C1C=5C=CC=CC35)C(=O)OC2=O

> <IUPAC Name>
15-methyl-17-oxapentacyclo[6.6.5.0^{2,7}.0^{9,14}.0^{15,19}]nonadeca-2(7),3,5,9(14),10,12-hexaene-16,18-dione

> <Purity>
95

> <URL>
https://www.enaminestore.com/catalog/EN300-43352814

> <ROCS_ShapeQuery>
x1247relevant_x1083L0AP1_x1305L0BP1_

> <ROCS_TanimotoCombo>
0.807 

> <ROCS_ShapeTanimoto>
0.529 

> <ROCS_ColorTanimoto>
0.278 

> <ROCS_RefTversky>
0.481 

> <ROCS_RefColorTversky>
0.337 

> <ROCS_RefTverskyCombo>
0.818 

> <ROCS_FitTversky>
1.232 

> <ROCS_FitColorTversky>
0.613 

> <ROCS_FitTverskyCombo>
1.845 

> <ROCS_ColorScore>
-7.173

> <ROCS_Overlap>
1425.818

> <ROCS_Rank>
283                 

$$$$
untitled-dbase-24158_0
  -OEChem-06162310163D

 26 28  0     1  0  0  0  0  0999 V2000
   -9.8456   15.0196  -38.6965 C   0  0  0  0  0  0  0  0  0  0  0  0
  -10.4949   14.7200  -36.5619 C   0  0  0  0  0  0  0  0  0  0  0  0
  -13.6417   15.1094  -39.4588 C   0  0  0  0  0  0  0  0  0  0  0  0
  -14.0833   14.9061  -38.0070 C   0  0  0  0  0  0  0  0  0  0  0  0
  -12.1978   15.5843  -39.2930 C   0  0  2  0  0  0  0  0  0  0  0  0
  -12.8253   15.2951  -37.2299 C   0  0  1  0  0  0  0  0  0  0  0  0
  -11.2454   14.4654  -38.8230 C   0  0  2  0  0  0  0  0  0  0  0  0
  -11.6884   14.2612  -37.3664 C   0  0  1  0  0  0  0  0  0  0  0  0
  -11.1955   13.2377  -39.7250 C   0  0  0  0  0  0  0  0  0  0  0  0
  -12.0461   12.8454  -36.9288 C   0  0  0  0  0  0  0  0  0  0  0  0
   -9.1234   15.3489  -39.6263 O   0  0  0  0  0  0  0  0  0  0  0  0
  -10.4266   14.7474  -35.3416 O   0  0  0  0  0  0  0  0  0  0  0  0
   -9.4915   15.1137  -37.3885 O   0  0  0  0  0  0  0  0  0  0  0  0
  -12.3343   16.3688  -38.0774 O   0  0  0  0  0  0  0  0  0  0  0  0
  -13.7529   14.2156  -40.0763 H   0  0  0  0  0  0  0  0  0  0  0  0
  -14.2503   15.9027  -39.9091 H   0  0  0  0  0  0  0  0  0  0  0  0
  -14.8989   15.6027  -37.7799 H   0  0  0  0  0  0  0  0  0  0  0  0
  -14.4432   13.8960  -37.8007 H   0  0  0  0  0  0  0  0  0  0  0  0
  -11.8249   16.1978  -40.1171 H   0  0  0  0  0  0  0  0  0  0  0  0
  -13.0121   15.6507  -36.2130 H   0  0  0  0  0  0  0  0  0  0  0  0
  -12.1943   12.8157  -39.8346 H   0  0  0  0  0  0  0  0  0  0  0  0
  -10.5381   12.4842  -39.2918 H   0  0  0  0  0  0  0  0  0  0  0  0
  -10.8177   13.5142  -40.7092 H   0  0  0  0  0  0  0  0  0  0  0  0
  -12.9063   12.4874  -37.4941 H   0  0  0  0  0  0  0  0  0  0  0  0
  -12.2908   12.8350  -35.8669 H   0  0  0  0  0  0  0  0  0  0  0  0
  -11.2033   12.1775  -37.1050 H   0  0  0  0  0  0  0  0  0  0  0  0
  1  7  1  0  0  0  0
  1 11  2  0  0  0  0
  1 13  1  0  0  0  0
  2  8  1  0  0  0  0
  2 12  2  0  0  0  0
  2 13  1  0  0  0  0
  3  4  1  0  0  0  0
  3  5  1  6  0  0  0
  4  6  1  6  0  0  0
  5  7  1  0  0  0  0
  5 14  1  0  0  0  0
  6  8  1  0  0  0  0
  6 14  1  0  0  0  0
  7  8  1  0  0  0  0
  7  9  1  6  0  0  0
  8 10  1  6  0  0  0
  3 15  1  0  0  0  0
  3 16  1  0  0  0  0
  4 17  1  0  0  0  0
  4 18  1  0  0  0  0
  5 19  1  0  0  0  0
  6 20  1  0  0  0  0
  9 21  1  0  0  0  0
  9 22  1  0  0  0  0
  9 23  1  0  0  0  0
 10 24  1  0  0  0  0
 10 25  1  0  0  0  0
 10 26  1  0  0  0  0
M  END
> <id>
EN300-24727854

> <smiles>
C[C@]12[C@H]3CC[C@H](O3)[C@]2(C)C(=O)OC1=O

> <MDLNUMBER>
MFCD00134968

> <IUPAC Name>
(1R,2S,6R,7S)-2,6-dimethyl-4,10-dioxatricyclo[5.2.1.0,2,6]decane-3,5-dione

> <CAS>
56-25-7

> <URL>
https://www.enaminestore.com/catalog/EN300-24727854

> <ROCS_ShapeQuery>
x1247relevant_x1083L0AP1_x1305L0BP1_

> <ROCS_TanimotoCombo>
0.806 

> <ROCS_ShapeTanimoto>
0.469 

> <ROCS_ColorTanimoto>
0.337 

> <ROCS_RefTversky>
0.404 

> <ROCS_RefColorTversky>
0.383 

> <ROCS_RefTverskyCombo>
0.788 

> <ROCS_FitTversky>
1.518 

> <ROCS_FitColorTversky>
0.738 

> <ROCS_FitTverskyCombo>
2.256 

> <ROCS_ColorScore>
-8.156

> <ROCS_Overlap>
1190.551

> <ROCS_Rank>
284                 

$$$$
untitled-dbase-42835_37
  -OEChem-06162310163D

 43 44  0     1  0  0  0  0  0999 V2000
  -10.1042   14.3960  -36.5405 C   0  0  0  0  0  0  0  0  0  0  0  0
  -13.9125   14.0587  -37.2629 C   0  0  0  0  0  0  0  0  0  0  0  0
  -14.0614   15.5752  -37.1288 C   0  0  0  0  0  0  0  0  0  0  0  0
  -13.6248   13.6066  -38.6956 C   0  0  0  0  0  0  0  0  0  0  0  0
  -11.6027   16.2171  -37.2764 C   0  0  0  0  0  0  0  0  0  0  0  0
  -11.1712   14.2691  -38.8171 C   0  0  0  0  0  0  0  0  0  0  0  0
  -12.9964   16.3809  -37.9071 C   0  0  1  0  0  0  0  0  0  0  0  0
  -12.5713   14.4719  -39.4253 C   0  0  2  0  0  0  0  0  0  0  0  0
  -12.9819   15.9572  -39.3898 C   0  0  0  0  0  0  0  0  0  0  0  0
   -7.4930   14.0725  -35.4153 C   0  0  0  0  0  0  0  0  0  0  0  0
   -6.9018   12.9442  -37.5802 C   0  0  0  0  0  0  0  0  0  0  0  0
   -7.6084   15.3543  -37.5782 C   0  0  0  0  0  0  0  0  0  0  0  0
  -12.0772   16.8418  -40.2575 C   0  0  0  0  0  0  0  0  0  0  0  0
   -7.7901   13.9913  -36.9119 C   0  0  0  0  0  0  0  0  0  0  0  0
  -10.9961   14.9000  -37.4994 N   0  0  0  0  0  0  0  0  0  0  0  0
  -10.1596   14.6555  -35.3396 O   0  0  0  0  0  0  0  0  0  0  0  0
  -14.2986   16.0842  -39.9412 O   0  0  0  0  0  0  0  0  0  0  0  0
   -9.1501   13.5770  -37.0847 O   0  0  0  0  0  0  0  0  0  0  0  0
  -10.8172   16.7793  -39.8081 F   0  0  0  0  0  0  0  0  0  0  0  0
  -12.1132   16.4182  -41.5275 F   0  0  0  0  0  0  0  0  0  0  0  0
  -12.5006   18.1113  -40.2049 F   0  0  0  0  0  0  0  0  0  0  0  0
  -13.1140   13.7082  -36.5996 H   0  0  0  0  0  0  0  0  0  0  0  0
  -14.8258   13.5697  -36.9033 H   0  0  0  0  0  0  0  0  0  0  0  0
  -15.0579   15.8603  -37.4897 H   0  0  0  0  0  0  0  0  0  0  0  0
  -14.0380   15.8492  -36.0671 H   0  0  0  0  0  0  0  0  0  0  0  0
  -13.3092   12.5562  -38.6879 H   0  0  0  0  0  0  0  0  0  0  0  0
  -14.5629   13.6341  -39.2645 H   0  0  0  0  0  0  0  0  0  0  0  0
  -10.9066   16.9550  -37.6915 H   0  0  0  0  0  0  0  0  0  0  0  0
  -11.6536   16.4217  -36.2006 H   0  0  0  0  0  0  0  0  0  0  0  0
  -10.9525   13.1977  -38.7539 H   0  0  0  0  0  0  0  0  0  0  0  0
  -10.4044   14.7000  -39.4712 H   0  0  0  0  0  0  0  0  0  0  0  0
  -13.2861   17.4377  -37.8357 H   0  0  0  0  0  0  0  0  0  0  0  0
  -12.5473   14.1270  -40.4677 H   0  0  0  0  0  0  0  0  0  0  0  0
   -8.1286   14.8231  -34.9320 H   0  0  0  0  0  0  0  0  0  0  0  0
   -7.6533   13.1096  -34.9194 H   0  0  0  0  0  0  0  0  0  0  0  0
   -6.4573   14.3845  -35.2386 H   0  0  0  0  0  0  0  0  0  0  0  0
   -7.1116   12.8825  -38.6541 H   0  0  0  0  0  0  0  0  0  0  0  0
   -7.0975   11.9469  -37.1697 H   0  0  0  0  0  0  0  0  0  0  0  0
   -5.8392   13.1715  -37.4470 H   0  0  0  0  0  0  0  0  0  0  0  0
   -7.8215   15.2963  -38.6517 H   0  0  0  0  0  0  0  0  0  0  0  0
   -8.2653   16.1103  -37.1359 H   0  0  0  0  0  0  0  0  0  0  0  0
   -6.5715   15.6975  -37.4869 H   0  0  0  0  0  0  0  0  0  0  0  0
  -14.2302   15.8073  -40.8657 H   0  0  0  0  0  0  0  0  0  0  0  0
  1 15  1  0  0  0  0
  1 16  2  0  0  0  0
  1 18  1  0  0  0  0
  2  3  1  0  0  0  0
  2  4  1  0  0  0  0
  3  7  1  0  0  0  0
  4  8  1  0  0  0  0
  5  7  1  0  0  0  0
  5 15  1  0  0  0  0
  6  8  1  0  0  0  0
  6 15  1  0  0  0  0
  7  9  1  0  0  0  0
  8  9  1  0  0  0  0
  9 13  1  0  0  0  0
  9 17  1  0  0  0  0
 10 14  1  0  0  0  0
 11 14  1  0  0  0  0
 12 14  1  0  0  0  0
 13 19  1  0  0  0  0
 13 20  1  0  0  0  0
 13 21  1  0  0  0  0
 14 18  1  0  0  0  0
  2 22  1  0  0  0  0
  2 23  1  0  0  0  0
  3 24  1  0  0  0  0
  3 25  1  0  0  0  0
  4 26  1  0  0  0  0
  4 27  1  0  0  0  0
  5 28  1  0  0  0  0
  5 29  1  0  0  0  0
  6 30  1  0  0  0  0
  6 31  1  0  0  0  0
  7 32  1  0  0  0  0
  8 33  1  0  0  0  0
 10 34  1  0  0  0  0
 10 35  1  0  0  0  0
 10 36  1  0  0  0  0
 11 37  1  0  0  0  0
 11 38  1  0  0  0  0
 11 39  1  0  0  0  0
 12 40  1  0  0  0  0
 12 41  1  0  0  0  0
 12 42  1  0  0  0  0
 17 43  1  0  0  0  0
M  END
> <id>
EN300-27718197

> <smiles>
CC(C)(C)OC(=O)N1CC2CCCC(C1)C2(O)C(F)(F)F

> <IUPAC Name>
tert-butyl 9-hydroxy-9-(trifluoromethyl)-3-azabicyclo[3.3.1]nonane-3-carboxylate

> <CAS>
2580238-20-4

> <URL>
https://www.enaminestore.com/catalog/EN300-27718197

> <ROCS_ShapeQuery>
x1247relevant_x1083L0AP1_x1305L0BP1_

> <ROCS_TanimotoCombo>
0.806 

> <ROCS_ShapeTanimoto>
0.518 

> <ROCS_ColorTanimoto>
0.288 

> <ROCS_RefTversky>
0.463 

> <ROCS_RefColorTversky>
0.299 

> <ROCS_RefTverskyCombo>
0.762 

> <ROCS_FitTversky>
1.299 

> <ROCS_FitColorTversky>
0.888 

> <ROCS_FitTverskyCombo>
2.188 

> <ROCS_ColorScore>
-6.303

> <ROCS_Overlap>
1369.142

> <ROCS_Rank>
285                 

$$$$
untitled-dbase-17087_6
  -OEChem-06162310163D

 41 42  0     1  0  0  0  0  0999 V2000
   -9.9595   15.6130  -37.8139 C   0  0  0  0  0  0  0  0  0  0  0  0
  -13.2507   13.9148  -38.3455 C   0  0  0  0  0  0  0  0  0  0  0  0
  -11.4641   15.2233  -36.0666 C   0  0  0  0  0  0  0  0  0  0  0  0
  -13.8430   15.0317  -39.2570 C   0  0  0  0  0  0  0  0  0  0  0  0
  -11.4416   15.3064  -37.5933 C   0  0  2  0  0  0  0  0  0  0  0  0
   -9.2300   14.9265  -36.6524 C   0  0  0  0  0  0  0  0  0  0  0  0
  -12.8942   16.3005  -39.2789 C   0  0  0  0  0  0  0  0  0  0  0  0
  -15.2413   15.3547  -38.6723 C   0  0  0  0  0  0  0  0  0  0  0  0
  -14.0742   14.4706  -40.6771 C   0  0  0  0  0  0  0  0  0  0  0  0
   -8.2073   15.8623  -36.0064 C   0  0  0  0  0  0  0  0  0  0  0  0
   -8.5471   13.6248  -37.0712 C   0  0  0  0  0  0  0  0  0  0  0  0
  -11.8232   16.2742  -40.3942 C   0  0  0  0  0  0  0  0  0  0  0  0
  -13.6600   17.6254  -39.4635 C   0  0  0  0  0  0  0  0  0  0  0  0
  -11.8037   14.0201  -38.2069 N   0  0  0  0  0  0  0  0  0  0  0  0
  -10.2327   14.6118  -35.6686 O   0  0  0  0  0  0  0  0  0  0  0  0
  -12.2516   16.4186  -37.9949 O   0  0  0  0  0  0  0  0  0  0  0  0
   -9.6360   15.1668  -38.7696 H   0  0  0  0  0  0  0  0  0  0  0  0
   -9.7063   16.6764  -37.8771 H   0  0  0  0  0  0  0  0  0  0  0  0
  -13.7002   13.9728  -37.3407 H   0  0  0  0  0  0  0  0  0  0  0  0
  -13.5165   12.9121  -38.7158 H   0  0  0  0  0  0  0  0  0  0  0  0
  -11.5405   16.2029  -35.5812 H   0  0  0  0  0  0  0  0  0  0  0  0
  -12.2732   14.5822  -35.6924 H   0  0  0  0  0  0  0  0  0  0  0  0
  -15.6964   16.1291  -39.2737 H   0  0  0  0  0  0  0  0  0  0  0  0
  -15.1194   15.6942  -37.6534 H   0  0  0  0  0  0  0  0  0  0  0  0
  -15.8426   14.4569  -38.6993 H   0  0  0  0  0  0  0  0  0  0  0  0
  -14.4857   15.2533  -41.3027 H   0  0  0  0  0  0  0  0  0  0  0  0
  -14.7680   13.6406  -40.6195 H   0  0  0  0  0  0  0  0  0  0  0  0
  -13.1274   14.1336  -41.0814 H   0  0  0  0  0  0  0  0  0  0  0  0
   -7.7065   15.3497  -35.1876 H   0  0  0  0  0  0  0  0  0  0  0  0
   -8.7110   16.7463  -35.6208 H   0  0  0  0  0  0  0  0  0  0  0  0
   -7.4682   16.1646  -36.7455 H   0  0  0  0  0  0  0  0  0  0  0  0
   -8.0462   13.1797  -36.2135 H   0  0  0  0  0  0  0  0  0  0  0  0
   -7.8127   13.8281  -37.8483 H   0  0  0  0  0  0  0  0  0  0  0  0
   -9.2891   12.9266  -37.4540 H   0  0  0  0  0  0  0  0  0  0  0  0
  -11.2240   17.1758  -40.3331 H   0  0  0  0  0  0  0  0  0  0  0  0
  -12.3157   16.2254  -41.3589 H   0  0  0  0  0  0  0  0  0  0  0  0
  -11.1913   15.4034  -40.2598 H   0  0  0  0  0  0  0  0  0  0  0  0
  -12.9516   18.4452  -39.4689 H   0  0  0  0  0  0  0  0  0  0  0  0
  -14.3584   17.7468  -38.6441 H   0  0  0  0  0  0  0  0  0  0  0  0
  -14.1966   17.5951  -40.4044 H   0  0  0  0  0  0  0  0  0  0  0  0
  -11.4610   13.2636  -37.6357 H   0  0  0  0  0  0  0  0  0  0  0  0
  1  5  1  0  0  0  0
  1  6  1  0  0  0  0
  2  4  1  0  0  0  0
  2 14  1  0  0  0  0
  3  5  1  0  0  0  0
  3 15  1  0  0  0  0
  4  7  1  0  0  0  0
  4  8  1  0  0  0  0
  4  9  1  0  0  0  0
  5 14  1  0  0  0  0
  5 16  1  0  0  0  0
  6 10  1  0  0  0  0
  6 11  1  0  0  0  0
  6 15  1  0  0  0  0
  7 12  1  0  0  0  0
  7 13  1  0  0  0  0
  7 16  1  0  0  0  0
  1 17  1  0  0  0  0
  1 18  1  0  0  0  0
  2 19  1  0  0  0  0
  2 20  1  0  0  0  0
  3 21  1  0  0  0  0
  3 22  1  0  0  0  0
  8 23  1  0  0  0  0
  8 24  1  0  0  0  0
  8 25  1  0  0  0  0
  9 26  1  0  0  0  0
  9 27  1  0  0  0  0
  9 28  1  0  0  0  0
 10 29  1  0  0  0  0
 10 30  1  0  0  0  0
 10 31  1  0  0  0  0
 11 32  1  0  0  0  0
 11 33  1  0  0  0  0
 11 34  1  0  0  0  0
 12 35  1  0  0  0  0
 12 36  1  0  0  0  0
 12 37  1  0  0  0  0
 13 38  1  0  0  0  0
 13 39  1  0  0  0  0
 13 40  1  0  0  0  0
 14 41  1  0  0  0  0
M  END
> <id>
EN300-1280173

> <smiles>
CC1(C)CC2(CO1)NCC(C)(C)C(C)(C)O2

> <IUPAC Name>
3,3,7,7,8,8-hexamethyl-2,6-dioxa-10-azaspiro[4.5]decane

> <CAS>
2168815-38-9

> <URL>
https://www.enaminestore.com/catalog/EN300-1280173

> <ROCS_ShapeQuery>
x1247relevant_x1083L0AP1_x1305L0BP1_

> <ROCS_TanimotoCombo>
0.806 

> <ROCS_ShapeTanimoto>
0.527 

> <ROCS_ColorTanimoto>
0.279 

> <ROCS_RefTversky>
0.441 

> <ROCS_RefColorTversky>
0.318 

> <ROCS_RefTverskyCombo>
0.758 

> <ROCS_FitTversky>
1.590 

> <ROCS_FitColorTversky>
0.698 

> <ROCS_FitTverskyCombo>
2.288 

> <ROCS_ColorScore>
-6.739

> <ROCS_Overlap>
1298.293

> <ROCS_Rank>
286                 

$$$$
untitled-dbase-39849_1
  -OEChem-06162310163D

 32 35  0     1  0  0  0  0  0999 V2000
   -9.2403   16.5074  -34.8358 C   0  0  0  0  0  0  0  0  0  0  0  0
  -10.4262   17.2035  -34.7306 C   0  0  0  0  0  0  0  0  0  0  0  0
   -9.4575   15.5255  -35.8256 C   0  0  0  0  0  0  0  0  0  0  0  0
  -10.7574   15.6905  -36.2512 C   0  0  0  0  0  0  0  0  0  0  0  0
   -8.5960   14.4571  -36.3875 C   0  0  0  0  0  0  0  0  0  0  0  0
  -13.5461   14.4409  -39.3662 C   0  0  0  0  0  0  0  0  0  0  0  0
  -12.1279   14.8504  -39.7884 C   0  0  0  0  0  0  0  0  0  0  0  0
  -12.9659   16.4998  -38.3274 C   0  0  0  0  0  0  0  0  0  0  0  0
  -12.9280   14.5557  -36.9352 C   0  0  0  0  0  0  0  0  0  0  0  0
   -9.2267   13.8969  -37.6825 C   0  0  0  0  0  0  0  0  0  0  0  0
  -13.7545   15.2213  -38.0569 C   0  0  2  0  0  0  0  0  0  0  0  0
  -11.6613   15.7427  -38.6169 C   0  0  1  0  0  0  0  0  0  0  0  0
  -11.4611   14.8990  -37.3148 C   0  0  1  0  0  0  0  0  0  0  0  0
  -10.6796   13.6548  -37.5513 N   0  0  0  0  0  0  0  0  0  0  0  0
  -11.3593   16.7111  -35.5925 O   0  0  0  0  0  0  0  0  0  0  0  0
   -8.3407   16.6892  -34.2657 H   0  0  0  0  0  0  0  0  0  0  0  0
  -10.7511   18.0332  -34.1199 H   0  0  0  0  0  0  0  0  0  0  0  0
   -7.5919   14.8398  -36.5998 H   0  0  0  0  0  0  0  0  0  0  0  0
   -8.4994   13.6525  -35.6486 H   0  0  0  0  0  0  0  0  0  0  0  0
  -14.2708   14.7492  -40.1279 H   0  0  0  0  0  0  0  0  0  0  0  0
  -13.6372   13.3590  -39.2265 H   0  0  0  0  0  0  0  0  0  0  0  0
  -11.4834   14.0017  -40.0236 H   0  0  0  0  0  0  0  0  0  0  0  0
  -12.1855   15.4520  -40.7049 H   0  0  0  0  0  0  0  0  0  0  0  0
  -13.3393   17.0601  -39.1920 H   0  0  0  0  0  0  0  0  0  0  0  0
  -12.9196   17.1712  -37.4668 H   0  0  0  0  0  0  0  0  0  0  0  0
  -13.2116   14.9687  -35.9599 H   0  0  0  0  0  0  0  0  0  0  0  0
  -13.1200   13.4769  -36.8943 H   0  0  0  0  0  0  0  0  0  0  0  0
   -9.0388   14.5771  -38.5224 H   0  0  0  0  0  0  0  0  0  0  0  0
   -8.7325   12.9506  -37.9301 H   0  0  0  0  0  0  0  0  0  0  0  0
  -14.8055   15.3611  -37.7964 H   0  0  0  0  0  0  0  0  0  0  0  0
  -10.8153   16.3839  -38.8795 H   0  0  0  0  0  0  0  0  0  0  0  0
  -11.0324   13.1233  -38.3410 H   0  0  0  0  0  0  0  0  0  0  0  0
  1  2  2  0  0  0  0
  1  3  1  0  0  0  0
  2 15  1  0  0  0  0
  3  4  2  0  0  0  0
  3  5  1  0  0  0  0
  4 13  1  0  0  0  0
  4 15  1  0  0  0  0
  5 10  1  0  0  0  0
  6  7  1  0  0  0  0
  6 11  1  0  0  0  0
  7 12  1  0  0  0  0
  8 11  1  0  0  0  0
  8 12  1  0  0  0  0
  9 11  1  0  0  0  0
  9 13  1  0  0  0  0
 10 14  1  0  0  0  0
 12 13  1  0  0  0  0
 13 14  1  0  0  0  0
  1 16  1  0  0  0  0
  2 17  1  0  0  0  0
  5 18  1  0  0  0  0
  5 19  1  0  0  0  0
  6 20  1  0  0  0  0
  6 21  1  0  0  0  0
  7 22  1  0  0  0  0
  7 23  1  0  0  0  0
  8 24  1  0  0  0  0
  8 25  1  0  0  0  0
  9 26  1  0  0  0  0
  9 27  1  0  0  0  0
 10 28  1  0  0  0  0
 10 29  1  0  0  0  0
 11 30  1  0  0  0  0
 12 31  1  0  0  0  0
 14 32  1  0  0  0  0
M  END
> <id>
EN300-1076748

> <smiles>
C1CC2CC1CC32NCCC=4C=COC43

> <IUPAC Name>
5',6'-dihydro-4'H-spiro[bicyclo[2.2.1]heptane-2,7'-furo[2,3-c]pyridine]

> <CAS>
2137583-26-5

> <URL>
https://www.enaminestore.com/catalog/EN300-1076748

> <ROCS_ShapeQuery>
x1247relevant_x1083L0AP1_x1305L0BP1_

> <ROCS_TanimotoCombo>
0.806 

> <ROCS_ShapeTanimoto>
0.449 

> <ROCS_ColorTanimoto>
0.357 

> <ROCS_RefTversky>
0.396 

> <ROCS_RefColorTversky>
0.409 

> <ROCS_RefTverskyCombo>
0.805 

> <ROCS_FitTversky>
1.422 

> <ROCS_FitColorTversky>
0.738 

> <ROCS_FitTverskyCombo>
2.160 

> <ROCS_ColorScore>
-8.729

> <ROCS_Overlap>
1166.918

> <ROCS_Rank>
287                 

$$$$
untitled-dbase-40597_0
  -OEChem-06162310163D

 27 29  0     1  0  0  0  0  0999 V2000
  -13.7653   16.0501  -38.0655 C   0  0  0  0  0  0  0  0  0  0  0  0
  -11.6453   13.1006  -37.0761 C   0  0  0  0  0  0  0  0  0  0  0  0
  -10.2885   15.0031  -37.0716 C   0  0  0  0  0  0  0  0  0  0  0  0
  -13.5586   14.5341  -38.1982 C   0  0  2  0  0  0  0  0  0  0  0  0
  -12.2645   16.3490  -38.1938 C   0  0  1  0  0  0  0  0  0  0  0  0
  -12.6092   14.2749  -37.0038 C   0  0  2  0  0  0  0  0  0  0  0  0
  -11.7128   15.5318  -37.0007 C   0  0  1  0  0  0  0  0  0  0  0  0
  -12.8437   14.4492  -39.5641 C   0  0  2  0  0  0  0  0  0  0  0  0
  -11.9480   15.7052  -39.5611 C   0  0  1  0  0  0  0  0  0  0  0  0
  -10.4127   13.6580  -37.6340 N   0  0  0  0  0  0  0  0  0  0  0  0
  -13.7970   14.4891  -40.6182 O   0  0  0  0  0  0  0  0  0  0  0  0
  -12.2936   16.5965  -40.6135 O   0  0  0  0  0  0  0  0  0  0  0  0
  -14.3702   16.4833  -38.8690 H   0  0  0  0  0  0  0  0  0  0  0  0
  -14.1860   16.3477  -37.0986 H   0  0  0  0  0  0  0  0  0  0  0  0
  -11.4447   12.7227  -36.0663 H   0  0  0  0  0  0  0  0  0  0  0  0
  -12.0280   12.2697  -37.6751 H   0  0  0  0  0  0  0  0  0  0  0  0
   -9.6260   15.6377  -37.6671 H   0  0  0  0  0  0  0  0  0  0  0  0
   -9.8675   14.9335  -36.0612 H   0  0  0  0  0  0  0  0  0  0  0  0
  -14.4866   13.9585  -38.1517 H   0  0  0  0  0  0  0  0  0  0  0  0
  -12.0229   17.4137  -38.1435 H   0  0  0  0  0  0  0  0  0  0  0  0
  -13.1953   14.2251  -36.0772 H   0  0  0  0  0  0  0  0  0  0  0  0
  -11.8598   16.0996  -36.0729 H   0  0  0  0  0  0  0  0  0  0  0  0
  -12.2637   13.5287  -39.6759 H   0  0  0  0  0  0  0  0  0  0  0  0
  -10.8883   15.4568  -39.6710 H   0  0  0  0  0  0  0  0  0  0  0  0
   -9.6090   13.0835  -37.3872 H   0  0  0  0  0  0  0  0  0  0  0  0
  -13.2981   14.4330  -41.4492 H   0  0  0  0  0  0  0  0  0  0  0  0
  -13.2452   16.7707  -40.5319 H   0  0  0  0  0  0  0  0  0  0  0  0
  1  4  1  6  0  0  0
  1  5  1  6  0  0  0
  2  6  1  1  0  0  0
  2 10  1  0  0  0  0
  3  7  1  1  0  0  0
  3 10  1  0  0  0  0
  4  6  1  0  0  0  0
  4  8  1  0  0  0  0
  5  7  1  0  0  0  0
  5  9  1  0  0  0  0
  6  7  1  0  0  0  0
  8  9  1  0  0  0  0
  8 11  1  6  0  0  0
  9 12  1  6  0  0  0
  1 13  1  0  0  0  0
  1 14  1  0  0  0  0
  2 15  1  0  0  0  0
  2 16  1  0  0  0  0
  3 17  1  0  0  0  0
  3 18  1  0  0  0  0
  4 19  1  0  0  0  0
  5 20  1  0  0  0  0
  6 21  1  0  0  0  0
  7 22  1  0  0  0  0
  8 23  1  0  0  0  0
  9 24  1  0  0  0  0
 10 25  1  0  0  0  0
 11 26  1  0  0  0  0
 12 27  1  0  0  0  0
M  END
> <id>
EN300-27108256

> <smiles>
Cl.O[C@H]1[C@@H](O)[C@H]2C[C@@H]1[C@H]3CNC[C@@H]23

> <MDLNUMBER>
MFCD32852765

> <IUPAC Name>
(1R,2S,6R,7S,8S,9R)-4-azatricyclo[5.2.1.0,2,6]decane-8,9-diol hydrochloride

> <CAS>
2490322-59-1

> <Purity>
95

> <URL>
https://www.enaminestore.com/catalog/EN300-27108256

> <Saltdate>
Cl

> <ROCS_ShapeQuery>
x1247relevant_x1083L0AP1_x1305L0BP1_

> <ROCS_TanimotoCombo>
0.806 

> <ROCS_ShapeTanimoto>
0.462 

> <ROCS_ColorTanimoto>
0.344 

> <ROCS_RefTversky>
0.388 

> <ROCS_RefColorTversky>
0.421 

> <ROCS_RefTverskyCombo>
0.810 

> <ROCS_FitTversky>
1.698 

> <ROCS_FitColorTversky>
0.653 

> <ROCS_FitTverskyCombo>
2.351 

> <ROCS_ColorScore>
-9.029

> <ROCS_Overlap>
1140.948

> <ROCS_Rank>
288                 

$$$$
untitled-dbase-13978_0
  -OEChem-06162310163D

 34 37  0     1  0  0  0  0  0999 V2000
   -9.3274   16.6230  -34.8802 C   0  0  0  0  0  0  0  0  0  0  0  0
  -10.5330   17.2921  -34.8693 C   0  0  0  0  0  0  0  0  0  0  0  0
   -9.4703   15.5877  -35.8287 C   0  0  0  0  0  0  0  0  0  0  0  0
  -10.7468   15.7032  -36.3337 C   0  0  0  0  0  0  0  0  0  0  0  0
   -8.5596   14.5059  -36.2737 C   0  0  0  0  0  0  0  0  0  0  0  0
  -12.4014   16.7928  -38.6706 C   0  0  0  0  0  0  0  0  0  0  0  0
  -12.1486   14.6204  -39.7826 C   0  0  0  0  0  0  0  0  0  0  0  0
   -9.1114   13.8382  -37.5520 C   0  0  0  0  0  0  0  0  0  0  0  0
  -13.7588   16.3566  -38.1023 C   0  0  0  0  0  0  0  0  0  0  0  0
  -13.5554   14.2622  -39.2755 C   0  0  0  0  0  0  0  0  0  0  0  0
  -12.8406   14.4270  -36.9811 C   0  0  0  0  0  0  0  0  0  0  0  0
  -11.4704   15.5652  -38.7665 C   0  0  0  0  0  0  0  0  0  0  0  0
  -11.3898   14.8398  -37.3831 C   0  0  1  0  0  0  0  0  0  0  0  0
  -10.5681   13.5900  -37.4888 N   0  0  0  0  0  0  0  0  0  0  0  0
  -13.8484   14.8887  -37.9675 N   0  0  0  0  0  0  0  0  0  0  0  0
  -11.4088   16.7332  -35.7501 O   0  0  0  0  0  0  0  0  0  0  0  0
   -8.4651   16.8523  -34.2708 H   0  0  0  0  0  0  0  0  0  0  0  0
  -10.9096   18.1398  -34.3157 H   0  0  0  0  0  0  0  0  0  0  0  0
   -7.5551   14.8984  -36.4645 H   0  0  0  0  0  0  0  0  0  0  0  0
   -8.4816   13.7580  -35.4752 H   0  0  0  0  0  0  0  0  0  0  0  0
  -12.5415   17.2300  -39.6676 H   0  0  0  0  0  0  0  0  0  0  0  0
  -11.9610   17.5818  -38.0528 H   0  0  0  0  0  0  0  0  0  0  0  0
  -11.5603   13.7196  -39.9787 H   0  0  0  0  0  0  0  0  0  0  0  0
  -12.2359   15.1315  -40.7502 H   0  0  0  0  0  0  0  0  0  0  0  0
   -8.8709   14.4460  -38.4319 H   0  0  0  0  0  0  0  0  0  0  0  0
   -8.5990   12.8793  -37.6912 H   0  0  0  0  0  0  0  0  0  0  0  0
  -13.9326   16.8306  -37.1283 H   0  0  0  0  0  0  0  0  0  0  0  0
  -14.5661   16.7183  -38.7510 H   0  0  0  0  0  0  0  0  0  0  0  0
  -14.3095   14.5706  -40.0106 H   0  0  0  0  0  0  0  0  0  0  0  0
  -13.6546   13.1726  -39.1933 H   0  0  0  0  0  0  0  0  0  0  0  0
  -12.9330   13.3361  -36.8856 H   0  0  0  0  0  0  0  0  0  0  0  0
  -13.1133   14.8085  -35.9883 H   0  0  0  0  0  0  0  0  0  0  0  0
  -10.4869   15.8798  -39.1326 H   0  0  0  0  0  0  0  0  0  0  0  0
  -10.8621   13.0154  -38.2734 H   0  0  0  0  0  0  0  0  0  0  0  0
  1  2  2  0  0  0  0
  1  3  1  0  0  0  0
  2 16  1  0  0  0  0
  3  4  2  0  0  0  0
  3  5  1  0  0  0  0
  4 13  1  0  0  0  0
  4 16  1  0  0  0  0
  5  8  1  0  0  0  0
  6  9  1  0  0  0  0
  6 12  1  0  0  0  0
  7 10  1  0  0  0  0
  7 12  1  0  0  0  0
  8 14  1  0  0  0  0
  9 15  1  0  0  0  0
 10 15  1  0  0  0  0
 11 13  1  0  0  0  0
 11 15  1  0  0  0  0
 12 13  1  0  0  0  0
 13 14  1  0  0  0  0
  1 17  1  0  0  0  0
  2 18  1  0  0  0  0
  5 19  1  0  0  0  0
  5 20  1  0  0  0  0
  6 21  1  0  0  0  0
  6 22  1  0  0  0  0
  7 23  1  0  0  0  0
  7 24  1  0  0  0  0
  8 25  1  0  0  0  0
  8 26  1  0  0  0  0
  9 27  1  0  0  0  0
  9 28  1  0  0  0  0
 10 29  1  0  0  0  0
 10 30  1  0  0  0  0
 11 31  1  0  0  0  0
 11 32  1  0  0  0  0
 12 33  1  0  0  0  0
 14 34  1  0  0  0  0
M  END
> <id>
EN300-1076762

> <smiles>
C1CC=2C=COC2C3(CN4CCC3CC4)N1

> <IUPAC Name>
5',6'-dihydro-4'H-4-azaspiro[bicyclo[2.2.2]octane-2,7'-furo[2,3-c]pyridine]

> <CAS>
2137843-77-5

> <URL>
https://www.enaminestore.com/catalog/EN300-1076762

> <ROCS_ShapeQuery>
x1247relevant_x1083L0AP1_x1305L0BP1_

> <ROCS_TanimotoCombo>
0.806 

> <ROCS_ShapeTanimoto>
0.465 

> <ROCS_ColorTanimoto>
0.341 

> <ROCS_RefTversky>
0.410 

> <ROCS_RefColorTversky>
0.404 

> <ROCS_RefTverskyCombo>
0.814 

> <ROCS_FitTversky>
1.403 

> <ROCS_FitColorTversky>
0.686 

> <ROCS_FitTverskyCombo>
2.090 

> <ROCS_ColorScore>
-8.626

> <ROCS_Overlap>
1209.758

> <ROCS_Rank>
289                 

$$$$
untitled-dbase-2793_0
  -OEChem-06162310163D

 19 21  0     1  0  0  0  0  0999 V2000
   -9.9743   15.6897  -37.0277 C   0  0  0  0  0  0  0  0  0  0  0  0
  -12.0572   14.2898  -37.0429 C   0  0  0  0  0  0  0  0  0  0  0  0
  -11.7822   14.7388  -39.3559 C   0  0  0  0  0  0  0  0  0  0  0  0
  -11.4347   15.7091  -37.1917 C   0  0  2  0  0  0  0  0  0  0  0  0
  -12.7892   14.0875  -38.3925 C   0  0  2  0  0  0  0  0  0  0  0  0
  -11.8507   16.1033  -38.6369 C   0  0  2  0  0  0  0  0  0  0  0  0
  -13.9694   15.0471  -38.4190 C   0  0  1  0  0  0  0  0  0  0  0  0
  -13.3460   16.3932  -38.5927 C   0  0  2  0  0  0  0  0  0  0  0  0
   -8.8214   15.6743  -36.8982 N   0  0  0  0  0  0  0  0  0  0  0  0
  -14.1762   15.8181  -39.6061 O   0  0  0  0  0  0  0  0  0  0  0  0
  -11.2929   13.5173  -36.8971 H   0  0  0  0  0  0  0  0  0  0  0  0
  -12.7524   14.2516  -36.1968 H   0  0  0  0  0  0  0  0  0  0  0  0
  -10.7913   14.2736  -39.3347 H   0  0  0  0  0  0  0  0  0  0  0  0
  -12.1364   14.7788  -40.3913 H   0  0  0  0  0  0  0  0  0  0  0  0
  -11.8701   16.3932  -36.4537 H   0  0  0  0  0  0  0  0  0  0  0  0
  -13.0523   13.0528  -38.6178 H   0  0  0  0  0  0  0  0  0  0  0  0
  -11.2608   16.8974  -39.1000 H   0  0  0  0  0  0  0  0  0  0  0  0
  -14.7621   14.8950  -37.7063 H   0  0  0  0  0  0  0  0  0  0  0  0
  -13.6814   17.2358  -38.0119 H   0  0  0  0  0  0  0  0  0  0  0  0
  1  4  1  1  0  0  0
  1  9  3  0  0  0  0
  2  4  1  0  0  0  0
  2  5  1  0  0  0  0
  3  5  1  0  0  0  0
  3  6  1  0  0  0  0
  4  6  1  0  0  0  0
  5  7  1  0  0  0  0
  6  8  1  0  0  0  0
  7  8  1  0  0  0  0
  7 10  1  0  0  0  0
  8 10  1  0  0  0  0
  2 11  1  0  0  0  0
  2 12  1  0  0  0  0
  3 13  1  0  0  0  0
  3 14  1  0  0  0  0
  4 15  1  0  0  0  0
  5 16  1  0  0  0  0
  6 17  1  0  0  0  0
  7 18  1  0  0  0  0
  8 19  1  0  0  0  0
M  END
> <id>
EN300-98742

> <smiles>
N#C[C@@H]1CC2CC1C3OC32

> <MDLNUMBER>
MFCD22578758

> <IUPAC Name>
(6R)-3-oxatricyclo[3.2.1.0,2,4]octane-6-carbonitrile

> <URL>
https://www.enaminestore.com/catalog/EN300-98742

> <ROCS_ShapeQuery>
x1247relevant_x1083L0AP1_x1305L0BP1_

> <ROCS_TanimotoCombo>
0.806 

> <ROCS_ShapeTanimoto>
0.417 

> <ROCS_ColorTanimoto>
0.389 

> <ROCS_RefTversky>
0.353 

> <ROCS_RefColorTversky>
0.529 

> <ROCS_RefTverskyCombo>
0.882 

> <ROCS_FitTversky>
1.770 

> <ROCS_FitColorTversky>
0.594 

> <ROCS_FitTverskyCombo>
2.365 

> <ROCS_ColorScore>
-11.496

> <ROCS_Overlap>
1035.437

> <ROCS_Rank>
290                 

$$$$
untitled-dbase-43239_0
  -OEChem-06162310163D

 19 21  0     1  0  0  0  0  0999 V2000
   -9.9742   15.6897  -37.0276 C   0  0  0  0  0  0  0  0  0  0  0  0
  -12.0572   14.2899  -37.0429 C   0  0  0  0  0  0  0  0  0  0  0  0
  -11.7820   14.7392  -39.3560 C   0  0  0  0  0  0  0  0  0  0  0  0
  -11.4347   15.7091  -37.1915 C   0  0  2  0  0  0  0  0  0  0  0  0
  -12.7887   14.0875  -38.3928 C   0  0  2  0  0  0  0  0  0  0  0  0
  -11.8509   16.1037  -38.6368 C   0  0  2  0  0  0  0  0  0  0  0  0
  -13.9695   15.0466  -38.4193 C   0  0  1  0  0  0  0  0  0  0  0  0
  -13.3464   16.3930  -38.5924 C   0  0  2  0  0  0  0  0  0  0  0  0
   -8.8213   15.6743  -36.8982 N   0  0  0  0  0  0  0  0  0  0  0  0
  -14.1763   15.8181  -39.6061 O   0  0  0  0  0  0  0  0  0  0  0  0
  -11.2928   13.5175  -36.8969 H   0  0  0  0  0  0  0  0  0  0  0  0
  -12.7526   14.2516  -36.1970 H   0  0  0  0  0  0  0  0  0  0  0  0
  -10.7908   14.2744  -39.3348 H   0  0  0  0  0  0  0  0  0  0  0  0
  -12.1361   14.7793  -40.3913 H   0  0  0  0  0  0  0  0  0  0  0  0
  -11.8701   16.3932  -36.4534 H   0  0  0  0  0  0  0  0  0  0  0  0
  -13.0515   13.0526  -38.6183 H   0  0  0  0  0  0  0  0  0  0  0  0
  -11.2613   16.8980  -39.0997 H   0  0  0  0  0  0  0  0  0  0  0  0
  -14.7622   14.8941  -37.7067 H   0  0  0  0  0  0  0  0  0  0  0  0
  -13.6821   17.2352  -38.0113 H   0  0  0  0  0  0  0  0  0  0  0  0
  1  4  1  1  0  0  0
  1  9  3  0  0  0  0
  2  4  1  0  0  0  0
  2  5  1  6  0  0  0
  3  5  1  0  0  0  0
  3  6  1  1  0  0  0
  4  6  1  0  0  0  0
  5  7  1  0  0  0  0
  6  8  1  0  0  0  0
  7  8  1  0  0  0  0
  7 10  1  1  0  0  0
  8 10  1  1  0  0  0
  2 11  1  0  0  0  0
  2 12  1  0  0  0  0
  3 13  1  0  0  0  0
  3 14  1  0  0  0  0
  4 15  1  0  0  0  0
  5 16  1  0  0  0  0
  6 17  1  0  0  0  0
  7 18  1  0  0  0  0
  8 19  1  0  0  0  0
M  END
> <id>
EN300-1084796

> <smiles>
N#C[C@@H]1C[C@@H]2C[C@H]1[C@H]3O[C@H]32 |&1:2,4,6,7,9,r|

> <MDLNUMBER>
MFCD31560884

> <IUPAC Name>
rac-(1R,2S,4R,5R,6R)-3-oxatricyclo[3.2.1.0,2,4]octane-6-carbonitrile

> <CAS>
21154-34-7

> <Purity>
95

> <URL>
https://www.enaminestore.com/catalog/EN300-1084796

> <ROCS_ShapeQuery>
x1247relevant_x1083L0AP1_x1305L0BP1_

> <ROCS_TanimotoCombo>
0.806 

> <ROCS_ShapeTanimoto>
0.417 

> <ROCS_ColorTanimoto>
0.389 

> <ROCS_RefTversky>
0.353 

> <ROCS_RefColorTversky>
0.529 

> <ROCS_RefTverskyCombo>
0.882 

> <ROCS_FitTversky>
1.770 

> <ROCS_FitColorTversky>
0.594 

> <ROCS_FitTverskyCombo>
2.365 

> <ROCS_ColorScore>
-11.496

> <ROCS_Overlap>
1035.399

> <ROCS_Rank>
291                 

$$$$
untitled-dbase-52100_2
  -OEChem-06162310163D

 37 40  0     1  0  0  0  0  0999 V2000
  -12.3612   16.8214  -38.3521 C   0  0  0  0  0  0  0  0  0  0  0  0
  -12.0499   14.8437  -39.8002 C   0  0  0  0  0  0  0  0  0  0  0  0
   -8.7250   15.0876  -36.6283 C   0  0  0  0  0  0  0  0  0  0  0  0
  -13.7320   16.2988  -37.8994 C   0  0  0  0  0  0  0  0  0  0  0  0
  -13.4962   14.4638  -39.4413 C   0  0  0  0  0  0  0  0  0  0  0  0
   -9.0963   13.9164  -37.5405 C   0  0  0  0  0  0  0  0  0  0  0  0
   -9.8237   14.3065  -34.3827 C   0  0  0  0  0  0  0  0  0  0  0  0
   -9.4474   16.3531  -34.4927 C   0  0  0  0  0  0  0  0  0  0  0  0
  -12.8543   14.1816  -37.1407 C   0  0  0  0  0  0  0  0  0  0  0  0
  -11.4299   15.6223  -38.6262 C   0  0  0  0  0  0  0  0  0  0  0  0
   -9.8045   15.3014  -35.5708 C   0  0  0  0  0  0  0  0  0  0  0  0
  -11.4055   14.7107  -37.3626 C   0  0  2  0  0  0  0  0  0  0  0  0
   -9.0384   15.2659  -33.5845 N   0  0  0  0  0  0  0  0  0  0  0  0
  -10.5125   13.5488  -37.5102 N   0  0  0  0  0  0  0  0  0  0  0  0
  -13.8323   14.8322  -38.0475 N   0  0  0  0  0  0  0  0  0  0  0  0
  -11.0813   15.5243  -36.2162 O   0  0  0  0  0  0  0  0  0  0  0  0
  -12.4734   17.4218  -39.2626 H   0  0  0  0  0  0  0  0  0  0  0  0
  -11.9470   17.4836  -37.5862 H   0  0  0  0  0  0  0  0  0  0  0  0
  -11.4662   13.9495  -40.0387 H   0  0  0  0  0  0  0  0  0  0  0  0
  -12.0478   15.4674  -40.7020 H   0  0  0  0  0  0  0  0  0  0  0  0
   -7.7588   14.8805  -36.1415 H   0  0  0  0  0  0  0  0  0  0  0  0
   -8.5748   15.9892  -37.2406 H   0  0  0  0  0  0  0  0  0  0  0  0
  -13.9149   16.5777  -36.8545 H   0  0  0  0  0  0  0  0  0  0  0  0
  -14.5264   16.7859  -38.4778 H   0  0  0  0  0  0  0  0  0  0  0  0
  -14.1934   14.9542  -40.1312 H   0  0  0  0  0  0  0  0  0  0  0  0
  -13.6467   13.3874  -39.5875 H   0  0  0  0  0  0  0  0  0  0  0  0
   -8.7760   14.1210  -38.5903 H   0  0  0  0  0  0  0  0  0  0  0  0
   -8.4973   13.0266  -37.2382 H   0  0  0  0  0  0  0  0  0  0  0  0
  -10.8251   14.1100  -33.9739 H   0  0  0  0  0  0  0  0  0  0  0  0
   -9.3267   13.3425  -34.5446 H   0  0  0  0  0  0  0  0  0  0  0  0
   -8.6414   17.0546  -34.7421 H   0  0  0  0  0  0  0  0  0  0  0  0
  -10.2979   16.9347  -34.1120 H   0  0  0  0  0  0  0  0  0  0  0  0
  -12.9228   13.0981  -37.3019 H   0  0  0  0  0  0  0  0  0  0  0  0
  -13.1718   14.3360  -36.1022 H   0  0  0  0  0  0  0  0  0  0  0  0
  -10.4320   15.9842  -38.8889 H   0  0  0  0  0  0  0  0  0  0  0  0
   -9.3466   15.3743  -32.6195 H   0  0  0  0  0  0  0  0  0  0  0  0
  -10.7485   13.0095  -38.3389 H   0  0  0  0  0  0  0  0  0  0  0  0
  1  4  1  0  0  0  0
  1 10  1  0  0  0  0
  2  5  1  0  0  0  0
  2 10  1  0  0  0  0
  3  6  1  0  0  0  0
  3 11  1  0  0  0  0
  4 15  1  0  0  0  0
  5 15  1  0  0  0  0
  6 14  1  0  0  0  0
  7 11  1  0  0  0  0
  7 13  1  0  0  0  0
  8 11  1  0  0  0  0
  8 13  1  0  0  0  0
  9 12  1  0  0  0  0
  9 15  1  0  0  0  0
 10 12  1  0  0  0  0
 11 16  1  0  0  0  0
 12 14  1  0  0  0  0
 12 16  1  0  0  0  0
  1 17  1  0  0  0  0
  1 18  1  0  0  0  0
  2 19  1  0  0  0  0
  2 20  1  0  0  0  0
  3 21  1  0  0  0  0
  3 22  1  0  0  0  0
  4 23  1  0  0  0  0
  4 24  1  0  0  0  0
  5 25  1  0  0  0  0
  5 26  1  0  0  0  0
  6 27  1  0  0  0  0
  6 28  1  0  0  0  0
  7 29  1  0  0  0  0
  7 30  1  0  0  0  0
  8 31  1  0  0  0  0
  8 32  1  0  0  0  0
  9 33  1  0  0  0  0
  9 34  1  0  0  0  0
 10 35  1  0  0  0  0
 13 36  1  0  0  0  0
 14 37  1  0  0  0  0
M  END
> <id>
EN300-1279952

> <smiles>
C1NCC12CCNC3(CN4CCC3CC4)O2

> <IUPAC Name>
dispiro[azetidine-3,6'-[1,3]oxazinane-2',2''-[4]azabicyclo[2.2.2]octane]

> <URL>
https://www.enaminestore.com/catalog/EN300-1279952

> <ROCS_ShapeQuery>
x1247relevant_x1083L0AP1_x1305L0BP1_

> <ROCS_TanimotoCombo>
0.806 

> <ROCS_ShapeTanimoto>
0.483 

> <ROCS_ColorTanimoto>
0.322 

> <ROCS_RefTversky>
0.419 

> <ROCS_RefColorTversky>
0.408 

> <ROCS_RefTverskyCombo>
0.828 

> <ROCS_FitTversky>
1.458 

> <ROCS_FitColorTversky>
0.606 

> <ROCS_FitTverskyCombo>
2.063 

> <ROCS_ColorScore>
-8.759

> <ROCS_Overlap>
1236.510

> <ROCS_Rank>
292                 

$$$$
untitled-dbase-15094_0
  -OEChem-06162310163D

 22 24  0     1  0  0  0  0  0999 V2000
  -11.9307   15.0772  -39.5574 C   0  0  0  0  0  0  0  0  0  0  0  0
  -11.3005   15.8304  -37.4037 C   0  0  0  0  0  0  0  0  0  0  0  0
  -12.1433   16.2789  -38.6246 C   0  0  2  0  0  0  0  0  0  0  0  0
  -12.5272   14.0821  -38.5470 C   0  0  2  0  0  0  0  0  0  0  0  0
  -13.6114   16.1838  -38.2218 C   0  0  2  0  0  0  0  0  0  0  0  0
  -13.8784   14.6984  -38.1815 C   0  0  1  0  0  0  0  0  0  0  0  0
  -11.5988   14.3027  -37.3162 C   0  0  1  0  0  0  0  0  0  0  0  0
  -14.6960   15.5900  -39.0533 C   0  0  0  0  0  0  0  0  0  0  0  0
  -10.3718   13.5163  -37.3786 N   0  0  0  0  0  0  0  0  0  0  0  0
  -14.6283   15.5404  -40.4248 F   0  0  0  0  0  0  0  0  0  0  0  0
  -16.0141   15.8342  -38.7312 F   0  0  0  0  0  0  0  0  0  0  0  0
  -12.4860   15.1404  -40.4951 H   0  0  0  0  0  0  0  0  0  0  0  0
  -10.8782   14.8951  -39.7974 H   0  0  0  0  0  0  0  0  0  0  0  0
  -10.2368   16.0290  -37.5821 H   0  0  0  0  0  0  0  0  0  0  0  0
  -11.5921   16.3443  -36.4815 H   0  0  0  0  0  0  0  0  0  0  0  0
  -11.8602   17.2488  -39.0371 H   0  0  0  0  0  0  0  0  0  0  0  0
  -12.6027   13.0494  -38.8946 H   0  0  0  0  0  0  0  0  0  0  0  0
  -13.8825   16.7927  -37.3710 H   0  0  0  0  0  0  0  0  0  0  0  0
  -14.3425   14.2676  -37.3056 H   0  0  0  0  0  0  0  0  0  0  0  0
  -12.1145   14.0700  -36.3777 H   0  0  0  0  0  0  0  0  0  0  0  0
   -9.8049   13.7597  -36.6005 H   0  0  0  0  0  0  0  0  0  0  0  0
  -10.6161   12.5543  -37.3458 H   0  0  0  0  0  0  0  0  0  0  0  0
  1  3  1  0  0  0  0
  1  4  1  0  0  0  0
  2  3  1  0  0  0  0
  2  7  1  0  0  0  0
  3  5  1  0  0  0  0
  4  6  1  0  0  0  0
  4  7  1  0  0  0  0
  5  6  1  0  0  0  0
  5  8  1  0  0  0  0
  6  8  1  0  0  0  0
  7  9  1  0  0  0  0
  8 10  1  0  0  0  0
  8 11  1  0  0  0  0
  1 12  1  0  0  0  0
  1 13  1  0  0  0  0
  2 14  1  0  0  0  0
  2 15  1  0  0  0  0
  3 16  1  0  0  0  0
  4 17  1  0  0  0  0
  5 18  1  0  0  0  0
  6 19  1  0  0  0  0
  7 20  1  0  0  0  0
  9 21  1  0  0  0  0
  9 22  1  0  0  0  0
M  END
> <id>
EN300-840449

> <smiles>
NC1CC2CC1C3C2C3(F)F

> <IUPAC Name>
3,3-difluorotricyclo[3.2.1.0,2,4]octan-6-amine

> <CAS>
2138374-11-3

> <URL>
https://www.enaminestore.com/catalog/EN300-840449

> <ROCS_ShapeQuery>
x1247relevant_x1083L0AP1_x1305L0BP1_

> <ROCS_TanimotoCombo>
0.805 

> <ROCS_ShapeTanimoto>
0.401 

> <ROCS_ColorTanimoto>
0.404 

> <ROCS_RefTversky>
0.348 

> <ROCS_RefColorTversky>
0.542 

> <ROCS_RefTverskyCombo>
0.890 

> <ROCS_FitTversky>
1.625 

> <ROCS_FitColorTversky>
0.613 

> <ROCS_FitTverskyCombo>
2.238 

> <ROCS_ColorScore>
-11.764

> <ROCS_Overlap>
1021.134

> <ROCS_Rank>
293                 

$$$$
untitled-dbase-18417_33
  -OEChem-06162310163D

 54 55  0     0  0  0  0  0  0999 V2000
  -14.8436   15.6626  -39.7795 C   0  0  0  0  0  0  0  0  0  0  0  0
  -11.1644   15.3046  -38.8795 C   0  0  0  0  0  0  0  0  0  0  0  0
  -12.5549   14.8184  -36.8293 C   0  0  0  0  0  0  0  0  0  0  0  0
   -9.0947   13.5118  -37.6280 C   0  0  0  0  0  0  0  0  0  0  0  0
   -8.3412   14.5094  -36.7632 C   0  0  0  0  0  0  0  0  0  0  0  0
  -10.2751   15.8229  -36.5309 C   0  0  0  0  0  0  0  0  0  0  0  0
  -11.1288   14.8677  -37.4016 C   0  0  0  0  0  0  0  0  0  0  0  0
  -12.4030   16.1225  -39.3456 C   0  0  0  0  0  0  0  0  0  0  0  0
  -13.6940   14.4602  -37.8261 C   0  0  0  0  0  0  0  0  0  0  0  0
  -12.4167   17.5391  -38.7460 C   0  0  0  0  0  0  0  0  0  0  0  0
  -12.2023   16.2629  -40.8834 C   0  0  0  0  0  0  0  0  0  0  0  0
  -13.5777   13.0022  -38.3045 C   0  0  0  0  0  0  0  0  0  0  0  0
  -14.9892   14.6021  -36.9764 C   0  0  0  0  0  0  0  0  0  0  0  0
  -14.5590   13.6530  -41.8050 C   0  0  0  0  0  0  0  0  0  0  0  0
  -16.8394   12.8790  -41.0909 C   0  0  0  0  0  0  0  0  0  0  0  0
  -16.5430   15.1827  -42.0464 C   0  0  0  0  0  0  0  0  0  0  0  0
  -15.9005   14.0776  -41.2093 C   0  0  0  0  0  0  0  0  0  0  0  0
  -10.5243   13.5144  -37.3046 N   0  0  0  0  0  0  0  0  0  0  0  0
  -13.6838   15.4033  -39.0088 N   0  0  0  0  0  0  0  0  0  0  0  0
  -15.0939   16.7304  -40.3348 O   0  0  0  0  0  0  0  0  0  0  0  0
   -8.9003   15.8114  -36.9218 O   0  0  0  0  0  0  0  0  0  0  0  0
  -15.6736   14.5804  -39.8871 O   0  0  0  0  0  0  0  0  0  0  0  0
  -10.2619   15.9133  -39.0534 H   0  0  0  0  0  0  0  0  0  0  0  0
  -11.0274   14.4336  -39.5361 H   0  0  0  0  0  0  0  0  0  0  0  0
  -12.5784   14.1268  -35.9768 H   0  0  0  0  0  0  0  0  0  0  0  0
  -12.7653   15.8065  -36.3953 H   0  0  0  0  0  0  0  0  0  0  0  0
   -8.9486   13.7464  -38.6862 H   0  0  0  0  0  0  0  0  0  0  0  0
   -8.6933   12.5081  -37.4608 H   0  0  0  0  0  0  0  0  0  0  0  0
   -8.3623   14.2259  -35.7037 H   0  0  0  0  0  0  0  0  0  0  0  0
   -7.2918   14.5552  -37.0719 H   0  0  0  0  0  0  0  0  0  0  0  0
  -10.6286   16.8578  -36.6246 H   0  0  0  0  0  0  0  0  0  0  0  0
  -10.3422   15.5649  -35.4637 H   0  0  0  0  0  0  0  0  0  0  0  0
  -13.2954   18.0485  -39.1072 H   0  0  0  0  0  0  0  0  0  0  0  0
  -11.5219   18.0482  -39.0660 H   0  0  0  0  0  0  0  0  0  0  0  0
  -12.4417   17.4493  -37.6720 H   0  0  0  0  0  0  0  0  0  0  0  0
  -13.0303   16.8263  -41.2930 H   0  0  0  0  0  0  0  0  0  0  0  0
  -12.1710   15.2745  -41.3225 H   0  0  0  0  0  0  0  0  0  0  0  0
  -11.2711   16.7822  -41.0675 H   0  0  0  0  0  0  0  0  0  0  0  0
  -14.3861   12.7962  -38.9932 H   0  0  0  0  0  0  0  0  0  0  0  0
  -13.6438   12.3478  -37.4456 H   0  0  0  0  0  0  0  0  0  0  0  0
  -12.6243   12.8732  -38.7992 H   0  0  0  0  0  0  0  0  0  0  0  0
  -15.8330   14.3670  -37.6054 H   0  0  0  0  0  0  0  0  0  0  0  0
  -15.0503   15.6187  -36.6216 H   0  0  0  0  0  0  0  0  0  0  0  0
  -14.9272   13.9130  -36.1491 H   0  0  0  0  0  0  0  0  0  0  0  0
  -13.8822   14.5105  -41.8917 H   0  0  0  0  0  0  0  0  0  0  0  0
  -14.0716   12.8856  -41.1949 H   0  0  0  0  0  0  0  0  0  0  0  0
  -14.6890   13.2580  -42.8191 H   0  0  0  0  0  0  0  0  0  0  0  0
  -17.8032   13.1791  -40.6639 H   0  0  0  0  0  0  0  0  0  0  0  0
  -16.4241   12.1232  -40.4144 H   0  0  0  0  0  0  0  0  0  0  0  0
  -17.0218   12.4109  -42.0636 H   0  0  0  0  0  0  0  0  0  0  0  0
  -17.5053   15.4875  -41.6194 H   0  0  0  0  0  0  0  0  0  0  0  0
  -15.8988   16.0655  -42.1116 H   0  0  0  0  0  0  0  0  0  0  0  0
  -16.7536   14.8295  -43.0624 H   0  0  0  0  0  0  0  0  0  0  0  0
  -11.0083   12.8564  -37.8980 H   0  0  0  0  0  0  0  0  0  0  0  0
  1 19  1  0  0  0  0
  1 20  2  0  0  0  0
  1 22  1  0  0  0  0
  2  7  1  0  0  0  0
  2  8  1  0  0  0  0
  3  7  1  0  0  0  0
  3  9  1  0  0  0  0
  4  5  1  0  0  0  0
  4 18  1  0  0  0  0
  5 21  1  0  0  0  0
  6  7  1  0  0  0  0
  6 21  1  0  0  0  0
  7 18  1  0  0  0  0
  8 10  1  0  0  0  0
  8 11  1  0  0  0  0
  8 19  1  0  0  0  0
  9 12  1  0  0  0  0
  9 13  1  0  0  0  0
  9 19  1  0  0  0  0
 14 17  1  0  0  0  0
 15 17  1  0  0  0  0
 16 17  1  0  0  0  0
 17 22  1  0  0  0  0
  2 23  1  0  0  0  0
  2 24  1  0  0  0  0
  3 25  1  0  0  0  0
  3 26  1  0  0  0  0
  4 27  1  0  0  0  0
  4 28  1  0  0  0  0
  5 29  1  0  0  0  0
  5 30  1  0  0  0  0
  6 31  1  0  0  0  0
  6 32  1  0  0  0  0
 10 33  1  0  0  0  0
 10 34  1  0  0  0  0
 10 35  1  0  0  0  0
 11 36  1  0  0  0  0
 11 37  1  0  0  0  0
 11 38  1  0  0  0  0
 12 39  1  0  0  0  0
 12 40  1  0  0  0  0
 12 41  1  0  0  0  0
 13 42  1  0  0  0  0
 13 43  1  0  0  0  0
 13 44  1  0  0  0  0
 14 45  1  0  0  0  0
 14 46  1  0  0  0  0
 14 47  1  0  0  0  0
 15 48  1  0  0  0  0
 15 49  1  0  0  0  0
 15 50  1  0  0  0  0
 16 51  1  0  0  0  0
 16 52  1  0  0  0  0
 16 53  1  0  0  0  0
 18 54  1  0  0  0  0
M  END
> <id>
EN300-1645428

> <smiles>
CC(C)(C)OC(=O)N1C(C)(C)CC2(COCCN2)CC1(C)C

> <IUPAC Name>
tert-butyl 8,8,10,10-tetramethyl-4-oxa-1,9-diazaspiro[5.5]undecane-9-carboxylate

> <CAS>
2172070-83-4

> <URL>
https://www.enaminestore.com/catalog/EN300-1645428

> <ROCS_ShapeQuery>
x1247relevant_x1083L0AP1_x1305L0BP1_

> <ROCS_TanimotoCombo>
0.805 

> <ROCS_ShapeTanimoto>
0.543 

> <ROCS_ColorTanimoto>
0.263 

> <ROCS_RefTversky>
0.478 

> <ROCS_RefColorTversky>
0.303 

> <ROCS_RefTverskyCombo>
0.781 

> <ROCS_FitTversky>
1.330 

> <ROCS_FitColorTversky>
0.666 

> <ROCS_FitTverskyCombo>
1.996 

> <ROCS_ColorScore>
-6.419

> <ROCS_Overlap>
1415.140

> <ROCS_Rank>
294                 

$$$$
untitled-dbase-24068_0
  -OEChem-06162310163D

 27 29  0     1  0  0  0  0  0999 V2000
  -12.6056   16.0590  -39.5398 C   0  0  0  0  0  0  0  0  0  0  0  0
  -13.7026   16.4128  -38.5645 C   0  0  0  0  0  0  0  0  0  0  0  0
   -9.2832   15.6748  -36.6772 C   0  0  0  0  0  0  0  0  0  0  0  0
   -9.4940   14.1951  -36.3603 C   0  0  0  0  0  0  0  0  0  0  0  0
  -10.1609   15.9778  -37.8884 C   0  0  0  0  0  0  0  0  0  0  0  0
  -10.4849   13.6785  -37.3996 C   0  0  0  0  0  0  0  0  0  0  0  0
  -13.3492   14.1137  -38.6289 C   0  0  0  0  0  0  0  0  0  0  0  0
  -12.4154   15.2764  -36.8458 C   0  0  0  0  0  0  0  0  0  0  0  0
  -12.0466   14.7183  -39.1369 C   0  0  2  0  0  0  0  0  0  0  0  0
  -11.2697   14.9239  -37.8339 C   0  0  0  0  0  0  0  0  0  0  0  0
  -13.6650   15.2162  -37.6733 N   0  0  1  0  0  0  0  0  0  0  0  0
  -12.2179   16.7527  -40.4646 O   0  0  0  0  0  0  0  0  0  0  0  0
  -13.4940   17.3435  -38.0312 H   0  0  0  0  0  0  0  0  0  0  0  0
  -14.6615   16.4709  -39.0871 H   0  0  0  0  0  0  0  0  0  0  0  0
   -9.5886   16.2853  -35.8196 H   0  0  0  0  0  0  0  0  0  0  0  0
   -8.2320   15.9016  -36.8816 H   0  0  0  0  0  0  0  0  0  0  0  0
   -8.5545   13.6341  -36.3932 H   0  0  0  0  0  0  0  0  0  0  0  0
   -9.9054   14.0865  -35.3502 H   0  0  0  0  0  0  0  0  0  0  0  0
  -10.5322   17.0075  -37.8625 H   0  0  0  0  0  0  0  0  0  0  0  0
   -9.5699   15.8602  -38.8058 H   0  0  0  0  0  0  0  0  0  0  0  0
   -9.9320   13.2626  -38.2516 H   0  0  0  0  0  0  0  0  0  0  0  0
  -11.1122   12.8786  -36.9937 H   0  0  0  0  0  0  0  0  0  0  0  0
  -14.1249   14.0098  -39.3980 H   0  0  0  0  0  0  0  0  0  0  0  0
  -13.2313   13.1499  -38.1214 H   0  0  0  0  0  0  0  0  0  0  0  0
  -12.4999   14.5370  -36.0407 H   0  0  0  0  0  0  0  0  0  0  0  0
  -12.3011   16.2579  -36.3719 H   0  0  0  0  0  0  0  0  0  0  0  0
  -11.5553   14.1787  -39.9463 H   0  0  0  0  0  0  0  0  0  0  0  0
  1  2  1  0  0  0  0
  1  9  1  0  0  0  0
  1 12  2  0  0  0  0
  2 11  1  0  0  0  0
  3  4  1  0  0  0  0
  3  5  1  0  0  0  0
  4  6  1  0  0  0  0
  5 10  1  0  0  0  0
  6 10  1  0  0  0  0
  7  9  1  0  0  0  0
  7 11  1  0  0  0  0
  8 10  1  0  0  0  0
  8 11  1  0  0  0  0
  9 10  1  0  0  0  0
  2 13  1  0  0  0  0
  2 14  1  0  0  0  0
  3 15  1  0  0  0  0
  3 16  1  0  0  0  0
  4 17  1  0  0  0  0
  4 18  1  0  0  0  0
  5 19  1  0  0  0  0
  5 20  1  0  0  0  0
  6 21  1  0  0  0  0
  6 22  1  0  0  0  0
  7 23  1  0  0  0  0
  7 24  1  0  0  0  0
  8 25  1  0  0  0  0
  8 26  1  0  0  0  0
  9 27  1  0  0  0  0
M  END
> <id>
EN300-37267660

> <smiles>
O=C1CN2CC1C3(CCCC3)C2

> <IUPAC Name>
4-azaspiro[bicyclo[2.2.1]heptane-2,1'-cyclopentan]-6-one

> <CAS>
2743442-55-7

> <URL>
https://www.enaminestore.com/catalog/EN300-37267660

> <ROCS_ShapeQuery>
x1247relevant_x1083L0AP1_x1305L0BP1_

> <ROCS_TanimotoCombo>
0.805 

> <ROCS_ShapeTanimoto>
0.485 

> <ROCS_ColorTanimoto>
0.320 

> <ROCS_RefTversky>
0.401 

> <ROCS_RefColorTversky>
0.357 

> <ROCS_RefTverskyCombo>
0.759 

> <ROCS_FitTversky>
1.752 

> <ROCS_FitColorTversky>
0.755 

> <ROCS_FitTverskyCombo>
2.506 

> <ROCS_ColorScore>
-7.580

> <ROCS_Overlap>
1179.804

> <ROCS_Rank>
295                 

$$$$
untitled-dbase-22340_27
  -OEChem-06162310163D

 37 39  0     1  0  0  0  0  0999 V2000
  -10.6546   15.4967  -36.0572 C   0  0  0  0  0  0  0  0  0  0  0  0
  -11.5309   15.4504  -37.1508 C   0  0  0  0  0  0  0  0  0  0  0  0
  -11.2087   14.2755  -37.8004 C   0  0  0  0  0  0  0  0  0  0  0  0
  -12.0379   17.0540  -40.0074 C   0  0  0  0  0  0  0  0  0  0  0  0
  -11.8607   13.7919  -39.0566 C   0  0  0  0  0  0  0  0  0  0  0  0
  -13.9971   15.7100  -37.3439 C   0  0  0  0  0  0  0  0  0  0  0  0
  -14.2130   14.6243  -38.4306 C   0  0  0  0  0  0  0  0  0  0  0  0
  -12.6311   16.3265  -37.6657 C   0  0  2  0  0  0  0  0  0  0  0  0
  -13.0304   14.7730  -39.4117 C   0  0  1  0  0  0  0  0  0  0  0  0
   -9.8688   18.1325  -41.5235 C   0  0  0  0  0  0  0  0  0  0  0  0
   -8.7552   18.5221  -39.3060 C   0  0  0  0  0  0  0  0  0  0  0  0
   -9.3098   16.1829  -40.0331 C   0  0  0  0  0  0  0  0  0  0  0  0
   -9.7400   17.6484  -40.0799 C   0  0  0  0  0  0  0  0  0  0  0  0
   -9.8362   14.4361  -36.0153 N   0  0  0  0  0  0  0  0  0  0  0  0
  -10.1980   13.7084  -37.0934 N   0  0  0  0  0  0  0  0  0  0  0  0
  -12.5839   16.1459  -39.1212 N   0  0  0  0  0  0  0  0  0  0  0  0
  -12.4220   17.2064  -41.1645 O   0  0  0  0  0  0  0  0  0  0  0  0
  -11.0167   17.7693  -39.4432 O   0  0  0  0  0  0  0  0  0  0  0  0
  -10.5723   16.2488  -35.2859 H   0  0  0  0  0  0  0  0  0  0  0  0
  -11.1233   13.7976  -39.8680 H   0  0  0  0  0  0  0  0  0  0  0  0
  -12.2338   12.7695  -38.9361 H   0  0  0  0  0  0  0  0  0  0  0  0
  -14.7838   16.4683  -37.4352 H   0  0  0  0  0  0  0  0  0  0  0  0
  -14.0538   15.2823  -36.3373 H   0  0  0  0  0  0  0  0  0  0  0  0
  -14.2706   13.6240  -37.9888 H   0  0  0  0  0  0  0  0  0  0  0  0
  -15.1613   14.8172  -38.9452 H   0  0  0  0  0  0  0  0  0  0  0  0
  -12.5191   17.3711  -37.3646 H   0  0  0  0  0  0  0  0  0  0  0  0
  -13.3403   14.6416  -40.4526 H   0  0  0  0  0  0  0  0  0  0  0  0
  -10.5748   17.5079  -42.0824 H   0  0  0  0  0  0  0  0  0  0  0  0
  -10.2104   19.1717  -41.5715 H   0  0  0  0  0  0  0  0  0  0  0  0
   -8.9091   18.0592  -42.0477 H   0  0  0  0  0  0  0  0  0  0  0  0
   -8.6597   18.1784  -38.2697 H   0  0  0  0  0  0  0  0  0  0  0  0
   -9.1087   19.5584  -39.2560 H   0  0  0  0  0  0  0  0  0  0  0  0
   -7.7619   18.5164  -39.7661 H   0  0  0  0  0  0  0  0  0  0  0  0
   -9.2173   15.8354  -38.9978 H   0  0  0  0  0  0  0  0  0  0  0  0
  -10.0244   15.5361  -40.5522 H   0  0  0  0  0  0  0  0  0  0  0  0
   -8.3235   16.0515  -40.4927 H   0  0  0  0  0  0  0  0  0  0  0  0
   -9.7057   12.8431  -37.2787 H   0  0  0  0  0  0  0  0  0  0  0  0
  1  2  1  0  0  0  0
  1 14  2  0  0  0  0
  2  3  2  0  0  0  0
  2  8  1  0  0  0  0
  3  5  1  0  0  0  0
  3 15  1  0  0  0  0
  4 16  1  0  0  0  0
  4 17  2  0  0  0  0
  4 18  1  0  0  0  0
  5  9  1  0  0  0  0
  6  7  1  0  0  0  0
  6  8  1  0  0  0  0
  7  9  1  0  0  0  0
  8 16  1  0  0  0  0
  9 16  1  0  0  0  0
 10 13  1  0  0  0  0
 11 13  1  0  0  0  0
 12 13  1  0  0  0  0
 13 18  1  0  0  0  0
 14 15  1  0  0  0  0
  1 19  1  0  0  0  0
  5 20  1  0  0  0  0
  5 21  1  0  0  0  0
  6 22  1  0  0  0  0
  6 23  1  0  0  0  0
  7 24  1  0  0  0  0
  7 25  1  0  0  0  0
  8 26  1  0  0  0  0
  9 27  1  0  0  0  0
 10 28  1  0  0  0  0
 10 29  1  0  0  0  0
 10 30  1  0  0  0  0
 11 31  1  0  0  0  0
 11 32  1  0  0  0  0
 11 33  1  0  0  0  0
 12 34  1  0  0  0  0
 12 35  1  0  0  0  0
 12 36  1  0  0  0  0
 15 37  1  0  0  0  0
M  END
> <id>
EN300-22038792

> <smiles>
CC(C)(C)OC(=O)N1C2CCC1C=3C=NNC3C2

> <MDLNUMBER>
MFCD30179812

> <IUPAC Name>
tert-butyl 4,5,11-triazatricyclo[6.2.1.0,2,6]undeca-2(6),3-diene-11-carboxylate

> <CAS>
2034154-31-7

> <Purity>
95

> <URL>
https://www.enaminestore.com/catalog/EN300-22038792

> <ROCS_ShapeQuery>
x1247relevant_x1083L0AP1_x1305L0BP1_

> <ROCS_TanimotoCombo>
0.805 

> <ROCS_ShapeTanimoto>
0.458 

> <ROCS_ColorTanimoto>
0.346 

> <ROCS_RefTversky>
0.415 

> <ROCS_RefColorTversky>
0.395 

> <ROCS_RefTverskyCombo>
0.810 

> <ROCS_FitTversky>
1.298 

> <ROCS_FitColorTversky>
0.738 

> <ROCS_FitTverskyCombo>
2.036 

> <ROCS_ColorScore>
-8.413

> <ROCS_Overlap>
1224.409

> <ROCS_Rank>
296                 

$$$$
untitled-dbase-12481_0
  -OEChem-06162310163D

 29 31  0     1  0  0  0  0  0999 V2000
  -13.1296   15.2659  -39.8564 C   0  0  0  0  0  0  0  0  0  0  0  0
  -12.9330   13.9402  -39.1070 C   0  0  0  0  0  0  0  0  0  0  0  0
   -9.0786   15.1457  -37.0494 C   0  0  0  0  0  0  0  0  0  0  0  0
  -13.7389   15.5643  -37.5769 C   0  0  0  0  0  0  0  0  0  0  0  0
  -11.6168   16.4374  -38.2400 C   0  0  0  0  0  0  0  0  0  0  0  0
   -9.8141   15.4765  -35.7649 C   0  0  0  0  0  0  0  0  0  0  0  0
  -13.0738   16.3115  -38.7295 C   0  0  1  0  0  0  0  0  0  0  0  0
  -12.7521   14.3918  -37.6477 C   0  0  2  0  0  0  0  0  0  0  0  0
  -10.1132   14.3750  -37.8506 C   0  0  2  0  0  0  0  0  0  0  0  0
  -11.3965   15.1125  -37.4569 C   0  0  1  0  0  0  0  0  0  0  0  0
  -10.1389   12.9719  -37.4299 N   0  0  0  0  0  0  0  0  0  0  0  0
  -11.2189   15.4546  -36.0631 O   0  0  0  0  0  0  0  0  0  0  0  0
  -12.3597   15.4268  -40.6176 H   0  0  0  0  0  0  0  0  0  0  0  0
  -14.1070   15.2764  -40.3520 H   0  0  0  0  0  0  0  0  0  0  0  0
  -13.8311   13.3197  -39.2075 H   0  0  0  0  0  0  0  0  0  0  0  0
  -12.0904   13.3696  -39.5047 H   0  0  0  0  0  0  0  0  0  0  0  0
   -8.8233   16.0743  -37.5749 H   0  0  0  0  0  0  0  0  0  0  0  0
   -8.1400   14.6108  -36.8726 H   0  0  0  0  0  0  0  0  0  0  0  0
  -13.7053   16.1121  -36.6297 H   0  0  0  0  0  0  0  0  0  0  0  0
  -14.7722   15.2712  -37.7910 H   0  0  0  0  0  0  0  0  0  0  0  0
  -10.9317   16.5556  -39.0860 H   0  0  0  0  0  0  0  0  0  0  0  0
  -11.5128   17.3112  -37.5863 H   0  0  0  0  0  0  0  0  0  0  0  0
   -9.6256   14.7268  -34.9896 H   0  0  0  0  0  0  0  0  0  0  0  0
   -9.5394   16.4593  -35.3713 H   0  0  0  0  0  0  0  0  0  0  0  0
  -13.5275   17.2673  -38.9986 H   0  0  0  0  0  0  0  0  0  0  0  0
  -12.9512   13.6130  -36.9073 H   0  0  0  0  0  0  0  0  0  0  0  0
   -9.9136   14.4209  -38.9346 H   0  0  0  0  0  0  0  0  0  0  0  0
  -10.8586   12.5146  -37.9347 H   0  0  0  0  0  0  0  0  0  0  0  0
   -9.2544   12.5754  -37.6360 H   0  0  0  0  0  0  0  0  0  0  0  0
  1  2  1  0  0  0  0
  1  7  1  0  0  0  0
  2  8  1  0  0  0  0
  3  6  1  0  0  0  0
  3  9  1  0  0  0  0
  4  7  1  0  0  0  0
  4  8  1  0  0  0  0
  5  7  1  0  0  0  0
  5 10  1  0  0  0  0
  6 12  1  0  0  0  0
  8 10  1  0  0  0  0
  9 10  1  0  0  0  0
  9 11  1  0  0  0  0
 10 12  1  0  0  0  0
  1 13  1  0  0  0  0
  1 14  1  0  0  0  0
  2 15  1  0  0  0  0
  2 16  1  0  0  0  0
  3 17  1  0  0  0  0
  3 18  1  0  0  0  0
  4 19  1  0  0  0  0
  4 20  1  0  0  0  0
  5 21  1  0  0  0  0
  5 22  1  0  0  0  0
  6 23  1  0  0  0  0
  6 24  1  0  0  0  0
  7 25  1  0  0  0  0
  8 26  1  0  0  0  0
  9 27  1  0  0  0  0
 11 28  1  0  0  0  0
 11 29  1  0  0  0  0
M  END
> <id>
EN300-744223

> <smiles>
NC1CCOC21CC3CCC2C3

> <IUPAC Name>
spiro[bicyclo[2.2.1]heptane-2,2'-oxolane]-3'-amine

> <CAS>
2137630-59-0

> <URL>
https://www.enaminestore.com/catalog/EN300-744223

> <ROCS_ShapeQuery>
x1247relevant_x1083L0AP1_x1305L0BP1_

> <ROCS_TanimotoCombo>
0.804 

> <ROCS_ShapeTanimoto>
0.469 

> <ROCS_ColorTanimoto>
0.335 

> <ROCS_RefTversky>
0.392 

> <ROCS_RefColorTversky>
0.379 

> <ROCS_RefTverskyCombo>
0.771 

> <ROCS_FitTversky>
1.721 

> <ROCS_FitColorTversky>
0.741 

> <ROCS_FitTverskyCombo>
2.462 

> <ROCS_ColorScore>
-8.065

> <ROCS_Overlap>
1152.253

> <ROCS_Rank>
297                 

$$$$
untitled-dbase-30399_58
  -OEChem-06162310163D

 34 35  0     1  0  0  0  0  0999 V2000
   -9.8714   14.8267  -37.1254 C   0  0  0  0  0  0  0  0  0  0  0  0
  -13.9708   16.1737  -38.1332 C   0  0  0  0  0  0  0  0  0  0  0  0
  -13.2244   15.7454  -36.8766 C   0  0  0  0  0  0  0  0  0  0  0  0
  -12.2420   15.7043  -39.9530 C   0  0  0  0  0  0  0  0  0  0  0  0
  -11.0728   15.9954  -39.0053 C   0  0  0  0  0  0  0  0  0  0  0  0
  -13.4823   15.2043  -39.2051 C   0  0  1  0  0  0  0  0  0  0  0  0
  -12.3354   14.6026  -37.3526 C   0  0  2  0  0  0  0  0  0  0  0  0
  -10.4050   14.7412  -34.5585 C   0  0  0  0  0  0  0  0  0  0  0  0
  -10.4868   12.2350  -34.7051 C   0  0  0  0  0  0  0  0  0  0  0  0
   -8.2742   13.4209  -34.7842 C   0  0  0  0  0  0  0  0  0  0  0  0
   -9.7538   13.4958  -35.1583 C   0  0  0  0  0  0  0  0  0  0  0  0
  -11.0395   15.0874  -37.8488 N   0  0  0  0  0  0  0  0  0  0  0  0
   -8.9478   15.6264  -36.9873 O   0  0  0  0  0  0  0  0  0  0  0  0
  -13.0621   14.0481  -38.4595 O   0  0  0  0  0  0  0  0  0  0  0  0
   -9.8605   13.5678  -36.5847 O   0  0  0  0  0  0  0  0  0  0  0  0
  -15.0478   16.0460  -37.9727 H   0  0  0  0  0  0  0  0  0  0  0  0
  -13.8017   17.2224  -38.3967 H   0  0  0  0  0  0  0  0  0  0  0  0
  -12.6681   16.5593  -36.4010 H   0  0  0  0  0  0  0  0  0  0  0  0
  -13.9455   15.3731  -36.1392 H   0  0  0  0  0  0  0  0  0  0  0  0
  -12.4776   16.5962  -40.5435 H   0  0  0  0  0  0  0  0  0  0  0  0
  -11.9213   14.9208  -40.6513 H   0  0  0  0  0  0  0  0  0  0  0  0
  -10.1257   15.9553  -39.5533 H   0  0  0  0  0  0  0  0  0  0  0  0
  -11.1638   17.0105  -38.6001 H   0  0  0  0  0  0  0  0  0  0  0  0
  -14.2739   14.9265  -39.9073 H   0  0  0  0  0  0  0  0  0  0  0  0
  -12.1973   13.8401  -36.5810 H   0  0  0  0  0  0  0  0  0  0  0  0
   -9.8818   15.6484  -34.8814 H   0  0  0  0  0  0  0  0  0  0  0  0
  -11.4576   14.8252  -34.8481 H   0  0  0  0  0  0  0  0  0  0  0  0
  -10.3474   14.7241  -33.4642 H   0  0  0  0  0  0  0  0  0  0  0  0
  -10.0229   11.3389  -35.1331 H   0  0  0  0  0  0  0  0  0  0  0  0
  -11.5259   12.2411  -35.0537 H   0  0  0  0  0  0  0  0  0  0  0  0
  -10.4874   12.1379  -33.6147 H   0  0  0  0  0  0  0  0  0  0  0  0
   -7.8068   12.5276  -35.2143 H   0  0  0  0  0  0  0  0  0  0  0  0
   -7.7247   14.3008  -35.1341 H   0  0  0  0  0  0  0  0  0  0  0  0
   -8.1504   13.3421  -33.6981 H   0  0  0  0  0  0  0  0  0  0  0  0
  1 12  1  0  0  0  0
  1 13  2  0  0  0  0
  1 15  1  0  0  0  0
  2  3  1  0  0  0  0
  2  6  1  0  0  0  0
  3  7  1  1  0  0  0
  4  5  1  0  0  0  0
  4  6  1  1  0  0  0
  5 12  1  0  0  0  0
  6 14  1  0  0  0  0
  7 12  1  0  0  0  0
  7 14  1  0  0  0  0
  8 11  1  0  0  0  0
  9 11  1  0  0  0  0
 10 11  1  0  0  0  0
 11 15  1  0  0  0  0
  2 16  1  0  0  0  0
  2 17  1  0  0  0  0
  3 18  1  0  0  0  0
  3 19  1  0  0  0  0
  4 20  1  0  0  0  0
  4 21  1  0  0  0  0
  5 22  1  0  0  0  0
  5 23  1  0  0  0  0
  6 24  1  0  0  0  0
  7 25  1  0  0  0  0
  8 26  1  0  0  0  0
  8 27  1  0  0  0  0
  8 28  1  0  0  0  0
  9 29  1  0  0  0  0
  9 30  1  0  0  0  0
  9 31  1  0  0  0  0
 10 32  1  0  0  0  0
 10 33  1  0  0  0  0
 10 34  1  0  0  0  0
M  END
> <id>
EN300-27113586

> <smiles>
CC(C)(C)OC(=O)N1CC[C@@H]2CC[C@H]1O2 |&1:10,13,r|

> <MDLNUMBER>
MFCD32853327

> <IUPAC Name>
rac-tert-butyl (1R,5S)-8-oxa-2-azabicyclo[3.2.1]octane-2-carboxylate

> <CAS>
2490344-59-5

> <Purity>
95

> <URL>
https://www.enaminestore.com/catalog/EN300-27113586

> <ROCS_ShapeQuery>
x1247relevant_x1083L0AP1_x1305L0BP1_

> <ROCS_TanimotoCombo>
0.804 

> <ROCS_ShapeTanimoto>
0.483 

> <ROCS_ColorTanimoto>
0.320 

> <ROCS_RefTversky>
0.413 

> <ROCS_RefColorTversky>
0.352 

> <ROCS_RefTverskyCombo>
0.765 

> <ROCS_FitTversky>
1.544 

> <ROCS_FitColorTversky>
0.784 

> <ROCS_FitTverskyCombo>
2.327 

> <ROCS_ColorScore>
-7.453

> <ROCS_Overlap>
1216.340

> <ROCS_Rank>
298                 

$$$$
untitled-dbase-15071_58
  -OEChem-06162310163D

 34 35  0     1  0  0  0  0  0999 V2000
   -9.8716   14.8269  -37.1252 C   0  0  0  0  0  0  0  0  0  0  0  0
  -13.9720   16.1727  -38.1344 C   0  0  0  0  0  0  0  0  0  0  0  0
  -13.2252   15.7461  -36.8774 C   0  0  0  0  0  0  0  0  0  0  0  0
  -12.2416   15.7044  -39.9529 C   0  0  0  0  0  0  0  0  0  0  0  0
  -11.0731   15.9962  -39.0046 C   0  0  0  0  0  0  0  0  0  0  0  0
  -13.4819   15.2035  -39.2057 C   0  0  1  0  0  0  0  0  0  0  0  0
  -12.3356   14.6032  -37.3523 C   0  0  2  0  0  0  0  0  0  0  0  0
  -10.4050   14.7413  -34.5581 C   0  0  0  0  0  0  0  0  0  0  0  0
  -10.4877   12.2351  -34.7052 C   0  0  0  0  0  0  0  0  0  0  0  0
   -8.2746   13.4202  -34.7843 C   0  0  0  0  0  0  0  0  0  0  0  0
   -9.7543   13.4957  -35.1582 C   0  0  0  0  0  0  0  0  0  0  0  0
  -11.0397   15.0880  -37.8483 N   0  0  0  0  0  0  0  0  0  0  0  0
   -8.9477   15.6263  -36.9872 O   0  0  0  0  0  0  0  0  0  0  0  0
  -13.0615   14.0478  -38.4594 O   0  0  0  0  0  0  0  0  0  0  0  0
   -9.8611   13.5680  -36.5845 O   0  0  0  0  0  0  0  0  0  0  0  0
  -15.0488   16.0436  -37.9740 H   0  0  0  0  0  0  0  0  0  0  0  0
  -13.8042   17.2216  -38.3982 H   0  0  0  0  0  0  0  0  0  0  0  0
  -12.6693   16.5606  -36.4026 H   0  0  0  0  0  0  0  0  0  0  0  0
  -13.9461   15.3742  -36.1395 H   0  0  0  0  0  0  0  0  0  0  0  0
  -12.4775   16.5961  -40.5435 H   0  0  0  0  0  0  0  0  0  0  0  0
  -11.9200   14.9210  -40.6510 H   0  0  0  0  0  0  0  0  0  0  0  0
  -10.1258   15.9569  -39.5522 H   0  0  0  0  0  0  0  0  0  0  0  0
  -11.1650   17.0111  -38.5994 H   0  0  0  0  0  0  0  0  0  0  0  0
  -14.2729   14.9249  -39.9083 H   0  0  0  0  0  0  0  0  0  0  0  0
  -12.1976   13.8411  -36.5802 H   0  0  0  0  0  0  0  0  0  0  0  0
   -9.8814   15.6483  -34.8809 H   0  0  0  0  0  0  0  0  0  0  0  0
  -11.4575   14.8257  -34.8476 H   0  0  0  0  0  0  0  0  0  0  0  0
  -10.3473   14.7239  -33.4638 H   0  0  0  0  0  0  0  0  0  0  0  0
  -10.0242   11.3390  -35.1334 H   0  0  0  0  0  0  0  0  0  0  0  0
  -11.5268   12.2416  -35.0536 H   0  0  0  0  0  0  0  0  0  0  0  0
  -10.4882   12.1378  -33.6147 H   0  0  0  0  0  0  0  0  0  0  0  0
   -7.8077   12.5269  -35.2146 H   0  0  0  0  0  0  0  0  0  0  0  0
   -7.7249   14.3000  -35.1340 H   0  0  0  0  0  0  0  0  0  0  0  0
   -8.1507   13.3412  -33.6982 H   0  0  0  0  0  0  0  0  0  0  0  0
  1 12  1  0  0  0  0
  1 13  2  0  0  0  0
  1 15  1  0  0  0  0
  2  3  1  0  0  0  0
  2  6  1  0  0  0  0
  3  7  1  0  0  0  0
  4  5  1  0  0  0  0
  4  6  1  0  0  0  0
  5 12  1  0  0  0  0
  6 14  1  0  0  0  0
  7 12  1  0  0  0  0
  7 14  1  0  0  0  0
  8 11  1  0  0  0  0
  9 11  1  0  0  0  0
 10 11  1  0  0  0  0
 11 15  1  0  0  0  0
  2 16  1  0  0  0  0
  2 17  1  0  0  0  0
  3 18  1  0  0  0  0
  3 19  1  0  0  0  0
  4 20  1  0  0  0  0
  4 21  1  0  0  0  0
  5 22  1  0  0  0  0
  5 23  1  0  0  0  0
  6 24  1  0  0  0  0
  7 25  1  0  0  0  0
  8 26  1  0  0  0  0
  8 27  1  0  0  0  0
  8 28  1  0  0  0  0
  9 29  1  0  0  0  0
  9 30  1  0  0  0  0
  9 31  1  0  0  0  0
 10 32  1  0  0  0  0
 10 33  1  0  0  0  0
 10 34  1  0  0  0  0
M  END
> <id>
EN300-37408266

> <smiles>
CC(C)(C)OC(=O)N1CCC2CCC1O2

> <IUPAC Name>
tert-butyl 8-oxa-2-azabicyclo[3.2.1]octane-2-carboxylate

> <CAS>
2770557-54-3

> <URL>
https://www.enaminestore.com/catalog/EN300-37408266

> <ROCS_ShapeQuery>
x1247relevant_x1083L0AP1_x1305L0BP1_

> <ROCS_TanimotoCombo>
0.804 

> <ROCS_ShapeTanimoto>
0.483 

> <ROCS_ColorTanimoto>
0.320 

> <ROCS_RefTversky>
0.413 

> <ROCS_RefColorTversky>
0.352 

> <ROCS_RefTverskyCombo>
0.765 

> <ROCS_FitTversky>
1.544 

> <ROCS_FitColorTversky>
0.784 

> <ROCS_FitTverskyCombo>
2.327 

> <ROCS_ColorScore>
-7.453

> <ROCS_Overlap>
1216.341

> <ROCS_Rank>
299                 

$$$$
untitled-dbase-35591_1
  -OEChem-06162310163D

 27 29  0     1  0  0  0  0  0999 V2000
   -9.2675   15.4398  -36.4651 C   0  0  0  0  0  0  0  0  0  0  0  0
  -10.1713   16.2731  -37.3729 C   0  0  0  0  0  0  0  0  0  0  0  0
  -12.3042   15.9784  -39.6424 C   0  0  0  0  0  0  0  0  0  0  0  0
  -12.4688   14.4562  -39.6653 C   0  0  0  0  0  0  0  0  0  0  0  0
   -9.4891   13.9277  -36.6252 C   0  0  0  0  0  0  0  0  0  0  0  0
  -11.6210   15.8424  -37.1677 C   0  0  1  0  0  0  0  0  0  0  0  0
  -12.6537   16.3338  -38.1971 C   0  0  2  0  0  0  0  0  0  0  0  0
  -12.9320   14.1434  -38.2377 C   0  0  1  0  0  0  0  0  0  0  0  0
  -11.8096   14.3099  -37.1937 C   0  0  1  0  0  0  0  0  0  0  0  0
  -10.5954   13.5720  -37.5112 N   0  0  0  0  0  0  0  0  0  0  0  0
  -13.7427   15.3537  -37.9751 N   0  0  0  0  0  0  0  0  0  0  0  0
   -8.2106   15.6813  -36.6628 H   0  0  0  0  0  0  0  0  0  0  0  0
   -9.4465   15.7239  -35.4160 H   0  0  0  0  0  0  0  0  0  0  0  0
  -10.0801   17.3002  -37.0609 H   0  0  0  0  0  0  0  0  0  0  0  0
   -9.8660   16.1951  -38.3957 H   0  0  0  0  0  0  0  0  0  0  0  0
  -11.2955   16.2877  -39.9279 H   0  0  0  0  0  0  0  0  0  0  0  0
  -13.0092   16.4391  -40.3449 H   0  0  0  0  0  0  0  0  0  0  0  0
  -13.2635   14.1947  -40.3784 H   0  0  0  0  0  0  0  0  0  0  0  0
  -11.5710   13.9452  -40.0177 H   0  0  0  0  0  0  0  0  0  0  0  0
   -8.5573   13.4656  -37.0230 H   0  0  0  0  0  0  0  0  0  0  0  0
   -9.6302   13.4484  -35.6275 H   0  0  0  0  0  0  0  0  0  0  0  0
  -11.9135   16.1930  -36.1897 H   0  0  0  0  0  0  0  0  0  0  0  0
  -12.9593   17.3733  -38.0608 H   0  0  0  0  0  0  0  0  0  0  0  0
  -13.4859   13.2037  -38.1510 H   0  0  0  0  0  0  0  0  0  0  0  0
  -12.1505   14.0025  -36.2030 H   0  0  0  0  0  0  0  0  0  0  0  0
  -10.2943   13.6872  -38.4644 H   0  0  0  0  0  0  0  0  0  0  0  0
  -14.0439   15.3713  -37.0011 H   0  0  0  0  0  0  0  0  0  0  0  0
  1  2  1  0  0  0  0
  1  5  1  0  0  0  0
  2  6  1  0  0  0  0
  3  4  1  0  0  0  0
  3  7  1  0  0  0  0
  4  8  1  0  0  0  0
  5 10  1  0  0  0  0
  6  7  1  0  0  0  0
  6  9  1  0  0  0  0
  7 11  1  0  0  0  0
  8  9  1  0  0  0  0
  8 11  1  0  0  0  0
  9 10  1  0  0  0  0
  1 12  1  0  0  0  0
  1 13  1  0  0  0  0
  2 14  1  0  0  0  0
  2 15  1  0  0  0  0
  3 16  1  0  0  0  0
  3 17  1  0  0  0  0
  4 18  1  0  0  0  0
  4 19  1  0  0  0  0
  5 20  1  0  0  0  0
  5 21  1  0  0  0  0
  6 22  1  0  0  0  0
  7 23  1  0  0  0  0
  8 24  1  0  0  0  0
  9 25  1  0  0  0  0
 10 26  1  0  0  0  0
 11 27  1  0  0  0  0
M  END
> <id>
EN300-26623904

> <smiles>
Cl.Cl.C1CC2NC1C3CCCNC23

> <MDLNUMBER>
MFCD32667948

> <IUPAC Name>
3,11-diazatricyclo[6.2.1.0,2,7]undecane dihydrochloride

> <CAS>
2416235-05-5

> <Purity>
95

> <URL>
https://www.enaminestore.com/catalog/EN300-26623904

> <Saltdate>
Cl

> <ROCS_ShapeQuery>
x1247relevant_x1083L0AP1_x1305L0BP1_

> <ROCS_TanimotoCombo>
0.804 

> <ROCS_ShapeTanimoto>
0.444 

> <ROCS_ColorTanimoto>
0.359 

> <ROCS_RefTversky>
0.373 

> <ROCS_RefColorTversky>
0.412 

> <ROCS_RefTverskyCombo>
0.785 

> <ROCS_FitTversky>
1.756 

> <ROCS_FitColorTversky>
0.739 

> <ROCS_FitTverskyCombo>
2.494 

> <ROCS_ColorScore>
-8.778

> <ROCS_Overlap>
1095.418

> <ROCS_Rank>
300                 

$$$$
untitled-dbase-35593_1
  -OEChem-06162310163D

 27 29  0     1  0  0  0  0  0999 V2000
   -9.2675   15.4398  -36.4651 C   0  0  0  0  0  0  0  0  0  0  0  0
  -10.1713   16.2731  -37.3729 C   0  0  0  0  0  0  0  0  0  0  0  0
  -12.3042   15.9784  -39.6424 C   0  0  0  0  0  0  0  0  0  0  0  0
  -12.4688   14.4562  -39.6653 C   0  0  0  0  0  0  0  0  0  0  0  0
   -9.4891   13.9277  -36.6252 C   0  0  0  0  0  0  0  0  0  0  0  0
  -11.6210   15.8424  -37.1677 C   0  0  1  0  0  0  0  0  0  0  0  0
  -12.6537   16.3338  -38.1971 C   0  0  2  0  0  0  0  0  0  0  0  0
  -12.9320   14.1434  -38.2377 C   0  0  1  0  0  0  0  0  0  0  0  0
  -11.8096   14.3099  -37.1937 C   0  0  1  0  0  0  0  0  0  0  0  0
  -10.5954   13.5720  -37.5112 N   0  0  0  0  0  0  0  0  0  0  0  0
  -13.7427   15.3537  -37.9751 N   0  0  0  0  0  0  0  0  0  0  0  0
   -8.2106   15.6813  -36.6628 H   0  0  0  0  0  0  0  0  0  0  0  0
   -9.4465   15.7239  -35.4160 H   0  0  0  0  0  0  0  0  0  0  0  0
  -10.0801   17.3002  -37.0609 H   0  0  0  0  0  0  0  0  0  0  0  0
   -9.8660   16.1951  -38.3957 H   0  0  0  0  0  0  0  0  0  0  0  0
  -11.2955   16.2877  -39.9279 H   0  0  0  0  0  0  0  0  0  0  0  0
  -13.0092   16.4391  -40.3449 H   0  0  0  0  0  0  0  0  0  0  0  0
  -13.2635   14.1947  -40.3784 H   0  0  0  0  0  0  0  0  0  0  0  0
  -11.5710   13.9452  -40.0177 H   0  0  0  0  0  0  0  0  0  0  0  0
   -8.5573   13.4656  -37.0230 H   0  0  0  0  0  0  0  0  0  0  0  0
   -9.6302   13.4484  -35.6275 H   0  0  0  0  0  0  0  0  0  0  0  0
  -11.9135   16.1930  -36.1897 H   0  0  0  0  0  0  0  0  0  0  0  0
  -12.9593   17.3733  -38.0608 H   0  0  0  0  0  0  0  0  0  0  0  0
  -13.4859   13.2037  -38.1510 H   0  0  0  0  0  0  0  0  0  0  0  0
  -12.1505   14.0025  -36.2030 H   0  0  0  0  0  0  0  0  0  0  0  0
  -10.2943   13.6872  -38.4644 H   0  0  0  0  0  0  0  0  0  0  0  0
  -14.0439   15.3713  -37.0011 H   0  0  0  0  0  0  0  0  0  0  0  0
  1  2  1  0  0  0  0
  1  5  1  0  0  0  0
  2  6  1  0  0  0  0
  3  4  1  0  0  0  0
  3  7  1  0  0  0  0
  4  8  1  0  0  0  0
  5 10  1  0  0  0  0
  6  7  1  0  0  0  0
  6  9  1  0  0  0  0
  7 11  1  0  0  0  0
  8  9  1  0  0  0  0
  8 11  1  0  0  0  0
  9 10  1  0  0  0  0
  1 12  1  0  0  0  0
  1 13  1  0  0  0  0
  2 14  1  0  0  0  0
  2 15  1  0  0  0  0
  3 16  1  0  0  0  0
  3 17  1  0  0  0  0
  4 18  1  0  0  0  0
  4 19  1  0  0  0  0
  5 20  1  0  0  0  0
  5 21  1  0  0  0  0
  6 22  1  0  0  0  0
  7 23  1  0  0  0  0
  8 24  1  0  0  0  0
  9 25  1  0  0  0  0
 10 26  1  0  0  0  0
 11 27  1  0  0  0  0
M  END
> <id>
EN300-7537348

> <smiles>
C1CC2NC1C3CCCNC23

> <MDLNUMBER>
MFCD32668120

> <IUPAC Name>
3,11-diazatricyclo[6.2.1.0,2,7]undecane

> <CAS>
2416230-96-9

> <URL>
https://www.enaminestore.com/catalog/EN300-7537348

> <ROCS_ShapeQuery>
x1247relevant_x1083L0AP1_x1305L0BP1_

> <ROCS_TanimotoCombo>
0.804 

> <ROCS_ShapeTanimoto>
0.444 

> <ROCS_ColorTanimoto>
0.359 

> <ROCS_RefTversky>
0.373 

> <ROCS_RefColorTversky>
0.412 

> <ROCS_RefTverskyCombo>
0.785 

> <ROCS_FitTversky>
1.756 

> <ROCS_FitColorTversky>
0.739 

> <ROCS_FitTverskyCombo>
2.494 

> <ROCS_ColorScore>
-8.778

> <ROCS_Overlap>
1095.418

> <ROCS_Rank>
301                 

$$$$
untitled-dbase-32135_29
  -OEChem-06162310163D

 38 39  0     1  0  0  0  0  0999 V2000
  -10.4547   14.8663  -36.7860 C   0  0  0  0  0  0  0  0  0  0  0  0
  -13.8826   14.1405  -37.6254 C   0  0  0  0  0  0  0  0  0  0  0  0
  -13.0989   13.5518  -38.8180 C   0  0  0  0  0  0  0  0  0  0  0  0
  -13.1701   16.6032  -37.6879 C   0  0  0  0  0  0  0  0  0  0  0  0
  -12.9627   15.2185  -37.0399 C   0  0  2  0  0  0  0  0  0  0  0  0
  -11.7859   14.3382  -38.8495 C   0  0  1  0  0  0  0  0  0  0  0  0
  -12.9761   16.6126  -39.2281 C   0  0  1  0  0  0  0  0  0  0  0  0
  -11.8814   15.6225  -39.6952 C   0  0  1  0  0  0  0  0  0  0  0  0
   -9.0923   12.6444  -37.0544 C   0  0  0  0  0  0  0  0  0  0  0  0
   -7.7776   13.7271  -38.9006 C   0  0  0  0  0  0  0  0  0  0  0  0
   -7.3446   14.3724  -36.5122 C   0  0  0  0  0  0  0  0  0  0  0  0
   -8.4016   13.9250  -37.5208 C   0  0  0  0  0  0  0  0  0  0  0  0
  -11.6518   14.7580  -37.4664 N   0  0  0  0  0  0  0  0  0  0  0  0
  -14.2455   16.3175  -39.8977 N   0  0  0  0  0  0  0  0  0  0  0  0
  -10.3548   14.8776  -35.5614 O   0  0  0  0  0  0  0  0  0  0  0  0
   -9.3868   14.9577  -37.6371 O   0  0  0  0  0  0  0  0  0  0  0  0
  -10.6770   16.2661  -39.5997 F   0  0  0  0  0  0  0  0  0  0  0  0
  -14.8693   14.5178  -37.9065 H   0  0  0  0  0  0  0  0  0  0  0  0
  -14.0429   13.3475  -36.8844 H   0  0  0  0  0  0  0  0  0  0  0  0
  -12.8947   12.4926  -38.6185 H   0  0  0  0  0  0  0  0  0  0  0  0
  -13.6562   13.6003  -39.7574 H   0  0  0  0  0  0  0  0  0  0  0  0
  -14.1612   16.9937  -37.4242 H   0  0  0  0  0  0  0  0  0  0  0  0
  -12.4467   17.3026  -37.2465 H   0  0  0  0  0  0  0  0  0  0  0  0
  -13.0444   15.2873  -35.9513 H   0  0  0  0  0  0  0  0  0  0  0  0
  -10.9285   13.7346  -39.1623 H   0  0  0  0  0  0  0  0  0  0  0  0
  -12.7000   17.6033  -39.5252 H   0  0  0  0  0  0  0  0  0  0  0  0
  -12.0075   15.3701  -40.7531 H   0  0  0  0  0  0  0  0  0  0  0  0
   -9.5415   12.7823  -36.0643 H   0  0  0  0  0  0  0  0  0  0  0  0
   -9.8766   12.3321  -37.7516 H   0  0  0  0  0  0  0  0  0  0  0  0
   -8.3712   11.8250  -36.9551 H   0  0  0  0  0  0  0  0  0  0  0  0
   -7.2809   14.6435  -39.2392 H   0  0  0  0  0  0  0  0  0  0  0  0
   -8.5464   13.4986  -39.6475 H   0  0  0  0  0  0  0  0  0  0  0  0
   -7.0434   12.9150  -38.8992 H   0  0  0  0  0  0  0  0  0  0  0  0
   -6.8490   15.2910  -36.8466 H   0  0  0  0  0  0  0  0  0  0  0  0
   -7.7810   14.5549  -35.5248 H   0  0  0  0  0  0  0  0  0  0  0  0
   -6.5579   13.6160  -36.4108 H   0  0  0  0  0  0  0  0  0  0  0  0
  -14.9132   16.9876  -39.6005 H   0  0  0  0  0  0  0  0  0  0  0  0
  -14.0975   16.3768  -40.8764 H   0  0  0  0  0  0  0  0  0  0  0  0
  1 13  1  0  0  0  0
  1 15  2  0  0  0  0
  1 16  1  0  0  0  0
  2  3  1  0  0  0  0
  2  5  1  6  0  0  0
  3  6  1  6  0  0  0
  4  5  1  0  0  0  0
  4  7  1  0  0  0  0
  5 13  1  0  0  0  0
  6  8  1  0  0  0  0
  6 13  1  0  0  0  0
  7  8  1  0  0  0  0
  7 14  1  6  0  0  0
  8 17  1  1  0  0  0
  9 12  1  0  0  0  0
 10 12  1  0  0  0  0
 11 12  1  0  0  0  0
 12 16  1  0  0  0  0
  2 18  1  0  0  0  0
  2 19  1  0  0  0  0
  3 20  1  0  0  0  0
  3 21  1  0  0  0  0
  4 22  1  0  0  0  0
  4 23  1  0  0  0  0
  5 24  1  0  0  0  0
  6 25  1  0  0  0  0
  7 26  1  0  0  0  0
  8 27  1  0  0  0  0
  9 28  1  0  0  0  0
  9 29  1  0  0  0  0
  9 30  1  0  0  0  0
 10 31  1  0  0  0  0
 10 32  1  0  0  0  0
 10 33  1  0  0  0  0
 11 34  1  0  0  0  0
 11 35  1  0  0  0  0
 11 36  1  0  0  0  0
 14 37  1  0  0  0  0
 14 38  1  0  0  0  0
M  END
> <id>
EN300-26976670

> <smiles>
CC(C)(C)OC(=O)N1[C@@H]2CC[C@H]1[C@H](F)[C@@H](N)C2 |&1:8,11,12,14,r|

> <IUPAC Name>
rac-tert-butyl (1R,2S,3R,5S)-3-amino-2-fluoro-8-azabicyclo[3.2.1]octane-8-carboxylate

> <CAS>
2375918-49-1

> <Purity>
95

> <URL>
https://www.enaminestore.com/catalog/EN300-26976670

> <ROCS_ShapeQuery>
x1247relevant_x1083L0AP1_x1305L0BP1_

> <ROCS_TanimotoCombo>
0.804 

> <ROCS_ShapeTanimoto>
0.518 

> <ROCS_ColorTanimoto>
0.286 

> <ROCS_RefTversky>
0.442 

> <ROCS_RefColorTversky>
0.331 

> <ROCS_RefTverskyCombo>
0.773 

> <ROCS_FitTversky>
1.497 

> <ROCS_FitColorTversky>
0.676 

> <ROCS_FitTverskyCombo>
2.172 

> <ROCS_ColorScore>
-7.035

> <ROCS_Overlap>
1303.407

> <ROCS_Rank>
302                 

$$$$
untitled-dbase-16931_1
  -OEChem-06162310163D

 29 31  0     1  0  0  0  0  0999 V2000
   -9.5995   16.6182  -36.3100 C   0  0  0  0  0  0  0  0  0  0  0  0
   -9.5464   15.1065  -36.0849 C   0  0  0  0  0  0  0  0  0  0  0  0
  -13.5673   14.2283  -38.9263 C   0  0  0  0  0  0  0  0  0  0  0  0
  -13.2950   14.2998  -37.4255 C   0  0  0  0  0  0  0  0  0  0  0  0
  -10.2782   16.8203  -37.6676 C   0  0  0  0  0  0  0  0  0  0  0  0
  -11.3836   15.3518  -39.4381 C   0  0  0  0  0  0  0  0  0  0  0  0
   -9.9753   14.4968  -37.4209 C   0  0  2  0  0  0  0  0  0  0  0  0
  -12.9069   15.5102  -39.4239 C   0  0  2  0  0  0  0  0  0  0  0  0
  -12.4318   15.5543  -37.3018 C   0  0  1  0  0  0  0  0  0  0  0  0
  -11.0258   15.4902  -37.9472 C   0  0  1  0  0  0  0  0  0  0  0  0
  -10.3441   13.0974  -37.3054 N   0  0  0  0  0  0  0  0  0  0  0  0
  -13.1078   16.3879  -38.2918 O   0  0  0  0  0  0  0  0  0  0  0  0
  -10.1710   17.1168  -35.5210 H   0  0  0  0  0  0  0  0  0  0  0  0
   -8.5901   17.0410  -36.3047 H   0  0  0  0  0  0  0  0  0  0  0  0
   -8.5194   14.8088  -35.8529 H   0  0  0  0  0  0  0  0  0  0  0  0
  -10.1690   14.7961  -35.2430 H   0  0  0  0  0  0  0  0  0  0  0  0
  -13.1623   13.3267  -39.3941 H   0  0  0  0  0  0  0  0  0  0  0  0
  -14.6478   14.2554  -39.1041 H   0  0  0  0  0  0  0  0  0  0  0  0
  -14.2453   14.4395  -36.8937 H   0  0  0  0  0  0  0  0  0  0  0  0
  -12.8255   13.3930  -37.0317 H   0  0  0  0  0  0  0  0  0  0  0  0
  -10.9893   17.6508  -37.5947 H   0  0  0  0  0  0  0  0  0  0  0  0
   -9.5567   17.0839  -38.4458 H   0  0  0  0  0  0  0  0  0  0  0  0
  -11.0865   14.3954  -39.8868 H   0  0  0  0  0  0  0  0  0  0  0  0
  -10.9363   16.1532  -40.0410 H   0  0  0  0  0  0  0  0  0  0  0  0
   -9.0424   14.5278  -38.1186 H   0  0  0  0  0  0  0  0  0  0  0  0
  -13.3312   15.9109  -40.3470 H   0  0  0  0  0  0  0  0  0  0  0  0
  -12.4700   16.0316  -36.3159 H   0  0  0  0  0  0  0  0  0  0  0  0
  -10.5517   12.7592  -38.2137 H   0  0  0  0  0  0  0  0  0  0  0  0
   -9.5752   12.6098  -36.9135 H   0  0  0  0  0  0  0  0  0  0  0  0
  1  2  1  0  0  0  0
  1  5  1  0  0  0  0
  2  7  1  0  0  0  0
  3  4  1  0  0  0  0
  3  8  1  0  0  0  0
  4  9  1  0  0  0  0
  5 10  1  0  0  0  0
  6  8  1  0  0  0  0
  6 10  1  0  0  0  0
  7 10  1  0  0  0  0
  7 11  1  0  0  0  0
  8 12  1  0  0  0  0
  9 10  1  0  0  0  0
  9 12  1  0  0  0  0
  1 13  1  0  0  0  0
  1 14  1  0  0  0  0
  2 15  1  0  0  0  0
  2 16  1  0  0  0  0
  3 17  1  0  0  0  0
  3 18  1  0  0  0  0
  4 19  1  0  0  0  0
  4 20  1  0  0  0  0
  5 21  1  0  0  0  0
  5 22  1  0  0  0  0
  6 23  1  0  0  0  0
  6 24  1  0  0  0  0
  7 25  1  0  0  0  0
  8 26  1  0  0  0  0
  9 27  1  0  0  0  0
 11 28  1  0  0  0  0
 11 29  1  0  0  0  0
M  END
> <id>
EN300-1461651

> <smiles>
NC1CCCC21CC3CCC2O3

> <IUPAC Name>
7-oxaspiro[bicyclo[2.2.1]heptane-2,1'-cyclopentane]-5'-amine

> <CAS>
2168875-93-0

> <URL>
https://www.enaminestore.com/catalog/EN300-1461651

> <ROCS_ShapeQuery>
x1247relevant_x1083L0AP1_x1305L0BP1_

> <ROCS_TanimotoCombo>
0.804 

> <ROCS_ShapeTanimoto>
0.450 

> <ROCS_ColorTanimoto>
0.353 

> <ROCS_RefTversky>
0.381 

> <ROCS_RefColorTversky>
0.395 

> <ROCS_RefTverskyCombo>
0.776 

> <ROCS_FitTversky>
1.674 

> <ROCS_FitColorTversky>
0.770 

> <ROCS_FitTverskyCombo>
2.444 

> <ROCS_ColorScore>
-8.407

> <ROCS_Overlap>
1119.660

> <ROCS_Rank>
303                 

$$$$
untitled-dbase-30366_22
  -OEChem-06162310163D

 35 36  0     1  0  0  0  0  0999 V2000
  -12.2801   16.2062  -39.6979 C   0  0  0  0  0  0  0  0  0  0  0  0
  -10.5876   14.4324  -36.7353 C   0  0  0  0  0  0  0  0  0  0  0  0
  -11.9366   14.7194  -39.7667 C   0  0  0  0  0  0  0  0  0  0  0  0
  -13.8474   14.1005  -38.2216 C   0  0  0  0  0  0  0  0  0  0  0  0
  -14.0162   15.3890  -37.3922 C   0  0  0  0  0  0  0  0  0  0  0  0
  -12.2006   16.8876  -38.3353 C   0  0  2  0  0  0  0  0  0  0  0  0
  -12.3388   13.9885  -38.4755 C   0  0  2  0  0  0  0  0  0  0  0  0
  -12.5907   15.9275  -37.2040 C   0  0  2  0  0  0  0  0  0  0  0  0
   -7.9932   13.5580  -35.9147 C   0  0  0  0  0  0  0  0  0  0  0  0
   -7.4909   13.3491  -38.3669 C   0  0  0  0  0  0  0  0  0  0  0  0
   -8.0534   15.5945  -37.3924 C   0  0  0  0  0  0  0  0  0  0  0  0
   -8.3091   14.0902  -37.3117 C   0  0  0  0  0  0  0  0  0  0  0  0
  -11.7812   14.7315  -37.3616 N   0  0  0  0  0  0  0  0  0  0  0  0
  -12.5327   16.8490  -40.7170 O   0  0  0  0  0  0  0  0  0  0  0  0
  -10.3528   14.6609  -35.5509 O   0  0  0  0  0  0  0  0  0  0  0  0
   -9.6926   13.8474  -37.5897 O   0  0  0  0  0  0  0  0  0  0  0  0
  -13.0162   17.9764  -38.2910 F   0  0  0  0  0  0  0  0  0  0  0  0
  -12.4580   14.2809  -40.6246 H   0  0  0  0  0  0  0  0  0  0  0  0
  -10.8573   14.6332  -39.9344 H   0  0  0  0  0  0  0  0  0  0  0  0
  -14.1967   13.2444  -37.6323 H   0  0  0  0  0  0  0  0  0  0  0  0
  -14.4355   14.1326  -39.1444 H   0  0  0  0  0  0  0  0  0  0  0  0
  -14.6826   16.1033  -37.8861 H   0  0  0  0  0  0  0  0  0  0  0  0
  -14.4582   15.1364  -36.4212 H   0  0  0  0  0  0  0  0  0  0  0  0
  -11.1722   17.2405  -38.1992 H   0  0  0  0  0  0  0  0  0  0  0  0
  -11.9895   12.9516  -38.4923 H   0  0  0  0  0  0  0  0  0  0  0  0
  -12.4615   16.4047  -36.2282 H   0  0  0  0  0  0  0  0  0  0  0  0
   -8.5785   14.0874  -35.1544 H   0  0  0  0  0  0  0  0  0  0  0  0
   -8.2055   12.4869  -35.8335 H   0  0  0  0  0  0  0  0  0  0  0  0
   -6.9391   13.7219  -35.6629 H   0  0  0  0  0  0  0  0  0  0  0  0
   -7.7144   13.7277  -39.3708 H   0  0  0  0  0  0  0  0  0  0  0  0
   -7.7414   12.2821  -38.3766 H   0  0  0  0  0  0  0  0  0  0  0  0
   -6.4154   13.4511  -38.1893 H   0  0  0  0  0  0  0  0  0  0  0  0
   -8.2800   15.9765  -38.3944 H   0  0  0  0  0  0  0  0  0  0  0  0
   -8.6600   16.1462  -36.6669 H   0  0  0  0  0  0  0  0  0  0  0  0
   -6.9972   15.8207  -37.2067 H   0  0  0  0  0  0  0  0  0  0  0  0
  1  3  1  0  0  0  0
  1  6  1  0  0  0  0
  1 14  2  0  0  0  0
  2 13  1  0  0  0  0
  2 15  2  0  0  0  0
  2 16  1  0  0  0  0
  3  7  1  0  0  0  0
  4  5  1  0  0  0  0
  4  7  1  0  0  0  0
  5  8  1  0  0  0  0
  6  8  1  0  0  0  0
  6 17  1  0  0  0  0
  7 13  1  0  0  0  0
  8 13  1  0  0  0  0
  9 12  1  0  0  0  0
 10 12  1  0  0  0  0
 11 12  1  0  0  0  0
 12 16  1  0  0  0  0
  3 18  1  0  0  0  0
  3 19  1  0  0  0  0
  4 20  1  0  0  0  0
  4 21  1  0  0  0  0
  5 22  1  0  0  0  0
  5 23  1  0  0  0  0
  6 24  1  0  0  0  0
  7 25  1  0  0  0  0
  8 26  1  0  0  0  0
  9 27  1  0  0  0  0
  9 28  1  0  0  0  0
  9 29  1  0  0  0  0
 10 30  1  0  0  0  0
 10 31  1  0  0  0  0
 10 32  1  0  0  0  0
 11 33  1  0  0  0  0
 11 34  1  0  0  0  0
 11 35  1  0  0  0  0
M  END
> <id>
EN300-7542693

> <smiles>
CC(C)(C)OC(=O)N1C2CCC1C(F)C(=O)C2

> <MDLNUMBER>
MFCD22580379

> <IUPAC Name>
tert-butyl 2-fluoro-3-oxo-8-azabicyclo[3.2.1]octane-8-carboxylate

> <CAS>
1404196-37-7

> <Purity>
95

> <URL>
https://www.enaminestore.com/catalog/EN300-7542693

> <ROCS_ShapeQuery>
x1247relevant_x1083L0AP1_x1305L0BP1_

> <ROCS_TanimotoCombo>
0.803 

> <ROCS_ShapeTanimoto>
0.482 

> <ROCS_ColorTanimoto>
0.321 

> <ROCS_RefTversky>
0.422 

> <ROCS_RefColorTversky>
0.352 

> <ROCS_RefTverskyCombo>
0.774 

> <ROCS_FitTversky>
1.420 

> <ROCS_FitColorTversky>
0.786 

> <ROCS_FitTverskyCombo>
2.205 

> <ROCS_ColorScore>
-7.471

> <ROCS_Overlap>
1244.057

> <ROCS_Rank>
304                 

$$$$
untitled-dbase-20381_160
  -OEChem-06162310163D

 42 43  0     0  0  0  0  0  0999 V2000
  -13.8657   15.7067  -39.6396 C   0  0  0  0  0  0  0  0  0  0  0  0
  -11.2993   15.5819  -36.0858 C   0  0  0  0  0  0  0  0  0  0  0  0
  -11.4541   15.6211  -38.7180 C   0  0  0  0  0  0  0  0  0  0  0  0
  -12.8523   14.3028  -37.7445 C   0  0  0  0  0  0  0  0  0  0  0  0
   -9.8841   16.1358  -35.9635 C   0  0  0  0  0  0  0  0  0  0  0  0
  -11.4433   14.8284  -37.3900 C   0  0  0  0  0  0  0  0  0  0  0  0
   -9.1619   14.0765  -36.9998 C   0  0  0  0  0  0  0  0  0  0  0  0
   -8.8513   13.3316  -35.6919 C   0  0  0  0  0  0  0  0  0  0  0  0
   -8.1484   13.6387  -38.0651 C   0  0  0  0  0  0  0  0  0  0  0  0
  -14.5128   13.7727  -41.2788 C   0  0  0  0  0  0  0  0  0  0  0  0
  -16.4142   13.1745  -39.7504 C   0  0  0  0  0  0  0  0  0  0  0  0
  -16.5695   15.2211  -41.1979 C   0  0  0  0  0  0  0  0  0  0  0  0
  -15.6340   14.3179  -40.3954 C   0  0  0  0  0  0  0  0  0  0  0  0
  -10.4954   13.7126  -37.5183 N   0  0  0  0  0  0  0  0  0  0  0  0
  -12.8617   15.2830  -38.8140 N   0  0  0  0  0  0  0  0  0  0  0  0
  -13.7209   16.5356  -40.5338 O   0  0  0  0  0  0  0  0  0  0  0  0
   -8.9542   15.4876  -36.8296 O   0  0  0  0  0  0  0  0  0  0  0  0
  -15.0488   15.0896  -39.3409 O   0  0  0  0  0  0  0  0  0  0  0  0
  -11.5238   14.9392  -35.2227 H   0  0  0  0  0  0  0  0  0  0  0  0
  -12.0139   16.4187  -36.0585 H   0  0  0  0  0  0  0  0  0  0  0  0
  -11.2723   16.6977  -38.6315 H   0  0  0  0  0  0  0  0  0  0  0  0
  -10.8778   15.2195  -39.5596 H   0  0  0  0  0  0  0  0  0  0  0  0
  -12.9378   13.2812  -38.1309 H   0  0  0  0  0  0  0  0  0  0  0  0
  -13.6274   14.4796  -36.9921 H   0  0  0  0  0  0  0  0  0  0  0  0
   -9.8837   17.2133  -36.2266 H   0  0  0  0  0  0  0  0  0  0  0  0
   -9.5166   16.0908  -34.9162 H   0  0  0  0  0  0  0  0  0  0  0  0
   -9.5622   13.6327  -34.9286 H   0  0  0  0  0  0  0  0  0  0  0  0
   -7.8444   13.5771  -35.3683 H   0  0  0  0  0  0  0  0  0  0  0  0
   -8.9290   12.2618  -35.8598 H   0  0  0  0  0  0  0  0  0  0  0  0
   -8.3574   14.1585  -38.9949 H   0  0  0  0  0  0  0  0  0  0  0  0
   -8.2304   12.5675  -38.2203 H   0  0  0  0  0  0  0  0  0  0  0  0
   -7.1456   13.8826  -37.7287 H   0  0  0  0  0  0  0  0  0  0  0  0
  -13.9504   14.5904  -41.7436 H   0  0  0  0  0  0  0  0  0  0  0  0
  -13.8151   13.1515  -40.7076 H   0  0  0  0  0  0  0  0  0  0  0  0
  -14.9193   13.1712  -42.0999 H   0  0  0  0  0  0  0  0  0  0  0  0
  -17.2197   13.5611  -39.1157 H   0  0  0  0  0  0  0  0  0  0  0  0
  -15.7657   12.5789  -39.0977 H   0  0  0  0  0  0  0  0  0  0  0  0
  -16.8534   12.5105  -40.5020 H   0  0  0  0  0  0  0  0  0  0  0  0
  -17.3738   15.6124  -40.5645 H   0  0  0  0  0  0  0  0  0  0  0  0
  -16.0331   16.0681  -41.6378 H   0  0  0  0  0  0  0  0  0  0  0  0
  -17.0559   14.6603  -42.0042 H   0  0  0  0  0  0  0  0  0  0  0  0
  -10.7992   12.8317  -37.1211 H   0  0  0  0  0  0  0  0  0  0  0  0
  1 15  1  0  0  0  0
  1 16  2  0  0  0  0
  1 18  1  0  0  0  0
  2  5  1  0  0  0  0
  2  6  1  0  0  0  0
  3  6  1  0  0  0  0
  3 15  1  0  0  0  0
  4  6  1  0  0  0  0
  4 15  1  0  0  0  0
  5 17  1  0  0  0  0
  6 14  1  0  0  0  0
  7  8  1  0  0  0  0
  7  9  1  0  0  0  0
  7 14  1  0  0  0  0
  7 17  1  0  0  0  0
 10 13  1  0  0  0  0
 11 13  1  0  0  0  0
 12 13  1  0  0  0  0
 13 18  1  0  0  0  0
  2 19  1  0  0  0  0
  2 20  1  0  0  0  0
  3 21  1  0  0  0  0
  3 22  1  0  0  0  0
  4 23  1  0  0  0  0
  4 24  1  0  0  0  0
  5 25  1  0  0  0  0
  5 26  1  0  0  0  0
  8 27  1  0  0  0  0
  8 28  1  0  0  0  0
  8 29  1  0  0  0  0
  9 30  1  0  0  0  0
  9 31  1  0  0  0  0
  9 32  1  0  0  0  0
 10 33  1  0  0  0  0
 10 34  1  0  0  0  0
 10 35  1  0  0  0  0
 11 36  1  0  0  0  0
 11 37  1  0  0  0  0
 11 38  1  0  0  0  0
 12 39  1  0  0  0  0
 12 40  1  0  0  0  0
 12 41  1  0  0  0  0
 14 42  1  0  0  0  0
M  END
> <id>
EN300-1280085

> <smiles>
CC(C)(C)OC(=O)N1CC2(C1)CCOC(C)(C)N2

> <IUPAC Name>
tert-butyl 6,6-dimethyl-7-oxa-2,5-diazaspiro[3.5]nonane-2-carboxylate

> <CAS>
2166912-91-8

> <URL>
https://www.enaminestore.com/catalog/EN300-1280085

> <ROCS_ShapeQuery>
x1247relevant_x1083L0AP1_x1305L0BP1_

> <ROCS_TanimotoCombo>
0.803 

> <ROCS_ShapeTanimoto>
0.504 

> <ROCS_ColorTanimoto>
0.299 

> <ROCS_RefTversky>
0.438 

> <ROCS_RefColorTversky>
0.325 

> <ROCS_RefTverskyCombo>
0.763 

> <ROCS_FitTversky>
1.424 

> <ROCS_FitColorTversky>
0.791 

> <ROCS_FitTverskyCombo>
2.215 

> <ROCS_ColorScore>
-6.878

> <ROCS_Overlap>
1293.042

> <ROCS_Rank>
305                 

$$$$
untitled-dbase-7619_29
  -OEChem-06162310163D

 38 40  0     1  0  0  0  0  0999 V2000
  -10.7057   14.2708  -36.6361 C   0  0  0  0  0  0  0  0  0  0  0  0
  -13.8841   14.4106  -38.3189 C   0  0  0  0  0  0  0  0  0  0  0  0
  -13.8779   15.7478  -37.5511 C   0  0  0  0  0  0  0  0  0  0  0  0
  -11.7989   14.6166  -39.7553 C   0  0  0  0  0  0  0  0  0  0  0  0
  -11.7865   16.8721  -38.4547 C   0  0  0  0  0  0  0  0  0  0  0  0
  -11.5288   16.8640  -41.0482 C   0  0  0  0  0  0  0  0  0  0  0  0
  -12.4054   14.0313  -38.4652 C   0  0  1  0  0  0  0  0  0  0  0  0
  -12.3956   16.0544  -37.2996 C   0  0  2  0  0  0  0  0  0  0  0  0
  -11.8819   16.1315  -39.7756 C   0  0  0  0  0  0  0  0  0  0  0  0
   -7.8983   14.0434  -36.1518 C   0  0  0  0  0  0  0  0  0  0  0  0
   -7.7809   12.9725  -38.4209 C   0  0  0  0  0  0  0  0  0  0  0  0
   -8.5612   15.3495  -38.1985 C   0  0  0  0  0  0  0  0  0  0  0  0
   -8.5305   13.9706  -37.5409 C   0  0  0  0  0  0  0  0  0  0  0  0
  -11.7945   14.7308  -37.3500 N   0  0  0  0  0  0  0  0  0  0  0  0
  -10.5026   14.5193  -35.4499 O   0  0  0  0  0  0  0  0  0  0  0  0
  -12.8912   16.6462  -40.6593 O   0  0  0  0  0  0  0  0  0  0  0  0
   -9.8761   13.5002  -37.4050 O   0  0  0  0  0  0  0  0  0  0  0  0
  -14.4116   13.6564  -37.7229 H   0  0  0  0  0  0  0  0  0  0  0  0
  -14.4008   14.4961  -39.2802 H   0  0  0  0  0  0  0  0  0  0  0  0
  -14.3891   16.5391  -38.1086 H   0  0  0  0  0  0  0  0  0  0  0  0
  -14.4048   15.6176  -36.5984 H   0  0  0  0  0  0  0  0  0  0  0  0
  -10.7430   14.3262  -39.8231 H   0  0  0  0  0  0  0  0  0  0  0  0
  -12.3047   14.1881  -40.6293 H   0  0  0  0  0  0  0  0  0  0  0  0
  -12.2842   17.8474  -38.5197 H   0  0  0  0  0  0  0  0  0  0  0  0
  -10.7280   17.0670  -38.2415 H   0  0  0  0  0  0  0  0  0  0  0  0
  -11.1437   17.8733  -40.9777 H   0  0  0  0  0  0  0  0  0  0  0  0
  -11.1512   16.2950  -41.8881 H   0  0  0  0  0  0  0  0  0  0  0  0
  -12.2386   12.9511  -38.4137 H   0  0  0  0  0  0  0  0  0  0  0  0
  -12.2295   16.5536  -36.3406 H   0  0  0  0  0  0  0  0  0  0  0  0
   -8.4335   14.7587  -35.5171 H   0  0  0  0  0  0  0  0  0  0  0  0
   -7.9018   13.0675  -35.6553 H   0  0  0  0  0  0  0  0  0  0  0  0
   -6.8628   14.3975  -36.2115 H   0  0  0  0  0  0  0  0  0  0  0  0
   -8.2312   12.9171  -39.4186 H   0  0  0  0  0  0  0  0  0  0  0  0
   -7.8373   11.9621  -38.0002 H   0  0  0  0  0  0  0  0  0  0  0  0
   -6.7260   13.2438  -38.5311 H   0  0  0  0  0  0  0  0  0  0  0  0
   -9.0147   15.2975  -39.1950 H   0  0  0  0  0  0  0  0  0  0  0  0
   -9.1267   16.0699  -37.5986 H   0  0  0  0  0  0  0  0  0  0  0  0
   -7.5455   15.7361  -38.3408 H   0  0  0  0  0  0  0  0  0  0  0  0
  1 14  1  0  0  0  0
  1 15  2  0  0  0  0
  1 17  1  0  0  0  0
  2  3  1  0  0  0  0
  2  7  1  0  0  0  0
  3  8  1  0  0  0  0
  4  7  1  0  0  0  0
  4  9  1  0  0  0  0
  5  8  1  0  0  0  0
  5  9  1  0  0  0  0
  6  9  1  0  0  0  0
  6 16  1  0  0  0  0
  7 14  1  0  0  0  0
  8 14  1  0  0  0  0
  9 16  1  0  0  0  0
 10 13  1  0  0  0  0
 11 13  1  0  0  0  0
 12 13  1  0  0  0  0
 13 17  1  0  0  0  0
  2 18  1  0  0  0  0
  2 19  1  0  0  0  0
  3 20  1  0  0  0  0
  3 21  1  0  0  0  0
  4 22  1  0  0  0  0
  4 23  1  0  0  0  0
  5 24  1  0  0  0  0
  5 25  1  0  0  0  0
  6 26  1  0  0  0  0
  6 27  1  0  0  0  0
  7 28  1  0  0  0  0
  8 29  1  0  0  0  0
 10 30  1  0  0  0  0
 10 31  1  0  0  0  0
 10 32  1  0  0  0  0
 11 33  1  0  0  0  0
 11 34  1  0  0  0  0
 11 35  1  0  0  0  0
 12 36  1  0  0  0  0
 12 37  1  0  0  0  0
 12 38  1  0  0  0  0
M  END
> <id>
EN300-253676

> <smiles>
CC(C)(C)OC(=O)N1C2CCC1CC3(CO3)C2

> <MDLNUMBER>
MFCD24532873

> <IUPAC Name>
tert-butyl 8-azaspiro[bicyclo[3.2.1]octane-3,2'-oxirane]-8-carboxylate

> <CAS>
918441-60-8

> <URL>
https://www.enaminestore.com/catalog/EN300-253676

> <ROCS_ShapeQuery>
x1247relevant_x1083L0AP1_x1305L0BP1_

> <ROCS_TanimotoCombo>
0.803 

> <ROCS_ShapeTanimoto>
0.492 

> <ROCS_ColorTanimoto>
0.312 

> <ROCS_RefTversky>
0.428 

> <ROCS_RefColorTversky>
0.344 

> <ROCS_RefTverskyCombo>
0.772 

> <ROCS_FitTversky>
1.435 

> <ROCS_FitColorTversky>
0.768 

> <ROCS_FitTverskyCombo>
2.202 

> <ROCS_ColorScore>
-7.292

> <ROCS_Overlap>
1261.838

> <ROCS_Rank>
306                 

$$$$
untitled-dbase-29171_29
  -OEChem-06162310163D

 38 40  0     1  0  0  0  0  0999 V2000
  -10.7043   14.2694  -36.6374 C   0  0  0  0  0  0  0  0  0  0  0  0
  -13.8843   14.4116  -38.3168 C   0  0  0  0  0  0  0  0  0  0  0  0
  -13.8760   15.7494  -37.5499 C   0  0  0  0  0  0  0  0  0  0  0  0
  -11.8001   14.6154  -39.7553 C   0  0  0  0  0  0  0  0  0  0  0  0
  -11.7841   16.8712  -38.4553 C   0  0  0  0  0  0  0  0  0  0  0  0
  -11.5306   16.8619  -41.0499 C   0  0  0  0  0  0  0  0  0  0  0  0
  -12.4060   14.0310  -38.4647 C   0  0  1  0  0  0  0  0  0  0  0  0
  -12.3931   16.0544  -37.2995 C   0  0  2  0  0  0  0  0  0  0  0  0
  -11.8820   16.1304  -39.7761 C   0  0  0  0  0  0  0  0  0  0  0  0
   -7.8964   14.0400  -36.1560 C   0  0  0  0  0  0  0  0  0  0  0  0
   -7.7824   12.9688  -38.4251 C   0  0  0  0  0  0  0  0  0  0  0  0
   -8.5606   15.3464  -38.2022 C   0  0  0  0  0  0  0  0  0  0  0  0
   -8.5302   13.9675  -37.5445 C   0  0  0  0  0  0  0  0  0  0  0  0
  -11.7936   14.7301  -37.3502 N   0  0  0  0  0  0  0  0  0  0  0  0
  -10.5000   14.5179  -35.4515 O   0  0  0  0  0  0  0  0  0  0  0  0
  -12.8924   16.6457  -40.6582 O   0  0  0  0  0  0  0  0  0  0  0  0
   -9.8761   13.4982  -37.4071 O   0  0  0  0  0  0  0  0  0  0  0  0
  -14.4118   13.6584  -37.7197 H   0  0  0  0  0  0  0  0  0  0  0  0
  -14.4020   14.4969  -39.2774 H   0  0  0  0  0  0  0  0  0  0  0  0
  -14.3867   16.5410  -38.1077 H   0  0  0  0  0  0  0  0  0  0  0  0
  -14.4024   15.6206  -36.5968 H   0  0  0  0  0  0  0  0  0  0  0  0
  -10.7445   14.3241  -39.8238 H   0  0  0  0  0  0  0  0  0  0  0  0
  -12.3070   14.1870  -40.6288 H   0  0  0  0  0  0  0  0  0  0  0  0
  -12.2804   17.8472  -38.5199 H   0  0  0  0  0  0  0  0  0  0  0  0
  -10.7251   17.0646  -38.2434 H   0  0  0  0  0  0  0  0  0  0  0  0
  -11.1441   17.8707  -40.9808 H   0  0  0  0  0  0  0  0  0  0  0  0
  -11.1550   16.2920  -41.8902 H   0  0  0  0  0  0  0  0  0  0  0  0
  -12.2402   12.9507  -38.4130 H   0  0  0  0  0  0  0  0  0  0  0  0
  -12.2259   16.5537  -36.3409 H   0  0  0  0  0  0  0  0  0  0  0  0
   -8.4304   14.7558  -35.5208 H   0  0  0  0  0  0  0  0  0  0  0  0
   -7.9002   13.0642  -35.6594 H   0  0  0  0  0  0  0  0  0  0  0  0
   -6.8607   14.3934  -36.2169 H   0  0  0  0  0  0  0  0  0  0  0  0
   -8.2338   12.9136  -39.4223 H   0  0  0  0  0  0  0  0  0  0  0  0
   -7.8391   11.9584  -38.0042 H   0  0  0  0  0  0  0  0  0  0  0  0
   -6.7274   13.2393  -38.5366 H   0  0  0  0  0  0  0  0  0  0  0  0
   -9.0152   15.2946  -39.1981 H   0  0  0  0  0  0  0  0  0  0  0  0
   -9.1249   16.0673  -37.6018 H   0  0  0  0  0  0  0  0  0  0  0  0
   -7.5448   15.7321  -38.3456 H   0  0  0  0  0  0  0  0  0  0  0  0
  1 14  1  0  0  0  0
  1 15  2  0  0  0  0
  1 17  1  0  0  0  0
  2  3  1  0  0  0  0
  2  7  1  1  0  0  0
  3  8  1  1  0  0  0
  4  7  1  0  0  0  0
  4  9  1  0  0  0  0
  5  8  1  0  0  0  0
  5  9  1  6  0  0  0
  6  9  1  0  0  0  0
  6 16  1  0  0  0  0
  7 14  1  0  0  0  0
  8 14  1  0  0  0  0
  9 16  1  0  0  0  0
 10 13  1  0  0  0  0
 11 13  1  0  0  0  0
 12 13  1  0  0  0  0
 13 17  1  0  0  0  0
  2 18  1  0  0  0  0
  2 19  1  0  0  0  0
  3 20  1  0  0  0  0
  3 21  1  0  0  0  0
  4 22  1  0  0  0  0
  4 23  1  0  0  0  0
  5 24  1  0  0  0  0
  5 25  1  0  0  0  0
  6 26  1  0  0  0  0
  6 27  1  0  0  0  0
  7 28  1  0  0  0  0
  8 29  1  0  0  0  0
 10 30  1  0  0  0  0
 10 31  1  0  0  0  0
 10 32  1  0  0  0  0
 11 33  1  0  0  0  0
 11 34  1  0  0  0  0
 11 35  1  0  0  0  0
 12 36  1  0  0  0  0
 12 37  1  0  0  0  0
 12 38  1  0  0  0  0
M  END
> <id>
EN300-253669

> <smiles>
CC(C)(C)OC(=O)N1[C@H]2CC[C@@H]1C[C@@]3(CO3)C2

> <MDLNUMBER>
MFCD18533706

> <IUPAC Name>
tert-butyl (1S,3R,5R)-8-azaspiro[bicyclo[3.2.1]octane-3,2'-oxirane]-8-carboxylate

> <CAS>
1821401-91-5

> <Purity>
95

> <URL>
https://www.enaminestore.com/catalog/EN300-253669

> <ROCS_ShapeQuery>
x1247relevant_x1083L0AP1_x1305L0BP1_

> <ROCS_TanimotoCombo>
0.803 

> <ROCS_ShapeTanimoto>
0.491 

> <ROCS_ColorTanimoto>
0.311 

> <ROCS_RefTversky>
0.428 

> <ROCS_RefColorTversky>
0.344 

> <ROCS_RefTverskyCombo>
0.772 

> <ROCS_FitTversky>
1.435 

> <ROCS_FitColorTversky>
0.767 

> <ROCS_FitTverskyCombo>
2.202 

> <ROCS_ColorScore>
-7.292

> <ROCS_Overlap>
1261.580

> <ROCS_Rank>
307                 

$$$$
untitled-dbase-17084_18
  -OEChem-06162310163D

 41 42  0     1  0  0  0  0  0999 V2000
   -9.0416   14.8409  -37.5181 C   0  0  0  0  0  0  0  0  0  0  0  0
  -10.1558   15.8507  -37.7942 C   0  0  0  0  0  0  0  0  0  0  0  0
  -12.0134   15.3409  -36.1510 C   0  0  0  0  0  0  0  0  0  0  0  0
  -13.2206   13.7878  -38.5586 C   0  0  0  0  0  0  0  0  0  0  0  0
   -9.1785   13.9513  -36.2912 C   0  0  0  0  0  0  0  0  0  0  0  0
  -11.2811   14.3412  -35.2669 C   0  0  0  0  0  0  0  0  0  0  0  0
  -14.0253   14.9338  -39.2442 C   0  0  0  0  0  0  0  0  0  0  0  0
  -11.6252   15.3881  -37.6507 C   0  0  2  0  0  0  0  0  0  0  0  0
  -13.1371   16.2261  -39.4139 C   0  0  0  0  0  0  0  0  0  0  0  0
  -15.2622   15.2121  -38.3517 C   0  0  0  0  0  0  0  0  0  0  0  0
  -14.5616   14.4281  -40.6021 C   0  0  0  0  0  0  0  0  0  0  0  0
  -12.1450   16.1557  -40.5969 C   0  0  0  0  0  0  0  0  0  0  0  0
  -13.9731   17.5036  -39.6369 C   0  0  0  0  0  0  0  0  0  0  0  0
  -11.8174   14.1111  -38.3415 N   0  0  0  0  0  0  0  0  0  0  0  0
   -9.8784   14.5788  -35.2283 O   0  0  0  0  0  0  0  0  0  0  0  0
  -12.4194   16.4753  -38.1903 O   0  0  0  0  0  0  0  0  0  0  0  0
   -8.9428   14.1889  -38.4144 H   0  0  0  0  0  0  0  0  0  0  0  0
   -8.0736   15.3888  -37.4597 H   0  0  0  0  0  0  0  0  0  0  0  0
   -9.9759   16.6893  -37.0917 H   0  0  0  0  0  0  0  0  0  0  0  0
   -9.9897   16.2819  -38.8017 H   0  0  0  0  0  0  0  0  0  0  0  0
  -13.0909   15.1374  -36.0782 H   0  0  0  0  0  0  0  0  0  0  0  0
  -11.8989   16.3263  -35.6867 H   0  0  0  0  0  0  0  0  0  0  0  0
  -13.6957   13.4900  -37.6063 H   0  0  0  0  0  0  0  0  0  0  0  0
  -13.2686   12.8795  -39.1877 H   0  0  0  0  0  0  0  0  0  0  0  0
   -9.6195   12.9606  -36.5437 H   0  0  0  0  0  0  0  0  0  0  0  0
   -8.1623   13.7265  -35.9084 H   0  0  0  0  0  0  0  0  0  0  0  0
  -11.6363   14.4180  -34.2500 H   0  0  0  0  0  0  0  0  0  0  0  0
  -11.4645   13.3296  -35.6037 H   0  0  0  0  0  0  0  0  0  0  0  0
  -15.8484   16.0065  -38.7980 H   0  0  0  0  0  0  0  0  0  0  0  0
  -14.9264   15.5107  -37.3658 H   0  0  0  0  0  0  0  0  0  0  0  0
  -15.8572   14.3093  -38.2812 H   0  0  0  0  0  0  0  0  0  0  0  0
  -15.1181   15.2265  -41.0722 H   0  0  0  0  0  0  0  0  0  0  0  0
  -15.2039   13.5773  -40.4240 H   0  0  0  0  0  0  0  0  0  0  0  0
  -13.7219   14.1418  -41.2195 H   0  0  0  0  0  0  0  0  0  0  0  0
  -11.5799   17.0789  -40.6385 H   0  0  0  0  0  0  0  0  0  0  0  0
  -12.7018   16.0215  -41.5163 H   0  0  0  0  0  0  0  0  0  0  0  0
  -11.4745   15.3185  -40.4452 H   0  0  0  0  0  0  0  0  0  0  0  0
  -13.3061   18.3519  -39.7456 H   0  0  0  0  0  0  0  0  0  0  0  0
  -14.6246   17.6569  -38.7834 H   0  0  0  0  0  0  0  0  0  0  0  0
  -14.5683   17.3878  -40.5362 H   0  0  0  0  0  0  0  0  0  0  0  0
  -11.3583   13.3546  -37.8411 H   0  0  0  0  0  0  0  0  0  0  0  0
  1  2  1  0  0  0  0
  1  5  1  0  0  0  0
  2  8  1  0  0  0  0
  3  6  1  0  0  0  0
  3  8  1  0  0  0  0
  4  7  1  0  0  0  0
  4 14  1  0  0  0  0
  5 15  1  0  0  0  0
  6 15  1  0  0  0  0
  7  9  1  0  0  0  0
  7 10  1  0  0  0  0
  7 11  1  0  0  0  0
  8 14  1  0  0  0  0
  8 16  1  0  0  0  0
  9 12  1  0  0  0  0
  9 13  1  0  0  0  0
  9 16  1  0  0  0  0
  1 17  1  0  0  0  0
  1 18  1  0  0  0  0
  2 19  1  0  0  0  0
  2 20  1  0  0  0  0
  3 21  1  0  0  0  0
  3 22  1  0  0  0  0
  4 23  1  0  0  0  0
  4 24  1  0  0  0  0
  5 25  1  0  0  0  0
  5 26  1  0  0  0  0
  6 27  1  0  0  0  0
  6 28  1  0  0  0  0
 10 29  1  0  0  0  0
 10 30  1  0  0  0  0
 10 31  1  0  0  0  0
 11 32  1  0  0  0  0
 11 33  1  0  0  0  0
 11 34  1  0  0  0  0
 12 35  1  0  0  0  0
 12 36  1  0  0  0  0
 12 37  1  0  0  0  0
 13 38  1  0  0  0  0
 13 39  1  0  0  0  0
 13 40  1  0  0  0  0
 14 41  1  0  0  0  0
M  END
> <id>
EN300-1280168

> <smiles>
CC1(C)CNC2(CCCOCC2)OC1(C)C

> <IUPAC Name>
2,2,3,3-tetramethyl-1,9-dioxa-5-azaspiro[5.6]dodecane

> <CAS>
2169478-03-7

> <URL>
https://www.enaminestore.com/catalog/EN300-1280168

> <ROCS_ShapeQuery>
x1247relevant_x1083L0AP1_x1305L0BP1_

> <ROCS_TanimotoCombo>
0.803 

> <ROCS_ShapeTanimoto>
0.504 

> <ROCS_ColorTanimoto>
0.299 

> <ROCS_RefTversky>
0.427 

> <ROCS_RefColorTversky>
0.325 

> <ROCS_RefTverskyCombo>
0.752 

> <ROCS_FitTversky>
1.555 

> <ROCS_FitColorTversky>
0.790 

> <ROCS_FitTverskyCombo>
2.345 

> <ROCS_ColorScore>
-6.873

> <ROCS_Overlap>
1257.191

> <ROCS_Rank>
308                 

$$$$
untitled-dbase-6323_0
  -OEChem-06162310163D

 27 29  0     1  0  0  0  0  0999 V2000
   -9.2614   15.1042  -36.8790 C   0  0  0  0  0  0  0  0  0  0  0  0
  -13.8683   14.3278  -37.5892 C   0  0  0  0  0  0  0  0  0  0  0  0
  -13.1174   16.6800  -37.7202 C   0  0  0  0  0  0  0  0  0  0  0  0
  -13.8094   14.2571  -39.1240 C   0  0  0  0  0  0  0  0  0  0  0  0
  -13.0915   16.5523  -39.2508 C   0  0  0  0  0  0  0  0  0  0  0  0
  -10.9518   13.5375  -36.9734 C   0  0  0  0  0  0  0  0  0  0  0  0
  -11.4578   14.7846  -39.1561 C   0  0  0  0  0  0  0  0  0  0  0  0
  -12.7986   15.3113  -37.0890 C   0  0  0  0  0  0  0  0  0  0  0  0
  -11.4212   14.8428  -37.6063 C   0  0  1  0  0  0  0  0  0  0  0  0
   -9.5531   13.7615  -36.8066 N   0  0  0  0  0  0  0  0  0  0  0  0
  -12.7891   15.1715  -39.6827 N   0  0  0  0  0  0  0  0  0  0  0  0
   -8.1788   15.6339  -36.6742 O   0  0  0  0  0  0  0  0  0  0  0  0
  -10.4024   15.7920  -37.2061 O   0  0  0  0  0  0  0  0  0  0  0  0
  -14.8629   14.6619  -37.2697 H   0  0  0  0  0  0  0  0  0  0  0  0
  -13.7121   13.3319  -37.1596 H   0  0  0  0  0  0  0  0  0  0  0  0
  -12.3942   17.4354  -37.3925 H   0  0  0  0  0  0  0  0  0  0  0  0
  -14.1067   17.0218  -37.3924 H   0  0  0  0  0  0  0  0  0  0  0  0
  -13.5992   13.2286  -39.4433 H   0  0  0  0  0  0  0  0  0  0  0  0
  -14.7927   14.4992  -39.5464 H   0  0  0  0  0  0  0  0  0  0  0  0
  -14.0561   16.8670  -39.6681 H   0  0  0  0  0  0  0  0  0  0  0  0
  -12.3504   17.2431  -39.6719 H   0  0  0  0  0  0  0  0  0  0  0  0
  -11.3710   13.3833  -35.9735 H   0  0  0  0  0  0  0  0  0  0  0  0
  -11.1295   12.6435  -37.5764 H   0  0  0  0  0  0  0  0  0  0  0  0
  -10.6955   15.4418  -39.5941 H   0  0  0  0  0  0  0  0  0  0  0  0
  -11.2238   13.7779  -39.5237 H   0  0  0  0  0  0  0  0  0  0  0  0
  -12.8112   15.3990  -35.9970 H   0  0  0  0  0  0  0  0  0  0  0  0
   -8.8661   13.0297  -36.6551 H   0  0  0  0  0  0  0  0  0  0  0  0
  1 10  1  0  0  0  0
  1 12  2  0  0  0  0
  1 13  1  0  0  0  0
  2  4  1  0  0  0  0
  2  8  1  0  0  0  0
  3  5  1  0  0  0  0
  3  8  1  0  0  0  0
  4 11  1  0  0  0  0
  5 11  1  0  0  0  0
  6  9  1  0  0  0  0
  6 10  1  0  0  0  0
  7  9  1  0  0  0  0
  7 11  1  0  0  0  0
  8  9  1  0  0  0  0
  9 13  1  0  0  0  0
  2 14  1  0  0  0  0
  2 15  1  0  0  0  0
  3 16  1  0  0  0  0
  3 17  1  0  0  0  0
  4 18  1  0  0  0  0
  4 19  1  0  0  0  0
  5 20  1  0  0  0  0
  5 21  1  0  0  0  0
  6 22  1  0  0  0  0
  6 23  1  0  0  0  0
  7 24  1  0  0  0  0
  7 25  1  0  0  0  0
  8 26  1  0  0  0  0
 10 27  1  0  0  0  0
M  END
> <id>
EN300-189988

> <smiles>
O=C1NCC2(CN3CCC2CC3)O1

> <MDLNUMBER>
MFCD21266569

> <IUPAC Name>
4-azaspiro[bicyclo[2.2.2]octane-2,2'-[1,4]oxazolidine]-5'-one

> <CAS>
178419-45-9

> <Purity>
95

> <URL>
https://www.enaminestore.com/catalog/EN300-189988

> <ROCS_ShapeQuery>
x1247relevant_x1083L0AP1_x1305L0BP1_

> <ROCS_TanimotoCombo>
0.803 

> <ROCS_ShapeTanimoto>
0.489 

> <ROCS_ColorTanimoto>
0.313 

> <ROCS_RefTversky>
0.409 

> <ROCS_RefColorTversky>
0.358 

> <ROCS_RefTverskyCombo>
0.768 

> <ROCS_FitTversky>
1.662 

> <ROCS_FitColorTversky>
0.714 

> <ROCS_FitTverskyCombo>
2.376 

> <ROCS_ColorScore>
-7.620

> <ROCS_Overlap>
1203.939

> <ROCS_Rank>
309                 

$$$$
untitled-dbase-28625_0
  -OEChem-06162310163D

 27 29  0     1  0  0  0  0  0999 V2000
   -9.2614   15.1042  -36.8790 C   0  0  0  0  0  0  0  0  0  0  0  0
  -13.8683   14.3278  -37.5892 C   0  0  0  0  0  0  0  0  0  0  0  0
  -13.1174   16.6800  -37.7202 C   0  0  0  0  0  0  0  0  0  0  0  0
  -13.8094   14.2571  -39.1240 C   0  0  0  0  0  0  0  0  0  0  0  0
  -13.0915   16.5523  -39.2508 C   0  0  0  0  0  0  0  0  0  0  0  0
  -10.9518   13.5375  -36.9734 C   0  0  0  0  0  0  0  0  0  0  0  0
  -11.4578   14.7846  -39.1561 C   0  0  0  0  0  0  0  0  0  0  0  0
  -12.7986   15.3113  -37.0890 C   0  0  0  0  0  0  0  0  0  0  0  0
  -11.4212   14.8428  -37.6063 C   0  0  1  0  0  0  0  0  0  0  0  0
   -9.5531   13.7615  -36.8066 N   0  0  0  0  0  0  0  0  0  0  0  0
  -12.7891   15.1715  -39.6827 N   0  0  0  0  0  0  0  0  0  0  0  0
   -8.1788   15.6339  -36.6742 O   0  0  0  0  0  0  0  0  0  0  0  0
  -10.4024   15.7920  -37.2061 O   0  0  0  0  0  0  0  0  0  0  0  0
  -14.8629   14.6619  -37.2697 H   0  0  0  0  0  0  0  0  0  0  0  0
  -13.7121   13.3319  -37.1596 H   0  0  0  0  0  0  0  0  0  0  0  0
  -12.3942   17.4354  -37.3925 H   0  0  0  0  0  0  0  0  0  0  0  0
  -14.1067   17.0218  -37.3924 H   0  0  0  0  0  0  0  0  0  0  0  0
  -13.5992   13.2286  -39.4433 H   0  0  0  0  0  0  0  0  0  0  0  0
  -14.7927   14.4992  -39.5464 H   0  0  0  0  0  0  0  0  0  0  0  0
  -14.0561   16.8670  -39.6681 H   0  0  0  0  0  0  0  0  0  0  0  0
  -12.3504   17.2431  -39.6719 H   0  0  0  0  0  0  0  0  0  0  0  0
  -11.3710   13.3833  -35.9735 H   0  0  0  0  0  0  0  0  0  0  0  0
  -11.1295   12.6435  -37.5764 H   0  0  0  0  0  0  0  0  0  0  0  0
  -10.6955   15.4418  -39.5941 H   0  0  0  0  0  0  0  0  0  0  0  0
  -11.2238   13.7779  -39.5237 H   0  0  0  0  0  0  0  0  0  0  0  0
  -12.8112   15.3990  -35.9970 H   0  0  0  0  0  0  0  0  0  0  0  0
   -8.8661   13.0297  -36.6551 H   0  0  0  0  0  0  0  0  0  0  0  0
  1 10  1  0  0  0  0
  1 12  2  0  0  0  0
  1 13  1  0  0  0  0
  2  4  1  0  0  0  0
  2  8  1  0  0  0  0
  3  5  1  0  0  0  0
  3  8  1  0  0  0  0
  4 11  1  0  0  0  0
  5 11  1  0  0  0  0
  6  9  1  0  0  0  0
  6 10  1  0  0  0  0
  7  9  1  0  0  0  0
  7 11  1  0  0  0  0
  8  9  1  0  0  0  0
  9 13  1  0  0  0  0
  2 14  1  0  0  0  0
  2 15  1  0  0  0  0
  3 16  1  0  0  0  0
  3 17  1  0  0  0  0
  4 18  1  0  0  0  0
  4 19  1  0  0  0  0
  5 20  1  0  0  0  0
  5 21  1  0  0  0  0
  6 22  1  0  0  0  0
  6 23  1  0  0  0  0
  7 24  1  0  0  0  0
  7 25  1  0  0  0  0
  8 26  1  0  0  0  0
 10 27  1  0  0  0  0
M  END
> <id>
EN300-190274

> <smiles>
Cl.O=C1NCC2(CN3CCC2CC3)O1

> <MDLNUMBER>
MFCD24387947

> <IUPAC Name>
4-azaspiro[bicyclo[2.2.2]octane-2,2'-[1,4]oxazolidine]-5'-one hydrochloride

> <CAS>
178419-40-4

> <URL>
https://www.enaminestore.com/catalog/EN300-190274

> <Saltdate>
Cl

> <ROCS_ShapeQuery>
x1247relevant_x1083L0AP1_x1305L0BP1_

> <ROCS_TanimotoCombo>
0.803 

> <ROCS_ShapeTanimoto>
0.489 

> <ROCS_ColorTanimoto>
0.313 

> <ROCS_RefTversky>
0.409 

> <ROCS_RefColorTversky>
0.358 

> <ROCS_RefTverskyCombo>
0.768 

> <ROCS_FitTversky>
1.662 

> <ROCS_FitColorTversky>
0.714 

> <ROCS_FitTverskyCombo>
2.376 

> <ROCS_ColorScore>
-7.620

> <ROCS_Overlap>
1203.939

> <ROCS_Rank>
310                 

$$$$
untitled-dbase-49096_55
  -OEChem-06162310163D

 26 27  0     1  0  0  0  0  0999 V2000
  -12.3723   16.1434  -39.8221 C   0  0  0  0  0  0  0  0  0  0  0  0
  -10.7365   13.6113  -37.5221 C   0  0  0  0  0  0  0  0  0  0  0  0
  -12.7207   14.6634  -39.9392 C   0  0  0  0  0  0  0  0  0  0  0  0
  -11.6345   16.6075  -38.5707 C   0  0  0  0  0  0  0  0  0  0  0  0
  -14.1327   14.6909  -37.8297 C   0  0  0  0  0  0  0  0  0  0  0  0
  -13.4937   15.8340  -37.0242 C   0  0  0  0  0  0  0  0  0  0  0  0
  -12.9624   14.0200  -38.5671 C   0  0  2  0  0  0  0  0  0  0  0  0
  -11.9922   15.7570  -37.3445 C   0  0  1  0  0  0  0  0  0  0  0  0
  -10.5763   12.4484  -38.0895 N   0  0  0  0  0  0  0  0  0  0  0  0
  -11.8321   14.3646  -37.7235 N   0  0  0  0  0  0  0  0  0  0  0  0
   -9.8288   14.2010  -36.6774 N   0  0  0  0  0  0  0  0  0  0  0  0
  -12.5871   16.9196  -40.7542 O   0  0  0  0  0  0  0  0  0  0  0  0
   -9.1366   15.2829  -37.1755 O   0  0  0  0  0  0  0  0  0  0  0  0
  -13.6165   14.5662  -40.5620 H   0  0  0  0  0  0  0  0  0  0  0  0
  -11.8882   14.1658  -40.4494 H   0  0  0  0  0  0  0  0  0  0  0  0
  -10.5599   16.5443  -38.7757 H   0  0  0  0  0  0  0  0  0  0  0  0
  -11.8912   17.6565  -38.3865 H   0  0  0  0  0  0  0  0  0  0  0  0
  -14.6016   13.9806  -37.1385 H   0  0  0  0  0  0  0  0  0  0  0  0
  -14.9091   15.0574  -38.5089 H   0  0  0  0  0  0  0  0  0  0  0  0
  -13.9331   16.8040  -37.2788 H   0  0  0  0  0  0  0  0  0  0  0  0
  -13.6629   15.6614  -35.9547 H   0  0  0  0  0  0  0  0  0  0  0  0
  -13.1184   12.9401  -38.6603 H   0  0  0  0  0  0  0  0  0  0  0  0
  -11.3862   16.0411  -36.4777 H   0  0  0  0  0  0  0  0  0  0  0  0
   -9.6743   12.0604  -37.7921 H   0  0  0  0  0  0  0  0  0  0  0  0
   -9.5142   13.7985  -35.8019 H   0  0  0  0  0  0  0  0  0  0  0  0
   -9.5011   15.3556  -38.0739 H   0  0  0  0  0  0  0  0  0  0  0  0
  1  3  1  0  0  0  0
  1  4  1  0  0  0  0
  1 12  2  0  0  0  0
  2  9  2  0  0  0  0
  2 10  1  0  0  0  0
  2 11  1  0  0  0  0
  3  7  1  0  0  0  0
  4  8  1  0  0  0  0
  5  6  1  0  0  0  0
  5  7  1  0  0  0  0
  6  8  1  0  0  0  0
  7 10  1  0  0  0  0
  8 10  1  0  0  0  0
 11 13  1  0  0  0  0
  3 14  1  0  0  0  0
  3 15  1  0  0  0  0
  4 16  1  0  0  0  0
  4 17  1  0  0  0  0
  5 18  1  0  0  0  0
  5 19  1  0  0  0  0
  6 20  1  0  0  0  0
  6 21  1  0  0  0  0
  7 22  1  0  0  0  0
  8 23  1  0  0  0  0
  9 24  1  0  0  0  0
 11 25  1  0  0  0  0
 13 26  1  0  0  0  0
M  END
> <id>
EN300-1268827

> <smiles>
ONC(=N)N1C2CCC1CC(=O)C2

> <IUPAC Name>
N-hydroxy-3-oxo-8-azabicyclo[3.2.1]octane-8-carboximidamide

> <CAS>
2167827-28-1

> <URL>
https://www.enaminestore.com/catalog/EN300-1268827

> <ROCS_ShapeQuery>
x1247relevant_x1083L0AP1_x1305L0BP1_

> <ROCS_TanimotoCombo>
0.802 

> <ROCS_ShapeTanimoto>
0.464 

> <ROCS_ColorTanimoto>
0.338 

> <ROCS_RefTversky>
0.393 

> <ROCS_RefColorTversky>
0.377 

> <ROCS_RefTverskyCombo>
0.770 

> <ROCS_FitTversky>
1.641 

> <ROCS_FitColorTversky>
0.766 

> <ROCS_FitTverskyCombo>
2.408 

> <ROCS_ColorScore>
-8.014

> <ROCS_Overlap>
1155.247

> <ROCS_Rank>
311                 

$$$$
untitled-dbase-14431_2
  -OEChem-06162310163D

 33 36  0     1  0  0  0  0  0999 V2000
   -9.2495   16.6474  -34.9091 C   0  0  0  0  0  0  0  0  0  0  0  0
  -10.4214   17.3631  -35.0292 C   0  0  0  0  0  0  0  0  0  0  0  0
   -9.3760   15.5523  -35.7905 C   0  0  0  0  0  0  0  0  0  0  0  0
  -10.6132   15.6766  -36.3849 C   0  0  0  0  0  0  0  0  0  0  0  0
   -8.4791   14.4162  -36.1063 C   0  0  0  0  0  0  0  0  0  0  0  0
  -13.2916   15.0210  -40.0736 C   0  0  0  0  0  0  0  0  0  0  0  0
  -14.2111   14.4371  -38.9955 C   0  0  0  0  0  0  0  0  0  0  0  0
  -11.1152   15.4251  -38.8381 C   0  0  0  0  0  0  0  0  0  0  0  0
  -12.6668   14.3490  -36.9907 C   0  0  0  0  0  0  0  0  0  0  0  0
   -8.9553   13.7067  -37.3909 C   0  0  0  0  0  0  0  0  0  0  0  0
  -12.3742   16.0727  -39.4394 C   0  0  2  0  0  0  0  0  0  0  0  0
  -13.8616   15.0678  -37.6436 C   0  0  1  0  0  0  0  0  0  0  0  0
  -11.2262   14.7651  -37.4249 C   0  0  0  0  0  0  0  0  0  0  0  0
  -10.4162   13.5011  -37.4070 N   0  0  0  0  0  0  0  0  0  0  0  0
  -11.2599   16.7770  -35.9279 O   0  0  0  0  0  0  0  0  0  0  0  0
  -13.4397   16.7424  -38.1537 S   0  0  0  0  0  0  0  0  0  0  0  0
   -8.4143   16.8926  -34.2692 H   0  0  0  0  0  0  0  0  0  0  0  0
  -10.7926   18.2672  -34.5690 H   0  0  0  0  0  0  0  0  0  0  0  0
   -7.4454   14.7616  -36.2344 H   0  0  0  0  0  0  0  0  0  0  0  0
   -8.4891   13.7077  -35.2668 H   0  0  0  0  0  0  0  0  0  0  0  0
  -12.7448   14.2735  -40.6558 H   0  0  0  0  0  0  0  0  0  0  0  0
  -13.9266   15.5218  -40.8203 H   0  0  0  0  0  0  0  0  0  0  0  0
  -15.2511   14.6849  -39.2506 H   0  0  0  0  0  0  0  0  0  0  0  0
  -14.1810   13.3439  -38.9572 H   0  0  0  0  0  0  0  0  0  0  0  0
  -10.7377   14.6853  -39.5659 H   0  0  0  0  0  0  0  0  0  0  0  0
  -10.3162   16.1912  -38.8201 H   0  0  0  0  0  0  0  0  0  0  0  0
  -12.7743   14.4498  -35.8934 H   0  0  0  0  0  0  0  0  0  0  0  0
  -12.7884   13.2619  -37.1614 H   0  0  0  0  0  0  0  0  0  0  0  0
   -8.6398   14.2706  -38.2736 H   0  0  0  0  0  0  0  0  0  0  0  0
   -8.4639   12.7310  -37.4498 H   0  0  0  0  0  0  0  0  0  0  0  0
  -12.0935   16.8341  -40.1783 H   0  0  0  0  0  0  0  0  0  0  0  0
  -14.7315   15.0443  -36.9761 H   0  0  0  0  0  0  0  0  0  0  0  0
  -10.6466   12.8844  -38.1716 H   0  0  0  0  0  0  0  0  0  0  0  0
  1  2  2  0  0  0  0
  1  3  1  0  0  0  0
  2 15  1  0  0  0  0
  3  4  2  0  0  0  0
  3  5  1  0  0  0  0
  4 13  1  0  0  0  0
  4 15  1  0  0  0  0
  5 10  1  0  0  0  0
  6  7  1  0  0  0  0
  6 11  1  0  0  0  0
  7 12  1  0  0  0  0
  8 11  1  0  0  0  0
  8 13  1  0  0  0  0
  9 12  1  0  0  0  0
  9 13  1  0  0  0  0
 10 14  1  0  0  0  0
 11 16  1  0  0  0  0
 12 16  1  0  0  0  0
 13 14  1  0  0  0  0
  1 17  1  0  0  0  0
  2 18  1  0  0  0  0
  5 19  1  0  0  0  0
  5 20  1  0  0  0  0
  6 21  1  0  0  0  0
  6 22  1  0  0  0  0
  7 23  1  0  0  0  0
  7 24  1  0  0  0  0
  8 25  1  0  0  0  0
  8 26  1  0  0  0  0
  9 27  1  0  0  0  0
  9 28  1  0  0  0  0
 10 29  1  0  0  0  0
 10 30  1  0  0  0  0
 11 31  1  0  0  0  0
 12 32  1  0  0  0  0
 14 33  1  0  0  0  0
M  END
> <id>
EN300-1076528

> <smiles>
C1CC2CC3(CC1S2)NCCC=4C=COC43

> <IUPAC Name>
5',6'-dihydro-4'H-8-thiaspiro[bicyclo[3.2.1]octane-3,7'-furo[2,3-c]pyridine]

> <URL>
https://www.enaminestore.com/catalog/EN300-1076528

> <ROCS_ShapeQuery>
x1247relevant_x1083L0AP1_x1305L0BP1_

> <ROCS_TanimotoCombo>
0.802 

> <ROCS_ShapeTanimoto>
0.463 

> <ROCS_ColorTanimoto>
0.340 

> <ROCS_RefTversky>
0.406 

> <ROCS_RefColorTversky>
0.387 

> <ROCS_RefTverskyCombo>
0.794 

> <ROCS_FitTversky>
1.430 

> <ROCS_FitColorTversky>
0.734 

> <ROCS_FitTverskyCombo>
2.164 

> <ROCS_ColorScore>
-8.250

> <ROCS_Overlap>
1196.854

> <ROCS_Rank>
312                 

$$$$
untitled-dbase-40037_3
  -OEChem-06162310163D

 33 36  0     1  0  0  0  0  0999 V2000
  -11.1371   16.7325  -35.5164 C   0  0  0  0  0  0  0  0  0  0  0  0
  -10.1289   17.0979  -34.6488 C   0  0  0  0  0  0  0  0  0  0  0  0
  -10.6455   15.6332  -36.2686 C   0  0  0  0  0  0  0  0  0  0  0  0
   -9.3733   15.4215  -35.7797 C   0  0  0  0  0  0  0  0  0  0  0  0
   -8.4319   14.3608  -36.1787 C   0  0  0  0  0  0  0  0  0  0  0  0
  -13.2131   15.0388  -40.0923 C   0  0  0  0  0  0  0  0  0  0  0  0
  -14.1561   14.4011  -39.0672 C   0  0  0  0  0  0  0  0  0  0  0  0
  -11.1069   15.5088  -38.7629 C   0  0  0  0  0  0  0  0  0  0  0  0
  -12.6905   14.3193  -37.0046 C   0  0  0  0  0  0  0  0  0  0  0  0
   -8.9658   13.7055  -37.4632 C   0  0  0  0  0  0  0  0  0  0  0  0
  -12.3670   16.1131  -39.4004 C   0  0  2  0  0  0  0  0  0  0  0  0
  -13.8822   15.0106  -37.6891 C   0  0  1  0  0  0  0  0  0  0  0  0
  -11.2427   14.7778  -37.3834 C   0  0  0  0  0  0  0  0  0  0  0  0
  -10.4282   13.5129  -37.4216 N   0  0  0  0  0  0  0  0  0  0  0  0
   -9.0427   16.2942  -34.8033 O   0  0  0  0  0  0  0  0  0  0  0  0
  -13.4993   16.7100  -38.1397 S   0  0  0  0  0  0  0  0  0  0  0  0
  -12.1087   17.2029  -35.5920 H   0  0  0  0  0  0  0  0  0  0  0  0
  -10.0370   17.8662  -33.8951 H   0  0  0  0  0  0  0  0  0  0  0  0
   -7.4438   14.8032  -36.3638 H   0  0  0  0  0  0  0  0  0  0  0  0
   -8.3213   13.6091  -35.3875 H   0  0  0  0  0  0  0  0  0  0  0  0
  -12.5896   14.2938  -40.5985 H   0  0  0  0  0  0  0  0  0  0  0  0
  -13.8146   15.5039  -40.8862 H   0  0  0  0  0  0  0  0  0  0  0  0
  -15.1936   14.6129  -39.3605 H   0  0  0  0  0  0  0  0  0  0  0  0
  -14.0725   13.3095  -39.0530 H   0  0  0  0  0  0  0  0  0  0  0  0
  -10.6479   14.8181  -39.4970 H   0  0  0  0  0  0  0  0  0  0  0  0
  -10.3562   16.3186  -38.6797 H   0  0  0  0  0  0  0  0  0  0  0  0
  -12.8259   14.4195  -35.9099 H   0  0  0  0  0  0  0  0  0  0  0  0
  -12.7936   13.2320  -37.1694 H   0  0  0  0  0  0  0  0  0  0  0  0
   -8.7191   14.3416  -38.3190 H   0  0  0  0  0  0  0  0  0  0  0  0
   -8.4623   12.7504  -37.6401 H   0  0  0  0  0  0  0  0  0  0  0  0
  -12.0886   16.9003  -40.1135 H   0  0  0  0  0  0  0  0  0  0  0  0
  -14.7762   14.9430  -37.0568 H   0  0  0  0  0  0  0  0  0  0  0  0
  -10.6973   12.9691  -38.2402 H   0  0  0  0  0  0  0  0  0  0  0  0
  1  2  2  0  0  0  0
  1  3  1  0  0  0  0
  2 15  1  0  0  0  0
  3  4  2  0  0  0  0
  3 13  1  0  0  0  0
  4  5  1  0  0  0  0
  4 15  1  0  0  0  0
  5 10  1  0  0  0  0
  6  7  1  0  0  0  0
  6 11  1  0  0  0  0
  7 12  1  0  0  0  0
  8 11  1  0  0  0  0
  8 13  1  0  0  0  0
  9 12  1  0  0  0  0
  9 13  1  0  0  0  0
 10 14  1  0  0  0  0
 11 16  1  0  0  0  0
 12 16  1  0  0  0  0
 13 14  1  0  0  0  0
  1 17  1  0  0  0  0
  2 18  1  0  0  0  0
  5 19  1  0  0  0  0
  5 20  1  0  0  0  0
  6 21  1  0  0  0  0
  6 22  1  0  0  0  0
  7 23  1  0  0  0  0
  7 24  1  0  0  0  0
  8 25  1  0  0  0  0
  8 26  1  0  0  0  0
  9 27  1  0  0  0  0
  9 28  1  0  0  0  0
 10 29  1  0  0  0  0
 10 30  1  0  0  0  0
 11 31  1  0  0  0  0
 12 32  1  0  0  0  0
 14 33  1  0  0  0  0
M  END
> <id>
EN300-1076180

> <smiles>
C1CC2CC3(CC1S2)NCCC=4OC=CC43

> <IUPAC Name>
6',7'-dihydro-5'H-8-thiaspiro[bicyclo[3.2.1]octane-3,4'-furo[3,2-c]pyridine]

> <URL>
https://www.enaminestore.com/catalog/EN300-1076180

> <ROCS_ShapeQuery>
x1247relevant_x1083L0AP1_x1305L0BP1_

> <ROCS_TanimotoCombo>
0.802 

> <ROCS_ShapeTanimoto>
0.461 

> <ROCS_ColorTanimoto>
0.341 

> <ROCS_RefTversky>
0.405 

> <ROCS_RefColorTversky>
0.389 

> <ROCS_RefTverskyCombo>
0.794 

> <ROCS_FitTversky>
1.428 

> <ROCS_FitColorTversky>
0.736 

> <ROCS_FitTverskyCombo>
2.164 

> <ROCS_ColorScore>
-8.272

> <ROCS_Overlap>
1194.219

> <ROCS_Rank>
313                 

$$$$
untitled-dbase-17104_0
  -OEChem-06162310163D

 36 39  0     1  0  0  0  0  0999 V2000
  -13.0442   16.9949  -38.2290 C   0  0  0  0  0  0  0  0  0  0  0  0
  -14.0112   16.0615  -37.4981 C   0  0  0  0  0  0  0  0  0  0  0  0
  -11.1346   15.3734  -38.8461 C   0  0  0  0  0  0  0  0  0  0  0  0
  -12.7243   13.8253  -37.6217 C   0  0  0  0  0  0  0  0  0  0  0  0
   -9.0003   13.9468  -37.1237 C   0  0  0  0  0  0  0  0  0  0  0  0
   -9.1732   13.9757  -34.5302 C   0  0  0  0  0  0  0  0  0  0  0  0
   -7.7211   15.2344  -35.2799 C   0  0  0  0  0  0  0  0  0  0  0  0
  -10.1041   15.8918  -35.9869 C   0  0  0  0  0  0  0  0  0  0  0  0
  -12.4054   16.1175  -39.3035 C   0  0  1  0  0  0  0  0  0  0  0  0
  -13.8451   14.7146  -38.1986 C   0  0  2  0  0  0  0  0  0  0  0  0
   -9.0772   14.7750  -35.8480 C   0  0  0  0  0  0  0  0  0  0  0  0
  -11.3334   14.5175  -37.5622 C   0  0  0  0  0  0  0  0  0  0  0  0
  -10.3305   13.4395  -37.4534 N   0  0  0  0  0  0  0  0  0  0  0  0
  -13.4463   15.1086  -39.5595 N   0  0  0  0  0  0  0  0  0  0  0  0
   -8.0380   14.6859  -33.9770 O   0  0  0  0  0  0  0  0  0  0  0  0
  -11.3632   15.3391  -36.3755 O   0  0  0  0  0  0  0  0  0  0  0  0
  -13.6143   17.8096  -38.6928 H   0  0  0  0  0  0  0  0  0  0  0  0
  -12.3128   17.4536  -37.5572 H   0  0  0  0  0  0  0  0  0  0  0  0
  -13.8158   16.0126  -36.4229 H   0  0  0  0  0  0  0  0  0  0  0  0
  -15.0352   16.4341  -37.6259 H   0  0  0  0  0  0  0  0  0  0  0  0
  -10.8165   14.7288  -39.6774 H   0  0  0  0  0  0  0  0  0  0  0  0
  -10.3359   16.1084  -38.6842 H   0  0  0  0  0  0  0  0  0  0  0  0
  -13.0386   13.4731  -36.6331 H   0  0  0  0  0  0  0  0  0  0  0  0
  -12.6534   12.9306  -38.2585 H   0  0  0  0  0  0  0  0  0  0  0  0
   -8.6328   14.5474  -37.9639 H   0  0  0  0  0  0  0  0  0  0  0  0
   -8.2932   13.1169  -37.0088 H   0  0  0  0  0  0  0  0  0  0  0  0
  -10.0770   14.1348  -33.9373 H   0  0  0  0  0  0  0  0  0  0  0  0
   -8.9667   12.9040  -34.6007 H   0  0  0  0  0  0  0  0  0  0  0  0
   -6.8291   14.7536  -35.6968 H   0  0  0  0  0  0  0  0  0  0  0  0
   -7.5566   16.3158  -35.2327 H   0  0  0  0  0  0  0  0  0  0  0  0
  -10.2152   16.4569  -35.0561 H   0  0  0  0  0  0  0  0  0  0  0  0
   -9.8105   16.6120  -36.7587 H   0  0  0  0  0  0  0  0  0  0  0  0
  -12.1810   16.6887  -40.2102 H   0  0  0  0  0  0  0  0  0  0  0  0
  -14.7819   14.1486  -38.2154 H   0  0  0  0  0  0  0  0  0  0  0  0
  -10.2803   12.9404  -38.3419 H   0  0  0  0  0  0  0  0  0  0  0  0
  -14.2366   15.5565  -40.0206 H   0  0  0  0  0  0  0  0  0  0  0  0
  1  2  1  0  0  0  0
  1  9  1  0  0  0  0
  2 10  1  0  0  0  0
  3  9  1  0  0  0  0
  3 12  1  0  0  0  0
  4 10  1  0  0  0  0
  4 12  1  0  0  0  0
  5 11  1  0  0  0  0
  5 13  1  0  0  0  0
  6 11  1  0  0  0  0
  6 15  1  0  0  0  0
  7 11  1  0  0  0  0
  7 15  1  0  0  0  0
  8 11  1  0  0  0  0
  8 16  1  0  0  0  0
  9 14  1  0  0  0  0
 10 14  1  0  0  0  0
 12 13  1  0  0  0  0
 12 16  1  0  0  0  0
  1 17  1  0  0  0  0
  1 18  1  0  0  0  0
  2 19  1  0  0  0  0
  2 20  1  0  0  0  0
  3 21  1  0  0  0  0
  3 22  1  0  0  0  0
  4 23  1  0  0  0  0
  4 24  1  0  0  0  0
  5 25  1  0  0  0  0
  5 26  1  0  0  0  0
  6 27  1  0  0  0  0
  6 28  1  0  0  0  0
  7 29  1  0  0  0  0
  7 30  1  0  0  0  0
  8 31  1  0  0  0  0
  8 32  1  0  0  0  0
  9 33  1  0  0  0  0
 10 34  1  0  0  0  0
 13 35  1  0  0  0  0
 14 36  1  0  0  0  0
M  END
> <id>
EN300-1278789

> <smiles>
C1OCC12CNC3(CC4CCC(C3)N4)OC2

> <IUPAC Name>
dispiro[8-azabicyclo[3.2.1]octane-3,2'-[1,3]oxazinane-5',3''-oxetane]

> <CAS>
2166803-17-2

> <URL>
https://www.enaminestore.com/catalog/EN300-1278789

> <ROCS_ShapeQuery>
x1247relevant_x1083L0AP1_x1305L0BP1_

> <ROCS_TanimotoCombo>
0.802 

> <ROCS_ShapeTanimoto>
0.488 

> <ROCS_ColorTanimoto>
0.315 

> <ROCS_RefTversky>
0.422 

> <ROCS_RefColorTversky>
0.398 

> <ROCS_RefTverskyCombo>
0.820 

> <ROCS_FitTversky>
1.466 

> <ROCS_FitColorTversky>
0.601 

> <ROCS_FitTverskyCombo>
2.067 

> <ROCS_ColorScore>
-8.525

> <ROCS_Overlap>
1244.720

> <ROCS_Rank>
314                 

$$$$
untitled-dbase-4052_2
  -OEChem-06162310163D

 29 30  0     1  0  0  0  0  0999 V2000
  -13.6879   14.8344  -39.7738 C   0  0  0  0  0  0  0  0  0  0  0  0
  -14.3661   14.7113  -38.4156 C   0  0  0  0  0  0  0  0  0  0  0  0
  -11.2337   14.9297  -39.1366 C   0  0  0  0  0  0  0  0  0  0  0  0
  -12.3859   14.7205  -36.8288 C   0  0  0  0  0  0  0  0  0  0  0  0
  -12.4866   15.7535  -39.5206 C   0  0  2  0  0  0  0  0  0  0  0  0
  -13.5062   15.5686  -37.4787 C   0  0  1  0  0  0  0  0  0  0  0  0
  -11.0430   14.7256  -37.6083 C   0  0  0  0  0  0  0  0  0  0  0  0
  -13.7885   17.6614  -38.7140 C   0  0  0  0  0  0  0  0  0  0  0  0
  -10.1200   15.8313  -37.0458 C   0  0  0  0  0  0  0  0  0  0  0  0
  -12.8855   16.5696  -38.3620 N   0  0  0  0  0  0  0  0  0  0  0  0
  -10.3345   13.4615  -37.3582 N   0  0  0  0  0  0  0  0  0  0  0  0
  -10.6727   17.0280  -37.2675 F   0  0  0  0  0  0  0  0  0  0  0  0
   -9.9592   15.6507  -35.7312 F   0  0  0  0  0  0  0  0  0  0  0  0
   -8.9309   15.7698  -37.6533 F   0  0  0  0  0  0  0  0  0  0  0  0
  -13.4089   13.8717  -40.2105 H   0  0  0  0  0  0  0  0  0  0  0  0
  -14.3806   15.3087  -40.4806 H   0  0  0  0  0  0  0  0  0  0  0  0
  -15.3805   15.1252  -38.4795 H   0  0  0  0  0  0  0  0  0  0  0  0
  -14.4720   13.6779  -38.0744 H   0  0  0  0  0  0  0  0  0  0  0  0
  -11.2681   13.9584  -39.6468 H   0  0  0  0  0  0  0  0  0  0  0  0
  -10.3557   15.4472  -39.5481 H   0  0  0  0  0  0  0  0  0  0  0  0
  -12.2199   15.1098  -35.8145 H   0  0  0  0  0  0  0  0  0  0  0  0
  -12.7439   13.6916  -36.6936 H   0  0  0  0  0  0  0  0  0  0  0  0
  -12.2543   16.3472  -40.4126 H   0  0  0  0  0  0  0  0  0  0  0  0
  -14.1163   16.0097  -36.6816 H   0  0  0  0  0  0  0  0  0  0  0  0
  -14.0474   18.2301  -37.8087 H   0  0  0  0  0  0  0  0  0  0  0  0
  -13.2940   18.3276  -39.4364 H   0  0  0  0  0  0  0  0  0  0  0  0
  -14.7044   17.2494  -39.1625 H   0  0  0  0  0  0  0  0  0  0  0  0
  -10.8824   12.7279  -37.7345 H   0  0  0  0  0  0  0  0  0  0  0  0
   -9.4537   13.5152  -37.8070 H   0  0  0  0  0  0  0  0  0  0  0  0
  1  2  1  0  0  0  0
  1  5  1  0  0  0  0
  2  6  1  0  0  0  0
  3  5  1  0  0  0  0
  3  7  1  0  0  0  0
  4  6  1  0  0  0  0
  4  7  1  0  0  0  0
  5 10  1  0  0  0  0
  6 10  1  0  0  0  0
  7  9  1  0  0  0  0
  7 11  1  0  0  0  0
  8 10  1  0  0  0  0
  9 12  1  0  0  0  0
  9 13  1  0  0  0  0
  9 14  1  0  0  0  0
  1 15  1  0  0  0  0
  1 16  1  0  0  0  0
  2 17  1  0  0  0  0
  2 18  1  0  0  0  0
  3 19  1  0  0  0  0
  3 20  1  0  0  0  0
  4 21  1  0  0  0  0
  4 22  1  0  0  0  0
  5 23  1  0  0  0  0
  6 24  1  0  0  0  0
  8 25  1  0  0  0  0
  8 26  1  0  0  0  0
  8 27  1  0  0  0  0
 11 28  1  0  0  0  0
 11 29  1  0  0  0  0
M  END
> <id>
EN300-170587

> <smiles>
CN1C2CCC1CC(N)(C2)C(F)(F)F

> <MDLNUMBER>
MFCD19599965

> <IUPAC Name>
8-methyl-3-(trifluoromethyl)-8-azabicyclo[3.2.1]octan-3-amine

> <CAS>
1341551-33-4

> <URL>
https://www.enaminestore.com/catalog/EN300-170587

> <ROCS_ShapeQuery>
x1247relevant_x1083L0AP1_x1305L0BP1_

> <ROCS_TanimotoCombo>
0.802 

> <ROCS_ShapeTanimoto>
0.477 

> <ROCS_ColorTanimoto>
0.325 

> <ROCS_RefTversky>
0.406 

> <ROCS_RefColorTversky>
0.354 

> <ROCS_RefTverskyCombo>
0.760 

> <ROCS_FitTversky>
1.584 

> <ROCS_FitColorTversky>
0.796 

> <ROCS_FitTverskyCombo>
2.381 

> <ROCS_ColorScore>
-7.511

> <ROCS_Overlap>
1194.275

> <ROCS_Rank>
315                 

$$$$
untitled-dbase-38266_2
  -OEChem-06162310163D

 29 30  0     1  0  0  0  0  0999 V2000
  -13.6879   14.8344  -39.7738 C   0  0  0  0  0  0  0  0  0  0  0  0
  -14.3661   14.7113  -38.4156 C   0  0  0  0  0  0  0  0  0  0  0  0
  -11.2337   14.9297  -39.1366 C   0  0  0  0  0  0  0  0  0  0  0  0
  -12.3859   14.7205  -36.8288 C   0  0  0  0  0  0  0  0  0  0  0  0
  -12.4866   15.7535  -39.5206 C   0  0  2  0  0  0  0  0  0  0  0  0
  -13.5062   15.5686  -37.4787 C   0  0  1  0  0  0  0  0  0  0  0  0
  -11.0430   14.7256  -37.6083 C   0  0  0  0  0  0  0  0  0  0  0  0
  -13.7885   17.6614  -38.7140 C   0  0  0  0  0  0  0  0  0  0  0  0
  -10.1200   15.8313  -37.0458 C   0  0  0  0  0  0  0  0  0  0  0  0
  -12.8855   16.5696  -38.3620 N   0  0  0  0  0  0  0  0  0  0  0  0
  -10.3345   13.4615  -37.3582 N   0  0  0  0  0  0  0  0  0  0  0  0
  -10.6727   17.0280  -37.2675 F   0  0  0  0  0  0  0  0  0  0  0  0
   -9.9592   15.6507  -35.7312 F   0  0  0  0  0  0  0  0  0  0  0  0
   -8.9309   15.7698  -37.6533 F   0  0  0  0  0  0  0  0  0  0  0  0
  -13.4089   13.8717  -40.2105 H   0  0  0  0  0  0  0  0  0  0  0  0
  -14.3806   15.3087  -40.4806 H   0  0  0  0  0  0  0  0  0  0  0  0
  -15.3805   15.1252  -38.4795 H   0  0  0  0  0  0  0  0  0  0  0  0
  -14.4720   13.6779  -38.0744 H   0  0  0  0  0  0  0  0  0  0  0  0
  -11.2681   13.9584  -39.6468 H   0  0  0  0  0  0  0  0  0  0  0  0
  -10.3557   15.4472  -39.5481 H   0  0  0  0  0  0  0  0  0  0  0  0
  -12.2199   15.1098  -35.8145 H   0  0  0  0  0  0  0  0  0  0  0  0
  -12.7439   13.6916  -36.6936 H   0  0  0  0  0  0  0  0  0  0  0  0
  -12.2543   16.3472  -40.4126 H   0  0  0  0  0  0  0  0  0  0  0  0
  -14.1163   16.0097  -36.6816 H   0  0  0  0  0  0  0  0  0  0  0  0
  -14.0474   18.2301  -37.8087 H   0  0  0  0  0  0  0  0  0  0  0  0
  -13.2940   18.3276  -39.4364 H   0  0  0  0  0  0  0  0  0  0  0  0
  -14.7044   17.2494  -39.1625 H   0  0  0  0  0  0  0  0  0  0  0  0
  -10.8824   12.7279  -37.7345 H   0  0  0  0  0  0  0  0  0  0  0  0
   -9.4537   13.5152  -37.8070 H   0  0  0  0  0  0  0  0  0  0  0  0
  1  2  1  0  0  0  0
  1  5  1  0  0  0  0
  2  6  1  0  0  0  0
  3  5  1  0  0  0  0
  3  7  1  0  0  0  0
  4  6  1  0  0  0  0
  4  7  1  0  0  0  0
  5 10  1  0  0  0  0
  6 10  1  0  0  0  0
  7  9  1  0  0  0  0
  7 11  1  0  0  0  0
  8 10  1  0  0  0  0
  9 12  1  0  0  0  0
  9 13  1  0  0  0  0
  9 14  1  0  0  0  0
  1 15  1  0  0  0  0
  1 16  1  0  0  0  0
  2 17  1  0  0  0  0
  2 18  1  0  0  0  0
  3 19  1  0  0  0  0
  3 20  1  0  0  0  0
  4 21  1  0  0  0  0
  4 22  1  0  0  0  0
  5 23  1  0  0  0  0
  6 24  1  0  0  0  0
  8 25  1  0  0  0  0
  8 26  1  0  0  0  0
  8 27  1  0  0  0  0
 11 28  1  0  0  0  0
 11 29  1  0  0  0  0
M  END
> <id>
EN300-170586

> <smiles>
Cl.Cl.CN1C2CCC1CC(N)(C2)C(F)(F)F

> <MDLNUMBER>
MFCD27980882

> <IUPAC Name>
8-methyl-3-(trifluoromethyl)-8-azabicyclo[3.2.1]octan-3-amine dihydrochloride

> <CAS>
1803566-41-7

> <Purity>
95

> <URL>
https://www.enaminestore.com/catalog/EN300-170586

> <Saltdate>
Cl

> <ROCS_ShapeQuery>
x1247relevant_x1083L0AP1_x1305L0BP1_

> <ROCS_TanimotoCombo>
0.802 

> <ROCS_ShapeTanimoto>
0.477 

> <ROCS_ColorTanimoto>
0.325 

> <ROCS_RefTversky>
0.406 

> <ROCS_RefColorTversky>
0.354 

> <ROCS_RefTverskyCombo>
0.760 

> <ROCS_FitTversky>
1.584 

> <ROCS_FitColorTversky>
0.796 

> <ROCS_FitTverskyCombo>
2.381 

> <ROCS_ColorScore>
-7.511

> <ROCS_Overlap>
1194.275

> <ROCS_Rank>
316                 

$$$$
untitled-dbase-16047_41
  -OEChem-06162310163D

 40 43  0     1  0  0  0  0  0999 V2000
  -12.8589   17.7051  -40.7986 C   0  0  0  0  0  0  0  0  0  0  0  0
   -9.0118   14.7224  -37.5537 C   0  0  0  0  0  0  0  0  0  0  0  0
  -15.4803   15.1511  -38.2899 C   0  0  0  0  0  0  0  0  0  0  0  0
  -15.3694   14.6013  -39.6764 C   0  0  0  0  0  0  0  0  0  0  0  0
  -12.6099   16.1908  -40.7201 C   0  0  0  0  0  0  0  0  0  0  0  0
  -13.9914   17.5129  -39.7767 C   0  0  0  0  0  0  0  0  0  0  0  0
  -10.0777   15.7776  -37.8497 C   0  0  0  0  0  0  0  0  0  0  0  0
  -11.9315   15.4204  -36.1504 C   0  0  0  0  0  0  0  0  0  0  0  0
  -13.2732   13.8130  -38.3892 C   0  0  0  0  0  0  0  0  0  0  0  0
   -9.1833   13.8688  -36.3049 C   0  0  0  0  0  0  0  0  0  0  0  0
  -11.2460   14.3960  -35.2587 C   0  0  0  0  0  0  0  0  0  0  0  0
  -14.1078   14.9682  -38.9168 C   0  0  0  0  0  0  0  0  0  0  0  0
  -13.2554   16.2104  -39.2824 C   0  0  0  0  0  0  0  0  0  0  0  0
  -11.5622   15.4034  -37.6517 C   0  0  2  0  0  0  0  0  0  0  0  0
  -11.8485   14.1326  -38.3303 N   0  0  0  0  0  0  0  0  0  0  0  0
   -9.8315   14.5564  -35.2462 O   0  0  0  0  0  0  0  0  0  0  0  0
  -12.2949   16.5164  -38.2250 O   0  0  0  0  0  0  0  0  0  0  0  0
  -12.0250   18.3086  -40.4230 H   0  0  0  0  0  0  0  0  0  0  0  0
  -13.1613   18.0867  -41.7765 H   0  0  0  0  0  0  0  0  0  0  0  0
   -8.9219   14.0545  -38.4391 H   0  0  0  0  0  0  0  0  0  0  0  0
   -8.0310   15.2420  -37.4893 H   0  0  0  0  0  0  0  0  0  0  0  0
  -15.8723   16.1541  -38.1706 H   0  0  0  0  0  0  0  0  0  0  0  0
  -15.7850   14.4724  -37.5008 H   0  0  0  0  0  0  0  0  0  0  0  0
  -15.5974   13.5510  -39.8222 H   0  0  0  0  0  0  0  0  0  0  0  0
  -15.6898   15.2281  -40.4994 H   0  0  0  0  0  0  0  0  0  0  0  0
  -13.1717   15.6110  -41.4609 H   0  0  0  0  0  0  0  0  0  0  0  0
  -11.5577   15.9115  -40.7920 H   0  0  0  0  0  0  0  0  0  0  0  0
  -14.0818   18.3164  -39.0388 H   0  0  0  0  0  0  0  0  0  0  0  0
  -14.9705   17.3655  -40.2444 H   0  0  0  0  0  0  0  0  0  0  0  0
   -9.8575   16.6767  -37.2477 H   0  0  0  0  0  0  0  0  0  0  0  0
   -9.9122   16.1141  -38.8842 H   0  0  0  0  0  0  0  0  0  0  0  0
  -13.0140   15.3030  -36.0310 H   0  0  0  0  0  0  0  0  0  0  0  0
  -11.7237   16.4213  -35.7570 H   0  0  0  0  0  0  0  0  0  0  0  0
  -13.6025   13.5264  -37.3690 H   0  0  0  0  0  0  0  0  0  0  0  0
  -13.4559   12.9043  -38.9991 H   0  0  0  0  0  0  0  0  0  0  0  0
   -9.8325   13.0061  -36.5601 H   0  0  0  0  0  0  0  0  0  0  0  0
   -8.2215   13.4166  -35.9710 H   0  0  0  0  0  0  0  0  0  0  0  0
  -11.6212   14.4584  -34.2485 H   0  0  0  0  0  0  0  0  0  0  0  0
  -11.4398   13.4019  -35.6354 H   0  0  0  0  0  0  0  0  0  0  0  0
  -11.3607   13.3733  -37.8501 H   0  0  0  0  0  0  0  0  0  0  0  0
  1  5  1  0  0  0  0
  1  6  1  0  0  0  0
  2  7  1  0  0  0  0
  2 10  1  0  0  0  0
  3  4  1  0  0  0  0
  3 12  1  0  0  0  0
  4 12  1  0  0  0  0
  5 13  1  0  0  0  0
  6 13  1  0  0  0  0
  7 14  1  0  0  0  0
  8 11  1  0  0  0  0
  8 14  1  0  0  0  0
  9 12  1  0  0  0  0
  9 15  1  0  0  0  0
 10 16  1  0  0  0  0
 11 16  1  0  0  0  0
 12 13  1  0  0  0  0
 13 17  1  0  0  0  0
 14 15  1  0  0  0  0
 14 17  1  0  0  0  0
  1 18  1  0  0  0  0
  1 19  1  0  0  0  0
  2 20  1  0  0  0  0
  2 21  1  0  0  0  0
  3 22  1  0  0  0  0
  3 23  1  0  0  0  0
  4 24  1  0  0  0  0
  4 25  1  0  0  0  0
  5 26  1  0  0  0  0
  5 27  1  0  0  0  0
  6 28  1  0  0  0  0
  6 29  1  0  0  0  0
  7 30  1  0  0  0  0
  7 31  1  0  0  0  0
  8 32  1  0  0  0  0
  8 33  1  0  0  0  0
  9 34  1  0  0  0  0
  9 35  1  0  0  0  0
 10 36  1  0  0  0  0
 10 37  1  0  0  0  0
 11 38  1  0  0  0  0
 11 39  1  0  0  0  0
 15 40  1  0  0  0  0
M  END
> <id>
EN300-1280534

> <smiles>
C1CC12CNC3(CCCOCC3)OC42CCC4

> <IUPAC Name>
8,12-dioxa-16-azatrispiro[2.0.3^{4}.1.6^{9}.2^{3}]heptadecane

> <URL>
https://www.enaminestore.com/catalog/EN300-1280534

> <ROCS_ShapeQuery>
x1247relevant_x1083L0AP1_x1305L0BP1_

> <ROCS_TanimotoCombo>
0.802 

> <ROCS_ShapeTanimoto>
0.493 

> <ROCS_ColorTanimoto>
0.309 

> <ROCS_RefTversky>
0.428 

> <ROCS_RefColorTversky>
0.323 

> <ROCS_RefTverskyCombo>
0.750 

> <ROCS_FitTversky>
1.450 

> <ROCS_FitColorTversky>
0.879 

> <ROCS_FitTverskyCombo>
2.329 

> <ROCS_ColorScore>
-6.809

> <ROCS_Overlap>
1261.053

> <ROCS_Rank>
317                 

$$$$
untitled-dbase-14660_0
  -OEChem-06162310163D

 34 37  0     1  0  0  0  0  0999 V2000
   -8.6074   17.5216  -37.3491 C   0  0  0  0  0  0  0  0  0  0  0  0
   -8.9438   15.5515  -36.6532 C   0  0  0  0  0  0  0  0  0  0  0  0
   -9.9978   15.8199  -37.4997 C   0  0  0  0  0  0  0  0  0  0  0  0
   -8.7664   14.2425  -35.9890 C   0  0  0  0  0  0  0  0  0  0  0  0
  -13.5355   14.2189  -37.4431 C   0  0  0  0  0  0  0  0  0  0  0  0
  -12.9838   16.6048  -37.5679 C   0  0  0  0  0  0  0  0  0  0  0  0
  -10.0615   13.4127  -36.1114 C   0  0  0  0  0  0  0  0  0  0  0  0
  -13.7416   14.2310  -38.9667 C   0  0  0  0  0  0  0  0  0  0  0  0
  -13.1471   16.5619  -39.0933 C   0  0  0  0  0  0  0  0  0  0  0  0
  -11.4506   14.8669  -39.3604 C   0  0  0  0  0  0  0  0  0  0  0  0
  -12.4431   15.2463  -37.0726 C   0  0  0  0  0  0  0  0  0  0  0  0
  -11.1255   14.8771  -37.8329 C   0  0  2  0  0  0  0  0  0  0  0  0
   -8.0835   16.6084  -36.5583 N   0  0  0  0  0  0  0  0  0  0  0  0
   -9.7610   17.0879  -37.9502 N   0  0  0  0  0  0  0  0  0  0  0  0
  -10.6721   13.4962  -37.4556 N   0  0  0  0  0  0  0  0  0  0  0  0
  -12.8659   15.2178  -39.6359 N   0  0  0  0  0  0  0  0  0  0  0  0
   -8.2048   18.5072  -37.5343 H   0  0  0  0  0  0  0  0  0  0  0  0
   -7.9407   13.7086  -36.4739 H   0  0  0  0  0  0  0  0  0  0  0  0
   -8.5061   14.3758  -34.9338 H   0  0  0  0  0  0  0  0  0  0  0  0
  -14.4762   14.4755  -36.9402 H   0  0  0  0  0  0  0  0  0  0  0  0
  -13.2656   13.2129  -37.1031 H   0  0  0  0  0  0  0  0  0  0  0  0
  -12.3286   17.4295  -37.2720 H   0  0  0  0  0  0  0  0  0  0  0  0
  -13.9557   16.8072  -37.0998 H   0  0  0  0  0  0  0  0  0  0  0  0
   -9.8348   12.3631  -35.8925 H   0  0  0  0  0  0  0  0  0  0  0  0
  -10.7864   13.7292  -35.3525 H   0  0  0  0  0  0  0  0  0  0  0  0
  -13.5542   13.2309  -39.3774 H   0  0  0  0  0  0  0  0  0  0  0  0
  -14.7909   14.4509  -39.2001 H   0  0  0  0  0  0  0  0  0  0  0  0
  -14.1659   16.8640  -39.3661 H   0  0  0  0  0  0  0  0  0  0  0  0
  -12.4881   17.2995  -39.5673 H   0  0  0  0  0  0  0  0  0  0  0  0
  -10.7995   15.5478  -39.9236 H   0  0  0  0  0  0  0  0  0  0  0  0
  -11.2574   13.8817  -39.8074 H   0  0  0  0  0  0  0  0  0  0  0  0
  -12.3037   15.2827  -35.9868 H   0  0  0  0  0  0  0  0  0  0  0  0
  -10.3266   17.6155  -38.6013 H   0  0  0  0  0  0  0  0  0  0  0  0
   -9.9826   13.1765  -38.1374 H   0  0  0  0  0  0  0  0  0  0  0  0
  1 13  2  0  0  0  0
  1 14  1  0  0  0  0
  2  3  2  0  0  0  0
  2  4  1  0  0  0  0
  2 13  1  0  0  0  0
  3 12  1  0  0  0  0
  3 14  1  0  0  0  0
  4  7  1  0  0  0  0
  5  8  1  0  0  0  0
  5 11  1  0  0  0  0
  6  9  1  0  0  0  0
  6 11  1  0  0  0  0
  7 15  1  0  0  0  0
  8 16  1  0  0  0  0
  9 16  1  0  0  0  0
 10 12  1  0  0  0  0
 10 16  1  0  0  0  0
 11 12  1  0  0  0  0
 12 15  1  0  0  0  0
  1 17  1  0  0  0  0
  4 18  1  0  0  0  0
  4 19  1  0  0  0  0
  5 20  1  0  0  0  0
  5 21  1  0  0  0  0
  6 22  1  0  0  0  0
  6 23  1  0  0  0  0
  7 24  1  0  0  0  0
  7 25  1  0  0  0  0
  8 26  1  0  0  0  0
  8 27  1  0  0  0  0
  9 28  1  0  0  0  0
  9 29  1  0  0  0  0
 10 30  1  0  0  0  0
 10 31  1  0  0  0  0
 11 32  1  0  0  0  0
 14 33  1  0  0  0  0
 15 34  1  0  0  0  0
M  END
> <id>
EN300-1075939

> <smiles>
C1CC=2N=CNC2C3(CN4CCC3CC4)N1

> <IUPAC Name>
3',5',6',7'-tetrahydro-4-azaspiro[bicyclo[2.2.2]octane-2,4'-imidazo[4,5-c]pyridine]

> <CAS>
2008422-70-4

> <URL>
https://www.enaminestore.com/catalog/EN300-1075939

> <ROCS_ShapeQuery>
x1247relevant_x1083L0AP1_x1305L0BP1_

> <ROCS_TanimotoCombo>
0.802 

> <ROCS_ShapeTanimoto>
0.473 

> <ROCS_ColorTanimoto>
0.328 

> <ROCS_RefTversky>
0.415 

> <ROCS_RefColorTversky>
0.414 

> <ROCS_RefTverskyCombo>
0.829 

> <ROCS_FitTversky>
1.417 

> <ROCS_FitColorTversky>
0.614 

> <ROCS_FitTverskyCombo>
2.031 

> <ROCS_ColorScore>
-8.882

> <ROCS_Overlap>
1224.543

> <ROCS_Rank>
318                 

$$$$
untitled-dbase-46852_0
  -OEChem-06162310163D

 22 23  0     0  0  0  0  0  0999 V2000
  -11.2219   16.0305  -38.0116 C   0  0  0  0  0  0  0  0  0  0  0  0
  -12.9135   14.5361  -36.9043 C   0  0  0  0  0  0  0  0  0  0  0  0
  -12.3547   16.7548  -38.7540 C   0  0  0  0  0  0  0  0  0  0  0  0
  -14.0403   15.2631  -37.6529 C   0  0  0  0  0  0  0  0  0  0  0  0
  -12.4784   14.4202  -39.2493 C   0  0  0  0  0  0  0  0  0  0  0  0
  -11.7451   14.5793  -37.9148 C   0  0  0  0  0  0  0  0  0  0  0  0
  -13.3765   15.6309  -38.9884 C   0  0  0  0  0  0  0  0  0  0  0  0
  -10.7078   13.6146  -37.6326 N   0  0  0  0  0  0  0  0  0  0  0  0
  -14.2869   15.9237  -40.0110 O   0  0  0  0  0  0  0  0  0  0  0  0
  -10.2990   16.0910  -38.6010 H   0  0  0  0  0  0  0  0  0  0  0  0
  -11.0256   16.4742  -37.0297 H   0  0  0  0  0  0  0  0  0  0  0  0
  -12.6685   15.0257  -35.9558 H   0  0  0  0  0  0  0  0  0  0  0  0
  -13.2214   13.5067  -36.6847 H   0  0  0  0  0  0  0  0  0  0  0  0
  -12.7711   17.5823  -38.1700 H   0  0  0  0  0  0  0  0  0  0  0  0
  -11.9977   17.1739  -39.7021 H   0  0  0  0  0  0  0  0  0  0  0  0
  -14.9018   14.6016  -37.8013 H   0  0  0  0  0  0  0  0  0  0  0  0
  -14.3989   16.1435  -37.1088 H   0  0  0  0  0  0  0  0  0  0  0  0
  -11.8407   14.5404  -40.1327 H   0  0  0  0  0  0  0  0  0  0  0  0
  -13.0379   13.4829  -39.3484 H   0  0  0  0  0  0  0  0  0  0  0  0
  -10.0272   13.6441  -38.3614 H   0  0  0  0  0  0  0  0  0  0  0  0
  -10.2801   13.8415  -36.7603 H   0  0  0  0  0  0  0  0  0  0  0  0
  -14.7704   16.7352  -39.7607 H   0  0  0  0  0  0  0  0  0  0  0  0
  1  3  1  0  0  0  0
  1  6  1  0  0  0  0
  2  4  1  0  0  0  0
  2  6  1  0  0  0  0
  3  7  1  0  0  0  0
  4  7  1  0  0  0  0
  5  6  1  0  0  0  0
  5  7  1  0  0  0  0
  6  8  1  0  0  0  0
  7  9  1  0  0  0  0
  1 10  1  0  0  0  0
  1 11  1  0  0  0  0
  2 12  1  0  0  0  0
  2 13  1  0  0  0  0
  3 14  1  0  0  0  0
  3 15  1  0  0  0  0
  4 16  1  0  0  0  0
  4 17  1  0  0  0  0
  5 18  1  0  0  0  0
  5 19  1  0  0  0  0
  8 20  1  0  0  0  0
  8 21  1  0  0  0  0
  9 22  1  0  0  0  0
M  END
> <id>
EN300-22822781

> <smiles>
Cl.NC1(CCC2(O)CC1)C2

> <MDLNUMBER>
MFCD31555672

> <IUPAC Name>
4-aminobicyclo[2.2.1]heptan-1-ol hydrochloride

> <CAS>
1403865-39-3

> <Purity>
95

> <URL>
https://www.enaminestore.com/catalog/EN300-22822781

> <Saltdate>
Cl

> <ROCS_ShapeQuery>
x1247relevant_x1083L0AP1_x1305L0BP1_

> <ROCS_TanimotoCombo>
0.801 

> <ROCS_ShapeTanimoto>
0.372 

> <ROCS_ColorTanimoto>
0.429 

> <ROCS_RefTversky>
0.320 

> <ROCS_RefColorTversky>
0.454 

> <ROCS_RefTverskyCombo>
0.774 

> <ROCS_FitTversky>
1.771 

> <ROCS_FitColorTversky>
0.887 

> <ROCS_FitTverskyCombo>
2.658 

> <ROCS_ColorScore>
-9.658

> <ROCS_Overlap>
938.824

> <ROCS_Rank>
319                 

$$$$
untitled-dbase-46776_0
  -OEChem-06162310163D

 22 23  0     0  0  0  0  0  0999 V2000
  -11.2219   16.0305  -38.0116 C   0  0  0  0  0  0  0  0  0  0  0  0
  -12.9135   14.5361  -36.9043 C   0  0  0  0  0  0  0  0  0  0  0  0
  -12.3547   16.7548  -38.7540 C   0  0  0  0  0  0  0  0  0  0  0  0
  -14.0403   15.2631  -37.6529 C   0  0  0  0  0  0  0  0  0  0  0  0
  -12.4784   14.4202  -39.2493 C   0  0  0  0  0  0  0  0  0  0  0  0
  -11.7451   14.5793  -37.9148 C   0  0  0  0  0  0  0  0  0  0  0  0
  -13.3765   15.6309  -38.9884 C   0  0  0  0  0  0  0  0  0  0  0  0
  -10.7078   13.6146  -37.6326 N   0  0  0  0  0  0  0  0  0  0  0  0
  -14.2869   15.9237  -40.0110 O   0  0  0  0  0  0  0  0  0  0  0  0
  -10.2990   16.0910  -38.6010 H   0  0  0  0  0  0  0  0  0  0  0  0
  -11.0256   16.4742  -37.0297 H   0  0  0  0  0  0  0  0  0  0  0  0
  -12.6685   15.0257  -35.9558 H   0  0  0  0  0  0  0  0  0  0  0  0
  -13.2214   13.5067  -36.6847 H   0  0  0  0  0  0  0  0  0  0  0  0
  -12.7711   17.5823  -38.1700 H   0  0  0  0  0  0  0  0  0  0  0  0
  -11.9977   17.1739  -39.7021 H   0  0  0  0  0  0  0  0  0  0  0  0
  -14.9018   14.6016  -37.8013 H   0  0  0  0  0  0  0  0  0  0  0  0
  -14.3989   16.1435  -37.1088 H   0  0  0  0  0  0  0  0  0  0  0  0
  -11.8407   14.5404  -40.1327 H   0  0  0  0  0  0  0  0  0  0  0  0
  -13.0379   13.4829  -39.3484 H   0  0  0  0  0  0  0  0  0  0  0  0
  -10.0272   13.6441  -38.3614 H   0  0  0  0  0  0  0  0  0  0  0  0
  -10.2801   13.8415  -36.7603 H   0  0  0  0  0  0  0  0  0  0  0  0
  -14.7704   16.7352  -39.7607 H   0  0  0  0  0  0  0  0  0  0  0  0
  1  3  1  0  0  0  0
  1  6  1  0  0  0  0
  2  4  1  0  0  0  0
  2  6  1  0  0  0  0
  3  7  1  0  0  0  0
  4  7  1  0  0  0  0
  5  6  1  0  0  0  0
  5  7  1  0  0  0  0
  6  8  1  0  0  0  0
  7  9  1  0  0  0  0
  1 10  1  0  0  0  0
  1 11  1  0  0  0  0
  2 12  1  0  0  0  0
  2 13  1  0  0  0  0
  3 14  1  0  0  0  0
  3 15  1  0  0  0  0
  4 16  1  0  0  0  0
  4 17  1  0  0  0  0
  5 18  1  0  0  0  0
  5 19  1  0  0  0  0
  8 20  1  0  0  0  0
  8 21  1  0  0  0  0
  9 22  1  0  0  0  0
M  END
> <id>
EN300-21632825

> <smiles>
NC1(CCC2(O)CC1)C2

> <MDLNUMBER>
MFCD29042853

> <IUPAC Name>
4-aminobicyclo[2.2.1]heptan-1-ol

> <CAS>
1403927-04-7

> <URL>
https://www.enaminestore.com/catalog/EN300-21632825

> <ROCS_ShapeQuery>
x1247relevant_x1083L0AP1_x1305L0BP1_

> <ROCS_TanimotoCombo>
0.801 

> <ROCS_ShapeTanimoto>
0.372 

> <ROCS_ColorTanimoto>
0.429 

> <ROCS_RefTversky>
0.320 

> <ROCS_RefColorTversky>
0.454 

> <ROCS_RefTverskyCombo>
0.774 

> <ROCS_FitTversky>
1.771 

> <ROCS_FitColorTversky>
0.887 

> <ROCS_FitTverskyCombo>
2.658 

> <ROCS_ColorScore>
-9.658

> <ROCS_Overlap>
938.824

> <ROCS_Rank>
320                 

$$$$
untitled-dbase-36138_0
  -OEChem-06162310163D

 24 26  0     1  0  0  0  0  0999 V2000
  -12.7955   15.9198  -39.6328 C   0  0  0  0  0  0  0  0  0  0  0  0
  -12.2389   14.5161  -39.7198 C   0  0  0  0  0  0  0  0  0  0  0  0
  -13.6128   14.7985  -37.7793 C   0  0  0  0  0  0  0  0  0  0  0  0
  -11.8820   16.4247  -37.4333 C   0  0  0  0  0  0  0  0  0  0  0  0
   -9.1865   14.1926  -37.0966 C   0  0  0  0  0  0  0  0  0  0  0  0
   -9.8163   14.4635  -35.7585 C   0  0  0  0  0  0  0  0  0  0  0  0
  -13.1957   16.2084  -38.1990 C   0  0  1  0  0  0  0  0  0  0  0  0
  -12.2887   14.1600  -38.2175 C   0  0  2  0  0  0  0  0  0  0  0  0
  -11.2704   15.0032  -37.4070 C   0  0  0  0  0  0  0  0  0  0  0  0
  -12.8779   16.7057  -40.5633 O   0  0  0  0  0  0  0  0  0  0  0  0
   -9.9651   14.9887  -37.9872 O   0  0  0  0  0  0  0  0  0  0  0  0
  -11.2099   14.5145  -36.0579 O   0  0  0  0  0  0  0  0  0  0  0  0
  -12.9183   13.8903  -40.3048 H   0  0  0  0  0  0  0  0  0  0  0  0
  -11.2305   14.5068  -40.1361 H   0  0  0  0  0  0  0  0  0  0  0  0
  -13.8078   14.7101  -36.7057 H   0  0  0  0  0  0  0  0  0  0  0  0
  -14.4727   14.4150  -38.3398 H   0  0  0  0  0  0  0  0  0  0  0  0
  -11.2317   17.1460  -37.9403 H   0  0  0  0  0  0  0  0  0  0  0  0
  -12.0922   16.7838  -36.4198 H   0  0  0  0  0  0  0  0  0  0  0  0
   -8.1317   14.4740  -37.1457 H   0  0  0  0  0  0  0  0  0  0  0  0
   -9.2974   13.1431  -37.3906 H   0  0  0  0  0  0  0  0  0  0  0  0
   -9.6072   13.6909  -35.0149 H   0  0  0  0  0  0  0  0  0  0  0  0
   -9.5181   15.4403  -35.3625 H   0  0  0  0  0  0  0  0  0  0  0  0
  -13.9537   16.9845  -38.1011 H   0  0  0  0  0  0  0  0  0  0  0  0
  -12.2211   13.0863  -38.0255 H   0  0  0  0  0  0  0  0  0  0  0  0
  1  2  1  0  0  0  0
  1  7  1  0  0  0  0
  1 10  2  0  0  0  0
  2  8  1  6  0  0  0
  3  7  1  0  0  0  0
  3  8  1  0  0  0  0
  4  7  1  6  0  0  0
  4  9  1  0  0  0  0
  5  6  1  0  0  0  0
  5 11  1  0  0  0  0
  6 12  1  0  0  0  0
  8  9  1  0  0  0  0
  9 11  1  0  0  0  0
  9 12  1  0  0  0  0
  2 13  1  0  0  0  0
  2 14  1  0  0  0  0
  3 15  1  0  0  0  0
  3 16  1  0  0  0  0
  4 17  1  0  0  0  0
  4 18  1  0  0  0  0
  5 19  1  0  0  0  0
  5 20  1  0  0  0  0
  6 21  1  0  0  0  0
  6 22  1  0  0  0  0
  7 23  1  0  0  0  0
  8 24  1  0  0  0  0
M  END
> <id>
EN300-1663071

> <smiles>
O=C1C[C@@H]2C[C@H]1CC32OCCO3 |&1:3,5,r|

> <MDLNUMBER>
MFCD12963722

> <IUPAC Name>
rac-(1R,4R)-spiro[bicyclo[2.2.1]heptane-2,2'-[1,3]dioxolane]-5-one

> <CAS>
450392-95-7

> <Purity>
95

> <URL>
https://www.enaminestore.com/catalog/EN300-1663071

> <ROCS_ShapeQuery>
x1247relevant_x1083L0AP1_x1305L0BP1_

> <ROCS_TanimotoCombo>
0.801 

> <ROCS_ShapeTanimoto>
0.474 

> <ROCS_ColorTanimoto>
0.328 

> <ROCS_RefTversky>
0.396 

> <ROCS_RefColorTversky>
0.373 

> <ROCS_RefTverskyCombo>
0.770 

> <ROCS_FitTversky>
1.703 

> <ROCS_FitColorTversky>
0.727 

> <ROCS_FitTverskyCombo>
2.430 

> <ROCS_ColorScore>
-7.944

> <ROCS_Overlap>
1164.321

> <ROCS_Rank>
321                 

$$$$
untitled-dbase-35691_27
  -OEChem-06162310163D

 32 33  0     1  0  0  0  0  0999 V2000
  -12.7193   16.1688  -39.4616 C   0  0  0  0  0  0  0  0  0  0  0  0
  -10.3572   14.5728  -36.7253 C   0  0  0  0  0  0  0  0  0  0  0  0
  -12.5159   16.8218  -38.1044 C   0  0  0  0  0  0  0  0  0  0  0  0
  -13.7573   14.7882  -37.9249 C   0  0  0  0  0  0  0  0  0  0  0  0
  -11.6873   14.0493  -38.8302 C   0  0  0  0  0  0  0  0  0  0  0  0
  -13.0105   14.6888  -39.2619 C   0  0  2  0  0  0  0  0  0  0  0  0
  -12.6281   15.5543  -37.2292 C   0  0  1  0  0  0  0  0  0  0  0  0
   -7.7588   15.3853  -35.8576 C   0  0  0  0  0  0  0  0  0  0  0  0
   -7.0248   14.9049  -38.2113 C   0  0  0  0  0  0  0  0  0  0  0  0
   -8.7382   16.6887  -37.7750 C   0  0  0  0  0  0  0  0  0  0  0  0
   -8.1896   15.3362  -37.3228 C   0  0  0  0  0  0  0  0  0  0  0  0
  -11.4727   14.6933  -37.5277 N   0  0  0  0  0  0  0  0  0  0  0  0
  -12.6287   16.7349  -40.5392 O   0  0  0  0  0  0  0  0  0  0  0  0
  -10.3752   14.6498  -35.4992 O   0  0  0  0  0  0  0  0  0  0  0  0
   -9.2237   14.3554  -37.4610 O   0  0  0  0  0  0  0  0  0  0  0  0
  -11.5380   17.3021  -38.0309 H   0  0  0  0  0  0  0  0  0  0  0  0
  -13.3290   17.5252  -37.9083 H   0  0  0  0  0  0  0  0  0  0  0  0
  -14.6888   15.3620  -37.9869 H   0  0  0  0  0  0  0  0  0  0  0  0
  -13.9550   13.8110  -37.4718 H   0  0  0  0  0  0  0  0  0  0  0  0
  -11.7712   12.9695  -38.6726 H   0  0  0  0  0  0  0  0  0  0  0  0
  -10.8473   14.2697  -39.4960 H   0  0  0  0  0  0  0  0  0  0  0  0
  -13.5501   14.2185  -40.0822 H   0  0  0  0  0  0  0  0  0  0  0  0
  -12.7505   15.7515  -36.1625 H   0  0  0  0  0  0  0  0  0  0  0  0
   -8.5921   15.6945  -35.2166 H   0  0  0  0  0  0  0  0  0  0  0  0
   -7.3959   14.4122  -35.5110 H   0  0  0  0  0  0  0  0  0  0  0  0
   -6.9634   16.1244  -35.7085 H   0  0  0  0  0  0  0  0  0  0  0  0
   -7.3294   14.8683  -39.2634 H   0  0  0  0  0  0  0  0  0  0  0  0
   -6.6893   13.8943  -37.9517 H   0  0  0  0  0  0  0  0  0  0  0  0
   -6.1732   15.5869  -38.1204 H   0  0  0  0  0  0  0  0  0  0  0  0
   -9.0473   16.6537  -38.8260 H   0  0  0  0  0  0  0  0  0  0  0  0
   -9.5983   16.9971  -37.1720 H   0  0  0  0  0  0  0  0  0  0  0  0
   -7.9676   17.4649  -37.7051 H   0  0  0  0  0  0  0  0  0  0  0  0
  1  3  1  0  0  0  0
  1  6  1  0  0  0  0
  1 13  2  0  0  0  0
  2 12  1  0  0  0  0
  2 14  2  0  0  0  0
  2 15  1  0  0  0  0
  3  7  1  0  0  0  0
  4  6  1  0  0  0  0
  4  7  1  0  0  0  0
  5  6  1  0  0  0  0
  5 12  1  0  0  0  0
  7 12  1  0  0  0  0
  8 11  1  0  0  0  0
  9 11  1  0  0  0  0
 10 11  1  0  0  0  0
 11 15  1  0  0  0  0
  3 16  1  0  0  0  0
  3 17  1  0  0  0  0
  4 18  1  0  0  0  0
  4 19  1  0  0  0  0
  5 20  1  0  0  0  0
  5 21  1  0  0  0  0
  6 22  1  0  0  0  0
  7 23  1  0  0  0  0
  8 24  1  0  0  0  0
  8 25  1  0  0  0  0
  8 26  1  0  0  0  0
  9 27  1  0  0  0  0
  9 28  1  0  0  0  0
  9 29  1  0  0  0  0
 10 30  1  0  0  0  0
 10 31  1  0  0  0  0
 10 32  1  0  0  0  0
M  END
> <id>
EN300-37374

> <smiles>
CC(C)(C)OC(=O)N1CC2CC1CC2=O

> <IUPAC Name>
tert-butyl 5-oxo-2-azabicyclo[2.2.1]heptane-2-carboxylate

> <CAS>
198835-06-2

> <Purity>
95

> <URL>
https://www.enaminestore.com/catalog/EN300-37374

> <ROCS_ShapeQuery>
x1247relevant_x1083L0AP1_x1305L0BP1_

> <ROCS_TanimotoCombo>
0.801 

> <ROCS_ShapeTanimoto>
0.476 

> <ROCS_ColorTanimoto>
0.325 

> <ROCS_RefTversky>
0.409 

> <ROCS_RefColorTversky>
0.361 

> <ROCS_RefTverskyCombo>
0.771 

> <ROCS_FitTversky>
1.518 

> <ROCS_FitColorTversky>
0.766 

> <ROCS_FitTverskyCombo>
2.283 

> <ROCS_ColorScore>
-7.671

> <ROCS_Overlap>
1205.063

> <ROCS_Rank>
322                 

$$$$
untitled-dbase-44988_4
  -OEChem-06162310163D

 28 29  0     1  0  0  0  0  0999 V2000
  -10.0274   14.9547  -36.5501 C   0  0  0  0  0  0  0  0  0  0  0  0
  -10.8355   15.3486  -38.8477 C   0  0  0  0  0  0  0  0  0  0  0  0
  -12.1318   16.3189  -36.9369 C   0  0  0  0  0  0  0  0  0  0  0  0
  -12.7665   13.7491  -39.2643 C   0  0  0  0  0  0  0  0  0  0  0  0
  -14.0028   14.6777  -37.4531 C   0  0  0  0  0  0  0  0  0  0  0  0
  -12.1549   15.1204  -39.6045 C   0  0  1  0  0  0  0  0  0  0  0  0
  -13.4316   16.0808  -37.7271 C   0  0  2  0  0  0  0  0  0  0  0  0
  -13.1338   16.2318  -39.2207 C   0  0  0  0  0  0  0  0  0  0  0  0
   -8.6164   14.9467  -37.0823 C   0  0  0  0  0  0  0  0  0  0  0  0
  -11.0122   15.4764  -37.3942 N   0  0  0  0  0  0  0  0  0  0  0  0
  -10.2473   14.5170  -35.4178 O   0  0  0  0  0  0  0  0  0  0  0  0
  -13.1136   13.6451  -37.8823 O   0  0  0  0  0  0  0  0  0  0  0  0
  -14.3249   16.1170  -39.9908 O   0  0  0  0  0  0  0  0  0  0  0  0
   -8.5766   15.4665  -38.3219 F   0  0  0  0  0  0  0  0  0  0  0  0
   -7.8082   15.6761  -36.2926 F   0  0  0  0  0  0  0  0  0  0  0  0
   -8.1345   13.6922  -37.1348 F   0  0  0  0  0  0  0  0  0  0  0  0
  -10.1299   14.5418  -39.0741 H   0  0  0  0  0  0  0  0  0  0  0  0
  -10.3697   16.2824  -39.1861 H   0  0  0  0  0  0  0  0  0  0  0  0
  -11.8057   17.3587  -37.0625 H   0  0  0  0  0  0  0  0  0  0  0  0
  -12.3263   16.1731  -35.8717 H   0  0  0  0  0  0  0  0  0  0  0  0
  -13.6603   13.5533  -39.8683 H   0  0  0  0  0  0  0  0  0  0  0  0
  -12.0490   12.9512  -39.4840 H   0  0  0  0  0  0  0  0  0  0  0  0
  -14.1704   14.5419  -36.3793 H   0  0  0  0  0  0  0  0  0  0  0  0
  -14.9705   14.5400  -37.9498 H   0  0  0  0  0  0  0  0  0  0  0  0
  -11.9640   15.1492  -40.6840 H   0  0  0  0  0  0  0  0  0  0  0  0
  -14.1820   16.8191  -37.4197 H   0  0  0  0  0  0  0  0  0  0  0  0
  -12.7011   17.2161  -39.4364 H   0  0  0  0  0  0  0  0  0  0  0  0
  -14.9082   16.8402  -39.7107 H   0  0  0  0  0  0  0  0  0  0  0  0
  1  9  1  0  0  0  0
  1 10  1  0  0  0  0
  1 11  2  0  0  0  0
  2  6  1  0  0  0  0
  2 10  1  0  0  0  0
  3  7  1  0  0  0  0
  3 10  1  0  0  0  0
  4  6  1  0  0  0  0
  4 12  1  0  0  0  0
  5  7  1  0  0  0  0
  5 12  1  0  0  0  0
  6  8  1  0  0  0  0
  7  8  1  0  0  0  0
  8 13  1  0  0  0  0
  9 14  1  0  0  0  0
  9 15  1  0  0  0  0
  9 16  1  0  0  0  0
  2 17  1  0  0  0  0
  2 18  1  0  0  0  0
  3 19  1  0  0  0  0
  3 20  1  0  0  0  0
  4 21  1  0  0  0  0
  4 22  1  0  0  0  0
  5 23  1  0  0  0  0
  5 24  1  0  0  0  0
  6 25  1  0  0  0  0
  7 26  1  0  0  0  0
  8 27  1  0  0  0  0
 13 28  1  0  0  0  0
M  END
> <id>
EN300-28276585

> <smiles>
OC1C2COCC1CN(C2)C(=O)C(F)(F)F

> <IUPAC Name>
2,2,2-trifluoro-1-{9-hydroxy-3-oxa-7-azabicyclo[3.3.1]nonan-7-yl}ethan-1-one

> <CAS>
2680883-64-9

> <URL>
https://www.enaminestore.com/catalog/EN300-28276585

> <ROCS_ShapeQuery>
x1247relevant_x1083L0AP1_x1305L0BP1_

> <ROCS_TanimotoCombo>
0.801 

> <ROCS_ShapeTanimoto>
0.487 

> <ROCS_ColorTanimoto>
0.313 

> <ROCS_RefTversky>
0.422 

> <ROCS_RefColorTversky>
0.319 

> <ROCS_RefTverskyCombo>
0.741 

> <ROCS_FitTversky>
1.472 

> <ROCS_FitColorTversky>
0.944 

> <ROCS_FitTverskyCombo>
2.416 

> <ROCS_ColorScore>
-6.730

> <ROCS_Overlap>
1242.682

> <ROCS_Rank>
323                 

$$$$
untitled-dbase-43748_10
  -OEChem-06162310163D

 44 47  0     1  0  0  0  0  0999 V2000
   -9.3235   13.1814  -38.5292 C   0  0  0  0  0  0  0  0  0  0  0  0
  -12.7056   14.9469  -40.2743 C   0  0  0  0  0  0  0  0  0  0  0  0
   -9.7471   13.3824  -39.9735 C   0  0  0  0  0  0  0  0  0  0  0  0
  -13.8464   15.7468  -39.6552 C   0  0  0  0  0  0  0  0  0  0  0  0
  -10.4430   13.3974  -37.4900 C   0  0  1  0  0  0  0  0  0  0  0  0
  -12.1769   13.8025  -39.3783 C   0  0  1  0  0  0  0  0  0  0  0  0
  -11.1848   12.9607  -40.2309 C   0  0  2  0  0  0  0  0  0  0  0  0
   -9.8947   13.8741  -36.1172 C   0  0  2  0  0  0  0  0  0  0  0  0
  -11.2200   15.7912  -37.8605 C   0  0  2  0  0  0  0  0  0  0  0  0
   -9.5752   15.3738  -36.1284 C   0  0  2  0  0  0  0  0  0  0  0  0
  -11.6089   14.3053  -37.9860 C   0  0  2  0  0  0  0  0  0  0  0  0
  -13.6100   16.0301  -38.1735 C   0  0  2  0  0  0  0  0  0  0  0  0
  -11.3905   11.4525  -40.0380 C   0  0  0  0  0  0  0  0  0  0  0  0
   -8.7187   13.0366  -35.6091 C   0  0  0  0  0  0  0  0  0  0  0  0
  -14.6470   17.0361  -37.6737 C   0  0  0  0  0  0  0  0  0  0  0  0
  -10.7132   16.1086  -36.5544 O   0  0  0  0  0  0  0  0  0  0  0  0
  -12.3394   16.6571  -38.0346 O   0  0  0  0  0  0  0  0  0  0  0  0
  -12.6443   14.1974  -36.9794 O   0  0  0  0  0  0  0  0  0  0  0  0
  -13.8741   14.8083  -37.4669 O   0  0  0  0  0  0  0  0  0  0  0  0
   -8.4212   15.6835  -36.8962 O   0  0  0  0  0  0  0  0  0  0  0  0
   -8.9192   12.1530  -38.4363 H   0  0  0  0  0  0  0  0  0  0  0  0
   -8.4615   13.8464  -38.3247 H   0  0  0  0  0  0  0  0  0  0  0  0
  -13.0557   14.5320  -41.2189 H   0  0  0  0  0  0  0  0  0  0  0  0
  -11.8896   15.6294  -40.5132 H   0  0  0  0  0  0  0  0  0  0  0  0
   -9.6130   14.4467  -40.2347 H   0  0  0  0  0  0  0  0  0  0  0  0
   -9.0613   12.8230  -40.6350 H   0  0  0  0  0  0  0  0  0  0  0  0
  -13.9031   16.6872  -40.2142 H   0  0  0  0  0  0  0  0  0  0  0  0
  -14.7981   15.2287  -39.8072 H   0  0  0  0  0  0  0  0  0  0  0  0
  -10.8696   12.3833  -37.2947 H   0  0  0  0  0  0  0  0  0  0  0  0
  -13.0460   13.1792  -39.1653 H   0  0  0  0  0  0  0  0  0  0  0  0
  -11.4168   13.1745  -41.3067 H   0  0  0  0  0  0  0  0  0  0  0  0
  -10.7164   13.7356  -35.4016 H   0  0  0  0  0  0  0  0  0  0  0  0
  -10.4757   16.0960  -38.5861 H   0  0  0  0  0  0  0  0  0  0  0  0
   -9.3699   15.6883  -35.0986 H   0  0  0  0  0  0  0  0  0  0  0  0
  -11.1782   11.1865  -39.0060 H   0  0  0  0  0  0  0  0  0  0  0  0
  -10.7199   10.9079  -40.6971 H   0  0  0  0  0  0  0  0  0  0  0  0
  -12.4191   11.1936  -40.2740 H   0  0  0  0  0  0  0  0  0  0  0  0
   -7.8747   13.1407  -36.2875 H   0  0  0  0  0  0  0  0  0  0  0  0
   -9.0100   11.9899  -35.5568 H   0  0  0  0  0  0  0  0  0  0  0  0
   -8.4269   13.3780  -34.6182 H   0  0  0  0  0  0  0  0  0  0  0  0
  -14.4829   17.2417  -36.6171 H   0  0  0  0  0  0  0  0  0  0  0  0
  -15.6488   16.6306  -37.8064 H   0  0  0  0  0  0  0  0  0  0  0  0
  -14.5610   17.9651  -38.2352 H   0  0  0  0  0  0  0  0  0  0  0  0
   -8.3006   16.6453  -36.8441 H   0  0  0  0  0  0  0  0  0  0  0  0
  1  3  1  0  0  0  0
  1  5  1  1  0  0  0
  2  4  1  0  0  0  0
  2  6  1  1  0  0  0
  3  7  1  0  0  0  0
  4 12  1  0  0  0  0
  5  8  1  0  0  0  0
  5 11  1  0  0  0  0
  6  7  1  0  0  0  0
  6 11  1  0  0  0  0
  7 13  1  6  0  0  0
  8 10  1  0  0  0  0
  8 14  1  1  0  0  0
  9 11  1  0  0  0  0
  9 16  1  6  0  0  0
  9 17  1  0  0  0  0
 10 16  1  0  0  0  0
 10 20  1  1  0  0  0
 11 18  1  6  0  0  0
 12 15  1  1  0  0  0
 12 17  1  0  0  0  0
 12 19  1  0  0  0  0
 18 19  1  0  0  0  0
  1 21  1  0  0  0  0
  1 22  1  0  0  0  0
  2 23  1  0  0  0  0
  2 24  1  0  0  0  0
  3 25  1  0  0  0  0
  3 26  1  0  0  0  0
  4 27  1  0  0  0  0
  4 28  1  0  0  0  0
  5 29  1  0  0  0  0
  6 30  1  0  0  0  0
  7 31  1  0  0  0  0
  8 32  1  0  0  0  0
  9 33  1  0  0  0  0
 10 34  1  0  0  0  0
 13 35  1  0  0  0  0
 13 36  1  0  0  0  0
 13 37  1  0  0  0  0
 14 38  1  0  0  0  0
 14 39  1  0  0  0  0
 14 40  1  0  0  0  0
 15 41  1  0  0  0  0
 15 42  1  0  0  0  0
 15 43  1  0  0  0  0
 20 44  1  0  0  0  0
M  END
> <id>
EN300-7419972

> <smiles>
C[C@@H]1CC[C@H]2[C@@H](C)[C@@H](O)O[C@@H]3O[C@@]4(C)CC[C@@H]1[C@@]23OO4

> <MDLNUMBER>
MFCD18323866

> <IUPAC Name>
(1R,4S,5R,8S,9R,10S,12R,13R)-1,5,9-trimethyl-11,14,15,16-tetraoxatetracyclo[10.3.1.0^{4,13}.0^{8,13}]hexadecan-10-ol

> <CAS>
71939-50-9

> <URL>
https://www.enaminestore.com/catalog/EN300-7419972

> <ROCS_ShapeQuery>
x1247relevant_x1083L0AP1_x1305L0BP1_

> <ROCS_TanimotoCombo>
0.801 

> <ROCS_ShapeTanimoto>
0.488 

> <ROCS_ColorTanimoto>
0.313 

> <ROCS_RefTversky>
0.442 

> <ROCS_RefColorTversky>
0.376 

> <ROCS_RefTverskyCombo>
0.817 

> <ROCS_FitTversky>
1.275 

> <ROCS_FitColorTversky>
0.652 

> <ROCS_FitTverskyCombo>
1.927 

> <ROCS_ColorScore>
-8.019

> <ROCS_Overlap>
1305.825

> <ROCS_Rank>
324                 

$$$$
untitled-dbase-24491_10
  -OEChem-06162310163D

 44 47  0     1  0  0  0  0  0999 V2000
   -9.3211   13.1858  -38.5346 C   0  0  0  0  0  0  0  0  0  0  0  0
  -12.7040   14.9520  -40.2756 C   0  0  0  0  0  0  0  0  0  0  0  0
   -9.7453   13.3889  -39.9784 C   0  0  0  0  0  0  0  0  0  0  0  0
  -13.8460   15.7490  -39.6551 C   0  0  0  0  0  0  0  0  0  0  0  0
  -10.4407   13.3982  -37.4947 C   0  0  1  0  0  0  0  0  0  0  0  0
  -12.1751   13.8057  -39.3821 C   0  0  1  0  0  0  0  0  0  0  0  0
  -11.1826   12.9660  -40.2363 C   0  0  2  0  0  0  0  0  0  0  0  0
   -9.8928   13.8726  -36.1209 C   0  0  2  0  0  0  0  0  0  0  0  0
  -11.2205   15.7920  -37.8597 C   0  0  2  0  0  0  0  0  0  0  0  0
   -9.5745   15.3725  -36.1292 C   0  0  2  0  0  0  0  0  0  0  0  0
  -11.6077   14.3059  -37.9885 C   0  0  2  0  0  0  0  0  0  0  0  0
  -13.6109   16.0286  -38.1725 C   0  0  2  0  0  0  0  0  0  0  0  0
  -11.3868   11.4574  -40.0459 C   0  0  0  0  0  0  0  0  0  0  0  0
   -8.7163   13.0349  -35.6144 C   0  0  0  0  0  0  0  0  0  0  0  0
  -14.6497   17.0318  -37.6706 C   0  0  0  0  0  0  0  0  0  0  0  0
  -10.7133   16.1070  -36.5532 O   0  0  0  0  0  0  0  0  0  0  0  0
  -12.3412   16.6570  -38.0310 O   0  0  0  0  0  0  0  0  0  0  0  0
  -12.6430   14.1946  -36.9823 O   0  0  0  0  0  0  0  0  0  0  0  0
  -13.8737   14.8046  -37.4691 O   0  0  0  0  0  0  0  0  0  0  0  0
   -8.4210   15.6846  -36.8968 O   0  0  0  0  0  0  0  0  0  0  0  0
   -8.9153   12.1579  -38.4438 H   0  0  0  0  0  0  0  0  0  0  0  0
   -8.4602   13.8519  -38.3290 H   0  0  0  0  0  0  0  0  0  0  0  0
  -13.0531   14.5390  -41.2214 H   0  0  0  0  0  0  0  0  0  0  0  0
  -11.8885   15.6356  -40.5121 H   0  0  0  0  0  0  0  0  0  0  0  0
   -9.6124   14.4536  -40.2379 H   0  0  0  0  0  0  0  0  0  0  0  0
   -9.0591   12.8315  -40.6411 H   0  0  0  0  0  0  0  0  0  0  0  0
  -13.9032   16.6909  -40.2116 H   0  0  0  0  0  0  0  0  0  0  0  0
  -14.7971   15.2305  -39.8093 H   0  0  0  0  0  0  0  0  0  0  0  0
  -10.8661   12.3832  -37.3016 H   0  0  0  0  0  0  0  0  0  0  0  0
  -13.0441   13.1816  -39.1706 H   0  0  0  0  0  0  0  0  0  0  0  0
  -11.4151   13.1816  -41.3116 H   0  0  0  0  0  0  0  0  0  0  0  0
  -10.7147   13.7319  -35.4059 H   0  0  0  0  0  0  0  0  0  0  0  0
  -10.4771   16.0996  -38.5850 H   0  0  0  0  0  0  0  0  0  0  0  0
   -9.3688   15.6850  -35.0989 H   0  0  0  0  0  0  0  0  0  0  0  0
  -11.1739   11.1898  -39.0145 H   0  0  0  0  0  0  0  0  0  0  0  0
  -10.7160   10.9144  -40.7062 H   0  0  0  0  0  0  0  0  0  0  0  0
  -12.4153   11.1979  -40.2819 H   0  0  0  0  0  0  0  0  0  0  0  0
   -7.8723   13.1411  -36.2924 H   0  0  0  0  0  0  0  0  0  0  0  0
   -9.0069   11.9878  -35.5645 H   0  0  0  0  0  0  0  0  0  0  0  0
   -8.4251   13.3743  -34.6227 H   0  0  0  0  0  0  0  0  0  0  0  0
  -14.4865   17.2348  -36.6133 H   0  0  0  0  0  0  0  0  0  0  0  0
  -15.6508   16.6252  -37.8049 H   0  0  0  0  0  0  0  0  0  0  0  0
  -14.5648   17.9624  -38.2295 H   0  0  0  0  0  0  0  0  0  0  0  0
   -8.3010   16.6463  -36.8429 H   0  0  0  0  0  0  0  0  0  0  0  0
  1  3  1  0  0  0  0
  1  5  1  1  0  0  0
  2  4  1  0  0  0  0
  2  6  1  1  0  0  0
  3  7  1  0  0  0  0
  4 12  1  0  0  0  0
  5  8  1  0  0  0  0
  5 11  1  0  0  0  0
  6  7  1  0  0  0  0
  6 11  1  0  0  0  0
  7 13  1  6  0  0  0
  8 10  1  0  0  0  0
  8 14  1  1  0  0  0
  9 11  1  0  0  0  0
  9 16  1  6  0  0  0
  9 17  1  0  0  0  0
 10 16  1  0  0  0  0
 10 20  1  1  0  0  0
 11 18  1  6  0  0  0
 12 15  1  0  0  0  0
 12 17  1  0  0  0  0
 12 19  1  0  0  0  0
 18 19  1  0  0  0  0
  1 21  1  0  0  0  0
  1 22  1  0  0  0  0
  2 23  1  0  0  0  0
  2 24  1  0  0  0  0
  3 25  1  0  0  0  0
  3 26  1  0  0  0  0
  4 27  1  0  0  0  0
  4 28  1  0  0  0  0
  5 29  1  0  0  0  0
  6 30  1  0  0  0  0
  7 31  1  0  0  0  0
  8 32  1  0  0  0  0
  9 33  1  0  0  0  0
 10 34  1  0  0  0  0
 13 35  1  0  0  0  0
 13 36  1  0  0  0  0
 13 37  1  0  0  0  0
 14 38  1  0  0  0  0
 14 39  1  0  0  0  0
 14 40  1  0  0  0  0
 15 41  1  0  0  0  0
 15 42  1  0  0  0  0
 15 43  1  0  0  0  0
 20 44  1  0  0  0  0
M  END
> <id>
EN300-27122030

> <smiles>
C[C@@H]1CC[C@H]2[C@@H](C)[C@@H](O)O[C@@H]3OC4(C)CC[C@@H]1[C@@]23OO4

> <IUPAC Name>
(4S,5R,8S,9R,10S,12R,13R)-1,5,9-trimethyl-11,14,15,16-tetraoxatetracyclo[10.3.1.0?,.0?,]hexadecan-10-ol

> <URL>
https://www.enaminestore.com/catalog/EN300-27122030

> <ROCS_ShapeQuery>
x1247relevant_x1083L0AP1_x1305L0BP1_

> <ROCS_TanimotoCombo>
0.801 

> <ROCS_ShapeTanimoto>
0.488 

> <ROCS_ColorTanimoto>
0.313 

> <ROCS_RefTversky>
0.442 

> <ROCS_RefColorTversky>
0.376 

> <ROCS_RefTverskyCombo>
0.817 

> <ROCS_FitTversky>
1.275 

> <ROCS_FitColorTversky>
0.652 

> <ROCS_FitTverskyCombo>
1.926 

> <ROCS_ColorScore>
-8.019

> <ROCS_Overlap>
1305.780

> <ROCS_Rank>
325                 

$$$$
untitled-dbase-15775_5
  -OEChem-06162310163D

 44 47  0     1  0  0  0  0  0999 V2000
   -9.3304   13.0904  -38.3990 C   0  0  0  0  0  0  0  0  0  0  0  0
  -12.6959   15.0340  -40.2862 C   0  0  0  0  0  0  0  0  0  0  0  0
   -9.9032   12.4223  -39.6290 C   0  0  0  0  0  0  0  0  0  0  0  0
  -13.8697   15.7524  -39.6393 C   0  0  0  0  0  0  0  0  0  0  0  0
  -10.4497   13.3977  -37.4058 C   0  0  1  0  0  0  0  0  0  0  0  0
  -12.0036   13.9054  -39.4639 C   0  0  1  0  0  0  0  0  0  0  0  0
  -10.8314   13.3812  -40.3614 C   0  0  2  0  0  0  0  0  0  0  0  0
   -9.9283   13.9281  -36.0407 C   0  0  2  0  0  0  0  0  0  0  0  0
  -11.2270   15.8201  -37.8304 C   0  0  2  0  0  0  0  0  0  0  0  0
   -9.5756   15.4147  -36.1116 C   0  0  2  0  0  0  0  0  0  0  0  0
  -11.5650   14.3283  -37.9915 C   0  0  2  0  0  0  0  0  0  0  0  0
  -13.6386   15.9829  -38.1565 C   0  0  2  0  0  0  0  0  0  0  0  0
  -11.3257   12.6783  -41.6369 C   0  0  0  0  0  0  0  0  0  0  0  0
   -8.7814   13.1043  -35.4507 C   0  0  0  0  0  0  0  0  0  0  0  0
  -14.7075   16.9231  -37.6021 C   0  0  0  0  0  0  0  0  0  0  0  0
  -10.7154   16.1475  -36.5331 O   0  0  0  0  0  0  0  0  0  0  0  0
  -12.3855   16.6431  -37.9860 O   0  0  0  0  0  0  0  0  0  0  0  0
  -12.6384   14.1566  -37.0338 O   0  0  0  0  0  0  0  0  0  0  0  0
  -13.8682   14.7090  -37.5478 O   0  0  0  0  0  0  0  0  0  0  0  0
   -8.4360   15.6610  -36.9230 O   0  0  0  0  0  0  0  0  0  0  0  0
   -8.5999   12.4146  -37.9544 H   0  0  0  0  0  0  0  0  0  0  0  0
   -8.8029   13.9921  -38.7030 H   0  0  0  0  0  0  0  0  0  0  0  0
  -13.0421   14.6088  -41.2438 H   0  0  0  0  0  0  0  0  0  0  0  0
  -11.9366   15.7850  -40.5682 H   0  0  0  0  0  0  0  0  0  0  0  0
   -9.0836   12.1173  -40.2841 H   0  0  0  0  0  0  0  0  0  0  0  0
  -10.4429   11.5165  -39.3399 H   0  0  0  0  0  0  0  0  0  0  0  0
  -13.9708   16.7101  -40.1612 H   0  0  0  0  0  0  0  0  0  0  0  0
  -14.7959   15.1965  -39.8122 H   0  0  0  0  0  0  0  0  0  0  0  0
  -10.9320   12.4180  -37.1732 H   0  0  0  0  0  0  0  0  0  0  0  0
  -12.7333   13.1133  -39.3816 H   0  0  0  0  0  0  0  0  0  0  0  0
  -10.2334   14.2511  -40.6976 H   0  0  0  0  0  0  0  0  0  0  0  0
  -10.7723   13.8424  -35.3417 H   0  0  0  0  0  0  0  0  0  0  0  0
  -10.5078   16.1711  -38.5684 H   0  0  0  0  0  0  0  0  0  0  0  0
   -9.3365   15.7588  -35.1019 H   0  0  0  0  0  0  0  0  0  0  0  0
  -11.9220   11.8115  -41.3655 H   0  0  0  0  0  0  0  0  0  0  0  0
  -10.4723   12.3591  -42.2290 H   0  0  0  0  0  0  0  0  0  0  0  0
  -11.9324   13.3671  -42.2186 H   0  0  0  0  0  0  0  0  0  0  0  0
   -7.9166   13.1566  -36.1086 H   0  0  0  0  0  0  0  0  0  0  0  0
   -9.0912   12.0667  -35.3472 H   0  0  0  0  0  0  0  0  0  0  0  0
   -8.5128   13.4981  -34.4729 H   0  0  0  0  0  0  0  0  0  0  0  0
  -14.5399   17.0870  -36.5387 H   0  0  0  0  0  0  0  0  0  0  0  0
  -15.6943   16.4851  -37.7439 H   0  0  0  0  0  0  0  0  0  0  0  0
  -14.6638   17.8793  -38.1213 H   0  0  0  0  0  0  0  0  0  0  0  0
   -8.2864   16.6200  -36.9111 H   0  0  0  0  0  0  0  0  0  0  0  0
  1  3  1  0  0  0  0
  1  5  1  0  0  0  0
  2  4  1  0  0  0  0
  2  6  1  1  0  0  0
  3  7  1  0  0  0  0
  4 12  1  0  0  0  0
  5  8  1  0  0  0  0
  5 11  1  0  0  0  0
  6  7  1  0  0  0  0
  6 11  1  0  0  0  0
  7 13  1  6  0  0  0
  8 10  1  0  0  0  0
  8 14  1  1  0  0  0
  9 11  1  0  0  0  0
  9 16  1  6  0  0  0
  9 17  1  0  0  0  0
 10 16  1  0  0  0  0
 10 20  1  1  0  0  0
 11 18  1  6  0  0  0
 12 15  1  0  0  0  0
 12 17  1  0  0  0  0
 12 19  1  0  0  0  0
 18 19  1  0  0  0  0
  1 21  1  0  0  0  0
  1 22  1  0  0  0  0
  2 23  1  0  0  0  0
  2 24  1  0  0  0  0
  3 25  1  0  0  0  0
  3 26  1  0  0  0  0
  4 27  1  0  0  0  0
  4 28  1  0  0  0  0
  5 29  1  0  0  0  0
  6 30  1  0  0  0  0
  7 31  1  0  0  0  0
  8 32  1  0  0  0  0
  9 33  1  0  0  0  0
 10 34  1  0  0  0  0
 13 35  1  0  0  0  0
 13 36  1  0  0  0  0
 13 37  1  0  0  0  0
 14 38  1  0  0  0  0
 14 39  1  0  0  0  0
 14 40  1  0  0  0  0
 15 41  1  0  0  0  0
 15 42  1  0  0  0  0
 15 43  1  0  0  0  0
 20 44  1  0  0  0  0
M  END
> <id>
EN300-746891

> <smiles>
C[C@@H]1CCC2[C@@H](C)[C@@H](O)O[C@@H]3OC4(C)CC[C@@H]1[C@@]23OO4

> <MDLNUMBER>
MFCD31456973

> <IUPAC Name>
(4S,5R,9R,10S,12R,13R)-1,5,9-trimethyl-11,14,15,16-tetraoxatetracyclo[10.3.1.0^{4,13}.0^{8,13}]hexadecan-10-ol

> <Purity>
95

> <URL>
https://www.enaminestore.com/catalog/EN300-746891

> <ROCS_ShapeQuery>
x1247relevant_x1083L0AP1_x1305L0BP1_

> <ROCS_TanimotoCombo>
0.801 

> <ROCS_ShapeTanimoto>
0.488 

> <ROCS_ColorTanimoto>
0.313 

> <ROCS_RefTversky>
0.442 

> <ROCS_RefColorTversky>
0.375 

> <ROCS_RefTverskyCombo>
0.817 

> <ROCS_FitTversky>
1.275 

> <ROCS_FitColorTversky>
0.651 

> <ROCS_FitTverskyCombo>
1.926 

> <ROCS_ColorScore>
-8.016

> <ROCS_Overlap>
1305.934

> <ROCS_Rank>
326                 

$$$$
untitled-dbase-513_0
  -OEChem-06162310163D

 25 28  0     1  0  0  0  0  0999 V2000
  -11.6149   16.5142  -39.7204 C   0  0  0  0  0  0  0  0  0  0  0  0
  -10.6030   15.2287  -37.4648 C   0  0  0  0  0  0  0  0  0  0  0  0
  -14.2108   15.2287  -37.5672 C   0  0  0  0  0  0  0  0  0  0  0  0
  -12.4800   16.6585  -38.4833 C   0  0  2  0  0  0  0  0  0  0  0  0
  -11.9188   15.9455  -37.2323 C   0  0  1  0  0  0  0  0  0  0  0  0
  -11.9085   15.2205  -40.4443 C   0  0  1  0  0  0  0  0  0  0  0  0
  -10.8271   13.8468  -38.0339 C   0  0  2  0  0  0  0  0  0  0  0  0
  -13.6687   15.7509  -38.8770 C   0  0  1  0  0  0  0  0  0  0  0  0
  -12.8666   14.7319  -37.0892 C   0  0  2  0  0  0  0  0  0  0  0  0
  -12.9170   14.5498  -39.5095 C   0  0  2  0  0  0  0  0  0  0  0  0
  -12.3439   13.8218  -38.2321 C   0  0  1  0  0  0  0  0  0  0  0  0
  -10.7692   17.3301  -40.0628 O   0  0  0  0  0  0  0  0  0  0  0  0
   -9.5057   15.7248  -37.2463 O   0  0  0  0  0  0  0  0  0  0  0  0
  -12.7198   15.7029  -42.1391 Br  0  0  0  0  0  0  0  0  0  0  0  0
  -10.2658   12.5857  -36.6709 Br  0  0  0  0  0  0  0  0  0  0  0  0
  -14.6236   16.0181  -36.9321 H   0  0  0  0  0  0  0  0  0  0  0  0
  -14.9430   14.4263  -37.6960 H   0  0  0  0  0  0  0  0  0  0  0  0
  -12.7869   17.6906  -38.2995 H   0  0  0  0  0  0  0  0  0  0  0  0
  -11.9070   16.5727  -36.3381 H   0  0  0  0  0  0  0  0  0  0  0  0
  -11.0138   14.6370  -40.6555 H   0  0  0  0  0  0  0  0  0  0  0  0
  -10.2398   13.6541  -38.9304 H   0  0  0  0  0  0  0  0  0  0  0  0
  -14.4020   16.2252  -39.5343 H   0  0  0  0  0  0  0  0  0  0  0  0
  -12.8610   14.2675  -36.0998 H   0  0  0  0  0  0  0  0  0  0  0  0
  -13.6049   13.8743  -40.0306 H   0  0  0  0  0  0  0  0  0  0  0  0
  -12.7702   12.8140  -38.1704 H   0  0  0  0  0  0  0  0  0  0  0  0
  1  4  1  0  0  0  0
  1  6  1  0  0  0  0
  1 12  2  0  0  0  0
  2  5  1  0  0  0  0
  2  7  1  0  0  0  0
  2 13  2  0  0  0  0
  3  8  1  0  0  0  0
  3  9  1  0  0  0  0
  4  5  1  0  0  0  0
  4  8  1  0  0  0  0
  5  9  1  0  0  0  0
  6 10  1  0  0  0  0
  6 14  1  0  0  0  0
  7 11  1  0  0  0  0
  7 15  1  0  0  0  0
  8 10  1  0  0  0  0
  9 11  1  0  0  0  0
 10 11  1  0  0  0  0
  3 16  1  0  0  0  0
  3 17  1  0  0  0  0
  4 18  1  0  0  0  0
  5 19  1  0  0  0  0
  6 20  1  0  0  0  0
  7 21  1  0  0  0  0
  8 22  1  0  0  0  0
  9 23  1  0  0  0  0
 10 24  1  0  0  0  0
 11 25  1  0  0  0  0
M  END
> <id>
EN300-51321

> <smiles>
BrC1C2C3CC4C2C(Br)C(=O)C4C3C1=O

> <IUPAC Name>
4,10-dibromotetracyclo[6.3.0.0^{2,6}.0^{5,9}]undecane-3,11-dione

> <CAS>
142436-72-4

> <Purity>
95

> <URL>
https://www.enaminestore.com/catalog/EN300-51321

> <ROCS_ShapeQuery>
x1247relevant_x1083L0AP1_x1305L0BP1_

> <ROCS_TanimotoCombo>
0.801 

> <ROCS_ShapeTanimoto>
0.499 

> <ROCS_ColorTanimoto>
0.301 

> <ROCS_RefTversky>
0.424 

> <ROCS_RefColorTversky>
0.491 

> <ROCS_RefTverskyCombo>
0.915 

> <ROCS_FitTversky>
1.552 

> <ROCS_FitColorTversky>
0.439 

> <ROCS_FitTverskyCombo>
1.990 

> <ROCS_ColorScore>
-10.796

> <ROCS_Overlap>
1248.878

> <ROCS_Rank>
327                 

$$$$
untitled-dbase-30734_55
  -OEChem-06162310163D

 34 35  0     0  0  0  0  0  0999 V2000
  -10.1318   14.8844  -36.6087 C   0  0  0  0  0  0  0  0  0  0  0  0
  -13.2825   14.5531  -39.4852 C   0  0  0  0  0  0  0  0  0  0  0  0
  -13.6697   16.2400  -38.2637 C   0  0  0  0  0  0  0  0  0  0  0  0
  -12.4789   14.2972  -37.0744 C   0  0  0  0  0  0  0  0  0  0  0  0
  -11.1760   15.7858  -38.7011 C   0  0  0  0  0  0  0  0  0  0  0  0
  -13.6255   14.7139  -37.9819 C   0  0  0  0  0  0  0  0  0  0  0  0
  -12.5633   15.9207  -39.3119 C   0  0  0  0  0  0  0  0  0  0  0  0
   -8.9400   12.6047  -37.1141 C   0  0  0  0  0  0  0  0  0  0  0  0
   -7.2980   13.8352  -38.5629 C   0  0  0  0  0  0  0  0  0  0  0  0
   -7.1402   14.0153  -36.0627 C   0  0  0  0  0  0  0  0  0  0  0  0
   -8.0847   13.8630  -37.2542 C   0  0  0  0  0  0  0  0  0  0  0  0
  -11.2526   15.0228  -37.4404 N   0  0  0  0  0  0  0  0  0  0  0  0
  -10.1920   14.6772  -35.3981 O   0  0  0  0  0  0  0  0  0  0  0  0
  -12.5370   16.7703  -40.4719 O   0  0  0  0  0  0  0  0  0  0  0  0
   -8.9524   15.0015  -37.2966 O   0  0  0  0  0  0  0  0  0  0  0  0
  -12.6564   13.6966  -39.7514 H   0  0  0  0  0  0  0  0  0  0  0  0
  -14.1492   14.5746  -40.1568 H   0  0  0  0  0  0  0  0  0  0  0  0
  -14.6132   16.5994  -38.6919 H   0  0  0  0  0  0  0  0  0  0  0  0
  -13.3909   16.8962  -37.4342 H   0  0  0  0  0  0  0  0  0  0  0  0
  -12.7083   14.5146  -36.0251 H   0  0  0  0  0  0  0  0  0  0  0  0
  -12.2766   13.2234  -37.1567 H   0  0  0  0  0  0  0  0  0  0  0  0
  -10.4922   15.2571  -39.3750 H   0  0  0  0  0  0  0  0  0  0  0  0
  -10.7444   16.7688  -38.4813 H   0  0  0  0  0  0  0  0  0  0  0  0
  -14.5803   14.2702  -37.6829 H   0  0  0  0  0  0  0  0  0  0  0  0
   -9.5063   12.6209  -36.1760 H   0  0  0  0  0  0  0  0  0  0  0  0
   -9.6461   12.5023  -37.9447 H   0  0  0  0  0  0  0  0  0  0  0  0
   -8.3123   11.7069  -37.0808 H   0  0  0  0  0  0  0  0  0  0  0  0
   -6.6829   14.7362  -38.6676 H   0  0  0  0  0  0  0  0  0  0  0  0
   -7.9748   13.8216  -39.4249 H   0  0  0  0  0  0  0  0  0  0  0  0
   -6.6434   12.9597  -38.6222 H   0  0  0  0  0  0  0  0  0  0  0  0
   -6.5266   14.9179  -36.1630 H   0  0  0  0  0  0  0  0  0  0  0  0
   -7.6896   14.0742  -35.1176 H   0  0  0  0  0  0  0  0  0  0  0  0
   -6.4427   13.1717  -36.0081 H   0  0  0  0  0  0  0  0  0  0  0  0
  -12.0728   16.2688  -41.1550 H   0  0  0  0  0  0  0  0  0  0  0  0
  1 12  1  0  0  0  0
  1 13  2  0  0  0  0
  1 15  1  0  0  0  0
  2  6  1  0  0  0  0
  2  7  1  0  0  0  0
  3  6  1  0  0  0  0
  3  7  1  0  0  0  0
  4  6  1  0  0  0  0
  4 12  1  0  0  0  0
  5  7  1  0  0  0  0
  5 12  1  0  0  0  0
  7 14  1  0  0  0  0
  8 11  1  0  0  0  0
  9 11  1  0  0  0  0
 10 11  1  0  0  0  0
 11 15  1  0  0  0  0
  2 16  1  0  0  0  0
  2 17  1  0  0  0  0
  3 18  1  0  0  0  0
  3 19  1  0  0  0  0
  4 20  1  0  0  0  0
  4 21  1  0  0  0  0
  5 22  1  0  0  0  0
  5 23  1  0  0  0  0
  6 24  1  0  0  0  0
  8 25  1  0  0  0  0
  8 26  1  0  0  0  0
  8 27  1  0  0  0  0
  9 28  1  0  0  0  0
  9 29  1  0  0  0  0
  9 30  1  0  0  0  0
 10 31  1  0  0  0  0
 10 32  1  0  0  0  0
 10 33  1  0  0  0  0
 14 34  1  0  0  0  0
M  END
> <id>
EN300-6496005

> <smiles>
CC(C)(C)OC(=O)N1CC2CC(O)(C2)C1

> <MDLNUMBER>
MFCD32678733

> <IUPAC Name>
tert-butyl 1-hydroxy-3-azabicyclo[3.1.1]heptane-3-carboxylate

> <CAS>
2385804-87-3

> <Purity>
95

> <URL>
https://www.enaminestore.com/catalog/EN300-6496005

> <ROCS_ShapeQuery>
x1247relevant_x1083L0AP1_x1305L0BP1_

> <ROCS_TanimotoCombo>
0.801 

> <ROCS_ShapeTanimoto>
0.481 

> <ROCS_ColorTanimoto>
0.319 

> <ROCS_RefTversky>
0.411 

> <ROCS_RefColorTversky>
0.364 

> <ROCS_RefTverskyCombo>
0.775 

> <ROCS_FitTversky>
1.548 

> <ROCS_FitColorTversky>
0.722 

> <ROCS_FitTverskyCombo>
2.271 

> <ROCS_ColorScore>
-7.743

> <ROCS_Overlap>
1210.646

> <ROCS_Rank>
328                 

$$$$
untitled-dbase-9853_0
  -OEChem-06162310163D

 23 25  0     1  0  0  0  0  0999 V2000
  -12.9311   16.4498  -37.3414 C   0  0  0  0  0  0  0  0  0  0  0  0
  -11.1449   16.1257  -38.8699 C   0  0  0  0  0  0  0  0  0  0  0  0
  -14.5624   14.9869  -38.6712 C   0  0  0  0  0  0  0  0  0  0  0  0
  -11.5374   15.7964  -37.4270 C   0  0  2  0  0  0  0  0  0  0  0  0
  -13.5553   16.1195  -38.7170 C   0  0  2  0  0  0  0  0  0  0  0  0
  -12.3842   15.4742  -39.4556 C   0  0  2  0  0  0  0  0  0  0  0  0
  -11.7231   14.2619  -37.4653 C   0  0  1  0  0  0  0  0  0  0  0  0
  -12.4300   14.0719  -38.8292 C   0  0  1  0  0  0  0  0  0  0  0  0
  -10.4454   13.5563  -37.4118 N   0  0  0  0  0  0  0  0  0  0  0  0
  -13.8134   13.7640  -38.6098 O   0  0  0  0  0  0  0  0  0  0  0  0
  -13.5225   16.0849  -36.4957 H   0  0  0  0  0  0  0  0  0  0  0  0
  -12.8248   17.5363  -37.2368 H   0  0  0  0  0  0  0  0  0  0  0  0
  -11.0996   17.2026  -39.0636 H   0  0  0  0  0  0  0  0  0  0  0  0
  -10.2133   15.6599  -39.2015 H   0  0  0  0  0  0  0  0  0  0  0  0
  -15.2431   15.0443  -37.8171 H   0  0  0  0  0  0  0  0  0  0  0  0
  -15.1587   14.9578  -39.5894 H   0  0  0  0  0  0  0  0  0  0  0  0
  -10.8428   16.1514  -36.6621 H   0  0  0  0  0  0  0  0  0  0  0  0
  -13.9534   17.0224  -39.1888 H   0  0  0  0  0  0  0  0  0  0  0  0
  -12.4834   15.4854  -40.5431 H   0  0  0  0  0  0  0  0  0  0  0  0
  -12.3428   13.9220  -36.6279 H   0  0  0  0  0  0  0  0  0  0  0  0
  -11.9746   13.2954  -39.4517 H   0  0  0  0  0  0  0  0  0  0  0  0
  -10.0094   13.7689  -36.5460 H   0  0  0  0  0  0  0  0  0  0  0  0
  -10.6256   12.5831  -37.4843 H   0  0  0  0  0  0  0  0  0  0  0  0
  1  4  1  0  0  0  0
  1  5  1  0  0  0  0
  2  4  1  0  0  0  0
  2  6  1  0  0  0  0
  3  5  1  0  0  0  0
  3 10  1  0  0  0  0
  4  7  1  0  0  0  0
  5  6  1  0  0  0  0
  6  8  1  0  0  0  0
  7  8  1  0  0  0  0
  7  9  1  0  0  0  0
  8 10  1  0  0  0  0
  1 11  1  0  0  0  0
  1 12  1  0  0  0  0
  2 13  1  0  0  0  0
  2 14  1  0  0  0  0
  3 15  1  0  0  0  0
  3 16  1  0  0  0  0
  4 17  1  0  0  0  0
  5 18  1  0  0  0  0
  6 19  1  0  0  0  0
  7 20  1  0  0  0  0
  8 21  1  0  0  0  0
  9 22  1  0  0  0  0
  9 23  1  0  0  0  0
M  END
> <id>
EN300-333350

> <smiles>
NC1C2CC3COC1C3C2

> <MDLNUMBER>
MFCD24496161

> <IUPAC Name>
4-oxatricyclo[4.2.1.0,3,7]nonan-2-amine

> <CAS>
1824547-40-1

> <URL>
https://www.enaminestore.com/catalog/EN300-333350

> <ROCS_ShapeQuery>
x1247relevant_x1083L0AP1_x1305L0BP1_

> <ROCS_TanimotoCombo>
0.800 

> <ROCS_ShapeTanimoto>
0.395 

> <ROCS_ColorTanimoto>
0.406 

> <ROCS_RefTversky>
0.340 

> <ROCS_RefColorTversky>
0.502 

> <ROCS_RefTverskyCombo>
0.843 

> <ROCS_FitTversky>
1.686 

> <ROCS_FitColorTversky>
0.678 

> <ROCS_FitTverskyCombo>
2.364 

> <ROCS_ColorScore>
-10.820

> <ROCS_Overlap>
998.426

> <ROCS_Rank>
329                 

$$$$
untitled-dbase-48080_0
  -OEChem-06162310163D

 23 25  0     1  0  0  0  0  0999 V2000
  -12.9311   16.4498  -37.3414 C   0  0  0  0  0  0  0  0  0  0  0  0
  -11.1449   16.1257  -38.8699 C   0  0  0  0  0  0  0  0  0  0  0  0
  -14.5624   14.9869  -38.6712 C   0  0  0  0  0  0  0  0  0  0  0  0
  -11.5374   15.7964  -37.4270 C   0  0  2  0  0  0  0  0  0  0  0  0
  -13.5553   16.1195  -38.7170 C   0  0  2  0  0  0  0  0  0  0  0  0
  -12.3842   15.4742  -39.4556 C   0  0  2  0  0  0  0  0  0  0  0  0
  -11.7231   14.2619  -37.4653 C   0  0  1  0  0  0  0  0  0  0  0  0
  -12.4300   14.0719  -38.8292 C   0  0  1  0  0  0  0  0  0  0  0  0
  -10.4454   13.5563  -37.4118 N   0  0  0  0  0  0  0  0  0  0  0  0
  -13.8134   13.7640  -38.6098 O   0  0  0  0  0  0  0  0  0  0  0  0
  -13.5225   16.0849  -36.4957 H   0  0  0  0  0  0  0  0  0  0  0  0
  -12.8248   17.5363  -37.2368 H   0  0  0  0  0  0  0  0  0  0  0  0
  -11.0996   17.2026  -39.0636 H   0  0  0  0  0  0  0  0  0  0  0  0
  -10.2133   15.6599  -39.2015 H   0  0  0  0  0  0  0  0  0  0  0  0
  -15.2431   15.0443  -37.8171 H   0  0  0  0  0  0  0  0  0  0  0  0
  -15.1587   14.9578  -39.5894 H   0  0  0  0  0  0  0  0  0  0  0  0
  -10.8428   16.1514  -36.6621 H   0  0  0  0  0  0  0  0  0  0  0  0
  -13.9534   17.0224  -39.1888 H   0  0  0  0  0  0  0  0  0  0  0  0
  -12.4834   15.4854  -40.5431 H   0  0  0  0  0  0  0  0  0  0  0  0
  -12.3428   13.9220  -36.6279 H   0  0  0  0  0  0  0  0  0  0  0  0
  -11.9746   13.2954  -39.4517 H   0  0  0  0  0  0  0  0  0  0  0  0
  -10.0094   13.7689  -36.5460 H   0  0  0  0  0  0  0  0  0  0  0  0
  -10.6256   12.5831  -37.4843 H   0  0  0  0  0  0  0  0  0  0  0  0
  1  4  1  0  0  0  0
  1  5  1  0  0  0  0
  2  4  1  0  0  0  0
  2  6  1  0  0  0  0
  3  5  1  0  0  0  0
  3 10  1  0  0  0  0
  4  7  1  0  0  0  0
  5  6  1  0  0  0  0
  6  8  1  0  0  0  0
  7  8  1  0  0  0  0
  7  9  1  0  0  0  0
  8 10  1  0  0  0  0
  1 11  1  0  0  0  0
  1 12  1  0  0  0  0
  2 13  1  0  0  0  0
  2 14  1  0  0  0  0
  3 15  1  0  0  0  0
  3 16  1  0  0  0  0
  4 17  1  0  0  0  0
  5 18  1  0  0  0  0
  6 19  1  0  0  0  0
  7 20  1  0  0  0  0
  8 21  1  0  0  0  0
  9 22  1  0  0  0  0
  9 23  1  0  0  0  0
M  END
> <id>
EN300-333349

> <smiles>
Cl.NC1C2CC3COC1C3C2

> <MDLNUMBER>
MFCD30498016

> <IUPAC Name>
4-oxatricyclo[4.2.1.0,3,7]nonan-2-amine hydrochloride

> <CAS>
2060024-80-6

> <Purity>
95

> <URL>
https://www.enaminestore.com/catalog/EN300-333349

> <Saltdate>
Cl

> <ROCS_ShapeQuery>
x1247relevant_x1083L0AP1_x1305L0BP1_

> <ROCS_TanimotoCombo>
0.800 

> <ROCS_ShapeTanimoto>
0.395 

> <ROCS_ColorTanimoto>
0.406 

> <ROCS_RefTversky>
0.340 

> <ROCS_RefColorTversky>
0.502 

> <ROCS_RefTverskyCombo>
0.843 

> <ROCS_FitTversky>
1.686 

> <ROCS_FitColorTversky>
0.678 

> <ROCS_FitTverskyCombo>
2.364 

> <ROCS_ColorScore>
-10.820

> <ROCS_Overlap>
998.426

> <ROCS_Rank>
330                 

$$$$
untitled-dbase-17970_13
  -OEChem-06162310163D

 37 38  0     1  0  0  0  0  0999 V2000
  -10.3293   14.9276  -36.7467 C   0  0  0  0  0  0  0  0  0  0  0  0
  -12.8646   14.2145  -39.1863 C   0  0  0  0  0  0  0  0  0  0  0  0
  -13.7415   16.3338  -38.5227 C   0  0  0  0  0  0  0  0  0  0  0  0
  -12.8532   14.6667  -36.8613 C   0  0  0  0  0  0  0  0  0  0  0  0
  -13.7475   14.8432  -38.1022 C   0  0  2  0  0  0  0  0  0  0  0  0
  -11.6771   15.1318  -38.8679 C   0  0  1  0  0  0  0  0  0  0  0  0
  -12.3092   16.5294  -39.0864 C   0  0  2  0  0  0  0  0  0  0  0  0
   -8.9284   12.8086  -37.3825 C   0  0  0  0  0  0  0  0  0  0  0  0
   -7.6578   14.2016  -39.0420 C   0  0  0  0  0  0  0  0  0  0  0  0
   -7.2077   14.4632  -36.5850 C   0  0  0  0  0  0  0  0  0  0  0  0
  -11.5623   17.6905  -38.4416 C   0  0  0  0  0  0  0  0  0  0  0  0
   -8.2683   14.1618  -37.6428 C   0  0  0  0  0  0  0  0  0  0  0  0
  -11.5276   14.9060  -37.4287 N   0  0  0  0  0  0  0  0  0  0  0  0
  -10.2180   14.7427  -35.5373 O   0  0  0  0  0  0  0  0  0  0  0  0
  -12.3968   16.7896  -40.4885 O   0  0  0  0  0  0  0  0  0  0  0  0
   -9.2745   15.1787  -37.5822 O   0  0  0  0  0  0  0  0  0  0  0  0
  -11.4433   17.4877  -37.1195 F   0  0  0  0  0  0  0  0  0  0  0  0
  -10.3345   17.8039  -38.9733 F   0  0  0  0  0  0  0  0  0  0  0  0
  -12.2282   18.8390  -38.6439 F   0  0  0  0  0  0  0  0  0  0  0  0
  -12.6480   13.1556  -39.0068 H   0  0  0  0  0  0  0  0  0  0  0  0
  -13.2648   14.3376  -40.1978 H   0  0  0  0  0  0  0  0  0  0  0  0
  -14.4997   16.5138  -39.2935 H   0  0  0  0  0  0  0  0  0  0  0  0
  -13.9559   16.9810  -37.6656 H   0  0  0  0  0  0  0  0  0  0  0  0
  -13.0598   15.3791  -36.0574 H   0  0  0  0  0  0  0  0  0  0  0  0
  -12.8823   13.6453  -36.4679 H   0  0  0  0  0  0  0  0  0  0  0  0
  -14.7454   14.4146  -37.9953 H   0  0  0  0  0  0  0  0  0  0  0  0
  -10.7686   14.9367  -39.4425 H   0  0  0  0  0  0  0  0  0  0  0  0
   -9.3679   12.7760  -36.3791 H   0  0  0  0  0  0  0  0  0  0  0  0
   -9.7151   12.5961  -38.1137 H   0  0  0  0  0  0  0  0  0  0  0  0
   -8.1904   11.9992  -37.4231 H   0  0  0  0  0  0  0  0  0  0  0  0
   -7.1830   15.1708  -39.2332 H   0  0  0  0  0  0  0  0  0  0  0  0
   -8.4313   14.0802  -39.8090 H   0  0  0  0  0  0  0  0  0  0  0  0
   -6.9081   13.4154  -39.1782 H   0  0  0  0  0  0  0  0  0  0  0  0
   -6.7340   15.4338  -36.7715 H   0  0  0  0  0  0  0  0  0  0  0  0
   -7.6352   14.4753  -35.5772 H   0  0  0  0  0  0  0  0  0  0  0  0
   -6.4054   13.7170  -36.6140 H   0  0  0  0  0  0  0  0  0  0  0  0
  -11.4874   16.9053  -40.8018 H   0  0  0  0  0  0  0  0  0  0  0  0
  1 13  1  0  0  0  0
  1 14  2  0  0  0  0
  1 16  1  0  0  0  0
  2  5  1  0  0  0  0
  2  6  1  0  0  0  0
  3  5  1  0  0  0  0
  3  7  1  0  0  0  0
  4  5  1  0  0  0  0
  4 13  1  0  0  0  0
  6  7  1  0  0  0  0
  6 13  1  0  0  0  0
  7 11  1  0  0  0  0
  7 15  1  0  0  0  0
  8 12  1  0  0  0  0
  9 12  1  0  0  0  0
 10 12  1  0  0  0  0
 11 17  1  0  0  0  0
 11 18  1  0  0  0  0
 11 19  1  0  0  0  0
 12 16  1  0  0  0  0
  2 20  1  0  0  0  0
  2 21  1  0  0  0  0
  3 22  1  0  0  0  0
  3 23  1  0  0  0  0
  4 24  1  0  0  0  0
  4 25  1  0  0  0  0
  5 26  1  0  0  0  0
  6 27  1  0  0  0  0
  8 28  1  0  0  0  0
  8 29  1  0  0  0  0
  8 30  1  0  0  0  0
  9 31  1  0  0  0  0
  9 32  1  0  0  0  0
  9 33  1  0  0  0  0
 10 34  1  0  0  0  0
 10 35  1  0  0  0  0
 10 36  1  0  0  0  0
 15 37  1  0  0  0  0
M  END
> <id>
EN300-89637

> <smiles>
CC(C)(C)OC(=O)N1CC2CC1C(O)(C2)C(F)(F)F

> <MDLNUMBER>
MFCD18791491

> <IUPAC Name>
tert-butyl 6-hydroxy-6-(trifluoromethyl)-2-azabicyclo[2.2.1]heptane-2-carboxylate

> <CAS>
1251924-87-4

> <URL>
https://www.enaminestore.com/catalog/EN300-89637

> <ROCS_ShapeQuery>
x1247relevant_x1083L0AP1_x1305L0BP1_

> <ROCS_TanimotoCombo>
0.800 

> <ROCS_ShapeTanimoto>
0.488 

> <ROCS_ColorTanimoto>
0.312 

> <ROCS_RefTversky>
0.437 

> <ROCS_RefColorTversky>
0.360 

> <ROCS_RefTverskyCombo>
0.798 

> <ROCS_FitTversky>
1.312 

> <ROCS_FitColorTversky>
0.701 

> <ROCS_FitTverskyCombo>
2.013 

> <ROCS_ColorScore>
-7.663

> <ROCS_Overlap>
1292.363

> <ROCS_Rank>
331                 

$$$$
untitled-dbase-30790_84
  -OEChem-06162310163D

 34 35  0     1  0  0  0  0  0999 V2000
   -9.9490   14.8004  -37.3464 C   0  0  0  0  0  0  0  0  0  0  0  0
  -13.2476   16.2122  -37.7135 C   0  0  0  0  0  0  0  0  0  0  0  0
  -13.3614   14.7105  -39.5538 C   0  0  0  0  0  0  0  0  0  0  0  0
  -12.3733   14.0410  -37.3400 C   0  0  0  0  0  0  0  0  0  0  0  0
  -13.5621   14.7438  -38.0210 C   0  0  1  0  0  0  0  0  0  0  0  0
  -11.8487   16.1308  -38.3323 C   0  0  2  0  0  0  0  0  0  0  0  0
  -12.1661   15.6666  -39.7652 C   0  0  2  0  0  0  0  0  0  0  0  0
   -9.6913   13.7064  -34.9808 C   0  0  0  0  0  0  0  0  0  0  0  0
   -9.4385   11.4684  -36.0928 C   0  0  0  0  0  0  0  0  0  0  0  0
   -7.5480   13.1204  -36.1628 C   0  0  0  0  0  0  0  0  0  0  0  0
   -9.0662   12.9483  -36.1509 C   0  0  0  0  0  0  0  0  0  0  0  0
  -11.2871   14.9763  -37.6278 N   0  0  0  0  0  0  0  0  0  0  0  0
   -9.1672   15.7160  -37.1019 O   0  0  0  0  0  0  0  0  0  0  0  0
  -12.5457   16.7812  -40.5588 O   0  0  0  0  0  0  0  0  0  0  0  0
   -9.5946   13.4784  -37.3716 O   0  0  0  0  0  0  0  0  0  0  0  0
  -13.9150   16.9149  -38.2229 H   0  0  0  0  0  0  0  0  0  0  0  0
  -13.2298   16.4347  -36.6412 H   0  0  0  0  0  0  0  0  0  0  0  0
  -13.1340   13.6977  -39.9018 H   0  0  0  0  0  0  0  0  0  0  0  0
  -14.2578   15.0667  -40.0739 H   0  0  0  0  0  0  0  0  0  0  0  0
  -12.4935   13.9744  -36.2537 H   0  0  0  0  0  0  0  0  0  0  0  0
  -12.1473   13.0521  -37.7498 H   0  0  0  0  0  0  0  0  0  0  0  0
  -14.5394   14.3879  -37.6904 H   0  0  0  0  0  0  0  0  0  0  0  0
  -11.2407   17.0346  -38.2563 H   0  0  0  0  0  0  0  0  0  0  0  0
  -11.3177   15.1704  -40.2487 H   0  0  0  0  0  0  0  0  0  0  0  0
   -9.4264   14.7691  -35.0189 H   0  0  0  0  0  0  0  0  0  0  0  0
  -10.7828   13.6199  -34.9811 H   0  0  0  0  0  0  0  0  0  0  0  0
   -9.3144   13.3281  -34.0237 H   0  0  0  0  0  0  0  0  0  0  0  0
   -8.9921   10.9206  -36.9305 H   0  0  0  0  0  0  0  0  0  0  0  0
  -10.5229   11.3350  -36.1796 H   0  0  0  0  0  0  0  0  0  0  0  0
   -9.1059   11.0045  -35.1586 H   0  0  0  0  0  0  0  0  0  0  0  0
   -7.0993   12.5767  -37.0020 H   0  0  0  0  0  0  0  0  0  0  0  0
   -7.2621   14.1743  -36.2414 H   0  0  0  0  0  0  0  0  0  0  0  0
   -7.1017   12.7056  -35.2517 H   0  0  0  0  0  0  0  0  0  0  0  0
  -12.8475   16.4293  -41.4123 H   0  0  0  0  0  0  0  0  0  0  0  0
  1 12  1  0  0  0  0
  1 13  2  0  0  0  0
  1 15  1  0  0  0  0
  2  5  1  0  0  0  0
  2  6  1  0  0  0  0
  3  5  1  0  0  0  0
  3  7  1  0  0  0  0
  4  5  1  1  0  0  0
  4 12  1  0  0  0  0
  6  7  1  0  0  0  0
  6 12  1  1  0  0  0
  7 14  1  6  0  0  0
  8 11  1  0  0  0  0
  9 11  1  0  0  0  0
 10 11  1  0  0  0  0
 11 15  1  0  0  0  0
  2 16  1  0  0  0  0
  2 17  1  0  0  0  0
  3 18  1  0  0  0  0
  3 19  1  0  0  0  0
  4 20  1  0  0  0  0
  4 21  1  0  0  0  0
  5 22  1  0  0  0  0
  6 23  1  0  0  0  0
  7 24  1  0  0  0  0
  8 25  1  0  0  0  0
  8 26  1  0  0  0  0
  8 27  1  0  0  0  0
  9 28  1  0  0  0  0
  9 29  1  0  0  0  0
  9 30  1  0  0  0  0
 10 31  1  0  0  0  0
 10 32  1  0  0  0  0
 10 33  1  0  0  0  0
 14 34  1  0  0  0  0
M  END
> <id>
EN300-7445491

> <smiles>
CC(C)(C)OC(=O)N1C[C@@H]2C[C@@H](O)[C@H]1C2 |&1:9,11,13,r|

> <IUPAC Name>
rac-tert-butyl (1R,4S,6R)-6-hydroxy-2-azabicyclo[2.2.1]heptane-2-carboxylate

> <CAS>
1932398-86-1

> <URL>
https://www.enaminestore.com/catalog/EN300-7445491

> <ROCS_ShapeQuery>
x1247relevant_x1083L0AP1_x1305L0BP1_

> <ROCS_TanimotoCombo>
0.800 

> <ROCS_ShapeTanimoto>
0.490 

> <ROCS_ColorTanimoto>
0.310 

> <ROCS_RefTversky>
0.417 

> <ROCS_RefColorTversky>
0.358 

> <ROCS_RefTverskyCombo>
0.776 

> <ROCS_FitTversky>
1.557 

> <ROCS_FitColorTversky>
0.697 

> <ROCS_FitTverskyCombo>
2.254 

> <ROCS_ColorScore>
-7.626

> <ROCS_Overlap>
1228.200

> <ROCS_Rank>
332                 

$$$$
untitled-dbase-49777_23
  -OEChem-06162310163D

 39 41  0     1  0  0  0  0  0999 V2000
  -10.4675   14.8761  -36.8006 C   0  0  0  0  0  0  0  0  0  0  0  0
  -13.9170   13.9579  -37.3824 C   0  0  0  0  0  0  0  0  0  0  0  0
  -13.1187   13.1987  -38.4634 C   0  0  0  0  0  0  0  0  0  0  0  0
  -11.6472   16.5459  -39.6554 C   0  0  0  0  0  0  0  0  0  0  0  0
  -13.3419   16.4231  -37.6725 C   0  0  0  0  0  0  0  0  0  0  0  0
  -12.2467   15.1672  -39.6958 C   0  0  1  0  0  0  0  0  0  0  0  0
  -12.9989   15.1102  -36.9361 C   0  0  2  0  0  0  0  0  0  0  0  0
  -11.8873   14.0749  -38.7117 C   0  0  1  0  0  0  0  0  0  0  0  0
  -13.0778   16.3416  -39.1812 C   0  0  2  0  0  0  0  0  0  0  0  0
   -9.0330   12.6919  -36.9825 C   0  0  0  0  0  0  0  0  0  0  0  0
   -7.8645   13.6794  -38.9747 C   0  0  0  0  0  0  0  0  0  0  0  0
   -7.3300   14.5182  -36.6684 C   0  0  0  0  0  0  0  0  0  0  0  0
   -8.4208   13.9580  -37.5800 C   0  0  0  0  0  0  0  0  0  0  0  0
  -11.6933   14.6703  -37.4023 N   0  0  0  0  0  0  0  0  0  0  0  0
  -14.1748   16.8554  -40.0282 N   0  0  0  0  0  0  0  0  0  0  0  0
  -10.3027   14.9831  -35.5876 O   0  0  0  0  0  0  0  0  0  0  0  0
   -9.4518   14.9423  -37.7155 O   0  0  0  0  0  0  0  0  0  0  0  0
  -14.8783   14.3108  -37.7703 H   0  0  0  0  0  0  0  0  0  0  0  0
  -14.1225   13.2822  -36.5443 H   0  0  0  0  0  0  0  0  0  0  0  0
  -12.8145   12.2220  -38.0687 H   0  0  0  0  0  0  0  0  0  0  0  0
  -13.7215   13.0303  -39.3617 H   0  0  0  0  0  0  0  0  0  0  0  0
  -10.8800   16.7716  -38.9255 H   0  0  0  0  0  0  0  0  0  0  0  0
  -11.4871   17.0469  -40.6046 H   0  0  0  0  0  0  0  0  0  0  0  0
  -14.3928   16.6749  -37.4832 H   0  0  0  0  0  0  0  0  0  0  0  0
  -12.7455   17.2444  -37.2553 H   0  0  0  0  0  0  0  0  0  0  0  0
  -12.4704   14.7648  -40.6782 H   0  0  0  0  0  0  0  0  0  0  0  0
  -13.0282   15.2592  -35.8527 H   0  0  0  0  0  0  0  0  0  0  0  0
  -11.0127   13.5109  -39.0480 H   0  0  0  0  0  0  0  0  0  0  0  0
   -9.4335   12.8877  -35.9814 H   0  0  0  0  0  0  0  0  0  0  0  0
   -9.8404   12.2996  -37.6094 H   0  0  0  0  0  0  0  0  0  0  0  0
   -8.2750   11.9091  -36.8646 H   0  0  0  0  0  0  0  0  0  0  0  0
   -7.4243   14.5851  -39.4072 H   0  0  0  0  0  0  0  0  0  0  0  0
   -8.6626   13.3674  -39.6581 H   0  0  0  0  0  0  0  0  0  0  0  0
   -7.0990   12.8970  -38.9554 H   0  0  0  0  0  0  0  0  0  0  0  0
   -6.8907   15.4264  -37.0968 H   0  0  0  0  0  0  0  0  0  0  0  0
   -7.7197   14.7587  -35.6739 H   0  0  0  0  0  0  0  0  0  0  0  0
   -6.5091   13.8007  -36.5566 H   0  0  0  0  0  0  0  0  0  0  0  0
  -14.0483   17.8310  -40.1137 H   0  0  0  0  0  0  0  0  0  0  0  0
  -14.1066   16.4029  -40.9033 H   0  0  0  0  0  0  0  0  0  0  0  0
  1 14  1  0  0  0  0
  1 16  2  0  0  0  0
  1 17  1  0  0  0  0
  2  3  1  0  0  0  0
  2  7  1  6  0  0  0
  3  8  1  6  0  0  0
  4  6  1  1  0  0  0
  4  9  1  0  0  0  0
  5  7  1  0  0  0  0
  5  9  1  0  0  0  0
  6  8  1  0  0  0  0
  6  9  1  0  0  0  0
  7 14  1  0  0  0  0
  8 14  1  0  0  0  0
  9 15  1  6  0  0  0
 10 13  1  0  0  0  0
 11 13  1  0  0  0  0
 12 13  1  0  0  0  0
 13 17  1  0  0  0  0
  2 18  1  0  0  0  0
  2 19  1  0  0  0  0
  3 20  1  0  0  0  0
  3 21  1  0  0  0  0
  4 22  1  0  0  0  0
  4 23  1  0  0  0  0
  5 24  1  0  0  0  0
  5 25  1  0  0  0  0
  6 26  1  0  0  0  0
  7 27  1  0  0  0  0
  8 28  1  0  0  0  0
 10 29  1  0  0  0  0
 10 30  1  0  0  0  0
 10 31  1  0  0  0  0
 11 32  1  0  0  0  0
 11 33  1  0  0  0  0
 11 34  1  0  0  0  0
 12 35  1  0  0  0  0
 12 36  1  0  0  0  0
 12 37  1  0  0  0  0
 15 38  1  0  0  0  0
 15 39  1  0  0  0  0
M  END
> <id>
EN300-6738471

> <smiles>
CC(C)(C)OC(=O)N1[C@@H]2CC[C@H]1[C@@H]3C[C@]3(N)C2 |&1:8,11,12,14,r|

> <IUPAC Name>
rac-tert-butyl (1R,2R,4R,6S)-4-amino-9-azatricyclo[4.2.1.0,2,4]nonane-9-carboxylate

> <CAS>
2287239-08-9

> <Purity>
95

> <URL>
https://www.enaminestore.com/catalog/EN300-6738471

> <ROCS_ShapeQuery>
x1247relevant_x1083L0AP1_x1305L0BP1_

> <ROCS_TanimotoCombo>
0.800 

> <ROCS_ShapeTanimoto>
0.505 

> <ROCS_ColorTanimoto>
0.295 

> <ROCS_RefTversky>
0.435 

> <ROCS_RefColorTversky>
0.380 

> <ROCS_RefTverskyCombo>
0.816 

> <ROCS_FitTversky>
1.462 

> <ROCS_FitColorTversky>
0.570 

> <ROCS_FitTverskyCombo>
2.032 

> <ROCS_ColorScore>
-8.158

> <ROCS_Overlap>
1284.124

> <ROCS_Rank>
333                 

$$$$
untitled-dbase-38098_0
  -OEChem-06162310163D

 35 37  0     1  0  0  0  0  0999 V2000
  -13.3241   13.7835  -38.5798 C   0  0  0  0  0  0  0  0  0  0  0  0
  -13.6955   15.8190  -37.2735 C   0  0  0  0  0  0  0  0  0  0  0  0
   -9.2207   15.2697  -36.2867 C   0  0  0  0  0  0  0  0  0  0  0  0
  -13.1086   14.7097  -39.7879 C   0  0  0  0  0  0  0  0  0  0  0  0
  -13.2628   16.7026  -38.4498 C   0  0  0  0  0  0  0  0  0  0  0  0
   -9.1032   14.0368  -37.1693 C   0  0  0  0  0  0  0  0  0  0  0  0
  -11.1343   15.5946  -38.7424 C   0  0  0  0  0  0  0  0  0  0  0  0
  -12.8767   14.5151  -37.2904 C   0  0  0  0  0  0  0  0  0  0  0  0
  -10.7229   15.5328  -36.1573 C   0  0  2  0  0  0  0  0  0  0  0  0
  -11.3422   14.8118  -37.3931 C   0  0  2  0  0  0  0  0  0  0  0  0
  -10.8442   12.5059  -36.5359 C   0  0  0  0  0  0  0  0  0  0  0  0
  -12.4143   15.9564  -39.3998 N   0  0  0  0  0  0  0  0  0  0  0  0
  -10.4756   13.5845  -37.4582 N   0  0  2  0  0  0  0  0  0  0  0  0
  -10.9393   16.9547  -35.9364 N   0  0  0  0  0  0  0  0  0  0  0  0
  -14.3844   13.5115  -38.5081 H   0  0  0  0  0  0  0  0  0  0  0  0
  -12.7711   12.8498  -38.7240 H   0  0  0  0  0  0  0  0  0  0  0  0
  -13.5984   16.3468  -36.3227 H   0  0  0  0  0  0  0  0  0  0  0  0
  -14.7634   15.5814  -37.3686 H   0  0  0  0  0  0  0  0  0  0  0  0
   -8.7724   15.1059  -35.3002 H   0  0  0  0  0  0  0  0  0  0  0  0
   -8.6920   16.1077  -36.7580 H   0  0  0  0  0  0  0  0  0  0  0  0
  -12.5314   14.1867  -40.5608 H   0  0  0  0  0  0  0  0  0  0  0  0
  -14.0721   14.9517  -40.2543 H   0  0  0  0  0  0  0  0  0  0  0  0
  -14.1503   17.0851  -38.9694 H   0  0  0  0  0  0  0  0  0  0  0  0
  -12.7311   17.5923  -38.0928 H   0  0  0  0  0  0  0  0  0  0  0  0
   -8.6111   14.3057  -38.1118 H   0  0  0  0  0  0  0  0  0  0  0  0
   -8.4738   13.2654  -36.7100 H   0  0  0  0  0  0  0  0  0  0  0  0
  -10.5474   16.5082  -38.5881 H   0  0  0  0  0  0  0  0  0  0  0  0
  -10.5475   15.0074  -39.4624 H   0  0  0  0  0  0  0  0  0  0  0  0
  -13.1243   13.9209  -36.4047 H   0  0  0  0  0  0  0  0  0  0  0  0
  -11.0685   15.0165  -35.2366 H   0  0  0  0  0  0  0  0  0  0  0  0
  -11.8689   12.1705  -36.7539 H   0  0  0  0  0  0  0  0  0  0  0  0
  -10.1483   11.6632  -36.6605 H   0  0  0  0  0  0  0  0  0  0  0  0
  -10.7917   12.8748  -35.5009 H   0  0  0  0  0  0  0  0  0  0  0  0
  -11.9087   17.1039  -35.7774 H   0  0  0  0  0  0  0  0  0  0  0  0
  -10.4095   17.2329  -35.1432 H   0  0  0  0  0  0  0  0  0  0  0  0
  1  4  1  0  0  0  0
  1  8  1  0  0  0  0
  2  5  1  0  0  0  0
  2  8  1  0  0  0  0
  3  6  1  0  0  0  0
  3  9  1  0  0  0  0
  4 12  1  0  0  0  0
  5 12  1  0  0  0  0
  6 13  1  0  0  0  0
  7 10  1  0  0  0  0
  7 12  1  0  0  0  0
  8 10  1  0  0  0  0
  9 10  1  0  0  0  0
  9 14  1  0  0  0  0
 10 13  1  0  0  0  0
 11 13  1  0  0  0  0
  1 15  1  0  0  0  0
  1 16  1  0  0  0  0
  2 17  1  0  0  0  0
  2 18  1  0  0  0  0
  3 19  1  0  0  0  0
  3 20  1  0  0  0  0
  4 21  1  0  0  0  0
  4 22  1  0  0  0  0
  5 23  1  0  0  0  0
  5 24  1  0  0  0  0
  6 25  1  0  0  0  0
  6 26  1  0  0  0  0
  7 27  1  0  0  0  0
  7 28  1  0  0  0  0
  8 29  1  0  0  0  0
  9 30  1  0  0  0  0
 11 31  1  0  0  0  0
 11 32  1  0  0  0  0
 11 33  1  0  0  0  0
 14 34  1  0  0  0  0
 14 35  1  0  0  0  0
M  END
> <id>
EN300-785576

> <smiles>
CN1CCC(N)C21CN3CCC2CC3

> <IUPAC Name>
1'-methyl-4-azaspiro[bicyclo[2.2.2]octane-2,2'-pyrrolidine]-3'-amine

> <CAS>
2137488-83-4

> <URL>
https://www.enaminestore.com/catalog/EN300-785576

> <ROCS_ShapeQuery>
x1247relevant_x1083L0AP1_x1305L0BP1_

> <ROCS_TanimotoCombo>
0.800 

> <ROCS_ShapeTanimoto>
0.492 

> <ROCS_ColorTanimoto>
0.308 

> <ROCS_RefTversky>
0.414 

> <ROCS_RefColorTversky>
0.364 

> <ROCS_RefTverskyCombo>
0.777 

> <ROCS_FitTversky>
1.631 

> <ROCS_FitColorTversky>
0.668 

> <ROCS_FitTverskyCombo>
2.298 

> <ROCS_ColorScore>
-7.748

> <ROCS_Overlap>
1216.973

> <ROCS_Rank>
334                 

$$$$
untitled-dbase-12355_1
  -OEChem-06162310163D

 31 34  0     1  0  0  0  0  0999 V2000
  -12.9259   13.9806  -36.9816 C   0  0  0  0  0  0  0  0  0  0  0  0
  -10.4871   14.4188  -36.5491 C   0  0  0  0  0  0  0  0  0  0  0  0
  -13.9777   14.4789  -37.6623 C   0  0  0  0  0  0  0  0  0  0  0  0
  -11.6316   14.5820  -37.2003 C   0  0  0  0  0  0  0  0  0  0  0  0
   -9.5763   15.4347  -37.0972 C   0  0  0  0  0  0  0  0  0  0  0  0
  -11.4602   17.1449  -41.1678 C   0  0  0  0  0  0  0  0  0  0  0  0
  -12.9795   17.1728  -41.3373 C   0  0  0  0  0  0  0  0  0  0  0  0
  -10.9354   15.7612  -40.8058 C   0  0  0  0  0  0  0  0  0  0  0  0
  -12.6894   16.5795  -38.0689 C   0  0  0  0  0  0  0  0  0  0  0  0
  -13.6410   15.8181  -41.0890 C   0  0  0  0  0  0  0  0  0  0  0  0
  -13.7905   15.6610  -38.6192 C   0  0  1  0  0  0  0  0  0  0  0  0
  -11.7328   15.0713  -39.6864 C   0  0  1  0  0  0  0  0  0  0  0  0
  -11.5116   15.6372  -38.2567 C   0  0  2  0  0  0  0  0  0  0  0  0
  -13.2122   15.1259  -39.8760 N   0  0  2  0  0  0  0  0  0  0  0  0
   -8.4204   15.5939  -36.7424 O   0  0  0  0  0  0  0  0  0  0  0  0
  -10.2320   16.1948  -38.0315 O   0  0  0  0  0  0  0  0  0  0  0  0
  -13.0356   13.1608  -36.2831 H   0  0  0  0  0  0  0  0  0  0  0  0
  -10.2628   13.7606  -35.7282 H   0  0  0  0  0  0  0  0  0  0  0  0
  -14.9659   14.0495  -37.5467 H   0  0  0  0  0  0  0  0  0  0  0  0
  -10.9907   17.4844  -42.1007 H   0  0  0  0  0  0  0  0  0  0  0  0
  -11.1566   17.8634  -40.3958 H   0  0  0  0  0  0  0  0  0  0  0  0
  -13.4116   17.9216  -40.6592 H   0  0  0  0  0  0  0  0  0  0  0  0
  -13.2203   17.5165  -42.3542 H   0  0  0  0  0  0  0  0  0  0  0  0
  -10.9373   15.1258  -41.7132 H   0  0  0  0  0  0  0  0  0  0  0  0
   -9.8671   15.8456  -40.5207 H   0  0  0  0  0  0  0  0  0  0  0  0
  -12.5713   17.5005  -38.6526 H   0  0  0  0  0  0  0  0  0  0  0  0
  -12.8491   16.8783  -37.0253 H   0  0  0  0  0  0  0  0  0  0  0  0
  -14.7531   15.9467  -41.1075 H   0  0  0  0  0  0  0  0  0  0  0  0
  -13.4311   15.1638  -41.9698 H   0  0  0  0  0  0  0  0  0  0  0  0
  -14.7433   16.1816  -38.7453 H   0  0  0  0  0  0  0  0  0  0  0  0
  -11.4490   13.9921  -39.7071 H   0  0  0  0  0  0  0  0  0  0  0  0
  1  3  2  0  0  0  0
  1  4  1  0  0  0  0
  2  4  2  0  0  0  0
  2  5  1  0  0  0  0
  3 11  1  0  0  0  0
  4 13  1  0  0  0  0
  5 15  2  0  0  0  0
  5 16  1  0  0  0  0
  6  7  1  0  0  0  0
  6  8  1  0  0  0  0
  7 10  1  0  0  0  0
  8 12  1  0  0  0  0
  9 11  1  0  0  0  0
  9 13  1  0  0  0  0
 10 14  1  0  0  0  0
 11 14  1  0  0  0  0
 12 13  1  0  0  0  0
 12 14  1  0  0  0  0
 13 16  1  0  0  0  0
  1 17  1  0  0  0  0
  2 18  1  0  0  0  0
  3 19  1  0  0  0  0
  6 20  1  0  0  0  0
  6 21  1  0  0  0  0
  7 22  1  0  0  0  0
  7 23  1  0  0  0  0
  8 24  1  0  0  0  0
  8 25  1  0  0  0  0
  9 26  1  0  0  0  0
  9 27  1  0  0  0  0
 10 28  1  0  0  0  0
 10 29  1  0  0  0  0
 11 30  1  0  0  0  0
 12 31  1  0  0  0  0
M  END
> <id>
EN300-295530

> <smiles>
O=C1OC2(CC3C=CC2=C1)C4CCCCN34

> <MDLNUMBER>
MFCD00063360

> <IUPAC Name>
14-oxa-7-azatetracyclo[6.6.1.0^{1,11}.0^{2,7}]pentadeca-9,11-dien-13-one

> <CAS>
1071758-20-7

> <URL>
https://www.enaminestore.com/catalog/EN300-295530

> <ROCS_ShapeQuery>
x1247relevant_x1083L0AP1_x1305L0BP1_

> <ROCS_TanimotoCombo>
0.800 

> <ROCS_ShapeTanimoto>
0.524 

> <ROCS_ColorTanimoto>
0.276 

> <ROCS_RefTversky>
0.446 

> <ROCS_RefColorTversky>
0.323 

> <ROCS_RefTverskyCombo>
0.768 

> <ROCS_FitTversky>
1.507 

> <ROCS_FitColorTversky>
0.656 

> <ROCS_FitTverskyCombo>
2.163 

> <ROCS_ColorScore>
-6.857

> <ROCS_Overlap>
1313.989

> <ROCS_Rank>
335                 

$$$$
untitled-dbase-35552_17
  -OEChem-06162310163D

 37 39  0     1  0  0  0  0  0999 V2000
   -8.9924   14.6869  -37.4970 C   0  0  0  0  0  0  0  0  0  0  0  0
  -10.0464   15.7415  -37.8383 C   0  0  0  0  0  0  0  0  0  0  0  0
  -14.1113   14.9490  -38.5986 C   0  0  0  0  0  0  0  0  0  0  0  0
  -14.1980   17.3776  -39.2996 C   0  0  0  0  0  0  0  0  0  0  0  0
  -11.9110   15.4654  -36.1439 C   0  0  0  0  0  0  0  0  0  0  0  0
  -13.2184   13.7378  -38.3444 C   0  0  0  0  0  0  0  0  0  0  0  0
   -9.2477   13.8115  -36.2801 C   0  0  0  0  0  0  0  0  0  0  0  0
  -13.4109   18.2080  -40.2918 C   0  0  0  0  0  0  0  0  0  0  0  0
  -11.2643   14.4506  -35.2101 C   0  0  0  0  0  0  0  0  0  0  0  0
  -12.8240   15.9674  -40.5827 C   0  0  0  0  0  0  0  0  0  0  0  0
  -13.3322   16.1368  -39.1519 C   0  0  2  0  0  0  0  0  0  0  0  0
  -11.5385   15.3810  -37.6452 C   0  0  2  0  0  0  0  0  0  0  0  0
  -11.8007   14.0600  -38.2290 N   0  0  0  0  0  0  0  0  0  0  0  0
   -9.8437   14.5318  -35.2120 O   0  0  0  0  0  0  0  0  0  0  0  0
  -12.7423   17.2849  -41.1582 O   0  0  0  0  0  0  0  0  0  0  0  0
  -12.2442   16.4772  -38.2836 O   0  0  0  0  0  0  0  0  0  0  0  0
   -8.8695   14.0285  -38.3836 H   0  0  0  0  0  0  0  0  0  0  0  0
   -8.0095   15.1936  -37.3785 H   0  0  0  0  0  0  0  0  0  0  0  0
   -9.8070   16.6169  -37.2032 H   0  0  0  0  0  0  0  0  0  0  0  0
   -9.8702   16.0826  -38.8771 H   0  0  0  0  0  0  0  0  0  0  0  0
  -14.8958   14.6550  -39.3186 H   0  0  0  0  0  0  0  0  0  0  0  0
  -14.6405   15.2193  -37.6697 H   0  0  0  0  0  0  0  0  0  0  0  0
  -14.3952   17.9271  -38.3799 H   0  0  0  0  0  0  0  0  0  0  0  0
  -15.1662   17.1134  -39.7435 H   0  0  0  0  0  0  0  0  0  0  0  0
  -12.9992   15.3723  -36.0497 H   0  0  0  0  0  0  0  0  0  0  0  0
  -11.6856   16.4573  -35.7429 H   0  0  0  0  0  0  0  0  0  0  0  0
  -13.5697   13.1765  -37.4449 H   0  0  0  0  0  0  0  0  0  0  0  0
  -13.3472   13.0147  -39.1834 H   0  0  0  0  0  0  0  0  0  0  0  0
   -9.8309   12.9017  -36.5369 H   0  0  0  0  0  0  0  0  0  0  0  0
   -8.2741   13.4419  -35.9052 H   0  0  0  0  0  0  0  0  0  0  0  0
  -14.0505   18.8695  -40.8825 H   0  0  0  0  0  0  0  0  0  0  0  0
  -12.6459   18.8147  -39.7983 H   0  0  0  0  0  0  0  0  0  0  0  0
  -11.5823   14.6310  -34.1933 H   0  0  0  0  0  0  0  0  0  0  0  0
  -11.5669   13.4450  -35.4729 H   0  0  0  0  0  0  0  0  0  0  0  0
  -11.8321   15.5071  -40.6361 H   0  0  0  0  0  0  0  0  0  0  0  0
  -13.5183   15.3896  -41.2035 H   0  0  0  0  0  0  0  0  0  0  0  0
  -11.3226   13.3299  -37.6995 H   0  0  0  0  0  0  0  0  0  0  0  0
  1  2  1  0  0  0  0
  1  7  1  0  0  0  0
  2 12  1  0  0  0  0
  3  6  1  0  0  0  0
  3 11  1  0  0  0  0
  4  8  1  0  0  0  0
  4 11  1  0  0  0  0
  5  9  1  0  0  0  0
  5 12  1  0  0  0  0
  6 13  1  0  0  0  0
  7 14  1  0  0  0  0
  8 15  1  0  0  0  0
  9 14  1  0  0  0  0
 10 11  1  0  0  0  0
 10 15  1  0  0  0  0
 11 16  1  0  0  0  0
 12 13  1  0  0  0  0
 12 16  1  0  0  0  0
  1 17  1  0  0  0  0
  1 18  1  0  0  0  0
  2 19  1  0  0  0  0
  2 20  1  0  0  0  0
  3 21  1  0  0  0  0
  3 22  1  0  0  0  0
  4 23  1  0  0  0  0
  4 24  1  0  0  0  0
  5 25  1  0  0  0  0
  5 26  1  0  0  0  0
  6 27  1  0  0  0  0
  6 28  1  0  0  0  0
  7 29  1  0  0  0  0
  7 30  1  0  0  0  0
  8 31  1  0  0  0  0
  8 32  1  0  0  0  0
  9 33  1  0  0  0  0
  9 34  1  0  0  0  0
 10 35  1  0  0  0  0
 10 36  1  0  0  0  0
 13 37  1  0  0  0  0
M  END
> <id>
EN300-1280327

> <smiles>
C1CC2(CO1)CCNC3(CCCOCC3)O2

> <IUPAC Name>
2,6,10-trioxa-14-azadispiro[4.1.6^{7}.3^{5}]hexadecane

> <CAS>
2166710-81-0

> <URL>
https://www.enaminestore.com/catalog/EN300-1280327

> <ROCS_ShapeQuery>
x1247relevant_x1083L0AP1_x1305L0BP1_

> <ROCS_TanimotoCombo>
0.800 

> <ROCS_ShapeTanimoto>
0.470 

> <ROCS_ColorTanimoto>
0.330 

> <ROCS_RefTversky>
0.410 

> <ROCS_RefColorTversky>
0.350 

> <ROCS_RefTverskyCombo>
0.760 

> <ROCS_FitTversky>
1.453 

> <ROCS_FitColorTversky>
0.853 

> <ROCS_FitTverskyCombo>
2.306 

> <ROCS_ColorScore>
-7.415

> <ROCS_Overlap>
1206.907

> <ROCS_Rank>
336                 

$$$$
untitled-dbase-24053_0
  -OEChem-06162310163D

 44 47  0     1  0  0  0  0  0999 V2000
  -11.1117   12.0010  -36.9241 C   0  0  0  0  0  0  0  0  0  0  0  0
  -14.6828   14.6469  -38.3261 C   0  0  0  0  0  0  0  0  0  0  0  0
  -12.5373   11.4763  -36.9757 C   0  0  0  0  0  0  0  0  0  0  0  0
  -14.3067   15.8561  -39.3368 C   0  0  0  0  0  0  0  0  0  0  0  0
  -11.0130   13.4804  -36.5179 C   0  0  1  0  0  0  0  0  0  0  0  0
  -13.4066   13.7451  -37.6452 C   0  0  1  0  0  0  0  0  0  0  0  0
  -13.4014   12.2317  -37.9946 C   0  0  2  0  0  0  0  0  0  0  0  0
   -9.5251   13.9407  -36.3260 C   0  0  2  0  0  0  0  0  0  0  0  0
  -10.8219   15.0747  -38.5701 C   0  0  2  0  0  0  0  0  0  0  0  0
   -9.3962   15.4399  -36.6250 C   0  0  2  0  0  0  0  0  0  0  0  0
  -11.8439   14.3850  -37.4727 C   0  0  2  0  0  0  0  0  0  0  0  0
  -12.8228   15.7396  -39.2241 C   0  0  1  0  0  0  0  0  0  0  0  0
  -14.7959   11.5947  -38.0069 C   0  0  0  0  0  0  0  0  0  0  0  0
   -8.4788   13.1367  -37.1214 C   0  0  0  0  0  0  0  0  0  0  0  0
  -12.7872   14.4366  -40.2090 C   0  0  0  0  0  0  0  0  0  0  0  0
   -9.6919   15.7444  -37.9812 O   0  0  0  0  0  0  0  0  0  0  0  0
  -11.5111   16.0814  -39.4358 O   0  0  0  0  0  0  0  0  0  0  0  0
  -12.2113   15.5925  -36.8367 O   0  0  0  0  0  0  0  0  0  0  0  0
  -12.9704   16.2837  -37.8538 O   0  0  0  0  0  0  0  0  0  0  0  0
   -8.0689   15.8666  -36.3127 O   0  0  0  0  0  0  0  0  0  0  0  0
  -10.5550   11.3883  -36.2047 H   0  0  0  0  0  0  0  0  0  0  0  0
  -10.6546   11.8458  -37.9086 H   0  0  0  0  0  0  0  0  0  0  0  0
  -15.2303   15.0915  -37.4826 H   0  0  0  0  0  0  0  0  0  0  0  0
  -15.4023   13.9936  -38.8249 H   0  0  0  0  0  0  0  0  0  0  0  0
  -12.5055   10.4111  -37.2376 H   0  0  0  0  0  0  0  0  0  0  0  0
  -12.9869   11.5381  -35.9762 H   0  0  0  0  0  0  0  0  0  0  0  0
  -14.7375   15.7110  -40.3356 H   0  0  0  0  0  0  0  0  0  0  0  0
  -14.7439   16.8012  -38.9826 H   0  0  0  0  0  0  0  0  0  0  0  0
  -11.4738   13.5791  -35.5232 H   0  0  0  0  0  0  0  0  0  0  0  0
  -13.7568   13.7514  -36.5957 H   0  0  0  0  0  0  0  0  0  0  0  0
  -12.9644   12.0702  -38.9839 H   0  0  0  0  0  0  0  0  0  0  0  0
   -9.2666   13.7845  -35.2690 H   0  0  0  0  0  0  0  0  0  0  0  0
  -10.3865   14.3113  -39.2220 H   0  0  0  0  0  0  0  0  0  0  0  0
  -10.0585   16.0139  -35.9683 H   0  0  0  0  0  0  0  0  0  0  0  0
  -15.2672   11.7334  -37.0375 H   0  0  0  0  0  0  0  0  0  0  0  0
  -14.7079   10.5320  -38.2169 H   0  0  0  0  0  0  0  0  0  0  0  0
  -15.4037   12.0657  -38.7749 H   0  0  0  0  0  0  0  0  0  0  0  0
   -8.6761   13.2473  -38.1818 H   0  0  0  0  0  0  0  0  0  0  0  0
   -8.5467   12.0911  -36.8426 H   0  0  0  0  0  0  0  0  0  0  0  0
   -7.4891   13.5149  -36.8906 H   0  0  0  0  0  0  0  0  0  0  0  0
  -11.7634   14.1785  -40.2663 H   0  0  0  0  0  0  0  0  0  0  0  0
  -13.1953   14.7850  -41.1202 H   0  0  0  0  0  0  0  0  0  0  0  0
  -13.3858   13.7180  -39.7155 H   0  0  0  0  0  0  0  0  0  0  0  0
   -8.0321   16.8132  -36.5152 H   0  0  0  0  0  0  0  0  0  0  0  0
  1  3  1  0  0  0  0
  1  5  1  1  0  0  0
  2  4  1  0  0  0  0
  2  6  1  1  0  0  0
  3  7  1  0  0  0  0
  4 12  1  0  0  0  0
  5  8  1  0  0  0  0
  5 11  1  0  0  0  0
  6  7  1  0  0  0  0
  6 11  1  0  0  0  0
  7 13  1  6  0  0  0
  8 10  1  0  0  0  0
  8 14  1  1  0  0  0
  9 11  1  0  0  0  0
  9 16  1  6  0  0  0
  9 17  1  0  0  0  0
 10 16  1  0  0  0  0
 10 20  1  1  0  0  0
 11 18  1  6  0  0  0
 12 15  1  6  0  0  0
 12 17  1  0  0  0  0
 12 19  1  0  0  0  0
 18 19  1  0  0  0  0
  1 21  1  0  0  0  0
  1 22  1  0  0  0  0
  2 23  1  0  0  0  0
  2 24  1  0  0  0  0
  3 25  1  0  0  0  0
  3 26  1  0  0  0  0
  4 27  1  0  0  0  0
  4 28  1  0  0  0  0
  5 29  1  0  0  0  0
  6 30  1  0  0  0  0
  7 31  1  0  0  0  0
  8 32  1  0  0  0  0
  9 33  1  0  0  0  0
 10 34  1  0  0  0  0
 13 35  1  0  0  0  0
 13 36  1  0  0  0  0
 13 37  1  0  0  0  0
 14 38  1  0  0  0  0
 14 39  1  0  0  0  0
 14 40  1  0  0  0  0
 15 41  1  0  0  0  0
 15 42  1  0  0  0  0
 15 43  1  0  0  0  0
 20 44  1  0  0  0  0
M  END
> <id>
EN300-19873907

> <smiles>
C[C@@H]1CC[C@H]2[C@@H](C)[C@@H](O)O[C@@H]3O[C@]4(C)CC[C@@H]1[C@@]23OO4

> <IUPAC Name>
(1S,4S,5R,8S,9R,10S,12R,13R)-1,5,9-trimethyl-11,14,15,16-tetraoxatetracyclo[10.3.1.0^{4,13}.0^{8,13}]hexadecan-10-ol

> <CAS>
1279039-00-7

> <URL>
https://www.enaminestore.com/catalog/EN300-19873907

> <ROCS_ShapeQuery>
x1247relevant_x1083L0AP1_x1305L0BP1_

> <ROCS_TanimotoCombo>
0.800 

> <ROCS_ShapeTanimoto>
0.528 

> <ROCS_ColorTanimoto>
0.272 

> <ROCS_RefTversky>
0.465 

> <ROCS_RefColorTversky>
0.336 

> <ROCS_RefTverskyCombo>
0.801 

> <ROCS_FitTversky>
1.346 

> <ROCS_FitColorTversky>
0.587 

> <ROCS_FitTverskyCombo>
1.932 

> <ROCS_ColorScore>
-7.163

> <ROCS_Overlap>
1375.795

> <ROCS_Rank>
337                 

$$$$
untitled-dbase-18296_2
  -OEChem-06162310163D

 33 35  0     1  0  0  0  0  0999 V2000
   -9.4307   13.3212  -37.4493 C   0  0  0  0  0  0  0  0  0  0  0  0
   -8.5720   14.1761  -36.5446 C   0  0  0  0  0  0  0  0  0  0  0  0
   -8.7114   15.6668  -36.7739 C   0  0  0  0  0  0  0  0  0  0  0  0
   -9.8599   16.2743  -35.9788 C   0  0  0  0  0  0  0  0  0  0  0  0
  -13.4163   14.6052  -39.5917 C   0  0  0  0  0  0  0  0  0  0  0  0
  -11.9860   15.1280  -39.7757 C   0  0  0  0  0  0  0  0  0  0  0  0
  -11.1306   15.4281  -35.9236 C   0  0  0  0  0  0  0  0  0  0  0  0
  -13.0595   16.4776  -38.1648 C   0  0  0  0  0  0  0  0  0  0  0  0
  -13.0698   14.3342  -37.1244 C   0  0  0  0  0  0  0  0  0  0  0  0
  -13.8042   15.1473  -38.2066 C   0  0  2  0  0  0  0  0  0  0  0  0
  -11.6956   15.8284  -38.4310 C   0  0  1  0  0  0  0  0  0  0  0  0
  -11.5767   14.7939  -37.2592 C   0  0  1  0  0  0  0  0  0  0  0  0
  -10.7573   13.6172  -37.6227 N   0  0  0  0  0  0  0  0  0  0  0  0
   -8.9412   12.3098  -37.9652 O   0  0  0  0  0  0  0  0  0  0  0  0
   -8.8899   13.9522  -35.5090 H   0  0  0  0  0  0  0  0  0  0  0  0
   -7.5230   13.8392  -36.5971 H   0  0  0  0  0  0  0  0  0  0  0  0
   -7.7792   16.1860  -36.5356 H   0  0  0  0  0  0  0  0  0  0  0  0
   -8.9141   15.8376  -37.8353 H   0  0  0  0  0  0  0  0  0  0  0  0
   -9.5119   16.4219  -34.9459 H   0  0  0  0  0  0  0  0  0  0  0  0
  -10.0864   17.2806  -36.3557 H   0  0  0  0  0  0  0  0  0  0  0  0
  -14.0696   15.0143  -40.3703 H   0  0  0  0  0  0  0  0  0  0  0  0
  -13.4654   13.5129  -39.6437 H   0  0  0  0  0  0  0  0  0  0  0  0
  -11.2795   14.3321  -40.0246 H   0  0  0  0  0  0  0  0  0  0  0  0
  -11.9599   15.8556  -40.5958 H   0  0  0  0  0  0  0  0  0  0  0  0
  -11.0018   14.6398  -35.1755 H   0  0  0  0  0  0  0  0  0  0  0  0
  -11.9216   16.0751  -35.5356 H   0  0  0  0  0  0  0  0  0  0  0  0
  -13.3694   17.1677  -38.9572 H   0  0  0  0  0  0  0  0  0  0  0  0
  -13.1297   16.9870  -37.2000 H   0  0  0  0  0  0  0  0  0  0  0  0
  -13.4790   14.5757  -36.1359 H   0  0  0  0  0  0  0  0  0  0  0  0
  -13.2140   13.2582  -37.2723 H   0  0  0  0  0  0  0  0  0  0  0  0
  -14.8831   15.2058  -38.0484 H   0  0  0  0  0  0  0  0  0  0  0  0
  -10.8783   16.5463  -38.5037 H   0  0  0  0  0  0  0  0  0  0  0  0
  -11.2720   12.8773  -38.1367 H   0  0  0  0  0  0  0  0  0  0  0  0
  1  2  1  0  0  0  0
  1 13  1  0  0  0  0
  1 14  2  0  0  0  0
  2  3  1  0  0  0  0
  3  4  1  0  0  0  0
  4  7  1  0  0  0  0
  5  6  1  0  0  0  0
  5 10  1  0  0  0  0
  6 11  1  0  0  0  0
  7 12  1  0  0  0  0
  8 10  1  0  0  0  0
  8 11  1  0  0  0  0
  9 10  1  0  0  0  0
  9 12  1  0  0  0  0
 11 12  1  0  0  0  0
 12 13  1  0  0  0  0
  2 15  1  0  0  0  0
  2 16  1  0  0  0  0
  3 17  1  0  0  0  0
  3 18  1  0  0  0  0
  4 19  1  0  0  0  0
  4 20  1  0  0  0  0
  5 21  1  0  0  0  0
  5 22  1  0  0  0  0
  6 23  1  0  0  0  0
  6 24  1  0  0  0  0
  7 25  1  0  0  0  0
  7 26  1  0  0  0  0
  8 27  1  0  0  0  0
  8 28  1  0  0  0  0
  9 29  1  0  0  0  0
  9 30  1  0  0  0  0
 10 31  1  0  0  0  0
 11 32  1  0  0  0  0
 13 33  1  0  0  0  0
M  END
> <id>
EN300-1628995

> <smiles>
O=C1CCCCC2(CC3CCC2C3)N1

> <IUPAC Name>
spiro[azepane-2,2'-bicyclo[2.2.1]heptane]-7-one

> <CAS>
2172570-89-5

> <URL>
https://www.enaminestore.com/catalog/EN300-1628995

> <ROCS_ShapeQuery>
x1247relevant_x1083L0AP1_x1305L0BP1_

> <ROCS_TanimotoCombo>
0.800 

> <ROCS_ShapeTanimoto>
0.474 

> <ROCS_ColorTanimoto>
0.326 

> <ROCS_RefTversky>
0.403 

> <ROCS_RefColorTversky>
0.361 

> <ROCS_RefTverskyCombo>
0.764 

> <ROCS_FitTversky>
1.593 

> <ROCS_FitColorTversky>
0.772 

> <ROCS_FitTverskyCombo>
2.365 

> <ROCS_ColorScore>
-7.660

> <ROCS_Overlap>
1184.499

> <ROCS_Rank>
338                 

$$$$
untitled-dbase-45269_29
  -OEChem-06162310163D

 33 34  0     1  0  0  0  0  0999 V2000
  -12.5078   16.1733  -39.7414 C   0  0  0  0  0  0  0  0  0  0  0  0
  -10.3794   14.6081  -36.6907 C   0  0  0  0  0  0  0  0  0  0  0  0
  -11.8369   14.8149  -39.6389 C   0  0  0  0  0  0  0  0  0  0  0  0
  -13.6819   14.1224  -38.1588 C   0  0  0  0  0  0  0  0  0  0  0  0
  -12.6531   15.7200  -36.7048 C   0  0  0  0  0  0  0  0  0  0  0  0
  -12.1743   14.0516  -38.3598 C   0  0  2  0  0  0  0  0  0  0  0  0
  -13.7788   15.5778  -37.7269 C   0  0  1  0  0  0  0  0  0  0  0  0
   -7.5892   15.2150  -36.5758 C   0  0  0  0  0  0  0  0  0  0  0  0
   -7.5175   14.4749  -38.9751 C   0  0  0  0  0  0  0  0  0  0  0  0
   -8.9160   16.4551  -38.3183 C   0  0  0  0  0  0  0  0  0  0  0  0
   -8.3803   15.0936  -37.8774 C   0  0  0  0  0  0  0  0  0  0  0  0
  -11.6522   14.7814  -37.2027 N   0  0  0  0  0  0  0  0  0  0  0  0
  -12.1967   16.9733  -40.6206 O   0  0  0  0  0  0  0  0  0  0  0  0
  -10.0779   14.7837  -35.5125 O   0  0  0  0  0  0  0  0  0  0  0  0
  -13.5061   16.4448  -38.8565 O   0  0  0  0  0  0  0  0  0  0  0  0
   -9.4905   14.2169  -37.6558 O   0  0  0  0  0  0  0  0  0  0  0  0
  -12.1663   14.2297  -40.5055 H   0  0  0  0  0  0  0  0  0  0  0  0
  -10.7533   14.9592  -39.7149 H   0  0  0  0  0  0  0  0  0  0  0  0
  -14.2417   13.9081  -39.0746 H   0  0  0  0  0  0  0  0  0  0  0  0
  -14.0100   13.4450  -37.3625 H   0  0  0  0  0  0  0  0  0  0  0  0
  -12.2264   16.7260  -36.6524 H   0  0  0  0  0  0  0  0  0  0  0  0
  -12.9555   15.3856  -35.7073 H   0  0  0  0  0  0  0  0  0  0  0  0
  -11.7806   13.0313  -38.3892 H   0  0  0  0  0  0  0  0  0  0  0  0
  -14.7594   15.8403  -37.3215 H   0  0  0  0  0  0  0  0  0  0  0  0
   -8.2051   15.6587  -35.7854 H   0  0  0  0  0  0  0  0  0  0  0  0
   -7.2291   14.2404  -36.2303 H   0  0  0  0  0  0  0  0  0  0  0  0
   -6.7256   15.8776  -36.7034 H   0  0  0  0  0  0  0  0  0  0  0  0
   -8.0811   14.3860  -39.9108 H   0  0  0  0  0  0  0  0  0  0  0  0
   -7.2089   13.4591  -38.7029 H   0  0  0  0  0  0  0  0  0  0  0  0
   -6.6191   15.0706  -39.1667 H   0  0  0  0  0  0  0  0  0  0  0  0
   -9.4835   16.3683  -39.2519 H   0  0  0  0  0  0  0  0  0  0  0  0
   -9.5674   16.8977  -37.5578 H   0  0  0  0  0  0  0  0  0  0  0  0
   -8.0934   17.1507  -38.5200 H   0  0  0  0  0  0  0  0  0  0  0  0
  1  3  1  0  0  0  0
  1 13  2  0  0  0  0
  1 15  1  0  0  0  0
  2 12  1  0  0  0  0
  2 14  2  0  0  0  0
  2 16  1  0  0  0  0
  3  6  1  6  0  0  0
  4  6  1  0  0  0  0
  4  7  1  0  0  0  0
  5  7  1  6  0  0  0
  5 12  1  0  0  0  0
  6 12  1  0  0  0  0
  7 15  1  0  0  0  0
  8 11  1  0  0  0  0
  9 11  1  0  0  0  0
 10 11  1  0  0  0  0
 11 16  1  0  0  0  0
  3 17  1  0  0  0  0
  3 18  1  0  0  0  0
  4 19  1  0  0  0  0
  4 20  1  0  0  0  0
  5 21  1  0  0  0  0
  5 22  1  0  0  0  0
  6 23  1  0  0  0  0
  7 24  1  0  0  0  0
  8 25  1  0  0  0  0
  8 26  1  0  0  0  0
  8 27  1  0  0  0  0
  9 28  1  0  0  0  0
  9 29  1  0  0  0  0
  9 30  1  0  0  0  0
 10 31  1  0  0  0  0
 10 32  1  0  0  0  0
 10 33  1  0  0  0  0
M  END
> <id>
EN300-28258365

> <smiles>
CC(C)(C)OC(=O)N1C[C@@H]2C[C@H]1CC(=O)O2

> <MDLNUMBER>
MFCD34183863

> <IUPAC Name>
tert-butyl (1S,5S)-3-oxo-2-oxa-6-azabicyclo[3.2.1]octane-6-carboxylate

> <CAS>
2679950-95-7

> <Purity>
95

> <URL>
https://www.enaminestore.com/catalog/EN300-28258365

> <ROCS_ShapeQuery>
x1247relevant_x1083L0AP1_x1305L0BP1_

> <ROCS_TanimotoCombo>
0.800 

> <ROCS_ShapeTanimoto>
0.489 

> <ROCS_ColorTanimoto>
0.311 

> <ROCS_RefTversky>
0.422 

> <ROCS_RefColorTversky>
0.344 

> <ROCS_RefTverskyCombo>
0.765 

> <ROCS_FitTversky>
1.482 

> <ROCS_FitColorTversky>
0.766 

> <ROCS_FitTverskyCombo>
2.248 

> <ROCS_ColorScore>
-7.289

> <ROCS_Overlap>
1242.661

> <ROCS_Rank>
339                 

$$$$
untitled-dbase-25008_4
  -OEChem-06162310163D

 36 38  0     1  0  0  0  0  0999 V2000
   -9.3505   15.6931  -35.9160 C   0  0  0  0  0  0  0  0  0  0  0  0
  -14.5825   15.2793  -38.4269 C   0  0  0  0  0  0  0  0  0  0  0  0
  -13.9287   16.5738  -38.8966 C   0  0  0  0  0  0  0  0  0  0  0  0
   -8.8826   15.0469  -37.2200 C   0  0  0  0  0  0  0  0  0  0  0  0
  -10.8401   15.3813  -35.7903 C   0  0  0  0  0  0  0  0  0  0  0  0
  -12.6482   14.2339  -37.1685 C   0  0  0  0  0  0  0  0  0  0  0  0
  -11.5362   16.3480  -38.0546 C   0  0  0  0  0  0  0  0  0  0  0  0
  -13.4537   14.2437  -38.4916 C   0  0  2  0  0  0  0  0  0  0  0  0
  -12.4931   16.1708  -39.2615 C   0  0  1  0  0  0  0  0  0  0  0  0
  -10.0828   14.2515  -37.7625 C   0  0  2  0  0  0  0  0  0  0  0  0
  -11.3212   15.0420  -37.2170 C   0  0  0  0  0  0  0  0  0  0  0  0
  -13.0997   14.4630  -40.9063 C   0  0  0  0  0  0  0  0  0  0  0  0
  -12.5800   14.7338  -39.5699 N   0  0  0  0  0  0  0  0  0  0  0  0
   -9.9804   12.8800  -37.2548 N   0  0  0  0  0  0  0  0  0  0  0  0
   -8.7863   15.2845  -35.0692 H   0  0  0  0  0  0  0  0  0  0  0  0
   -9.1813   16.7762  -35.9267 H   0  0  0  0  0  0  0  0  0  0  0  0
  -15.0323   15.3622  -37.4358 H   0  0  0  0  0  0  0  0  0  0  0  0
  -15.3866   15.0064  -39.1196 H   0  0  0  0  0  0  0  0  0  0  0  0
  -14.4568   16.9475  -39.7819 H   0  0  0  0  0  0  0  0  0  0  0  0
  -13.9677   17.3621  -38.1396 H   0  0  0  0  0  0  0  0  0  0  0  0
   -8.5320   15.7978  -37.9446 H   0  0  0  0  0  0  0  0  0  0  0  0
   -8.0264   14.3830  -37.0162 H   0  0  0  0  0  0  0  0  0  0  0  0
  -11.0039   14.5914  -35.0564 H   0  0  0  0  0  0  0  0  0  0  0  0
  -11.3516   16.2757  -35.4122 H   0  0  0  0  0  0  0  0  0  0  0  0
  -13.2976   14.5908  -36.3626 H   0  0  0  0  0  0  0  0  0  0  0  0
  -12.4375   13.1830  -36.9423 H   0  0  0  0  0  0  0  0  0  0  0  0
  -10.5764   16.6842  -38.4508 H   0  0  0  0  0  0  0  0  0  0  0  0
  -11.9045   17.1518  -37.4173 H   0  0  0  0  0  0  0  0  0  0  0  0
  -13.8496   13.2451  -38.6687 H   0  0  0  0  0  0  0  0  0  0  0  0
  -12.1160   16.7711  -40.0948 H   0  0  0  0  0  0  0  0  0  0  0  0
  -10.0664   14.2395  -38.8156 H   0  0  0  0  0  0  0  0  0  0  0  0
  -12.3995   14.8546  -41.6589 H   0  0  0  0  0  0  0  0  0  0  0  0
  -13.2143   13.3775  -41.0420 H   0  0  0  0  0  0  0  0  0  0  0  0
  -14.0775   14.9526  -41.0255 H   0  0  0  0  0  0  0  0  0  0  0  0
  -10.7522   12.3575  -37.6001 H   0  0  0  0  0  0  0  0  0  0  0  0
   -9.1248   12.4888  -37.5755 H   0  0  0  0  0  0  0  0  0  0  0  0
  1  4  1  0  0  0  0
  1  5  1  0  0  0  0
  2  3  1  0  0  0  0
  2  8  1  0  0  0  0
  3  9  1  0  0  0  0
  4 10  1  0  0  0  0
  5 11  1  0  0  0  0
  6  8  1  0  0  0  0
  6 11  1  0  0  0  0
  7  9  1  0  0  0  0
  7 11  1  0  0  0  0
  8 13  1  0  0  0  0
  9 13  1  0  0  0  0
 10 11  1  0  0  0  0
 10 14  1  0  0  0  0
 12 13  1  0  0  0  0
  1 15  1  0  0  0  0
  1 16  1  0  0  0  0
  2 17  1  0  0  0  0
  2 18  1  0  0  0  0
  3 19  1  0  0  0  0
  3 20  1  0  0  0  0
  4 21  1  0  0  0  0
  4 22  1  0  0  0  0
  5 23  1  0  0  0  0
  5 24  1  0  0  0  0
  6 25  1  0  0  0  0
  6 26  1  0  0  0  0
  7 27  1  0  0  0  0
  7 28  1  0  0  0  0
  8 29  1  0  0  0  0
  9 30  1  0  0  0  0
 10 31  1  0  0  0  0
 12 32  1  0  0  0  0
 12 33  1  0  0  0  0
 12 34  1  0  0  0  0
 14 35  1  0  0  0  0
 14 36  1  0  0  0  0
M  END
> <id>
EN300-1461657

> <smiles>
CN1C2CCC1CC3(CCCC3N)C2

> <IUPAC Name>
8-methyl-8-azaspiro[bicyclo[3.2.1]octane-3,1'-cyclopentane]-2'-amine

> <CAS>
2169196-96-5

> <URL>
https://www.enaminestore.com/catalog/EN300-1461657

> <ROCS_ShapeQuery>
x1247relevant_x1083L0AP1_x1305L0BP1_

> <ROCS_TanimotoCombo>
0.800 

> <ROCS_ShapeTanimoto>
0.496 

> <ROCS_ColorTanimoto>
0.303 

> <ROCS_RefTversky>
0.415 

> <ROCS_RefColorTversky>
0.346 

> <ROCS_RefTverskyCombo>
0.761 

> <ROCS_FitTversky>
1.652 

> <ROCS_FitColorTversky>
0.709 

> <ROCS_FitTverskyCombo>
2.361 

> <ROCS_ColorScore>
-7.355

> <ROCS_Overlap>
1221.309

> <ROCS_Rank>
340                 

$$$$
untitled-dbase-43649_7
  -OEChem-06162310163D

 44 47  0     1  0  0  0  0  0999 V2000
   -8.9739   14.9782  -38.1381 C   0  0  0  0  0  0  0  0  0  0  0  0
  -12.8679   14.0841  -36.3200 C   0  0  0  0  0  0  0  0  0  0  0  0
   -8.9843   14.4161  -36.7196 C   0  0  0  0  0  0  0  0  0  0  0  0
  -14.1108   14.7882  -36.8783 C   0  0  0  0  0  0  0  0  0  0  0  0
  -10.0728   16.0351  -38.3071 C   0  0  1  0  0  0  0  0  0  0  0  0
  -11.5119   14.7825  -36.5816 C   0  0  1  0  0  0  0  0  0  0  0  0
  -10.3341   13.7951  -36.3411 C   0  0  2  0  0  0  0  0  0  0  0  0
  -10.1114   16.7462  -39.6892 C   0  0  2  0  0  0  0  0  0  0  0  0
  -11.8863   14.4477  -39.0925 C   0  0  2  0  0  0  0  0  0  0  0  0
  -11.0328   16.0524  -40.7184 C   0  0  1  0  0  0  0  0  0  0  0  0
  -11.4653   15.4514  -37.9866 C   0  0  2  0  0  0  0  0  0  0  0  0
  -14.0489   15.1236  -38.3852 C   0  0  2  0  0  0  0  0  0  0  0  0
  -10.2743   13.3095  -34.8876 C   0  0  0  0  0  0  0  0  0  0  0  0
   -8.7194   16.9862  -40.2849 C   0  0  0  0  0  0  0  0  0  0  0  0
  -15.4612   15.1071  -38.9711 C   0  0  0  0  0  0  0  0  0  0  0  0
  -11.3586   14.7114  -40.3938 O   0  0  0  0  0  0  0  0  0  0  0  0
  -13.2896   14.1695  -39.1181 O   0  0  0  0  0  0  0  0  0  0  0  0
  -12.3296   16.6044  -37.8542 O   0  0  0  0  0  0  0  0  0  0  0  0
  -13.5463   16.4323  -38.6270 O   0  0  0  0  0  0  0  0  0  0  0  0
  -12.1938   16.8330  -40.9957 O   0  0  0  0  0  0  0  0  0  0  0  0
   -7.9913   15.4176  -38.3152 H   0  0  0  0  0  0  0  0  0  0  0  0
   -9.0965   14.1590  -38.8471 H   0  0  0  0  0  0  0  0  0  0  0  0
  -13.0087   13.9647  -35.2382 H   0  0  0  0  0  0  0  0  0  0  0  0
  -12.8384   13.0652  -36.7292 H   0  0  0  0  0  0  0  0  0  0  0  0
   -8.1887   13.6616  -36.6340 H   0  0  0  0  0  0  0  0  0  0  0  0
   -8.7270   15.2171  -36.0102 H   0  0  0  0  0  0  0  0  0  0  0  0
  -14.9607   14.1096  -36.6852 H   0  0  0  0  0  0  0  0  0  0  0  0
  -14.3217   15.7003  -36.2921 H   0  0  0  0  0  0  0  0  0  0  0  0
   -9.8731   16.8311  -37.5556 H   0  0  0  0  0  0  0  0  0  0  0  0
  -11.4428   15.5813  -35.8445 H   0  0  0  0  0  0  0  0  0  0  0  0
  -10.4898   12.9034  -36.9711 H   0  0  0  0  0  0  0  0  0  0  0  0
  -10.5291   17.7623  -39.5193 H   0  0  0  0  0  0  0  0  0  0  0  0
  -11.4322   13.4090  -38.8131 H   0  0  0  0  0  0  0  0  0  0  0  0
  -10.4743   16.0149  -41.7337 H   0  0  0  0  0  0  0  0  0  0  0  0
  -10.1212   14.1589  -34.2274 H   0  0  0  0  0  0  0  0  0  0  0  0
   -9.4513   12.6094  -34.7728 H   0  0  0  0  0  0  0  0  0  0  0  0
  -11.2078   12.8159  -34.6314 H   0  0  0  0  0  0  0  0  0  0  0  0
   -8.2378   16.0317  -40.4826 H   0  0  0  0  0  0  0  0  0  0  0  0
   -8.1154   17.5556  -39.5826 H   0  0  0  0  0  0  0  0  0  0  0  0
   -8.8115   17.5426  -41.2145 H   0  0  0  0  0  0  0  0  0  0  0  0
  -15.4233   15.3429  -40.0334 H   0  0  0  0  0  0  0  0  0  0  0  0
  -16.0801   15.8456  -38.4640 H   0  0  0  0  0  0  0  0  0  0  0  0
  -15.9037   14.1207  -38.8405 H   0  0  0  0  0  0  0  0  0  0  0  0
  -12.6610   16.9399  -40.1530 H   0  0  0  0  0  0  0  0  0  0  0  0
  1  3  1  0  0  0  0
  1  5  1  1  0  0  0
  2  4  1  0  0  0  0
  2  6  1  1  0  0  0
  3  7  1  0  0  0  0
  4 12  1  0  0  0  0
  5  8  1  0  0  0  0
  5 11  1  0  0  0  0
  6  7  1  0  0  0  0
  6 11  1  0  0  0  0
  7 13  1  6  0  0  0
  8 10  1  0  0  0  0
  8 14  1  1  0  0  0
  9 11  1  0  0  0  0
  9 16  1  6  0  0  0
  9 17  1  0  0  0  0
 10 16  1  0  0  0  0
 10 20  1  0  0  0  0
 11 18  1  6  0  0  0
 12 15  1  1  0  0  0
 12 17  1  0  0  0  0
 12 19  1  0  0  0  0
 18 19  1  0  0  0  0
  1 21  1  0  0  0  0
  1 22  1  0  0  0  0
  2 23  1  0  0  0  0
  2 24  1  0  0  0  0
  3 25  1  0  0  0  0
  3 26  1  0  0  0  0
  4 27  1  0  0  0  0
  4 28  1  0  0  0  0
  5 29  1  0  0  0  0
  6 30  1  0  0  0  0
  7 31  1  0  0  0  0
  8 32  1  0  0  0  0
  9 33  1  0  0  0  0
 10 34  1  0  0  0  0
 13 35  1  0  0  0  0
 13 36  1  0  0  0  0
 13 37  1  0  0  0  0
 14 38  1  0  0  0  0
 14 39  1  0  0  0  0
 14 40  1  0  0  0  0
 15 41  1  0  0  0  0
 15 42  1  0  0  0  0
 15 43  1  0  0  0  0
 20 44  1  0  0  0  0
M  END
> <id>
EN300-20600173

> <smiles>
C[C@@H]1CC[C@H]2[C@@H](C)C(O)O[C@@H]3O[C@@]4(C)CC[C@@H]1[C@@]23OO4

> <MDLNUMBER>
MFCD28384156

> <IUPAC Name>
(1R,4S,5R,8S,9R,12R,13R)-1,5,9-trimethyl-11,14,15,16-tetraoxatetracyclo[10.3.1.0^{4,13}.0^{8,13}]hexadecan-10-ol

> <CAS>
131175-87-6

> <URL>
https://www.enaminestore.com/catalog/EN300-20600173

> <ROCS_ShapeQuery>
x1247relevant_x1083L0AP1_x1305L0BP1_

> <ROCS_TanimotoCombo>
0.799 

> <ROCS_ShapeTanimoto>
0.524 

> <ROCS_ColorTanimoto>
0.275 

> <ROCS_RefTversky>
0.463 

> <ROCS_RefColorTversky>
0.340 

> <ROCS_RefTverskyCombo>
0.803 

> <ROCS_FitTversky>
1.337 

> <ROCS_FitColorTversky>
0.590 

> <ROCS_FitTverskyCombo>
1.928 

> <ROCS_ColorScore>
-7.266

> <ROCS_Overlap>
1368.604

> <ROCS_Rank>
341                 

$$$$
untitled-dbase-51320_82
  -OEChem-06162310163D

 34 35  0     0  0  0  0  0  0999 V2000
  -10.1610   14.8997  -36.6025 C   0  0  0  0  0  0  0  0  0  0  0  0
  -13.8368   16.0990  -38.4323 C   0  0  0  0  0  0  0  0  0  0  0  0
  -13.0456   14.4723  -39.5346 C   0  0  0  0  0  0  0  0  0  0  0  0
  -12.5804   14.3898  -37.0075 C   0  0  0  0  0  0  0  0  0  0  0  0
  -11.2823   16.0319  -38.4831 C   0  0  0  0  0  0  0  0  0  0  0  0
  -13.6200   14.6012  -38.0977 C   0  0  0  0  0  0  0  0  0  0  0  0
  -12.5595   15.9334  -39.3035 C   0  0  0  0  0  0  0  0  0  0  0  0
   -9.0379   12.6083  -37.2047 C   0  0  0  0  0  0  0  0  0  0  0  0
   -7.4559   13.8335  -38.7230 C   0  0  0  0  0  0  0  0  0  0  0  0
   -7.1596   13.9728  -36.2328 C   0  0  0  0  0  0  0  0  0  0  0  0
   -8.1698   13.8543  -37.3731 C   0  0  0  0  0  0  0  0  0  0  0  0
  -11.3227   15.0698  -37.3699 N   0  0  0  0  0  0  0  0  0  0  0  0
  -10.1591   14.6752  -35.3935 O   0  0  0  0  0  0  0  0  0  0  0  0
  -12.4916   16.7726  -40.4694 O   0  0  0  0  0  0  0  0  0  0  0  0
   -9.0187   15.0074  -37.3518 O   0  0  0  0  0  0  0  0  0  0  0  0
  -14.7509   16.3138  -38.9989 H   0  0  0  0  0  0  0  0  0  0  0  0
  -13.7755   16.7978  -37.5929 H   0  0  0  0  0  0  0  0  0  0  0  0
  -12.2731   13.7124  -39.6834 H   0  0  0  0  0  0  0  0  0  0  0  0
  -13.8013   14.3619  -40.3216 H   0  0  0  0  0  0  0  0  0  0  0  0
  -12.9223   14.7938  -36.0482 H   0  0  0  0  0  0  0  0  0  0  0  0
  -12.3719   13.3229  -36.8714 H   0  0  0  0  0  0  0  0  0  0  0  0
  -10.3979   15.8113  -39.0919 H   0  0  0  0  0  0  0  0  0  0  0  0
  -11.1552   17.0345  -38.0587 H   0  0  0  0  0  0  0  0  0  0  0  0
  -14.5402   14.0375  -37.9144 H   0  0  0  0  0  0  0  0  0  0  0  0
   -9.5520   12.6194  -36.2370 H   0  0  0  0  0  0  0  0  0  0  0  0
   -9.7896   12.5302  -37.9969 H   0  0  0  0  0  0  0  0  0  0  0  0
   -8.4249   11.6998  -37.2186 H   0  0  0  0  0  0  0  0  0  0  0  0
   -6.8318   14.7258  -38.8481 H   0  0  0  0  0  0  0  0  0  0  0  0
   -8.1786   13.8443  -39.5469 H   0  0  0  0  0  0  0  0  0  0  0  0
   -6.8207   12.9483  -38.8305 H   0  0  0  0  0  0  0  0  0  0  0  0
   -6.5367   14.8665  -36.3534 H   0  0  0  0  0  0  0  0  0  0  0  0
   -7.6558   14.0263  -35.2584 H   0  0  0  0  0  0  0  0  0  0  0  0
   -6.4748   13.1170  -36.2284 H   0  0  0  0  0  0  0  0  0  0  0  0
  -12.5231   17.6811  -40.1421 H   0  0  0  0  0  0  0  0  0  0  0  0
  1 12  1  0  0  0  0
  1 13  2  0  0  0  0
  1 15  1  0  0  0  0
  2  6  1  0  0  0  0
  2  7  1  0  0  0  0
  3  6  1  0  0  0  0
  3  7  1  0  0  0  0
  4  6  1  1  0  0  0
  4 12  1  0  0  0  0
  5  7  1  0  0  0  0
  5 12  1  0  0  0  0
  7 14  1  6  0  0  0
  8 11  1  0  0  0  0
  9 11  1  0  0  0  0
 10 11  1  0  0  0  0
 11 15  1  0  0  0  0
  2 16  1  0  0  0  0
  2 17  1  0  0  0  0
  3 18  1  0  0  0  0
  3 19  1  0  0  0  0
  4 20  1  0  0  0  0
  4 21  1  0  0  0  0
  5 22  1  0  0  0  0
  5 23  1  0  0  0  0
  6 24  1  0  0  0  0
  8 25  1  0  0  0  0
  8 26  1  0  0  0  0
  8 27  1  0  0  0  0
  9 28  1  0  0  0  0
  9 29  1  0  0  0  0
  9 30  1  0  0  0  0
 10 31  1  0  0  0  0
 10 32  1  0  0  0  0
 10 33  1  0  0  0  0
 14 34  1  0  0  0  0
M  END
> <id>
EN300-28256957

> <smiles>
CC(C)(C)OC(=O)N1C[C@H]2C[C@](O)(C2)C1

> <IUPAC Name>
tert-butyl (1r)-1-hydroxy-3-azabicyclo[3.1.1]heptane-3-carboxylate

> <CAS>
2385804-87-3

> <URL>
https://www.enaminestore.com/catalog/EN300-28256957

> <ROCS_ShapeQuery>
x1247relevant_x1083L0AP1_x1305L0BP1_

> <ROCS_TanimotoCombo>
0.799 

> <ROCS_ShapeTanimoto>
0.480 

> <ROCS_ColorTanimoto>
0.319 

> <ROCS_RefTversky>
0.411 

> <ROCS_RefColorTversky>
0.364 

> <ROCS_RefTverskyCombo>
0.774 

> <ROCS_FitTversky>
1.546 

> <ROCS_FitColorTversky>
0.722 

> <ROCS_FitTverskyCombo>
2.268 

> <ROCS_ColorScore>
-7.739

> <ROCS_Overlap>
1208.665

> <ROCS_Rank>
342                 

$$$$
untitled-dbase-36593_5
  -OEChem-06162310163D

 35 37  0     1  0  0  0  0  0999 V2000
  -13.9469   16.3842  -38.1698 C   0  0  0  0  0  0  0  0  0  0  0  0
  -13.8177   15.2049  -37.1962 C   0  0  0  0  0  0  0  0  0  0  0  0
  -13.1681   14.4609  -39.3439 C   0  0  0  0  0  0  0  0  0  0  0  0
  -11.5502   16.1478  -38.8806 C   0  0  0  0  0  0  0  0  0  0  0  0
  -10.2257   14.0440  -38.2726 C   0  0  0  0  0  0  0  0  0  0  0  0
   -9.3902   13.9713  -35.9988 C   0  0  0  0  0  0  0  0  0  0  0  0
  -13.0168   15.9802  -39.3264 C   0  0  2  0  0  0  0  0  0  0  0  0
  -12.7545   14.3171  -37.8761 C   0  0  1  0  0  0  0  0  0  0  0  0
  -11.3514   15.0083  -37.8465 C   0  0  2  0  0  0  0  0  0  0  0  0
   -9.8620   15.4417  -35.9568 C   0  0  0  0  0  0  0  0  0  0  0  0
   -8.8752   16.4260  -36.6055 C   0  0  0  0  0  0  0  0  0  0  0  0
  -10.0289   15.8670  -34.4878 C   0  0  0  0  0  0  0  0  0  0  0  0
   -9.8285   13.2010  -37.1604 N   0  0  0  0  0  0  0  0  0  0  0  0
  -11.1559   15.5705  -36.5452 O   0  0  0  0  0  0  0  0  0  0  0  0
  -14.9835   16.4764  -38.5148 H   0  0  0  0  0  0  0  0  0  0  0  0
  -13.6564   17.3337  -37.7075 H   0  0  0  0  0  0  0  0  0  0  0  0
  -13.5452   15.5268  -36.1878 H   0  0  0  0  0  0  0  0  0  0  0  0
  -14.7735   14.6723  -37.1283 H   0  0  0  0  0  0  0  0  0  0  0  0
  -14.1957   14.1334  -39.5356 H   0  0  0  0  0  0  0  0  0  0  0  0
  -12.4972   13.9669  -40.0516 H   0  0  0  0  0  0  0  0  0  0  0  0
  -10.8890   16.0214  -39.7451 H   0  0  0  0  0  0  0  0  0  0  0  0
  -11.3990   17.1485  -38.4702 H   0  0  0  0  0  0  0  0  0  0  0  0
  -10.5668   13.4134  -39.0999 H   0  0  0  0  0  0  0  0  0  0  0  0
   -9.3510   14.5921  -38.6277 H   0  0  0  0  0  0  0  0  0  0  0  0
   -8.2745   13.9347  -35.9464 H   0  0  0  0  0  0  0  0  0  0  0  0
   -9.7217   13.4379  -35.0722 H   0  0  0  0  0  0  0  0  0  0  0  0
  -13.2458   16.4849  -40.2679 H   0  0  0  0  0  0  0  0  0  0  0  0
  -12.7560   13.2986  -37.4875 H   0  0  0  0  0  0  0  0  0  0  0  0
   -9.2736   17.4341  -36.5377 H   0  0  0  0  0  0  0  0  0  0  0  0
   -8.7344   16.1609  -37.6492 H   0  0  0  0  0  0  0  0  0  0  0  0
   -7.9223   16.3766  -36.0866 H   0  0  0  0  0  0  0  0  0  0  0  0
  -10.3605   16.9000  -34.4475 H   0  0  0  0  0  0  0  0  0  0  0  0
   -9.0769   15.7703  -33.9747 H   0  0  0  0  0  0  0  0  0  0  0  0
  -10.7663   15.2292  -34.0100 H   0  0  0  0  0  0  0  0  0  0  0  0
  -10.6323   12.6077  -36.8806 H   0  0  0  0  0  0  0  0  0  0  0  0
  1  2  1  0  0  0  0
  1  7  1  0  0  0  0
  2  8  1  0  0  0  0
  3  7  1  0  0  0  0
  3  8  1  0  0  0  0
  4  7  1  0  0  0  0
  4  9  1  0  0  0  0
  5  9  1  0  0  0  0
  5 13  1  0  0  0  0
  6 10  1  0  0  0  0
  6 13  1  0  0  0  0
  8  9  1  0  0  0  0
  9 14  1  0  0  0  0
 10 11  1  0  0  0  0
 10 12  1  0  0  0  0
 10 14  1  0  0  0  0
  1 15  1  0  0  0  0
  1 16  1  0  0  0  0
  2 17  1  0  0  0  0
  2 18  1  0  0  0  0
  3 19  1  0  0  0  0
  3 20  1  0  0  0  0
  4 21  1  0  0  0  0
  4 22  1  0  0  0  0
  5 23  1  0  0  0  0
  5 24  1  0  0  0  0
  6 25  1  0  0  0  0
  6 26  1  0  0  0  0
  7 27  1  0  0  0  0
  8 28  1  0  0  0  0
 11 29  1  0  0  0  0
 11 30  1  0  0  0  0
 11 31  1  0  0  0  0
 12 32  1  0  0  0  0
 12 33  1  0  0  0  0
 12 34  1  0  0  0  0
 13 35  1  0  0  0  0
M  END
> <id>
EN300-297190

> <smiles>
CC1(C)CNCC2(CC3CCC2C3)O1

> <MDLNUMBER>
MFCD24121873

> <IUPAC Name>
6',6'-dimethylspiro[bicyclo[2.2.1]heptane-2,2'-morpholine]

> <CAS>
1559261-83-4

> <Purity>
95

> <URL>
https://www.enaminestore.com/catalog/EN300-297190

> <ROCS_ShapeQuery>
x1247relevant_x1083L0AP1_x1305L0BP1_

> <ROCS_TanimotoCombo>
0.799 

> <ROCS_ShapeTanimoto>
0.486 

> <ROCS_ColorTanimoto>
0.313 

> <ROCS_RefTversky>
0.410 

> <ROCS_RefColorTversky>
0.371 

> <ROCS_RefTverskyCombo>
0.781 

> <ROCS_FitTversky>
1.611 

> <ROCS_FitColorTversky>
0.669 

> <ROCS_FitTverskyCombo>
2.280 

> <ROCS_ColorScore>
-7.907

> <ROCS_Overlap>
1207.423

> <ROCS_Rank>
343                 

$$$$
untitled-dbase-39674_1
  -OEChem-06162310163D

 35 38  0     1  0  0  0  0  0999 V2000
   -8.7679   17.6164  -36.9451 C   0  0  0  0  0  0  0  0  0  0  0  0
   -8.8599   15.5146  -36.7485 C   0  0  0  0  0  0  0  0  0  0  0  0
  -10.0569   15.8688  -37.3362 C   0  0  0  0  0  0  0  0  0  0  0  0
   -8.5459   14.1229  -36.3660 C   0  0  0  0  0  0  0  0  0  0  0  0
  -13.4704   16.6652  -38.4705 C   0  0  0  0  0  0  0  0  0  0  0  0
  -13.9513   14.2036  -38.4666 C   0  0  0  0  0  0  0  0  0  0  0  0
  -12.3377   16.3976  -39.4677 C   0  0  0  0  0  0  0  0  0  0  0  0
  -12.7760   13.9826  -39.4300 C   0  0  0  0  0  0  0  0  0  0  0  0
  -12.4208   15.1915  -36.7415 C   0  0  0  0  0  0  0  0  0  0  0  0
   -9.8616   13.3265  -36.2701 C   0  0  0  0  0  0  0  0  0  0  0  0
  -13.6941   15.4334  -37.5782 C   0  0  0  0  0  0  0  0  0  0  0  0
  -11.6711   15.0385  -39.1610 C   0  0  0  0  0  0  0  0  0  0  0  0
  -11.1948   14.9323  -37.6649 C   0  0  1  0  0  0  0  0  0  0  0  0
   -8.0526   16.5934  -36.5291 N   0  0  0  0  0  0  0  0  0  0  0  0
   -9.9971   17.2320  -37.4166 N   0  0  0  0  0  0  0  0  0  0  0  0
  -10.7122   13.5218  -37.4610 N   0  0  0  0  0  0  0  0  0  0  0  0
   -8.4628   18.6529  -36.9312 H   0  0  0  0  0  0  0  0  0  0  0  0
   -7.8801   13.6602  -37.0956 H   0  0  0  0  0  0  0  0  0  0  0  0
   -8.0457   14.1263  -35.3947 H   0  0  0  0  0  0  0  0  0  0  0  0
  -13.2273   17.5388  -37.8546 H   0  0  0  0  0  0  0  0  0  0  0  0
  -14.3908   16.9113  -39.0129 H   0  0  0  0  0  0  0  0  0  0  0  0
  -14.8785   14.3345  -39.0370 H   0  0  0  0  0  0  0  0  0  0  0  0
  -14.0900   13.3125  -37.8428 H   0  0  0  0  0  0  0  0  0  0  0  0
  -12.7464   16.3886  -40.4859 H   0  0  0  0  0  0  0  0  0  0  0  0
  -11.6123   17.2160  -39.4526 H   0  0  0  0  0  0  0  0  0  0  0  0
  -12.4039   12.9570  -39.3670 H   0  0  0  0  0  0  0  0  0  0  0  0
  -13.1348   14.0909  -40.4609 H   0  0  0  0  0  0  0  0  0  0  0  0
  -12.2595   16.0459  -36.0718 H   0  0  0  0  0  0  0  0  0  0  0  0
  -12.5999   14.3371  -36.0739 H   0  0  0  0  0  0  0  0  0  0  0  0
   -9.6538   12.2641  -36.1239 H   0  0  0  0  0  0  0  0  0  0  0  0
  -10.4096   13.6648  -35.3874 H   0  0  0  0  0  0  0  0  0  0  0  0
  -14.5484   15.6019  -36.9132 H   0  0  0  0  0  0  0  0  0  0  0  0
  -10.8456   14.8845  -39.8645 H   0  0  0  0  0  0  0  0  0  0  0  0
  -10.7215   17.8497  -37.7622 H   0  0  0  0  0  0  0  0  0  0  0  0
  -10.2480   13.1624  -38.2948 H   0  0  0  0  0  0  0  0  0  0  0  0
  1 14  2  0  0  0  0
  1 15  1  0  0  0  0
  2  3  2  0  0  0  0
  2  4  1  0  0  0  0
  2 14  1  0  0  0  0
  3 13  1  0  0  0  0
  3 15  1  0  0  0  0
  4 10  1  0  0  0  0
  5  7  1  0  0  0  0
  5 11  1  0  0  0  0
  6  8  1  0  0  0  0
  6 11  1  0  0  0  0
  7 12  1  0  0  0  0
  8 12  1  0  0  0  0
  9 11  1  0  0  0  0
  9 13  1  0  0  0  0
 10 16  1  0  0  0  0
 12 13  1  0  0  0  0
 13 16  1  0  0  0  0
  1 17  1  0  0  0  0
  4 18  1  0  0  0  0
  4 19  1  0  0  0  0
  5 20  1  0  0  0  0
  5 21  1  0  0  0  0
  6 22  1  0  0  0  0
  6 23  1  0  0  0  0
  7 24  1  0  0  0  0
  7 25  1  0  0  0  0
  8 26  1  0  0  0  0
  8 27  1  0  0  0  0
  9 28  1  0  0  0  0
  9 29  1  0  0  0  0
 10 30  1  0  0  0  0
 10 31  1  0  0  0  0
 11 32  1  0  0  0  0
 12 33  1  0  0  0  0
 15 34  1  0  0  0  0
 16 35  1  0  0  0  0
M  END
> <id>
EN300-1075124

> <smiles>
C1CC=2N=CNC2C3(CC4CCC3CC4)N1

> <IUPAC Name>
3',5',6',7'-tetrahydrospiro[bicyclo[2.2.2]octane-2,4'-imidazo[4,5-c]pyridine]

> <CAS>
1997916-38-7

> <URL>
https://www.enaminestore.com/catalog/EN300-1075124

> <ROCS_ShapeQuery>
x1247relevant_x1083L0AP1_x1305L0BP1_

> <ROCS_TanimotoCombo>
0.799 

> <ROCS_ShapeTanimoto>
0.465 

> <ROCS_ColorTanimoto>
0.335 

> <ROCS_RefTversky>
0.410 

> <ROCS_RefColorTversky>
0.408 

> <ROCS_RefTverskyCombo>
0.817 

> <ROCS_FitTversky>
1.409 

> <ROCS_FitColorTversky>
0.650 

> <ROCS_FitTverskyCombo>
2.059 

> <ROCS_ColorScore>
-8.733

> <ROCS_Overlap>
1207.366

> <ROCS_Rank>
344                 

$$$$
untitled-dbase-9067_27
  -OEChem-06162310163D

 39 41  0     1  0  0  0  0  0999 V2000
  -10.4527   13.4034  -37.7632 C   0  0  0  0  0  0  0  0  0  0  0  0
   -9.3623   13.8612  -37.0178 C   0  0  0  0  0  0  0  0  0  0  0  0
  -10.2587   16.1387  -36.9419 C   0  0  0  0  0  0  0  0  0  0  0  0
  -11.4200   14.3260  -38.0888 C   0  0  0  0  0  0  0  0  0  0  0  0
  -11.3240   15.6804  -37.6824 C   0  0  0  0  0  0  0  0  0  0  0  0
   -9.2666   15.2104  -36.6128 C   0  0  0  0  0  0  0  0  0  0  0  0
  -13.0688   15.9944  -40.6610 C   0  0  0  0  0  0  0  0  0  0  0  0
  -13.8513   14.3261  -37.7901 C   0  0  0  0  0  0  0  0  0  0  0  0
  -13.7445   15.8312  -37.3382 C   0  0  0  0  0  0  0  0  0  0  0  0
  -12.7263   14.2055  -38.8427 C   0  0  1  0  0  0  0  0  0  0  0  0
  -12.5733   16.3619  -38.1950 C   0  0  2  0  0  0  0  0  0  0  0  0
  -14.8659   16.8548  -42.7087 C   0  0  0  0  0  0  0  0  0  0  0  0
  -15.9413   14.5990  -42.4552 C   0  0  0  0  0  0  0  0  0  0  0  0
  -15.9211   16.1995  -40.5197 C   0  0  0  0  0  0  0  0  0  0  0  0
  -15.1591   15.7035  -41.7477 C   0  0  0  0  0  0  0  0  0  0  0  0
  -12.7921   15.5580  -39.3914 N   0  0  0  0  0  0  0  0  0  0  0  0
   -8.1472   15.6271  -35.8564 N   0  0  0  0  0  0  0  0  0  0  0  0
  -12.6138   17.0245  -41.1518 O   0  0  0  0  0  0  0  0  0  0  0  0
  -13.9146   15.1421  -41.3161 O   0  0  0  0  0  0  0  0  0  0  0  0
  -10.5283   12.3660  -38.0659 H   0  0  0  0  0  0  0  0  0  0  0  0
   -8.5785   13.1572  -36.7456 H   0  0  0  0  0  0  0  0  0  0  0  0
  -10.1969   17.1749  -36.6289 H   0  0  0  0  0  0  0  0  0  0  0  0
  -13.7219   13.6468  -36.9409 H   0  0  0  0  0  0  0  0  0  0  0  0
  -14.8344   14.1471  -38.2400 H   0  0  0  0  0  0  0  0  0  0  0  0
  -14.6779   16.3529  -37.5784 H   0  0  0  0  0  0  0  0  0  0  0  0
  -13.5614   15.9096  -36.2611 H   0  0  0  0  0  0  0  0  0  0  0  0
  -12.8006   13.4057  -39.5784 H   0  0  0  0  0  0  0  0  0  0  0  0
  -12.5119   17.4397  -38.3546 H   0  0  0  0  0  0  0  0  0  0  0  0
  -14.3045   17.6496  -42.2046 H   0  0  0  0  0  0  0  0  0  0  0  0
  -14.2895   16.5188  -43.5768 H   0  0  0  0  0  0  0  0  0  0  0  0
  -15.7955   17.3120  -43.0664 H   0  0  0  0  0  0  0  0  0  0  0  0
  -16.1539   13.7709  -41.7694 H   0  0  0  0  0  0  0  0  0  0  0  0
  -15.3579   14.1746  -43.2802 H   0  0  0  0  0  0  0  0  0  0  0  0
  -16.8903   14.9694  -42.8563 H   0  0  0  0  0  0  0  0  0  0  0  0
  -16.1316   15.3739  -39.8302 H   0  0  0  0  0  0  0  0  0  0  0  0
  -15.3580   16.9667  -39.9784 H   0  0  0  0  0  0  0  0  0  0  0  0
  -16.8926   16.6180  -40.8066 H   0  0  0  0  0  0  0  0  0  0  0  0
   -7.4679   14.9488  -35.5823 H   0  0  0  0  0  0  0  0  0  0  0  0
   -8.1061   16.5703  -35.5318 H   0  0  0  0  0  0  0  0  0  0  0  0
  1  2  1  0  0  0  0
  1  4  2  0  0  0  0
  2  6  2  0  0  0  0
  3  5  2  0  0  0  0
  3  6  1  0  0  0  0
  4  5  1  0  0  0  0
  4 10  1  0  0  0  0
  5 11  1  0  0  0  0
  6 17  1  0  0  0  0
  7 16  1  0  0  0  0
  7 18  2  0  0  0  0
  7 19  1  0  0  0  0
  8  9  1  0  0  0  0
  8 10  1  0  0  0  0
  9 11  1  0  0  0  0
 10 16  1  0  0  0  0
 11 16  1  0  0  0  0
 12 15  1  0  0  0  0
 13 15  1  0  0  0  0
 14 15  1  0  0  0  0
 15 19  1  0  0  0  0
  1 20  1  0  0  0  0
  2 21  1  0  0  0  0
  3 22  1  0  0  0  0
  8 23  1  0  0  0  0
  8 24  1  0  0  0  0
  9 25  1  0  0  0  0
  9 26  1  0  0  0  0
 10 27  1  0  0  0  0
 11 28  1  0  0  0  0
 12 29  1  0  0  0  0
 12 30  1  0  0  0  0
 12 31  1  0  0  0  0
 13 32  1  0  0  0  0
 13 33  1  0  0  0  0
 13 34  1  0  0  0  0
 14 35  1  0  0  0  0
 14 36  1  0  0  0  0
 14 37  1  0  0  0  0
 17 38  1  0  0  0  0
 17 39  1  0  0  0  0
M  END
> <id>
EN300-311685

> <smiles>
CC(C)(C)OC(=O)N1C2CCC1C=3C=C(N)C=CC23

> <MDLNUMBER>
MFCD26142556

> <IUPAC Name>
tert-butyl 4-amino-11-azatricyclo[6.2.1.0,2,7]undeca-2,4,6-triene-11-carboxylate

> <CAS>
942492-11-7

> <Purity>
95

> <URL>
https://www.enaminestore.com/catalog/EN300-311685

> <ROCS_ShapeQuery>
x1247relevant_x1083L0AP1_x1305L0BP1_

> <ROCS_TanimotoCombo>
0.799 

> <ROCS_ShapeTanimoto>
0.495 

> <ROCS_ColorTanimoto>
0.304 

> <ROCS_RefTversky>
0.441 

> <ROCS_RefColorTversky>
0.364 

> <ROCS_RefTverskyCombo>
0.806 

> <ROCS_FitTversky>
1.324 

> <ROCS_FitColorTversky>
0.649 

> <ROCS_FitTverskyCombo>
1.973 

> <ROCS_ColorScore>
-7.773

> <ROCS_Overlap>
1304.176

> <ROCS_Rank>
345                 

$$$$
untitled-dbase-44300_0
  -OEChem-06162310163D

 28 30  0     1  0  0  0  0  0999 V2000
   -9.5181   13.7523  -36.5035 C   0  0  0  0  0  0  0  0  0  0  0  0
  -13.4549   16.6547  -38.3242 C   0  0  0  0  0  0  0  0  0  0  0  0
  -13.9032   14.2145  -38.6558 C   0  0  0  0  0  0  0  0  0  0  0  0
  -12.2304   16.5356  -39.2414 C   0  0  0  0  0  0  0  0  0  0  0  0
  -12.6577   14.1076  -39.5451 C   0  0  0  0  0  0  0  0  0  0  0  0
  -12.4906   14.9749  -36.7368 C   0  0  0  0  0  0  0  0  0  0  0  0
  -10.1275   15.8517  -37.1250 C   0  0  0  0  0  0  0  0  0  0  0  0
  -13.7161   15.3212  -37.6049 C   0  0  0  0  0  0  0  0  0  0  0  0
  -11.5972   15.1355  -39.1017 C   0  0  0  0  0  0  0  0  0  0  0  0
  -11.2143   14.8943  -37.6196 C   0  0  2  0  0  0  0  0  0  0  0  0
  -10.5535   13.6323  -37.4028 N   0  0  0  0  0  0  0  0  0  0  0  0
   -8.8591   12.8442  -36.0177 O   0  0  0  0  0  0  0  0  0  0  0  0
   -9.3317   15.0775  -36.2088 O   0  0  0  0  0  0  0  0  0  0  0  0
  -13.2922   17.4530  -37.5902 H   0  0  0  0  0  0  0  0  0  0  0  0
  -14.3321   16.9461  -38.9142 H   0  0  0  0  0  0  0  0  0  0  0  0
  -14.7836   14.4256  -39.2747 H   0  0  0  0  0  0  0  0  0  0  0  0
  -14.0903   13.2526  -38.1632 H   0  0  0  0  0  0  0  0  0  0  0  0
  -12.5314   16.7085  -40.2820 H   0  0  0  0  0  0  0  0  0  0  0  0
  -11.5051   17.3206  -38.9997 H   0  0  0  0  0  0  0  0  0  0  0  0
  -12.2567   13.0886  -39.5078 H   0  0  0  0  0  0  0  0  0  0  0  0
  -12.9374   14.2852  -40.5909 H   0  0  0  0  0  0  0  0  0  0  0  0
  -12.3834   15.7216  -35.9407 H   0  0  0  0  0  0  0  0  0  0  0  0
  -12.6781   14.0186  -36.2302 H   0  0  0  0  0  0  0  0  0  0  0  0
   -9.4623   16.1924  -37.9266 H   0  0  0  0  0  0  0  0  0  0  0  0
  -10.5186   16.7282  -36.5996 H   0  0  0  0  0  0  0  0  0  0  0  0
  -14.6102   15.3991  -36.9768 H   0  0  0  0  0  0  0  0  0  0  0  0
  -10.7162   15.0640  -39.7508 H   0  0  0  0  0  0  0  0  0  0  0  0
  -10.8182   12.7636  -37.8565 H   0  0  0  0  0  0  0  0  0  0  0  0
  1 11  1  0  0  0  0
  1 12  2  0  0  0  0
  1 13  1  0  0  0  0
  2  4  1  0  0  0  0
  2  8  1  0  0  0  0
  3  5  1  0  0  0  0
  3  8  1  0  0  0  0
  4  9  1  0  0  0  0
  5  9  1  0  0  0  0
  6  8  1  0  0  0  0
  6 10  1  0  0  0  0
  7 10  1  0  0  0  0
  7 13  1  0  0  0  0
  9 10  1  0  0  0  0
 10 11  1  0  0  0  0
  2 14  1  0  0  0  0
  2 15  1  0  0  0  0
  3 16  1  0  0  0  0
  3 17  1  0  0  0  0
  4 18  1  0  0  0  0
  4 19  1  0  0  0  0
  5 20  1  0  0  0  0
  5 21  1  0  0  0  0
  6 22  1  0  0  0  0
  6 23  1  0  0  0  0
  7 24  1  0  0  0  0
  7 25  1  0  0  0  0
  8 26  1  0  0  0  0
  9 27  1  0  0  0  0
 11 28  1  0  0  0  0
M  END
> <id>
EN300-3121958

> <smiles>
O=C1NC2(CO1)CC3CCC2CC3

> <MDLNUMBER>
MFCD33550692

> <IUPAC Name>
spiro[bicyclo[2.2.2]octane-2,3'-[1,4]oxazolidine]-5'-one

> <CAS>
1861408-33-4

> <Purity>
95

> <URL>
https://www.enaminestore.com/catalog/EN300-3121958

> <ROCS_ShapeQuery>
x1247relevant_x1083L0AP1_x1305L0BP1_

> <ROCS_TanimotoCombo>
0.799 

> <ROCS_ShapeTanimoto>
0.470 

> <ROCS_ColorTanimoto>
0.329 

> <ROCS_RefTversky>
0.398 

> <ROCS_RefColorTversky>
0.360 

> <ROCS_RefTverskyCombo>
0.758 

> <ROCS_FitTversky>
1.633 

> <ROCS_FitColorTversky>
0.793 

> <ROCS_FitTverskyCombo>
2.426 

> <ROCS_ColorScore>
-7.639

> <ROCS_Overlap>
1168.972

> <ROCS_Rank>
346                 

$$$$
untitled-dbase-26613_34
  -OEChem-06162310163D

 39 41  0     1  0  0  0  0  0999 V2000
   -9.3308   14.9348  -37.3715 C   0  0  0  0  0  0  0  0  0  0  0  0
  -13.4785   13.9251  -37.7907 C   0  0  0  0  0  0  0  0  0  0  0  0
  -13.6400   15.2454  -37.0309 C   0  0  0  0  0  0  0  0  0  0  0  0
  -13.3110   14.9160  -40.2173 C   0  0  0  0  0  0  0  0  0  0  0  0
  -13.4878   16.9151  -39.0482 C   0  0  0  0  0  0  0  0  0  0  0  0
  -11.1597   14.3063  -38.9241 C   0  0  0  0  0  0  0  0  0  0  0  0
  -11.3737   16.3781  -37.6620 C   0  0  0  0  0  0  0  0  0  0  0  0
  -12.6363   14.6495  -38.8743 C   0  0  2  0  0  0  0  0  0  0  0  0
  -12.7688   15.9659  -38.0944 C   0  0  1  0  0  0  0  0  0  0  0  0
   -9.5961   13.8108  -35.0190 C   0  0  0  0  0  0  0  0  0  0  0  0
   -9.2108   11.5738  -36.0944 C   0  0  0  0  0  0  0  0  0  0  0  0
   -7.2828   13.1476  -35.7565 C   0  0  0  0  0  0  0  0  0  0  0  0
   -8.7779   13.0377  -36.0523 C   0  0  0  0  0  0  0  0  0  0  0  0
  -14.2016   16.0580  -39.9976 N   0  0  0  0  0  0  0  0  0  0  0  0
  -10.5871   15.1786  -37.9132 N   0  0  0  0  0  0  0  0  0  0  0  0
   -8.5748   15.8118  -36.9589 O   0  0  0  0  0  0  0  0  0  0  0  0
   -9.0293   13.5992  -37.3454 O   0  0  0  0  0  0  0  0  0  0  0  0
  -12.9424   13.1545  -37.2262 H   0  0  0  0  0  0  0  0  0  0  0  0
  -14.4209   13.4947  -38.1455 H   0  0  0  0  0  0  0  0  0  0  0  0
  -14.6749   15.5976  -36.9650 H   0  0  0  0  0  0  0  0  0  0  0  0
  -13.2208   15.2290  -36.0193 H   0  0  0  0  0  0  0  0  0  0  0  0
  -12.5762   15.1841  -40.9856 H   0  0  0  0  0  0  0  0  0  0  0  0
  -13.8693   14.0457  -40.5752 H   0  0  0  0  0  0  0  0  0  0  0  0
  -14.1795   17.5797  -38.5213 H   0  0  0  0  0  0  0  0  0  0  0  0
  -12.7762   17.5405  -39.6007 H   0  0  0  0  0  0  0  0  0  0  0  0
  -10.9449   13.2560  -38.7052 H   0  0  0  0  0  0  0  0  0  0  0  0
  -10.6914   14.5694  -39.8786 H   0  0  0  0  0  0  0  0  0  0  0  0
  -10.9515   17.1764  -38.2813 H   0  0  0  0  0  0  0  0  0  0  0  0
  -11.3160   16.6779  -36.6115 H   0  0  0  0  0  0  0  0  0  0  0  0
   -9.2884   14.8621  -34.9857 H   0  0  0  0  0  0  0  0  0  0  0  0
  -10.6677   13.7690  -35.2397 H   0  0  0  0  0  0  0  0  0  0  0  0
   -9.4341   13.4093  -34.0121 H   0  0  0  0  0  0  0  0  0  0  0  0
   -8.6263   11.0152  -36.8345 H   0  0  0  0  0  0  0  0  0  0  0  0
  -10.2598   11.4856  -36.3992 H   0  0  0  0  0  0  0  0  0  0  0  0
   -9.0908   11.0888  -35.1203 H   0  0  0  0  0  0  0  0  0  0  0  0
   -6.6958   12.5932  -36.4975 H   0  0  0  0  0  0  0  0  0  0  0  0
   -6.9468   14.1896  -35.7588 H   0  0  0  0  0  0  0  0  0  0  0  0
   -7.0452   12.7073  -34.7814 H   0  0  0  0  0  0  0  0  0  0  0  0
  -14.3824   16.5520  -40.8696 H   0  0  0  0  0  0  0  0  0  0  0  0
  1 15  1  0  0  0  0
  1 16  2  0  0  0  0
  1 17  1  0  0  0  0
  2  3  1  0  0  0  0
  2  8  1  0  0  0  0
  3  9  1  0  0  0  0
  4  8  1  0  0  0  0
  4 14  1  0  0  0  0
  5  9  1  0  0  0  0
  5 14  1  0  0  0  0
  6  8  1  0  0  0  0
  6 15  1  0  0  0  0
  7  9  1  0  0  0  0
  7 15  1  0  0  0  0
  8  9  1  0  0  0  0
 10 13  1  0  0  0  0
 11 13  1  0  0  0  0
 12 13  1  0  0  0  0
 13 17  1  0  0  0  0
  2 18  1  0  0  0  0
  2 19  1  0  0  0  0
  3 20  1  0  0  0  0
  3 21  1  0  0  0  0
  4 22  1  0  0  0  0
  4 23  1  0  0  0  0
  5 24  1  0  0  0  0
  5 25  1  0  0  0  0
  6 26  1  0  0  0  0
  6 27  1  0  0  0  0
  7 28  1  0  0  0  0
  7 29  1  0  0  0  0
 10 30  1  0  0  0  0
 10 31  1  0  0  0  0
 10 32  1  0  0  0  0
 11 33  1  0  0  0  0
 11 34  1  0  0  0  0
 11 35  1  0  0  0  0
 12 36  1  0  0  0  0
 12 37  1  0  0  0  0
 12 38  1  0  0  0  0
 14 39  1  0  0  0  0
M  END
> <id>
EN300-1266388

> <smiles>
CC(C)(C)OC(=O)N1CC23CCC3(CNC2)C1

> <MDLNUMBER>
MFCD32066289

> <IUPAC Name>
tert-butyl 3,7-diazatricyclo[3.3.2.0,1,5]decane-3-carboxylate

> <CAS>
2167347-57-9

> <Purity>
95

> <URL>
https://www.enaminestore.com/catalog/EN300-1266388

> <ROCS_ShapeQuery>
x1247relevant_x1083L0AP1_x1305L0BP1_

> <ROCS_TanimotoCombo>
0.799 

> <ROCS_ShapeTanimoto>
0.477 

> <ROCS_ColorTanimoto>
0.322 

> <ROCS_RefTversky>
0.420 

> <ROCS_RefColorTversky>
0.411 

> <ROCS_RefTverskyCombo>
0.831 

> <ROCS_FitTversky>
1.399 

> <ROCS_FitColorTversky>
0.596 

> <ROCS_FitTverskyCombo>
1.995 

> <ROCS_ColorScore>
-8.837

> <ROCS_Overlap>
1239.047

> <ROCS_Rank>
347                 

$$$$
untitled-dbase-20575_11
  -OEChem-06162310163D

 34 37  0     1  0  0  0  0  0999 V2000
  -12.3844   17.8884  -40.4937 C   0  0  0  0  0  0  0  0  0  0  0  0
  -15.4040   15.2928  -38.6132 C   0  0  0  0  0  0  0  0  0  0  0  0
  -15.0415   14.7694  -39.9659 C   0  0  0  0  0  0  0  0  0  0  0  0
  -12.2206   16.3606  -40.5296 C   0  0  0  0  0  0  0  0  0  0  0  0
  -13.6180   17.6751  -39.6012 C   0  0  0  0  0  0  0  0  0  0  0  0
   -9.9076   15.5220  -37.7878 C   0  0  0  0  0  0  0  0  0  0  0  0
  -13.2669   13.9041  -38.2792 C   0  0  0  0  0  0  0  0  0  0  0  0
   -9.2690   14.6591  -36.7207 C   0  0  0  0  0  0  0  0  0  0  0  0
  -11.4356   15.1953  -36.0498 C   0  0  0  0  0  0  0  0  0  0  0  0
  -13.9408   15.0817  -38.9668 C   0  0  0  0  0  0  0  0  0  0  0  0
  -12.9938   16.2988  -39.1555 C   0  0  0  0  0  0  0  0  0  0  0  0
  -11.3985   15.2990  -37.5750 C   0  0  2  0  0  0  0  0  0  0  0  0
  -11.8136   14.0507  -38.2323 N   0  0  0  0  0  0  0  0  0  0  0  0
  -10.1954   14.6079  -35.6279 O   0  0  0  0  0  0  0  0  0  0  0  0
  -12.1190   16.4587  -37.9978 O   0  0  0  0  0  0  0  0  0  0  0  0
  -11.5612   18.4079  -39.9906 H   0  0  0  0  0  0  0  0  0  0  0  0
  -12.5714   18.3688  -41.4567 H   0  0  0  0  0  0  0  0  0  0  0  0
  -15.7843   16.3052  -38.5446 H   0  0  0  0  0  0  0  0  0  0  0  0
  -15.8733   14.6072  -37.9156 H   0  0  0  0  0  0  0  0  0  0  0  0
  -15.2631   13.7298  -40.1810 H   0  0  0  0  0  0  0  0  0  0  0  0
  -15.1788   15.4226  -40.8184 H   0  0  0  0  0  0  0  0  0  0  0  0
  -12.7424   15.8788  -41.3635 H   0  0  0  0  0  0  0  0  0  0  0  0
  -11.1837   16.0238  -40.5322 H   0  0  0  0  0  0  0  0  0  0  0  0
  -13.7420   18.4189  -38.8078 H   0  0  0  0  0  0  0  0  0  0  0  0
  -14.5537   17.6179  -40.1674 H   0  0  0  0  0  0  0  0  0  0  0  0
   -9.5784   16.5653  -37.7156 H   0  0  0  0  0  0  0  0  0  0  0  0
   -9.6032   15.1517  -38.7806 H   0  0  0  0  0  0  0  0  0  0  0  0
  -13.6387   13.7891  -37.2390 H   0  0  0  0  0  0  0  0  0  0  0  0
  -13.5537   12.9560  -38.7828 H   0  0  0  0  0  0  0  0  0  0  0  0
   -9.0585   13.6444  -37.0723 H   0  0  0  0  0  0  0  0  0  0  0  0
   -8.3358   15.0999  -36.3517 H   0  0  0  0  0  0  0  0  0  0  0  0
  -11.5493   16.1687  -35.5530 H   0  0  0  0  0  0  0  0  0  0  0  0
  -12.2373   14.5305  -35.6956 H   0  0  0  0  0  0  0  0  0  0  0  0
  -11.4087   13.2564  -37.7353 H   0  0  0  0  0  0  0  0  0  0  0  0
  1  4  1  0  0  0  0
  1  5  1  0  0  0  0
  2  3  1  0  0  0  0
  2 10  1  0  0  0  0
  3 10  1  0  0  0  0
  4 11  1  0  0  0  0
  5 11  1  0  0  0  0
  6  8  1  0  0  0  0
  6 12  1  0  0  0  0
  7 10  1  0  0  0  0
  7 13  1  0  0  0  0
  8 14  1  0  0  0  0
  9 12  1  0  0  0  0
  9 14  1  0  0  0  0
 10 11  1  0  0  0  0
 11 15  1  0  0  0  0
 12 13  1  0  0  0  0
 12 15  1  0  0  0  0
  1 16  1  0  0  0  0
  1 17  1  0  0  0  0
  2 18  1  0  0  0  0
  2 19  1  0  0  0  0
  3 20  1  0  0  0  0
  3 21  1  0  0  0  0
  4 22  1  0  0  0  0
  4 23  1  0  0  0  0
  5 24  1  0  0  0  0
  5 25  1  0  0  0  0
  6 26  1  0  0  0  0
  6 27  1  0  0  0  0
  7 28  1  0  0  0  0
  7 29  1  0  0  0  0
  8 30  1  0  0  0  0
  8 31  1  0  0  0  0
  9 32  1  0  0  0  0
  9 33  1  0  0  0  0
 13 34  1  0  0  0  0
M  END
> <id>
EN300-1280528

> <smiles>
C1CC12CNC3(CCOC3)OC42CCC4

> <IUPAC Name>
8,11-dioxa-14-azatrispiro[2.0.3^{4}.1.4^{9}.2^{3}]pentadecane

> <URL>
https://www.enaminestore.com/catalog/EN300-1280528

> <ROCS_ShapeQuery>
x1247relevant_x1083L0AP1_x1305L0BP1_

> <ROCS_TanimotoCombo>
0.799 

> <ROCS_ShapeTanimoto>
0.495 

> <ROCS_ColorTanimoto>
0.303 

> <ROCS_RefTversky>
0.421 

> <ROCS_RefColorTversky>
0.318 

> <ROCS_RefTverskyCombo>
0.739 

> <ROCS_FitTversky>
1.554 

> <ROCS_FitColorTversky>
0.867 

> <ROCS_FitTverskyCombo>
2.421 

> <ROCS_ColorScore>
-6.716

> <ROCS_Overlap>
1240.082

> <ROCS_Rank>
348                 

$$$$
untitled-dbase-40288_0
  -OEChem-06162310163D

 23 25  0     1  0  0  0  0  0999 V2000
  -10.1081   13.5995  -37.1746 C   0  0  0  0  0  0  0  0  0  0  0  0
   -9.0379   14.3375  -36.6885 C   0  0  0  0  0  0  0  0  0  0  0  0
   -9.9696   16.3401  -37.3391 C   0  0  0  0  0  0  0  0  0  0  0  0
  -11.1596   14.2911  -37.7651 C   0  0  0  0  0  0  0  0  0  0  0  0
  -11.0792   15.6993  -37.8697 C   0  0  0  0  0  0  0  0  0  0  0  0
  -14.1156   15.1975  -37.7876 C   0  0  0  0  0  0  0  0  0  0  0  0
  -13.2953   16.4768  -37.5030 C   0  0  0  0  0  0  0  0  0  0  0  0
  -12.6644   15.6441  -39.6151 C   0  0  0  0  0  0  0  0  0  0  0  0
  -13.3267   14.4666  -38.8917 C   0  0  1  0  0  0  0  0  0  0  0  0
   -8.9429   15.6871  -36.7515 N   0  0  0  0  0  0  0  0  0  0  0  0
  -12.2745   13.6394  -38.2959 N   0  0  0  0  0  0  0  0  0  0  0  0
  -12.1639   16.4145  -38.4589 N   0  0  2  0  0  0  0  0  0  0  0  0
  -10.1168   12.5184  -37.0879 H   0  0  0  0  0  0  0  0  0  0  0  0
   -8.1960   13.8414  -36.2157 H   0  0  0  0  0  0  0  0  0  0  0  0
   -9.8691   17.4199  -37.3725 H   0  0  0  0  0  0  0  0  0  0  0  0
  -14.2509   14.5826  -36.8916 H   0  0  0  0  0  0  0  0  0  0  0  0
  -15.1094   15.4743  -38.1589 H   0  0  0  0  0  0  0  0  0  0  0  0
  -13.9012   17.3641  -37.7200 H   0  0  0  0  0  0  0  0  0  0  0  0
  -12.9773   16.5409  -36.4553 H   0  0  0  0  0  0  0  0  0  0  0  0
  -11.8755   15.3503  -40.3190 H   0  0  0  0  0  0  0  0  0  0  0  0
  -13.4028   16.2391  -40.1666 H   0  0  0  0  0  0  0  0  0  0  0  0
  -13.9701   13.8634  -39.5378 H   0  0  0  0  0  0  0  0  0  0  0  0
  -12.4298   12.6567  -38.1114 H   0  0  0  0  0  0  0  0  0  0  0  0
  1  2  1  0  0  0  0
  1  4  2  0  0  0  0
  2 10  2  0  0  0  0
  3  5  2  0  0  0  0
  3 10  1  0  0  0  0
  4  5  1  0  0  0  0
  4 11  1  0  0  0  0
  5 12  1  0  0  0  0
  6  7  1  0  0  0  0
  6  9  1  0  0  0  0
  7 12  1  0  0  0  0
  8  9  1  0  0  0  0
  8 12  1  0  0  0  0
  9 11  1  0  0  0  0
  1 13  1  0  0  0  0
  2 14  1  0  0  0  0
  3 15  1  0  0  0  0
  6 16  1  0  0  0  0
  6 17  1  0  0  0  0
  7 18  1  0  0  0  0
  7 19  1  0  0  0  0
  8 20  1  0  0  0  0
  8 21  1  0  0  0  0
  9 22  1  0  0  0  0
 11 23  1  0  0  0  0
M  END
> <id>
EN300-813963

> <smiles>
Cl.Cl.C1CN2CC1NC=3C=CN=CC23

> <MDLNUMBER>
MFCD31558782

> <IUPAC Name>
1,4,8-triazatricyclo[7.2.1.0,2,7]dodeca-2,4,6-triene dihydrochloride

> <CAS>
2137655-27-5

> <Purity>
95

> <URL>
https://www.enaminestore.com/catalog/EN300-813963

> <Saltdate>
Cl

> <ROCS_ShapeQuery>
x1247relevant_x1083L0AP1_x1305L0BP1_

> <ROCS_TanimotoCombo>
0.799 

> <ROCS_ShapeTanimoto>
0.459 

> <ROCS_ColorTanimoto>
0.340 

> <ROCS_RefTversky>
0.389 

> <ROCS_RefColorTversky>
0.368 

> <ROCS_RefTverskyCombo>
0.756 

> <ROCS_FitTversky>
1.656 

> <ROCS_FitColorTversky>
0.816 

> <ROCS_FitTverskyCombo>
2.472 

> <ROCS_ColorScore>
-7.796

> <ROCS_Overlap>
1141.998

> <ROCS_Rank>
349                 

$$$$
untitled-dbase-15112_0
  -OEChem-06162310163D

 23 25  0     1  0  0  0  0  0999 V2000
  -10.1081   13.5995  -37.1746 C   0  0  0  0  0  0  0  0  0  0  0  0
   -9.0379   14.3375  -36.6885 C   0  0  0  0  0  0  0  0  0  0  0  0
   -9.9696   16.3401  -37.3391 C   0  0  0  0  0  0  0  0  0  0  0  0
  -11.1596   14.2911  -37.7651 C   0  0  0  0  0  0  0  0  0  0  0  0
  -11.0792   15.6993  -37.8697 C   0  0  0  0  0  0  0  0  0  0  0  0
  -14.1156   15.1975  -37.7876 C   0  0  0  0  0  0  0  0  0  0  0  0
  -13.2953   16.4768  -37.5030 C   0  0  0  0  0  0  0  0  0  0  0  0
  -12.6644   15.6441  -39.6151 C   0  0  0  0  0  0  0  0  0  0  0  0
  -13.3267   14.4666  -38.8917 C   0  0  1  0  0  0  0  0  0  0  0  0
   -8.9429   15.6871  -36.7515 N   0  0  0  0  0  0  0  0  0  0  0  0
  -12.2745   13.6394  -38.2959 N   0  0  0  0  0  0  0  0  0  0  0  0
  -12.1639   16.4145  -38.4589 N   0  0  2  0  0  0  0  0  0  0  0  0
  -10.1168   12.5184  -37.0879 H   0  0  0  0  0  0  0  0  0  0  0  0
   -8.1960   13.8414  -36.2157 H   0  0  0  0  0  0  0  0  0  0  0  0
   -9.8691   17.4199  -37.3725 H   0  0  0  0  0  0  0  0  0  0  0  0
  -14.2509   14.5826  -36.8916 H   0  0  0  0  0  0  0  0  0  0  0  0
  -15.1094   15.4743  -38.1589 H   0  0  0  0  0  0  0  0  0  0  0  0
  -13.9012   17.3641  -37.7200 H   0  0  0  0  0  0  0  0  0  0  0  0
  -12.9773   16.5409  -36.4553 H   0  0  0  0  0  0  0  0  0  0  0  0
  -11.8755   15.3503  -40.3190 H   0  0  0  0  0  0  0  0  0  0  0  0
  -13.4028   16.2391  -40.1666 H   0  0  0  0  0  0  0  0  0  0  0  0
  -13.9701   13.8634  -39.5378 H   0  0  0  0  0  0  0  0  0  0  0  0
  -12.4298   12.6567  -38.1114 H   0  0  0  0  0  0  0  0  0  0  0  0
  1  2  1  0  0  0  0
  1  4  2  0  0  0  0
  2 10  2  0  0  0  0
  3  5  2  0  0  0  0
  3 10  1  0  0  0  0
  4  5  1  0  0  0  0
  4 11  1  0  0  0  0
  5 12  1  0  0  0  0
  6  7  1  0  0  0  0
  6  9  1  0  0  0  0
  7 12  1  0  0  0  0
  8  9  1  0  0  0  0
  8 12  1  0  0  0  0
  9 11  1  0  0  0  0
  1 13  1  0  0  0  0
  2 14  1  0  0  0  0
  3 15  1  0  0  0  0
  6 16  1  0  0  0  0
  6 17  1  0  0  0  0
  7 18  1  0  0  0  0
  7 19  1  0  0  0  0
  8 20  1  0  0  0  0
  8 21  1  0  0  0  0
  9 22  1  0  0  0  0
 11 23  1  0  0  0  0
M  END
> <id>
EN300-813964

> <smiles>
C1CN2CC1NC=3C=CN=CC23

> <MDLNUMBER>
MFCD31689400

> <IUPAC Name>
1,4,8-triazatricyclo[7.2.1.0,2,7]dodeca-2,4,6-triene

> <CAS>
2137562-44-6

> <URL>
https://www.enaminestore.com/catalog/EN300-813964

> <ROCS_ShapeQuery>
x1247relevant_x1083L0AP1_x1305L0BP1_

> <ROCS_TanimotoCombo>
0.799 

> <ROCS_ShapeTanimoto>
0.459 

> <ROCS_ColorTanimoto>
0.340 

> <ROCS_RefTversky>
0.389 

> <ROCS_RefColorTversky>
0.368 

> <ROCS_RefTverskyCombo>
0.756 

> <ROCS_FitTversky>
1.656 

> <ROCS_FitColorTversky>
0.816 

> <ROCS_FitTverskyCombo>
2.472 

> <ROCS_ColorScore>
-7.796

> <ROCS_Overlap>
1141.998

> <ROCS_Rank>
350                 

$$$$
untitled-dbase-2254_0
  -OEChem-06162310163D

 34 38  0     1  0  0  0  0  0999 V2000
  -12.3102   14.1576  -39.3943 C   0  0  0  0  0  0  0  0  0  0  0  0
  -13.2547   13.8787  -38.4837 C   0  0  0  0  0  0  0  0  0  0  0  0
  -11.6275   14.2522  -36.0574 C   0  0  0  0  0  0  0  0  0  0  0  0
  -10.3928   13.9620  -36.4799 C   0  0  0  0  0  0  0  0  0  0  0  0
   -7.6926   15.3842  -37.8317 C   0  0  0  0  0  0  0  0  0  0  0  0
   -8.2766   14.8922  -39.1270 C   0  0  0  0  0  0  0  0  0  0  0  0
  -14.2037   18.2470  -39.0288 C   0  0  0  0  0  0  0  0  0  0  0  0
  -14.3861   17.4582  -40.2954 C   0  0  0  0  0  0  0  0  0  0  0  0
  -11.9049   15.6056  -39.1991 C   0  0  2  0  0  0  0  0  0  0  0  0
  -12.2145   15.4159  -36.7903 C   0  0  1  0  0  0  0  0  0  0  0  0
  -11.1157   15.7786  -37.8618 C   0  0  1  0  0  0  0  0  0  0  0  0
  -13.4564   15.1393  -37.6802 C   0  0  1  0  0  0  0  0  0  0  0  0
   -9.8960   14.8822  -37.5578 C   0  0  0  0  0  0  0  0  0  0  0  0
  -13.2879   16.1859  -38.7961 C   0  0  0  0  0  0  0  0  0  0  0  0
   -8.8367   15.7079  -37.0412 O   0  0  0  0  0  0  0  0  0  0  0  0
   -9.4376   14.1763  -38.7110 O   0  0  0  0  0  0  0  0  0  0  0  0
  -13.1841   17.5349  -38.3306 O   0  0  0  0  0  0  0  0  0  0  0  0
  -14.2487   16.1106  -39.8532 O   0  0  0  0  0  0  0  0  0  0  0  0
   -9.3341   12.5904  -35.8479 Br  0  0  0  0  0  0  0  0  0  0  0  0
  -15.1207   15.2014  -36.7663 Br  0  0  0  0  0  0  0  0  0  0  0  0
  -11.8870   13.4700  -40.1089 H   0  0  0  0  0  0  0  0  0  0  0  0
  -13.7250   12.9200  -38.3310 H   0  0  0  0  0  0  0  0  0  0  0  0
  -12.1573   13.7146  -35.2830 H   0  0  0  0  0  0  0  0  0  0  0  0
   -7.1355   14.5947  -37.3168 H   0  0  0  0  0  0  0  0  0  0  0  0
   -7.0470   16.2576  -37.9519 H   0  0  0  0  0  0  0  0  0  0  0  0
   -8.5965   15.7224  -39.7661 H   0  0  0  0  0  0  0  0  0  0  0  0
   -7.6007   14.2430  -39.6890 H   0  0  0  0  0  0  0  0  0  0  0  0
  -13.9032   19.2832  -39.2021 H   0  0  0  0  0  0  0  0  0  0  0  0
  -15.1092   18.2327  -38.4130 H   0  0  0  0  0  0  0  0  0  0  0  0
  -15.3584   17.6154  -40.7686 H   0  0  0  0  0  0  0  0  0  0  0  0
  -13.5912   17.6652  -41.0203 H   0  0  0  0  0  0  0  0  0  0  0  0
  -11.4490   16.0690  -40.0757 H   0  0  0  0  0  0  0  0  0  0  0  0
  -12.3714   16.2557  -36.1023 H   0  0  0  0  0  0  0  0  0  0  0  0
  -10.8423   16.8364  -37.7428 H   0  0  0  0  0  0  0  0  0  0  0  0
  1  2  2  0  0  0  0
  1  9  1  0  0  0  0
  2 12  1  0  0  0  0
  3  4  2  0  0  0  0
  3 10  1  0  0  0  0
  4 13  1  0  0  0  0
  4 19  1  0  0  0  0
  5  6  1  0  0  0  0
  5 15  1  0  0  0  0
  6 16  1  0  0  0  0
  7  8  1  0  0  0  0
  7 17  1  0  0  0  0
  8 18  1  0  0  0  0
  9 11  1  0  0  0  0
  9 14  1  0  0  0  0
 10 11  1  0  0  0  0
 10 12  1  0  0  0  0
 11 13  1  0  0  0  0
 12 14  1  0  0  0  0
 12 20  1  0  0  0  0
 13 15  1  0  0  0  0
 13 16  1  0  0  0  0
 14 17  1  0  0  0  0
 14 18  1  0  0  0  0
  1 21  1  0  0  0  0
  2 22  1  0  0  0  0
  3 23  1  0  0  0  0
  5 24  1  0  0  0  0
  5 25  1  0  0  0  0
  6 26  1  0  0  0  0
  6 27  1  0  0  0  0
  7 28  1  0  0  0  0
  7 29  1  0  0  0  0
  8 30  1  0  0  0  0
  8 31  1  0  0  0  0
  9 32  1  0  0  0  0
 10 33  1  0  0  0  0
 11 34  1  0  0  0  0
M  END
> <id>
EN300-51317

> <smiles>
BrC1=CC2C(C3C=CC2(Br)C43OCCO4)C51OCCO5

> <IUPAC Name>
4',7'-dibromodispiro[1,3-dioxolane-2,3'-tricyclo[5.2.1.0,2,6]decane-10',2''-[1,3]dioxolane]-4',8'-diene

> <CAS>
485318-53-4

> <Purity>
95

> <URL>
https://www.enaminestore.com/catalog/EN300-51317

> <ROCS_ShapeQuery>
x1247relevant_x1083L0AP1_x1305L0BP1_

> <ROCS_TanimotoCombo>
0.799 

> <ROCS_ShapeTanimoto>
0.511 

> <ROCS_ColorTanimoto>
0.288 

> <ROCS_RefTversky>
0.458 

> <ROCS_RefColorTversky>
0.388 

> <ROCS_RefTverskyCombo>
0.845 

> <ROCS_FitTversky>
1.293 

> <ROCS_FitColorTversky>
0.529 

> <ROCS_FitTverskyCombo>
1.821 

> <ROCS_ColorScore>
-8.346

> <ROCS_Overlap>
1354.077

> <ROCS_Rank>
351                 

$$$$
untitled-dbase-26464_0
  -OEChem-06162310163D

 23 24  0     1  0  0  0  0  0999 V2000
  -12.9085   15.5850  -37.3708 C   0  0  0  0  0  0  0  0  0  0  0  0
  -12.5448   13.4748  -38.4175 C   0  0  0  0  0  0  0  0  0  0  0  0
  -13.5451   14.6452  -38.4021 C   0  0  2  0  0  0  0  0  0  0  0  0
  -11.5852   15.6673  -38.1357 C   0  0  1  0  0  0  0  0  0  0  0  0
  -11.1790   14.1782  -38.2610 C   0  0  1  0  0  0  0  0  0  0  0  0
  -13.3887   15.4370  -39.7171 C   0  0  2  0  0  0  0  0  0  0  0  0
  -12.0782   16.2104  -39.4950 C   0  0  2  0  0  0  0  0  0  0  0  0
  -10.4720   13.6882  -37.0803 N   0  0  0  0  0  0  0  0  0  0  0  0
  -14.4760   16.3432  -39.8511 O   0  0  0  0  0  0  0  0  0  0  0  0
  -11.1413   15.9707  -40.5280 O   0  0  0  0  0  0  0  0  0  0  0  0
  -13.4217   16.5491  -37.2895 H   0  0  0  0  0  0  0  0  0  0  0  0
  -12.8225   15.1391  -36.3753 H   0  0  0  0  0  0  0  0  0  0  0  0
  -12.7532   12.7915  -37.5851 H   0  0  0  0  0  0  0  0  0  0  0  0
  -12.5967   12.8915  -39.3431 H   0  0  0  0  0  0  0  0  0  0  0  0
  -14.5729   14.3544  -38.1738 H   0  0  0  0  0  0  0  0  0  0  0  0
  -10.8145   16.2972  -37.6840 H   0  0  0  0  0  0  0  0  0  0  0  0
  -10.5453   13.9956  -39.1343 H   0  0  0  0  0  0  0  0  0  0  0  0
  -13.3717   14.7861  -40.5973 H   0  0  0  0  0  0  0  0  0  0  0  0
  -12.2512   17.2914  -39.4326 H   0  0  0  0  0  0  0  0  0  0  0  0
  -10.3059   12.7170  -37.1990 H   0  0  0  0  0  0  0  0  0  0  0  0
   -9.6157   14.1840  -37.0041 H   0  0  0  0  0  0  0  0  0  0  0  0
  -14.3415   16.8197  -40.6860 H   0  0  0  0  0  0  0  0  0  0  0  0
  -11.5175   16.3372  -41.3466 H   0  0  0  0  0  0  0  0  0  0  0  0
  1  3  1  0  0  0  0
  1  4  1  0  0  0  0
  2  3  1  0  0  0  0
  2  5  1  0  0  0  0
  3  6  1  0  0  0  0
  4  5  1  0  0  0  0
  4  7  1  0  0  0  0
  5  8  1  0  0  0  0
  6  7  1  0  0  0  0
  6  9  1  0  0  0  0
  7 10  1  0  0  0  0
  1 11  1  0  0  0  0
  1 12  1  0  0  0  0
  2 13  1  0  0  0  0
  2 14  1  0  0  0  0
  3 15  1  0  0  0  0
  4 16  1  0  0  0  0
  5 17  1  0  0  0  0
  6 18  1  0  0  0  0
  7 19  1  0  0  0  0
  8 20  1  0  0  0  0
  8 21  1  0  0  0  0
  9 22  1  0  0  0  0
 10 23  1  0  0  0  0
M  END
> <id>
EN300-6763292

> <smiles>
NC1CC2CC1C(O)C2O

> <MDLNUMBER>
MFCD31810643

> <IUPAC Name>
5-aminobicyclo[2.2.1]heptane-2,3-diol

> <CAS>
2305252-74-6

> <URL>
https://www.enaminestore.com/catalog/EN300-6763292

> <ROCS_ShapeQuery>
x1247relevant_x1083L0AP1_x1305L0BP1_

> <ROCS_TanimotoCombo>
0.799 

> <ROCS_ShapeTanimoto>
0.405 

> <ROCS_ColorTanimoto>
0.394 

> <ROCS_RefTversky>
0.344 

> <ROCS_RefColorTversky>
0.451 

> <ROCS_RefTverskyCombo>
0.795 

> <ROCS_FitTversky>
1.774 

> <ROCS_FitColorTversky>
0.755 

> <ROCS_FitTverskyCombo>
2.529 

> <ROCS_ColorScore>
-9.649

> <ROCS_Overlap>
1009.091

> <ROCS_Rank>
352                 

$$$$
untitled-dbase-36017_0
  -OEChem-06162310163D

 23 24  0     1  0  0  0  0  0999 V2000
  -12.9085   15.5850  -37.3708 C   0  0  0  0  0  0  0  0  0  0  0  0
  -12.5448   13.4748  -38.4175 C   0  0  0  0  0  0  0  0  0  0  0  0
  -13.5451   14.6452  -38.4021 C   0  0  2  0  0  0  0  0  0  0  0  0
  -11.5852   15.6673  -38.1357 C   0  0  1  0  0  0  0  0  0  0  0  0
  -11.1790   14.1782  -38.2610 C   0  0  1  0  0  0  0  0  0  0  0  0
  -13.3887   15.4370  -39.7171 C   0  0  2  0  0  0  0  0  0  0  0  0
  -12.0782   16.2104  -39.4950 C   0  0  2  0  0  0  0  0  0  0  0  0
  -10.4720   13.6882  -37.0803 N   0  0  0  0  0  0  0  0  0  0  0  0
  -14.4760   16.3432  -39.8511 O   0  0  0  0  0  0  0  0  0  0  0  0
  -11.1413   15.9707  -40.5280 O   0  0  0  0  0  0  0  0  0  0  0  0
  -13.4217   16.5491  -37.2895 H   0  0  0  0  0  0  0  0  0  0  0  0
  -12.8225   15.1391  -36.3753 H   0  0  0  0  0  0  0  0  0  0  0  0
  -12.7532   12.7915  -37.5851 H   0  0  0  0  0  0  0  0  0  0  0  0
  -12.5967   12.8915  -39.3431 H   0  0  0  0  0  0  0  0  0  0  0  0
  -14.5729   14.3544  -38.1738 H   0  0  0  0  0  0  0  0  0  0  0  0
  -10.8145   16.2972  -37.6840 H   0  0  0  0  0  0  0  0  0  0  0  0
  -10.5453   13.9956  -39.1343 H   0  0  0  0  0  0  0  0  0  0  0  0
  -13.3717   14.7861  -40.5973 H   0  0  0  0  0  0  0  0  0  0  0  0
  -12.2512   17.2914  -39.4326 H   0  0  0  0  0  0  0  0  0  0  0  0
  -10.3059   12.7170  -37.1990 H   0  0  0  0  0  0  0  0  0  0  0  0
   -9.6157   14.1840  -37.0041 H   0  0  0  0  0  0  0  0  0  0  0  0
  -14.3415   16.8197  -40.6860 H   0  0  0  0  0  0  0  0  0  0  0  0
  -11.5175   16.3372  -41.3466 H   0  0  0  0  0  0  0  0  0  0  0  0
  1  3  1  0  0  0  0
  1  4  1  0  0  0  0
  2  3  1  0  0  0  0
  2  5  1  0  0  0  0
  3  6  1  0  0  0  0
  4  5  1  0  0  0  0
  4  7  1  0  0  0  0
  5  8  1  0  0  0  0
  6  7  1  0  0  0  0
  6  9  1  0  0  0  0
  7 10  1  0  0  0  0
  1 11  1  0  0  0  0
  1 12  1  0  0  0  0
  2 13  1  0  0  0  0
  2 14  1  0  0  0  0
  3 15  1  0  0  0  0
  4 16  1  0  0  0  0
  5 17  1  0  0  0  0
  6 18  1  0  0  0  0
  7 19  1  0  0  0  0
  8 20  1  0  0  0  0
  8 21  1  0  0  0  0
  9 22  1  0  0  0  0
 10 23  1  0  0  0  0
M  END
> <id>
EN300-6763291

> <smiles>
Cl.NC1CC2CC1C(O)C2O

> <MDLNUMBER>
MFCD31810971

> <IUPAC Name>
5-aminobicyclo[2.2.1]heptane-2,3-diol hydrochloride

> <CAS>
2305252-75-7

> <Purity>
95

> <URL>
https://www.enaminestore.com/catalog/EN300-6763291

> <Saltdate>
Cl

> <ROCS_ShapeQuery>
x1247relevant_x1083L0AP1_x1305L0BP1_

> <ROCS_TanimotoCombo>
0.799 

> <ROCS_ShapeTanimoto>
0.405 

> <ROCS_ColorTanimoto>
0.394 

> <ROCS_RefTversky>
0.344 

> <ROCS_RefColorTversky>
0.451 

> <ROCS_RefTverskyCombo>
0.795 

> <ROCS_FitTversky>
1.774 

> <ROCS_FitColorTversky>
0.755 

> <ROCS_FitTverskyCombo>
2.529 

> <ROCS_ColorScore>
-9.649

> <ROCS_Overlap>
1009.091

> <ROCS_Rank>
353                 

$$$$
untitled-dbase-10120_0
  -OEChem-06162310163D

 26 28  0     1  0  0  0  0  0999 V2000
  -13.8195   16.4115  -37.9477 C   0  0  0  0  0  0  0  0  0  0  0  0
  -14.3015   15.2115  -38.7820 C   0  0  0  0  0  0  0  0  0  0  0  0
  -10.3207   14.9094  -37.0831 C   0  0  0  0  0  0  0  0  0  0  0  0
  -11.0501   13.0944  -38.3444 C   0  0  0  0  0  0  0  0  0  0  0  0
  -12.2819   16.3109  -38.0522 C   0  0  1  0  0  0  0  0  0  0  0  0
  -12.9808   14.5710  -39.2631 C   0  0  2  0  0  0  0  0  0  0  0  0
  -11.8273   15.1008  -37.2080 C   0  0  1  0  0  0  0  0  0  0  0  0
  -12.3117   13.8955  -38.0465 C   0  0  2  0  0  0  0  0  0  0  0  0
  -12.0947   15.8029  -39.4879 C   0  0  0  0  0  0  0  0  0  0  0  0
  -10.1422   13.4686  -37.2605 N   0  0  0  0  0  0  0  0  0  0  0  0
  -12.6088   16.6796  -40.4704 O   0  0  0  0  0  0  0  0  0  0  0  0
  -14.1842   17.3481  -38.3843 H   0  0  0  0  0  0  0  0  0  0  0  0
  -14.1744   16.3609  -36.9134 H   0  0  0  0  0  0  0  0  0  0  0  0
  -14.9137   14.5213  -38.1927 H   0  0  0  0  0  0  0  0  0  0  0  0
  -14.9034   15.5566  -39.6302 H   0  0  0  0  0  0  0  0  0  0  0  0
   -9.7616   15.4648  -37.8441 H   0  0  0  0  0  0  0  0  0  0  0  0
   -9.9575   15.2302  -36.1020 H   0  0  0  0  0  0  0  0  0  0  0  0
  -11.2486   12.0184  -38.3342 H   0  0  0  0  0  0  0  0  0  0  0  0
  -10.6137   13.3444  -39.3177 H   0  0  0  0  0  0  0  0  0  0  0  0
  -11.7813   17.2517  -37.8137 H   0  0  0  0  0  0  0  0  0  0  0  0
  -13.1184   13.9223  -40.1309 H   0  0  0  0  0  0  0  0  0  0  0  0
  -12.2923   15.0953  -36.2145 H   0  0  0  0  0  0  0  0  0  0  0  0
  -13.0209   13.2841  -37.4748 H   0  0  0  0  0  0  0  0  0  0  0  0
  -11.0583   15.5644  -39.7416 H   0  0  0  0  0  0  0  0  0  0  0  0
   -9.1779   13.2515  -37.5058 H   0  0  0  0  0  0  0  0  0  0  0  0
  -12.1372   17.5256  -40.3763 H   0  0  0  0  0  0  0  0  0  0  0  0
  1  2  1  0  0  0  0
  1  5  1  0  0  0  0
  2  6  1  0  0  0  0
  3  7  1  0  0  0  0
  3 10  1  0  0  0  0
  4  8  1  0  0  0  0
  4 10  1  0  0  0  0
  5  7  1  0  0  0  0
  5  9  1  0  0  0  0
  6  8  1  0  0  0  0
  6  9  1  0  0  0  0
  7  8  1  0  0  0  0
  9 11  1  0  0  0  0
  1 12  1  0  0  0  0
  1 13  1  0  0  0  0
  2 14  1  0  0  0  0
  2 15  1  0  0  0  0
  3 16  1  0  0  0  0
  3 17  1  0  0  0  0
  4 18  1  0  0  0  0
  4 19  1  0  0  0  0
  5 20  1  0  0  0  0
  6 21  1  0  0  0  0
  7 22  1  0  0  0  0
  8 23  1  0  0  0  0
  9 24  1  0  0  0  0
 10 25  1  0  0  0  0
 11 26  1  0  0  0  0
M  END
> <id>
EN300-345989

> <smiles>
Cl.OC1C2CCC1C3CNCC23

> <MDLNUMBER>
MFCD30536068

> <IUPAC Name>
4-azatricyclo[5.2.1.0,2,6]decan-10-ol hydrochloride

> <Purity>
95

> <URL>
https://www.enaminestore.com/catalog/EN300-345989

> <Saltdate>
Cl

> <ROCS_ShapeQuery>
x1247relevant_x1083L0AP1_x1305L0BP1_

> <ROCS_TanimotoCombo>
0.798 

> <ROCS_ShapeTanimoto>
0.437 

> <ROCS_ColorTanimoto>
0.361 

> <ROCS_RefTversky>
0.369 

> <ROCS_RefColorTversky>
0.414 

> <ROCS_RefTverskyCombo>
0.783 

> <ROCS_FitTversky>
1.728 

> <ROCS_FitColorTversky>
0.739 

> <ROCS_FitTverskyCombo>
2.467 

> <ROCS_ColorScore>
-8.828

> <ROCS_Overlap>
1084.228

> <ROCS_Rank>
354                 

$$$$
untitled-dbase-10121_0
  -OEChem-06162310163D

 26 28  0     1  0  0  0  0  0999 V2000
  -13.8195   16.4115  -37.9477 C   0  0  0  0  0  0  0  0  0  0  0  0
  -14.3015   15.2115  -38.7820 C   0  0  0  0  0  0  0  0  0  0  0  0
  -10.3207   14.9094  -37.0831 C   0  0  0  0  0  0  0  0  0  0  0  0
  -11.0501   13.0944  -38.3444 C   0  0  0  0  0  0  0  0  0  0  0  0
  -12.2819   16.3109  -38.0522 C   0  0  1  0  0  0  0  0  0  0  0  0
  -12.9808   14.5710  -39.2631 C   0  0  2  0  0  0  0  0  0  0  0  0
  -11.8273   15.1008  -37.2080 C   0  0  1  0  0  0  0  0  0  0  0  0
  -12.3117   13.8955  -38.0465 C   0  0  2  0  0  0  0  0  0  0  0  0
  -12.0947   15.8029  -39.4879 C   0  0  0  0  0  0  0  0  0  0  0  0
  -10.1422   13.4686  -37.2605 N   0  0  0  0  0  0  0  0  0  0  0  0
  -12.6088   16.6796  -40.4704 O   0  0  0  0  0  0  0  0  0  0  0  0
  -14.1842   17.3481  -38.3843 H   0  0  0  0  0  0  0  0  0  0  0  0
  -14.1744   16.3609  -36.9134 H   0  0  0  0  0  0  0  0  0  0  0  0
  -14.9137   14.5213  -38.1927 H   0  0  0  0  0  0  0  0  0  0  0  0
  -14.9034   15.5566  -39.6302 H   0  0  0  0  0  0  0  0  0  0  0  0
   -9.7616   15.4648  -37.8441 H   0  0  0  0  0  0  0  0  0  0  0  0
   -9.9575   15.2302  -36.1020 H   0  0  0  0  0  0  0  0  0  0  0  0
  -11.2486   12.0184  -38.3342 H   0  0  0  0  0  0  0  0  0  0  0  0
  -10.6137   13.3444  -39.3177 H   0  0  0  0  0  0  0  0  0  0  0  0
  -11.7813   17.2517  -37.8137 H   0  0  0  0  0  0  0  0  0  0  0  0
  -13.1184   13.9223  -40.1309 H   0  0  0  0  0  0  0  0  0  0  0  0
  -12.2923   15.0953  -36.2145 H   0  0  0  0  0  0  0  0  0  0  0  0
  -13.0209   13.2841  -37.4748 H   0  0  0  0  0  0  0  0  0  0  0  0
  -11.0583   15.5644  -39.7416 H   0  0  0  0  0  0  0  0  0  0  0  0
   -9.1779   13.2515  -37.5058 H   0  0  0  0  0  0  0  0  0  0  0  0
  -12.1372   17.5256  -40.3763 H   0  0  0  0  0  0  0  0  0  0  0  0
  1  2  1  0  0  0  0
  1  5  1  0  0  0  0
  2  6  1  0  0  0  0
  3  7  1  0  0  0  0
  3 10  1  0  0  0  0
  4  8  1  0  0  0  0
  4 10  1  0  0  0  0
  5  7  1  0  0  0  0
  5  9  1  0  0  0  0
  6  8  1  0  0  0  0
  6  9  1  0  0  0  0
  7  8  1  0  0  0  0
  9 11  1  0  0  0  0
  1 12  1  0  0  0  0
  1 13  1  0  0  0  0
  2 14  1  0  0  0  0
  2 15  1  0  0  0  0
  3 16  1  0  0  0  0
  3 17  1  0  0  0  0
  4 18  1  0  0  0  0
  4 19  1  0  0  0  0
  5 20  1  0  0  0  0
  6 21  1  0  0  0  0
  7 22  1  0  0  0  0
  8 23  1  0  0  0  0
  9 24  1  0  0  0  0
 10 25  1  0  0  0  0
 11 26  1  0  0  0  0
M  END
> <id>
EN300-345990

> <smiles>
OC1C2CCC1C3CNCC23

> <MDLNUMBER>
MFCD24517747

> <IUPAC Name>
4-azatricyclo[5.2.1.0,2,6]decan-10-ol

> <URL>
https://www.enaminestore.com/catalog/EN300-345990

> <ROCS_ShapeQuery>
x1247relevant_x1083L0AP1_x1305L0BP1_

> <ROCS_TanimotoCombo>
0.798 

> <ROCS_ShapeTanimoto>
0.437 

> <ROCS_ColorTanimoto>
0.361 

> <ROCS_RefTversky>
0.369 

> <ROCS_RefColorTversky>
0.414 

> <ROCS_RefTverskyCombo>
0.783 

> <ROCS_FitTversky>
1.728 

> <ROCS_FitColorTversky>
0.739 

> <ROCS_FitTverskyCombo>
2.467 

> <ROCS_ColorScore>
-8.828

> <ROCS_Overlap>
1084.228

> <ROCS_Rank>
355                 

$$$$
untitled-dbase-10375_17
  -OEChem-06162310163D

 41 42  0     1  0  0  0  0  0999 V2000
  -12.2821   16.2034  -39.7065 C   0  0  0  0  0  0  0  0  0  0  0  0
  -10.6321   14.3152  -36.7084 C   0  0  0  0  0  0  0  0  0  0  0  0
  -13.9637   15.4551  -37.3184 C   0  0  0  0  0  0  0  0  0  0  0  0
  -13.9084   14.1693  -38.1656 C   0  0  0  0  0  0  0  0  0  0  0  0
  -12.0666   16.8660  -38.3340 C   0  0  2  0  0  0  0  0  0  0  0  0
  -12.0506   14.6878  -39.8104 C   0  0  2  0  0  0  0  0  0  0  0  0
  -12.5037   15.9159  -37.1973 C   0  0  2  0  0  0  0  0  0  0  0  0
  -12.4205   13.9722  -38.4908 C   0  0  1  0  0  0  0  0  0  0  0  0
  -12.7595   18.2236  -38.2523 C   0  0  0  0  0  0  0  0  0  0  0  0
  -10.6045   14.4351  -40.2277 C   0  0  0  0  0  0  0  0  0  0  0  0
   -8.1635   13.2520  -35.7359 C   0  0  0  0  0  0  0  0  0  0  0  0
   -7.7016   12.6337  -38.1262 C   0  0  0  0  0  0  0  0  0  0  0  0
   -7.9753   15.0477  -37.4893 C   0  0  0  0  0  0  0  0  0  0  0  0
   -8.4164   13.6140  -37.1987 C   0  0  0  0  0  0  0  0  0  0  0  0
  -11.7805   14.6708  -37.3880 N   0  0  0  0  0  0  0  0  0  0  0  0
  -12.5365   16.8650  -40.7144 O   0  0  0  0  0  0  0  0  0  0  0  0
  -10.3651   14.6794  -35.5656 O   0  0  0  0  0  0  0  0  0  0  0  0
   -9.8205   13.5076  -37.4582 O   0  0  0  0  0  0  0  0  0  0  0  0
  -14.6281   16.1985  -37.7660 H   0  0  0  0  0  0  0  0  0  0  0  0
  -14.3641   15.2121  -36.3267 H   0  0  0  0  0  0  0  0  0  0  0  0
  -14.2801   13.3278  -37.5688 H   0  0  0  0  0  0  0  0  0  0  0  0
  -14.5365   14.2457  -39.0589 H   0  0  0  0  0  0  0  0  0  0  0  0
  -10.9853   17.0388  -38.2444 H   0  0  0  0  0  0  0  0  0  0  0  0
  -12.7118   14.3134  -40.6025 H   0  0  0  0  0  0  0  0  0  0  0  0
  -12.2880   16.3563  -36.2182 H   0  0  0  0  0  0  0  0  0  0  0  0
  -12.1500   12.9126  -38.5270 H   0  0  0  0  0  0  0  0  0  0  0  0
  -13.8375   18.0946  -38.3375 H   0  0  0  0  0  0  0  0  0  0  0  0
  -12.4128   18.8652  -39.0612 H   0  0  0  0  0  0  0  0  0  0  0  0
  -12.5320   18.6983  -37.2989 H   0  0  0  0  0  0  0  0  0  0  0  0
   -9.9275   14.7989  -39.4560 H   0  0  0  0  0  0  0  0  0  0  0  0
  -10.3922   14.9548  -41.1609 H   0  0  0  0  0  0  0  0  0  0  0  0
  -10.4414   13.3675  -40.3697 H   0  0  0  0  0  0  0  0  0  0  0  0
   -8.6750   13.9533  -35.0669 H   0  0  0  0  0  0  0  0  0  0  0  0
   -8.5075   12.2383  -35.5059 H   0  0  0  0  0  0  0  0  0  0  0  0
   -7.0962   13.3181  -35.4956 H   0  0  0  0  0  0  0  0  0  0  0  0
   -7.8803   12.8896  -39.1768 H   0  0  0  0  0  0  0  0  0  0  0  0
   -8.0834   11.6158  -37.9872 H   0  0  0  0  0  0  0  0  0  0  0  0
   -6.6211   12.6258  -37.9503 H   0  0  0  0  0  0  0  0  0  0  0  0
   -8.1566   15.3076  -38.5385 H   0  0  0  0  0  0  0  0  0  0  0  0
   -8.5052   15.7685  -36.8582 H   0  0  0  0  0  0  0  0  0  0  0  0
   -6.8983   15.1653  -37.3233 H   0  0  0  0  0  0  0  0  0  0  0  0
  1  5  1  0  0  0  0
  1  6  1  0  0  0  0
  1 16  2  0  0  0  0
  2 15  1  0  0  0  0
  2 17  2  0  0  0  0
  2 18  1  0  0  0  0
  3  4  1  0  0  0  0
  3  7  1  0  0  0  0
  4  8  1  0  0  0  0
  5  7  1  0  0  0  0
  5  9  1  0  0  0  0
  6  8  1  0  0  0  0
  6 10  1  0  0  0  0
  7 15  1  0  0  0  0
  8 15  1  0  0  0  0
 11 14  1  0  0  0  0
 12 14  1  0  0  0  0
 13 14  1  0  0  0  0
 14 18  1  0  0  0  0
  3 19  1  0  0  0  0
  3 20  1  0  0  0  0
  4 21  1  0  0  0  0
  4 22  1  0  0  0  0
  5 23  1  0  0  0  0
  6 24  1  0  0  0  0
  7 25  1  0  0  0  0
  8 26  1  0  0  0  0
  9 27  1  0  0  0  0
  9 28  1  0  0  0  0
  9 29  1  0  0  0  0
 10 30  1  0  0  0  0
 10 31  1  0  0  0  0
 10 32  1  0  0  0  0
 11 33  1  0  0  0  0
 11 34  1  0  0  0  0
 11 35  1  0  0  0  0
 12 36  1  0  0  0  0
 12 37  1  0  0  0  0
 12 38  1  0  0  0  0
 13 39  1  0  0  0  0
 13 40  1  0  0  0  0
 13 41  1  0  0  0  0
M  END
> <id>
EN300-360936

> <smiles>
CC1C2CCC(C(C)C1=O)N2C(=O)OC(C)(C)C

> <MDLNUMBER>
MFCD30538689

> <IUPAC Name>
tert-butyl 2,4-dimethyl-3-oxo-8-azabicyclo[3.2.1]octane-8-carboxylate

> <CAS>
2137753-60-5

> <URL>
https://www.enaminestore.com/catalog/EN300-360936

> <ROCS_ShapeQuery>
x1247relevant_x1083L0AP1_x1305L0BP1_

> <ROCS_TanimotoCombo>
0.798 

> <ROCS_ShapeTanimoto>
0.478 

> <ROCS_ColorTanimoto>
0.320 

> <ROCS_RefTversky>
0.423 

> <ROCS_RefColorTversky>
0.351 

> <ROCS_RefTverskyCombo>
0.774 

> <ROCS_FitTversky>
1.373 

> <ROCS_FitColorTversky>
0.785 

> <ROCS_FitTverskyCombo>
2.158 

> <ROCS_ColorScore>
-7.446

> <ROCS_Overlap>
1248.626

> <ROCS_Rank>
356                 

$$$$
untitled-dbase-20187_0
  -OEChem-06162310163D

 18 20  0     1  0  0  0  0  0999 V2000
   -9.9187   13.9785  -35.7517 C   0  0  0  0  0  0  0  0  0  0  0  0
   -9.0457   14.7104  -36.5556 C   0  0  0  0  0  0  0  0  0  0  0  0
  -11.2853   13.9429  -36.0465 C   0  0  0  0  0  0  0  0  0  0  0  0
   -9.5359   15.4057  -37.6565 C   0  0  0  0  0  0  0  0  0  0  0  0
  -11.8067   14.6364  -37.1473 C   0  0  0  0  0  0  0  0  0  0  0  0
  -10.9026   15.3585  -37.9354 C   0  0  0  0  0  0  0  0  0  0  0  0
  -12.6722   16.1205  -39.5180 C   0  0  0  0  0  0  0  0  0  0  0  0
  -13.2591   14.6302  -37.4833 C   0  0  1  0  0  0  0  0  0  0  0  0
  -13.6779   15.4700  -38.6567 C   0  0  2  0  0  0  0  0  0  0  0  0
  -12.9994   16.6846  -40.5546 O   0  0  0  0  0  0  0  0  0  0  0  0
  -11.3397   16.0701  -39.0831 O   0  0  0  0  0  0  0  0  0  0  0  0
  -13.6570   14.0382  -38.7313 O   0  0  0  0  0  0  0  0  0  0  0  0
   -9.5371   13.4351  -34.8918 H   0  0  0  0  0  0  0  0  0  0  0  0
   -7.9852   14.7361  -36.3234 H   0  0  0  0  0  0  0  0  0  0  0  0
  -11.9491   13.3676  -35.4049 H   0  0  0  0  0  0  0  0  0  0  0  0
   -8.8588   15.9722  -38.2886 H   0  0  0  0  0  0  0  0  0  0  0  0
  -13.9676   14.5536  -36.6644 H   0  0  0  0  0  0  0  0  0  0  0  0
  -14.6464   15.9530  -38.6018 H   0  0  0  0  0  0  0  0  0  0  0  0
  1  2  2  0  0  0  0
  1  3  1  0  0  0  0
  2  4  1  0  0  0  0
  3  5  2  0  0  0  0
  4  6  2  0  0  0  0
  5  6  1  0  0  0  0
  5  8  1  0  0  0  0
  6 11  1  0  0  0  0
  7  9  1  0  0  0  0
  7 10  2  0  0  0  0
  7 11  1  0  0  0  0
  8  9  1  0  0  0  0
  8 12  1  0  0  0  0
  9 12  1  0  0  0  0
  1 13  1  0  0  0  0
  2 14  1  0  0  0  0
  3 15  1  0  0  0  0
  4 16  1  0  0  0  0
  8 17  1  0  0  0  0
  9 18  1  0  0  0  0
M  END
> <id>
EN300-22980934

> <smiles>
O=C1OC=2C=CC=CC2C3OC31

> <MDLNUMBER>
MFCD31726037

> <IUPAC Name>
3,6-dioxatricyclo[5.4.0.0,2,4]undeca-1(11),7,9-trien-5-one

> <CAS>
143873-69-2

> <Purity>
95

> <URL>
https://www.enaminestore.com/catalog/EN300-22980934

> <ROCS_ShapeQuery>
x1247relevant_x1083L0AP1_x1305L0BP1_

> <ROCS_TanimotoCombo>
0.798 

> <ROCS_ShapeTanimoto>
0.480 

> <ROCS_ColorTanimoto>
0.319 

> <ROCS_RefTversky>
0.399 

> <ROCS_RefColorTversky>
0.329 

> <ROCS_RefTverskyCombo>
0.728 

> <ROCS_FitTversky>
1.722 

> <ROCS_FitColorTversky>
0.912 

> <ROCS_FitTverskyCombo>
2.634 

> <ROCS_ColorScore>
-6.938

> <ROCS_Overlap>
1173.461

> <ROCS_Rank>
357                 

$$$$
untitled-dbase-6156_0
  -OEChem-06162310163D

 26 28  0     1  0  0  0  0  0999 V2000
  -13.9609   15.9337  -38.1266 C   0  0  0  0  0  0  0  0  0  0  0  0
  -13.2778   16.2989  -39.2224 C   0  0  0  0  0  0  0  0  0  0  0  0
  -12.8594   14.0741  -38.8911 C   0  0  0  0  0  0  0  0  0  0  0  0
  -11.0936   14.1189  -36.2622 C   0  0  0  0  0  0  0  0  0  0  0  0
   -9.8991   14.6136  -38.2027 C   0  0  0  0  0  0  0  0  0  0  0  0
  -13.2690   14.7124  -37.5601 C   0  0  1  0  0  0  0  0  0  0  0  0
  -12.1213   15.3298  -39.3689 C   0  0  2  0  0  0  0  0  0  0  0  0
  -11.9220   15.2013  -36.9478 C   0  0  2  0  0  0  0  0  0  0  0  0
  -11.0897   15.5925  -38.2173 C   0  0  1  0  0  0  0  0  0  0  0  0
  -10.5746   17.0354  -38.1880 C   0  0  0  0  0  0  0  0  0  0  0  0
  -10.2919   13.5139  -37.3217 N   0  0  0  0  0  0  0  0  0  0  0  0
  -14.8123   16.4374  -37.7023 H   0  0  0  0  0  0  0  0  0  0  0  0
  -13.4713   17.1569  -39.8435 H   0  0  0  0  0  0  0  0  0  0  0  0
  -12.2292   13.1885  -38.7815 H   0  0  0  0  0  0  0  0  0  0  0  0
  -13.7143   13.8034  -39.5251 H   0  0  0  0  0  0  0  0  0  0  0  0
  -10.4503   14.5444  -35.4777 H   0  0  0  0  0  0  0  0  0  0  0  0
  -11.7175   13.3541  -35.7748 H   0  0  0  0  0  0  0  0  0  0  0  0
   -9.6571   14.2188  -39.2052 H   0  0  0  0  0  0  0  0  0  0  0  0
   -8.9694   15.0886  -37.8410 H   0  0  0  0  0  0  0  0  0  0  0  0
  -13.8971   14.0930  -36.9165 H   0  0  0  0  0  0  0  0  0  0  0  0
  -11.7062   15.2636  -40.3786 H   0  0  0  0  0  0  0  0  0  0  0  0
  -12.0687   16.0549  -36.2758 H   0  0  0  0  0  0  0  0  0  0  0  0
  -11.4179   17.7194  -38.1985 H   0  0  0  0  0  0  0  0  0  0  0  0
   -9.9516   17.2133  -39.0593 H   0  0  0  0  0  0  0  0  0  0  0  0
   -9.9910   17.1915  -37.2857 H   0  0  0  0  0  0  0  0  0  0  0  0
   -9.4495   13.1118  -36.9048 H   0  0  0  0  0  0  0  0  0  0  0  0
  1  2  2  0  0  0  0
  1  6  1  0  0  0  0
  2  7  1  0  0  0  0
  3  6  1  0  0  0  0
  3  7  1  0  0  0  0
  4  8  1  0  0  0  0
  4 11  1  0  0  0  0
  5  9  1  0  0  0  0
  5 11  1  0  0  0  0
  6  8  1  0  0  0  0
  7  9  1  0  0  0  0
  8  9  1  0  0  0  0
  9 10  1  0  0  0  0
  1 12  1  0  0  0  0
  2 13  1  0  0  0  0
  3 14  1  0  0  0  0
  3 15  1  0  0  0  0
  4 16  1  0  0  0  0
  4 17  1  0  0  0  0
  5 18  1  0  0  0  0
  5 19  1  0  0  0  0
  6 20  1  0  0  0  0
  7 21  1  0  0  0  0
  8 22  1  0  0  0  0
 10 23  1  0  0  0  0
 10 24  1  0  0  0  0
 10 25  1  0  0  0  0
 11 26  1  0  0  0  0
M  END
> <id>
EN300-244735

> <smiles>
CC12CNCC2C3CC1C=C3

> <MDLNUMBER>
MFCD29034944

> <IUPAC Name>
2-methyl-4-azatricyclo[5.2.1.0,2,6]dec-8-ene

> <CAS>
1934576-29-0

> <URL>
https://www.enaminestore.com/catalog/EN300-244735

> <ROCS_ShapeQuery>
x1247relevant_x1083L0AP1_x1305L0BP1_

> <ROCS_TanimotoCombo>
0.798 

> <ROCS_ShapeTanimoto>
0.428 

> <ROCS_ColorTanimoto>
0.370 

> <ROCS_RefTversky>
0.364 

> <ROCS_RefColorTversky>
0.399 

> <ROCS_RefTverskyCombo>
0.763 

> <ROCS_FitTversky>
1.692 

> <ROCS_FitColorTversky>
0.837 

> <ROCS_FitTverskyCombo>
2.529 

> <ROCS_ColorScore>
-8.468

> <ROCS_Overlap>
1069.584

> <ROCS_Rank>
358                 

$$$$
untitled-dbase-9919_0
  -OEChem-06162310163D

 21 23  0     1  0  0  0  0  0999 V2000
  -13.6397   15.0097  -39.3316 C   0  0  0  0  0  0  0  0  0  0  0  0
  -14.0016   14.8627  -38.0490 C   0  0  0  0  0  0  0  0  0  0  0  0
   -9.8429   14.9651  -38.7865 C   0  0  0  0  0  0  0  0  0  0  0  0
  -10.4739   14.7086  -36.5507 C   0  0  0  0  0  0  0  0  0  0  0  0
  -12.2470   15.5701  -39.3112 C   0  0  2  0  0  0  0  0  0  0  0  0
  -12.8344   15.3313  -37.2291 C   0  0  1  0  0  0  0  0  0  0  0  0
  -11.2729   14.4820  -38.8363 C   0  0  2  0  0  0  0  0  0  0  0  0
  -11.6926   14.3113  -37.3487 C   0  0  1  0  0  0  0  0  0  0  0  0
   -9.4939   15.0422  -37.4582 N   0  0  0  0  0  0  0  0  0  0  0  0
   -8.2367   15.4306  -37.0592 N   0  0  0  0  0  0  0  0  0  0  0  0
   -9.1714   15.2440  -39.7693 O   0  0  0  0  0  0  0  0  0  0  0  0
  -10.4224   14.7353  -35.3297 O   0  0  0  0  0  0  0  0  0  0  0  0
  -12.3375   16.3830  -38.1059 O   0  0  0  0  0  0  0  0  0  0  0  0
  -14.2082   14.7205  -40.2001 H   0  0  0  0  0  0  0  0  0  0  0  0
  -14.9186   14.4317  -37.6821 H   0  0  0  0  0  0  0  0  0  0  0  0
  -11.9554   16.1773  -40.1693 H   0  0  0  0  0  0  0  0  0  0  0  0
  -13.0644   15.7265  -36.2386 H   0  0  0  0  0  0  0  0  0  0  0  0
  -11.3318   13.5510  -39.4090 H   0  0  0  0  0  0  0  0  0  0  0  0
  -11.9835   13.2860  -37.0992 H   0  0  0  0  0  0  0  0  0  0  0  0
   -8.2637   15.9397  -36.1585 H   0  0  0  0  0  0  0  0  0  0  0  0
   -7.8255   16.1146  -37.7176 H   0  0  0  0  0  0  0  0  0  0  0  0
  1  2  2  0  0  0  0
  1  5  1  0  0  0  0
  2  6  1  0  0  0  0
  3  7  1  0  0  0  0
  3  9  1  0  0  0  0
  3 11  2  0  0  0  0
  4  8  1  0  0  0  0
  4  9  1  0  0  0  0
  4 12  2  0  0  0  0
  5  7  1  0  0  0  0
  5 13  1  0  0  0  0
  6  8  1  0  0  0  0
  6 13  1  0  0  0  0
  7  8  1  0  0  0  0
  9 10  1  0  0  0  0
  1 14  1  0  0  0  0
  2 15  1  0  0  0  0
  5 16  1  0  0  0  0
  6 17  1  0  0  0  0
  7 18  1  0  0  0  0
  8 19  1  0  0  0  0
 10 20  1  0  0  0  0
 10 21  1  0  0  0  0
M  END
> <id>
EN300-349413

> <smiles>
NN1C(=O)C2C3OC(C=C3)C2C1=O

> <MDLNUMBER>
MFCD24504379

> <IUPAC Name>
4-amino-10-oxa-4-azatricyclo[5.2.1.0,2,6]dec-8-ene-3,5-dione

> <CAS>
4290-38-4

> <Purity>
95

> <URL>
https://www.enaminestore.com/catalog/EN300-349413

> <ROCS_ShapeQuery>
x1247relevant_x1083L0AP1_x1305L0BP1_

> <ROCS_TanimotoCombo>
0.797 

> <ROCS_ShapeTanimoto>
0.473 

> <ROCS_ColorTanimoto>
0.325 

> <ROCS_RefTversky>
0.402 

> <ROCS_RefColorTversky>
0.384 

> <ROCS_RefTverskyCombo>
0.786 

> <ROCS_FitTversky>
1.586 

> <ROCS_FitColorTversky>
0.679 

> <ROCS_FitTverskyCombo>
2.265 

> <ROCS_ColorScore>
-8.193

> <ROCS_Overlap>
1183.748

> <ROCS_Rank>
359                 

$$$$
untitled-dbase-35031_6
  -OEChem-06162310163D

 37 39  0     1  0  0  0  0  0999 V2000
  -14.1976   17.2095  -39.2758 C   0  0  0  0  0  0  0  0  0  0  0  0
  -11.2434   15.5067  -36.1408 C   0  0  0  0  0  0  0  0  0  0  0  0
  -13.0048   13.6509  -38.0311 C   0  0  0  0  0  0  0  0  0  0  0  0
  -13.3563   18.0462  -40.2210 C   0  0  0  0  0  0  0  0  0  0  0  0
   -9.8274   15.0388  -35.8812 C   0  0  0  0  0  0  0  0  0  0  0  0
  -12.7179   15.8132  -40.4345 C   0  0  0  0  0  0  0  0  0  0  0  0
   -9.9579   15.8508  -38.0593 C   0  0  0  0  0  0  0  0  0  0  0  0
  -13.3152   15.9873  -39.0317 C   0  0  2  0  0  0  0  0  0  0  0  0
  -14.0402   14.7525  -38.4078 C   0  0  0  0  0  0  0  0  0  0  0  0
  -11.3745   15.4313  -37.6576 C   0  0  1  0  0  0  0  0  0  0  0  0
  -14.7879   15.1801  -37.1174 C   0  0  0  0  0  0  0  0  0  0  0  0
  -15.0970   14.1287  -39.3447 C   0  0  0  0  0  0  0  0  0  0  0  0
  -11.6149   14.0739  -38.1411 N   0  0  0  0  0  0  0  0  0  0  0  0
  -12.5584   17.1353  -40.9835 O   0  0  0  0  0  0  0  0  0  0  0  0
   -9.0605   15.3904  -37.0391 O   0  0  0  0  0  0  0  0  0  0  0  0
  -12.2880   16.4287  -38.1211 O   0  0  0  0  0  0  0  0  0  0  0  0
  -14.4818   17.7778  -38.3902 H   0  0  0  0  0  0  0  0  0  0  0  0
  -15.1207   16.9339  -39.7996 H   0  0  0  0  0  0  0  0  0  0  0  0
  -11.9660   14.9029  -35.5870 H   0  0  0  0  0  0  0  0  0  0  0  0
  -11.3635   16.5434  -35.8045 H   0  0  0  0  0  0  0  0  0  0  0  0
  -13.2045   13.2739  -37.0074 H   0  0  0  0  0  0  0  0  0  0  0  0
  -13.1488   12.7695  -38.6874 H   0  0  0  0  0  0  0  0  0  0  0  0
  -13.9678   18.6545  -40.8970 H   0  0  0  0  0  0  0  0  0  0  0  0
  -12.6795   18.7148  -39.6747 H   0  0  0  0  0  0  0  0  0  0  0  0
   -9.3901   15.5078  -34.9960 H   0  0  0  0  0  0  0  0  0  0  0  0
   -9.7760   13.9528  -35.7593 H   0  0  0  0  0  0  0  0  0  0  0  0
  -11.7349   15.3329  -40.4274 H   0  0  0  0  0  0  0  0  0  0  0  0
  -13.3779   15.2665  -41.1137 H   0  0  0  0  0  0  0  0  0  0  0  0
   -9.6413   15.4537  -39.0300 H   0  0  0  0  0  0  0  0  0  0  0  0
   -9.8635   16.9419  -38.1193 H   0  0  0  0  0  0  0  0  0  0  0  0
  -15.5122   15.9471  -37.3655 H   0  0  0  0  0  0  0  0  0  0  0  0
  -14.0700   15.5683  -36.4045 H   0  0  0  0  0  0  0  0  0  0  0  0
  -15.2934   14.3175  -36.6989 H   0  0  0  0  0  0  0  0  0  0  0  0
  -15.8177   14.8901  -39.6086 H   0  0  0  0  0  0  0  0  0  0  0  0
  -15.5842   13.3162  -38.8240 H   0  0  0  0  0  0  0  0  0  0  0  0
  -14.5992   13.7608  -40.2311 H   0  0  0  0  0  0  0  0  0  0  0  0
  -11.0104   13.4015  -37.6539 H   0  0  0  0  0  0  0  0  0  0  0  0
  1  4  1  0  0  0  0
  1  8  1  0  0  0  0
  2  5  1  0  0  0  0
  2 10  1  0  0  0  0
  3  9  1  0  0  0  0
  3 13  1  0  0  0  0
  4 14  1  0  0  0  0
  5 15  1  0  0  0  0
  6  8  1  0  0  0  0
  6 14  1  0  0  0  0
  7 10  1  0  0  0  0
  7 15  1  0  0  0  0
  8  9  1  0  0  0  0
  8 16  1  0  0  0  0
  9 11  1  0  0  0  0
  9 12  1  0  0  0  0
 10 13  1  0  0  0  0
 10 16  1  0  0  0  0
  1 17  1  0  0  0  0
  1 18  1  0  0  0  0
  2 19  1  0  0  0  0
  2 20  1  0  0  0  0
  3 21  1  0  0  0  0
  3 22  1  0  0  0  0
  4 23  1  0  0  0  0
  4 24  1  0  0  0  0
  5 25  1  0  0  0  0
  5 26  1  0  0  0  0
  6 27  1  0  0  0  0
  6 28  1  0  0  0  0
  7 29  1  0  0  0  0
  7 30  1  0  0  0  0
 11 31  1  0  0  0  0
 11 32  1  0  0  0  0
 11 33  1  0  0  0  0
 12 34  1  0  0  0  0
 12 35  1  0  0  0  0
 12 36  1  0  0  0  0
 13 37  1  0  0  0  0
M  END
> <id>
EN300-1280287

> <smiles>
CC1(C)CNC2(CCOC2)OC31CCOC3

> <IUPAC Name>
14,14-dimethyl-2,6,9-trioxa-12-azadispiro[4.1.4^{7}.3^{5}]tetradecane

> <CAS>
2168670-26-4

> <URL>
https://www.enaminestore.com/catalog/EN300-1280287

> <ROCS_ShapeQuery>
x1247relevant_x1083L0AP1_x1305L0BP1_

> <ROCS_TanimotoCombo>
0.797 

> <ROCS_ShapeTanimoto>
0.491 

> <ROCS_ColorTanimoto>
0.306 

> <ROCS_RefTversky>
0.423 

> <ROCS_RefColorTversky>
0.341 

> <ROCS_RefTverskyCombo>
0.764 

> <ROCS_FitTversky>
1.487 

> <ROCS_FitColorTversky>
0.750 

> <ROCS_FitTverskyCombo>
2.237 

> <ROCS_ColorScore>
-7.231

> <ROCS_Overlap>
1247.237

> <ROCS_Rank>
360                 

$$$$
untitled-dbase-26490_0
  -OEChem-06162310163D

 25 27  0     1  0  0  0  0  0999 V2000
   -9.8099   13.9776  -35.7902 C   0  0  0  0  0  0  0  0  0  0  0  0
   -8.9540   14.7664  -36.5580 C   0  0  0  0  0  0  0  0  0  0  0  0
  -11.1640   13.8856  -36.1168 C   0  0  0  0  0  0  0  0  0  0  0  0
   -9.4449   15.4641  -37.6598 C   0  0  0  0  0  0  0  0  0  0  0  0
  -11.6828   14.5771  -37.2184 C   0  0  0  0  0  0  0  0  0  0  0  0
  -10.7992   15.3662  -37.9985 C   0  0  0  0  0  0  0  0  0  0  0  0
  -13.7274   16.0111  -37.9992 C   0  0  0  0  0  0  0  0  0  0  0  0
  -13.3533   14.3389  -39.2232 C   0  0  0  0  0  0  0  0  0  0  0  0
  -13.1965   14.5680  -37.6784 C   0  0  0  0  0  0  0  0  0  0  0  0
  -11.3909   16.1192  -39.1921 C   0  0  2  0  0  0  0  0  0  0  0  0
  -12.9162   15.8420  -39.3290 C   0  0  0  0  0  0  0  0  0  0  0  0
  -10.7360   15.7445  -40.4487 N   0  0  0  0  0  0  0  0  0  0  0  0
   -9.4227   13.4363  -34.9317 H   0  0  0  0  0  0  0  0  0  0  0  0
   -7.9025   14.8383  -36.2950 H   0  0  0  0  0  0  0  0  0  0  0  0
  -11.8212   13.2727  -35.5054 H   0  0  0  0  0  0  0  0  0  0  0  0
   -8.7694   16.0814  -38.2451 H   0  0  0  0  0  0  0  0  0  0  0  0
  -14.8145   16.0796  -38.1282 H   0  0  0  0  0  0  0  0  0  0  0  0
  -13.4054   16.8145  -37.3302 H   0  0  0  0  0  0  0  0  0  0  0  0
  -12.6882   13.6007  -39.6797 H   0  0  0  0  0  0  0  0  0  0  0  0
  -14.3793   14.1348  -39.5528 H   0  0  0  0  0  0  0  0  0  0  0  0
  -13.8576   13.9611  -37.0517 H   0  0  0  0  0  0  0  0  0  0  0  0
  -11.2491   17.1936  -39.0199 H   0  0  0  0  0  0  0  0  0  0  0  0
  -13.3543   16.3827  -40.1767 H   0  0  0  0  0  0  0  0  0  0  0  0
  -11.1524   16.2697  -41.1784 H   0  0  0  0  0  0  0  0  0  0  0  0
   -9.7718   15.9564  -40.3648 H   0  0  0  0  0  0  0  0  0  0  0  0
  1  2  2  0  0  0  0
  1  3  1  0  0  0  0
  2  4  1  0  0  0  0
  3  5  2  0  0  0  0
  4  6  2  0  0  0  0
  5  6  1  0  0  0  0
  5  9  1  0  0  0  0
  6 10  1  0  0  0  0
  7  9  1  0  0  0  0
  7 11  1  0  0  0  0
  8  9  1  0  0  0  0
  8 11  1  0  0  0  0
 10 11  1  0  0  0  0
 10 12  1  0  0  0  0
  1 13  1  0  0  0  0
  2 14  1  0  0  0  0
  3 15  1  0  0  0  0
  4 16  1  0  0  0  0
  7 17  1  0  0  0  0
  7 18  1  0  0  0  0
  8 19  1  0  0  0  0
  8 20  1  0  0  0  0
  9 21  1  0  0  0  0
 10 22  1  0  0  0  0
 11 23  1  0  0  0  0
 12 24  1  0  0  0  0
 12 25  1  0  0  0  0
M  END
> <id>
EN300-7427797

> <smiles>
NC1C2CC(C2)C=3C=CC=CC13

> <MDLNUMBER>
MFCD20716962

> <IUPAC Name>
tricyclo[7.1.1.0,2,7]undeca-2,4,6-trien-8-amine

> <CAS>
81569-22-4

> <Purity>
95

> <URL>
https://www.enaminestore.com/catalog/EN300-7427797

> <ROCS_ShapeQuery>
x1247relevant_x1083L0AP1_x1305L0BP1_

> <ROCS_TanimotoCombo>
0.797 

> <ROCS_ShapeTanimoto>
0.471 

> <ROCS_ColorTanimoto>
0.327 

> <ROCS_RefTversky>
0.392 

> <ROCS_RefColorTversky>
0.358 

> <ROCS_RefTverskyCombo>
0.751 

> <ROCS_FitTversky>
1.735 

> <ROCS_FitColorTversky>
0.787 

> <ROCS_FitTverskyCombo>
2.522 

> <ROCS_ColorScore>
-7.596

> <ROCS_Overlap>
1153.179

> <ROCS_Rank>
361                 

$$$$
untitled-dbase-6102_0
  -OEChem-06162310163D

 25 27  0     1  0  0  0  0  0999 V2000
  -13.0476   13.7573  -37.7792 C   0  0  0  0  0  0  0  0  0  0  0  0
  -11.7666   14.2170  -37.5421 C   0  0  0  0  0  0  0  0  0  0  0  0
  -11.4298   15.4300  -38.1414 C   0  0  0  0  0  0  0  0  0  0  0  0
  -13.4967   15.5656  -39.0861 C   0  0  0  0  0  0  0  0  0  0  0  0
  -10.0353   15.9826  -37.9401 C   0  0  0  0  0  0  0  0  0  0  0  0
  -10.7265   14.1970  -35.2773 C   0  0  0  0  0  0  0  0  0  0  0  0
   -9.7495   15.3606  -35.4685 C   0  0  0  0  0  0  0  0  0  0  0  0
  -10.7749   13.5207  -36.6480 C   0  0  2  0  0  0  0  0  0  0  0  0
   -9.2153   15.1904  -36.8959 C   0  0  1  0  0  0  0  0  0  0  0  0
  -13.9391   14.4096  -38.5530 N   0  0  0  0  0  0  0  0  0  0  0  0
  -12.2805   16.1237  -38.9272 N   0  0  0  0  0  0  0  0  0  0  0  0
   -9.4024   13.7481  -37.1507 N   0  0  0  0  0  0  0  0  0  0  0  0
  -14.4089   16.2706  -39.9019 N   0  0  0  0  0  0  0  0  0  0  0  0
  -13.4078   12.8319  -37.3425 H   0  0  0  0  0  0  0  0  0  0  0  0
   -9.5212   15.9368  -38.9085 H   0  0  0  0  0  0  0  0  0  0  0  0
  -10.1017   17.0366  -37.6465 H   0  0  0  0  0  0  0  0  0  0  0  0
  -10.3216   13.5073  -34.5263 H   0  0  0  0  0  0  0  0  0  0  0  0
  -11.7039   14.5427  -34.9234 H   0  0  0  0  0  0  0  0  0  0  0  0
  -10.2376   16.3286  -35.3146 H   0  0  0  0  0  0  0  0  0  0  0  0
   -8.9361   15.2748  -34.7382 H   0  0  0  0  0  0  0  0  0  0  0  0
  -10.9941   12.4504  -36.5794 H   0  0  0  0  0  0  0  0  0  0  0  0
   -8.1614   15.4807  -36.9589 H   0  0  0  0  0  0  0  0  0  0  0  0
   -8.7490   13.2241  -36.5668 H   0  0  0  0  0  0  0  0  0  0  0  0
  -14.1398   17.1555  -40.2794 H   0  0  0  0  0  0  0  0  0  0  0  0
  -15.3375   15.9179  -40.0093 H   0  0  0  0  0  0  0  0  0  0  0  0
  1  2  2  0  0  0  0
  1 10  1  0  0  0  0
  2  3  1  0  0  0  0
  2  8  1  0  0  0  0
  3  5  1  0  0  0  0
  3 11  2  0  0  0  0
  4 10  2  0  0  0  0
  4 11  1  0  0  0  0
  4 13  1  0  0  0  0
  5  9  1  0  0  0  0
  6  7  1  0  0  0  0
  6  8  1  0  0  0  0
  7  9  1  0  0  0  0
  8 12  1  0  0  0  0
  9 12  1  0  0  0  0
  1 14  1  0  0  0  0
  5 15  1  0  0  0  0
  5 16  1  0  0  0  0
  6 17  1  0  0  0  0
  6 18  1  0  0  0  0
  7 19  1  0  0  0  0
  7 20  1  0  0  0  0
  8 21  1  0  0  0  0
  9 22  1  0  0  0  0
 12 23  1  0  0  0  0
 13 24  1  0  0  0  0
 13 25  1  0  0  0  0
M  END
> <id>
EN300-240036

> <smiles>
Cl.Cl.NC=1N=CC=2C3CCC(CC2N1)N3

> <MDLNUMBER>
MFCD28166066

> <IUPAC Name>
4,6,12-triazatricyclo[7.2.1.0,2,7]dodeca-2,4,6-trien-5-amine dihydrochloride

> <CAS>
1823607-31-3

> <Purity>
95

> <URL>
https://www.enaminestore.com/catalog/EN300-240036

> <Saltdate>
Cl

> <ROCS_ShapeQuery>
x1247relevant_x1083L0AP1_x1305L0BP1_

> <ROCS_TanimotoCombo>
0.797 

> <ROCS_ShapeTanimoto>
0.489 

> <ROCS_ColorTanimoto>
0.308 

> <ROCS_RefTversky>
0.410 

> <ROCS_RefColorTversky>
0.382 

> <ROCS_RefTverskyCombo>
0.791 

> <ROCS_FitTversky>
1.656 

> <ROCS_FitColorTversky>
0.616 

> <ROCS_FitTverskyCombo>
2.272 

> <ROCS_ColorScore>
-8.165

> <ROCS_Overlap>
1205.088

> <ROCS_Rank>
362                 

$$$$
untitled-dbase-48450_0
  -OEChem-06162310163D

 25 27  0     1  0  0  0  0  0999 V2000
  -13.0476   13.7573  -37.7792 C   0  0  0  0  0  0  0  0  0  0  0  0
  -11.7666   14.2170  -37.5421 C   0  0  0  0  0  0  0  0  0  0  0  0
  -11.4298   15.4300  -38.1414 C   0  0  0  0  0  0  0  0  0  0  0  0
  -13.4967   15.5656  -39.0861 C   0  0  0  0  0  0  0  0  0  0  0  0
  -10.0353   15.9826  -37.9401 C   0  0  0  0  0  0  0  0  0  0  0  0
  -10.7265   14.1970  -35.2773 C   0  0  0  0  0  0  0  0  0  0  0  0
   -9.7495   15.3606  -35.4685 C   0  0  0  0  0  0  0  0  0  0  0  0
  -10.7749   13.5207  -36.6480 C   0  0  2  0  0  0  0  0  0  0  0  0
   -9.2153   15.1904  -36.8959 C   0  0  1  0  0  0  0  0  0  0  0  0
  -13.9391   14.4096  -38.5530 N   0  0  0  0  0  0  0  0  0  0  0  0
  -12.2805   16.1237  -38.9272 N   0  0  0  0  0  0  0  0  0  0  0  0
   -9.4024   13.7481  -37.1507 N   0  0  0  0  0  0  0  0  0  0  0  0
  -14.4089   16.2706  -39.9019 N   0  0  0  0  0  0  0  0  0  0  0  0
  -13.4078   12.8319  -37.3425 H   0  0  0  0  0  0  0  0  0  0  0  0
   -9.5212   15.9368  -38.9085 H   0  0  0  0  0  0  0  0  0  0  0  0
  -10.1017   17.0366  -37.6465 H   0  0  0  0  0  0  0  0  0  0  0  0
  -10.3216   13.5073  -34.5263 H   0  0  0  0  0  0  0  0  0  0  0  0
  -11.7039   14.5427  -34.9234 H   0  0  0  0  0  0  0  0  0  0  0  0
  -10.2376   16.3286  -35.3146 H   0  0  0  0  0  0  0  0  0  0  0  0
   -8.9361   15.2748  -34.7382 H   0  0  0  0  0  0  0  0  0  0  0  0
  -10.9941   12.4504  -36.5794 H   0  0  0  0  0  0  0  0  0  0  0  0
   -8.1614   15.4807  -36.9589 H   0  0  0  0  0  0  0  0  0  0  0  0
   -8.7490   13.2241  -36.5668 H   0  0  0  0  0  0  0  0  0  0  0  0
  -14.1398   17.1555  -40.2794 H   0  0  0  0  0  0  0  0  0  0  0  0
  -15.3375   15.9179  -40.0093 H   0  0  0  0  0  0  0  0  0  0  0  0
  1  2  2  0  0  0  0
  1 10  1  0  0  0  0
  2  3  1  0  0  0  0
  2  8  1  0  0  0  0
  3  5  1  0  0  0  0
  3 11  2  0  0  0  0
  4 10  2  0  0  0  0
  4 11  1  0  0  0  0
  4 13  1  0  0  0  0
  5  9  1  0  0  0  0
  6  7  1  0  0  0  0
  6  8  1  0  0  0  0
  7  9  1  0  0  0  0
  8 12  1  0  0  0  0
  9 12  1  0  0  0  0
  1 14  1  0  0  0  0
  5 15  1  0  0  0  0
  5 16  1  0  0  0  0
  6 17  1  0  0  0  0
  6 18  1  0  0  0  0
  7 19  1  0  0  0  0
  7 20  1  0  0  0  0
  8 21  1  0  0  0  0
  9 22  1  0  0  0  0
 12 23  1  0  0  0  0
 13 24  1  0  0  0  0
 13 25  1  0  0  0  0
M  END
> <id>
EN300-234340

> <smiles>
NC=1N=CC=2C3CCC(CC2N1)N3

> <MDLNUMBER>
MFCD28652946

> <IUPAC Name>
4,6,12-triazatricyclo[7.2.1.0,2,7]dodeca-2,4,6-trien-5-amine

> <CAS>
1782209-70-4

> <URL>
https://www.enaminestore.com/catalog/EN300-234340

> <ROCS_ShapeQuery>
x1247relevant_x1083L0AP1_x1305L0BP1_

> <ROCS_TanimotoCombo>
0.797 

> <ROCS_ShapeTanimoto>
0.489 

> <ROCS_ColorTanimoto>
0.308 

> <ROCS_RefTversky>
0.410 

> <ROCS_RefColorTversky>
0.382 

> <ROCS_RefTverskyCombo>
0.791 

> <ROCS_FitTversky>
1.656 

> <ROCS_FitColorTversky>
0.616 

> <ROCS_FitTverskyCombo>
2.272 

> <ROCS_ColorScore>
-8.165

> <ROCS_Overlap>
1205.088

> <ROCS_Rank>
363                 

$$$$
untitled-dbase-35398_18
  -OEChem-06162310163D

 43 46  0     1  0  0  0  0  0999 V2000
  -16.1505   14.2922  -38.9008 C   0  0  0  0  0  0  0  0  0  0  0  0
  -12.9489   17.6068  -40.9051 C   0  0  0  0  0  0  0  0  0  0  0  0
   -9.0113   14.7638  -37.5537 C   0  0  0  0  0  0  0  0  0  0  0  0
  -15.1315   14.4890  -40.0412 C   0  0  0  0  0  0  0  0  0  0  0  0
  -15.3354   15.3091  -38.0775 C   0  0  0  0  0  0  0  0  0  0  0  0
  -14.0412   17.4327  -39.8339 C   0  0  0  0  0  0  0  0  0  0  0  0
  -12.6187   16.1131  -40.7338 C   0  0  0  0  0  0  0  0  0  0  0  0
  -10.0760   15.8194  -37.8562 C   0  0  0  0  0  0  0  0  0  0  0  0
  -11.9255   15.4734  -36.1548 C   0  0  0  0  0  0  0  0  0  0  0  0
  -13.2500   13.8024  -38.3640 C   0  0  0  0  0  0  0  0  0  0  0  0
   -9.2570   13.8426  -36.3686 C   0  0  0  0  0  0  0  0  0  0  0  0
  -11.2689   14.4315  -35.2592 C   0  0  0  0  0  0  0  0  0  0  0  0
  -14.0990   14.9386  -38.9631 C   0  0  0  0  0  0  0  0  0  0  0  0
  -13.2448   16.2031  -39.3047 C   0  0  0  0  0  0  0  0  0  0  0  0
  -11.5595   15.4382  -37.6564 C   0  0  2  0  0  0  0  0  0  0  0  0
  -11.8263   14.1389  -38.2933 N   0  0  0  0  0  0  0  0  0  0  0  0
   -9.8483   14.5199  -35.2698 O   0  0  0  0  0  0  0  0  0  0  0  0
  -12.3015   16.5336  -38.2506 O   0  0  0  0  0  0  0  0  0  0  0  0
  -17.1771   14.5845  -39.1285 H   0  0  0  0  0  0  0  0  0  0  0  0
  -16.1526   13.2826  -38.4786 H   0  0  0  0  0  0  0  0  0  0  0  0
  -13.2984   17.9051  -41.8969 H   0  0  0  0  0  0  0  0  0  0  0  0
  -12.1350   18.2746  -40.5991 H   0  0  0  0  0  0  0  0  0  0  0  0
   -8.8856   14.1404  -38.4638 H   0  0  0  0  0  0  0  0  0  0  0  0
   -8.0344   15.2731  -37.4143 H   0  0  0  0  0  0  0  0  0  0  0  0
  -14.8760   13.5786  -40.5904 H   0  0  0  0  0  0  0  0  0  0  0  0
  -15.4518   15.2388  -40.7678 H   0  0  0  0  0  0  0  0  0  0  0  0
  -15.7086   16.3323  -38.1796 H   0  0  0  0  0  0  0  0  0  0  0  0
  -15.2652   15.0830  -37.0113 H   0  0  0  0  0  0  0  0  0  0  0  0
  -14.1243   18.2733  -39.1360 H   0  0  0  0  0  0  0  0  0  0  0  0
  -15.0342   17.2524  -40.2558 H   0  0  0  0  0  0  0  0  0  0  0  0
  -13.1386   15.4701  -41.4515 H   0  0  0  0  0  0  0  0  0  0  0  0
  -11.5537   15.8816  -40.7930 H   0  0  0  0  0  0  0  0  0  0  0  0
   -9.8276   16.6929  -37.2289 H   0  0  0  0  0  0  0  0  0  0  0  0
   -9.9272   16.1727  -38.8945 H   0  0  0  0  0  0  0  0  0  0  0  0
  -13.0186   15.4058  -36.0458 H   0  0  0  0  0  0  0  0  0  0  0  0
  -11.6568   16.4450  -35.7126 H   0  0  0  0  0  0  0  0  0  0  0  0
  -13.5927   13.5571  -37.3420 H   0  0  0  0  0  0  0  0  0  0  0  0
  -13.3988   12.8686  -38.9370 H   0  0  0  0  0  0  0  0  0  0  0  0
   -9.8355   12.9364  -36.6514 H   0  0  0  0  0  0  0  0  0  0  0  0
   -8.2787   13.4650  -36.0120 H   0  0  0  0  0  0  0  0  0  0  0  0
  -11.5775   14.5902  -34.2345 H   0  0  0  0  0  0  0  0  0  0  0  0
  -11.5660   13.4352  -35.5541 H   0  0  0  0  0  0  0  0  0  0  0  0
  -11.3507   13.3935  -37.7907 H   0  0  0  0  0  0  0  0  0  0  0  0
  1  4  1  0  0  0  0
  1  5  1  0  0  0  0
  2  6  1  0  0  0  0
  2  7  1  0  0  0  0
  3  8  1  0  0  0  0
  3 11  1  0  0  0  0
  4 13  1  0  0  0  0
  5 13  1  0  0  0  0
  6 14  1  0  0  0  0
  7 14  1  0  0  0  0
  8 15  1  0  0  0  0
  9 12  1  0  0  0  0
  9 15  1  0  0  0  0
 10 13  1  0  0  0  0
 10 16  1  0  0  0  0
 11 17  1  0  0  0  0
 12 17  1  0  0  0  0
 13 14  1  0  0  0  0
 14 18  1  0  0  0  0
 15 16  1  0  0  0  0
 15 18  1  0  0  0  0
  1 19  1  0  0  0  0
  1 20  1  0  0  0  0
  2 21  1  0  0  0  0
  2 22  1  0  0  0  0
  3 23  1  0  0  0  0
  3 24  1  0  0  0  0
  4 25  1  0  0  0  0
  4 26  1  0  0  0  0
  5 27  1  0  0  0  0
  5 28  1  0  0  0  0
  6 29  1  0  0  0  0
  6 30  1  0  0  0  0
  7 31  1  0  0  0  0
  7 32  1  0  0  0  0
  8 33  1  0  0  0  0
  8 34  1  0  0  0  0
  9 35  1  0  0  0  0
  9 36  1  0  0  0  0
 10 37  1  0  0  0  0
 10 38  1  0  0  0  0
 11 39  1  0  0  0  0
 11 40  1  0  0  0  0
 12 41  1  0  0  0  0
 12 42  1  0  0  0  0
 16 43  1  0  0  0  0
M  END
> <id>
EN300-1280375

> <smiles>
C1CC2(C1)CNC3(CCCOCC3)OC42CCC4

> <IUPAC Name>
9,13-dioxa-17-azatrispiro[3.0.3^{5}.1.6^{10}.2^{4}]octadecane

> <URL>
https://www.enaminestore.com/catalog/EN300-1280375

> <ROCS_ShapeQuery>
x1247relevant_x1083L0AP1_x1305L0BP1_

> <ROCS_TanimotoCombo>
0.797 

> <ROCS_ShapeTanimoto>
0.500 

> <ROCS_ColorTanimoto>
0.297 

> <ROCS_RefTversky>
0.437 

> <ROCS_RefColorTversky>
0.323 

> <ROCS_RefTverskyCombo>
0.760 

> <ROCS_FitTversky>
1.407 

> <ROCS_FitColorTversky>
0.786 

> <ROCS_FitTverskyCombo>
2.193 

> <ROCS_ColorScore>
-6.838

> <ROCS_Overlap>
1289.606

> <ROCS_Rank>
364                 

$$$$
untitled-dbase-30701_10
  -OEChem-06162310163D

 37 38  0     1  0  0  0  0  0999 V2000
   -9.8824   14.7790  -37.0828 C   0  0  0  0  0  0  0  0  0  0  0  0
  -13.9675   15.4192  -37.6685 C   0  0  0  0  0  0  0  0  0  0  0  0
  -12.9324   16.5390  -37.4638 C   0  0  0  0  0  0  0  0  0  0  0  0
  -12.9482   14.8387  -39.8828 C   0  0  0  0  0  0  0  0  0  0  0  0
  -12.0827   13.7867  -37.7948 C   0  0  0  0  0  0  0  0  0  0  0  0
  -13.3545   14.2783  -38.5044 C   0  0  1  0  0  0  0  0  0  0  0  0
  -11.6310   16.1879  -38.2030 C   0  0  2  0  0  0  0  0  0  0  0  0
  -11.9520   15.9984  -39.6988 C   0  0  1  0  0  0  0  0  0  0  0  0
  -10.1408   14.4372  -34.4966 C   0  0  0  0  0  0  0  0  0  0  0  0
   -9.8818   11.9629  -34.8426 C   0  0  0  0  0  0  0  0  0  0  0  0
   -7.8779   13.4668  -35.0183 C   0  0  0  0  0  0  0  0  0  0  0  0
   -9.3831   13.3469  -35.2526 C   0  0  0  0  0  0  0  0  0  0  0  0
  -11.1403   14.9042  -37.6654 N   0  0  0  0  0  0  0  0  0  0  0  0
   -9.0764   15.6988  -36.9630 O   0  0  0  0  0  0  0  0  0  0  0  0
  -10.7618   15.7241  -40.4299 O   0  0  0  0  0  0  0  0  0  0  0  0
   -9.6401   13.5007  -36.6530 O   0  0  0  0  0  0  0  0  0  0  0  0
  -14.2975   15.0394  -36.6942 H   0  0  0  0  0  0  0  0  0  0  0  0
  -14.8570   15.8205  -38.1686 H   0  0  0  0  0  0  0  0  0  0  0  0
  -13.3360   17.4895  -37.8325 H   0  0  0  0  0  0  0  0  0  0  0  0
  -12.7360   16.6757  -36.3934 H   0  0  0  0  0  0  0  0  0  0  0  0
  -12.5212   14.0429  -40.5050 H   0  0  0  0  0  0  0  0  0  0  0  0
  -13.8414   15.2042  -40.4040 H   0  0  0  0  0  0  0  0  0  0  0  0
  -12.3053   13.4057  -36.7916 H   0  0  0  0  0  0  0  0  0  0  0  0
  -11.5933   12.9853  -38.3599 H   0  0  0  0  0  0  0  0  0  0  0  0
  -14.0726   13.4599  -38.6208 H   0  0  0  0  0  0  0  0  0  0  0  0
  -10.8749   16.9665  -38.0607 H   0  0  0  0  0  0  0  0  0  0  0  0
  -12.3812   16.9175  -40.1149 H   0  0  0  0  0  0  0  0  0  0  0  0
   -9.7857   15.4322  -34.7881 H   0  0  0  0  0  0  0  0  0  0  0  0
  -11.2182   14.3838  -34.6840 H   0  0  0  0  0  0  0  0  0  0  0  0
   -9.9728   14.3532  -33.4168 H   0  0  0  0  0  0  0  0  0  0  0  0
   -9.3409   11.1774  -35.3827 H   0  0  0  0  0  0  0  0  0  0  0  0
  -10.9408   11.8387  -35.0963 H   0  0  0  0  0  0  0  0  0  0  0  0
   -9.7603   11.7916  -33.7682 H   0  0  0  0  0  0  0  0  0  0  0  0
   -7.3342   12.6848  -35.5605 H   0  0  0  0  0  0  0  0  0  0  0  0
   -7.4958   14.4407  -35.3411 H   0  0  0  0  0  0  0  0  0  0  0  0
   -7.6368   13.3324  -33.9576 H   0  0  0  0  0  0  0  0  0  0  0  0
  -10.3999   14.8982  -40.0719 H   0  0  0  0  0  0  0  0  0  0  0  0
  1 13  1  0  0  0  0
  1 14  2  0  0  0  0
  1 16  1  0  0  0  0
  2  3  1  0  0  0  0
  2  6  1  0  0  0  0
  3  7  1  0  0  0  0
  4  6  1  0  0  0  0
  4  8  1  0  0  0  0
  5  6  1  0  0  0  0
  5 13  1  0  0  0  0
  7  8  1  0  0  0  0
  7 13  1  0  0  0  0
  8 15  1  0  0  0  0
  9 12  1  0  0  0  0
 10 12  1  0  0  0  0
 11 12  1  0  0  0  0
 12 16  1  0  0  0  0
  2 17  1  0  0  0  0
  2 18  1  0  0  0  0
  3 19  1  0  0  0  0
  3 20  1  0  0  0  0
  4 21  1  0  0  0  0
  4 22  1  0  0  0  0
  5 23  1  0  0  0  0
  5 24  1  0  0  0  0
  6 25  1  0  0  0  0
  7 26  1  0  0  0  0
  8 27  1  0  0  0  0
  9 28  1  0  0  0  0
  9 29  1  0  0  0  0
  9 30  1  0  0  0  0
 10 31  1  0  0  0  0
 10 32  1  0  0  0  0
 10 33  1  0  0  0  0
 11 34  1  0  0  0  0
 11 35  1  0  0  0  0
 11 36  1  0  0  0  0
 15 37  1  0  0  0  0
M  END
> <id>
EN300-7219335

> <smiles>
CC(C)(C)OC(=O)N1CC2CCC1C(O)C2

> <MDLNUMBER>
MFCD23106478

> <IUPAC Name>
tert-butyl 6-hydroxy-2-azabicyclo[2.2.2]octane-2-carboxylate

> <CAS>
1311391-25-9

> <URL>
https://www.enaminestore.com/catalog/EN300-7219335

> <ROCS_ShapeQuery>
x1247relevant_x1083L0AP1_x1305L0BP1_

> <ROCS_TanimotoCombo>
0.797 

> <ROCS_ShapeTanimoto>
0.492 

> <ROCS_ColorTanimoto>
0.305 

> <ROCS_RefTversky>
0.422 

> <ROCS_RefColorTversky>
0.351 

> <ROCS_RefTverskyCombo>
0.773 

> <ROCS_FitTversky>
1.510 

> <ROCS_FitColorTversky>
0.702 

> <ROCS_FitTverskyCombo>
2.211 

> <ROCS_ColorScore>
-7.452

> <ROCS_Overlap>
1243.257

> <ROCS_Rank>
365                 

$$$$
untitled-dbase-25284_16
  -OEChem-06162310163D

 40 42  0     1  0  0  0  0  0999 V2000
  -14.3933   18.1319  -40.3078 C   0  0  0  0  0  0  0  0  0  0  0  0
  -13.9026   17.6699  -38.9427 C   0  0  0  0  0  0  0  0  0  0  0  0
  -10.0356   15.7305  -37.6485 C   0  0  0  0  0  0  0  0  0  0  0  0
  -13.1853   13.8722  -38.3581 C   0  0  0  0  0  0  0  0  0  0  0  0
  -13.2259   18.2500  -41.2730 C   0  0  0  0  0  0  0  0  0  0  0  0
   -9.2569   14.8416  -36.7022 C   0  0  0  0  0  0  0  0  0  0  0  0
  -11.9522   16.6442  -40.0802 C   0  0  0  0  0  0  0  0  0  0  0  0
  -11.4526   14.9939  -35.9498 C   0  0  0  0  0  0  0  0  0  0  0  0
  -13.0330   16.3852  -38.9940 C   0  0  2  0  0  0  0  0  0  0  0  0
  -13.8532   15.0236  -39.1770 C   0  0  0  0  0  0  0  0  0  0  0  0
  -11.4793   15.2800  -37.4570 C   0  0  2  0  0  0  0  0  0  0  0  0
  -13.9596   14.5677  -40.6496 C   0  0  0  0  0  0  0  0  0  0  0  0
  -15.3012   15.1185  -38.6351 C   0  0  0  0  0  0  0  0  0  0  0  0
  -11.7464   14.0588  -38.2299 N   0  0  0  0  0  0  0  0  0  0  0  0
  -12.5050   17.0246  -41.3399 O   0  0  0  0  0  0  0  0  0  0  0  0
  -10.1370   14.5300  -35.6165 O   0  0  0  0  0  0  0  0  0  0  0  0
  -12.3982   16.3511  -37.6933 O   0  0  0  0  0  0  0  0  0  0  0  0
  -15.1395   17.4371  -40.7009 H   0  0  0  0  0  0  0  0  0  0  0  0
  -14.8734   19.1102  -40.2053 H   0  0  0  0  0  0  0  0  0  0  0  0
  -13.3323   18.5071  -38.5032 H   0  0  0  0  0  0  0  0  0  0  0  0
  -14.7780   17.5102  -38.2891 H   0  0  0  0  0  0  0  0  0  0  0  0
   -9.9279   16.7805  -37.3536 H   0  0  0  0  0  0  0  0  0  0  0  0
   -9.6561   15.6415  -38.6683 H   0  0  0  0  0  0  0  0  0  0  0  0
  -13.6214   13.8280  -37.3507 H   0  0  0  0  0  0  0  0  0  0  0  0
  -13.3996   12.8952  -38.8099 H   0  0  0  0  0  0  0  0  0  0  0  0
  -13.5658   18.5318  -42.2773 H   0  0  0  0  0  0  0  0  0  0  0  0
  -12.5355   19.0283  -40.9302 H   0  0  0  0  0  0  0  0  0  0  0  0
   -8.9696   13.9010  -37.1812 H   0  0  0  0  0  0  0  0  0  0  0  0
   -8.3564   15.3275  -36.3187 H   0  0  0  0  0  0  0  0  0  0  0  0
  -11.2613   17.4434  -39.7873 H   0  0  0  0  0  0  0  0  0  0  0  0
  -11.3227   15.7526  -40.2401 H   0  0  0  0  0  0  0  0  0  0  0  0
  -11.6392   15.9055  -35.3694 H   0  0  0  0  0  0  0  0  0  0  0  0
  -12.1939   14.2594  -35.6193 H   0  0  0  0  0  0  0  0  0  0  0  0
  -14.4214   15.3569  -41.2302 H   0  0  0  0  0  0  0  0  0  0  0  0
  -14.5650   13.6707  -40.6977 H   0  0  0  0  0  0  0  0  0  0  0  0
  -12.9654   14.3636  -41.0279 H   0  0  0  0  0  0  0  0  0  0  0  0
  -15.8178   15.9045  -39.1675 H   0  0  0  0  0  0  0  0  0  0  0  0
  -15.2600   15.3449  -37.5791 H   0  0  0  0  0  0  0  0  0  0  0  0
  -15.7927   14.1696  -38.7968 H   0  0  0  0  0  0  0  0  0  0  0  0
  -11.3487   13.2618  -37.7594 H   0  0  0  0  0  0  0  0  0  0  0  0
  1  2  1  0  0  0  0
  1  5  1  0  0  0  0
  2  9  1  0  0  0  0
  3  6  1  0  0  0  0
  3 11  1  0  0  0  0
  4 10  1  0  0  0  0
  4 14  1  0  0  0  0
  5 15  1  0  0  0  0
  6 16  1  0  0  0  0
  7  9  1  0  0  0  0
  7 15  1  0  0  0  0
  8 11  1  0  0  0  0
  8 16  1  0  0  0  0
  9 10  1  0  0  0  0
  9 17  1  0  0  0  0
 10 12  1  0  0  0  0
 10 13  1  0  0  0  0
 11 14  1  0  0  0  0
 11 17  1  0  0  0  0
  1 18  1  0  0  0  0
  1 19  1  0  0  0  0
  2 20  1  0  0  0  0
  2 21  1  0  0  0  0
  3 22  1  0  0  0  0
  3 23  1  0  0  0  0
  4 24  1  0  0  0  0
  4 25  1  0  0  0  0
  5 26  1  0  0  0  0
  5 27  1  0  0  0  0
  6 28  1  0  0  0  0
  6 29  1  0  0  0  0
  7 30  1  0  0  0  0
  7 31  1  0  0  0  0
  8 32  1  0  0  0  0
  8 33  1  0  0  0  0
 12 34  1  0  0  0  0
 12 35  1  0  0  0  0
 12 36  1  0  0  0  0
 13 37  1  0  0  0  0
 13 38  1  0  0  0  0
 13 39  1  0  0  0  0
 14 40  1  0  0  0  0
M  END
> <id>
EN300-1280347

> <smiles>
CC1(C)CNC2(CCOC2)OC31CCCOC3

> <IUPAC Name>
13,13-dimethyl-2,6,9-trioxa-15-azadispiro[4.1.5^{7}.3^{5}]pentadecane

> <CAS>
2171872-34-5

> <URL>
https://www.enaminestore.com/catalog/EN300-1280347

> <ROCS_ShapeQuery>
x1247relevant_x1083L0AP1_x1305L0BP1_

> <ROCS_TanimotoCombo>
0.797 

> <ROCS_ShapeTanimoto>
0.488 

> <ROCS_ColorTanimoto>
0.309 

> <ROCS_RefTversky>
0.425 

> <ROCS_RefColorTversky>
0.343 

> <ROCS_RefTverskyCombo>
0.769 

> <ROCS_FitTversky>
1.435 

> <ROCS_FitColorTversky>
0.754 

> <ROCS_FitTverskyCombo>
2.189 

> <ROCS_ColorScore>
-7.277

> <ROCS_Overlap>
1254.787

> <ROCS_Rank>
366                 

$$$$
untitled-dbase-36010_0
  -OEChem-06162310163D

 22 24  0     1  0  0  0  0  0999 V2000
  -11.2744   13.5505  -36.6315 C   0  0  0  0  0  0  0  0  0  0  0  0
  -14.2106   15.5494  -38.1099 C   0  0  0  0  0  0  0  0  0  0  0  0
  -13.3422   16.5451  -38.8850 C   0  0  0  0  0  0  0  0  0  0  0  0
  -12.1657   14.7089  -36.9323 C   0  0  2  0  0  0  0  0  0  0  0  0
  -13.2621   14.3634  -37.9420 C   0  0  2  0  0  0  0  0  0  0  0  0
  -12.0361   15.7682  -39.0605 C   0  0  1  0  0  0  0  0  0  0  0  0
  -11.2887   15.6798  -37.7294 C   0  0  2  0  0  0  0  0  0  0  0  0
  -10.0482   13.5411  -37.0308 N   0  0  0  0  0  0  0  0  0  0  0  0
   -9.3984   14.5717  -39.2423 O   0  0  0  0  0  0  0  0  0  0  0  0
   -8.7341   15.6988  -37.0868 O   0  0  0  0  0  0  0  0  0  0  0  0
  -12.5421   14.4188  -39.1983 O   0  0  0  0  0  0  0  0  0  0  0  0
  -11.8252   12.5495  -35.9308 O   0  0  0  0  0  0  0  0  0  0  0  0
   -9.6700   14.9020  -37.8569 S   0  0  0  0  0  0  0  0  0  0  0  0
  -14.5744   15.9473  -37.1582 H   0  0  0  0  0  0  0  0  0  0  0  0
  -15.0756   15.2678  -38.7209 H   0  0  0  0  0  0  0  0  0  0  0  0
  -13.8030   16.7496  -39.8581 H   0  0  0  0  0  0  0  0  0  0  0  0
  -13.2071   17.4958  -38.3609 H   0  0  0  0  0  0  0  0  0  0  0  0
  -12.5494   15.1340  -36.0002 H   0  0  0  0  0  0  0  0  0  0  0  0
  -13.7537   13.3984  -37.7986 H   0  0  0  0  0  0  0  0  0  0  0  0
  -11.4417   16.0787  -39.9224 H   0  0  0  0  0  0  0  0  0  0  0  0
  -11.1628   16.6505  -37.2412 H   0  0  0  0  0  0  0  0  0  0  0  0
  -11.1914   11.8244  -35.7679 H   0  0  0  0  0  0  0  0  0  0  0  0
  1  4  1  0  0  0  0
  1  8  2  0  0  0  0
  1 12  1  0  0  0  0
  2  3  1  0  0  0  0
  2  5  1  0  0  0  0
  3  6  1  0  0  0  0
  4  5  1  0  0  0  0
  4  7  1  0  0  0  0
  5 11  1  0  0  0  0
  6  7  1  0  0  0  0
  6 11  1  0  0  0  0
  7 13  1  0  0  0  0
  8 13  1  0  0  0  0
  9 13  2  0  0  0  0
 10 13  2  0  0  0  0
  2 14  1  0  0  0  0
  2 15  1  0  0  0  0
  3 16  1  0  0  0  0
  3 17  1  0  0  0  0
  4 18  1  0  0  0  0
  5 19  1  0  0  0  0
  6 20  1  0  0  0  0
  7 21  1  0  0  0  0
 12 22  1  0  0  0  0
M  END
> <id>
EN300-6481988

> <smiles>
OC1=NS(=O)(=O)C2C3CCC(O3)C21

> <MDLNUMBER>
MFCD31718896

> <IUPAC Name>
5-hydroxy-10-oxa-3lambda6-thia-4-azatricyclo[5.2.1.0,2,6]dec-4-ene-3,3-dione

> <CAS>
125638-25-7

> <Purity>
95

> <URL>
https://www.enaminestore.com/catalog/EN300-6481988

> <ROCS_ShapeQuery>
x1247relevant_x1083L0AP1_x1305L0BP1_

> <ROCS_TanimotoCombo>
0.797 

> <ROCS_ShapeTanimoto>
0.452 

> <ROCS_ColorTanimoto>
0.345 

> <ROCS_RefTversky>
0.387 

> <ROCS_RefColorTversky>
0.401 

> <ROCS_RefTverskyCombo>
0.788 

> <ROCS_FitTversky>
1.592 

> <ROCS_FitColorTversky>
0.713 

> <ROCS_FitTverskyCombo>
2.305 

> <ROCS_ColorScore>
-8.551

> <ROCS_Overlap>
1137.778

> <ROCS_Rank>
367                 

$$$$
untitled-dbase-20419_139
  -OEChem-06162310163D

 39 40  0     1  0  0  0  0  0999 V2000
  -13.4919   15.8786  -39.8841 C   0  0  0  0  0  0  0  0  0  0  0  0
  -12.5510   14.9708  -36.4238 C   0  0  0  0  0  0  0  0  0  0  0  0
  -13.5500   14.8696  -37.5693 C   0  0  0  0  0  0  0  0  0  0  0  0
   -9.3578   13.3787  -37.2962 C   0  0  0  0  0  0  0  0  0  0  0  0
  -11.4986   15.8420  -38.3809 C   0  0  0  0  0  0  0  0  0  0  0  0
   -8.4916   14.5854  -37.6290 C   0  0  0  0  0  0  0  0  0  0  0  0
  -10.1109   15.6738  -36.2398 C   0  0  0  0  0  0  0  0  0  0  0  0
  -11.1756   15.0138  -37.1229 C   0  0  1  0  0  0  0  0  0  0  0  0
  -14.3285   13.2963  -40.7780 C   0  0  0  0  0  0  0  0  0  0  0  0
  -16.6441   14.2681  -40.8317 C   0  0  0  0  0  0  0  0  0  0  0  0
  -14.8542   15.2185  -42.3153 C   0  0  0  0  0  0  0  0  0  0  0  0
  -15.1529   14.5692  -40.9648 C   0  0  0  0  0  0  0  0  0  0  0  0
  -10.7671   13.6646  -37.5580 N   0  0  0  0  0  0  0  0  0  0  0  0
  -12.8940   15.5457  -38.6807 N   0  0  0  0  0  0  0  0  0  0  0  0
  -12.9153   16.4498  -40.8070 O   0  0  0  0  0  0  0  0  0  0  0  0
   -8.8430   15.7550  -36.8896 O   0  0  0  0  0  0  0  0  0  0  0  0
  -14.8053   15.4935  -39.9277 O   0  0  0  0  0  0  0  0  0  0  0  0
  -12.7381   15.8439  -35.7878 H   0  0  0  0  0  0  0  0  0  0  0  0
  -12.6399   14.0746  -35.7932 H   0  0  0  0  0  0  0  0  0  0  0  0
  -13.7925   13.8382  -37.8369 H   0  0  0  0  0  0  0  0  0  0  0  0
  -14.4792   15.4041  -37.3507 H   0  0  0  0  0  0  0  0  0  0  0  0
   -9.0383   12.5104  -37.8870 H   0  0  0  0  0  0  0  0  0  0  0  0
   -9.2315   13.1160  -36.2392 H   0  0  0  0  0  0  0  0  0  0  0  0
  -11.3497   16.9216  -38.2560 H   0  0  0  0  0  0  0  0  0  0  0  0
  -10.9142   15.5167  -39.2527 H   0  0  0  0  0  0  0  0  0  0  0  0
   -7.4150   14.3662  -37.4690 H   0  0  0  0  0  0  0  0  0  0  0  0
   -8.5920   14.8317  -38.7037 H   0  0  0  0  0  0  0  0  0  0  0  0
  -10.3932   16.7042  -35.9677 H   0  0  0  0  0  0  0  0  0  0  0  0
   -9.9831   15.1320  -35.2847 H   0  0  0  0  0  0  0  0  0  0  0  0
  -13.2575   13.5083  -40.8727 H   0  0  0  0  0  0  0  0  0  0  0  0
  -14.5074   12.8399  -39.7990 H   0  0  0  0  0  0  0  0  0  0  0  0
  -14.5673   12.5586  -41.5526 H   0  0  0  0  0  0  0  0  0  0  0  0
  -17.2395   15.1786  -40.9651 H   0  0  0  0  0  0  0  0  0  0  0  0
  -16.8782   13.8902  -39.8299 H   0  0  0  0  0  0  0  0  0  0  0  0
  -16.9739   13.5274  -41.5674 H   0  0  0  0  0  0  0  0  0  0  0  0
  -15.4454   16.1316  -42.4496 H   0  0  0  0  0  0  0  0  0  0  0  0
  -13.7945   15.4754  -42.4138 H   0  0  0  0  0  0  0  0  0  0  0  0
  -15.1282   14.5489  -43.1387 H   0  0  0  0  0  0  0  0  0  0  0  0
  -10.9584   13.5505  -38.5573 H   0  0  0  0  0  0  0  0  0  0  0  0
  1 14  1  0  0  0  0
  1 15  2  0  0  0  0
  1 17  1  0  0  0  0
  2  3  1  0  0  0  0
  2  8  1  0  0  0  0
  3 14  1  0  0  0  0
  4  6  1  0  0  0  0
  4 13  1  0  0  0  0
  5  8  1  0  0  0  0
  5 14  1  0  0  0  0
  6 16  1  0  0  0  0
  7  8  1  0  0  0  0
  7 16  1  0  0  0  0
  8 13  1  0  0  0  0
  9 12  1  0  0  0  0
 10 12  1  0  0  0  0
 11 12  1  0  0  0  0
 12 17  1  0  0  0  0
  2 18  1  0  0  0  0
  2 19  1  0  0  0  0
  3 20  1  0  0  0  0
  3 21  1  0  0  0  0
  4 22  1  0  0  0  0
  4 23  1  0  0  0  0
  5 24  1  0  0  0  0
  5 25  1  0  0  0  0
  6 26  1  0  0  0  0
  6 27  1  0  0  0  0
  7 28  1  0  0  0  0
  7 29  1  0  0  0  0
  9 30  1  0  0  0  0
  9 31  1  0  0  0  0
  9 32  1  0  0  0  0
 10 33  1  0  0  0  0
 10 34  1  0  0  0  0
 10 35  1  0  0  0  0
 11 36  1  0  0  0  0
 11 37  1  0  0  0  0
 11 38  1  0  0  0  0
 13 39  1  0  0  0  0
M  END
> <id>
EN300-268934

> <smiles>
CC(C)(C)OC(=O)N1CCC2(C1)COCCN2

> <MDLNUMBER>
MFCD18792453

> <IUPAC Name>
tert-butyl 9-oxa-2,6-diazaspiro[4.5]decane-2-carboxylate

> <CAS>
1251003-79-8

> <URL>
https://www.enaminestore.com/catalog/EN300-268934

> <ROCS_ShapeQuery>
x1247relevant_x1083L0AP1_x1305L0BP1_

> <ROCS_TanimotoCombo>
0.797 

> <ROCS_ShapeTanimoto>
0.505 

> <ROCS_ColorTanimoto>
0.292 

> <ROCS_RefTversky>
0.434 

> <ROCS_RefColorTversky>
0.309 

> <ROCS_RefTverskyCombo>
0.743 

> <ROCS_FitTversky>
1.479 

> <ROCS_FitColorTversky>
0.841 

> <ROCS_FitTverskyCombo>
2.320 

> <ROCS_ColorScore>
-6.513

> <ROCS_Overlap>
1280.367

> <ROCS_Rank>
368                 

$$$$
untitled-dbase-35845_40
  -OEChem-06162310163D

 30 31  0     1  0  0  0  0  0999 V2000
  -11.6554   15.6429  -36.1003 C   0  0  0  0  0  0  0  0  0  0  0  0
   -9.8376   15.0935  -37.7305 C   0  0  0  0  0  0  0  0  0  0  0  0
  -11.7766   16.5685  -38.4522 C   0  0  0  0  0  0  0  0  0  0  0  0
  -13.3642   14.3390  -38.6026 C   0  0  0  0  0  0  0  0  0  0  0  0
  -11.0153   14.6353  -35.1477 C   0  0  0  0  0  0  0  0  0  0  0  0
   -9.3123   14.0950  -36.7015 C   0  0  0  0  0  0  0  0  0  0  0  0
  -12.1057   16.1468  -39.8818 C   0  0  1  0  0  0  0  0  0  0  0  0
  -13.3110   15.1958  -39.8758 C   0  0  2  0  0  0  0  0  0  0  0  0
  -11.3601   15.3437  -37.5907 C   0  0  0  0  0  0  0  0  0  0  0  0
  -12.0431   14.1066  -38.0348 N   0  0  0  0  0  0  0  0  0  0  0  0
   -9.6120   14.5354  -35.3788 O   0  0  0  0  0  0  0  0  0  0  0  0
  -12.3511   17.2930  -40.6845 O   0  0  0  0  0  0  0  0  0  0  0  0
  -14.5197   15.9539  -39.9431 O   0  0  0  0  0  0  0  0  0  0  0  0
  -12.7367   15.6942  -35.9113 H   0  0  0  0  0  0  0  0  0  0  0  0
  -11.2521   16.6377  -35.8583 H   0  0  0  0  0  0  0  0  0  0  0  0
   -9.3148   16.0463  -37.5705 H   0  0  0  0  0  0  0  0  0  0  0  0
   -9.5647   14.7565  -38.7357 H   0  0  0  0  0  0  0  0  0  0  0  0
  -10.9836   17.3181  -38.4658 H   0  0  0  0  0  0  0  0  0  0  0  0
  -12.6452   17.0626  -38.0098 H   0  0  0  0  0  0  0  0  0  0  0  0
  -13.9711   14.8516  -37.8463 H   0  0  0  0  0  0  0  0  0  0  0  0
  -13.8648   13.3866  -38.8104 H   0  0  0  0  0  0  0  0  0  0  0  0
  -11.1583   14.9639  -34.1125 H   0  0  0  0  0  0  0  0  0  0  0  0
  -11.4724   13.6426  -35.2397 H   0  0  0  0  0  0  0  0  0  0  0  0
   -9.7288   13.0946  -36.8587 H   0  0  0  0  0  0  0  0  0  0  0  0
   -8.2246   14.0170  -36.7857 H   0  0  0  0  0  0  0  0  0  0  0  0
  -11.2356   15.6243  -40.3136 H   0  0  0  0  0  0  0  0  0  0  0  0
  -13.2952   14.5560  -40.7641 H   0  0  0  0  0  0  0  0  0  0  0  0
  -12.1406   13.4857  -37.2361 H   0  0  0  0  0  0  0  0  0  0  0  0
  -11.5403   17.8255  -40.6642 H   0  0  0  0  0  0  0  0  0  0  0  0
  -14.4641   16.4850  -40.7514 H   0  0  0  0  0  0  0  0  0  0  0  0
  1  5  1  0  0  0  0
  1  9  1  0  0  0  0
  2  6  1  0  0  0  0
  2  9  1  0  0  0  0
  3  7  1  0  0  0  0
  3  9  1  0  0  0  0
  4  8  1  0  0  0  0
  4 10  1  0  0  0  0
  5 11  1  0  0  0  0
  6 11  1  0  0  0  0
  7  8  1  0  0  0  0
  7 12  1  6  0  0  0
  8 13  1  6  0  0  0
  9 10  1  0  0  0  0
  1 14  1  0  0  0  0
  1 15  1  0  0  0  0
  2 16  1  0  0  0  0
  2 17  1  0  0  0  0
  3 18  1  0  0  0  0
  3 19  1  0  0  0  0
  4 20  1  0  0  0  0
  4 21  1  0  0  0  0
  5 22  1  0  0  0  0
  5 23  1  0  0  0  0
  6 24  1  0  0  0  0
  6 25  1  0  0  0  0
  7 26  1  0  0  0  0
  8 27  1  0  0  0  0
 10 28  1  0  0  0  0
 12 29  1  0  0  0  0
 13 30  1  0  0  0  0
M  END
> <id>
EN300-7456747

> <smiles>
Cl.O[C@@H]1CNC2(CCOCC2)C[C@@H]1O |&1:2,12,r|

> <MDLNUMBER>
MFCD32199808

> <IUPAC Name>
rac-(3R,4S)-9-oxa-1-azaspiro[5.5]undecane-3,4-diol hydrochloride

> <CAS>
2377004-59-4

> <Purity>
95

> <URL>
https://www.enaminestore.com/catalog/EN300-7456747

> <Saltdate>
Cl

> <ROCS_ShapeQuery>
x1247relevant_x1083L0AP1_x1305L0BP1_

> <ROCS_TanimotoCombo>
0.797 

> <ROCS_ShapeTanimoto>
0.455 

> <ROCS_ColorTanimoto>
0.342 

> <ROCS_RefTversky>
0.386 

> <ROCS_RefColorTversky>
0.370 

> <ROCS_RefTverskyCombo>
0.756 

> <ROCS_FitTversky>
1.656 

> <ROCS_FitColorTversky>
0.815 

> <ROCS_FitTverskyCombo>
2.471 

> <ROCS_ColorScore>
-7.857

> <ROCS_Overlap>
1133.491

> <ROCS_Rank>
369                 

$$$$
untitled-dbase-29707_40
  -OEChem-06162310163D

 30 31  0     1  0  0  0  0  0999 V2000
  -11.6554   15.6429  -36.1003 C   0  0  0  0  0  0  0  0  0  0  0  0
   -9.8376   15.0935  -37.7305 C   0  0  0  0  0  0  0  0  0  0  0  0
  -11.7766   16.5685  -38.4522 C   0  0  0  0  0  0  0  0  0  0  0  0
  -13.3642   14.3390  -38.6026 C   0  0  0  0  0  0  0  0  0  0  0  0
  -11.0153   14.6353  -35.1477 C   0  0  0  0  0  0  0  0  0  0  0  0
   -9.3123   14.0950  -36.7015 C   0  0  0  0  0  0  0  0  0  0  0  0
  -12.1057   16.1468  -39.8818 C   0  0  1  0  0  0  0  0  0  0  0  0
  -13.3110   15.1958  -39.8758 C   0  0  2  0  0  0  0  0  0  0  0  0
  -11.3601   15.3437  -37.5907 C   0  0  0  0  0  0  0  0  0  0  0  0
  -12.0431   14.1066  -38.0348 N   0  0  0  0  0  0  0  0  0  0  0  0
   -9.6120   14.5354  -35.3788 O   0  0  0  0  0  0  0  0  0  0  0  0
  -12.3511   17.2930  -40.6845 O   0  0  0  0  0  0  0  0  0  0  0  0
  -14.5197   15.9539  -39.9431 O   0  0  0  0  0  0  0  0  0  0  0  0
  -12.7367   15.6942  -35.9113 H   0  0  0  0  0  0  0  0  0  0  0  0
  -11.2521   16.6377  -35.8583 H   0  0  0  0  0  0  0  0  0  0  0  0
   -9.3148   16.0463  -37.5705 H   0  0  0  0  0  0  0  0  0  0  0  0
   -9.5647   14.7565  -38.7357 H   0  0  0  0  0  0  0  0  0  0  0  0
  -10.9836   17.3181  -38.4658 H   0  0  0  0  0  0  0  0  0  0  0  0
  -12.6452   17.0626  -38.0098 H   0  0  0  0  0  0  0  0  0  0  0  0
  -13.9711   14.8516  -37.8463 H   0  0  0  0  0  0  0  0  0  0  0  0
  -13.8648   13.3866  -38.8104 H   0  0  0  0  0  0  0  0  0  0  0  0
  -11.1583   14.9639  -34.1125 H   0  0  0  0  0  0  0  0  0  0  0  0
  -11.4724   13.6426  -35.2397 H   0  0  0  0  0  0  0  0  0  0  0  0
   -9.7288   13.0946  -36.8587 H   0  0  0  0  0  0  0  0  0  0  0  0
   -8.2246   14.0170  -36.7857 H   0  0  0  0  0  0  0  0  0  0  0  0
  -11.2356   15.6243  -40.3136 H   0  0  0  0  0  0  0  0  0  0  0  0
  -13.2952   14.5560  -40.7641 H   0  0  0  0  0  0  0  0  0  0  0  0
  -12.1406   13.4857  -37.2361 H   0  0  0  0  0  0  0  0  0  0  0  0
  -11.5403   17.8255  -40.6642 H   0  0  0  0  0  0  0  0  0  0  0  0
  -14.4641   16.4850  -40.7514 H   0  0  0  0  0  0  0  0  0  0  0  0
  1  5  1  0  0  0  0
  1  9  1  0  0  0  0
  2  6  1  0  0  0  0
  2  9  1  0  0  0  0
  3  7  1  0  0  0  0
  3  9  1  0  0  0  0
  4  8  1  0  0  0  0
  4 10  1  0  0  0  0
  5 11  1  0  0  0  0
  6 11  1  0  0  0  0
  7  8  1  0  0  0  0
  7 12  1  6  0  0  0
  8 13  1  6  0  0  0
  9 10  1  0  0  0  0
  1 14  1  0  0  0  0
  1 15  1  0  0  0  0
  2 16  1  0  0  0  0
  2 17  1  0  0  0  0
  3 18  1  0  0  0  0
  3 19  1  0  0  0  0
  4 20  1  0  0  0  0
  4 21  1  0  0  0  0
  5 22  1  0  0  0  0
  5 23  1  0  0  0  0
  6 24  1  0  0  0  0
  6 25  1  0  0  0  0
  7 26  1  0  0  0  0
  8 27  1  0  0  0  0
 10 28  1  0  0  0  0
 12 29  1  0  0  0  0
 13 30  1  0  0  0  0
M  END
> <id>
EN300-7456748

> <smiles>
O[C@@H]1CNC2(CCOCC2)C[C@@H]1O |&1:1,11,r|

> <MDLNUMBER>
MFCD32200061

> <IUPAC Name>
rac-(3R,4S)-9-oxa-1-azaspiro[5.5]undecane-3,4-diol

> <CAS>
2377004-45-8

> <URL>
https://www.enaminestore.com/catalog/EN300-7456748

> <ROCS_ShapeQuery>
x1247relevant_x1083L0AP1_x1305L0BP1_

> <ROCS_TanimotoCombo>
0.797 

> <ROCS_ShapeTanimoto>
0.455 

> <ROCS_ColorTanimoto>
0.342 

> <ROCS_RefTversky>
0.386 

> <ROCS_RefColorTversky>
0.370 

> <ROCS_RefTverskyCombo>
0.756 

> <ROCS_FitTversky>
1.656 

> <ROCS_FitColorTversky>
0.815 

> <ROCS_FitTverskyCombo>
2.471 

> <ROCS_ColorScore>
-7.857

> <ROCS_Overlap>
1133.491

> <ROCS_Rank>
370                 

$$$$
untitled-dbase-16425_0
  -OEChem-06162310163D

 17 18  0     0  0  0  0  0  0999 V2000
  -10.4500   13.7300  -36.6586 C   0  0  0  0  0  0  0  0  0  0  0  0
  -12.6224   13.6869  -37.8083 C   0  0  0  0  0  0  0  0  0  0  0  0
  -10.0925   16.2626  -37.5888 C   0  0  0  0  0  0  0  0  0  0  0  0
  -11.4374   14.3258  -37.4539 C   0  0  0  0  0  0  0  0  0  0  0  0
  -11.2721   15.6274  -37.9418 C   0  0  0  0  0  0  0  0  0  0  0  0
   -9.3165   14.4698  -36.3767 C   0  0  0  0  0  0  0  0  0  0  0  0
  -13.3077   15.5003  -38.9811 C   0  0  0  0  0  0  0  0  0  0  0  0
   -9.1118   15.7258  -36.8231 N   0  0  0  0  0  0  0  0  0  0  0  0
  -13.5789   14.2494  -38.5720 N   0  0  0  0  0  0  0  0  0  0  0  0
  -12.2038   16.2246  -38.7077 N   0  0  0  0  0  0  0  0  0  0  0  0
  -14.2855   16.1249  -39.7864 N   0  0  0  0  0  0  0  0  0  0  0  0
   -8.3595   13.9173  -35.6158 F   0  0  0  0  0  0  0  0  0  0  0  0
  -10.5614   12.7227  -36.2714 H   0  0  0  0  0  0  0  0  0  0  0  0
  -12.8424   12.6759  -37.4783 H   0  0  0  0  0  0  0  0  0  0  0  0
   -9.8877   17.2754  -37.9261 H   0  0  0  0  0  0  0  0  0  0  0  0
  -14.1463   17.0716  -40.0734 H   0  0  0  0  0  0  0  0  0  0  0  0
  -15.1398   15.6425  -39.9752 H   0  0  0  0  0  0  0  0  0  0  0  0
  1  4  1  0  0  0  0
  1  6  2  0  0  0  0
  2  4  2  0  0  0  0
  2  9  1  0  0  0  0
  3  5  1  0  0  0  0
  3  8  2  0  0  0  0
  4  5  1  0  0  0  0
  5 10  2  0  0  0  0
  6  8  1  0  0  0  0
  6 12  1  0  0  0  0
  7  9  2  0  0  0  0
  7 10  1  0  0  0  0
  7 11  1  0  0  0  0
  1 13  1  0  0  0  0
  2 14  1  0  0  0  0
  3 15  1  0  0  0  0
 11 16  1  0  0  0  0
 11 17  1  0  0  0  0
M  END
> <id>
EN300-1162543

> <smiles>
NC=1N=CC=2C=C(F)N=CC2N1

> <MDLNUMBER>
MFCD31613393

> <IUPAC Name>
6-fluoropyrido[3,4-d]pyrimidin-2-amine

> <CAS>
2138563-47-8

> <URL>
https://www.enaminestore.com/catalog/EN300-1162543

> <ROCS_ShapeQuery>
x1247relevant_x1083L0AP1_x1305L0BP1_

> <ROCS_TanimotoCombo>
0.797 

> <ROCS_ShapeTanimoto>
0.454 

> <ROCS_ColorTanimoto>
0.343 

> <ROCS_RefTversky>
0.385 

> <ROCS_RefColorTversky>
0.349 

> <ROCS_RefTverskyCombo>
0.734 

> <ROCS_FitTversky>
1.651 

> <ROCS_FitColorTversky>
0.949 

> <ROCS_FitTverskyCombo>
2.599 

> <ROCS_ColorScore>
-7.370

> <ROCS_Overlap>
1132.256

> <ROCS_Rank>
371                 

$$$$
untitled-dbase-35980_86
  -OEChem-06162310163D

 44 46  0     1  0  0  0  0  0999 V2000
  -16.9683   15.6684  -40.1203 C   0  0  0  0  0  0  0  0  0  0  0  0
  -17.0027   16.4135  -38.7892 C   0  0  0  0  0  0  0  0  0  0  0  0
  -16.3935   14.2595  -40.0236 C   0  0  0  0  0  0  0  0  0  0  0  0
  -15.7676   16.3010  -37.8970 C   0  0  0  0  0  0  0  0  0  0  0  0
  -15.0443   14.0812  -40.7122 C   0  0  0  0  0  0  0  0  0  0  0  0
  -14.4441   16.7219  -38.5392 C   0  0  0  0  0  0  0  0  0  0  0  0
  -13.9904   15.1851  -40.5644 C   0  0  0  0  0  0  0  0  0  0  0  0
   -9.0631   13.6237  -37.5774 C   0  0  0  0  0  0  0  0  0  0  0  0
  -11.1441   15.2684  -39.0090 C   0  0  0  0  0  0  0  0  0  0  0  0
   -8.5274   14.6525  -36.5925 C   0  0  0  0  0  0  0  0  0  0  0  0
  -10.6016   15.7564  -36.5483 C   0  0  0  0  0  0  0  0  0  0  0  0
  -12.7139   14.5397  -37.1563 C   0  0  0  0  0  0  0  0  0  0  0  0
  -11.2309   14.7598  -37.5485 C   0  0  1  0  0  0  0  0  0  0  0  0
  -13.5449   15.6033  -39.1397 C   0  0  0  0  0  0  0  0  0  0  0  0
  -10.5141   13.4681  -37.4375 N   0  0  0  0  0  0  0  0  0  0  0  0
  -12.2053   16.2391  -39.2665 N   0  0  0  0  0  0  0  0  0  0  0  0
   -9.1968   15.8999  -36.7700 O   0  0  0  0  0  0  0  0  0  0  0  0
  -13.5421   14.4268  -38.3124 O   0  0  0  0  0  0  0  0  0  0  0  0
  -17.9471   15.6597  -40.6050 H   0  0  0  0  0  0  0  0  0  0  0  0
  -16.3071   16.2294  -40.7904 H   0  0  0  0  0  0  0  0  0  0  0  0
  -17.2763   17.4717  -38.9363 H   0  0  0  0  0  0  0  0  0  0  0  0
  -17.8473   16.0100  -38.2001 H   0  0  0  0  0  0  0  0  0  0  0  0
  -16.2594   14.0276  -38.9676 H   0  0  0  0  0  0  0  0  0  0  0  0
  -17.1077   13.5410  -40.4200 H   0  0  0  0  0  0  0  0  0  0  0  0
  -15.9372   16.8593  -36.9821 H   0  0  0  0  0  0  0  0  0  0  0  0
  -15.6633   15.2553  -37.6124 H   0  0  0  0  0  0  0  0  0  0  0  0
  -14.6190   13.0784  -40.4568 H   0  0  0  0  0  0  0  0  0  0  0  0
  -15.2615   13.9819  -41.8040 H   0  0  0  0  0  0  0  0  0  0  0  0
  -14.6839   17.4261  -39.3415 H   0  0  0  0  0  0  0  0  0  0  0  0
  -13.8678   17.3238  -37.8386 H   0  0  0  0  0  0  0  0  0  0  0  0
  -13.0975   14.8310  -41.1278 H   0  0  0  0  0  0  0  0  0  0  0  0
  -14.2899   16.0813  -41.1550 H   0  0  0  0  0  0  0  0  0  0  0  0
   -8.8190   13.9194  -38.6037 H   0  0  0  0  0  0  0  0  0  0  0  0
   -8.5802   12.6575  -37.3974 H   0  0  0  0  0  0  0  0  0  0  0  0
  -10.1889   15.7538  -39.2053 H   0  0  0  0  0  0  0  0  0  0  0  0
  -11.2255   14.4400  -39.7135 H   0  0  0  0  0  0  0  0  0  0  0  0
   -8.6445   14.3177  -35.5553 H   0  0  0  0  0  0  0  0  0  0  0  0
   -7.4604   14.8178  -36.7685 H   0  0  0  0  0  0  0  0  0  0  0  0
  -11.0484   16.7548  -36.6231 H   0  0  0  0  0  0  0  0  0  0  0  0
  -10.7603   15.4314  -35.5090 H   0  0  0  0  0  0  0  0  0  0  0  0
  -12.8400   13.6527  -36.5283 H   0  0  0  0  0  0  0  0  0  0  0  0
  -13.0854   15.3871  -36.5708 H   0  0  0  0  0  0  0  0  0  0  0  0
  -10.8576   12.8172  -38.1371 H   0  0  0  0  0  0  0  0  0  0  0  0
  -12.1304   16.9989  -38.6098 H   0  0  0  0  0  0  0  0  0  0  0  0
  1  2  1  0  0  0  0
  1  3  1  0  0  0  0
  2  4  1  0  0  0  0
  3  5  1  0  0  0  0
  4  6  1  0  0  0  0
  5  7  1  0  0  0  0
  6 14  1  0  0  0  0
  7 14  1  0  0  0  0
  8 10  1  0  0  0  0
  8 15  1  0  0  0  0
  9 13  1  0  0  0  0
  9 16  1  0  0  0  0
 10 17  1  0  0  0  0
 11 13  1  0  0  0  0
 11 17  1  0  0  0  0
 12 13  1  0  0  0  0
 12 18  1  0  0  0  0
 13 15  1  0  0  0  0
 14 16  1  0  0  0  0
 14 18  1  0  0  0  0
  1 19  1  0  0  0  0
  1 20  1  0  0  0  0
  2 21  1  0  0  0  0
  2 22  1  0  0  0  0
  3 23  1  0  0  0  0
  3 24  1  0  0  0  0
  4 25  1  0  0  0  0
  4 26  1  0  0  0  0
  5 27  1  0  0  0  0
  5 28  1  0  0  0  0
  6 29  1  0  0  0  0
  6 30  1  0  0  0  0
  7 31  1  0  0  0  0
  7 32  1  0  0  0  0
  8 33  1  0  0  0  0
  8 34  1  0  0  0  0
  9 35  1  0  0  0  0
  9 36  1  0  0  0  0
 10 37  1  0  0  0  0
 10 38  1  0  0  0  0
 11 39  1  0  0  0  0
 11 40  1  0  0  0  0
 12 41  1  0  0  0  0
 12 42  1  0  0  0  0
 15 43  1  0  0  0  0
 16 44  1  0  0  0  0
M  END
> <id>
EN300-1280589

> <smiles>
C1COCC2(CNC3(CCCCCCC3)OC2)N1

> <IUPAC Name>
4,8-dioxa-1,17-diazadispiro[5.2.7^{9}.2^{6}]octadecane

> <CAS>
2172512-85-3

> <URL>
https://www.enaminestore.com/catalog/EN300-1280589

> <ROCS_ShapeQuery>
x1247relevant_x1083L0AP1_x1305L0BP1_

> <ROCS_TanimotoCombo>
0.797 

> <ROCS_ShapeTanimoto>
0.508 

> <ROCS_ColorTanimoto>
0.289 

> <ROCS_RefTversky>
0.439 

> <ROCS_RefColorTversky>
0.316 

> <ROCS_RefTverskyCombo>
0.755 

> <ROCS_FitTversky>
1.447 

> <ROCS_FitColorTversky>
0.769 

> <ROCS_FitTverskyCombo>
2.216 

> <ROCS_ColorScore>
-6.685

> <ROCS_Overlap>
1295.529

> <ROCS_Rank>
372                 

$$$$
untitled-dbase-28945_0
  -OEChem-06162310163D

 22 23  0     1  0  0  0  0  0999 V2000
  -13.2295   15.7640  -37.4186 C   0  0  0  0  0  0  0  0  0  0  0  0
  -13.5725   14.1733  -39.1757 C   0  0  0  0  0  0  0  0  0  0  0  0
  -11.1325   15.6005  -38.4422 C   0  0  0  0  0  0  0  0  0  0  0  0
  -12.4938   16.2636  -38.6636 C   0  0  1  0  0  0  0  0  0  0  0  0
  -12.9673   14.3063  -37.7631 C   0  0  1  0  0  0  0  0  0  0  0  0
  -13.2852   15.5584  -39.7955 C   0  0  1  0  0  0  0  0  0  0  0  0
  -12.5872   15.4822  -41.1467 C   0  0  0  0  0  0  0  0  0  0  0  0
  -11.4918   14.2705  -37.8996 N   0  0  0  0  0  0  0  0  0  0  0  0
  -14.5266   16.2419  -39.9876 O   0  0  0  0  0  0  0  0  0  0  0  0
  -13.3474   14.8072  -42.0246 F   0  0  0  0  0  0  0  0  0  0  0  0
  -12.3683   16.7175  -41.6265 F   0  0  0  0  0  0  0  0  0  0  0  0
  -11.4073   14.8519  -41.0247 F   0  0  0  0  0  0  0  0  0  0  0  0
  -12.7627   16.0838  -36.4801 H   0  0  0  0  0  0  0  0  0  0  0  0
  -14.2932   16.0227  -37.3991 H   0  0  0  0  0  0  0  0  0  0  0  0
  -13.1176   13.3470  -39.7336 H   0  0  0  0  0  0  0  0  0  0  0  0
  -14.6502   13.9835  -39.1074 H   0  0  0  0  0  0  0  0  0  0  0  0
  -10.5231   15.5242  -39.3461 H   0  0  0  0  0  0  0  0  0  0  0  0
  -10.5525   16.1443  -37.6881 H   0  0  0  0  0  0  0  0  0  0  0  0
  -12.4614   17.3526  -38.7460 H   0  0  0  0  0  0  0  0  0  0  0  0
  -13.3440   13.5732  -37.0472 H   0  0  0  0  0  0  0  0  0  0  0  0
  -11.2164   13.5398  -38.5544 H   0  0  0  0  0  0  0  0  0  0  0  0
  -14.3060   17.1012  -40.3756 H   0  0  0  0  0  0  0  0  0  0  0  0
  1  4  1  0  0  0  0
  1  5  1  0  0  0  0
  2  5  1  0  0  0  0
  2  6  1  0  0  0  0
  3  4  1  0  0  0  0
  3  8  1  0  0  0  0
  4  6  1  0  0  0  0
  5  8  1  0  0  0  0
  6  7  1  0  0  0  0
  6  9  1  0  0  0  0
  7 10  1  0  0  0  0
  7 11  1  0  0  0  0
  7 12  1  0  0  0  0
  1 13  1  0  0  0  0
  1 14  1  0  0  0  0
  2 15  1  0  0  0  0
  2 16  1  0  0  0  0
  3 17  1  0  0  0  0
  3 18  1  0  0  0  0
  4 19  1  0  0  0  0
  5 20  1  0  0  0  0
  8 21  1  0  0  0  0
  9 22  1  0  0  0  0
M  END
> <id>
EN300-89638

> <smiles>
OC1(CC2CC1CN2)C(F)(F)F

> <MDLNUMBER>
MFCD19442741

> <IUPAC Name>
5-(trifluoromethyl)-2-azabicyclo[2.2.1]heptan-5-ol

> <CAS>
1251923-00-8

> <URL>
https://www.enaminestore.com/catalog/EN300-89638

> <ROCS_ShapeQuery>
x1247relevant_x1083L0AP1_x1305L0BP1_

> <ROCS_TanimotoCombo>
0.797 

> <ROCS_ShapeTanimoto>
0.375 

> <ROCS_ColorTanimoto>
0.422 

> <ROCS_RefTversky>
0.336 

> <ROCS_RefColorTversky>
0.449 

> <ROCS_RefTverskyCombo>
0.785 

> <ROCS_FitTversky>
1.450 

> <ROCS_FitColorTversky>
0.875 

> <ROCS_FitTverskyCombo>
2.325 

> <ROCS_ColorScore>
-9.548

> <ROCS_Overlap>
987.129

> <ROCS_Rank>
373                 

$$$$
untitled-dbase-48830_0
  -OEChem-06162310163D

 22 23  0     1  0  0  0  0  0999 V2000
  -13.2295   15.7640  -37.4186 C   0  0  0  0  0  0  0  0  0  0  0  0
  -13.5725   14.1733  -39.1757 C   0  0  0  0  0  0  0  0  0  0  0  0
  -11.1325   15.6005  -38.4422 C   0  0  0  0  0  0  0  0  0  0  0  0
  -12.4938   16.2636  -38.6636 C   0  0  1  0  0  0  0  0  0  0  0  0
  -12.9673   14.3063  -37.7631 C   0  0  1  0  0  0  0  0  0  0  0  0
  -13.2852   15.5584  -39.7955 C   0  0  1  0  0  0  0  0  0  0  0  0
  -12.5872   15.4822  -41.1467 C   0  0  0  0  0  0  0  0  0  0  0  0
  -11.4918   14.2705  -37.8996 N   0  0  0  0  0  0  0  0  0  0  0  0
  -14.5266   16.2419  -39.9876 O   0  0  0  0  0  0  0  0  0  0  0  0
  -13.3474   14.8072  -42.0246 F   0  0  0  0  0  0  0  0  0  0  0  0
  -12.3683   16.7175  -41.6265 F   0  0  0  0  0  0  0  0  0  0  0  0
  -11.4073   14.8519  -41.0247 F   0  0  0  0  0  0  0  0  0  0  0  0
  -12.7627   16.0838  -36.4801 H   0  0  0  0  0  0  0  0  0  0  0  0
  -14.2932   16.0227  -37.3991 H   0  0  0  0  0  0  0  0  0  0  0  0
  -13.1176   13.3470  -39.7336 H   0  0  0  0  0  0  0  0  0  0  0  0
  -14.6502   13.9835  -39.1074 H   0  0  0  0  0  0  0  0  0  0  0  0
  -10.5231   15.5242  -39.3461 H   0  0  0  0  0  0  0  0  0  0  0  0
  -10.5525   16.1443  -37.6881 H   0  0  0  0  0  0  0  0  0  0  0  0
  -12.4614   17.3526  -38.7460 H   0  0  0  0  0  0  0  0  0  0  0  0
  -13.3440   13.5732  -37.0472 H   0  0  0  0  0  0  0  0  0  0  0  0
  -11.2164   13.5398  -38.5544 H   0  0  0  0  0  0  0  0  0  0  0  0
  -14.3060   17.1012  -40.3756 H   0  0  0  0  0  0  0  0  0  0  0  0
  1  4  1  0  0  0  0
  1  5  1  0  0  0  0
  2  5  1  0  0  0  0
  2  6  1  0  0  0  0
  3  4  1  0  0  0  0
  3  8  1  0  0  0  0
  4  6  1  0  0  0  0
  5  8  1  0  0  0  0
  6  7  1  0  0  0  0
  6  9  1  0  0  0  0
  7 10  1  0  0  0  0
  7 11  1  0  0  0  0
  7 12  1  0  0  0  0
  1 13  1  0  0  0  0
  1 14  1  0  0  0  0
  2 15  1  0  0  0  0
  2 16  1  0  0  0  0
  3 17  1  0  0  0  0
  3 18  1  0  0  0  0
  4 19  1  0  0  0  0
  5 20  1  0  0  0  0
  8 21  1  0  0  0  0
  9 22  1  0  0  0  0
M  END
> <id>
EN300-622284

> <smiles>
Cl.OC1(CC2CC1CN2)C(F)(F)F

> <MDLNUMBER>
MFCD31421510

> <IUPAC Name>
5-(trifluoromethyl)-2-azabicyclo[2.2.1]heptan-5-ol hydrochloride

> <CAS>
2137916-74-4

> <Purity>
95

> <URL>
https://www.enaminestore.com/catalog/EN300-622284

> <Saltdate>
Cl

> <ROCS_ShapeQuery>
x1247relevant_x1083L0AP1_x1305L0BP1_

> <ROCS_TanimotoCombo>
0.797 

> <ROCS_ShapeTanimoto>
0.375 

> <ROCS_ColorTanimoto>
0.422 

> <ROCS_RefTversky>
0.336 

> <ROCS_RefColorTversky>
0.449 

> <ROCS_RefTverskyCombo>
0.785 

> <ROCS_FitTversky>
1.450 

> <ROCS_FitColorTversky>
0.875 

> <ROCS_FitTverskyCombo>
2.325 

> <ROCS_ColorScore>
-9.548

> <ROCS_Overlap>
987.129

> <ROCS_Rank>
374                 

$$$$
untitled-dbase-12107_0
  -OEChem-06162310163D

 26 28  0     1  0  0  0  0  0999 V2000
  -10.5793   13.6019  -37.2283 C   0  0  0  0  0  0  0  0  0  0  0  0
   -9.2809   13.8664  -36.5085 C   0  0  0  0  0  0  0  0  0  0  0  0
   -9.1298   15.3728  -36.6668 C   0  0  0  0  0  0  0  0  0  0  0  0
  -13.4152   16.4402  -38.9300 C   0  0  0  0  0  0  0  0  0  0  0  0
  -13.5256   16.1420  -37.4330 C   0  0  0  0  0  0  0  0  0  0  0  0
  -10.5610   15.8952  -36.6973 C   0  0  0  0  0  0  0  0  0  0  0  0
  -11.2462   15.1683  -39.0820 C   0  0  0  0  0  0  0  0  0  0  0  0
  -12.7303   15.1805  -39.4604 C   0  0  1  0  0  0  0  0  0  0  0  0
  -12.8262   14.7879  -37.3264 C   0  0  2  0  0  0  0  0  0  0  0  0
  -11.3170   14.8917  -37.5711 C   0  0  1  0  0  0  0  0  0  0  0  0
  -10.9824   12.4761  -37.4946 O   0  0  0  0  0  0  0  0  0  0  0  0
  -13.2628   14.1748  -38.5696 O   0  0  0  0  0  0  0  0  0  0  0  0
   -9.3942   13.5847  -35.4578 H   0  0  0  0  0  0  0  0  0  0  0  0
   -8.4533   13.3241  -36.9704 H   0  0  0  0  0  0  0  0  0  0  0  0
   -8.5446   15.8137  -35.8544 H   0  0  0  0  0  0  0  0  0  0  0  0
   -8.6236   15.6050  -37.6117 H   0  0  0  0  0  0  0  0  0  0  0  0
  -14.4189   16.5449  -39.3568 H   0  0  0  0  0  0  0  0  0  0  0  0
  -12.8528   17.3537  -39.1452 H   0  0  0  0  0  0  0  0  0  0  0  0
  -13.0877   16.9208  -36.8038 H   0  0  0  0  0  0  0  0  0  0  0  0
  -14.5836   16.0439  -37.1630 H   0  0  0  0  0  0  0  0  0  0  0  0
  -10.9684   15.9016  -35.6781 H   0  0  0  0  0  0  0  0  0  0  0  0
  -10.6040   16.9187  -37.0829 H   0  0  0  0  0  0  0  0  0  0  0  0
  -10.7342   14.3568  -39.6120 H   0  0  0  0  0  0  0  0  0  0  0  0
  -10.7538   16.1107  -39.3416 H   0  0  0  0  0  0  0  0  0  0  0  0
  -12.9320   14.9606  -40.5110 H   0  0  0  0  0  0  0  0  0  0  0  0
  -13.1227   14.1864  -36.4633 H   0  0  0  0  0  0  0  0  0  0  0  0
  1  2  1  0  0  0  0
  1 10  1  0  0  0  0
  1 11  2  0  0  0  0
  2  3  1  0  0  0  0
  3  6  1  0  0  0  0
  4  5  1  0  0  0  0
  4  8  1  0  0  0  0
  5  9  1  0  0  0  0
  6 10  1  0  0  0  0
  7  8  1  0  0  0  0
  7 10  1  0  0  0  0
  8 12  1  0  0  0  0
  9 10  1  0  0  0  0
  9 12  1  0  0  0  0
  2 13  1  0  0  0  0
  2 14  1  0  0  0  0
  3 15  1  0  0  0  0
  3 16  1  0  0  0  0
  4 17  1  0  0  0  0
  4 18  1  0  0  0  0
  5 19  1  0  0  0  0
  5 20  1  0  0  0  0
  6 21  1  0  0  0  0
  6 22  1  0  0  0  0
  7 23  1  0  0  0  0
  7 24  1  0  0  0  0
  8 25  1  0  0  0  0
  9 26  1  0  0  0  0
M  END
> <id>
EN300-1461611

> <smiles>
O=C1CCCC21CC3CCC2O3

> <IUPAC Name>
7-oxaspiro[bicyclo[2.2.1]heptane-2,1'-cyclopentane]-5'-one

> <CAS>
2167294-99-5

> <URL>
https://www.enaminestore.com/catalog/EN300-1461611

> <ROCS_ShapeQuery>
x1247relevant_x1083L0AP1_x1305L0BP1_

> <ROCS_TanimotoCombo>
0.797 

> <ROCS_ShapeTanimoto>
0.463 

> <ROCS_ColorTanimoto>
0.334 

> <ROCS_RefTversky>
0.389 

> <ROCS_RefColorTversky>
0.368 

> <ROCS_RefTverskyCombo>
0.757 

> <ROCS_FitTversky>
1.691 

> <ROCS_FitColorTversky>
0.783 

> <ROCS_FitTverskyCombo>
2.473 

> <ROCS_ColorScore>
-7.805

> <ROCS_Overlap>
1143.876

> <ROCS_Rank>
375                 

$$$$
untitled-dbase-45206_0
  -OEChem-06162310163D

 21 22  0     1  0  0  0  0  0999 V2000
  -12.2798   16.2771  -39.9007 C   0  0  0  0  0  0  0  0  0  0  0  0
  -10.9838   15.9572  -39.1763 C   0  0  0  0  0  0  0  0  0  0  0  0
  -12.1234   16.0499  -36.9017 C   0  0  0  0  0  0  0  0  0  0  0  0
  -13.5577   15.6498  -37.2522 C   0  0  0  0  0  0  0  0  0  0  0  0
  -13.3940   15.2441  -39.7777 C   0  0  1  0  0  0  0  0  0  0  0  0
  -11.2505   15.2289  -37.8512 C   0  0  1  0  0  0  0  0  0  0  0  0
  -13.4062   14.6190  -38.3745 C   0  0  1  0  0  0  0  0  0  0  0  0
  -12.0859   14.0434  -38.0863 N   0  0  0  0  0  0  0  0  0  0  0  0
  -12.3890   17.2789  -40.6060 O   0  0  0  0  0  0  0  0  0  0  0  0
  -14.6456   15.8461  -40.0459 O   0  0  0  0  0  0  0  0  0  0  0  0
  -10.3734   15.3362  -39.8416 H   0  0  0  0  0  0  0  0  0  0  0  0
  -10.4486   16.8942  -38.9877 H   0  0  0  0  0  0  0  0  0  0  0  0
  -11.9646   17.1285  -37.0041 H   0  0  0  0  0  0  0  0  0  0  0  0
  -11.9168   15.7800  -35.8588 H   0  0  0  0  0  0  0  0  0  0  0  0
  -14.0302   15.1932  -36.3739 H   0  0  0  0  0  0  0  0  0  0  0  0
  -14.1613   16.5164  -37.5401 H   0  0  0  0  0  0  0  0  0  0  0  0
  -13.2164   14.4688  -40.5327 H   0  0  0  0  0  0  0  0  0  0  0  0
  -10.3008   14.9564  -37.3800 H   0  0  0  0  0  0  0  0  0  0  0  0
  -14.1997   13.8668  -38.3079 H   0  0  0  0  0  0  0  0  0  0  0  0
  -11.7409   13.5132  -38.8852 H   0  0  0  0  0  0  0  0  0  0  0  0
  -14.6073   16.1958  -40.9529 H   0  0  0  0  0  0  0  0  0  0  0  0
  1  2  1  0  0  0  0
  1  5  1  0  0  0  0
  1  9  2  0  0  0  0
  2  6  1  0  0  0  0
  3  4  1  0  0  0  0
  3  6  1  0  0  0  0
  4  7  1  0  0  0  0
  5  7  1  0  0  0  0
  5 10  1  0  0  0  0
  6  8  1  0  0  0  0
  7  8  1  0  0  0  0
  2 11  1  0  0  0  0
  2 12  1  0  0  0  0
  3 13  1  0  0  0  0
  3 14  1  0  0  0  0
  4 15  1  0  0  0  0
  4 16  1  0  0  0  0
  5 17  1  0  0  0  0
  6 18  1  0  0  0  0
  7 19  1  0  0  0  0
  8 20  1  0  0  0  0
 10 21  1  0  0  0  0
M  END
> <id>
EN300-28270611

> <smiles>
OC1C2CCC(CC1=O)N2

> <IUPAC Name>
2-hydroxy-8-azabicyclo[3.2.1]octan-3-one

> <CAS>
2680880-32-2

> <URL>
https://www.enaminestore.com/catalog/EN300-28270611

> <ROCS_ShapeQuery>
x1247relevant_x1083L0AP1_x1305L0BP1_

> <ROCS_TanimotoCombo>
0.796 

> <ROCS_ShapeTanimoto>
0.385 

> <ROCS_ColorTanimoto>
0.411 

> <ROCS_RefTversky>
0.332 

> <ROCS_RefColorTversky>
0.447 

> <ROCS_RefTverskyCombo>
0.779 

> <ROCS_FitTversky>
1.701 

> <ROCS_FitColorTversky>
0.837 

> <ROCS_FitTverskyCombo>
2.538 

> <ROCS_ColorScore>
-9.524

> <ROCS_Overlap>
974.775

> <ROCS_Rank>
376                 

$$$$
untitled-dbase-16680_6
  -OEChem-06162310163D

 40 42  0     1  0  0  0  0  0999 V2000
  -14.3059   17.2603  -39.2446 C   0  0  0  0  0  0  0  0  0  0  0  0
  -11.1235   15.6431  -36.3278 C   0  0  0  0  0  0  0  0  0  0  0  0
  -10.0269   15.8318  -38.5497 C   0  0  0  0  0  0  0  0  0  0  0  0
  -13.0983   13.7604  -37.8582 C   0  0  0  0  0  0  0  0  0  0  0  0
  -13.5380   18.0206  -40.3110 C   0  0  0  0  0  0  0  0  0  0  0  0
   -9.8734   14.9204  -35.8368 C   0  0  0  0  0  0  0  0  0  0  0  0
   -8.8292   15.0970  -37.9564 C   0  0  0  0  0  0  0  0  0  0  0  0
  -13.0132   15.7576  -40.4762 C   0  0  0  0  0  0  0  0  0  0  0  0
  -13.4421   16.0188  -39.0262 C   0  0  2  0  0  0  0  0  0  0  0  0
  -14.1414   14.8420  -38.2724 C   0  0  0  0  0  0  0  0  0  0  0  0
  -11.3570   15.4749  -37.8470 C   0  0  0  0  0  0  0  0  0  0  0  0
  -14.8234   15.3726  -36.9847 C   0  0  0  0  0  0  0  0  0  0  0  0
  -15.2463   14.1620  -39.1100 C   0  0  0  0  0  0  0  0  0  0  0  0
  -11.7236   14.1014  -38.2030 N   0  0  0  0  0  0  0  0  0  0  0  0
  -12.8246   17.0492  -41.0840 O   0  0  0  0  0  0  0  0  0  0  0  0
   -8.7225   15.3552  -36.5580 O   0  0  0  0  0  0  0  0  0  0  0  0
  -12.3159   16.4711  -38.2470 O   0  0  0  0  0  0  0  0  0  0  0  0
  -14.4832   17.8834  -38.3701 H   0  0  0  0  0  0  0  0  0  0  0  0
  -15.2844   16.9936  -39.6607 H   0  0  0  0  0  0  0  0  0  0  0  0
  -11.9733   15.2827  -35.7464 H   0  0  0  0  0  0  0  0  0  0  0  0
  -11.0268   16.7132  -36.1101 H   0  0  0  0  0  0  0  0  0  0  0  0
   -9.8572   16.9109  -38.4473 H   0  0  0  0  0  0  0  0  0  0  0  0
  -10.0928   15.6410  -39.6262 H   0  0  0  0  0  0  0  0  0  0  0  0
  -13.1779   13.5475  -36.7742 H   0  0  0  0  0  0  0  0  0  0  0  0
  -13.3474   12.8015  -38.3522 H   0  0  0  0  0  0  0  0  0  0  0  0
  -14.1972   18.6008  -40.9671 H   0  0  0  0  0  0  0  0  0  0  0  0
  -12.8049   18.7065  -39.8674 H   0  0  0  0  0  0  0  0  0  0  0  0
   -9.7068   15.1518  -34.7816 H   0  0  0  0  0  0  0  0  0  0  0  0
   -9.9681   13.8340  -35.9208 H   0  0  0  0  0  0  0  0  0  0  0  0
   -8.8803   14.0146  -38.1299 H   0  0  0  0  0  0  0  0  0  0  0  0
   -7.9073   15.4551  -38.4295 H   0  0  0  0  0  0  0  0  0  0  0  0
  -12.0703   15.2102  -40.5548 H   0  0  0  0  0  0  0  0  0  0  0  0
  -13.7787   15.2417  -41.0606 H   0  0  0  0  0  0  0  0  0  0  0  0
  -15.5528   16.1269  -37.2557 H   0  0  0  0  0  0  0  0  0  0  0  0
  -14.0694   15.8050  -36.3375 H   0  0  0  0  0  0  0  0  0  0  0  0
  -15.3148   14.5493  -36.4796 H   0  0  0  0  0  0  0  0  0  0  0  0
  -15.9709   14.9104  -39.3985 H   0  0  0  0  0  0  0  0  0  0  0  0
  -15.7162   13.3981  -38.5066 H   0  0  0  0  0  0  0  0  0  0  0  0
  -14.7930   13.7213  -39.9869 H   0  0  0  0  0  0  0  0  0  0  0  0
  -11.0854   13.4292  -37.7735 H   0  0  0  0  0  0  0  0  0  0  0  0
  1  5  1  0  0  0  0
  1  9  1  0  0  0  0
  2  6  1  0  0  0  0
  2 11  1  0  0  0  0
  3  7  1  0  0  0  0
  3 11  1  0  0  0  0
  4 10  1  0  0  0  0
  4 14  1  0  0  0  0
  5 15  1  0  0  0  0
  6 16  1  0  0  0  0
  7 16  1  0  0  0  0
  8  9  1  0  0  0  0
  8 15  1  0  0  0  0
  9 10  1  0  0  0  0
  9 17  1  0  0  0  0
 10 12  1  0  0  0  0
 10 13  1  0  0  0  0
 11 14  1  0  0  0  0
 11 17  1  0  0  0  0
  1 18  1  0  0  0  0
  1 19  1  0  0  0  0
  2 20  1  0  0  0  0
  2 21  1  0  0  0  0
  3 22  1  0  0  0  0
  3 23  1  0  0  0  0
  4 24  1  0  0  0  0
  4 25  1  0  0  0  0
  5 26  1  0  0  0  0
  5 27  1  0  0  0  0
  6 28  1  0  0  0  0
  6 29  1  0  0  0  0
  7 30  1  0  0  0  0
  7 31  1  0  0  0  0
  8 32  1  0  0  0  0
  8 33  1  0  0  0  0
 12 34  1  0  0  0  0
 12 35  1  0  0  0  0
 12 36  1  0  0  0  0
 13 37  1  0  0  0  0
 13 38  1  0  0  0  0
 13 39  1  0  0  0  0
 14 40  1  0  0  0  0
M  END
> <id>
EN300-1280283

> <smiles>
CC1(C)CNC2(CCOCC2)OC31CCOC3

> <IUPAC Name>
15,15-dimethyl-2,6,10-trioxa-13-azadispiro[4.1.5^{7}.3^{5}]pentadecane

> <CAS>
2171928-82-6

> <URL>
https://www.enaminestore.com/catalog/EN300-1280283

> <ROCS_ShapeQuery>
x1247relevant_x1083L0AP1_x1305L0BP1_

> <ROCS_TanimotoCombo>
0.796 

> <ROCS_ShapeTanimoto>
0.490 

> <ROCS_ColorTanimoto>
0.306 

> <ROCS_RefTversky>
0.426 

> <ROCS_RefColorTversky>
0.341 

> <ROCS_RefTverskyCombo>
0.767 

> <ROCS_FitTversky>
1.439 

> <ROCS_FitColorTversky>
0.750 

> <ROCS_FitTverskyCombo>
2.189 

> <ROCS_ColorScore>
-7.232

> <ROCS_Overlap>
1257.648

> <ROCS_Rank>
377                 

$$$$
untitled-dbase-30917_0
  -OEChem-06162310163D

 25 27  0     1  0  0  0  0  0999 V2000
  -11.6937   15.7405  -39.5211 C   0  0  0  0  0  0  0  0  0  0  0  0
  -10.0603   14.9648  -37.1601 C   0  0  0  0  0  0  0  0  0  0  0  0
  -11.2533   12.9955  -37.3739 C   0  0  0  0  0  0  0  0  0  0  0  0
  -12.4725   14.4586  -39.7410 C   0  0  0  0  0  0  0  0  0  0  0  0
  -13.4236   16.6606  -38.0683 C   0  0  0  0  0  0  0  0  0  0  0  0
  -14.2159   15.3431  -38.1854 C   0  0  0  0  0  0  0  0  0  0  0  0
  -11.9134   16.3896  -38.1611 C   0  0  1  0  0  0  0  0  0  0  0  0
  -11.5095   15.3810  -37.0772 C   0  0  1  0  0  0  0  0  0  0  0  0
  -12.3045   14.0697  -37.2348 C   0  0  1  0  0  0  0  0  0  0  0  0
  -13.2565   14.1617  -38.4456 C   0  0  2  0  0  0  0  0  0  0  0  0
  -10.0216   13.5989  -37.2999 N   0  0  0  0  0  0  0  0  0  0  0  0
  -10.9491   16.2157  -40.3732 O   0  0  0  0  0  0  0  0  0  0  0  0
   -9.1058   15.7269  -37.1155 O   0  0  0  0  0  0  0  0  0  0  0  0
  -11.4813   11.8056  -37.5349 O   0  0  0  0  0  0  0  0  0  0  0  0
  -13.1574   14.6023  -40.5828 H   0  0  0  0  0  0  0  0  0  0  0  0
  -11.7739   13.6516  -39.9789 H   0  0  0  0  0  0  0  0  0  0  0  0
  -13.7348   17.3421  -38.8696 H   0  0  0  0  0  0  0  0  0  0  0  0
  -13.6643   17.1547  -37.1196 H   0  0  0  0  0  0  0  0  0  0  0  0
  -14.7862   15.1710  -37.2645 H   0  0  0  0  0  0  0  0  0  0  0  0
  -14.9491   15.4235  -38.9967 H   0  0  0  0  0  0  0  0  0  0  0  0
  -11.3337   17.3158  -38.0962 H   0  0  0  0  0  0  0  0  0  0  0  0
  -11.6806   15.8040  -36.0796 H   0  0  0  0  0  0  0  0  0  0  0  0
  -12.8716   13.8650  -36.3182 H   0  0  0  0  0  0  0  0  0  0  0  0
  -13.8224   13.2305  -38.5619 H   0  0  0  0  0  0  0  0  0  0  0  0
   -9.1532   13.0808  -37.3745 H   0  0  0  0  0  0  0  0  0  0  0  0
  1  4  1  0  0  0  0
  1  7  1  0  0  0  0
  1 12  2  0  0  0  0
  2  8  1  6  0  0  0
  2 11  1  0  0  0  0
  2 13  2  0  0  0  0
  3  9  1  6  0  0  0
  3 11  1  0  0  0  0
  3 14  2  0  0  0  0
  4 10  1  0  0  0  0
  5  6  1  0  0  0  0
  5  7  1  1  0  0  0
  6 10  1  1  0  0  0
  7  8  1  0  0  0  0
  8  9  1  0  0  0  0
  9 10  1  0  0  0  0
  4 15  1  0  0  0  0
  4 16  1  0  0  0  0
  5 17  1  0  0  0  0
  5 18  1  0  0  0  0
  6 19  1  0  0  0  0
  6 20  1  0  0  0  0
  7 21  1  0  0  0  0
  8 22  1  0  0  0  0
  9 23  1  0  0  0  0
 10 24  1  0  0  0  0
 11 25  1  0  0  0  0
M  END
> <id>
EN300-26863602

> <smiles>
O=C1NC(=O)[C@@H]2[C@H]1[C@H]3CC[C@@H]2C(=O)C3 |&1:5,6,7,10,r|

> <IUPAC Name>
rac-(1R,2S,6R,7R)-4-azatricyclo[5.2.2.0,2,6]undecane-3,5,8-trione

> <CAS>
1932117-92-4

> <Purity>
95

> <URL>
https://www.enaminestore.com/catalog/EN300-26863602

> <ROCS_ShapeQuery>
x1247relevant_x1083L0AP1_x1305L0BP1_

> <ROCS_TanimotoCombo>
0.796 

> <ROCS_ShapeTanimoto>
0.483 

> <ROCS_ColorTanimoto>
0.313 

> <ROCS_RefTversky>
0.411 

> <ROCS_RefColorTversky>
0.369 

> <ROCS_RefTverskyCombo>
0.779 

> <ROCS_FitTversky>
1.573 

> <ROCS_FitColorTversky>
0.675 

> <ROCS_FitTverskyCombo>
2.248 

> <ROCS_ColorScore>
-7.857

> <ROCS_Overlap>
1209.231

> <ROCS_Rank>
378                 

$$$$
untitled-dbase-16589_16
  -OEChem-06162310163D

 41 42  0     1  0  0  0  0  0999 V2000
  -10.2453   14.9374  -35.4804 C   0  0  0  0  0  0  0  0  0  0  0  0
  -11.2944   15.7928  -36.1927 C   0  0  0  0  0  0  0  0  0  0  0  0
  -10.4610   16.1029  -38.5749 C   0  0  0  0  0  0  0  0  0  0  0  0
  -13.0789   13.7931  -38.5882 C   0  0  0  0  0  0  0  0  0  0  0  0
   -9.0267   14.5108  -36.2805 C   0  0  0  0  0  0  0  0  0  0  0  0
   -9.0853   15.4605  -38.4480 C   0  0  0  0  0  0  0  0  0  0  0  0
  -13.3868   16.2018  -39.2087 C   0  0  0  0  0  0  0  0  0  0  0  0
  -13.3508   14.7638  -39.7336 C   0  0  2  0  0  0  0  0  0  0  0  0
  -11.6000   15.5358  -37.6895 C   0  0  1  0  0  0  0  0  0  0  0  0
  -14.5455   12.9800  -41.0310 C   0  0  0  0  0  0  0  0  0  0  0  0
  -14.8474   15.3919  -41.6458 C   0  0  0  0  0  0  0  0  0  0  0  0
  -15.8367   14.5073  -39.5186 C   0  0  0  0  0  0  0  0  0  0  0  0
  -14.6368   14.4130  -40.4775 C   0  0  0  0  0  0  0  0  0  0  0  0
  -11.8057   14.1001  -37.9400 N   0  0  0  0  0  0  0  0  0  0  0  0
   -8.5569   15.5448  -37.1309 O   0  0  0  0  0  0  0  0  0  0  0  0
  -12.7866   16.3339  -37.9213 O   0  0  0  0  0  0  0  0  0  0  0  0
   -9.8994   15.5025  -34.5894 H   0  0  0  0  0  0  0  0  0  0  0  0
  -10.7465   14.0348  -35.0696 H   0  0  0  0  0  0  0  0  0  0  0  0
  -12.2219   15.7158  -35.5977 H   0  0  0  0  0  0  0  0  0  0  0  0
  -11.0108   16.8567  -36.0753 H   0  0  0  0  0  0  0  0  0  0  0  0
  -10.3666   17.1745  -38.3638 H   0  0  0  0  0  0  0  0  0  0  0  0
  -10.7558   16.0633  -39.6300 H   0  0  0  0  0  0  0  0  0  0  0  0
  -13.8960   13.8085  -37.8529 H   0  0  0  0  0  0  0  0  0  0  0  0
  -13.0318   12.7665  -38.9766 H   0  0  0  0  0  0  0  0  0  0  0  0
   -8.2176   14.1114  -35.6340 H   0  0  0  0  0  0  0  0  0  0  0  0
   -9.3180   13.6718  -36.9399 H   0  0  0  0  0  0  0  0  0  0  0  0
   -9.1585   14.4052  -38.6842 H   0  0  0  0  0  0  0  0  0  0  0  0
   -8.3888   15.9115  -39.1440 H   0  0  0  0  0  0  0  0  0  0  0  0
  -12.8314   16.8638  -39.8940 H   0  0  0  0  0  0  0  0  0  0  0  0
  -14.4156   16.6001  -39.1802 H   0  0  0  0  0  0  0  0  0  0  0  0
  -12.5103   14.6871  -40.4472 H   0  0  0  0  0  0  0  0  0  0  0  0
  -15.4562   12.6988  -41.5715 H   0  0  0  0  0  0  0  0  0  0  0  0
  -14.4004   12.2550  -40.2222 H   0  0  0  0  0  0  0  0  0  0  0  0
  -13.7024   12.8797  -41.7236 H   0  0  0  0  0  0  0  0  0  0  0  0
  -15.7669   15.1573  -42.1940 H   0  0  0  0  0  0  0  0  0  0  0  0
  -14.9289   16.4231  -41.2844 H   0  0  0  0  0  0  0  0  0  0  0  0
  -14.0157   15.3531  -42.3581 H   0  0  0  0  0  0  0  0  0  0  0  0
  -16.7715   14.2589  -40.0337 H   0  0  0  0  0  0  0  0  0  0  0  0
  -15.9422   15.5162  -39.1044 H   0  0  0  0  0  0  0  0  0  0  0  0
  -15.7240   13.8122  -38.6789 H   0  0  0  0  0  0  0  0  0  0  0  0
  -11.7313   13.5735  -37.0676 H   0  0  0  0  0  0  0  0  0  0  0  0
  1  2  1  0  0  0  0
  1  5  1  0  0  0  0
  2  9  1  0  0  0  0
  3  6  1  0  0  0  0
  3  9  1  0  0  0  0
  4  8  1  0  0  0  0
  4 14  1  0  0  0  0
  5 15  1  0  0  0  0
  6 15  1  0  0  0  0
  7  8  1  0  0  0  0
  7 16  1  0  0  0  0
  8 13  1  0  0  0  0
  9 14  1  0  0  0  0
  9 16  1  0  0  0  0
 10 13  1  0  0  0  0
 11 13  1  0  0  0  0
 12 13  1  0  0  0  0
  1 17  1  0  0  0  0
  1 18  1  0  0  0  0
  2 19  1  0  0  0  0
  2 20  1  0  0  0  0
  3 21  1  0  0  0  0
  3 22  1  0  0  0  0
  4 23  1  0  0  0  0
  4 24  1  0  0  0  0
  5 25  1  0  0  0  0
  5 26  1  0  0  0  0
  6 27  1  0  0  0  0
  6 28  1  0  0  0  0
  7 29  1  0  0  0  0
  7 30  1  0  0  0  0
  8 31  1  0  0  0  0
 10 32  1  0  0  0  0
 10 33  1  0  0  0  0
 10 34  1  0  0  0  0
 11 35  1  0  0  0  0
 11 36  1  0  0  0  0
 11 37  1  0  0  0  0
 12 38  1  0  0  0  0
 12 39  1  0  0  0  0
 12 40  1  0  0  0  0
 14 41  1  0  0  0  0
M  END
> <id>
EN300-1279329

> <smiles>
CC(C)(C)C1CNC2(CCCOCC2)OC1

> <IUPAC Name>
3-tert-butyl-1,9-dioxa-5-azaspiro[5.6]dodecane

> <CAS>
2171927-49-2

> <URL>
https://www.enaminestore.com/catalog/EN300-1279329

> <ROCS_ShapeQuery>
x1247relevant_x1083L0AP1_x1305L0BP1_

> <ROCS_TanimotoCombo>
0.796 

> <ROCS_ShapeTanimoto>
0.466 

> <ROCS_ColorTanimoto>
0.330 

> <ROCS_RefTversky>
0.404 

> <ROCS_RefColorTversky>
0.339 

> <ROCS_RefTverskyCombo>
0.744 

> <ROCS_FitTversky>
1.485 

> <ROCS_FitColorTversky>
0.925 

> <ROCS_FitTverskyCombo>
2.410 

> <ROCS_ColorScore>
-7.159

> <ROCS_Overlap>
1190.986

> <ROCS_Rank>
379                 

$$$$
untitled-dbase-41015_3
  -OEChem-06162310163D

 35 37  0     1  0  0  0  0  0999 V2000
  -13.8637   16.4715  -38.2963 C   0  0  0  0  0  0  0  0  0  0  0  0
  -13.6185   15.5688  -37.0798 C   0  0  0  0  0  0  0  0  0  0  0  0
  -13.2944   14.2798  -39.0386 C   0  0  0  0  0  0  0  0  0  0  0  0
  -11.5942   15.9353  -39.2202 C   0  0  0  0  0  0  0  0  0  0  0  0
  -10.2094   14.0163  -38.2939 C   0  0  0  0  0  0  0  0  0  0  0  0
  -10.0673   13.8529  -35.8642 C   0  0  0  0  0  0  0  0  0  0  0  0
  -13.1096   15.7450  -39.4222 C   0  0  2  0  0  0  0  0  0  0  0  0
  -12.6889   14.4766  -37.6456 C   0  0  1  0  0  0  0  0  0  0  0  0
  -11.2806   15.0701  -37.9660 C   0  0  2  0  0  0  0  0  0  0  0  0
   -9.9870   15.3870  -35.9163 C   0  0  0  0  0  0  0  0  0  0  0  0
   -8.5514   15.8825  -36.1468 C   0  0  0  0  0  0  0  0  0  0  0  0
  -10.4841   15.9649  -34.5836 C   0  0  0  0  0  0  0  0  0  0  0  0
   -9.8240   13.1963  -37.1456 N   0  0  0  0  0  0  0  0  0  0  0  0
  -10.8227   15.9518  -36.9362 O   0  0  0  0  0  0  0  0  0  0  0  0
  -14.9367   16.5260  -38.5150 H   0  0  0  0  0  0  0  0  0  0  0  0
  -13.4976   17.4908  -38.1333 H   0  0  0  0  0  0  0  0  0  0  0  0
  -13.1935   16.1176  -36.2347 H   0  0  0  0  0  0  0  0  0  0  0  0
  -14.5661   15.1295  -36.7455 H   0  0  0  0  0  0  0  0  0  0  0  0
  -14.3457   13.9713  -39.0111 H   0  0  0  0  0  0  0  0  0  0  0  0
  -12.7370   13.5899  -39.6784 H   0  0  0  0  0  0  0  0  0  0  0  0
  -11.0577   15.5660  -40.1010 H   0  0  0  0  0  0  0  0  0  0  0  0
  -11.3650   16.9951  -39.0916 H   0  0  0  0  0  0  0  0  0  0  0  0
  -10.5718   13.3467  -39.0972 H   0  0  0  0  0  0  0  0  0  0  0  0
   -9.2969   14.4891  -38.6970 H   0  0  0  0  0  0  0  0  0  0  0  0
   -9.3414   13.4607  -35.1179 H   0  0  0  0  0  0  0  0  0  0  0  0
  -11.0643   13.5318  -35.4835 H   0  0  0  0  0  0  0  0  0  0  0  0
  -13.4528   16.0151  -40.4234 H   0  0  0  0  0  0  0  0  0  0  0  0
  -12.6632   13.5877  -37.0155 H   0  0  0  0  0  0  0  0  0  0  0  0
   -8.5443   16.9682  -36.1761 H   0  0  0  0  0  0  0  0  0  0  0  0
   -8.1816   15.4917  -37.0902 H   0  0  0  0  0  0  0  0  0  0  0  0
   -7.9157   15.5371  -35.3366 H   0  0  0  0  0  0  0  0  0  0  0  0
  -10.4283   17.0487  -34.6179 H   0  0  0  0  0  0  0  0  0  0  0  0
   -9.8610   15.5941  -33.7756 H   0  0  0  0  0  0  0  0  0  0  0  0
  -11.5129   15.6587  -34.4198 H   0  0  0  0  0  0  0  0  0  0  0  0
  -10.3616   12.3086  -37.1743 H   0  0  0  0  0  0  0  0  0  0  0  0
  1  2  1  0  0  0  0
  1  7  1  0  0  0  0
  2  8  1  1  0  0  0
  3  7  1  0  0  0  0
  3  8  1  0  0  0  0
  4  7  1  1  0  0  0
  4  9  1  0  0  0  0
  5  9  1  6  0  0  0
  5 13  1  0  0  0  0
  6 10  1  0  0  0  0
  6 13  1  0  0  0  0
  8  9  1  0  0  0  0
  9 14  1  0  0  0  0
 10 11  1  0  0  0  0
 10 12  1  0  0  0  0
 10 14  1  0  0  0  0
  1 15  1  0  0  0  0
  1 16  1  0  0  0  0
  2 17  1  0  0  0  0
  2 18  1  0  0  0  0
  3 19  1  0  0  0  0
  3 20  1  0  0  0  0
  4 21  1  0  0  0  0
  4 22  1  0  0  0  0
  5 23  1  0  0  0  0
  5 24  1  0  0  0  0
  6 25  1  0  0  0  0
  6 26  1  0  0  0  0
  7 27  1  0  0  0  0
  8 28  1  0  0  0  0
 11 29  1  0  0  0  0
 11 30  1  0  0  0  0
 11 31  1  0  0  0  0
 12 32  1  0  0  0  0
 12 33  1  0  0  0  0
 12 34  1  0  0  0  0
 13 35  1  0  0  0  0
M  END
> <id>
EN300-200571

> <smiles>
CC1(C)CNC[C@]2(C[C@@H]3CC[C@H]2C3)O1

> <MDLNUMBER>
MFCD28246476

> <IUPAC Name>
(1S,2R,4R)-6',6'-dimethylspiro[bicyclo[2.2.1]heptane-2,2'-morpholine]

> <CAS>
1807938-35-7

> <URL>
https://www.enaminestore.com/catalog/EN300-200571

> <ROCS_ShapeQuery>
x1247relevant_x1083L0AP1_x1305L0BP1_

> <ROCS_TanimotoCombo>
0.796 

> <ROCS_ShapeTanimoto>
0.485 

> <ROCS_ColorTanimoto>
0.311 

> <ROCS_RefTversky>
0.410 

> <ROCS_RefColorTversky>
0.369 

> <ROCS_RefTverskyCombo>
0.778 

> <ROCS_FitTversky>
1.608 

> <ROCS_FitColorTversky>
0.665 

> <ROCS_FitTverskyCombo>
2.274 

> <ROCS_ColorScore>
-7.861

> <ROCS_Overlap>
1205.742

> <ROCS_Rank>
380                 

$$$$
untitled-dbase-14583_0
  -OEChem-06162310163D

 32 35  0     1  0  0  0  0  0999 V2000
  -11.4364   16.8972  -35.7198 C   0  0  0  0  0  0  0  0  0  0  0  0
  -10.5722   17.6338  -34.9357 C   0  0  0  0  0  0  0  0  0  0  0  0
  -10.7700   15.8132  -36.3417 C   0  0  0  0  0  0  0  0  0  0  0  0
   -9.4395   15.7405  -35.9993 C   0  0  0  0  0  0  0  0  0  0  0  0
   -8.5004   14.6711  -36.4499 C   0  0  0  0  0  0  0  0  0  0  0  0
  -13.7220   16.6733  -38.7452 C   0  0  0  0  0  0  0  0  0  0  0  0
  -14.2368   15.2660  -39.0053 C   0  0  0  0  0  0  0  0  0  0  0  0
  -12.2470   16.5947  -39.1131 C   0  0  0  0  0  0  0  0  0  0  0  0
  -12.8068   14.2684  -37.0322 C   0  0  0  0  0  0  0  0  0  0  0  0
   -9.1034   13.9234  -37.6488 C   0  0  0  0  0  0  0  0  0  0  0  0
  -13.0999   14.3606  -38.5537 C   0  0  2  0  0  0  0  0  0  0  0  0
  -11.7938   15.1781  -38.7356 C   0  0  2  0  0  0  0  0  0  0  0  0
  -11.3656   14.7524  -37.2990 C   0  0  1  0  0  0  0  0  0  0  0  0
  -10.5089   13.5418  -37.4159 N   0  0  0  0  0  0  0  0  0  0  0  0
   -8.9792   16.9964  -34.9486 S   0  0  0  0  0  0  0  0  0  0  0  0
  -12.4833   17.1437  -35.8277 H   0  0  0  0  0  0  0  0  0  0  0  0
  -10.8006   18.5139  -34.3512 H   0  0  0  0  0  0  0  0  0  0  0  0
   -7.5292   15.0926  -36.7328 H   0  0  0  0  0  0  0  0  0  0  0  0
   -8.3331   13.9694  -35.6232 H   0  0  0  0  0  0  0  0  0  0  0  0
  -14.2563   17.4268  -39.3313 H   0  0  0  0  0  0  0  0  0  0  0  0
  -13.8410   16.9304  -37.6884 H   0  0  0  0  0  0  0  0  0  0  0  0
  -15.1692   15.0622  -38.4708 H   0  0  0  0  0  0  0  0  0  0  0  0
  -14.4214   15.1289  -40.0772 H   0  0  0  0  0  0  0  0  0  0  0  0
  -12.1431   16.7304  -40.1970 H   0  0  0  0  0  0  0  0  0  0  0  0
  -11.6526   17.3753  -38.6313 H   0  0  0  0  0  0  0  0  0  0  0  0
  -13.4224   14.9381  -36.4209 H   0  0  0  0  0  0  0  0  0  0  0  0
  -12.9157   13.2631  -36.6083 H   0  0  0  0  0  0  0  0  0  0  0  0
   -9.0172   14.5297  -38.5590 H   0  0  0  0  0  0  0  0  0  0  0  0
   -8.5172   13.0139  -37.8231 H   0  0  0  0  0  0  0  0  0  0  0  0
  -13.0950   13.3821  -39.0484 H   0  0  0  0  0  0  0  0  0  0  0  0
  -11.1455   14.7977  -39.5368 H   0  0  0  0  0  0  0  0  0  0  0  0
  -10.7984   12.8889  -38.1441 H   0  0  0  0  0  0  0  0  0  0  0  0
  1  2  2  0  0  0  0
  1  3  1  0  0  0  0
  2 15  1  0  0  0  0
  3  4  2  0  0  0  0
  3 13  1  0  0  0  0
  4  5  1  0  0  0  0
  4 15  1  0  0  0  0
  5 10  1  0  0  0  0
  6  7  1  0  0  0  0
  6  8  1  0  0  0  0
  7 11  1  0  0  0  0
  8 12  1  0  0  0  0
  9 11  1  0  0  0  0
  9 13  1  0  0  0  0
 10 14  1  0  0  0  0
 11 12  1  0  0  0  0
 12 13  1  0  0  0  0
 13 14  1  0  0  0  0
  1 16  1  0  0  0  0
  2 17  1  0  0  0  0
  5 18  1  0  0  0  0
  5 19  1  0  0  0  0
  6 20  1  0  0  0  0
  6 21  1  0  0  0  0
  7 22  1  0  0  0  0
  7 23  1  0  0  0  0
  8 24  1  0  0  0  0
  8 25  1  0  0  0  0
  9 26  1  0  0  0  0
  9 27  1  0  0  0  0
 10 28  1  0  0  0  0
 10 29  1  0  0  0  0
 11 30  1  0  0  0  0
 12 31  1  0  0  0  0
 14 32  1  0  0  0  0
M  END
> <id>
EN300-1075455

> <smiles>
C1C2CCCC2C13NCCC=4SC=CC43

> <IUPAC Name>
6',7'-dihydro-5'H-spiro[bicyclo[3.2.0]heptane-6,4'-thieno[3,2-c]pyridine]

> <URL>
https://www.enaminestore.com/catalog/EN300-1075455

> <ROCS_ShapeQuery>
x1247relevant_x1083L0AP1_x1305L0BP1_

> <ROCS_TanimotoCombo>
0.796 

> <ROCS_ShapeTanimoto>
0.451 

> <ROCS_ColorTanimoto>
0.345 

> <ROCS_RefTversky>
0.394 

> <ROCS_RefColorTversky>
0.377 

> <ROCS_RefTverskyCombo>
0.771 

> <ROCS_FitTversky>
1.473 

> <ROCS_FitColorTversky>
0.800 

> <ROCS_FitTverskyCombo>
2.273 

> <ROCS_ColorScore>
-8.006

> <ROCS_Overlap>
1160.195

> <ROCS_Rank>
381                 

$$$$
untitled-dbase-39933_1
  -OEChem-06162310163D

 33 36  0     1  0  0  0  0  0999 V2000
  -10.5188   16.8553  -35.3130 C   0  0  0  0  0  0  0  0  0  0  0  0
   -9.5065   17.0921  -34.4085 C   0  0  0  0  0  0  0  0  0  0  0  0
  -10.2997   15.6695  -36.0907 C   0  0  0  0  0  0  0  0  0  0  0  0
   -9.0957   15.0851  -35.7418 C   0  0  0  0  0  0  0  0  0  0  0  0
   -8.5528   13.8473  -36.3704 C   0  0  0  0  0  0  0  0  0  0  0  0
  -12.6088   14.4851  -39.8902 C   0  0  0  0  0  0  0  0  0  0  0  0
  -13.5187   13.8317  -38.8323 C   0  0  0  0  0  0  0  0  0  0  0  0
  -11.1544   16.0534  -38.4482 C   0  0  0  0  0  0  0  0  0  0  0  0
  -12.6731   14.9521  -36.6620 C   0  0  0  0  0  0  0  0  0  0  0  0
   -9.2700   13.6072  -37.7026 C   0  0  0  0  0  0  0  0  0  0  0  0
  -12.2974   15.9220  -39.4694 C   0  0  2  0  0  0  0  0  0  0  0  0
  -13.7923   14.8359  -37.7121 C   0  0  1  0  0  0  0  0  0  0  0  0
  -11.2054   15.1131  -37.1969 C   0  0  0  0  0  0  0  0  0  0  0  0
  -10.7258   13.7443  -37.5595 N   0  0  0  0  0  0  0  0  0  0  0  0
   -8.2799   15.9043  -34.4961 S   0  0  0  0  0  0  0  0  0  0  0  0
  -13.8316   16.3840  -38.6390 S   0  0  0  0  0  0  0  0  0  0  0  0
  -11.3788   17.5056  -35.4105 H   0  0  0  0  0  0  0  0  0  0  0  0
   -9.4333   17.9041  -33.6989 H   0  0  0  0  0  0  0  0  0  0  0  0
   -7.4768   13.9731  -36.5436 H   0  0  0  0  0  0  0  0  0  0  0  0
   -8.6889   12.9768  -35.7191 H   0  0  0  0  0  0  0  0  0  0  0  0
  -11.6988   13.9014  -40.0630 H   0  0  0  0  0  0  0  0  0  0  0  0
  -13.1398   14.4909  -40.8522 H   0  0  0  0  0  0  0  0  0  0  0  0
  -14.4657   13.5483  -39.3125 H   0  0  0  0  0  0  0  0  0  0  0  0
  -13.0936   12.8976  -38.4500 H   0  0  0  0  0  0  0  0  0  0  0  0
  -10.2012   15.9074  -38.9780 H   0  0  0  0  0  0  0  0  0  0  0  0
  -11.1175   17.1047  -38.1293 H   0  0  0  0  0  0  0  0  0  0  0  0
  -12.9149   15.7991  -36.0037 H   0  0  0  0  0  0  0  0  0  0  0  0
  -12.7364   14.0785  -36.0022 H   0  0  0  0  0  0  0  0  0  0  0  0
   -8.9172   14.3401  -38.4371 H   0  0  0  0  0  0  0  0  0  0  0  0
   -9.0097   12.6235  -38.1082 H   0  0  0  0  0  0  0  0  0  0  0  0
  -12.1100   16.5635  -40.3359 H   0  0  0  0  0  0  0  0  0  0  0  0
  -14.7537   14.6470  -37.2256 H   0  0  0  0  0  0  0  0  0  0  0  0
  -11.1583   13.4562  -38.4379 H   0  0  0  0  0  0  0  0  0  0  0  0
  1  2  2  0  0  0  0
  1  3  1  0  0  0  0
  2 15  1  0  0  0  0
  3  4  2  0  0  0  0
  3 13  1  0  0  0  0
  4  5  1  0  0  0  0
  4 15  1  0  0  0  0
  5 10  1  0  0  0  0
  6  7  1  0  0  0  0
  6 11  1  0  0  0  0
  7 12  1  0  0  0  0
  8 11  1  0  0  0  0
  8 13  1  0  0  0  0
  9 12  1  0  0  0  0
  9 13  1  0  0  0  0
 10 14  1  0  0  0  0
 11 16  1  0  0  0  0
 12 16  1  0  0  0  0
 13 14  1  0  0  0  0
  1 17  1  0  0  0  0
  2 18  1  0  0  0  0
  5 19  1  0  0  0  0
  5 20  1  0  0  0  0
  6 21  1  0  0  0  0
  6 22  1  0  0  0  0
  7 23  1  0  0  0  0
  7 24  1  0  0  0  0
  8 25  1  0  0  0  0
  8 26  1  0  0  0  0
  9 27  1  0  0  0  0
  9 28  1  0  0  0  0
 10 29  1  0  0  0  0
 10 30  1  0  0  0  0
 11 31  1  0  0  0  0
 12 32  1  0  0  0  0
 14 33  1  0  0  0  0
M  END
> <id>
EN300-1075943

> <smiles>
C1CC2CC3(CC1S2)NCCC=4SC=CC43

> <IUPAC Name>
6',7'-dihydro-5'H-8-thiaspiro[bicyclo[3.2.1]octane-3,4'-thieno[3,2-c]pyridine]

> <URL>
https://www.enaminestore.com/catalog/EN300-1075943

> <ROCS_ShapeQuery>
x1247relevant_x1083L0AP1_x1305L0BP1_

> <ROCS_TanimotoCombo>
0.796 

> <ROCS_ShapeTanimoto>
0.443 

> <ROCS_ColorTanimoto>
0.353 

> <ROCS_RefTversky>
0.392 

> <ROCS_RefColorTversky>
0.387 

> <ROCS_RefTverskyCombo>
0.779 

> <ROCS_FitTversky>
1.420 

> <ROCS_FitColorTversky>
0.800 

> <ROCS_FitTverskyCombo>
2.220 

> <ROCS_ColorScore>
-8.216

> <ROCS_Overlap>
1154.004

> <ROCS_Rank>
382                 

$$$$
untitled-dbase-15504_0
  -OEChem-06162310163D

 19 21  0     1  0  0  0  0  0999 V2000
  -10.1874   15.4243  -36.9607 C   0  0  0  0  0  0  0  0  0  0  0  0
  -11.9889   13.7806  -37.6019 C   0  0  0  0  0  0  0  0  0  0  0  0
  -13.8245   15.2948  -37.6852 C   0  0  0  0  0  0  0  0  0  0  0  0
  -11.6151   15.1018  -36.8720 C   0  0  2  0  0  0  0  0  0  0  0  0
  -13.1329   14.2215  -38.5486 C   0  0  1  0  0  0  0  0  0  0  0  0
  -12.5398   16.1416  -37.5624 C   0  0  1  0  0  0  0  0  0  0  0  0
  -12.4991   15.0300  -39.6686 C   0  0  2  0  0  0  0  0  0  0  0  0
  -12.1061   16.3121  -39.0154 C   0  0  1  0  0  0  0  0  0  0  0  0
   -9.0578   15.6795  -37.0308 N   0  0  0  0  0  0  0  0  0  0  0  0
  -13.1179   16.2686  -40.0279 O   0  0  0  0  0  0  0  0  0  0  0  0
  -11.1507   13.3324  -38.1469 H   0  0  0  0  0  0  0  0  0  0  0  0
  -12.3590   13.0487  -36.8743 H   0  0  0  0  0  0  0  0  0  0  0  0
  -14.6372   15.8129  -38.2048 H   0  0  0  0  0  0  0  0  0  0  0  0
  -14.1938   14.9146  -36.7266 H   0  0  0  0  0  0  0  0  0  0  0  0
  -11.8940   15.0125  -35.8141 H   0  0  0  0  0  0  0  0  0  0  0  0
  -13.7767   13.4112  -38.8944 H   0  0  0  0  0  0  0  0  0  0  0  0
  -12.6541   17.0839  -37.0226 H   0  0  0  0  0  0  0  0  0  0  0  0
  -11.8266   14.5252  -40.3416 H   0  0  0  0  0  0  0  0  0  0  0  0
  -11.1553   16.7757  -39.2160 H   0  0  0  0  0  0  0  0  0  0  0  0
  1  4  1  1  0  0  0
  1  9  3  0  0  0  0
  2  4  1  0  0  0  0
  2  5  1  1  0  0  0
  3  5  1  0  0  0  0
  3  6  1  6  0  0  0
  4  6  1  0  0  0  0
  5  7  1  0  0  0  0
  6  8  1  0  0  0  0
  7  8  1  0  0  0  0
  7 10  1  6  0  0  0
  8 10  1  6  0  0  0
  2 11  1  0  0  0  0
  2 12  1  0  0  0  0
  3 13  1  0  0  0  0
  3 14  1  0  0  0  0
  4 15  1  0  0  0  0
  5 16  1  0  0  0  0
  6 17  1  0  0  0  0
  7 18  1  0  0  0  0
  8 19  1  0  0  0  0
M  END
> <id>
EN300-1084801

> <smiles>
N#C[C@@H]1C[C@H]2C[C@@H]1[C@@H]3O[C@@H]32 |&1:2,4,6,7,9,r|

> <MDLNUMBER>
MFCD31560885

> <IUPAC Name>
rac-(1R,2S,4R,5R,6S)-3-oxatricyclo[3.2.1.0,2,4]octane-6-carbonitrile

> <CAS>
2140262-56-0

> <Purity>
95

> <URL>
https://www.enaminestore.com/catalog/EN300-1084801

> <ROCS_ShapeQuery>
x1247relevant_x1083L0AP1_x1305L0BP1_

> <ROCS_TanimotoCombo>
0.796 

> <ROCS_ShapeTanimoto>
0.427 

> <ROCS_ColorTanimoto>
0.368 

> <ROCS_RefTversky>
0.359 

> <ROCS_RefColorTversky>
0.509 

> <ROCS_RefTverskyCombo>
0.868 

> <ROCS_FitTversky>
1.800 

> <ROCS_FitColorTversky>
0.572 

> <ROCS_FitTverskyCombo>
2.372 

> <ROCS_ColorScore>
-11.045

> <ROCS_Overlap>
1053.851

> <ROCS_Rank>
383                 

$$$$
untitled-dbase-17030_8
  -OEChem-06162310163D

 36 38  0     1  0  0  0  0  0999 V2000
  -15.5354   14.1016  -40.2338 C   0  0  0  0  0  0  0  0  0  0  0  0
  -14.0189   13.9495  -40.2669 C   0  0  0  0  0  0  0  0  0  0  0  0
   -9.1642   13.5987  -37.6942 C   0  0  0  0  0  0  0  0  0  0  0  0
  -11.1007   15.7397  -38.7602 C   0  0  0  0  0  0  0  0  0  0  0  0
  -15.9360   15.5240  -40.6208 C   0  0  0  0  0  0  0  0  0  0  0  0
   -8.4558   14.4224  -36.6287 C   0  0  0  0  0  0  0  0  0  0  0  0
  -10.3545   15.7701  -36.3293 C   0  0  0  0  0  0  0  0  0  0  0  0
  -12.6280   14.9128  -36.9737 C   0  0  0  0  0  0  0  0  0  0  0  0
  -14.1702   16.2493  -39.2169 C   0  0  0  0  0  0  0  0  0  0  0  0
  -11.1518   15.0036  -37.4020 C   0  0  1  0  0  0  0  0  0  0  0  0
  -13.3558   14.9327  -39.2709 C   0  0  2  0  0  0  0  0  0  0  0  0
  -10.6176   13.6256  -37.5105 N   0  0  0  0  0  0  0  0  0  0  0  0
  -11.9764   15.1172  -39.7516 N   0  0  0  0  0  0  0  0  0  0  0  0
  -14.8779   16.4666  -40.4348 O   0  0  0  0  0  0  0  0  0  0  0  0
   -8.9562   15.7589  -36.6233 O   0  0  0  0  0  0  0  0  0  0  0  0
  -13.4167   14.2843  -37.9851 O   0  0  0  0  0  0  0  0  0  0  0  0
  -16.0051   13.3825  -40.9127 H   0  0  0  0  0  0  0  0  0  0  0  0
  -15.8977   13.8866  -39.2217 H   0  0  0  0  0  0  0  0  0  0  0  0
  -13.7677   12.9115  -40.0431 H   0  0  0  0  0  0  0  0  0  0  0  0
  -13.6634   14.1576  -41.2813 H   0  0  0  0  0  0  0  0  0  0  0  0
   -8.9188   13.9857  -38.6909 H   0  0  0  0  0  0  0  0  0  0  0  0
   -8.8117   12.5598  -37.6687 H   0  0  0  0  0  0  0  0  0  0  0  0
  -11.4022   16.7896  -38.6424 H   0  0  0  0  0  0  0  0  0  0  0  0
  -10.0734   15.7690  -39.1490 H   0  0  0  0  0  0  0  0  0  0  0  0
  -16.2799   15.5680  -41.6693 H   0  0  0  0  0  0  0  0  0  0  0  0
  -16.7853   15.8513  -39.9997 H   0  0  0  0  0  0  0  0  0  0  0  0
   -8.6428   13.9925  -35.6395 H   0  0  0  0  0  0  0  0  0  0  0  0
   -7.3700   14.4374  -36.7829 H   0  0  0  0  0  0  0  0  0  0  0  0
  -10.6887   16.8131  -36.2414 H   0  0  0  0  0  0  0  0  0  0  0  0
  -10.4682   15.3167  -35.3382 H   0  0  0  0  0  0  0  0  0  0  0  0
  -12.7435   14.3635  -36.0320 H   0  0  0  0  0  0  0  0  0  0  0  0
  -13.0636   15.9042  -36.8097 H   0  0  0  0  0  0  0  0  0  0  0  0
  -14.9251   16.1966  -38.4245 H   0  0  0  0  0  0  0  0  0  0  0  0
  -13.5299   17.1167  -39.0145 H   0  0  0  0  0  0  0  0  0  0  0  0
  -11.0512   13.1693  -38.3104 H   0  0  0  0  0  0  0  0  0  0  0  0
  -11.9876   15.6969  -40.5939 H   0  0  0  0  0  0  0  0  0  0  0  0
  1  2  1  0  0  0  0
  1  5  1  0  0  0  0
  2 11  1  0  0  0  0
  3  6  1  0  0  0  0
  3 12  1  0  0  0  0
  4 10  1  0  0  0  0
  4 13  1  0  0  0  0
  5 14  1  0  0  0  0
  6 15  1  0  0  0  0
  7 10  1  0  0  0  0
  7 15  1  0  0  0  0
  8 10  1  0  0  0  0
  8 16  1  0  0  0  0
  9 11  1  0  0  0  0
  9 14  1  0  0  0  0
 10 12  1  0  0  0  0
 11 13  1  0  0  0  0
 11 16  1  0  0  0  0
  1 17  1  0  0  0  0
  1 18  1  0  0  0  0
  2 19  1  0  0  0  0
  2 20  1  0  0  0  0
  3 21  1  0  0  0  0
  3 22  1  0  0  0  0
  4 23  1  0  0  0  0
  4 24  1  0  0  0  0
  5 25  1  0  0  0  0
  5 26  1  0  0  0  0
  6 27  1  0  0  0  0
  6 28  1  0  0  0  0
  7 29  1  0  0  0  0
  7 30  1  0  0  0  0
  8 31  1  0  0  0  0
  8 32  1  0  0  0  0
  9 33  1  0  0  0  0
  9 34  1  0  0  0  0
 12 35  1  0  0  0  0
 13 36  1  0  0  0  0
M  END
> <id>
EN300-1280608

> <smiles>
C1COCC2(C1)NCC3(COCCN3)CO2

> <IUPAC Name>
4,8,11-trioxa-1,15-diazadispiro[5.2.5^{9}.2^{6}]hexadecane

> <CAS>
2166824-12-8

> <URL>
https://www.enaminestore.com/catalog/EN300-1280608

> <ROCS_ShapeQuery>
x1247relevant_x1083L0AP1_x1305L0BP1_

> <ROCS_TanimotoCombo>
0.796 

> <ROCS_ShapeTanimoto>
0.509 

> <ROCS_ColorTanimoto>
0.286 

> <ROCS_RefTversky>
0.433 

> <ROCS_RefColorTversky>
0.334 

> <ROCS_RefTverskyCombo>
0.766 

> <ROCS_FitTversky>
1.531 

> <ROCS_FitColorTversky>
0.669 

> <ROCS_FitTverskyCombo>
2.201 

> <ROCS_ColorScore>
-7.092

> <ROCS_Overlap>
1275.272

> <ROCS_Rank>
384                 

$$$$
untitled-dbase-19868_0
  -OEChem-06162310163D

 28 30  0     1  0  0  0  0  0999 V2000
  -13.9546   15.9216  -37.3722 C   0  0  0  0  0  0  0  0  0  0  0  0
  -12.4812   16.7975  -39.2096 C   0  0  0  0  0  0  0  0  0  0  0  0
  -11.4599   15.7253  -37.1835 C   0  0  0  0  0  0  0  0  0  0  0  0
  -12.8610   13.6716  -37.5633 C   0  0  0  0  0  0  0  0  0  0  0  0
  -11.3838   14.5499  -39.4063 C   0  0  0  0  0  0  0  0  0  0  0  0
  -12.6146   16.6109  -37.6872 C   0  0  0  0  0  0  0  0  0  0  0  0
  -14.0190   14.5515  -38.0698 C   0  0  2  0  0  0  0  0  0  0  0  0
  -12.5395   15.4314  -39.9152 C   0  0  1  0  0  0  0  0  0  0  0  0
  -11.5064   14.3463  -37.8780 C   0  0  0  0  0  0  0  0  0  0  0  0
  -13.8708   14.7525  -39.5807 C   0  0  0  0  0  0  0  0  0  0  0  0
  -10.4133   13.5095  -37.3863 N   0  0  0  0  0  0  0  0  0  0  0  0
  -14.9008   15.5009  -40.0496 F   0  0  0  0  0  0  0  0  0  0  0  0
  -13.9518   13.5564  -40.2159 F   0  0  0  0  0  0  0  0  0  0  0  0
  -14.0653   15.7956  -36.2882 H   0  0  0  0  0  0  0  0  0  0  0  0
  -14.7873   16.5532  -37.7056 H   0  0  0  0  0  0  0  0  0  0  0  0
  -13.2852   17.4459  -39.5782 H   0  0  0  0  0  0  0  0  0  0  0  0
  -11.5348   17.3002  -39.4439 H   0  0  0  0  0  0  0  0  0  0  0  0
  -10.5021   16.2243  -37.3823 H   0  0  0  0  0  0  0  0  0  0  0  0
  -11.5348   15.6095  -36.0941 H   0  0  0  0  0  0  0  0  0  0  0  0
  -12.9679   13.5110  -36.4823 H   0  0  0  0  0  0  0  0  0  0  0  0
  -12.9166   12.6818  -38.0358 H   0  0  0  0  0  0  0  0  0  0  0  0
  -11.4018   13.5826  -39.9252 H   0  0  0  0  0  0  0  0  0  0  0  0
  -10.4246   15.0229  -39.6553 H   0  0  0  0  0  0  0  0  0  0  0  0
  -12.5754   17.5867  -37.1905 H   0  0  0  0  0  0  0  0  0  0  0  0
  -14.9765   14.0674  -37.8494 H   0  0  0  0  0  0  0  0  0  0  0  0
  -12.4520   15.5688  -40.9985 H   0  0  0  0  0  0  0  0  0  0  0  0
   -9.5571   13.9658  -37.5937 H   0  0  0  0  0  0  0  0  0  0  0  0
  -10.5251   13.3999  -36.4067 H   0  0  0  0  0  0  0  0  0  0  0  0
  1  6  1  0  0  0  0
  1  7  1  0  0  0  0
  2  6  1  0  0  0  0
  2  8  1  0  0  0  0
  3  6  1  0  0  0  0
  3  9  1  0  0  0  0
  4  7  1  0  0  0  0
  4  9  1  0  0  0  0
  5  8  1  0  0  0  0
  5  9  1  0  0  0  0
  7 10  1  0  0  0  0
  8 10  1  0  0  0  0
  9 11  1  0  0  0  0
 10 12  1  0  0  0  0
 10 13  1  0  0  0  0
  1 14  1  0  0  0  0
  1 15  1  0  0  0  0
  2 16  1  0  0  0  0
  2 17  1  0  0  0  0
  3 18  1  0  0  0  0
  3 19  1  0  0  0  0
  4 20  1  0  0  0  0
  4 21  1  0  0  0  0
  5 22  1  0  0  0  0
  5 23  1  0  0  0  0
  6 24  1  0  0  0  0
  7 25  1  0  0  0  0
  8 26  1  0  0  0  0
 11 27  1  0  0  0  0
 11 28  1  0  0  0  0
M  END
> <id>
EN300-1709551

> <smiles>
Cl.NC1(CC2CC3C1)CC(C2)C3(F)F

> <MDLNUMBER>
MFCD07995960

> <IUPAC Name>
4,4-difluoroadamantan-1-amine hydrochloride

> <CAS>
1049763-69-0

> <Purity>
95

> <URL>
https://www.enaminestore.com/catalog/EN300-1709551

> <Saltdate>
Cl

> <ROCS_ShapeQuery>
x1247relevant_x1083L0AP1_x1305L0BP1_

> <ROCS_TanimotoCombo>
0.796 

> <ROCS_ShapeTanimoto>
0.453 

> <ROCS_ColorTanimoto>
0.342 

> <ROCS_RefTversky>
0.388 

> <ROCS_RefColorTversky>
0.365 

> <ROCS_RefTverskyCombo>
0.753 

> <ROCS_FitTversky>
1.584 

> <ROCS_FitColorTversky>
0.846 

> <ROCS_FitTverskyCombo>
2.430 

> <ROCS_ColorScore>
-7.734

> <ROCS_Overlap>
1142.119

> <ROCS_Rank>
385                 

$$$$
untitled-dbase-35994_0
  -OEChem-06162310163D

 28 30  0     1  0  0  0  0  0999 V2000
  -13.9546   15.9216  -37.3722 C   0  0  0  0  0  0  0  0  0  0  0  0
  -12.4812   16.7975  -39.2096 C   0  0  0  0  0  0  0  0  0  0  0  0
  -11.4599   15.7253  -37.1835 C   0  0  0  0  0  0  0  0  0  0  0  0
  -12.8610   13.6716  -37.5633 C   0  0  0  0  0  0  0  0  0  0  0  0
  -11.3838   14.5499  -39.4063 C   0  0  0  0  0  0  0  0  0  0  0  0
  -12.6146   16.6109  -37.6872 C   0  0  0  0  0  0  0  0  0  0  0  0
  -14.0190   14.5515  -38.0698 C   0  0  2  0  0  0  0  0  0  0  0  0
  -12.5395   15.4314  -39.9152 C   0  0  1  0  0  0  0  0  0  0  0  0
  -11.5064   14.3463  -37.8780 C   0  0  0  0  0  0  0  0  0  0  0  0
  -13.8708   14.7525  -39.5807 C   0  0  0  0  0  0  0  0  0  0  0  0
  -10.4133   13.5095  -37.3863 N   0  0  0  0  0  0  0  0  0  0  0  0
  -14.9008   15.5009  -40.0496 F   0  0  0  0  0  0  0  0  0  0  0  0
  -13.9518   13.5564  -40.2159 F   0  0  0  0  0  0  0  0  0  0  0  0
  -14.0653   15.7956  -36.2882 H   0  0  0  0  0  0  0  0  0  0  0  0
  -14.7873   16.5532  -37.7056 H   0  0  0  0  0  0  0  0  0  0  0  0
  -13.2852   17.4459  -39.5782 H   0  0  0  0  0  0  0  0  0  0  0  0
  -11.5348   17.3002  -39.4439 H   0  0  0  0  0  0  0  0  0  0  0  0
  -10.5021   16.2243  -37.3823 H   0  0  0  0  0  0  0  0  0  0  0  0
  -11.5348   15.6095  -36.0941 H   0  0  0  0  0  0  0  0  0  0  0  0
  -12.9679   13.5110  -36.4823 H   0  0  0  0  0  0  0  0  0  0  0  0
  -12.9166   12.6818  -38.0358 H   0  0  0  0  0  0  0  0  0  0  0  0
  -11.4018   13.5826  -39.9252 H   0  0  0  0  0  0  0  0  0  0  0  0
  -10.4246   15.0229  -39.6553 H   0  0  0  0  0  0  0  0  0  0  0  0
  -12.5754   17.5867  -37.1905 H   0  0  0  0  0  0  0  0  0  0  0  0
  -14.9765   14.0674  -37.8494 H   0  0  0  0  0  0  0  0  0  0  0  0
  -12.4520   15.5688  -40.9985 H   0  0  0  0  0  0  0  0  0  0  0  0
   -9.5571   13.9658  -37.5937 H   0  0  0  0  0  0  0  0  0  0  0  0
  -10.5251   13.3999  -36.4067 H   0  0  0  0  0  0  0  0  0  0  0  0
  1  6  1  0  0  0  0
  1  7  1  0  0  0  0
  2  6  1  0  0  0  0
  2  8  1  0  0  0  0
  3  6  1  0  0  0  0
  3  9  1  0  0  0  0
  4  7  1  0  0  0  0
  4  9  1  0  0  0  0
  5  8  1  0  0  0  0
  5  9  1  0  0  0  0
  7 10  1  0  0  0  0
  8 10  1  0  0  0  0
  9 11  1  0  0  0  0
 10 12  1  0  0  0  0
 10 13  1  0  0  0  0
  1 14  1  0  0  0  0
  1 15  1  0  0  0  0
  2 16  1  0  0  0  0
  2 17  1  0  0  0  0
  3 18  1  0  0  0  0
  3 19  1  0  0  0  0
  4 20  1  0  0  0  0
  4 21  1  0  0  0  0
  5 22  1  0  0  0  0
  5 23  1  0  0  0  0
  6 24  1  0  0  0  0
  7 25  1  0  0  0  0
  8 26  1  0  0  0  0
 11 27  1  0  0  0  0
 11 28  1  0  0  0  0
M  END
> <id>
EN300-1708691

> <smiles>
NC1(CC2CC3C1)CC(C2)C3(F)F

> <MDLNUMBER>
MFCD02720745

> <IUPAC Name>
4,4-difluoroadamantan-1-amine

> <CAS>
380191-17-3

> <URL>
https://www.enaminestore.com/catalog/EN300-1708691

> <ROCS_ShapeQuery>
x1247relevant_x1083L0AP1_x1305L0BP1_

> <ROCS_TanimotoCombo>
0.796 

> <ROCS_ShapeTanimoto>
0.453 

> <ROCS_ColorTanimoto>
0.342 

> <ROCS_RefTversky>
0.388 

> <ROCS_RefColorTversky>
0.365 

> <ROCS_RefTverskyCombo>
0.753 

> <ROCS_FitTversky>
1.584 

> <ROCS_FitColorTversky>
0.846 

> <ROCS_FitTverskyCombo>
2.430 

> <ROCS_ColorScore>
-7.734

> <ROCS_Overlap>
1142.119

> <ROCS_Rank>
386                 

$$$$
untitled-dbase-35629_4
  -OEChem-06162310163D

 37 39  0     1  0  0  0  0  0999 V2000
  -14.4703   15.8098  -37.9355 C   0  0  0  0  0  0  0  0  0  0  0  0
  -13.9170   16.6163  -39.1053 C   0  0  0  0  0  0  0  0  0  0  0  0
  -12.3965   14.6913  -36.9756 C   0  0  0  0  0  0  0  0  0  0  0  0
  -11.4488   16.1249  -38.8438 C   0  0  0  0  0  0  0  0  0  0  0  0
   -8.9745   13.9391  -36.1187 C   0  0  0  0  0  0  0  0  0  0  0  0
   -9.7759   15.1495  -35.6716 C   0  0  0  0  0  0  0  0  0  0  0  0
  -13.6203   14.5312  -37.9119 C   0  0  2  0  0  0  0  0  0  0  0  0
  -12.7427   15.7742  -39.6181 C   0  0  1  0  0  0  0  0  0  0  0  0
  -10.2503   13.8970  -38.1916 C   0  0  1  0  0  0  0  0  0  0  0  0
  -11.0803   15.1371  -37.6970 C   0  0  0  0  0  0  0  0  0  0  0  0
   -9.0800   14.2333  -39.1298 C   0  0  0  0  0  0  0  0  0  0  0  0
  -14.1202   13.8336  -40.2041 C   0  0  0  0  0  0  0  0  0  0  0  0
   -9.7551   13.1179  -37.0400 N   0  0  0  0  0  0  0  0  0  0  0  0
  -13.1282   14.3925  -39.2916 N   0  0  0  0  0  0  0  0  0  0  0  0
  -10.2478   15.8962  -36.7916 O   0  0  0  0  0  0  0  0  0  0  0  0
  -14.4394   16.3606  -36.9905 H   0  0  0  0  0  0  0  0  0  0  0  0
  -15.5220   15.5635  -38.1276 H   0  0  0  0  0  0  0  0  0  0  0  0
  -14.6864   16.7092  -39.8796 H   0  0  0  0  0  0  0  0  0  0  0  0
  -13.6231   17.6283  -38.8180 H   0  0  0  0  0  0  0  0  0  0  0  0
  -12.6495   15.4198  -36.1939 H   0  0  0  0  0  0  0  0  0  0  0  0
  -12.2472   13.7298  -36.4721 H   0  0  0  0  0  0  0  0  0  0  0  0
  -10.6380   16.1524  -39.5865 H   0  0  0  0  0  0  0  0  0  0  0  0
  -11.5440   17.1542  -38.4741 H   0  0  0  0  0  0  0  0  0  0  0  0
   -8.0460   14.2610  -36.6074 H   0  0  0  0  0  0  0  0  0  0  0  0
   -8.6822   13.3331  -35.2495 H   0  0  0  0  0  0  0  0  0  0  0  0
  -10.6554   14.8168  -35.1110 H   0  0  0  0  0  0  0  0  0  0  0  0
   -9.2019   15.7920  -34.9977 H   0  0  0  0  0  0  0  0  0  0  0  0
  -14.2101   13.6736  -37.5725 H   0  0  0  0  0  0  0  0  0  0  0  0
  -12.5742   15.9422  -40.6825 H   0  0  0  0  0  0  0  0  0  0  0  0
  -10.9397   13.2475  -38.7625 H   0  0  0  0  0  0  0  0  0  0  0  0
   -8.3700   14.8739  -38.6122 H   0  0  0  0  0  0  0  0  0  0  0  0
   -9.4551   14.7493  -40.0103 H   0  0  0  0  0  0  0  0  0  0  0  0
   -8.5818   13.3162  -39.4347 H   0  0  0  0  0  0  0  0  0  0  0  0
  -13.6891   13.7574  -41.2132 H   0  0  0  0  0  0  0  0  0  0  0  0
  -14.4164   12.8332  -39.8555 H   0  0  0  0  0  0  0  0  0  0  0  0
  -15.0034   14.4887  -40.2314 H   0  0  0  0  0  0  0  0  0  0  0  0
   -9.1752   12.3406  -37.3796 H   0  0  0  0  0  0  0  0  0  0  0  0
  1  2  1  0  0  0  0
  1  7  1  0  0  0  0
  2  8  1  0  0  0  0
  3  7  1  0  0  0  0
  3 10  1  0  0  0  0
  4  8  1  0  0  0  0
  4 10  1  0  0  0  0
  5  6  1  0  0  0  0
  5 13  1  0  0  0  0
  6 15  1  0  0  0  0
  7 14  1  0  0  0  0
  8 14  1  0  0  0  0
  9 10  1  0  0  0  0
  9 11  1  0  0  0  0
  9 13  1  0  0  0  0
 10 15  1  0  0  0  0
 12 14  1  0  0  0  0
  1 16  1  0  0  0  0
  1 17  1  0  0  0  0
  2 18  1  0  0  0  0
  2 19  1  0  0  0  0
  3 20  1  0  0  0  0
  3 21  1  0  0  0  0
  4 22  1  0  0  0  0
  4 23  1  0  0  0  0
  5 24  1  0  0  0  0
  5 25  1  0  0  0  0
  6 26  1  0  0  0  0
  6 27  1  0  0  0  0
  7 28  1  0  0  0  0
  8 29  1  0  0  0  0
  9 30  1  0  0  0  0
 11 31  1  0  0  0  0
 11 32  1  0  0  0  0
 11 33  1  0  0  0  0
 12 34  1  0  0  0  0
 12 35  1  0  0  0  0
 12 36  1  0  0  0  0
 13 37  1  0  0  0  0
M  END
> <id>
EN300-1643454

> <smiles>
CC1NCCOC21CC3CCC(C2)N3C

> <IUPAC Name>
3',8-dimethyl-8-azaspiro[bicyclo[3.2.1]octane-3,2'-morpholine]

> <CAS>
2171779-34-1

> <URL>
https://www.enaminestore.com/catalog/EN300-1643454

> <ROCS_ShapeQuery>
x1247relevant_x1083L0AP1_x1305L0BP1_

> <ROCS_TanimotoCombo>
0.796 

> <ROCS_ShapeTanimoto>
0.506 

> <ROCS_ColorTanimoto>
0.290 

> <ROCS_RefTversky>
0.426 

> <ROCS_RefColorTversky>
0.344 

> <ROCS_RefTverskyCombo>
0.770 

> <ROCS_FitTversky>
1.591 

> <ROCS_FitColorTversky>
0.646 

> <ROCS_FitTverskyCombo>
2.237 

> <ROCS_ColorScore>
-7.327

> <ROCS_Overlap>
1254.293

> <ROCS_Rank>
387                 

$$$$
untitled-dbase-42420_95
  -OEChem-06162310163D

 37 38  0     1  0  0  0  0  0999 V2000
   -9.7676   14.9437  -37.4419 C   0  0  0  0  0  0  0  0  0  0  0  0
  -13.2034   16.2645  -37.2807 C   0  0  0  0  0  0  0  0  0  0  0  0
  -12.2135   14.9166  -39.7995 C   0  0  0  0  0  0  0  0  0  0  0  0
  -11.8556   16.0363  -36.6059 C   0  0  0  0  0  0  0  0  0  0  0  0
  -13.4884   14.9686  -38.0535 C   0  0  2  0  0  0  0  0  0  0  0  0
  -12.0818   14.3906  -38.3569 C   0  0  2  0  0  0  0  0  0  0  0  0
  -13.7510   15.0144  -39.5916 C   0  0  2  0  0  0  0  0  0  0  0  0
   -9.5884   12.7629  -35.6042 C   0  0  0  0  0  0  0  0  0  0  0  0
   -8.4076   11.5416  -37.4544 C   0  0  0  0  0  0  0  0  0  0  0  0
   -7.4025   13.6346  -36.4967 C   0  0  0  0  0  0  0  0  0  0  0  0
  -14.5378   13.8185  -40.1171 C   0  0  0  0  0  0  0  0  0  0  0  0
   -8.7022   12.9085  -36.8405 C   0  0  0  0  0  0  0  0  0  0  0  0
  -11.1402   15.1200  -37.4870 N   0  0  0  0  0  0  0  0  0  0  0  0
   -8.9669   15.8131  -37.1064 O   0  0  0  0  0  0  0  0  0  0  0  0
  -14.3604   16.2305  -40.0741 O   0  0  0  0  0  0  0  0  0  0  0  0
   -9.4091   13.6778  -37.8196 O   0  0  0  0  0  0  0  0  0  0  0  0
  -14.1404   12.6944  -39.4991 F   0  0  0  0  0  0  0  0  0  0  0  0
  -15.8504   13.9930  -39.8938 F   0  0  0  0  0  0  0  0  0  0  0  0
  -14.3397   13.6778  -41.4379 F   0  0  0  0  0  0  0  0  0  0  0  0
  -13.9710   16.4025  -36.5164 H   0  0  0  0  0  0  0  0  0  0  0  0
  -13.2002   17.1387  -37.9292 H   0  0  0  0  0  0  0  0  0  0  0  0
  -11.7126   15.8635  -39.9994 H   0  0  0  0  0  0  0  0  0  0  0  0
  -11.8999   14.1917  -40.5524 H   0  0  0  0  0  0  0  0  0  0  0  0
  -11.2706   16.9582  -36.5437 H   0  0  0  0  0  0  0  0  0  0  0  0
  -11.9493   15.6150  -35.6021 H   0  0  0  0  0  0  0  0  0  0  0  0
  -14.1473   14.2912  -37.5117 H   0  0  0  0  0  0  0  0  0  0  0  0
  -12.0036   13.3064  -38.2563 H   0  0  0  0  0  0  0  0  0  0  0  0
   -9.8022   13.7419  -35.1606 H   0  0  0  0  0  0  0  0  0  0  0  0
  -10.5386   12.2749  -35.8442 H   0  0  0  0  0  0  0  0  0  0  0  0
   -9.0839   12.1755  -34.8285 H   0  0  0  0  0  0  0  0  0  0  0  0
   -7.7720   11.6413  -38.3418 H   0  0  0  0  0  0  0  0  0  0  0  0
   -9.3316   11.0568  -37.7895 H   0  0  0  0  0  0  0  0  0  0  0  0
   -7.9067   10.8782  -36.7420 H   0  0  0  0  0  0  0  0  0  0  0  0
   -6.7667   13.7392  -37.3833 H   0  0  0  0  0  0  0  0  0  0  0  0
   -7.5937   14.6325  -36.0890 H   0  0  0  0  0  0  0  0  0  0  0  0
   -6.8199   13.0648  -35.7639 H   0  0  0  0  0  0  0  0  0  0  0  0
  -15.3002   16.1426  -39.8761 H   0  0  0  0  0  0  0  0  0  0  0  0
  1 13  1  0  0  0  0
  1 14  2  0  0  0  0
  1 16  1  0  0  0  0
  2  4  1  0  0  0  0
  2  5  1  1  0  0  0
  3  6  1  1  0  0  0
  3  7  1  0  0  0  0
  4 13  1  0  0  0  0
  5  6  1  0  0  0  0
  5  7  1  0  0  0  0
  6 13  1  0  0  0  0
  7 11  1  0  0  0  0
  7 15  1  1  0  0  0
  8 12  1  0  0  0  0
  9 12  1  0  0  0  0
 10 12  1  0  0  0  0
 11 17  1  0  0  0  0
 11 18  1  0  0  0  0
 11 19  1  0  0  0  0
 12 16  1  0  0  0  0
  2 20  1  0  0  0  0
  2 21  1  0  0  0  0
  3 22  1  0  0  0  0
  3 23  1  0  0  0  0
  4 24  1  0  0  0  0
  4 25  1  0  0  0  0
  5 26  1  0  0  0  0
  6 27  1  0  0  0  0
  8 28  1  0  0  0  0
  8 29  1  0  0  0  0
  8 30  1  0  0  0  0
  9 31  1  0  0  0  0
  9 32  1  0  0  0  0
  9 33  1  0  0  0  0
 10 34  1  0  0  0  0
 10 35  1  0  0  0  0
 10 36  1  0  0  0  0
 15 37  1  0  0  0  0
M  END
> <id>
EN300-27101461

> <smiles>
CC(C)(C)OC(=O)N1CC[C@@H]2[C@H]1C[C@@]2(O)C(F)(F)F |&1:10,11,13,r|

> <IUPAC Name>
rac-tert-butyl (1R,5R,6S)-6-hydroxy-6-(trifluoromethyl)-2-azabicyclo[3.2.0]heptane-2-carboxylate

> <CAS>
2580101-08-0

> <URL>
https://www.enaminestore.com/catalog/EN300-27101461

> <ROCS_ShapeQuery>
x1247relevant_x1083L0AP1_x1305L0BP1_

> <ROCS_TanimotoCombo>
0.795 

> <ROCS_ShapeTanimoto>
0.468 

> <ROCS_ColorTanimoto>
0.328 

> <ROCS_RefTversky>
0.423 

> <ROCS_RefColorTversky>
0.363 

> <ROCS_RefTverskyCombo>
0.786 

> <ROCS_FitTversky>
1.292 

> <ROCS_FitColorTversky>
0.770 

> <ROCS_FitTverskyCombo>
2.062 

> <ROCS_ColorScore>
-7.706

> <ROCS_Overlap>
1249.666

> <ROCS_Rank>
388                 

$$$$
untitled-dbase-42858_76
  -OEChem-06162310163D

 32 33  0     1  0  0  0  0  0999 V2000
  -10.3417   16.0800  -36.8914 C   0  0  0  0  0  0  0  0  0  0  0  0
  -11.1881   14.4608  -38.6631 C   0  0  0  0  0  0  0  0  0  0  0  0
  -13.6059   15.1966  -37.3321 C   0  0  0  0  0  0  0  0  0  0  0  0
  -12.6318   16.2018  -37.9477 C   0  0  2  0  0  0  0  0  0  0  0  0
  -12.5934   14.4618  -39.2805 C   0  0  2  0  0  0  0  0  0  0  0  0
  -12.8695   15.9543  -39.4288 C   0  0  1  0  0  0  0  0  0  0  0  0
   -9.1106   16.1530  -34.3143 C   0  0  0  0  0  0  0  0  0  0  0  0
  -11.3386   16.9548  -33.4762 C   0  0  0  0  0  0  0  0  0  0  0  0
  -11.1412   14.6810  -34.5247 C   0  0  0  0  0  0  0  0  0  0  0  0
  -10.6223   16.1182  -34.5341 C   0  0  0  0  0  0  0  0  0  0  0  0
  -11.2935   15.6249  -37.7781 N   0  0  0  0  0  0  0  0  0  0  0  0
   -9.1305   15.9478  -37.0477 O   0  0  0  0  0  0  0  0  0  0  0  0
  -13.5129   14.0544  -38.2275 O   0  0  0  0  0  0  0  0  0  0  0  0
  -14.1894   16.2157  -39.8544 O   0  0  0  0  0  0  0  0  0  0  0  0
  -10.9105   16.6985  -35.8109 O   0  0  0  0  0  0  0  0  0  0  0  0
  -10.9688   13.5706  -38.0671 H   0  0  0  0  0  0  0  0  0  0  0  0
  -10.3961   14.6464  -39.3944 H   0  0  0  0  0  0  0  0  0  0  0  0
  -13.3388   14.8891  -36.3164 H   0  0  0  0  0  0  0  0  0  0  0  0
  -14.6407   15.5534  -37.3400 H   0  0  0  0  0  0  0  0  0  0  0  0
  -12.7306   17.2211  -37.5715 H   0  0  0  0  0  0  0  0  0  0  0  0
  -12.7287   13.8422  -40.1683 H   0  0  0  0  0  0  0  0  0  0  0  0
  -12.1611   16.4712  -40.0851 H   0  0  0  0  0  0  0  0  0  0  0  0
   -8.5927   15.5537  -35.0717 H   0  0  0  0  0  0  0  0  0  0  0  0
   -8.7207   17.1754  -34.3537 H   0  0  0  0  0  0  0  0  0  0  0  0
   -8.8465   15.7191  -33.3431 H   0  0  0  0  0  0  0  0  0  0  0  0
  -12.4235   16.9326  -33.6301 H   0  0  0  0  0  0  0  0  0  0  0  0
  -11.0390   18.0070  -33.5420 H   0  0  0  0  0  0  0  0  0  0  0  0
  -11.1245   16.5959  -32.4643 H   0  0  0  0  0  0  0  0  0  0  0  0
  -12.2255   14.6557  -34.6823 H   0  0  0  0  0  0  0  0  0  0  0  0
  -10.6647   14.0750  -35.3021 H   0  0  0  0  0  0  0  0  0  0  0  0
  -10.9588   14.2073  -33.5533 H   0  0  0  0  0  0  0  0  0  0  0  0
  -14.2294   16.0262  -40.8087 H   0  0  0  0  0  0  0  0  0  0  0  0
  1 11  1  0  0  0  0
  1 12  2  0  0  0  0
  1 15  1  0  0  0  0
  2  5  1  6  0  0  0
  2 11  1  0  0  0  0
  3  4  1  6  0  0  0
  3 13  1  0  0  0  0
  4  6  1  0  0  0  0
  4 11  1  0  0  0  0
  5  6  1  0  0  0  0
  5 13  1  0  0  0  0
  6 14  1  1  0  0  0
  7 10  1  0  0  0  0
  8 10  1  0  0  0  0
  9 10  1  0  0  0  0
 10 15  1  0  0  0  0
  2 16  1  0  0  0  0
  2 17  1  0  0  0  0
  3 18  1  0  0  0  0
  3 19  1  0  0  0  0
  4 20  1  0  0  0  0
  5 21  1  0  0  0  0
  6 22  1  0  0  0  0
  7 23  1  0  0  0  0
  7 24  1  0  0  0  0
  7 25  1  0  0  0  0
  8 26  1  0  0  0  0
  8 27  1  0  0  0  0
  8 28  1  0  0  0  0
  9 29  1  0  0  0  0
  9 30  1  0  0  0  0
  9 31  1  0  0  0  0
 14 32  1  0  0  0  0
M  END
> <id>
EN300-27718337

> <smiles>
CC(C)(C)OC(=O)N1C[C@H]2OC[C@@H]1[C@@H]2O

> <IUPAC Name>
tert-butyl (1R,4R,7S)-7-hydroxy-2-oxa-5-azabicyclo[2.2.1]heptane-5-carboxylate

> <CAS>
2580102-62-9

> <URL>
https://www.enaminestore.com/catalog/EN300-27718337

> <ROCS_ShapeQuery>
x1247relevant_x1083L0AP1_x1305L0BP1_

> <ROCS_TanimotoCombo>
0.795 

> <ROCS_ShapeTanimoto>
0.398 

> <ROCS_ColorTanimoto>
0.397 

> <ROCS_RefTversky>
0.362 

> <ROCS_RefColorTversky>
0.443 

> <ROCS_RefTverskyCombo>
0.806 

> <ROCS_FitTversky>
1.336 

> <ROCS_FitColorTversky>
0.791 

> <ROCS_FitTverskyCombo>
2.127 

> <ROCS_ColorScore>
-9.457

> <ROCS_Overlap>
1066.665

> <ROCS_Rank>
389                 

$$$$
untitled-dbase-31645_76
  -OEChem-06162310163D

 32 33  0     1  0  0  0  0  0999 V2000
  -10.3417   16.0800  -36.8910 C   0  0  0  0  0  0  0  0  0  0  0  0
  -11.1881   14.4616  -38.6634 C   0  0  0  0  0  0  0  0  0  0  0  0
  -13.6060   15.1970  -37.3317 C   0  0  0  0  0  0  0  0  0  0  0  0
  -12.6320   16.2021  -37.9472 C   0  0  2  0  0  0  0  0  0  0  0  0
  -12.5936   14.4623  -39.2802 C   0  0  2  0  0  0  0  0  0  0  0  0
  -12.8697   15.9547  -39.4284 C   0  0  1  0  0  0  0  0  0  0  0  0
   -9.1108   16.1530  -34.3134 C   0  0  0  0  0  0  0  0  0  0  0  0
  -11.3389   16.9547  -33.4756 C   0  0  0  0  0  0  0  0  0  0  0  0
  -11.1413   14.6809  -34.5239 C   0  0  0  0  0  0  0  0  0  0  0  0
  -10.6224   16.1180  -34.5334 C   0  0  0  0  0  0  0  0  0  0  0  0
  -11.2935   15.6254  -37.7779 N   0  0  0  0  0  0  0  0  0  0  0  0
   -9.1304   15.9479  -37.0473 O   0  0  0  0  0  0  0  0  0  0  0  0
  -13.5126   14.0546  -38.2269 O   0  0  0  0  0  0  0  0  0  0  0  0
  -14.1896   16.2161  -39.8541 O   0  0  0  0  0  0  0  0  0  0  0  0
  -10.9106   16.6984  -35.8104 O   0  0  0  0  0  0  0  0  0  0  0  0
  -10.9680   13.5709  -38.0680 H   0  0  0  0  0  0  0  0  0  0  0  0
  -10.3965   14.6480  -39.3951 H   0  0  0  0  0  0  0  0  0  0  0  0
  -13.3387   14.8894  -36.3159 H   0  0  0  0  0  0  0  0  0  0  0  0
  -14.6408   15.5537  -37.3394 H   0  0  0  0  0  0  0  0  0  0  0  0
  -12.7308   17.2216  -37.5711 H   0  0  0  0  0  0  0  0  0  0  0  0
  -12.7290   13.8421  -40.1677 H   0  0  0  0  0  0  0  0  0  0  0  0
  -12.1613   16.4724  -40.0843 H   0  0  0  0  0  0  0  0  0  0  0  0
   -8.5928   15.5536  -35.0707 H   0  0  0  0  0  0  0  0  0  0  0  0
   -8.7209   17.1754  -34.3527 H   0  0  0  0  0  0  0  0  0  0  0  0
   -8.8469   15.7191  -33.3421 H   0  0  0  0  0  0  0  0  0  0  0  0
  -12.4238   16.9324  -33.6297 H   0  0  0  0  0  0  0  0  0  0  0  0
  -11.0393   18.0069  -33.5414 H   0  0  0  0  0  0  0  0  0  0  0  0
  -11.1250   16.5959  -32.4637 H   0  0  0  0  0  0  0  0  0  0  0  0
  -12.2256   14.6555  -34.6817 H   0  0  0  0  0  0  0  0  0  0  0  0
  -10.6647   14.0749  -35.3013 H   0  0  0  0  0  0  0  0  0  0  0  0
  -10.9591   14.2072  -33.5525 H   0  0  0  0  0  0  0  0  0  0  0  0
  -14.2296   16.0266  -40.8085 H   0  0  0  0  0  0  0  0  0  0  0  0
  1 11  1  0  0  0  0
  1 12  2  0  0  0  0
  1 15  1  0  0  0  0
  2  5  1  6  0  0  0
  2 11  1  0  0  0  0
  3  4  1  0  0  0  0
  3 13  1  0  0  0  0
  4  6  1  0  0  0  0
  4 11  1  0  0  0  0
  5  6  1  0  0  0  0
  5 13  1  0  0  0  0
  6 14  1  1  0  0  0
  7 10  1  0  0  0  0
  8 10  1  0  0  0  0
  9 10  1  0  0  0  0
 10 15  1  0  0  0  0
  2 16  1  0  0  0  0
  2 17  1  0  0  0  0
  3 18  1  0  0  0  0
  3 19  1  0  0  0  0
  4 20  1  0  0  0  0
  5 21  1  0  0  0  0
  6 22  1  0  0  0  0
  7 23  1  0  0  0  0
  7 24  1  0  0  0  0
  7 25  1  0  0  0  0
  8 26  1  0  0  0  0
  8 27  1  0  0  0  0
  8 28  1  0  0  0  0
  9 29  1  0  0  0  0
  9 30  1  0  0  0  0
  9 31  1  0  0  0  0
 14 32  1  0  0  0  0
M  END
> <id>
EN300-26666024

> <smiles>
CC(C)(C)OC(=O)N1C[C@H]2OCC1[C@@H]2O

> <IUPAC Name>
tert-butyl (1R,7S)-7-hydroxy-2-oxa-5-azabicyclo[2.2.1]heptane-5-carboxylate

> <CAS>
2413864-22-7

> <URL>
https://www.enaminestore.com/catalog/EN300-26666024

> <ROCS_ShapeQuery>
x1247relevant_x1083L0AP1_x1305L0BP1_

> <ROCS_TanimotoCombo>
0.795 

> <ROCS_ShapeTanimoto>
0.398 

> <ROCS_ColorTanimoto>
0.397 

> <ROCS_RefTversky>
0.362 

> <ROCS_RefColorTversky>
0.443 

> <ROCS_RefTverskyCombo>
0.806 

> <ROCS_FitTversky>
1.336 

> <ROCS_FitColorTversky>
0.791 

> <ROCS_FitTverskyCombo>
2.127 

> <ROCS_ColorScore>
-9.458

> <ROCS_Overlap>
1066.608

> <ROCS_Rank>
390                 

$$$$
untitled-dbase-42431_0
  -OEChem-06162310163D

 19 20  0     0  0  0  0  0  0999 V2000
  -12.2017   14.2558  -38.0535 C   0  0  0  0  0  0  0  0  0  0  0  0
  -13.4137   15.6424  -39.0499 C   0  0  0  0  0  0  0  0  0  0  0  0
  -11.5247   13.0970  -37.4180 C   0  0  0  0  0  0  0  0  0  0  0  0
  -10.4751   15.8431  -37.2290 C   0  0  0  0  0  0  0  0  0  0  0  0
   -9.9988   14.6682  -36.3661 C   0  0  0  0  0  0  0  0  0  0  0  0
  -13.3000   14.3050  -38.7744 N   0  0  0  0  0  0  0  0  0  0  0  0
  -12.4569   16.4281  -38.5451 N   0  0  0  0  0  0  0  0  0  0  0  0
  -11.7085   15.5198  -37.9086 N   0  0  0  0  0  0  0  0  0  0  0  0
  -10.1203   13.3953  -37.0913 N   0  0  0  0  0  0  0  0  0  0  0  0
  -14.4665   16.0600  -39.7994 N   0  0  0  0  0  0  0  0  0  0  0  0
  -12.0665   12.8153  -36.5075 H   0  0  0  0  0  0  0  0  0  0  0  0
  -11.5524   12.2382  -38.0969 H   0  0  0  0  0  0  0  0  0  0  0  0
  -10.6468   16.7323  -36.6137 H   0  0  0  0  0  0  0  0  0  0  0  0
   -9.7403   16.0791  -38.0068 H   0  0  0  0  0  0  0  0  0  0  0  0
   -8.9531   14.8294  -36.0827 H   0  0  0  0  0  0  0  0  0  0  0  0
  -10.5790   14.6192  -35.4360 H   0  0  0  0  0  0  0  0  0  0  0  0
   -9.7437   12.6402  -36.5191 H   0  0  0  0  0  0  0  0  0  0  0  0
  -14.6282   17.0541  -39.9972 H   0  0  0  0  0  0  0  0  0  0  0  0
  -15.1937   15.4096  -40.1185 H   0  0  0  0  0  0  0  0  0  0  0  0
  1  3  1  0  0  0  0
  1  6  2  0  0  0  0
  1  8  1  0  0  0  0
  2  6  1  0  0  0  0
  2  7  2  0  0  0  0
  2 10  1  0  0  0  0
  3  9  1  0  0  0  0
  4  5  1  0  0  0  0
  4  8  1  0  0  0  0
  5  9  1  0  0  0  0
  7  8  1  0  0  0  0
  3 11  1  0  0  0  0
  3 12  1  0  0  0  0
  4 13  1  0  0  0  0
  4 14  1  0  0  0  0
  5 15  1  0  0  0  0
  5 16  1  0  0  0  0
  9 17  1  0  0  0  0
 10 18  1  0  0  0  0
 10 19  1  0  0  0  0
M  END
> <id>
EN300-7064163

> <smiles>
NC=1N=C2CNCCN2N1

> <MDLNUMBER>
MFCD26520946

> <IUPAC Name>
5H,6H,7H,8H-[1,2,4]triazolo[1,5-a]pyrazin-2-amine

> <CAS>
1554483-44-1

> <Purity>
95

> <URL>
https://www.enaminestore.com/catalog/EN300-7064163

> <ROCS_ShapeQuery>
x1247relevant_x1083L0AP1_x1305L0BP1_

> <ROCS_TanimotoCombo>
0.795 

> <ROCS_ShapeTanimoto>
0.419 

> <ROCS_ColorTanimoto>
0.376 

> <ROCS_RefTversky>
0.355 

> <ROCS_RefColorTversky>
0.386 

> <ROCS_RefTverskyCombo>
0.741 

> <ROCS_FitTversky>
1.763 

> <ROCS_FitColorTversky>
0.935 

> <ROCS_FitTverskyCombo>
2.698 

> <ROCS_ColorScore>
-8.171

> <ROCS_Overlap>
1041.109

> <ROCS_Rank>
391                 

$$$$
untitled-dbase-36942_27
  -OEChem-06162310163D

 38 39  0     1  0  0  0  0  0999 V2000
  -12.2549   16.1903  -39.6863 C   0  0  0  0  0  0  0  0  0  0  0  0
  -10.6539   14.3190  -36.7280 C   0  0  0  0  0  0  0  0  0  0  0  0
  -12.1284   16.8481  -38.3117 C   0  0  0  0  0  0  0  0  0  0  0  0
  -14.0094   15.4598  -37.3415 C   0  0  0  0  0  0  0  0  0  0  0  0
  -13.9495   14.1796  -38.1965 C   0  0  0  0  0  0  0  0  0  0  0  0
  -11.9784   14.6789  -39.7762 C   0  0  1  0  0  0  0  0  0  0  0  0
  -12.5488   15.8957  -37.1829 C   0  0  1  0  0  0  0  0  0  0  0  0
  -12.4573   13.9637  -38.4918 C   0  0  1  0  0  0  0  0  0  0  0  0
  -12.5824   14.0722  -41.0393 C   0  0  0  0  0  0  0  0  0  0  0  0
   -7.8040   14.2626  -36.5200 C   0  0  0  0  0  0  0  0  0  0  0  0
   -7.8590   12.9388  -38.6539 C   0  0  0  0  0  0  0  0  0  0  0  0
   -8.7356   15.2922  -38.6192 C   0  0  0  0  0  0  0  0  0  0  0  0
   -8.5675   14.0022  -37.8177 C   0  0  0  0  0  0  0  0  0  0  0  0
  -11.8294   14.6517  -37.3721 N   0  0  0  0  0  0  0  0  0  0  0  0
  -12.4690   16.8752  -40.6874 O   0  0  0  0  0  0  0  0  0  0  0  0
  -10.3462   14.7126  -35.6053 O   0  0  0  0  0  0  0  0  0  0  0  0
   -9.8665   13.4975  -37.4886 O   0  0  0  0  0  0  0  0  0  0  0  0
  -11.0832   17.1515  -38.1843 H   0  0  0  0  0  0  0  0  0  0  0  0
  -12.7541   17.7472  -38.2970 H   0  0  0  0  0  0  0  0  0  0  0  0
  -14.6363   16.2279  -37.8063 H   0  0  0  0  0  0  0  0  0  0  0  0
  -14.4438   15.2208  -36.3636 H   0  0  0  0  0  0  0  0  0  0  0  0
  -14.3388   13.3396  -37.6085 H   0  0  0  0  0  0  0  0  0  0  0  0
  -14.5715   14.2673  -39.0906 H   0  0  0  0  0  0  0  0  0  0  0  0
  -10.8869   14.5730  -39.8442 H   0  0  0  0  0  0  0  0  0  0  0  0
  -12.3460   16.3419  -36.2045 H   0  0  0  0  0  0  0  0  0  0  0  0
  -12.1930   12.9020  -38.5164 H   0  0  0  0  0  0  0  0  0  0  0  0
  -13.6677   14.1584  -41.0092 H   0  0  0  0  0  0  0  0  0  0  0  0
  -12.3111   13.0198  -41.1109 H   0  0  0  0  0  0  0  0  0  0  0  0
  -12.2081   14.5967  -41.9176 H   0  0  0  0  0  0  0  0  0  0  0  0
   -8.3093   15.0253  -35.9168 H   0  0  0  0  0  0  0  0  0  0  0  0
   -7.7071   13.3523  -35.9194 H   0  0  0  0  0  0  0  0  0  0  0  0
   -6.7995   14.6485  -36.7280 H   0  0  0  0  0  0  0  0  0  0  0  0
   -8.4035   12.7488  -39.5860 H   0  0  0  0  0  0  0  0  0  0  0  0
   -7.8204   11.9831  -38.1187 H   0  0  0  0  0  0  0  0  0  0  0  0
   -6.8360   13.2373  -38.9047 H   0  0  0  0  0  0  0  0  0  0  0  0
   -9.2833   15.1057  -39.5500 H   0  0  0  0  0  0  0  0  0  0  0  0
   -9.2748   16.0547  -38.0478 H   0  0  0  0  0  0  0  0  0  0  0  0
   -7.7607   15.6998  -38.9103 H   0  0  0  0  0  0  0  0  0  0  0  0
  1  3  1  0  0  0  0
  1  6  1  0  0  0  0
  1 15  2  0  0  0  0
  2 14  1  0  0  0  0
  2 16  2  0  0  0  0
  2 17  1  0  0  0  0
  3  7  1  0  0  0  0
  4  5  1  0  0  0  0
  4  7  1  0  0  0  0
  5  8  1  0  0  0  0
  6  8  1  0  0  0  0
  6  9  1  0  0  0  0
  7 14  1  0  0  0  0
  8 14  1  0  0  0  0
 10 13  1  0  0  0  0
 11 13  1  0  0  0  0
 12 13  1  0  0  0  0
 13 17  1  0  0  0  0
  3 18  1  0  0  0  0
  3 19  1  0  0  0  0
  4 20  1  0  0  0  0
  4 21  1  0  0  0  0
  5 22  1  0  0  0  0
  5 23  1  0  0  0  0
  6 24  1  0  0  0  0
  7 25  1  0  0  0  0
  8 26  1  0  0  0  0
  9 27  1  0  0  0  0
  9 28  1  0  0  0  0
  9 29  1  0  0  0  0
 10 30  1  0  0  0  0
 10 31  1  0  0  0  0
 10 32  1  0  0  0  0
 11 33  1  0  0  0  0
 11 34  1  0  0  0  0
 11 35  1  0  0  0  0
 12 36  1  0  0  0  0
 12 37  1  0  0  0  0
 12 38  1  0  0  0  0
M  END
> <id>
EN300-332445

> <smiles>
CC1C2CCC(CC1=O)N2C(=O)OC(C)(C)C

> <MDLNUMBER>
MFCD29059018

> <IUPAC Name>
tert-butyl 2-methyl-3-oxo-8-azabicyclo[3.2.1]octane-8-carboxylate

> <CAS>
1956335-05-9

> <Purity>
95

> <URL>
https://www.enaminestore.com/catalog/EN300-332445

> <ROCS_ShapeQuery>
x1247relevant_x1083L0AP1_x1305L0BP1_

> <ROCS_TanimotoCombo>
0.795 

> <ROCS_ShapeTanimoto>
0.476 

> <ROCS_ColorTanimoto>
0.319 

> <ROCS_RefTversky>
0.418 

> <ROCS_RefColorTversky>
0.350 

> <ROCS_RefTverskyCombo>
0.768 

> <ROCS_FitTversky>
1.417 

> <ROCS_FitColorTversky>
0.782 

> <ROCS_FitTverskyCombo>
2.199 

> <ROCS_ColorScore>
-7.423

> <ROCS_Overlap>
1231.334

> <ROCS_Rank>
392                 

$$$$
untitled-dbase-43793_7
  -OEChem-06162310163D

 44 47  0     1  0  0  0  0  0999 V2000
   -9.1401   14.2180  -36.9507 C   0  0  0  0  0  0  0  0  0  0  0  0
  -13.4618   14.8308  -36.4931 C   0  0  0  0  0  0  0  0  0  0  0  0
   -9.7194   14.1674  -35.5399 C   0  0  0  0  0  0  0  0  0  0  0  0
  -14.2145   15.5665  -37.6090 C   0  0  0  0  0  0  0  0  0  0  0  0
   -9.7612   15.3727  -37.7468 C   0  0  1  0  0  0  0  0  0  0  0  0
  -11.9395   15.0960  -36.4059 C   0  0  1  0  0  0  0  0  0  0  0  0
  -11.2447   14.0114  -35.5339 C   0  0  2  0  0  0  0  0  0  0  0  0
   -9.1932   15.5808  -39.1794 C   0  0  2  0  0  0  0  0  0  0  0  0
  -11.6855   14.0509  -38.7283 C   0  0  2  0  0  0  0  0  0  0  0  0
   -9.9521   14.7983  -40.2745 C   0  0  1  0  0  0  0  0  0  0  0  0
  -11.2969   15.2439  -37.8158 C   0  0  2  0  0  0  0  0  0  0  0  0
  -13.6318   15.3762  -39.0276 C   0  0  2  0  0  0  0  0  0  0  0  0
  -11.7463   14.0262  -34.0847 C   0  0  0  0  0  0  0  0  0  0  0  0
   -7.6859   15.3189  -39.2737 C   0  0  0  0  0  0  0  0  0  0  0  0
  -14.7555   15.4804  -40.0594 C   0  0  0  0  0  0  0  0  0  0  0  0
  -10.7528   13.7452  -39.7668 O   0  0  0  0  0  0  0  0  0  0  0  0
  -13.0357   14.0959  -39.1988 O   0  0  0  0  0  0  0  0  0  0  0  0
  -11.7573   16.5368  -38.2746 O   0  0  0  0  0  0  0  0  0  0  0  0
  -12.6987   16.3941  -39.3697 O   0  0  0  0  0  0  0  0  0  0  0  0
  -10.7073   15.7024  -41.0778 O   0  0  0  0  0  0  0  0  0  0  0  0
   -8.0611   14.3516  -36.8631 H   0  0  0  0  0  0  0  0  0  0  0  0
   -9.3106   13.2591  -37.4405 H   0  0  0  0  0  0  0  0  0  0  0  0
  -13.9301   15.1026  -35.5385 H   0  0  0  0  0  0  0  0  0  0  0  0
  -13.6382   13.7533  -36.6135 H   0  0  0  0  0  0  0  0  0  0  0  0
   -9.2560   13.3298  -34.9986 H   0  0  0  0  0  0  0  0  0  0  0  0
   -9.4330   15.0812  -34.9975 H   0  0  0  0  0  0  0  0  0  0  0  0
  -15.2518   15.1869  -37.5816 H   0  0  0  0  0  0  0  0  0  0  0  0
  -14.2878   16.6422  -37.3674 H   0  0  0  0  0  0  0  0  0  0  0  0
   -9.5377   16.3080  -37.1875 H   0  0  0  0  0  0  0  0  0  0  0  0
  -11.8342   16.0565  -35.9039 H   0  0  0  0  0  0  0  0  0  0  0  0
  -11.4895   13.0189  -35.9478 H   0  0  0  0  0  0  0  0  0  0  0  0
   -9.3090   16.6615  -39.4195 H   0  0  0  0  0  0  0  0  0  0  0  0
  -11.6862   13.0898  -38.0638 H   0  0  0  0  0  0  0  0  0  0  0  0
   -9.1915   14.3377  -40.9913 H   0  0  0  0  0  0  0  0  0  0  0  0
  -11.5255   14.9901  -33.6343 H   0  0  0  0  0  0  0  0  0  0  0  0
  -11.2496   13.2413  -33.5209 H   0  0  0  0  0  0  0  0  0  0  0  0
  -12.8198   13.8578  -34.0708 H   0  0  0  0  0  0  0  0  0  0  0  0
   -7.4825   14.2743  -39.0511 H   0  0  0  0  0  0  0  0  0  0  0  0
   -7.1609   15.9482  -38.5591 H   0  0  0  0  0  0  0  0  0  0  0  0
   -7.3382   15.5473  -40.2784 H   0  0  0  0  0  0  0  0  0  0  0  0
  -14.3506   15.3470  -41.0614 H   0  0  0  0  0  0  0  0  0  0  0  0
  -15.2280   16.4592  -39.9934 H   0  0  0  0  0  0  0  0  0  0  0  0
  -15.5023   14.7106  -39.8713 H   0  0  0  0  0  0  0  0  0  0  0  0
  -11.3274   16.1483  -40.4809 H   0  0  0  0  0  0  0  0  0  0  0  0
  1  3  1  0  0  0  0
  1  5  1  1  0  0  0
  2  4  1  0  0  0  0
  2  6  1  1  0  0  0
  3  7  1  0  0  0  0
  4 12  1  0  0  0  0
  5  8  1  0  0  0  0
  5 11  1  0  0  0  0
  6  7  1  0  0  0  0
  6 11  1  0  0  0  0
  7 13  1  6  0  0  0
  8 10  1  0  0  0  0
  8 14  1  1  0  0  0
  9 11  1  0  0  0  0
  9 16  1  6  0  0  0
  9 17  1  0  0  0  0
 10 16  1  0  0  0  0
 10 20  1  6  0  0  0
 11 18  1  6  0  0  0
 12 15  1  1  0  0  0
 12 17  1  0  0  0  0
 12 19  1  0  0  0  0
 18 19  1  0  0  0  0
  1 21  1  0  0  0  0
  1 22  1  0  0  0  0
  2 23  1  0  0  0  0
  2 24  1  0  0  0  0
  3 25  1  0  0  0  0
  3 26  1  0  0  0  0
  4 27  1  0  0  0  0
  4 28  1  0  0  0  0
  5 29  1  0  0  0  0
  6 30  1  0  0  0  0
  7 31  1  0  0  0  0
  8 32  1  0  0  0  0
  9 33  1  0  0  0  0
 10 34  1  0  0  0  0
 13 35  1  0  0  0  0
 13 36  1  0  0  0  0
 13 37  1  0  0  0  0
 14 38  1  0  0  0  0
 14 39  1  0  0  0  0
 14 40  1  0  0  0  0
 15 41  1  0  0  0  0
 15 42  1  0  0  0  0
 15 43  1  0  0  0  0
 20 44  1  0  0  0  0
M  END
> <id>
EN300-7407671

> <smiles>
C[C@@H]1CC[C@H]2[C@@H](C)[C@H](O)O[C@@H]3O[C@@]4(C)CC[C@@H]1[C@@]23OO4

> <MDLNUMBER>
MFCD00236467

> <IUPAC Name>
(1R,4S,5R,8S,9R,10R,12R,13R)-1,5,9-trimethyl-11,14,15,16-tetraoxatetracyclo[10.3.1.0^{4,13}.0^{8,13}]hexadecan-10-ol

> <CAS>
81496-81-3

> <URL>
https://www.enaminestore.com/catalog/EN300-7407671

> <ROCS_ShapeQuery>
x1247relevant_x1083L0AP1_x1305L0BP1_

> <ROCS_TanimotoCombo>
0.795 

> <ROCS_ShapeTanimoto>
0.505 

> <ROCS_ColorTanimoto>
0.289 

> <ROCS_RefTversky>
0.452 

> <ROCS_RefColorTversky>
0.354 

> <ROCS_RefTverskyCombo>
0.806 

> <ROCS_FitTversky>
1.306 

> <ROCS_FitColorTversky>
0.614 

> <ROCS_FitTverskyCombo>
1.920 

> <ROCS_ColorScore>
-7.552

> <ROCS_Overlap>
1336.329

> <ROCS_Rank>
393                 

$$$$
untitled-dbase-43815_7
  -OEChem-06162310163D

 44 47  0     1  0  0  0  0  0999 V2000
   -9.1411   14.2177  -36.9500 C   0  0  0  0  0  0  0  0  0  0  0  0
  -13.4631   14.8300  -36.4946 C   0  0  0  0  0  0  0  0  0  0  0  0
   -9.7212   14.1664  -35.5395 C   0  0  0  0  0  0  0  0  0  0  0  0
  -14.2152   15.5661  -37.6107 C   0  0  0  0  0  0  0  0  0  0  0  0
   -9.7619   15.3726  -37.7461 C   0  0  1  0  0  0  0  0  0  0  0  0
  -11.9409   15.0953  -36.4063 C   0  0  1  0  0  0  0  0  0  0  0  0
  -11.2466   14.0103  -35.5344 C   0  0  2  0  0  0  0  0  0  0  0  0
   -9.1933   15.5811  -39.1783 C   0  0  2  0  0  0  0  0  0  0  0  0
  -11.6857   14.0510  -38.7289 C   0  0  2  0  0  0  0  0  0  0  0  0
   -9.9513   14.7982  -40.2739 C   0  0  1  0  0  0  0  0  0  0  0  0
  -11.2976   15.2438  -37.8158 C   0  0  2  0  0  0  0  0  0  0  0  0
  -13.6316   15.3766  -39.0291 C   0  0  2  0  0  0  0  0  0  0  0  0
  -11.7491   14.0245  -34.0855 C   0  0  0  0  0  0  0  0  0  0  0  0
   -7.6857   15.3203  -39.2720 C   0  0  0  0  0  0  0  0  0  0  0  0
  -14.7548   15.4814  -40.0614 C   0  0  0  0  0  0  0  0  0  0  0  0
  -10.7520   13.7450  -39.7664 O   0  0  0  0  0  0  0  0  0  0  0  0
  -13.0354   14.0964  -39.2008 O   0  0  0  0  0  0  0  0  0  0  0  0
  -11.7577   16.5368  -38.2743 O   0  0  0  0  0  0  0  0  0  0  0  0
  -12.6984   16.3947  -39.3701 O   0  0  0  0  0  0  0  0  0  0  0  0
  -10.7063   15.7019  -41.0778 O   0  0  0  0  0  0  0  0  0  0  0  0
   -8.0620   14.3513  -36.8617 H   0  0  0  0  0  0  0  0  0  0  0  0
   -9.3111   13.2589  -37.4404 H   0  0  0  0  0  0  0  0  0  0  0  0
  -13.9319   15.1014  -35.5401 H   0  0  0  0  0  0  0  0  0  0  0  0
  -13.6395   13.7526  -36.6156 H   0  0  0  0  0  0  0  0  0  0  0  0
   -9.2581   13.3283  -34.9986 H   0  0  0  0  0  0  0  0  0  0  0  0
   -9.4352   15.0800  -34.9967 H   0  0  0  0  0  0  0  0  0  0  0  0
  -15.2525   15.1863  -37.5839 H   0  0  0  0  0  0  0  0  0  0  0  0
  -14.2890   16.6416  -37.3685 H   0  0  0  0  0  0  0  0  0  0  0  0
   -9.5386   16.3078  -37.1864 H   0  0  0  0  0  0  0  0  0  0  0  0
  -11.8359   16.0554  -35.9039 H   0  0  0  0  0  0  0  0  0  0  0  0
  -11.4910   13.0179  -35.9491 H   0  0  0  0  0  0  0  0  0  0  0  0
   -9.3101   16.6618  -39.4184 H   0  0  0  0  0  0  0  0  0  0  0  0
  -11.6874   13.0896  -38.0646 H   0  0  0  0  0  0  0  0  0  0  0  0
   -9.1900   14.3376  -40.9900 H   0  0  0  0  0  0  0  0  0  0  0  0
  -11.5287   14.9883  -33.6346 H   0  0  0  0  0  0  0  0  0  0  0  0
  -11.2525   13.2395  -33.5217 H   0  0  0  0  0  0  0  0  0  0  0  0
  -12.8225   13.8560  -34.0722 H   0  0  0  0  0  0  0  0  0  0  0  0
   -7.4818   14.2758  -39.0493 H   0  0  0  0  0  0  0  0  0  0  0  0
   -7.1616   15.9498  -38.5571 H   0  0  0  0  0  0  0  0  0  0  0  0
   -7.3378   15.5490  -40.2765 H   0  0  0  0  0  0  0  0  0  0  0  0
  -14.3493   15.3486  -41.0632 H   0  0  0  0  0  0  0  0  0  0  0  0
  -15.2272   16.4602  -39.9951 H   0  0  0  0  0  0  0  0  0  0  0  0
  -15.5016   14.7115  -39.8742 H   0  0  0  0  0  0  0  0  0  0  0  0
  -11.3269   16.1477  -40.4814 H   0  0  0  0  0  0  0  0  0  0  0  0
  1  3  1  0  0  0  0
  1  5  1  0  0  0  0
  2  4  1  0  0  0  0
  2  6  1  0  0  0  0
  3  7  1  0  0  0  0
  4 12  1  0  0  0  0
  5  8  1  0  0  0  0
  5 11  1  0  0  0  0
  6  7  1  0  0  0  0
  6 11  1  0  0  0  0
  7 13  1  0  0  0  0
  8 10  1  0  0  0  0
  8 14  1  0  0  0  0
  9 11  1  0  0  0  0
  9 16  1  0  0  0  0
  9 17  1  0  0  0  0
 10 16  1  0  0  0  0
 10 20  1  0  0  0  0
 11 18  1  0  0  0  0
 12 15  1  0  0  0  0
 12 17  1  0  0  0  0
 12 19  1  0  0  0  0
 18 19  1  0  0  0  0
  1 21  1  0  0  0  0
  1 22  1  0  0  0  0
  2 23  1  0  0  0  0
  2 24  1  0  0  0  0
  3 25  1  0  0  0  0
  3 26  1  0  0  0  0
  4 27  1  0  0  0  0
  4 28  1  0  0  0  0
  5 29  1  0  0  0  0
  6 30  1  0  0  0  0
  7 31  1  0  0  0  0
  8 32  1  0  0  0  0
  9 33  1  0  0  0  0
 10 34  1  0  0  0  0
 13 35  1  0  0  0  0
 13 36  1  0  0  0  0
 13 37  1  0  0  0  0
 14 38  1  0  0  0  0
 14 39  1  0  0  0  0
 14 40  1  0  0  0  0
 15 41  1  0  0  0  0
 15 42  1  0  0  0  0
 15 43  1  0  0  0  0
 20 44  1  0  0  0  0
M  END
> <id>
EN300-19001790

> <smiles>
CC1CCC2C(C)C(O)OC3OC4(C)CCC1C23OO4

> <MDLNUMBER>
MFCD20734738

> <IUPAC Name>
1,5,9-trimethyl-11,14,15,16-tetraoxatetracyclo[10.3.1.0^{4,13}.0^{8,13}]hexadecan-10-ol

> <CAS>
98672-75-4

> <URL>
https://www.enaminestore.com/catalog/EN300-19001790

> <ROCS_ShapeQuery>
x1247relevant_x1083L0AP1_x1305L0BP1_

> <ROCS_TanimotoCombo>
0.795 

> <ROCS_ShapeTanimoto>
0.505 

> <ROCS_ColorTanimoto>
0.289 

> <ROCS_RefTversky>
0.452 

> <ROCS_RefColorTversky>
0.354 

> <ROCS_RefTverskyCombo>
0.806 

> <ROCS_FitTversky>
1.306 

> <ROCS_FitColorTversky>
0.614 

> <ROCS_FitTverskyCombo>
1.920 

> <ROCS_ColorScore>
-7.551

> <ROCS_Overlap>
1336.297

> <ROCS_Rank>
394                 

$$$$
untitled-dbase-34294_39
  -OEChem-06162310163D

 31 32  0     1  0  0  0  0  0999 V2000
  -10.5016   14.7084  -36.4503 C   0  0  0  0  0  0  0  0  0  0  0  0
   -9.2453   14.8744  -37.2188 C   0  0  0  0  0  0  0  0  0  0  0  0
  -13.3048   14.0068  -38.6872 C   0  0  0  0  0  0  0  0  0  0  0  0
  -13.7116   16.4689  -38.7461 C   0  0  0  0  0  0  0  0  0  0  0  0
  -11.4830   15.4764  -39.5460 C   0  0  0  0  0  0  0  0  0  0  0  0
  -12.9280   15.1948  -36.6716 C   0  0  0  0  0  0  0  0  0  0  0  0
  -13.8590   15.1925  -37.8912 C   0  0  2  0  0  0  0  0  0  0  0  0
  -11.8070   14.3011  -38.6026 C   0  0  1  0  0  0  0  0  0  0  0  0
  -12.2496   16.7559  -39.1505 C   0  0  1  0  0  0  0  0  0  0  0  0
   -7.9871   13.8740  -38.9225 C   0  0  0  0  0  0  0  0  0  0  0  0
  -11.6538   14.7142  -37.2001 N   0  0  0  0  0  0  0  0  0  0  0  0
  -12.1809   17.7473  -40.2228 N   0  0  0  0  0  0  0  0  0  0  0  0
  -10.3904   14.5839  -35.2391 O   0  0  0  0  0  0  0  0  0  0  0  0
   -8.4776   15.7923  -37.0334 O   0  0  0  0  0  0  0  0  0  0  0  0
   -9.1581   13.8534  -38.0996 O   0  0  0  0  0  0  0  0  0  0  0  0
  -13.5434   13.0583  -38.1906 H   0  0  0  0  0  0  0  0  0  0  0  0
  -13.6816   13.9625  -39.7142 H   0  0  0  0  0  0  0  0  0  0  0  0
  -14.3336   16.3553  -39.6440 H   0  0  0  0  0  0  0  0  0  0  0  0
  -14.1121   17.3293  -38.1954 H   0  0  0  0  0  0  0  0  0  0  0  0
  -10.4044   15.6772  -39.5396 H   0  0  0  0  0  0  0  0  0  0  0  0
  -11.7406   15.1826  -40.5723 H   0  0  0  0  0  0  0  0  0  0  0  0
  -12.8134   16.1786  -36.2032 H   0  0  0  0  0  0  0  0  0  0  0  0
  -13.2649   14.4782  -35.9126 H   0  0  0  0  0  0  0  0  0  0  0  0
  -14.9055   15.0421  -37.6081 H   0  0  0  0  0  0  0  0  0  0  0  0
  -11.1843   13.4324  -38.8272 H   0  0  0  0  0  0  0  0  0  0  0  0
  -11.7400   17.1976  -38.2850 H   0  0  0  0  0  0  0  0  0  0  0  0
   -8.0014   13.0164  -39.5995 H   0  0  0  0  0  0  0  0  0  0  0  0
   -7.0960   13.8381  -38.2906 H   0  0  0  0  0  0  0  0  0  0  0  0
   -7.9797   14.7969  -39.5072 H   0  0  0  0  0  0  0  0  0  0  0  0
  -11.6949   17.3426  -40.9870 H   0  0  0  0  0  0  0  0  0  0  0  0
  -13.1082   17.9859  -40.4820 H   0  0  0  0  0  0  0  0  0  0  0  0
  1  2  1  0  0  0  0
  1 11  1  0  0  0  0
  1 13  2  0  0  0  0
  2 14  2  0  0  0  0
  2 15  1  0  0  0  0
  3  7  1  0  0  0  0
  3  8  1  0  0  0  0
  4  7  1  0  0  0  0
  4  9  1  0  0  0  0
  5  8  1  0  0  0  0
  5  9  1  0  0  0  0
  6  7  1  0  0  0  0
  6 11  1  0  0  0  0
  8 11  1  0  0  0  0
  9 12  1  0  0  0  0
 10 15  1  0  0  0  0
  3 16  1  0  0  0  0
  3 17  1  0  0  0  0
  4 18  1  0  0  0  0
  4 19  1  0  0  0  0
  5 20  1  0  0  0  0
  5 21  1  0  0  0  0
  6 22  1  0  0  0  0
  6 23  1  0  0  0  0
  7 24  1  0  0  0  0
  8 25  1  0  0  0  0
  9 26  1  0  0  0  0
 10 27  1  0  0  0  0
 10 28  1  0  0  0  0
 10 29  1  0  0  0  0
 12 30  1  0  0  0  0
 12 31  1  0  0  0  0
M  END
> <id>
EN300-784548

> <smiles>
COC(=O)C(=O)N1CC2CC1CC(N)C2

> <MDLNUMBER>
MFCD31461802

> <IUPAC Name>
methyl 2-{3-amino-6-azabicyclo[3.2.1]octan-6-yl}-2-oxoacetate

> <CAS>
2137911-69-2

> <URL>
https://www.enaminestore.com/catalog/EN300-784548

> <ROCS_ShapeQuery>
x1247relevant_x1083L0AP1_x1305L0BP1_

> <ROCS_TanimotoCombo>
0.795 

> <ROCS_ShapeTanimoto>
0.492 

> <ROCS_ColorTanimoto>
0.302 

> <ROCS_RefTversky>
0.418 

> <ROCS_RefColorTversky>
0.346 

> <ROCS_RefTverskyCombo>
0.764 

> <ROCS_FitTversky>
1.568 

> <ROCS_FitColorTversky>
0.704 

> <ROCS_FitTverskyCombo>
2.272 

> <ROCS_ColorScore>
-7.357

> <ROCS_Overlap>
1230.344

> <ROCS_Rank>
395                 

$$$$
untitled-dbase-22442_0
  -OEChem-06162310163D

 25 27  0     1  0  0  0  0  0999 V2000
  -13.5017   16.5574  -38.1694 C   0  0  0  0  0  0  0  0  0  0  0  0
  -13.8966   14.0912  -38.5379 C   0  0  0  0  0  0  0  0  0  0  0  0
  -12.3338   15.2991  -40.0208 C   0  0  0  0  0  0  0  0  0  0  0  0
  -12.6265   14.7119  -36.6847 C   0  0  0  0  0  0  0  0  0  0  0  0
  -11.0571   15.9249  -38.1739 C   0  0  0  0  0  0  0  0  0  0  0  0
  -13.8361   15.2014  -37.4849 C   0  0  1  0  0  0  0  0  0  0  0  0
  -12.2089   16.4592  -39.0288 C   0  0  2  0  0  0  0  0  0  0  0  0
  -12.4509   14.1027  -39.0620 C   0  0  0  0  0  0  0  0  0  0  0  0
  -11.5909   14.5245  -37.8125 C   0  0  0  0  0  0  0  0  0  0  0  0
  -10.5407   13.6001  -37.4415 N   0  0  0  0  0  0  0  0  0  0  0  0
  -14.3410   16.8602  -38.8068 H   0  0  0  0  0  0  0  0  0  0  0  0
  -13.3727   17.3308  -37.4029 H   0  0  0  0  0  0  0  0  0  0  0  0
  -14.1315   13.1243  -38.0765 H   0  0  0  0  0  0  0  0  0  0  0  0
  -14.6425   14.2843  -39.3156 H   0  0  0  0  0  0  0  0  0  0  0  0
  -13.1927   15.4048  -40.6913 H   0  0  0  0  0  0  0  0  0  0  0  0
  -11.4317   15.2114  -40.6384 H   0  0  0  0  0  0  0  0  0  0  0  0
  -12.3092   15.4253  -35.9166 H   0  0  0  0  0  0  0  0  0  0  0  0
  -12.8558   13.7621  -36.1838 H   0  0  0  0  0  0  0  0  0  0  0  0
  -10.1345   15.8670  -38.7659 H   0  0  0  0  0  0  0  0  0  0  0  0
  -10.8523   16.5514  -37.2991 H   0  0  0  0  0  0  0  0  0  0  0  0
  -14.7459   15.2641  -36.8820 H   0  0  0  0  0  0  0  0  0  0  0  0
  -11.9704   17.4087  -39.5150 H   0  0  0  0  0  0  0  0  0  0  0  0
  -12.1680   13.1579  -39.5338 H   0  0  0  0  0  0  0  0  0  0  0  0
  -10.0696   13.9517  -36.6367 H   0  0  0  0  0  0  0  0  0  0  0  0
  -10.9479   12.7134  -37.2382 H   0  0  0  0  0  0  0  0  0  0  0  0
  1  6  1  0  0  0  0
  1  7  1  0  0  0  0
  2  6  1  0  0  0  0
  2  8  1  0  0  0  0
  3  7  1  0  0  0  0
  3  8  1  0  0  0  0
  4  6  1  0  0  0  0
  4  9  1  0  0  0  0
  5  7  1  0  0  0  0
  5  9  1  0  0  0  0
  8  9  1  0  0  0  0
  9 10  1  0  0  0  0
  1 11  1  0  0  0  0
  1 12  1  0  0  0  0
  2 13  1  0  0  0  0
  2 14  1  0  0  0  0
  3 15  1  0  0  0  0
  3 16  1  0  0  0  0
  4 17  1  0  0  0  0
  4 18  1  0  0  0  0
  5 19  1  0  0  0  0
  5 20  1  0  0  0  0
  6 21  1  0  0  0  0
  7 22  1  0  0  0  0
  8 23  1  0  0  0  0
 10 24  1  0  0  0  0
 10 25  1  0  0  0  0
M  END
> <id>
EN300-7713724

> <smiles>
Cl.NC12CC3CC2CC(C1)C3

> <IUPAC Name>
tricyclo[3.3.1.0,3,7]nonan-3-amine hydrochloride

> <CAS>
86128-83-8

> <Purity>
95

> <URL>
https://www.enaminestore.com/catalog/EN300-7713724

> <Saltdate>
Cl

> <ROCS_ShapeQuery>
x1247relevant_x1083L0AP1_x1305L0BP1_

> <ROCS_TanimotoCombo>
0.795 

> <ROCS_ShapeTanimoto>
0.395 

> <ROCS_ColorTanimoto>
0.399 

> <ROCS_RefTversky>
0.340 

> <ROCS_RefColorTversky>
0.582 

> <ROCS_RefTverskyCombo>
0.922 

> <ROCS_FitTversky>
1.701 

> <ROCS_FitColorTversky>
0.560 

> <ROCS_FitTverskyCombo>
2.261 

> <ROCS_ColorScore>
-12.741

> <ROCS_Overlap>
997.237

> <ROCS_Rank>
396                 

$$$$
untitled-dbase-17164_9
  -OEChem-06162310163D

 35 37  0     1  0  0  0  0  0999 V2000
  -15.9234   15.7634  -39.2280 C   0  0  0  0  0  0  0  0  0  0  0  0
  -15.5052   14.8364  -40.3700 C   0  0  0  0  0  0  0  0  0  0  0  0
  -14.6516   16.4893  -38.7886 C   0  0  0  0  0  0  0  0  0  0  0  0
  -14.0013   15.0456  -40.5516 C   0  0  0  0  0  0  0  0  0  0  0  0
   -9.0735   13.6023  -37.5847 C   0  0  0  0  0  0  0  0  0  0  0  0
  -11.1352   15.3121  -39.0045 C   0  0  0  0  0  0  0  0  0  0  0  0
   -8.5192   14.6140  -36.5925 C   0  0  0  0  0  0  0  0  0  0  0  0
  -10.5688   15.7606  -36.5421 C   0  0  0  0  0  0  0  0  0  0  0  0
  -12.6976   14.5775  -37.1443 C   0  0  0  0  0  0  0  0  0  0  0  0
  -11.2173   14.7846  -37.5484 C   0  0  1  0  0  0  0  0  0  0  0  0
  -13.5174   15.5336  -39.1784 C   0  0  0  0  0  0  0  0  0  0  0  0
  -10.5241   13.4847  -37.4431 N   0  0  0  0  0  0  0  0  0  0  0  0
  -12.2342   16.2425  -39.2508 N   0  0  0  0  0  0  0  0  0  0  0  0
   -9.1613   15.8766  -36.7633 O   0  0  0  0  0  0  0  0  0  0  0  0
  -13.5187   14.3908  -38.2959 O   0  0  0  0  0  0  0  0  0  0  0  0
  -16.6951   16.4734  -39.5422 H   0  0  0  0  0  0  0  0  0  0  0  0
  -16.3366   15.1743  -38.4010 H   0  0  0  0  0  0  0  0  0  0  0  0
  -15.7159   13.7946  -40.0999 H   0  0  0  0  0  0  0  0  0  0  0  0
  -16.0525   15.0530  -41.2932 H   0  0  0  0  0  0  0  0  0  0  0  0
  -14.5768   17.4398  -39.3324 H   0  0  0  0  0  0  0  0  0  0  0  0
  -14.6788   16.7074  -37.7156 H   0  0  0  0  0  0  0  0  0  0  0  0
  -13.5217   14.1245  -40.8964 H   0  0  0  0  0  0  0  0  0  0  0  0
  -13.8348   15.8151  -41.3178 H   0  0  0  0  0  0  0  0  0  0  0  0
   -8.8330   13.9109  -38.6067 H   0  0  0  0  0  0  0  0  0  0  0  0
   -8.6079   12.6238  -37.4305 H   0  0  0  0  0  0  0  0  0  0  0  0
  -10.1920   15.8290  -39.1745 H   0  0  0  0  0  0  0  0  0  0  0  0
  -11.1842   14.4896  -39.7175 H   0  0  0  0  0  0  0  0  0  0  0  0
   -8.7123   14.2776  -35.5688 H   0  0  0  0  0  0  0  0  0  0  0  0
   -7.4346   14.7361  -36.7013 H   0  0  0  0  0  0  0  0  0  0  0  0
  -11.0201   16.7615  -36.6000 H   0  0  0  0  0  0  0  0  0  0  0  0
  -10.6938   15.4169  -35.5085 H   0  0  0  0  0  0  0  0  0  0  0  0
  -12.8110   13.7188  -36.4745 H   0  0  0  0  0  0  0  0  0  0  0  0
  -13.0937   15.4466  -36.6110 H   0  0  0  0  0  0  0  0  0  0  0  0
  -10.8698   12.8676  -38.1778 H   0  0  0  0  0  0  0  0  0  0  0  0
  -12.2196   16.9798  -38.5568 H   0  0  0  0  0  0  0  0  0  0  0  0
  1  2  1  0  0  0  0
  1  3  1  0  0  0  0
  2  4  1  0  0  0  0
  3 11  1  0  0  0  0
  4 11  1  0  0  0  0
  5  7  1  0  0  0  0
  5 12  1  0  0  0  0
  6 10  1  0  0  0  0
  6 13  1  0  0  0  0
  7 14  1  0  0  0  0
  8 10  1  0  0  0  0
  8 14  1  0  0  0  0
  9 10  1  0  0  0  0
  9 15  1  0  0  0  0
 10 12  1  0  0  0  0
 11 13  1  0  0  0  0
 11 15  1  0  0  0  0
  1 16  1  0  0  0  0
  1 17  1  0  0  0  0
  2 18  1  0  0  0  0
  2 19  1  0  0  0  0
  3 20  1  0  0  0  0
  3 21  1  0  0  0  0
  4 22  1  0  0  0  0
  4 23  1  0  0  0  0
  5 24  1  0  0  0  0
  5 25  1  0  0  0  0
  6 26  1  0  0  0  0
  6 27  1  0  0  0  0
  7 28  1  0  0  0  0
  7 29  1  0  0  0  0
  8 30  1  0  0  0  0
  8 31  1  0  0  0  0
  9 32  1  0  0  0  0
  9 33  1  0  0  0  0
 12 34  1  0  0  0  0
 13 35  1  0  0  0  0
M  END
> <id>
EN300-1280586

> <smiles>
C1CCC2(C1)NCC3(COCCN3)CO2

> <IUPAC Name>
6,12-dioxa-9,15-diazadispiro[4.2.5^{8}.2^{5}]pentadecane

> <CAS>
2167429-11-8

> <URL>
https://www.enaminestore.com/catalog/EN300-1280586

> <ROCS_ShapeQuery>
x1247relevant_x1083L0AP1_x1305L0BP1_

> <ROCS_TanimotoCombo>
0.794 

> <ROCS_ShapeTanimoto>
0.514 

> <ROCS_ColorTanimoto>
0.280 

> <ROCS_RefTversky>
0.431 

> <ROCS_RefColorTversky>
0.318 

> <ROCS_RefTverskyCombo>
0.749 

> <ROCS_FitTversky>
1.605 

> <ROCS_FitColorTversky>
0.700 

> <ROCS_FitTverskyCombo>
2.305 

> <ROCS_ColorScore>
-6.750

> <ROCS_Overlap>
1268.689

> <ROCS_Rank>
397                 

$$$$
untitled-dbase-38347_0
  -OEChem-06162310163D

 22 23  0     1  0  0  0  0  0999 V2000
  -13.5087   14.0741  -38.5716 C   0  0  0  0  0  0  0  0  0  0  0  0
  -13.5866   15.2095  -39.5924 C   0  0  0  0  0  0  0  0  0  0  0  0
  -11.1091   14.6658  -38.1026 C   0  0  2  0  0  0  0  0  0  0  0  0
  -11.1731   15.8786  -39.0568 C   0  0  2  0  0  0  0  0  0  0  0  0
  -12.5396   14.6425  -37.5358 C   0  0  1  0  0  0  0  0  0  0  0  0
  -12.6573   16.2592  -38.9805 C   0  0  2  0  0  0  0  0  0  0  0  0
  -10.0631   14.8687  -37.0099 C   0  0  0  0  0  0  0  0  0  0  0  0
  -10.7017   15.5760  -40.3968 N   0  0  0  0  0  0  0  0  0  0  0  0
  -12.9018   16.0442  -37.5670 O   0  0  0  0  0  0  0  0  0  0  0  0
   -8.8369   14.9312  -37.5516 F   0  0  0  0  0  0  0  0  0  0  0  0
  -10.3037   16.0111  -36.3481 F   0  0  0  0  0  0  0  0  0  0  0  0
  -10.1014   13.8474  -36.1402 F   0  0  0  0  0  0  0  0  0  0  0  0
  -14.4975   13.9144  -38.1271 H   0  0  0  0  0  0  0  0  0  0  0  0
  -13.1697   13.1287  -39.0051 H   0  0  0  0  0  0  0  0  0  0  0  0
  -13.3027   14.9014  -40.6021 H   0  0  0  0  0  0  0  0  0  0  0  0
  -14.6144   15.5889  -39.6317 H   0  0  0  0  0  0  0  0  0  0  0  0
  -10.8824   13.7259  -38.6211 H   0  0  0  0  0  0  0  0  0  0  0  0
  -10.5767   16.7059  -38.6513 H   0  0  0  0  0  0  0  0  0  0  0  0
  -12.6421   14.2084  -36.5383 H   0  0  0  0  0  0  0  0  0  0  0  0
  -12.8770   17.2859  -39.2841 H   0  0  0  0  0  0  0  0  0  0  0  0
  -10.8085   16.3873  -40.9629 H   0  0  0  0  0  0  0  0  0  0  0  0
   -9.7428   15.3153  -40.3453 H   0  0  0  0  0  0  0  0  0  0  0  0
  1  2  1  0  0  0  0
  1  5  1  1  0  0  0
  2  6  1  1  0  0  0
  3  4  1  0  0  0  0
  3  5  1  0  0  0  0
  3  7  1  6  0  0  0
  4  6  1  0  0  0  0
  4  8  1  1  0  0  0
  5  9  1  0  0  0  0
  6  9  1  0  0  0  0
  7 10  1  0  0  0  0
  7 11  1  0  0  0  0
  7 12  1  0  0  0  0
  1 13  1  0  0  0  0
  1 14  1  0  0  0  0
  2 15  1  0  0  0  0
  2 16  1  0  0  0  0
  3 17  1  0  0  0  0
  4 18  1  0  0  0  0
  5 19  1  0  0  0  0
  6 20  1  0  0  0  0
  8 21  1  0  0  0  0
  8 22  1  0  0  0  0
M  END
> <id>
EN300-7426396

> <smiles>
Cl.N[C@@H]1[C@H]([C@@H]2CC[C@H]1O2)C(F)(F)F |&1:2,3,4,7,r|

> <IUPAC Name>
rac-(1R,2R,3R,4S)-3-(trifluoromethyl)-7-oxabicyclo[2.2.1]heptan-2-amine hydrochloride

> <CAS>
2343963-79-9

> <Purity>
95

> <URL>
https://www.enaminestore.com/catalog/EN300-7426396

> <Saltdate>
Cl

> <ROCS_ShapeQuery>
x1247relevant_x1083L0AP1_x1305L0BP1_

> <ROCS_TanimotoCombo>
0.794 

> <ROCS_ShapeTanimoto>
0.495 

> <ROCS_ColorTanimoto>
0.299 

> <ROCS_RefTversky>
0.407 

> <ROCS_RefColorTversky>
0.338 

> <ROCS_RefTverskyCombo>
0.746 

> <ROCS_FitTversky>
1.774 

> <ROCS_FitColorTversky>
0.721 

> <ROCS_FitTverskyCombo>
2.495 

> <ROCS_ColorScore>
-7.183

> <ROCS_Overlap>
1196.545

> <ROCS_Rank>
398                 

$$$$
untitled-dbase-38298_0
  -OEChem-06162310163D

 22 23  0     1  0  0  0  0  0999 V2000
  -13.5087   14.0741  -38.5716 C   0  0  0  0  0  0  0  0  0  0  0  0
  -13.5866   15.2095  -39.5924 C   0  0  0  0  0  0  0  0  0  0  0  0
  -11.1091   14.6658  -38.1026 C   0  0  2  0  0  0  0  0  0  0  0  0
  -11.1731   15.8786  -39.0568 C   0  0  2  0  0  0  0  0  0  0  0  0
  -12.5396   14.6425  -37.5358 C   0  0  1  0  0  0  0  0  0  0  0  0
  -12.6573   16.2592  -38.9805 C   0  0  2  0  0  0  0  0  0  0  0  0
  -10.0631   14.8687  -37.0099 C   0  0  0  0  0  0  0  0  0  0  0  0
  -10.7017   15.5760  -40.3968 N   0  0  0  0  0  0  0  0  0  0  0  0
  -12.9018   16.0442  -37.5670 O   0  0  0  0  0  0  0  0  0  0  0  0
   -8.8369   14.9312  -37.5516 F   0  0  0  0  0  0  0  0  0  0  0  0
  -10.3037   16.0111  -36.3481 F   0  0  0  0  0  0  0  0  0  0  0  0
  -10.1014   13.8474  -36.1402 F   0  0  0  0  0  0  0  0  0  0  0  0
  -14.4975   13.9144  -38.1271 H   0  0  0  0  0  0  0  0  0  0  0  0
  -13.1697   13.1287  -39.0051 H   0  0  0  0  0  0  0  0  0  0  0  0
  -13.3027   14.9014  -40.6021 H   0  0  0  0  0  0  0  0  0  0  0  0
  -14.6144   15.5889  -39.6317 H   0  0  0  0  0  0  0  0  0  0  0  0
  -10.8824   13.7259  -38.6211 H   0  0  0  0  0  0  0  0  0  0  0  0
  -10.5767   16.7059  -38.6513 H   0  0  0  0  0  0  0  0  0  0  0  0
  -12.6421   14.2084  -36.5383 H   0  0  0  0  0  0  0  0  0  0  0  0
  -12.8770   17.2859  -39.2841 H   0  0  0  0  0  0  0  0  0  0  0  0
  -10.8085   16.3873  -40.9629 H   0  0  0  0  0  0  0  0  0  0  0  0
   -9.7428   15.3153  -40.3453 H   0  0  0  0  0  0  0  0  0  0  0  0
  1  2  1  0  0  0  0
  1  5  1  1  0  0  0
  2  6  1  1  0  0  0
  3  4  1  0  0  0  0
  3  5  1  0  0  0  0
  3  7  1  6  0  0  0
  4  6  1  0  0  0  0
  4  8  1  1  0  0  0
  5  9  1  0  0  0  0
  6  9  1  0  0  0  0
  7 10  1  0  0  0  0
  7 11  1  0  0  0  0
  7 12  1  0  0  0  0
  1 13  1  0  0  0  0
  1 14  1  0  0  0  0
  2 15  1  0  0  0  0
  2 16  1  0  0  0  0
  3 17  1  0  0  0  0
  4 18  1  0  0  0  0
  5 19  1  0  0  0  0
  6 20  1  0  0  0  0
  8 21  1  0  0  0  0
  8 22  1  0  0  0  0
M  END
> <id>
EN300-7426397

> <smiles>
N[C@@H]1[C@H]([C@@H]2CC[C@H]1O2)C(F)(F)F |&1:1,2,3,6,r|

> <IUPAC Name>
rac-(1R,2R,3R,4S)-3-(trifluoromethyl)-7-oxabicyclo[2.2.1]heptan-2-amine

> <CAS>
2343963-65-3

> <URL>
https://www.enaminestore.com/catalog/EN300-7426397

> <ROCS_ShapeQuery>
x1247relevant_x1083L0AP1_x1305L0BP1_

> <ROCS_TanimotoCombo>
0.794 

> <ROCS_ShapeTanimoto>
0.495 

> <ROCS_ColorTanimoto>
0.299 

> <ROCS_RefTversky>
0.407 

> <ROCS_RefColorTversky>
0.338 

> <ROCS_RefTverskyCombo>
0.746 

> <ROCS_FitTversky>
1.774 

> <ROCS_FitColorTversky>
0.721 

> <ROCS_FitTverskyCombo>
2.495 

> <ROCS_ColorScore>
-7.183

> <ROCS_Overlap>
1196.545

> <ROCS_Rank>
399                 

$$$$
untitled-dbase-35010_0
  -OEChem-06162310163D

 28 30  0     1  0  0  0  0  0999 V2000
  -13.8008   14.7340  -39.4933 C   0  0  0  0  0  0  0  0  0  0  0  0
  -12.5205   15.4288  -39.9769 C   0  0  0  0  0  0  0  0  0  0  0  0
  -10.6532   15.5274  -36.5328 C   0  0  0  0  0  0  0  0  0  0  0  0
  -13.2500   16.5017  -37.9963 C   0  0  0  0  0  0  0  0  0  0  0  0
  -12.7663   14.2819  -37.2567 C   0  0  0  0  0  0  0  0  0  0  0  0
   -9.7177   14.3993  -36.1068 C   0  0  0  0  0  0  0  0  0  0  0  0
  -10.4334   13.9723  -38.2979 C   0  0  0  0  0  0  0  0  0  0  0  0
  -13.8461   15.0952  -37.9988 C   0  0  2  0  0  0  0  0  0  0  0  0
  -11.9577   16.0544  -38.6875 C   0  0  1  0  0  0  0  0  0  0  0  0
  -11.4436   14.9586  -37.7210 C   0  0  2  0  0  0  0  0  0  0  0  0
   -9.8718   13.3410  -37.1047 N   0  0  0  0  0  0  0  0  0  0  0  0
  -14.6712   15.1404  -40.0204 H   0  0  0  0  0  0  0  0  0  0  0  0
  -13.7723   13.6532  -39.6639 H   0  0  0  0  0  0  0  0  0  0  0  0
  -11.8303   14.7375  -40.4671 H   0  0  0  0  0  0  0  0  0  0  0  0
  -12.7741   16.2113  -40.7020 H   0  0  0  0  0  0  0  0  0  0  0  0
  -11.2882   15.8593  -35.7049 H   0  0  0  0  0  0  0  0  0  0  0  0
  -10.0521   16.3884  -36.8518 H   0  0  0  0  0  0  0  0  0  0  0  0
  -13.8311   17.2163  -38.5888 H   0  0  0  0  0  0  0  0  0  0  0  0
  -13.0963   16.9059  -36.9910 H   0  0  0  0  0  0  0  0  0  0  0  0
  -12.9125   14.3718  -36.1742 H   0  0  0  0  0  0  0  0  0  0  0  0
  -12.8217   13.2191  -37.5152 H   0  0  0  0  0  0  0  0  0  0  0  0
   -8.6823   14.7563  -36.0711 H   0  0  0  0  0  0  0  0  0  0  0  0
   -9.9799   14.0170  -35.1154 H   0  0  0  0  0  0  0  0  0  0  0  0
  -10.8864   13.2193  -38.9494 H   0  0  0  0  0  0  0  0  0  0  0  0
   -9.6471   14.4914  -38.8595 H   0  0  0  0  0  0  0  0  0  0  0  0
  -14.8405   15.0025  -37.5577 H   0  0  0  0  0  0  0  0  0  0  0  0
  -11.2404   16.8560  -38.8791 H   0  0  0  0  0  0  0  0  0  0  0  0
   -8.9776   12.8997  -37.3108 H   0  0  0  0  0  0  0  0  0  0  0  0
  1  2  1  0  0  0  0
  1  8  1  0  0  0  0
  2  9  1  0  0  0  0
  3  6  1  0  0  0  0
  3 10  1  0  0  0  0
  4  8  1  0  0  0  0
  4  9  1  0  0  0  0
  5  8  1  0  0  0  0
  5 10  1  0  0  0  0
  6 11  1  0  0  0  0
  7 10  1  0  0  0  0
  7 11  1  0  0  0  0
  9 10  1  0  0  0  0
  1 12  1  0  0  0  0
  1 13  1  0  0  0  0
  2 14  1  0  0  0  0
  2 15  1  0  0  0  0
  3 16  1  0  0  0  0
  3 17  1  0  0  0  0
  4 18  1  0  0  0  0
  4 19  1  0  0  0  0
  5 20  1  0  0  0  0
  5 21  1  0  0  0  0
  6 22  1  0  0  0  0
  6 23  1  0  0  0  0
  7 24  1  0  0  0  0
  7 25  1  0  0  0  0
  8 26  1  0  0  0  0
  9 27  1  0  0  0  0
 11 28  1  0  0  0  0
M  END
> <id>
EN300-1197956

> <smiles>
C1CC2(CN1)CC3CCC2C3

> <MDLNUMBER>
MFCD20662840

> <IUPAC Name>
spiro[bicyclo[2.2.1]heptane-2,3'-pyrrolidine]

> <CAS>
172-62-3

> <URL>
https://www.enaminestore.com/catalog/EN300-1197956

> <ROCS_ShapeQuery>
x1247relevant_x1083L0AP1_x1305L0BP1_

> <ROCS_TanimotoCombo>
0.794 

> <ROCS_ShapeTanimoto>
0.457 

> <ROCS_ColorTanimoto>
0.337 

> <ROCS_RefTversky>
0.380 

> <ROCS_RefColorTversky>
0.370 

> <ROCS_RefTverskyCombo>
0.750 

> <ROCS_FitTversky>
1.794 

> <ROCS_FitColorTversky>
0.791 

> <ROCS_FitTverskyCombo>
2.585 

> <ROCS_ColorScore>
-7.857

> <ROCS_Overlap>
1116.176

> <ROCS_Rank>
400                 

$$$$
untitled-dbase-43228_0
  -OEChem-06162310163D

 28 30  0     1  0  0  0  0  0999 V2000
  -13.8008   14.7340  -39.4933 C   0  0  0  0  0  0  0  0  0  0  0  0
  -12.5205   15.4288  -39.9769 C   0  0  0  0  0  0  0  0  0  0  0  0
  -10.6532   15.5274  -36.5328 C   0  0  0  0  0  0  0  0  0  0  0  0
  -13.2500   16.5017  -37.9963 C   0  0  0  0  0  0  0  0  0  0  0  0
  -12.7663   14.2819  -37.2567 C   0  0  0  0  0  0  0  0  0  0  0  0
   -9.7177   14.3993  -36.1068 C   0  0  0  0  0  0  0  0  0  0  0  0
  -10.4334   13.9723  -38.2979 C   0  0  0  0  0  0  0  0  0  0  0  0
  -13.8461   15.0952  -37.9988 C   0  0  2  0  0  0  0  0  0  0  0  0
  -11.9577   16.0544  -38.6875 C   0  0  1  0  0  0  0  0  0  0  0  0
  -11.4436   14.9586  -37.7210 C   0  0  2  0  0  0  0  0  0  0  0  0
   -9.8718   13.3410  -37.1047 N   0  0  0  0  0  0  0  0  0  0  0  0
  -14.6712   15.1404  -40.0204 H   0  0  0  0  0  0  0  0  0  0  0  0
  -13.7723   13.6532  -39.6639 H   0  0  0  0  0  0  0  0  0  0  0  0
  -11.8303   14.7375  -40.4671 H   0  0  0  0  0  0  0  0  0  0  0  0
  -12.7741   16.2113  -40.7020 H   0  0  0  0  0  0  0  0  0  0  0  0
  -11.2882   15.8593  -35.7049 H   0  0  0  0  0  0  0  0  0  0  0  0
  -10.0521   16.3884  -36.8518 H   0  0  0  0  0  0  0  0  0  0  0  0
  -13.8311   17.2163  -38.5888 H   0  0  0  0  0  0  0  0  0  0  0  0
  -13.0963   16.9059  -36.9910 H   0  0  0  0  0  0  0  0  0  0  0  0
  -12.9125   14.3718  -36.1742 H   0  0  0  0  0  0  0  0  0  0  0  0
  -12.8217   13.2191  -37.5152 H   0  0  0  0  0  0  0  0  0  0  0  0
   -8.6823   14.7563  -36.0711 H   0  0  0  0  0  0  0  0  0  0  0  0
   -9.9799   14.0170  -35.1154 H   0  0  0  0  0  0  0  0  0  0  0  0
  -10.8864   13.2193  -38.9494 H   0  0  0  0  0  0  0  0  0  0  0  0
   -9.6471   14.4914  -38.8595 H   0  0  0  0  0  0  0  0  0  0  0  0
  -14.8405   15.0025  -37.5577 H   0  0  0  0  0  0  0  0  0  0  0  0
  -11.2404   16.8560  -38.8791 H   0  0  0  0  0  0  0  0  0  0  0  0
   -8.9776   12.8997  -37.3108 H   0  0  0  0  0  0  0  0  0  0  0  0
  1  2  1  0  0  0  0
  1  8  1  0  0  0  0
  2  9  1  0  0  0  0
  3  6  1  0  0  0  0
  3 10  1  0  0  0  0
  4  8  1  0  0  0  0
  4  9  1  0  0  0  0
  5  8  1  0  0  0  0
  5 10  1  0  0  0  0
  6 11  1  0  0  0  0
  7 10  1  0  0  0  0
  7 11  1  0  0  0  0
  9 10  1  0  0  0  0
  1 12  1  0  0  0  0
  1 13  1  0  0  0  0
  2 14  1  0  0  0  0
  2 15  1  0  0  0  0
  3 16  1  0  0  0  0
  3 17  1  0  0  0  0
  4 18  1  0  0  0  0
  4 19  1  0  0  0  0
  5 20  1  0  0  0  0
  5 21  1  0  0  0  0
  6 22  1  0  0  0  0
  6 23  1  0  0  0  0
  7 24  1  0  0  0  0
  7 25  1  0  0  0  0
  8 26  1  0  0  0  0
  9 27  1  0  0  0  0
 11 28  1  0  0  0  0
M  END
> <id>
EN300-27735024

> <smiles>
Cl.C1CC2(CN1)CC3CCC2C3

> <MDLNUMBER>
MFCD33032078

> <IUPAC Name>
spiro[bicyclo[2.2.1]heptane-2,3'-pyrrolidine] hydrochloride

> <CAS>
2613388-29-5

> <Purity>
95

> <URL>
https://www.enaminestore.com/catalog/EN300-27735024

> <ROCS_ShapeQuery>
x1247relevant_x1083L0AP1_x1305L0BP1_

> <ROCS_TanimotoCombo>
0.794 

> <ROCS_ShapeTanimoto>
0.457 

> <ROCS_ColorTanimoto>
0.337 

> <ROCS_RefTversky>
0.380 

> <ROCS_RefColorTversky>
0.370 

> <ROCS_RefTverskyCombo>
0.750 

> <ROCS_FitTversky>
1.794 

> <ROCS_FitColorTversky>
0.791 

> <ROCS_FitTverskyCombo>
2.585 

> <ROCS_ColorScore>
-7.857

> <ROCS_Overlap>
1116.176

> <ROCS_Rank>
401                 

$$$$
untitled-dbase-18419_5
  -OEChem-06162310163D

 27 28  0     0  0  0  0  0  0999 V2000
  -13.5493   15.6779  -39.2095 C   0  0  0  0  0  0  0  0  0  0  0  0
  -13.6481   14.5759  -38.1755 C   0  0  0  0  0  0  0  0  0  0  0  0
  -12.2183   16.3907  -39.3302 C   0  0  0  0  0  0  0  0  0  0  0  0
  -12.6753   14.8662  -37.0380 C   0  0  0  0  0  0  0  0  0  0  0  0
  -11.0922   15.4265  -38.9703 C   0  0  0  0  0  0  0  0  0  0  0  0
   -9.1998   13.4876  -37.6157 C   0  0  0  0  0  0  0  0  0  0  0  0
   -8.4991   14.4288  -36.6476 C   0  0  0  0  0  0  0  0  0  0  0  0
  -10.3997   15.8042  -36.5337 C   0  0  0  0  0  0  0  0  0  0  0  0
  -11.1958   14.9055  -37.5061 C   0  0  0  0  0  0  0  0  0  0  0  0
  -10.6482   13.5350  -37.4210 N   0  0  0  0  0  0  0  0  0  0  0  0
  -14.5077   15.9815  -39.9187 O   0  0  0  0  0  0  0  0  0  0  0  0
   -8.9970   15.7563  -36.8040 O   0  0  0  0  0  0  0  0  0  0  0  0
  -14.6661   14.5419  -37.7910 H   0  0  0  0  0  0  0  0  0  0  0  0
  -13.4222   13.6288  -38.6616 H   0  0  0  0  0  0  0  0  0  0  0  0
  -12.1191   16.7575  -40.3502 H   0  0  0  0  0  0  0  0  0  0  0  0
  -12.2084   17.2394  -38.6482 H   0  0  0  0  0  0  0  0  0  0  0  0
  -12.9321   15.8417  -36.6090 H   0  0  0  0  0  0  0  0  0  0  0  0
  -12.8261   14.1354  -36.2400 H   0  0  0  0  0  0  0  0  0  0  0  0
  -11.0913   14.5929  -39.6749 H   0  0  0  0  0  0  0  0  0  0  0  0
  -10.1377   15.9452  -39.0910 H   0  0  0  0  0  0  0  0  0  0  0  0
   -8.9628   13.7678  -38.6463 H   0  0  0  0  0  0  0  0  0  0  0  0
   -8.8426   12.4635  -37.4763 H   0  0  0  0  0  0  0  0  0  0  0  0
   -8.6946   14.1176  -35.6168 H   0  0  0  0  0  0  0  0  0  0  0  0
   -7.4127   14.4248  -36.7945 H   0  0  0  0  0  0  0  0  0  0  0  0
  -10.7360   16.8504  -36.5789 H   0  0  0  0  0  0  0  0  0  0  0  0
  -10.5427   15.4726  -35.4974 H   0  0  0  0  0  0  0  0  0  0  0  0
  -11.0887   12.9605  -38.1387 H   0  0  0  0  0  0  0  0  0  0  0  0
  1  2  1  0  0  0  0
  1  3  1  0  0  0  0
  1 11  2  0  0  0  0
  2  4  1  0  0  0  0
  3  5  1  0  0  0  0
  4  9  1  0  0  0  0
  5  9  1  0  0  0  0
  6  7  1  0  0  0  0
  6 10  1  0  0  0  0
  7 12  1  0  0  0  0
  8  9  1  0  0  0  0
  8 12  1  0  0  0  0
  9 10  1  0  0  0  0
  2 13  1  0  0  0  0
  2 14  1  0  0  0  0
  3 15  1  0  0  0  0
  3 16  1  0  0  0  0
  4 17  1  0  0  0  0
  4 18  1  0  0  0  0
  5 19  1  0  0  0  0
  5 20  1  0  0  0  0
  6 21  1  0  0  0  0
  6 22  1  0  0  0  0
  7 23  1  0  0  0  0
  7 24  1  0  0  0  0
  8 25  1  0  0  0  0
  8 26  1  0  0  0  0
 10 27  1  0  0  0  0
M  END
> <id>
EN300-1645432

> <smiles>
O=C1CCC2(CC1)COCCN2

> <IUPAC Name>
4-oxa-1-azaspiro[5.5]undecan-9-one

> <CAS>
2172578-18-4

> <URL>
https://www.enaminestore.com/catalog/EN300-1645432

> <ROCS_ShapeQuery>
x1247relevant_x1083L0AP1_x1305L0BP1_

> <ROCS_TanimotoCombo>
0.794 

> <ROCS_ShapeTanimoto>
0.463 

> <ROCS_ColorTanimoto>
0.332 

> <ROCS_RefTversky>
0.386 

> <ROCS_RefColorTversky>
0.329 

> <ROCS_RefTverskyCombo>
0.715 

> <ROCS_FitTversky>
1.757 

> <ROCS_FitColorTversky>
1.021 

> <ROCS_FitTverskyCombo>
2.778 

> <ROCS_ColorScore>
-6.936

> <ROCS_Overlap>
1132.747

> <ROCS_Rank>
402                 

$$$$
untitled-dbase-43820_0
  -OEChem-06162310163D

 29 31  0     1  0  0  0  0  0999 V2000
  -14.2357   15.0754  -37.7024 C   0  0  0  0  0  0  0  0  0  0  0  0
  -12.1338   13.7107  -37.5865 C   0  0  0  0  0  0  0  0  0  0  0  0
  -12.1024   16.1323  -36.9112 C   0  0  0  0  0  0  0  0  0  0  0  0
  -13.0948   14.3478  -39.8127 C   0  0  0  0  0  0  0  0  0  0  0  0
  -13.0636   16.7623  -39.1394 C   0  0  0  0  0  0  0  0  0  0  0  0
  -10.9603   15.4023  -39.0267 C   0  0  0  0  0  0  0  0  0  0  0  0
  -13.4384   13.9417  -38.3709 C   0  0  2  0  0  0  0  0  0  0  0  0
  -13.4069   16.3720  -37.6932 C   0  0  1  0  0  0  0  0  0  0  0  0
  -11.2762   14.9996  -37.5679 C   0  0  0  0  0  0  0  0  0  0  0  0
  -12.2629   15.6355  -39.8026 C   0  0  0  0  0  0  0  0  0  0  0  0
   -9.9803   14.7650  -36.7881 C   0  0  0  0  0  0  0  0  0  0  0  0
  -11.9669   15.9875  -41.0784 F   0  0  0  0  0  0  0  0  0  0  0  0
   -9.2723   13.7831  -37.3639 F   0  0  0  0  0  0  0  0  0  0  0  0
   -9.2449   15.8857  -36.7771 F   0  0  0  0  0  0  0  0  0  0  0  0
  -10.2644   14.4162  -35.5253 F   0  0  0  0  0  0  0  0  0  0  0  0
  -15.1772   15.2379  -38.2414 H   0  0  0  0  0  0  0  0  0  0  0  0
  -14.5005   14.7927  -36.6762 H   0  0  0  0  0  0  0  0  0  0  0  0
  -12.3711   13.3985  -36.5613 H   0  0  0  0  0  0  0  0  0  0  0  0
  -11.5703   12.8873  -38.0441 H   0  0  0  0  0  0  0  0  0  0  0  0
  -11.5163   17.0599  -36.8805 H   0  0  0  0  0  0  0  0  0  0  0  0
  -12.3390   15.8746  -35.8708 H   0  0  0  0  0  0  0  0  0  0  0  0
  -12.5401   13.5467  -40.3166 H   0  0  0  0  0  0  0  0  0  0  0  0
  -14.0101   14.4973  -40.3988 H   0  0  0  0  0  0  0  0  0  0  0  0
  -13.9782   16.9597  -39.7121 H   0  0  0  0  0  0  0  0  0  0  0  0
  -12.4863   17.6950  -39.1598 H   0  0  0  0  0  0  0  0  0  0  0  0
  -10.3457   16.3114  -39.0555 H   0  0  0  0  0  0  0  0  0  0  0  0
  -10.3676   14.6248  -39.5258 H   0  0  0  0  0  0  0  0  0  0  0  0
  -14.0347   13.0226  -38.3763 H   0  0  0  0  0  0  0  0  0  0  0  0
  -13.9810   17.1753  -37.2182 H   0  0  0  0  0  0  0  0  0  0  0  0
  1  7  1  0  0  0  0
  1  8  1  0  0  0  0
  2  7  1  0  0  0  0
  2  9  1  0  0  0  0
  3  8  1  0  0  0  0
  3  9  1  0  0  0  0
  4  7  1  0  0  0  0
  4 10  1  0  0  0  0
  5  8  1  0  0  0  0
  5 10  1  0  0  0  0
  6  9  1  0  0  0  0
  6 10  1  0  0  0  0
  9 11  1  0  0  0  0
 10 12  1  0  0  0  0
 11 13  1  0  0  0  0
 11 14  1  0  0  0  0
 11 15  1  0  0  0  0
  1 16  1  0  0  0  0
  1 17  1  0  0  0  0
  2 18  1  0  0  0  0
  2 19  1  0  0  0  0
  3 20  1  0  0  0  0
  3 21  1  0  0  0  0
  4 22  1  0  0  0  0
  4 23  1  0  0  0  0
  5 24  1  0  0  0  0
  5 25  1  0  0  0  0
  6 26  1  0  0  0  0
  6 27  1  0  0  0  0
  7 28  1  0  0  0  0
  8 29  1  0  0  0  0
M  END
> <id>
EN300-27695130

> <smiles>
FC(F)(F)C1(CC2CC3CC(F)(C2)C1)C3

> <IUPAC Name>
1-fluoro-3-(trifluoromethyl)adamantane

> <CAS>
40556-45-4

> <Purity>
95

> <URL>
https://www.enaminestore.com/catalog/EN300-27695130

> <ROCS_ShapeQuery>
x1247relevant_x1083L0AP1_x1305L0BP1_

> <ROCS_TanimotoCombo>
0.794 

> <ROCS_ShapeTanimoto>
0.543 

> <ROCS_ColorTanimoto>
0.250 

> <ROCS_RefTversky>
0.449 

> <ROCS_RefColorTversky>
0.269 

> <ROCS_RefTverskyCombo>
0.718 

> <ROCS_FitTversky>
1.626 

> <ROCS_FitColorTversky>
0.783 

> <ROCS_FitTverskyCombo>
2.409 

> <ROCS_ColorScore>
-5.671

> <ROCS_Overlap>
1323.495

> <ROCS_Rank>
403                 

$$$$
untitled-dbase-48620_1
  -OEChem-06162310163D

 30 32  0     1  0  0  0  0  0999 V2000
   -9.2056   15.1764  -36.8865 C   0  0  0  0  0  0  0  0  0  0  0  0
  -11.7893   15.8943  -39.5473 C   0  0  0  0  0  0  0  0  0  0  0  0
  -13.0153   13.8034  -39.0947 C   0  0  0  0  0  0  0  0  0  0  0  0
  -11.5165   13.6165  -36.3634 C   0  0  0  0  0  0  0  0  0  0  0  0
  -13.0135   16.6821  -39.0597 C   0  0  0  0  0  0  0  0  0  0  0  0
  -14.2044   14.6393  -38.5959 C   0  0  0  0  0  0  0  0  0  0  0  0
  -10.2175   12.8915  -36.6428 C   0  0  0  0  0  0  0  0  0  0  0  0
  -12.8864   15.6845  -36.8715 C   0  0  0  0  0  0  0  0  0  0  0  0
  -11.7098   14.5533  -38.7869 C   0  0  0  0  0  0  0  0  0  0  0  0
  -11.6317   14.8541  -37.2609 C   0  0  2  0  0  0  0  0  0  0  0  0
   -9.1025   13.8107  -36.7002 N   0  0  0  0  0  0  0  0  0  0  0  0
  -13.7714   15.9373  -38.0335 N   0  0  0  0  0  0  0  0  0  0  0  0
   -8.2213   15.9139  -36.9092 O   0  0  0  0  0  0  0  0  0  0  0  0
  -10.4669   15.6948  -37.0160 O   0  0  0  0  0  0  0  0  0  0  0  0
  -11.8729   15.7082  -40.6251 H   0  0  0  0  0  0  0  0  0  0  0  0
  -10.8766   16.4823  -39.3986 H   0  0  0  0  0  0  0  0  0  0  0  0
  -13.0218   12.8130  -38.6280 H   0  0  0  0  0  0  0  0  0  0  0  0
  -13.1054   13.6412  -40.1758 H   0  0  0  0  0  0  0  0  0  0  0  0
  -12.3660   12.9363  -36.4812 H   0  0  0  0  0  0  0  0  0  0  0  0
  -11.5086   13.9319  -35.3110 H   0  0  0  0  0  0  0  0  0  0  0  0
  -12.6986   17.6529  -38.6569 H   0  0  0  0  0  0  0  0  0  0  0  0
  -13.6703   16.9157  -39.9070 H   0  0  0  0  0  0  0  0  0  0  0  0
  -14.9106   14.8109  -39.4180 H   0  0  0  0  0  0  0  0  0  0  0  0
  -14.7663   14.0773  -37.8393 H   0  0  0  0  0  0  0  0  0  0  0  0
  -10.0053   12.1572  -35.8592 H   0  0  0  0  0  0  0  0  0  0  0  0
  -10.2508   12.3560  -37.5966 H   0  0  0  0  0  0  0  0  0  0  0  0
  -13.4769   15.1700  -36.1025 H   0  0  0  0  0  0  0  0  0  0  0  0
  -12.5979   16.6450  -36.4250 H   0  0  0  0  0  0  0  0  0  0  0  0
  -10.8384   13.9962  -39.1450 H   0  0  0  0  0  0  0  0  0  0  0  0
   -8.1688   13.4192  -36.6229 H   0  0  0  0  0  0  0  0  0  0  0  0
  1 11  1  0  0  0  0
  1 13  2  0  0  0  0
  1 14  1  0  0  0  0
  2  5  1  0  0  0  0
  2  9  1  0  0  0  0
  3  6  1  0  0  0  0
  3  9  1  0  0  0  0
  4  7  1  0  0  0  0
  4 10  1  0  0  0  0
  5 12  1  0  0  0  0
  6 12  1  0  0  0  0
  7 11  1  0  0  0  0
  8 10  1  0  0  0  0
  8 12  1  0  0  0  0
  9 10  1  0  0  0  0
 10 14  1  0  0  0  0
  2 15  1  0  0  0  0
  2 16  1  0  0  0  0
  3 17  1  0  0  0  0
  3 18  1  0  0  0  0
  4 19  1  0  0  0  0
  4 20  1  0  0  0  0
  5 21  1  0  0  0  0
  5 22  1  0  0  0  0
  6 23  1  0  0  0  0
  6 24  1  0  0  0  0
  7 25  1  0  0  0  0
  7 26  1  0  0  0  0
  8 27  1  0  0  0  0
  8 28  1  0  0  0  0
  9 29  1  0  0  0  0
 11 30  1  0  0  0  0
M  END
> <id>
EN300-802947

> <smiles>
O=C1NCCC2(CN3CCC2CC3)O1

> <MDLNUMBER>
MFCD24600221

> <IUPAC Name>
4-azaspiro[bicyclo[2.2.2]octane-2,2'-[1,5]oxazinane]-6'-one

> <CAS>
313643-38-8

> <URL>
https://www.enaminestore.com/catalog/EN300-802947

> <ROCS_ShapeQuery>
x1247relevant_x1083L0AP1_x1305L0BP1_

> <ROCS_TanimotoCombo>
0.794 

> <ROCS_ShapeTanimoto>
0.493 

> <ROCS_ColorTanimoto>
0.301 

> <ROCS_RefTversky>
0.415 

> <ROCS_RefColorTversky>
0.347 

> <ROCS_RefTverskyCombo>
0.762 

> <ROCS_FitTversky>
1.609 

> <ROCS_FitColorTversky>
0.693 

> <ROCS_FitTverskyCombo>
2.302 

> <ROCS_ColorScore>
-7.384

> <ROCS_Overlap>
1221.894

> <ROCS_Rank>
404                 

$$$$
untitled-dbase-14627_1
  -OEChem-06162310163D

 33 36  0     1  0  0  0  0  0999 V2000
   -8.4052   15.8809  -34.7252 C   0  0  0  0  0  0  0  0  0  0  0  0
   -9.1080   17.0160  -34.3909 C   0  0  0  0  0  0  0  0  0  0  0  0
   -9.0651   15.1214  -35.7351 C   0  0  0  0  0  0  0  0  0  0  0  0
  -10.2633   15.6968  -36.1260 C   0  0  0  0  0  0  0  0  0  0  0  0
   -8.5844   13.8436  -36.3384 C   0  0  0  0  0  0  0  0  0  0  0  0
  -12.6357   14.4544  -39.8781 C   0  0  0  0  0  0  0  0  0  0  0  0
  -13.5384   13.8310  -38.7965 C   0  0  0  0  0  0  0  0  0  0  0  0
  -11.1433   16.0343  -38.4854 C   0  0  0  0  0  0  0  0  0  0  0  0
  -12.6566   14.9838  -36.6553 C   0  0  0  0  0  0  0  0  0  0  0  0
   -9.2806   13.5879  -37.6789 C   0  0  0  0  0  0  0  0  0  0  0  0
  -12.3023   15.8950  -39.4883 C   0  0  2  0  0  0  0  0  0  0  0  0
  -13.7876   14.8591  -37.6925 C   0  0  1  0  0  0  0  0  0  0  0  0
  -11.1933   15.1269  -37.2084 C   0  0  0  0  0  0  0  0  0  0  0  0
  -10.7374   13.7452  -37.5643 N   0  0  0  0  0  0  0  0  0  0  0  0
  -10.5516   17.1658  -35.2930 S   0  0  0  0  0  0  0  0  0  0  0  0
  -13.8200   16.3905  -38.6473 S   0  0  0  0  0  0  0  0  0  0  0  0
   -7.4612   15.6121  -34.2687 H   0  0  0  0  0  0  0  0  0  0  0  0
   -8.8380   17.7670  -33.6620 H   0  0  0  0  0  0  0  0  0  0  0  0
   -7.4992   13.8749  -36.4878 H   0  0  0  0  0  0  0  0  0  0  0  0
   -8.7990   13.0216  -35.6442 H   0  0  0  0  0  0  0  0  0  0  0  0
  -11.7521   13.8599  -40.1261 H   0  0  0  0  0  0  0  0  0  0  0  0
  -13.2100   14.4722  -40.8167 H   0  0  0  0  0  0  0  0  0  0  0  0
  -14.4969   13.5614  -39.2628 H   0  0  0  0  0  0  0  0  0  0  0  0
  -13.1445   12.8884  -38.4039 H   0  0  0  0  0  0  0  0  0  0  0  0
  -10.2056   15.8637  -39.0293 H   0  0  0  0  0  0  0  0  0  0  0  0
  -11.0880   17.0918  -38.1903 H   0  0  0  0  0  0  0  0  0  0  0  0
  -12.9075   15.8266  -35.9981 H   0  0  0  0  0  0  0  0  0  0  0  0
  -12.6988   14.1055  -35.9939 H   0  0  0  0  0  0  0  0  0  0  0  0
   -8.8744   14.2435  -38.4570 H   0  0  0  0  0  0  0  0  0  0  0  0
   -9.0619   12.5613  -37.9946 H   0  0  0  0  0  0  0  0  0  0  0  0
  -12.1217   16.5196  -40.3684 H   0  0  0  0  0  0  0  0  0  0  0  0
  -14.7456   14.6883  -37.1922 H   0  0  0  0  0  0  0  0  0  0  0  0
  -11.1627   13.3966  -38.4089 H   0  0  0  0  0  0  0  0  0  0  0  0
  1  2  2  0  0  0  0
  1  3  1  0  0  0  0
  2 15  1  0  0  0  0
  3  4  2  0  0  0  0
  3  5  1  0  0  0  0
  4 13  1  0  0  0  0
  4 15  1  0  0  0  0
  5 10  1  0  0  0  0
  6  7  1  0  0  0  0
  6 11  1  0  0  0  0
  7 12  1  0  0  0  0
  8 11  1  0  0  0  0
  8 13  1  0  0  0  0
  9 12  1  0  0  0  0
  9 13  1  0  0  0  0
 10 14  1  0  0  0  0
 11 16  1  0  0  0  0
 12 16  1  0  0  0  0
 13 14  1  0  0  0  0
  1 17  1  0  0  0  0
  2 18  1  0  0  0  0
  5 19  1  0  0  0  0
  5 20  1  0  0  0  0
  6 21  1  0  0  0  0
  6 22  1  0  0  0  0
  7 23  1  0  0  0  0
  7 24  1  0  0  0  0
  8 25  1  0  0  0  0
  8 26  1  0  0  0  0
  9 27  1  0  0  0  0
  9 28  1  0  0  0  0
 10 29  1  0  0  0  0
 10 30  1  0  0  0  0
 11 31  1  0  0  0  0
 12 32  1  0  0  0  0
 14 33  1  0  0  0  0
M  END
> <id>
EN300-1075508

> <smiles>
C1CC2CC3(CC1S2)NCCC=4C=CSC43

> <IUPAC Name>
5',6'-dihydro-4'H-8-thiaspiro[bicyclo[3.2.1]octane-3,7'-thieno[2,3-c]pyridine]

> <URL>
https://www.enaminestore.com/catalog/EN300-1075508

> <ROCS_ShapeQuery>
x1247relevant_x1083L0AP1_x1305L0BP1_

> <ROCS_TanimotoCombo>
0.794 

> <ROCS_ShapeTanimoto>
0.441 

> <ROCS_ColorTanimoto>
0.352 

> <ROCS_RefTversky>
0.391 

> <ROCS_RefColorTversky>
0.386 

> <ROCS_RefTverskyCombo>
0.777 

> <ROCS_FitTversky>
1.418 

> <ROCS_FitColorTversky>
0.799 

> <ROCS_FitTverskyCombo>
2.217 

> <ROCS_ColorScore>
-8.206

> <ROCS_Overlap>
1150.707

> <ROCS_Rank>
405                 

$$$$
untitled-dbase-35034_18
  -OEChem-06162310163D

 37 39  0     1  0  0  0  0  0999 V2000
  -13.6870   15.0444  -39.2787 C   0  0  0  0  0  0  0  0  0  0  0  0
  -13.7573   17.5770  -39.2805 C   0  0  0  0  0  0  0  0  0  0  0  0
   -9.9672   15.6172  -37.7585 C   0  0  0  0  0  0  0  0  0  0  0  0
  -13.2351   13.9326  -38.3339 C   0  0  0  0  0  0  0  0  0  0  0  0
  -13.8227   17.7169  -40.7859 C   0  0  0  0  0  0  0  0  0  0  0  0
  -11.8733   16.5803  -40.2177 C   0  0  0  0  0  0  0  0  0  0  0  0
  -11.3856   15.1317  -35.9618 C   0  0  0  0  0  0  0  0  0  0  0  0
  -12.8795   16.3481  -39.0893 C   0  0  2  0  0  0  0  0  0  0  0  0
  -11.4310   15.2795  -37.4819 C   0  0  2  0  0  0  0  0  0  0  0  0
   -9.1769   14.8885  -36.6644 C   0  0  0  0  0  0  0  0  0  0  0  0
   -8.1254   15.8029  -36.0343 C   0  0  0  0  0  0  0  0  0  0  0  0
   -8.5125   13.6079  -37.1696 C   0  0  0  0  0  0  0  0  0  0  0  0
  -11.7970   14.0053  -38.1207 N   0  0  0  0  0  0  0  0  0  0  0  0
  -12.5921   17.1903  -41.3005 O   0  0  0  0  0  0  0  0  0  0  0  0
  -10.1269   14.5288  -35.6432 O   0  0  0  0  0  0  0  0  0  0  0  0
  -12.2840   16.3876  -37.7981 O   0  0  0  0  0  0  0  0  0  0  0  0
  -13.6251   14.6986  -40.3206 H   0  0  0  0  0  0  0  0  0  0  0  0
  -14.7525   15.2520  -39.0899 H   0  0  0  0  0  0  0  0  0  0  0  0
  -13.3611   18.4856  -38.8114 H   0  0  0  0  0  0  0  0  0  0  0  0
  -14.7677   17.3988  -38.8867 H   0  0  0  0  0  0  0  0  0  0  0  0
   -9.6833   15.2151  -38.7459 H   0  0  0  0  0  0  0  0  0  0  0  0
   -9.7329   16.6856  -37.7940 H   0  0  0  0  0  0  0  0  0  0  0  0
  -13.7495   14.0412  -37.3650 H   0  0  0  0  0  0  0  0  0  0  0  0
  -13.5263   12.9412  -38.7212 H   0  0  0  0  0  0  0  0  0  0  0  0
  -14.6658   17.1733  -41.2212 H   0  0  0  0  0  0  0  0  0  0  0  0
  -13.8917   18.7666  -41.0896 H   0  0  0  0  0  0  0  0  0  0  0  0
  -11.0355   17.2264  -39.9623 H   0  0  0  0  0  0  0  0  0  0  0  0
  -11.4676   15.6345  -40.5972 H   0  0  0  0  0  0  0  0  0  0  0  0
  -11.4588   16.0889  -35.4312 H   0  0  0  0  0  0  0  0  0  0  0  0
  -12.1685   14.4610  -35.5813 H   0  0  0  0  0  0  0  0  0  0  0  0
   -7.5817   15.2604  -35.2636 H   0  0  0  0  0  0  0  0  0  0  0  0
   -8.6114   16.6681  -35.5882 H   0  0  0  0  0  0  0  0  0  0  0  0
   -7.4261   16.1383  -36.7975 H   0  0  0  0  0  0  0  0  0  0  0  0
   -7.9668   13.1314  -36.3574 H   0  0  0  0  0  0  0  0  0  0  0  0
   -7.8197   13.8458  -37.9746 H   0  0  0  0  0  0  0  0  0  0  0  0
   -9.2712   12.9219  -37.5416 H   0  0  0  0  0  0  0  0  0  0  0  0
  -11.5097   13.2402  -37.5196 H   0  0  0  0  0  0  0  0  0  0  0  0
  1  4  1  0  0  0  0
  1  8  1  0  0  0  0
  2  5  1  0  0  0  0
  2  8  1  0  0  0  0
  3  9  1  0  0  0  0
  3 10  1  0  0  0  0
  4 13  1  0  0  0  0
  5 14  1  0  0  0  0
  6  8  1  0  0  0  0
  6 14  1  0  0  0  0
  7  9  1  0  0  0  0
  7 15  1  0  0  0  0
  8 16  1  0  0  0  0
  9 13  1  0  0  0  0
  9 16  1  0  0  0  0
 10 11  1  0  0  0  0
 10 12  1  0  0  0  0
 10 15  1  0  0  0  0
  1 17  1  0  0  0  0
  1 18  1  0  0  0  0
  2 19  1  0  0  0  0
  2 20  1  0  0  0  0
  3 21  1  0  0  0  0
  3 22  1  0  0  0  0
  4 23  1  0  0  0  0
  4 24  1  0  0  0  0
  5 25  1  0  0  0  0
  5 26  1  0  0  0  0
  6 27  1  0  0  0  0
  6 28  1  0  0  0  0
  7 29  1  0  0  0  0
  7 30  1  0  0  0  0
 11 31  1  0  0  0  0
 11 32  1  0  0  0  0
 11 33  1  0  0  0  0
 12 34  1  0  0  0  0
 12 35  1  0  0  0  0
 12 36  1  0  0  0  0
 13 37  1  0  0  0  0
M  END
> <id>
EN300-1280330

> <smiles>
CC1(C)CC2(CO1)NCCC3(CCOC3)O2

> <IUPAC Name>
10,10-dimethyl-2,6,9-trioxa-12-azadispiro[4.1.4^{7}.3^{5}]tetradecane

> <CAS>
2169549-53-3

> <URL>
https://www.enaminestore.com/catalog/EN300-1280330

> <ROCS_ShapeQuery>
x1247relevant_x1083L0AP1_x1305L0BP1_

> <ROCS_TanimotoCombo>
0.793 

> <ROCS_ShapeTanimoto>
0.492 

> <ROCS_ColorTanimoto>
0.302 

> <ROCS_RefTversky>
0.424 

> <ROCS_RefColorTversky>
0.337 

> <ROCS_RefTverskyCombo>
0.761 

> <ROCS_FitTversky>
1.487 

> <ROCS_FitColorTversky>
0.741 

> <ROCS_FitTverskyCombo>
2.228 

> <ROCS_ColorScore>
-7.148

> <ROCS_Overlap>
1248.470

> <ROCS_Rank>
406                 

$$$$
untitled-dbase-24619_12
  -OEChem-06162310163D

 31 32  0     1  0  0  0  0  0999 V2000
   -9.0310   13.5661  -37.5126 C   0  0  0  0  0  0  0  0  0  0  0  0
  -13.1741   16.5844  -38.8682 C   0  0  0  0  0  0  0  0  0  0  0  0
  -11.0951   15.2382  -39.0323 C   0  0  0  0  0  0  0  0  0  0  0  0
   -8.5137   14.6170  -36.5422 C   0  0  0  0  0  0  0  0  0  0  0  0
  -14.0265   15.3111  -38.9226 C   0  0  0  0  0  0  0  0  0  0  0  0
  -10.5801   15.7257  -36.5490 C   0  0  0  0  0  0  0  0  0  0  0  0
  -12.6726   14.4439  -37.1388 C   0  0  0  0  0  0  0  0  0  0  0  0
  -11.2053   14.7379  -37.5557 C   0  0  1  0  0  0  0  0  0  0  0  0
  -11.7525   16.7104  -40.8204 C   0  0  0  0  0  0  0  0  0  0  0  0
  -10.4853   13.4454  -37.4327 N   0  0  0  0  0  0  0  0  0  0  0  0
  -11.8045   16.4811  -39.3754 N   0  0  1  0  0  0  0  0  0  0  0  0
   -9.1739   15.8623  -36.7624 O   0  0  0  0  0  0  0  0  0  0  0  0
  -13.4840   14.1609  -38.2738 O   0  0  0  0  0  0  0  0  0  0  0  0
   -8.7322   13.8178  -38.5369 H   0  0  0  0  0  0  0  0  0  0  0  0
   -8.5762   12.5971  -37.2780 H   0  0  0  0  0  0  0  0  0  0  0  0
  -13.7183   17.4194  -39.3703 H   0  0  0  0  0  0  0  0  0  0  0  0
  -13.1748   16.8973  -37.7981 H   0  0  0  0  0  0  0  0  0  0  0  0
  -10.0228   15.3897  -39.2528 H   0  0  0  0  0  0  0  0  0  0  0  0
  -11.4068   14.4272  -39.7197 H   0  0  0  0  0  0  0  0  0  0  0  0
   -8.6525   14.3078  -35.4987 H   0  0  0  0  0  0  0  0  0  0  0  0
   -7.4417   14.7746  -36.6992 H   0  0  0  0  0  0  0  0  0  0  0  0
  -14.9931   15.5020  -38.4479 H   0  0  0  0  0  0  0  0  0  0  0  0
  -14.2291   15.0509  -39.9655 H   0  0  0  0  0  0  0  0  0  0  0  0
  -11.0159   16.7260  -36.6498 H   0  0  0  0  0  0  0  0  0  0  0  0
  -10.7497   15.4087  -35.5110 H   0  0  0  0  0  0  0  0  0  0  0  0
  -12.7453   13.6490  -36.3834 H   0  0  0  0  0  0  0  0  0  0  0  0
  -13.1054   15.3430  -36.6791 H   0  0  0  0  0  0  0  0  0  0  0  0
  -10.7124   16.6259  -41.1685 H   0  0  0  0  0  0  0  0  0  0  0  0
  -12.3727   15.9605  -41.3331 H   0  0  0  0  0  0  0  0  0  0  0  0
  -12.1336   17.7174  -41.0457 H   0  0  0  0  0  0  0  0  0  0  0  0
  -10.8176   12.7923  -38.1430 H   0  0  0  0  0  0  0  0  0  0  0  0
  1  4  1  0  0  0  0
  1 10  1  0  0  0  0
  2  5  1  0  0  0  0
  2 11  1  0  0  0  0
  3  8  1  0  0  0  0
  3 11  1  0  0  0  0
  4 12  1  0  0  0  0
  5 13  1  0  0  0  0
  6  8  1  0  0  0  0
  6 12  1  0  0  0  0
  7  8  1  0  0  0  0
  7 13  1  0  0  0  0
  8 10  1  0  0  0  0
  9 11  1  0  0  0  0
  1 14  1  0  0  0  0
  1 15  1  0  0  0  0
  2 16  1  0  0  0  0
  2 17  1  0  0  0  0
  3 18  1  0  0  0  0
  3 19  1  0  0  0  0
  4 20  1  0  0  0  0
  4 21  1  0  0  0  0
  5 22  1  0  0  0  0
  5 23  1  0  0  0  0
  6 24  1  0  0  0  0
  6 25  1  0  0  0  0
  7 26  1  0  0  0  0
  7 27  1  0  0  0  0
  9 28  1  0  0  0  0
  9 29  1  0  0  0  0
  9 30  1  0  0  0  0
 10 31  1  0  0  0  0
M  END
> <id>
EN300-6488727

> <smiles>
CN1CCOCC2(COCCN2)C1

> <MDLNUMBER>
MFCD31668185

> <IUPAC Name>
11-methyl-4,8-dioxa-1,11-diazaspiro[5.6]dodecane

> <CAS>
2243505-74-8

> <Purity>
95

> <URL>
https://www.enaminestore.com/catalog/EN300-6488727

> <ROCS_ShapeQuery>
x1247relevant_x1083L0AP1_x1305L0BP1_

> <ROCS_TanimotoCombo>
0.793 

> <ROCS_ShapeTanimoto>
0.484 

> <ROCS_ColorTanimoto>
0.309 

> <ROCS_RefTversky>
0.402 

> <ROCS_RefColorTversky>
0.323 

> <ROCS_RefTverskyCombo>
0.725 

> <ROCS_FitTversky>
1.723 

> <ROCS_FitColorTversky>
0.880 

> <ROCS_FitTverskyCombo>
2.603 

> <ROCS_ColorScore>
-6.813

> <ROCS_Overlap>
1182.565

> <ROCS_Rank>
407                 

$$$$
untitled-dbase-41385_24
  -OEChem-06162310163D

 35 36  0     1  0  0  0  0  0999 V2000
  -12.2628   16.1974  -39.6768 C   0  0  0  0  0  0  0  0  0  0  0  0
  -10.6470   14.3252  -36.7318 C   0  0  0  0  0  0  0  0  0  0  0  0
  -12.1373   16.8493  -38.3015 C   0  0  0  0  0  0  0  0  0  0  0  0
  -12.0055   14.6955  -39.7762 C   0  0  0  0  0  0  0  0  0  0  0  0
  -14.0159   15.4356  -37.3516 C   0  0  0  0  0  0  0  0  0  0  0  0
  -13.9405   14.1694  -38.2240 C   0  0  0  0  0  0  0  0  0  0  0  0
  -12.5599   15.8857  -37.1831 C   0  0  1  0  0  0  0  0  0  0  0  0
  -12.4448   13.9662  -38.4985 C   0  0  2  0  0  0  0  0  0  0  0  0
   -7.7962   14.2948  -36.5305 C   0  0  0  0  0  0  0  0  0  0  0  0
   -7.8440   12.9746  -38.6668 C   0  0  0  0  0  0  0  0  0  0  0  0
   -8.7421   15.3198  -38.6255 C   0  0  0  0  0  0  0  0  0  0  0  0
   -8.5603   14.0299  -37.8269 C   0  0  0  0  0  0  0  0  0  0  0  0
  -11.8260   14.6485  -37.3729 N   0  0  0  0  0  0  0  0  0  0  0  0
  -12.4578   16.8762  -40.6854 O   0  0  0  0  0  0  0  0  0  0  0  0
  -10.3407   14.7197  -35.6091 O   0  0  0  0  0  0  0  0  0  0  0  0
   -9.8538   13.5126  -37.4958 O   0  0  0  0  0  0  0  0  0  0  0  0
  -11.0931   17.1537  -38.1697 H   0  0  0  0  0  0  0  0  0  0  0  0
  -12.7662   17.7459  -38.2826 H   0  0  0  0  0  0  0  0  0  0  0  0
  -12.5546   14.3047  -40.6396 H   0  0  0  0  0  0  0  0  0  0  0  0
  -10.9335   14.5502  -39.9504 H   0  0  0  0  0  0  0  0  0  0  0  0
  -14.6504   16.2036  -37.8060 H   0  0  0  0  0  0  0  0  0  0  0  0
  -14.4489   15.1781  -36.3778 H   0  0  0  0  0  0  0  0  0  0  0  0
  -14.3412   13.3185  -37.6600 H   0  0  0  0  0  0  0  0  0  0  0  0
  -14.5329   14.2713  -39.1391 H   0  0  0  0  0  0  0  0  0  0  0  0
  -12.3672   16.3271  -36.2004 H   0  0  0  0  0  0  0  0  0  0  0  0
  -12.1717   12.9081  -38.5444 H   0  0  0  0  0  0  0  0  0  0  0  0
   -8.3071   15.0517  -35.9247 H   0  0  0  0  0  0  0  0  0  0  0  0
   -7.6895   13.3843  -35.9318 H   0  0  0  0  0  0  0  0  0  0  0  0
   -6.7958   14.6904  -36.7401 H   0  0  0  0  0  0  0  0  0  0  0  0
   -8.3888   12.7814  -39.5980 H   0  0  0  0  0  0  0  0  0  0  0  0
   -7.7954   12.0183  -38.1336 H   0  0  0  0  0  0  0  0  0  0  0  0
   -6.8244   13.2831  -38.9194 H   0  0  0  0  0  0  0  0  0  0  0  0
   -9.2902   15.1301  -39.5555 H   0  0  0  0  0  0  0  0  0  0  0  0
   -9.2870   16.0762  -38.0514 H   0  0  0  0  0  0  0  0  0  0  0  0
   -7.7717   15.7369  -38.9181 H   0  0  0  0  0  0  0  0  0  0  0  0
  1  3  1  0  0  0  0
  1  4  1  0  0  0  0
  1 14  2  0  0  0  0
  2 13  1  0  0  0  0
  2 15  2  0  0  0  0
  2 16  1  0  0  0  0
  3  7  1  0  0  0  0
  4  8  1  0  0  0  0
  5  6  1  0  0  0  0
  5  7  1  1  0  0  0
  6  8  1  1  0  0  0
  7 13  1  0  0  0  0
  8 13  1  0  0  0  0
  9 12  1  0  0  0  0
 10 12  1  0  0  0  0
 11 12  1  0  0  0  0
 12 16  1  0  0  0  0
  3 17  1  0  0  0  0
  3 18  1  0  0  0  0
  4 19  1  0  0  0  0
  4 20  1  0  0  0  0
  5 21  1  0  0  0  0
  5 22  1  0  0  0  0
  6 23  1  0  0  0  0
  6 24  1  0  0  0  0
  7 25  1  0  0  0  0
  8 26  1  0  0  0  0
  9 27  1  0  0  0  0
  9 28  1  0  0  0  0
  9 29  1  0  0  0  0
 10 30  1  0  0  0  0
 10 31  1  0  0  0  0
 10 32  1  0  0  0  0
 11 33  1  0  0  0  0
 11 34  1  0  0  0  0
 11 35  1  0  0  0  0
M  END
> <id>
EN300-1073113

> <smiles>
CC(C)(C)OC(=O)N1[C@H]2CC[C@@H]1CC(=O)C2

> <MDLNUMBER>
MFCD00673779

> <IUPAC Name>
tert-butyl (1R,5S)-3-oxo-8-azabicyclo[3.2.1]octane-8-carboxylate

> <Purity>
95

> <URL>
https://www.enaminestore.com/catalog/EN300-1073113

> <ROCS_ShapeQuery>
x1247relevant_x1083L0AP1_x1305L0BP1_

> <ROCS_TanimotoCombo>
0.793 

> <ROCS_ShapeTanimoto>
0.474 

> <ROCS_ColorTanimoto>
0.319 

> <ROCS_RefTversky>
0.412 

> <ROCS_RefColorTversky>
0.350 

> <ROCS_RefTverskyCombo>
0.762 

> <ROCS_FitTversky>
1.465 

> <ROCS_FitColorTversky>
0.781 

> <ROCS_FitTverskyCombo>
2.246 

> <ROCS_ColorScore>
-7.427

> <ROCS_Overlap>
1214.229

> <ROCS_Rank>
408                 

$$$$
untitled-dbase-28178_0
  -OEChem-06162310163D

 30 32  0     1  0  0  0  0  0999 V2000
   -9.1866   13.6172  -37.8301 C   0  0  0  0  0  0  0  0  0  0  0  0
  -11.1266   15.8733  -38.6036 C   0  0  0  0  0  0  0  0  0  0  0  0
   -8.4251   14.3197  -36.7153 C   0  0  0  0  0  0  0  0  0  0  0  0
  -10.2897   15.6535  -36.2080 C   0  0  0  0  0  0  0  0  0  0  0  0
  -12.6011   14.8907  -36.8383 C   0  0  0  0  0  0  0  0  0  0  0  0
  -14.1265   16.4779  -39.2623 C   0  0  0  0  0  0  0  0  0  0  0  0
  -14.2474   14.6862  -40.2763 C   0  0  0  0  0  0  0  0  0  0  0  0
  -11.1385   15.0051  -37.3184 C   0  0  1  0  0  0  0  0  0  0  0  0
  -13.3508   15.1642  -39.1279 C   0  0  0  0  0  0  0  0  0  0  0  0
  -10.6307   13.6390  -37.5830 N   0  0  0  0  0  0  0  0  0  0  0  0
  -11.9910   15.3272  -39.6596 N   0  0  0  0  0  0  0  0  0  0  0  0
   -8.9036   15.6546  -36.5553 O   0  0  0  0  0  0  0  0  0  0  0  0
  -14.8012   16.0117  -40.4554 O   0  0  0  0  0  0  0  0  0  0  0  0
  -13.4418   14.4277  -37.8954 O   0  0  0  0  0  0  0  0  0  0  0  0
   -8.9770   14.1040  -38.7904 H   0  0  0  0  0  0  0  0  0  0  0  0
   -8.8476   12.5784  -37.9270 H   0  0  0  0  0  0  0  0  0  0  0  0
  -11.4623   16.8933  -38.3822 H   0  0  0  0  0  0  0  0  0  0  0  0
  -10.1043   15.9682  -38.9903 H   0  0  0  0  0  0  0  0  0  0  0  0
   -8.5813   13.7936  -35.7685 H   0  0  0  0  0  0  0  0  0  0  0  0
   -7.3460   14.3369  -36.9101 H   0  0  0  0  0  0  0  0  0  0  0  0
  -10.6045   16.6870  -36.0066 H   0  0  0  0  0  0  0  0  0  0  0  0
  -10.3750   15.1065  -35.2623 H   0  0  0  0  0  0  0  0  0  0  0  0
  -12.6920   14.1899  -35.9959 H   0  0  0  0  0  0  0  0  0  0  0  0
  -13.0038   15.8541  -36.5021 H   0  0  0  0  0  0  0  0  0  0  0  0
  -14.8476   16.6789  -38.4611 H   0  0  0  0  0  0  0  0  0  0  0  0
  -13.5525   17.3915  -39.4536 H   0  0  0  0  0  0  0  0  0  0  0  0
  -13.7561   14.3290  -41.1865 H   0  0  0  0  0  0  0  0  0  0  0  0
  -15.0281   13.9730  -39.9914 H   0  0  0  0  0  0  0  0  0  0  0  0
  -11.1025   13.2676  -38.4044 H   0  0  0  0  0  0  0  0  0  0  0  0
  -11.9496   15.9438  -40.4675 H   0  0  0  0  0  0  0  0  0  0  0  0
  1  3  1  0  0  0  0
  1 10  1  0  0  0  0
  2  8  1  0  0  0  0
  2 11  1  0  0  0  0
  3 12  1  0  0  0  0
  4  8  1  0  0  0  0
  4 12  1  0  0  0  0
  5  8  1  0  0  0  0
  5 14  1  0  0  0  0
  6  9  1  0  0  0  0
  6 13  1  0  0  0  0
  7  9  1  0  0  0  0
  7 13  1  0  0  0  0
  8 10  1  0  0  0  0
  9 11  1  0  0  0  0
  9 14  1  0  0  0  0
  1 15  1  0  0  0  0
  1 16  1  0  0  0  0
  2 17  1  0  0  0  0
  2 18  1  0  0  0  0
  3 19  1  0  0  0  0
  3 20  1  0  0  0  0
  4 21  1  0  0  0  0
  4 22  1  0  0  0  0
  5 23  1  0  0  0  0
  5 24  1  0  0  0  0
  6 25  1  0  0  0  0
  6 26  1  0  0  0  0
  7 27  1  0  0  0  0
  7 28  1  0  0  0  0
 10 29  1  0  0  0  0
 11 30  1  0  0  0  0
M  END
> <id>
EN300-1280606

> <smiles>
C1OCC12NCC3(COCCN3)CO2

> <IUPAC Name>
2,5,11-trioxa-8,14-diazadispiro[3.2.5^{7}.2^{4}]tetradecane

> <CAS>
2168113-21-9

> <URL>
https://www.enaminestore.com/catalog/EN300-1280606

> <ROCS_ShapeQuery>
x1247relevant_x1083L0AP1_x1305L0BP1_

> <ROCS_TanimotoCombo>
0.793 

> <ROCS_ShapeTanimoto>
0.502 

> <ROCS_ColorTanimoto>
0.291 

> <ROCS_RefTversky>
0.420 

> <ROCS_RefColorTversky>
0.338 

> <ROCS_RefTverskyCombo>
0.757 

> <ROCS_FitTversky>
1.642 

> <ROCS_FitColorTversky>
0.678 

> <ROCS_FitTverskyCombo>
2.320 

> <ROCS_ColorScore>
-7.181

> <ROCS_Overlap>
1234.713

> <ROCS_Rank>
409                 

$$$$
untitled-dbase-21613_0
  -OEChem-06162310163D

 31 33  0     1  0  0  0  0  0999 V2000
   -9.5401   14.6141  -35.6519 C   0  0  0  0  0  0  0  0  0  0  0  0
   -8.8405   14.2140  -36.7808 C   0  0  0  0  0  0  0  0  0  0  0  0
  -10.8484   15.0763  -35.7780 C   0  0  0  0  0  0  0  0  0  0  0  0
   -9.4508   14.2816  -38.0323 C   0  0  0  0  0  0  0  0  0  0  0  0
  -11.4799   15.1540  -37.0359 C   0  0  0  0  0  0  0  0  0  0  0  0
  -10.7716   14.7569  -38.1879 C   0  0  0  0  0  0  0  0  0  0  0  0
  -13.0774   16.8433  -38.0196 C   0  0  0  0  0  0  0  0  0  0  0  0
  -13.8647   14.4957  -37.4490 C   0  0  0  0  0  0  0  0  0  0  0  0
  -13.3450   16.4254  -39.4618 C   0  0  0  0  0  0  0  0  0  0  0  0
  -13.6734   14.0024  -38.8861 C   0  0  0  0  0  0  0  0  0  0  0  0
  -12.9165   15.6428  -37.0770 C   0  0  0  0  0  0  0  0  0  0  0  0
  -11.3440   14.7819  -39.5994 C   0  0  1  0  0  0  0  0  0  0  0  0
  -12.8769   14.9929  -39.7531 C   0  0  0  0  0  0  0  0  0  0  0  0
  -10.5975   15.7264  -40.4440 N   0  0  0  0  0  0  0  0  0  0  0  0
   -9.0730   14.5627  -34.6731 H   0  0  0  0  0  0  0  0  0  0  0  0
   -7.8226   13.8464  -36.6910 H   0  0  0  0  0  0  0  0  0  0  0  0
  -11.3804   15.3752  -34.8773 H   0  0  0  0  0  0  0  0  0  0  0  0
   -8.8834   13.9563  -38.9024 H   0  0  0  0  0  0  0  0  0  0  0  0
  -12.1935   17.4920  -37.9743 H   0  0  0  0  0  0  0  0  0  0  0  0
  -13.9208   17.4599  -37.6828 H   0  0  0  0  0  0  0  0  0  0  0  0
  -14.8987   14.8473  -37.3350 H   0  0  0  0  0  0  0  0  0  0  0  0
  -13.7517   13.6535  -36.7549 H   0  0  0  0  0  0  0  0  0  0  0  0
  -14.4262   16.4802  -39.6487 H   0  0  0  0  0  0  0  0  0  0  0  0
  -12.8957   17.1484  -40.1515 H   0  0  0  0  0  0  0  0  0  0  0  0
  -13.1878   13.0189  -38.8857 H   0  0  0  0  0  0  0  0  0  0  0  0
  -14.6642   13.8442  -39.3314 H   0  0  0  0  0  0  0  0  0  0  0  0
  -13.1914   15.9902  -36.0719 H   0  0  0  0  0  0  0  0  0  0  0  0
  -11.1461   13.7814  -40.0109 H   0  0  0  0  0  0  0  0  0  0  0  0
  -13.1255   14.7766  -40.8021 H   0  0  0  0  0  0  0  0  0  0  0  0
   -9.6392   15.4867  -40.3883 H   0  0  0  0  0  0  0  0  0  0  0  0
  -10.9365   15.6342  -41.3689 H   0  0  0  0  0  0  0  0  0  0  0  0
  1  2  2  0  0  0  0
  1  3  1  0  0  0  0
  2  4  1  0  0  0  0
  3  5  2  0  0  0  0
  4  6  2  0  0  0  0
  5  6  1  0  0  0  0
  5 11  1  0  0  0  0
  6 12  1  0  0  0  0
  7  9  1  0  0  0  0
  7 11  1  0  0  0  0
  8 10  1  0  0  0  0
  8 11  1  0  0  0  0
  9 13  1  0  0  0  0
 10 13  1  0  0  0  0
 12 13  1  0  0  0  0
 12 14  1  0  0  0  0
  1 15  1  0  0  0  0
  2 16  1  0  0  0  0
  3 17  1  0  0  0  0
  4 18  1  0  0  0  0
  7 19  1  0  0  0  0
  7 20  1  0  0  0  0
  8 21  1  0  0  0  0
  8 22  1  0  0  0  0
  9 23  1  0  0  0  0
  9 24  1  0  0  0  0
 10 25  1  0  0  0  0
 10 26  1  0  0  0  0
 11 27  1  0  0  0  0
 12 28  1  0  0  0  0
 13 29  1  0  0  0  0
 14 30  1  0  0  0  0
 14 31  1  0  0  0  0
M  END
> <id>
EN300-27103387

> <smiles>
NC1C2CCC(CC2)C=3C=CC=CC13

> <MDLNUMBER>
MFCD32711076

> <IUPAC Name>
tricyclo[7.2.2.0,2,7]trideca-2,4,6-trien-8-amine

> <CAS>
2470435-74-4

> <URL>
https://www.enaminestore.com/catalog/EN300-27103387

> <ROCS_ShapeQuery>
x1247relevant_x1083L0AP1_x1305L0BP1_

> <ROCS_TanimotoCombo>
0.793 

> <ROCS_ShapeTanimoto>
0.471 

> <ROCS_ColorTanimoto>
0.322 

> <ROCS_RefTversky>
0.401 

> <ROCS_RefColorTversky>
0.349 

> <ROCS_RefTverskyCombo>
0.751 

> <ROCS_FitTversky>
1.582 

> <ROCS_FitColorTversky>
0.805 

> <ROCS_FitTverskyCombo>
2.387 

> <ROCS_ColorScore>
-7.401

> <ROCS_Overlap>
1180.787

> <ROCS_Rank>
410                 

$$$$
untitled-dbase-21682_0
  -OEChem-06162310163D

 31 33  0     1  0  0  0  0  0999 V2000
   -9.5401   14.6141  -35.6519 C   0  0  0  0  0  0  0  0  0  0  0  0
   -8.8405   14.2140  -36.7808 C   0  0  0  0  0  0  0  0  0  0  0  0
  -10.8484   15.0763  -35.7780 C   0  0  0  0  0  0  0  0  0  0  0  0
   -9.4508   14.2816  -38.0323 C   0  0  0  0  0  0  0  0  0  0  0  0
  -11.4799   15.1540  -37.0359 C   0  0  0  0  0  0  0  0  0  0  0  0
  -10.7716   14.7569  -38.1879 C   0  0  0  0  0  0  0  0  0  0  0  0
  -13.0774   16.8433  -38.0196 C   0  0  0  0  0  0  0  0  0  0  0  0
  -13.8647   14.4957  -37.4490 C   0  0  0  0  0  0  0  0  0  0  0  0
  -13.3450   16.4254  -39.4618 C   0  0  0  0  0  0  0  0  0  0  0  0
  -13.6734   14.0024  -38.8861 C   0  0  0  0  0  0  0  0  0  0  0  0
  -12.9165   15.6428  -37.0770 C   0  0  0  0  0  0  0  0  0  0  0  0
  -11.3440   14.7819  -39.5994 C   0  0  1  0  0  0  0  0  0  0  0  0
  -12.8769   14.9929  -39.7531 C   0  0  0  0  0  0  0  0  0  0  0  0
  -10.5975   15.7264  -40.4440 N   0  0  0  0  0  0  0  0  0  0  0  0
   -9.0730   14.5627  -34.6731 H   0  0  0  0  0  0  0  0  0  0  0  0
   -7.8226   13.8464  -36.6910 H   0  0  0  0  0  0  0  0  0  0  0  0
  -11.3804   15.3752  -34.8773 H   0  0  0  0  0  0  0  0  0  0  0  0
   -8.8834   13.9563  -38.9024 H   0  0  0  0  0  0  0  0  0  0  0  0
  -12.1935   17.4920  -37.9743 H   0  0  0  0  0  0  0  0  0  0  0  0
  -13.9208   17.4599  -37.6828 H   0  0  0  0  0  0  0  0  0  0  0  0
  -14.8987   14.8473  -37.3350 H   0  0  0  0  0  0  0  0  0  0  0  0
  -13.7517   13.6535  -36.7549 H   0  0  0  0  0  0  0  0  0  0  0  0
  -14.4262   16.4802  -39.6487 H   0  0  0  0  0  0  0  0  0  0  0  0
  -12.8957   17.1484  -40.1515 H   0  0  0  0  0  0  0  0  0  0  0  0
  -13.1878   13.0189  -38.8857 H   0  0  0  0  0  0  0  0  0  0  0  0
  -14.6642   13.8442  -39.3314 H   0  0  0  0  0  0  0  0  0  0  0  0
  -13.1914   15.9902  -36.0719 H   0  0  0  0  0  0  0  0  0  0  0  0
  -11.1461   13.7814  -40.0109 H   0  0  0  0  0  0  0  0  0  0  0  0
  -13.1255   14.7766  -40.8021 H   0  0  0  0  0  0  0  0  0  0  0  0
   -9.6392   15.4867  -40.3883 H   0  0  0  0  0  0  0  0  0  0  0  0
  -10.9365   15.6342  -41.3689 H   0  0  0  0  0  0  0  0  0  0  0  0
  1  2  2  0  0  0  0
  1  3  1  0  0  0  0
  2  4  1  0  0  0  0
  3  5  2  0  0  0  0
  4  6  2  0  0  0  0
  5  6  1  0  0  0  0
  5 11  1  0  0  0  0
  6 12  1  0  0  0  0
  7  9  1  0  0  0  0
  7 11  1  0  0  0  0
  8 10  1  0  0  0  0
  8 11  1  0  0  0  0
  9 13  1  0  0  0  0
 10 13  1  0  0  0  0
 12 13  1  0  0  0  0
 12 14  1  0  0  0  0
  1 15  1  0  0  0  0
  2 16  1  0  0  0  0
  3 17  1  0  0  0  0
  4 18  1  0  0  0  0
  7 19  1  0  0  0  0
  7 20  1  0  0  0  0
  8 21  1  0  0  0  0
  8 22  1  0  0  0  0
  9 23  1  0  0  0  0
  9 24  1  0  0  0  0
 10 25  1  0  0  0  0
 10 26  1  0  0  0  0
 11 27  1  0  0  0  0
 12 28  1  0  0  0  0
 13 29  1  0  0  0  0
 14 30  1  0  0  0  0
 14 31  1  0  0  0  0
M  END
> <id>
EN300-27103386

> <smiles>
Cl.NC1C2CCC(CC2)C=3C=CC=CC13

> <MDLNUMBER>
MFCD32711145

> <IUPAC Name>
tricyclo[7.2.2.0,2,7]trideca-2,4,6-trien-8-amine hydrochloride

> <CAS>
2470436-70-3

> <Purity>
95

> <URL>
https://www.enaminestore.com/catalog/EN300-27103386

> <Saltdate>
Cl

> <ROCS_ShapeQuery>
x1247relevant_x1083L0AP1_x1305L0BP1_

> <ROCS_TanimotoCombo>
0.793 

> <ROCS_ShapeTanimoto>
0.471 

> <ROCS_ColorTanimoto>
0.322 

> <ROCS_RefTversky>
0.401 

> <ROCS_RefColorTversky>
0.349 

> <ROCS_RefTverskyCombo>
0.751 

> <ROCS_FitTversky>
1.582 

> <ROCS_FitColorTversky>
0.805 

> <ROCS_FitTverskyCombo>
2.387 

> <ROCS_ColorScore>
-7.401

> <ROCS_Overlap>
1180.787

> <ROCS_Rank>
411                 

$$$$
untitled-dbase-23799_0
  -OEChem-06162310163D

 34 36  0     1  0  0  0  0  0999 V2000
  -13.8173   16.1233  -37.2340 C   0  0  0  0  0  0  0  0  0  0  0  0
  -14.3957   15.6050  -39.5533 C   0  0  0  0  0  0  0  0  0  0  0  0
  -13.0735   13.7972  -37.0936 C   0  0  0  0  0  0  0  0  0  0  0  0
  -12.4006   16.9299  -39.0520 C   0  0  0  0  0  0  0  0  0  0  0  0
  -11.4311   15.6021  -37.2484 C   0  0  0  0  0  0  0  0  0  0  0  0
  -11.1493   14.8902  -39.5718 C   0  0  0  0  0  0  0  0  0  0  0  0
  -14.4234   14.9341  -37.7822 C   0  0  0  0  0  0  0  0  0  0  0  0
  -12.6671   15.6947  -38.1673 C   0  0  1  0  0  0  0  0  0  0  0  0
  -12.6186   15.9613  -40.1034 C   0  0  1  0  0  0  0  0  0  0  0  0
  -11.3792   14.2638  -37.7987 C   0  0  0  0  0  0  0  0  0  0  0  0
  -13.0577   13.9502  -39.2400 C   0  0  0  0  0  0  0  0  0  0  0  0
  -12.5166   16.4613  -41.5229 C   0  0  0  0  0  0  0  0  0  0  0  0
  -10.2965   13.4375  -37.3228 N   0  0  0  0  0  0  0  0  0  0  0  0
  -14.3510   17.0472  -37.4698 H   0  0  0  0  0  0  0  0  0  0  0  0
  -13.6455   16.0807  -36.1557 H   0  0  0  0  0  0  0  0  0  0  0  0
  -14.9025   14.9217  -40.2506 H   0  0  0  0  0  0  0  0  0  0  0  0
  -14.9487   16.5553  -39.5621 H   0  0  0  0  0  0  0  0  0  0  0  0
  -13.0377   13.9390  -36.0038 H   0  0  0  0  0  0  0  0  0  0  0  0
  -13.3082   12.7388  -37.2806 H   0  0  0  0  0  0  0  0  0  0  0  0
  -13.1311   17.7431  -39.0266 H   0  0  0  0  0  0  0  0  0  0  0  0
  -11.3967   17.3624  -39.0379 H   0  0  0  0  0  0  0  0  0  0  0  0
  -10.5679   16.2282  -37.4913 H   0  0  0  0  0  0  0  0  0  0  0  0
  -11.5966   15.6449  -36.1680 H   0  0  0  0  0  0  0  0  0  0  0  0
  -10.9826   14.0600  -40.2743 H   0  0  0  0  0  0  0  0  0  0  0  0
  -10.2483   15.5207  -39.5931 H   0  0  0  0  0  0  0  0  0  0  0  0
  -15.4253   14.6700  -37.4378 H   0  0  0  0  0  0  0  0  0  0  0  0
  -12.1023   14.1754  -39.5880 H   0  0  0  0  0  0  0  0  0  0  0  0
  -13.8349   14.5564  -39.5765 H   0  0  0  0  0  0  0  0  0  0  0  0
  -13.1300   13.5920  -38.2647 H   0  0  0  0  0  0  0  0  0  0  0  0
  -11.4724   16.6523  -41.7929 H   0  0  0  0  0  0  0  0  0  0  0  0
  -13.0774   17.3940  -41.6469 H   0  0  0  0  0  0  0  0  0  0  0  0
  -12.9213   15.7235  -42.2241 H   0  0  0  0  0  0  0  0  0  0  0  0
  -10.2364   13.5151  -36.3295 H   0  0  0  0  0  0  0  0  0  0  0  0
  -10.4724   12.4884  -37.5772 H   0  0  0  0  0  0  0  0  0  0  0  0
  1  7  1  0  0  0  0
  1  8  1  0  0  0  0
  2  7  1  0  0  0  0
  2  9  1  0  0  0  0
  3  7  1  0  0  0  0
  3 10  1  0  0  0  0
  4  8  1  0  0  0  0
  4  9  1  0  0  0  0
  5  8  1  0  0  0  0
  5 10  1  0  0  0  0
  6  9  1  0  0  0  0
  6 10  1  0  0  0  0
  8 11  1  1  0  0  0
  9 12  1  1  0  0  0
 10 13  1  0  0  0  0
  1 14  1  0  0  0  0
  1 15  1  0  0  0  0
  2 16  1  0  0  0  0
  2 17  1  0  0  0  0
  3 18  1  0  0  0  0
  3 19  1  0  0  0  0
  4 20  1  0  0  0  0
  4 21  1  0  0  0  0
  5 22  1  0  0  0  0
  5 23  1  0  0  0  0
  6 24  1  0  0  0  0
  6 25  1  0  0  0  0
  7 26  1  0  0  0  0
 11 27  1  0  0  0  0
 11 28  1  0  0  0  0
 11 29  1  0  0  0  0
 12 30  1  0  0  0  0
 12 31  1  0  0  0  0
 12 32  1  0  0  0  0
 13 33  1  0  0  0  0
 13 34  1  0  0  0  0
M  END
> <id>
EN300-27127270

> <smiles>
Cl.C[C@@]1(CC2C[C@@]3(C)C1)C[C@](N)(C2)C3

> <IUPAC Name>
(1S,3S,5S)-3,5-dimethyladamantan-1-amine hydrochloride

> <CAS>
41100-52-1

> <URL>
https://www.enaminestore.com/catalog/EN300-27127270

> <ROCS_ShapeQuery>
x1247relevant_x1083L0AP1_x1305L0BP1_

> <ROCS_TanimotoCombo>
0.793 

> <ROCS_ShapeTanimoto>
0.459 

> <ROCS_ColorTanimoto>
0.334 

> <ROCS_RefTversky>
0.390 

> <ROCS_RefColorTversky>
0.358 

> <ROCS_RefTverskyCombo>
0.747 

> <ROCS_FitTversky>
1.634 

> <ROCS_FitColorTversky>
0.833 

> <ROCS_FitTverskyCombo>
2.467 

> <ROCS_ColorScore>
-7.578

> <ROCS_Overlap>
1145.433

> <ROCS_Rank>
412                 

$$$$
untitled-dbase-45260_1
  -OEChem-06162310163D

 24 26  0     1  0  0  0  0  0999 V2000
  -12.4532   15.9126  -39.6259 C   0  0  0  0  0  0  0  0  0  0  0  0
  -13.3216   14.6815  -39.7415 C   0  0  0  0  0  0  0  0  0  0  0  0
  -13.8690   15.9560  -37.8096 C   0  0  0  0  0  0  0  0  0  0  0  0
  -10.2243   15.0109  -37.8262 C   0  0  0  0  0  0  0  0  0  0  0  0
  -11.4750   13.0370  -37.8279 C   0  0  0  0  0  0  0  0  0  0  0  0
  -12.4425   16.3882  -38.1853 C   0  0  1  0  0  0  0  0  0  0  0  0
  -13.6629   14.4932  -38.2480 C   0  0  2  0  0  0  0  0  0  0  0  0
  -11.6060   15.4181  -37.3425 C   0  0  1  0  0  0  0  0  0  0  0  0
  -12.4415   14.1179  -37.3727 C   0  0  2  0  0  0  0  0  0  0  0  0
  -10.1623   13.5889  -37.4749 N   0  0  0  0  0  0  0  0  0  0  0  0
  -11.8425   16.4324  -40.5468 O   0  0  0  0  0  0  0  0  0  0  0  0
  -14.2158   14.9290  -40.3235 H   0  0  0  0  0  0  0  0  0  0  0  0
  -12.8018   13.8342  -40.1900 H   0  0  0  0  0  0  0  0  0  0  0  0
  -14.0833   16.0607  -36.7404 H   0  0  0  0  0  0  0  0  0  0  0  0
  -14.6464   16.4670  -38.3892 H   0  0  0  0  0  0  0  0  0  0  0  0
  -10.0718   15.1785  -38.8876 H   0  0  0  0  0  0  0  0  0  0  0  0
   -9.4556   15.5460  -37.2713 H   0  0  0  0  0  0  0  0  0  0  0  0
  -11.6365   12.1210  -37.2594 H   0  0  0  0  0  0  0  0  0  0  0  0
  -11.5537   12.8047  -38.8865 H   0  0  0  0  0  0  0  0  0  0  0  0
  -12.2265   17.4463  -38.0732 H   0  0  0  0  0  0  0  0  0  0  0  0
  -14.5235   13.8459  -38.0879 H   0  0  0  0  0  0  0  0  0  0  0  0
  -11.5439   15.7956  -36.3017 H   0  0  0  0  0  0  0  0  0  0  0  0
  -12.7973   13.8890  -36.3431 H   0  0  0  0  0  0  0  0  0  0  0  0
   -9.4343   13.1338  -38.0168 H   0  0  0  0  0  0  0  0  0  0  0  0
  1  2  1  0  0  0  0
  1  6  1  6  0  0  0
  1 11  2  0  0  0  0
  2  7  1  6  0  0  0
  3  6  1  0  0  0  0
  3  7  1  0  0  0  0
  4  8  1  6  0  0  0
  4 10  1  0  0  0  0
  5  9  1  6  0  0  0
  5 10  1  0  0  0  0
  6  8  1  0  0  0  0
  7  9  1  0  0  0  0
  8  9  1  0  0  0  0
  2 12  1  0  0  0  0
  2 13  1  0  0  0  0
  3 14  1  0  0  0  0
  3 15  1  0  0  0  0
  4 16  1  0  0  0  0
  4 17  1  0  0  0  0
  5 18  1  0  0  0  0
  5 19  1  0  0  0  0
  6 20  1  0  0  0  0
  7 21  1  0  0  0  0
  8 22  1  0  0  0  0
  9 23  1  0  0  0  0
 10 24  1  0  0  0  0
M  END
> <id>
EN300-28270715

> <smiles>
O=C1C[C@@H]2C[C@H]1[C@@H]3CNC[C@H]23 |&1:3,5,6,10,r|

> <IUPAC Name>
rac-(1R,2S,6S,7R)-4-azatricyclo[5.2.1.0,2,6]decan-8-one

> <CAS>
2679823-40-4

> <URL>
https://www.enaminestore.com/catalog/EN300-28270715

> <ROCS_ShapeQuery>
x1247relevant_x1083L0AP1_x1305L0BP1_

> <ROCS_TanimotoCombo>
0.793 

> <ROCS_ShapeTanimoto>
0.443 

> <ROCS_ColorTanimoto>
0.350 

> <ROCS_RefTversky>
0.373 

> <ROCS_RefColorTversky>
0.394 

> <ROCS_RefTverskyCombo>
0.767 

> <ROCS_FitTversky>
1.730 

> <ROCS_FitColorTversky>
0.760 

> <ROCS_FitTverskyCombo>
2.490 

> <ROCS_ColorScore>
-8.377

> <ROCS_Overlap>
1095.356

> <ROCS_Rank>
413                 

$$$$
untitled-dbase-25901_25
  -OEChem-06162310163D

 33 34  0     1  0  0  0  0  0999 V2000
  -14.0213   15.2750  -37.3914 C   0  0  0  0  0  0  0  0  0  0  0  0
  -13.9198   14.1838  -38.1657 C   0  0  0  0  0  0  0  0  0  0  0  0
  -12.2787   16.2137  -39.6533 C   0  0  0  0  0  0  0  0  0  0  0  0
  -10.6217   14.3990  -36.8057 C   0  0  0  0  0  0  0  0  0  0  0  0
  -12.2840   16.8524  -38.2505 C   0  0  0  0  0  0  0  0  0  0  0  0
  -12.0818   14.6904  -39.7812 C   0  0  0  0  0  0  0  0  0  0  0  0
  -12.6466   15.8435  -37.1514 C   0  0  2  0  0  0  0  0  0  0  0  0
  -12.4693   13.9425  -38.4979 C   0  0  1  0  0  0  0  0  0  0  0  0
   -7.7693   14.5480  -36.7167 C   0  0  0  0  0  0  0  0  0  0  0  0
   -7.8193   13.2655  -38.8758 C   0  0  0  0  0  0  0  0  0  0  0  0
   -8.8622   15.5469  -38.7520 C   0  0  0  0  0  0  0  0  0  0  0  0
   -8.5667   14.2574  -37.9873 C   0  0  0  0  0  0  0  0  0  0  0  0
  -11.8441   14.6575  -37.3947 N   0  0  0  0  0  0  0  0  0  0  0  0
  -12.3442   16.9210  -40.6610 O   0  0  0  0  0  0  0  0  0  0  0  0
  -10.2968   14.7931  -35.6881 O   0  0  0  0  0  0  0  0  0  0  0  0
   -9.8103   13.6523  -37.6164 O   0  0  0  0  0  0  0  0  0  0  0  0
  -14.9430   15.7009  -37.0256 H   0  0  0  0  0  0  0  0  0  0  0  0
  -14.7469   13.5898  -38.5232 H   0  0  0  0  0  0  0  0  0  0  0  0
  -11.2801   17.2549  -38.0732 H   0  0  0  0  0  0  0  0  0  0  0  0
  -12.9991   17.6827  -38.2556 H   0  0  0  0  0  0  0  0  0  0  0  0
  -12.6865   14.3373  -40.6242 H   0  0  0  0  0  0  0  0  0  0  0  0
  -11.0242   14.5176  -40.0110 H   0  0  0  0  0  0  0  0  0  0  0  0
  -12.4993   16.2291  -36.1395 H   0  0  0  0  0  0  0  0  0  0  0  0
  -12.1967   12.8846  -38.5088 H   0  0  0  0  0  0  0  0  0  0  0  0
   -8.3025   15.2597  -36.0762 H   0  0  0  0  0  0  0  0  0  0  0  0
   -7.5809   13.6358  -36.1413 H   0  0  0  0  0  0  0  0  0  0  0  0
   -6.8053   15.0107  -36.9573 H   0  0  0  0  0  0  0  0  0  0  0  0
   -8.3879   13.0541  -39.7887 H   0  0  0  0  0  0  0  0  0  0  0  0
   -7.6885   12.3050  -38.3643 H   0  0  0  0  0  0  0  0  0  0  0  0
   -6.8324   13.6432  -39.1618 H   0  0  0  0  0  0  0  0  0  0  0  0
   -9.4342   15.3388  -39.6634 H   0  0  0  0  0  0  0  0  0  0  0  0
   -9.4305   16.2565  -38.1418 H   0  0  0  0  0  0  0  0  0  0  0  0
   -7.9329   16.0307  -39.0739 H   0  0  0  0  0  0  0  0  0  0  0  0
  1  2  2  0  0  0  0
  1  7  1  0  0  0  0
  2  8  1  0  0  0  0
  3  5  1  0  0  0  0
  3  6  1  0  0  0  0
  3 14  2  0  0  0  0
  4 13  1  0  0  0  0
  4 15  2  0  0  0  0
  4 16  1  0  0  0  0
  5  7  1  0  0  0  0
  6  8  1  0  0  0  0
  7 13  1  0  0  0  0
  8 13  1  0  0  0  0
  9 12  1  0  0  0  0
 10 12  1  0  0  0  0
 11 12  1  0  0  0  0
 12 16  1  0  0  0  0
  1 17  1  0  0  0  0
  2 18  1  0  0  0  0
  5 19  1  0  0  0  0
  5 20  1  0  0  0  0
  6 21  1  0  0  0  0
  6 22  1  0  0  0  0
  7 23  1  0  0  0  0
  8 24  1  0  0  0  0
  9 25  1  0  0  0  0
  9 26  1  0  0  0  0
  9 27  1  0  0  0  0
 10 28  1  0  0  0  0
 10 29  1  0  0  0  0
 10 30  1  0  0  0  0
 11 31  1  0  0  0  0
 11 32  1  0  0  0  0
 11 33  1  0  0  0  0
M  END
> <id>
EN300-6746335

> <smiles>
CC(C)(C)OC(=O)N1C2CC(=O)CC1C=C2

> <MDLNUMBER>
MFCD24468878

> <IUPAC Name>
tert-butyl 3-oxo-8-azabicyclo[3.2.1]oct-6-ene-8-carboxylate

> <CAS>
736181-18-3

> <Purity>
95

> <URL>
https://www.enaminestore.com/catalog/EN300-6746335

> <MP>
86-87

> <ROCS_ShapeQuery>
x1247relevant_x1083L0AP1_x1305L0BP1_

> <ROCS_TanimotoCombo>
0.793 

> <ROCS_ShapeTanimoto>
0.480 

> <ROCS_ColorTanimoto>
0.313 

> <ROCS_RefTversky>
0.416 

> <ROCS_RefColorTversky>
0.346 

> <ROCS_RefTverskyCombo>
0.762 

> <ROCS_FitTversky>
1.467 

> <ROCS_FitColorTversky>
0.768 

> <ROCS_FitTverskyCombo>
2.235 

> <ROCS_ColorScore>
-7.331

> <ROCS_Overlap>
1226.530

> <ROCS_Rank>
414                 

$$$$
untitled-dbase-42288_85
  -OEChem-06162310163D

 37 38  0     1  0  0  0  0  0999 V2000
  -10.2061   14.5376  -36.5619 C   0  0  0  0  0  0  0  0  0  0  0  0
  -13.0419   16.5351  -38.9772 C   0  0  0  0  0  0  0  0  0  0  0  0
  -12.5442   15.4213  -36.7553 C   0  0  0  0  0  0  0  0  0  0  0  0
  -11.1189   14.8932  -38.8245 C   0  0  0  0  0  0  0  0  0  0  0  0
  -13.5956   15.6431  -37.8354 C   0  0  2  0  0  0  0  0  0  0  0  0
  -12.4376   15.2124  -39.5162 C   0  0  1  0  0  0  0  0  0  0  0  0
  -13.6839   14.4849  -38.8939 C   0  0  0  0  0  0  0  0  0  0  0  0
   -8.1581   15.9554  -36.1249 C   0  0  0  0  0  0  0  0  0  0  0  0
   -6.8643   13.8601  -36.6199 C   0  0  0  0  0  0  0  0  0  0  0  0
   -7.5045   15.4065  -38.4926 C   0  0  0  0  0  0  0  0  0  0  0  0
  -14.9511   14.4353  -39.7423 C   0  0  0  0  0  0  0  0  0  0  0  0
   -7.9190   14.8360  -37.1371 C   0  0  0  0  0  0  0  0  0  0  0  0
  -11.2912   14.9250  -37.3612 N   0  0  0  0  0  0  0  0  0  0  0  0
  -10.2057   14.5768  -35.3329 O   0  0  0  0  0  0  0  0  0  0  0  0
  -13.4418   13.1555  -38.3776 O   0  0  0  0  0  0  0  0  0  0  0  0
   -9.1387   14.1044  -37.3040 O   0  0  0  0  0  0  0  0  0  0  0  0
  -15.0819   15.5726  -40.4428 F   0  0  0  0  0  0  0  0  0  0  0  0
  -14.8931   13.4032  -40.5982 F   0  0  0  0  0  0  0  0  0  0  0  0
  -16.0276   14.2853  -38.9548 F   0  0  0  0  0  0  0  0  0  0  0  0
  -13.8020   16.9938  -39.6189 H   0  0  0  0  0  0  0  0  0  0  0  0
  -12.3345   17.3198  -38.6907 H   0  0  0  0  0  0  0  0  0  0  0  0
  -12.3191   16.3531  -36.2243 H   0  0  0  0  0  0  0  0  0  0  0  0
  -12.8887   14.6876  -36.0182 H   0  0  0  0  0  0  0  0  0  0  0  0
  -10.7527   13.9002  -39.1081 H   0  0  0  0  0  0  0  0  0  0  0  0
  -10.3446   15.6218  -39.0905 H   0  0  0  0  0  0  0  0  0  0  0  0
  -14.5533   15.9791  -37.4247 H   0  0  0  0  0  0  0  0  0  0  0  0
  -12.3614   15.1632  -40.6073 H   0  0  0  0  0  0  0  0  0  0  0  0
   -8.9146   16.6580  -36.4924 H   0  0  0  0  0  0  0  0  0  0  0  0
   -8.4897   15.5614  -35.1586 H   0  0  0  0  0  0  0  0  0  0  0  0
   -7.2449   16.5399  -35.9653 H   0  0  0  0  0  0  0  0  0  0  0  0
   -6.6895   13.0552  -37.3430 H   0  0  0  0  0  0  0  0  0  0  0  0
   -7.1997   13.3768  -35.6952 H   0  0  0  0  0  0  0  0  0  0  0  0
   -5.9115   14.3620  -36.4229 H   0  0  0  0  0  0  0  0  0  0  0  0
   -7.3329   14.6038  -39.2188 H   0  0  0  0  0  0  0  0  0  0  0  0
   -8.2666   16.0808  -38.8965 H   0  0  0  0  0  0  0  0  0  0  0  0
   -6.5602   15.9570  -38.4114 H   0  0  0  0  0  0  0  0  0  0  0  0
  -13.5305   12.5674  -39.1361 H   0  0  0  0  0  0  0  0  0  0  0  0
  1 13  1  0  0  0  0
  1 14  2  0  0  0  0
  1 16  1  0  0  0  0
  2  5  1  0  0  0  0
  2  6  1  0  0  0  0
  3  5  1  0  0  0  0
  3 13  1  0  0  0  0
  4  6  1  0  0  0  0
  4 13  1  0  0  0  0
  5  7  1  0  0  0  0
  6  7  1  0  0  0  0
  7 11  1  0  0  0  0
  7 15  1  0  0  0  0
  8 12  1  0  0  0  0
  9 12  1  0  0  0  0
 10 12  1  0  0  0  0
 11 17  1  0  0  0  0
 11 18  1  0  0  0  0
 11 19  1  0  0  0  0
 12 16  1  0  0  0  0
  2 20  1  0  0  0  0
  2 21  1  0  0  0  0
  3 22  1  0  0  0  0
  3 23  1  0  0  0  0
  4 24  1  0  0  0  0
  4 25  1  0  0  0  0
  5 26  1  0  0  0  0
  6 27  1  0  0  0  0
  8 28  1  0  0  0  0
  8 29  1  0  0  0  0
  8 30  1  0  0  0  0
  9 31  1  0  0  0  0
  9 32  1  0  0  0  0
  9 33  1  0  0  0  0
 10 34  1  0  0  0  0
 10 35  1  0  0  0  0
 10 36  1  0  0  0  0
 15 37  1  0  0  0  0
M  END
> <id>
EN300-12722799

> <smiles>
CC(C)(C)OC(=O)N1CC2CC(C1)C2(O)C(F)(F)F

> <MDLNUMBER>
MFCD28010003

> <IUPAC Name>
tert-butyl 6-hydroxy-6-(trifluoromethyl)-3-azabicyclo[3.1.1]heptane-3-carboxylate

> <CAS>
1823863-66-6

> <URL>
https://www.enaminestore.com/catalog/EN300-12722799

> <ROCS_ShapeQuery>
x1247relevant_x1083L0AP1_x1305L0BP1_

> <ROCS_TanimotoCombo>
0.793 

> <ROCS_ShapeTanimoto>
0.507 

> <ROCS_ColorTanimoto>
0.286 

> <ROCS_RefTversky>
0.447 

> <ROCS_RefColorTversky>
0.334 

> <ROCS_RefTverskyCombo>
0.781 

> <ROCS_FitTversky>
1.360 

> <ROCS_FitColorTversky>
0.664 

> <ROCS_FitTverskyCombo>
2.023 

> <ROCS_ColorScore>
-7.112

> <ROCS_Overlap>
1320.014

> <ROCS_Rank>
415                 

$$$$
untitled-dbase-44564_1
  -OEChem-06162310163D

 26 28  0     1  0  0  0  0  0999 V2000
  -12.6269   14.1679  -39.4420 C   0  0  0  0  0  0  0  0  0  0  0  0
  -13.3287   13.8750  -38.3358 C   0  0  0  0  0  0  0  0  0  0  0  0
  -13.0777   16.5693  -39.2177 C   0  0  0  0  0  0  0  0  0  0  0  0
  -13.8876   16.2313  -37.9408 C   0  0  0  0  0  0  0  0  0  0  0  0
   -9.8539   14.6303  -38.1573 C   0  0  0  0  0  0  0  0  0  0  0  0
  -11.0700   14.1217  -36.2413 C   0  0  0  0  0  0  0  0  0  0  0  0
  -11.9515   15.5241  -39.4123 C   0  0  1  0  0  0  0  0  0  0  0  0
  -13.3063   14.9586  -37.2768 C   0  0  2  0  0  0  0  0  0  0  0  0
  -11.0205   15.6196  -38.1683 C   0  0  1  0  0  0  0  0  0  0  0  0
  -11.8340   15.2796  -36.8859 C   0  0  2  0  0  0  0  0  0  0  0  0
  -10.3142   13.5135  -37.3344 N   0  0  0  0  0  0  0  0  0  0  0  0
  -12.5439   13.4987  -40.2876 H   0  0  0  0  0  0  0  0  0  0  0  0
  -13.8673   12.9467  -38.2024 H   0  0  0  0  0  0  0  0  0  0  0  0
  -13.7474   16.5781  -40.0870 H   0  0  0  0  0  0  0  0  0  0  0  0
  -12.6552   17.5779  -39.1347 H   0  0  0  0  0  0  0  0  0  0  0  0
  -13.8550   17.0772  -37.2440 H   0  0  0  0  0  0  0  0  0  0  0  0
  -14.9419   16.0791  -38.2036 H   0  0  0  0  0  0  0  0  0  0  0  0
   -9.5585   14.3029  -39.1589 H   0  0  0  0  0  0  0  0  0  0  0  0
   -8.9753   15.0859  -37.6852 H   0  0  0  0  0  0  0  0  0  0  0  0
  -10.3691   14.5029  -35.4890 H   0  0  0  0  0  0  0  0  0  0  0  0
  -11.7245   13.3972  -35.7467 H   0  0  0  0  0  0  0  0  0  0  0  0
  -11.3981   15.7095  -40.3382 H   0  0  0  0  0  0  0  0  0  0  0  0
  -13.8953   14.6671  -36.4019 H   0  0  0  0  0  0  0  0  0  0  0  0
  -10.6225   16.6403  -38.0989 H   0  0  0  0  0  0  0  0  0  0  0  0
  -11.8265   16.1369  -36.2001 H   0  0  0  0  0  0  0  0  0  0  0  0
  -10.9269   12.9129  -37.8826 H   0  0  0  0  0  0  0  0  0  0  0  0
  1  2  2  0  0  0  0
  1  7  1  0  0  0  0
  2  8  1  0  0  0  0
  3  4  1  0  0  0  0
  3  7  1  0  0  0  0
  4  8  1  0  0  0  0
  5  9  1  0  0  0  0
  5 11  1  0  0  0  0
  6 10  1  0  0  0  0
  6 11  1  0  0  0  0
  7  9  1  0  0  0  0
  8 10  1  0  0  0  0
  9 10  1  0  0  0  0
  1 12  1  0  0  0  0
  2 13  1  0  0  0  0
  3 14  1  0  0  0  0
  3 15  1  0  0  0  0
  4 16  1  0  0  0  0
  4 17  1  0  0  0  0
  5 18  1  0  0  0  0
  5 19  1  0  0  0  0
  6 20  1  0  0  0  0
  6 21  1  0  0  0  0
  7 22  1  0  0  0  0
  8 23  1  0  0  0  0
  9 24  1  0  0  0  0
 10 25  1  0  0  0  0
 11 26  1  0  0  0  0
M  END
> <id>
EN300-233838

> <smiles>
Cl.C1NCC2C1C3CCC2C=C3

> <MDLNUMBER>
MFCD29034402

> <IUPAC Name>
4-azatricyclo[5.2.2.0,2,6]undec-8-ene hydrochloride

> <CAS>
15997-96-3

> <URL>
https://www.enaminestore.com/catalog/EN300-233838

> <Saltdate>
Cl

> <ROCS_ShapeQuery>
x1247relevant_x1083L0AP1_x1305L0BP1_

> <ROCS_TanimotoCombo>
0.793 

> <ROCS_ShapeTanimoto>
0.425 

> <ROCS_ColorTanimoto>
0.367 

> <ROCS_RefTversky>
0.362 

> <ROCS_RefColorTversky>
0.392 

> <ROCS_RefTverskyCombo>
0.754 

> <ROCS_FitTversky>
1.703 

> <ROCS_FitColorTversky>
0.854 

> <ROCS_FitTverskyCombo>
2.558 

> <ROCS_ColorScore>
-8.314

> <ROCS_Overlap>
1061.753

> <ROCS_Rank>
416                 

$$$$
untitled-dbase-23941_1
  -OEChem-06162310163D

 28 30  0     1  0  0  0  0  0999 V2000
  -10.2567   16.1214  -36.7477 C   0  0  0  0  0  0  0  0  0  0  0  0
   -9.1971   15.3835  -36.3905 C   0  0  0  0  0  0  0  0  0  0  0  0
  -11.3946   15.5208  -37.4033 C   0  0  0  0  0  0  0  0  0  0  0  0
  -11.3904   14.1992  -37.6611 C   0  0  0  0  0  0  0  0  0  0  0  0
   -9.1863   13.9174  -36.6715 C   0  0  0  0  0  0  0  0  0  0  0  0
  -12.5626   13.5397  -38.3447 C   0  0  0  0  0  0  0  0  0  0  0  0
  -12.5020   16.6749  -39.3004 C   0  0  0  0  0  0  0  0  0  0  0  0
  -13.1120   15.4326  -39.9718 C   0  0  0  0  0  0  0  0  0  0  0  0
  -12.5883   16.3695  -37.7990 C   0  0  1  0  0  0  0  0  0  0  0  0
  -13.6308   14.5681  -38.8067 C   0  0  2  0  0  0  0  0  0  0  0  0
  -14.3244   15.1715  -36.5035 C   0  0  0  0  0  0  0  0  0  0  0  0
  -10.3149   13.4199  -37.3038 N   0  0  0  0  0  0  0  0  0  0  0  0
  -13.8608   15.6203  -37.8048 N   0  0  1  0  0  0  0  0  0  0  0  0
   -8.2201   13.2315  -36.3475 O   0  0  0  0  0  0  0  0  0  0  0  0
  -10.2725   17.1878  -36.5491 H   0  0  0  0  0  0  0  0  0  0  0  0
   -8.3354   15.8191  -35.8992 H   0  0  0  0  0  0  0  0  0  0  0  0
  -12.2163   12.9563  -39.2065 H   0  0  0  0  0  0  0  0  0  0  0  0
  -13.0250   12.8390  -37.6374 H   0  0  0  0  0  0  0  0  0  0  0  0
  -11.4801   16.8560  -39.6510 H   0  0  0  0  0  0  0  0  0  0  0  0
  -13.0969   17.5600  -39.5534 H   0  0  0  0  0  0  0  0  0  0  0  0
  -13.9362   15.7415  -40.6231 H   0  0  0  0  0  0  0  0  0  0  0  0
  -12.3761   14.9084  -40.5880 H   0  0  0  0  0  0  0  0  0  0  0  0
  -12.6548   17.2896  -37.2053 H   0  0  0  0  0  0  0  0  0  0  0  0
  -14.5506   14.0432  -39.1096 H   0  0  0  0  0  0  0  0  0  0  0  0
  -15.2735   14.6278  -36.6194 H   0  0  0  0  0  0  0  0  0  0  0  0
  -13.5722   14.5049  -36.0564 H   0  0  0  0  0  0  0  0  0  0  0  0
  -14.4782   16.0421  -35.8490 H   0  0  0  0  0  0  0  0  0  0  0  0
  -10.3497   12.4265  -37.5145 H   0  0  0  0  0  0  0  0  0  0  0  0
  1  2  2  0  0  0  0
  1  3  1  0  0  0  0
  2  5  1  0  0  0  0
  3  4  2  0  0  0  0
  3  9  1  0  0  0  0
  4  6  1  0  0  0  0
  4 12  1  0  0  0  0
  5 12  1  0  0  0  0
  5 14  2  0  0  0  0
  6 10  1  0  0  0  0
  7  8  1  0  0  0  0
  7  9  1  0  0  0  0
  8 10  1  0  0  0  0
  9 13  1  0  0  0  0
 10 13  1  0  0  0  0
 11 13  1  0  0  0  0
  1 15  1  0  0  0  0
  2 16  1  0  0  0  0
  6 17  1  0  0  0  0
  6 18  1  0  0  0  0
  7 19  1  0  0  0  0
  7 20  1  0  0  0  0
  8 21  1  0  0  0  0
  8 22  1  0  0  0  0
  9 23  1  0  0  0  0
 10 24  1  0  0  0  0
 11 25  1  0  0  0  0
 11 26  1  0  0  0  0
 11 27  1  0  0  0  0
 12 28  1  0  0  0  0
M  END
> <id>
EN300-8941065

> <smiles>
CN1C2CCC1C=3C=CC(=O)NC3C2

> <MDLNUMBER>
MFCD26129192

> <IUPAC Name>
12-methyl-6,12-diazatricyclo[7.2.1.0,2,7]dodeca-2(7),3-dien-5-one

> <CAS>
1707568-49-7

> <Purity>
95

> <URL>
https://www.enaminestore.com/catalog/EN300-8941065

> <ROCS_ShapeQuery>
x1247relevant_x1083L0AP1_x1305L0BP1_

> <ROCS_TanimotoCombo>
0.793 

> <ROCS_ShapeTanimoto>
0.485 

> <ROCS_ColorTanimoto>
0.307 

> <ROCS_RefTversky>
0.412 

> <ROCS_RefColorTversky>
0.350 

> <ROCS_RefTverskyCombo>
0.762 

> <ROCS_FitTversky>
1.583 

> <ROCS_FitColorTversky>
0.715 

> <ROCS_FitTverskyCombo>
2.298 

> <ROCS_ColorScore>
-7.439

> <ROCS_Overlap>
1211.744

> <ROCS_Rank>
417                 

$$$$
untitled-dbase-44158_0
  -OEChem-06162310163D

 24 26  0     1  0  0  0  0  0999 V2000
  -12.8062   16.1643  -39.5024 C   0  0  0  0  0  0  0  0  0  0  0  0
  -12.6383   16.8530  -38.1662 C   0  0  0  0  0  0  0  0  0  0  0  0
  -13.6100   14.6786  -37.9192 C   0  0  0  0  0  0  0  0  0  0  0  0
  -11.4947   14.1909  -38.9427 C   0  0  0  0  0  0  0  0  0  0  0  0
   -9.4237   15.2541  -36.3107 C   0  0  0  0  0  0  0  0  0  0  0  0
   -9.7729   13.8001  -36.1539 C   0  0  0  0  0  0  0  0  0  0  0  0
  -12.9148   14.6681  -39.2810 C   0  0  2  0  0  0  0  0  0  0  0  0
  -12.5645   15.5956  -37.2719 C   0  0  1  0  0  0  0  0  0  0  0  0
  -11.2633   14.7946  -37.5365 C   0  0  0  0  0  0  0  0  0  0  0  0
  -12.8191   16.7228  -40.5879 O   0  0  0  0  0  0  0  0  0  0  0  0
  -10.0986   15.6213  -37.5119 O   0  0  0  0  0  0  0  0  0  0  0  0
  -11.1387   13.7473  -36.5619 O   0  0  0  0  0  0  0  0  0  0  0  0
  -11.7335   17.4619  -38.1380 H   0  0  0  0  0  0  0  0  0  0  0  0
  -13.5282   17.4498  -37.9489 H   0  0  0  0  0  0  0  0  0  0  0  0
  -14.6087   15.1294  -37.9441 H   0  0  0  0  0  0  0  0  0  0  0  0
  -13.6684   13.6868  -37.4590 H   0  0  0  0  0  0  0  0  0  0  0  0
  -11.4639   13.0962  -38.9130 H   0  0  0  0  0  0  0  0  0  0  0  0
  -10.7628   14.5494  -39.6744 H   0  0  0  0  0  0  0  0  0  0  0  0
   -9.8303   15.8582  -35.4924 H   0  0  0  0  0  0  0  0  0  0  0  0
   -8.3498   15.4360  -36.3974 H   0  0  0  0  0  0  0  0  0  0  0  0
   -9.1900   13.1697  -36.8342 H   0  0  0  0  0  0  0  0  0  0  0  0
   -9.6589   13.4332  -35.1311 H   0  0  0  0  0  0  0  0  0  0  0  0
  -13.4321   14.1402  -40.0810 H   0  0  0  0  0  0  0  0  0  0  0  0
  -12.7444   15.8060  -36.2148 H   0  0  0  0  0  0  0  0  0  0  0  0
  1  2  1  0  0  0  0
  1  7  1  0  0  0  0
  1 10  2  0  0  0  0
  2  8  1  0  0  0  0
  3  7  1  0  0  0  0
  3  8  1  0  0  0  0
  4  7  1  0  0  0  0
  4  9  1  0  0  0  0
  5  6  1  0  0  0  0
  5 11  1  0  0  0  0
  6 12  1  0  0  0  0
  8  9  1  0  0  0  0
  9 11  1  0  0  0  0
  9 12  1  0  0  0  0
  2 13  1  0  0  0  0
  2 14  1  0  0  0  0
  3 15  1  0  0  0  0
  3 16  1  0  0  0  0
  4 17  1  0  0  0  0
  4 18  1  0  0  0  0
  5 19  1  0  0  0  0
  5 20  1  0  0  0  0
  6 21  1  0  0  0  0
  6 22  1  0  0  0  0
  7 23  1  0  0  0  0
  8 24  1  0  0  0  0
M  END
> <id>
EN300-399860

> <smiles>
O=C1CC2CC1CC32OCCO3

> <MDLNUMBER>
MFCD24505561

> <IUPAC Name>
spiro[bicyclo[2.2.1]heptane-2,2'-[1,3]dioxolane]-5-one

> <CAS>
67594-61-0

> <URL>
https://www.enaminestore.com/catalog/EN300-399860

> <ROCS_ShapeQuery>
x1247relevant_x1083L0AP1_x1305L0BP1_

> <ROCS_TanimotoCombo>
0.792 

> <ROCS_ShapeTanimoto>
0.475 

> <ROCS_ColorTanimoto>
0.317 

> <ROCS_RefTversky>
0.397 

> <ROCS_RefColorTversky>
0.364 

> <ROCS_RefTverskyCombo>
0.762 

> <ROCS_FitTversky>
1.707 

> <ROCS_FitColorTversky>
0.710 

> <ROCS_FitTverskyCombo>
2.417 

> <ROCS_ColorScore>
-7.753

> <ROCS_Overlap>
1167.150

> <ROCS_Rank>
418                 

$$$$
untitled-dbase-19980_0
  -OEChem-06162310163D

 24 25  0     0  0  0  0  0  0999 V2000
  -10.7988   14.6708  -36.2236 C   0  0  0  0  0  0  0  0  0  0  0  0
  -12.2329   13.7523  -38.0283 C   0  0  0  0  0  0  0  0  0  0  0  0
  -13.0067   15.7109  -36.6700 C   0  0  0  0  0  0  0  0  0  0  0  0
  -11.1266   15.9832  -38.3036 C   0  0  0  0  0  0  0  0  0  0  0  0
  -13.2391   14.1194  -39.1266 C   0  0  0  0  0  0  0  0  0  0  0  0
  -14.0110   16.0752  -37.7710 C   0  0  0  0  0  0  0  0  0  0  0  0
  -12.1366   16.3445  -39.4003 C   0  0  0  0  0  0  0  0  0  0  0  0
  -11.7652   15.0198  -37.2779 C   0  0  0  0  0  0  0  0  0  0  0  0
  -13.4765   15.6379  -39.1442 C   0  0  0  0  0  0  0  0  0  0  0  0
  -10.0372   14.3956  -35.3927 N   0  0  0  0  0  0  0  0  0  0  0  0
  -14.4087   15.9592  -40.1635 O   0  0  0  0  0  0  0  0  0  0  0  0
  -12.6938   13.0384  -37.3330 H   0  0  0  0  0  0  0  0  0  0  0  0
  -11.3773   13.2292  -38.4752 H   0  0  0  0  0  0  0  0  0  0  0  0
  -12.7167   16.6180  -36.1239 H   0  0  0  0  0  0  0  0  0  0  0  0
  -13.4920   15.0571  -35.9334 H   0  0  0  0  0  0  0  0  0  0  0  0
  -10.2371   15.5296  -38.7597 H   0  0  0  0  0  0  0  0  0  0  0  0
  -10.7787   16.8999  -37.8094 H   0  0  0  0  0  0  0  0  0  0  0  0
  -12.8756   13.7781  -40.1042 H   0  0  0  0  0  0  0  0  0  0  0  0
  -14.1854   13.5870  -38.9677 H   0  0  0  0  0  0  0  0  0  0  0  0
  -14.9808   15.6025  -37.5716 H   0  0  0  0  0  0  0  0  0  0  0  0
  -14.2076   17.1548  -37.7623 H   0  0  0  0  0  0  0  0  0  0  0  0
  -12.2782   17.4321  -39.4409 H   0  0  0  0  0  0  0  0  0  0  0  0
  -11.7421   16.0678  -40.3864 H   0  0  0  0  0  0  0  0  0  0  0  0
  -14.5310   16.9230  -40.1419 H   0  0  0  0  0  0  0  0  0  0  0  0
  1  8  1  0  0  0  0
  1 10  3  0  0  0  0
  2  5  1  0  0  0  0
  2  8  1  0  0  0  0
  3  6  1  0  0  0  0
  3  8  1  0  0  0  0
  4  7  1  0  0  0  0
  4  8  1  0  0  0  0
  5  9  1  0  0  0  0
  6  9  1  0  0  0  0
  7  9  1  0  0  0  0
  9 11  1  0  0  0  0
  2 12  1  0  0  0  0
  2 13  1  0  0  0  0
  3 14  1  0  0  0  0
  3 15  1  0  0  0  0
  4 16  1  0  0  0  0
  4 17  1  0  0  0  0
  5 18  1  0  0  0  0
  5 19  1  0  0  0  0
  6 20  1  0  0  0  0
  6 21  1  0  0  0  0
  7 22  1  0  0  0  0
  7 23  1  0  0  0  0
 11 24  1  0  0  0  0
M  END
> <id>
EN300-1718309

> <smiles>
OC1(CCC2(CC1)C#N)CC2

> <MDLNUMBER>
MFCD29042867

> <IUPAC Name>
4-hydroxybicyclo[2.2.2]octane-1-carbonitrile

> <CAS>
72948-86-8

> <URL>
https://www.enaminestore.com/catalog/EN300-1718309

> <ROCS_ShapeQuery>
x1247relevant_x1083L0AP1_x1305L0BP1_

> <ROCS_TanimotoCombo>
0.792 

> <ROCS_ShapeTanimoto>
0.421 

> <ROCS_ColorTanimoto>
0.371 

> <ROCS_RefTversky>
0.358 

> <ROCS_RefColorTversky>
0.394 

> <ROCS_RefTverskyCombo>
0.751 

> <ROCS_FitTversky>
1.726 

> <ROCS_FitColorTversky>
0.867 

> <ROCS_FitTverskyCombo>
2.593 

> <ROCS_ColorScore>
-8.353

> <ROCS_Overlap>
1049.374

> <ROCS_Rank>
419                 

$$$$
untitled-dbase-30796_61
  -OEChem-06162310163D

 40 41  0     1  0  0  0  0  0999 V2000
   -9.9302   14.8210  -37.2398 C   0  0  0  0  0  0  0  0  0  0  0  0
  -12.5838   14.5288  -39.9871 C   0  0  0  0  0  0  0  0  0  0  0  0
  -13.8315   14.3905  -39.1027 C   0  0  0  0  0  0  0  0  0  0  0  0
  -13.1786   16.3843  -37.7283 C   0  0  0  0  0  0  0  0  0  0  0  0
  -12.3890   14.2648  -36.9983 C   0  0  0  0  0  0  0  0  0  0  0  0
  -11.7574   16.2163  -38.2658 C   0  0  2  0  0  0  0  0  0  0  0  0
  -11.8406   15.8524  -39.7613 C   0  0  1  0  0  0  0  0  0  0  0  0
  -13.6230   14.9121  -37.6564 C   0  0  2  0  0  0  0  0  0  0  0  0
  -14.8879   14.7271  -36.8267 C   0  0  0  0  0  0  0  0  0  0  0  0
   -9.6273   14.0559  -34.7531 C   0  0  0  0  0  0  0  0  0  0  0  0
   -9.6150   11.6691  -35.5356 C   0  0  0  0  0  0  0  0  0  0  0  0
   -7.6067   13.1250  -35.9299 C   0  0  0  0  0  0  0  0  0  0  0  0
   -9.1307   13.0881  -35.8261 C   0  0  0  0  0  0  0  0  0  0  0  0
  -11.2685   15.0736  -37.4838 N   0  0  0  0  0  0  0  0  0  0  0  0
   -9.0635   15.6889  -37.1661 O   0  0  0  0  0  0  0  0  0  0  0  0
  -10.5413   15.7575  -40.3329 O   0  0  0  0  0  0  0  0  0  0  0  0
   -9.6833   13.4828  -37.0868 O   0  0  0  0  0  0  0  0  0  0  0  0
  -11.9045   13.6877  -39.7942 H   0  0  0  0  0  0  0  0  0  0  0  0
  -12.8580   14.4309  -41.0446 H   0  0  0  0  0  0  0  0  0  0  0  0
  -14.6532   14.9492  -39.5700 H   0  0  0  0  0  0  0  0  0  0  0  0
  -14.1399   13.3379  -39.0860 H   0  0  0  0  0  0  0  0  0  0  0  0
  -13.1617   16.8457  -36.7328 H   0  0  0  0  0  0  0  0  0  0  0  0
  -13.8168   16.9942  -38.3765 H   0  0  0  0  0  0  0  0  0  0  0  0
  -12.4040   14.3482  -35.9055 H   0  0  0  0  0  0  0  0  0  0  0  0
  -12.2458   13.2136  -37.2683 H   0  0  0  0  0  0  0  0  0  0  0  0
  -11.1196   17.0901  -38.1005 H   0  0  0  0  0  0  0  0  0  0  0  0
  -12.3698   16.6500  -40.2971 H   0  0  0  0  0  0  0  0  0  0  0  0
  -14.7267   15.0975  -35.8144 H   0  0  0  0  0  0  0  0  0  0  0  0
  -15.1508   13.6705  -36.7793 H   0  0  0  0  0  0  0  0  0  0  0  0
  -15.7132   15.2776  -37.2780 H   0  0  0  0  0  0  0  0  0  0  0  0
   -9.2818   15.0756  -34.9580 H   0  0  0  0  0  0  0  0  0  0  0  0
  -10.7205   14.0648  -34.6926 H   0  0  0  0  0  0  0  0  0  0  0  0
   -9.2284   13.7864  -33.7685 H   0  0  0  0  0  0  0  0  0  0  0  0
   -9.2610   10.9713  -36.3030 H   0  0  0  0  0  0  0  0  0  0  0  0
  -10.7097   11.6189  -35.5540 H   0  0  0  0  0  0  0  0  0  0  0  0
   -9.2681   11.3158  -34.5591 H   0  0  0  0  0  0  0  0  0  0  0  0
   -7.2502   12.4308  -36.6995 H   0  0  0  0  0  0  0  0  0  0  0  0
   -7.2433   14.1284  -36.1745 H   0  0  0  0  0  0  0  0  0  0  0  0
   -7.1442   12.8070  -34.9885 H   0  0  0  0  0  0  0  0  0  0  0  0
  -10.1029   16.6082  -40.1716 H   0  0  0  0  0  0  0  0  0  0  0  0
  1 14  1  0  0  0  0
  1 15  2  0  0  0  0
  1 17  1  0  0  0  0
  2  3  1  0  0  0  0
  2  7  1  0  0  0  0
  3  8  1  0  0  0  0
  4  6  1  0  0  0  0
  4  8  1  0  0  0  0
  5  8  1  0  0  0  0
  5 14  1  0  0  0  0
  6  7  1  0  0  0  0
  6 14  1  0  0  0  0
  7 16  1  0  0  0  0
  8  9  1  0  0  0  0
 10 13  1  0  0  0  0
 11 13  1  0  0  0  0
 12 13  1  0  0  0  0
 13 17  1  0  0  0  0
  2 18  1  0  0  0  0
  2 19  1  0  0  0  0
  3 20  1  0  0  0  0
  3 21  1  0  0  0  0
  4 22  1  0  0  0  0
  4 23  1  0  0  0  0
  5 24  1  0  0  0  0
  5 25  1  0  0  0  0
  6 26  1  0  0  0  0
  7 27  1  0  0  0  0
  9 28  1  0  0  0  0
  9 29  1  0  0  0  0
  9 30  1  0  0  0  0
 10 31  1  0  0  0  0
 10 32  1  0  0  0  0
 10 33  1  0  0  0  0
 11 34  1  0  0  0  0
 11 35  1  0  0  0  0
 11 36  1  0  0  0  0
 12 37  1  0  0  0  0
 12 38  1  0  0  0  0
 12 39  1  0  0  0  0
 16 40  1  0  0  0  0
M  END
> <id>
EN300-26665554

> <smiles>
CC(C)(C)OC(=O)N1CC2(C)CC1C(O)CC2

> <IUPAC Name>
tert-butyl 4-hydroxy-1-methyl-6-azabicyclo[3.2.1]octane-6-carboxylate

> <CAS>
2413903-65-6

> <URL>
https://www.enaminestore.com/catalog/EN300-26665554

> <ROCS_ShapeQuery>
x1247relevant_x1083L0AP1_x1305L0BP1_

> <ROCS_TanimotoCombo>
0.792 

> <ROCS_ShapeTanimoto>
0.493 

> <ROCS_ColorTanimoto>
0.299 

> <ROCS_RefTversky>
0.427 

> <ROCS_RefColorTversky>
0.343 

> <ROCS_RefTverskyCombo>
0.771 

> <ROCS_FitTversky>
1.455 

> <ROCS_FitColorTversky>
0.699 

> <ROCS_FitTverskyCombo>
2.153 

> <ROCS_ColorScore>
-7.298

> <ROCS_Overlap>
1259.574

> <ROCS_Rank>
420                 

$$$$
untitled-dbase-36284_21
  -OEChem-06162310163D

 31 32  0     0  0  0  0  0  0999 V2000
  -12.7937   16.4658  -39.5909 C   0  0  0  0  0  0  0  0  0  0  0  0
  -12.1199   16.6462  -38.2425 C   0  0  0  0  0  0  0  0  0  0  0  0
   -9.9364   15.4104  -38.5701 C   0  0  0  0  0  0  0  0  0  0  0  0
  -11.0145   15.5157  -36.2825 C   0  0  0  0  0  0  0  0  0  0  0  0
   -8.7282   14.8982  -37.7751 C   0  0  0  0  0  0  0  0  0  0  0  0
  -10.1186   14.4073  -35.7158 C   0  0  0  0  0  0  0  0  0  0  0  0
  -14.3640   14.9136  -38.4110 C   0  0  0  0  0  0  0  0  0  0  0  0
  -13.3603   13.9761  -37.7325 C   0  0  0  0  0  0  0  0  0  0  0  0
  -11.2963   15.4079  -37.8008 C   0  0  0  0  0  0  0  0  0  0  0  0
   -9.0960   13.8847  -36.7133 C   0  0  0  0  0  0  0  0  0  0  0  0
  -13.8512   15.5762  -39.5975 N   0  0  0  0  0  0  0  0  0  0  0  0
  -11.9653   14.1325  -38.1295 N   0  0  0  0  0  0  0  0  0  0  0  0
  -12.4050   17.0623  -40.5938 O   0  0  0  0  0  0  0  0  0  0  0  0
   -9.5817   12.7690  -37.3186 F   0  0  0  0  0  0  0  0  0  0  0  0
   -7.9801   13.4920  -36.0483 F   0  0  0  0  0  0  0  0  0  0  0  0
  -11.5072   17.5428  -38.2674 H   0  0  0  0  0  0  0  0  0  0  0  0
  -12.9192   16.8293  -37.5262 H   0  0  0  0  0  0  0  0  0  0  0  0
   -9.7061   16.4396  -38.8960 H   0  0  0  0  0  0  0  0  0  0  0  0
  -10.0242   14.8247  -39.5012 H   0  0  0  0  0  0  0  0  0  0  0  0
  -11.9486   15.5363  -35.6992 H   0  0  0  0  0  0  0  0  0  0  0  0
  -10.5277   16.4851  -36.0763 H   0  0  0  0  0  0  0  0  0  0  0  0
   -7.9703   14.4708  -38.4551 H   0  0  0  0  0  0  0  0  0  0  0  0
   -8.2285   15.7599  -37.2979 H   0  0  0  0  0  0  0  0  0  0  0  0
   -9.5882   14.7976  -34.8293 H   0  0  0  0  0  0  0  0  0  0  0  0
  -10.7338   13.5707  -35.3396 H   0  0  0  0  0  0  0  0  0  0  0  0
  -15.2936   14.3840  -38.6743 H   0  0  0  0  0  0  0  0  0  0  0  0
  -14.6451   15.7130  -37.7080 H   0  0  0  0  0  0  0  0  0  0  0  0
  -13.4770   14.0068  -36.6341 H   0  0  0  0  0  0  0  0  0  0  0  0
  -13.6518   12.9474  -38.0089 H   0  0  0  0  0  0  0  0  0  0  0  0
  -14.2908   15.3764  -40.4762 H   0  0  0  0  0  0  0  0  0  0  0  0
  -11.4366   13.3564  -37.7339 H   0  0  0  0  0  0  0  0  0  0  0  0
  1  2  1  0  0  0  0
  1 11  1  0  0  0  0
  1 13  2  0  0  0  0
  2  9  1  0  0  0  0
  3  5  1  0  0  0  0
  3  9  1  0  0  0  0
  4  6  1  0  0  0  0
  4  9  1  0  0  0  0
  5 10  1  0  0  0  0
  6 10  1  0  0  0  0
  7  8  1  0  0  0  0
  7 11  1  0  0  0  0
  8 12  1  0  0  0  0
  9 12  1  0  0  0  0
 10 14  1  0  0  0  0
 10 15  1  0  0  0  0
  2 16  1  0  0  0  0
  2 17  1  0  0  0  0
  3 18  1  0  0  0  0
  3 19  1  0  0  0  0
  4 20  1  0  0  0  0
  4 21  1  0  0  0  0
  5 22  1  0  0  0  0
  5 23  1  0  0  0  0
  6 24  1  0  0  0  0
  6 25  1  0  0  0  0
  7 26  1  0  0  0  0
  7 27  1  0  0  0  0
  8 28  1  0  0  0  0
  8 29  1  0  0  0  0
 11 30  1  0  0  0  0
 12 31  1  0  0  0  0
M  END
> <id>
EN300-376564

> <smiles>
FC1(F)CCC2(CC1)CC(=O)NCCN2

> <MDLNUMBER>
MFCD30732783

> <IUPAC Name>
3,3-difluoro-7,10-diazaspiro[5.6]dodecan-11-one

> <CAS>
2138127-07-6

> <URL>
https://www.enaminestore.com/catalog/EN300-376564

> <ROCS_ShapeQuery>
x1247relevant_x1083L0AP1_x1305L0BP1_

> <ROCS_TanimotoCombo>
0.792 

> <ROCS_ShapeTanimoto>
0.488 

> <ROCS_ColorTanimoto>
0.304 

> <ROCS_RefTversky>
0.415 

> <ROCS_RefColorTversky>
0.308 

> <ROCS_RefTverskyCombo>
0.723 

> <ROCS_FitTversky>
1.571 

> <ROCS_FitColorTversky>
0.956 

> <ROCS_FitTverskyCombo>
2.526 

> <ROCS_ColorScore>
-6.491

> <ROCS_Overlap>
1220.544

> <ROCS_Rank>
421                 

$$$$
untitled-dbase-35004_0
  -OEChem-06162310163D

 30 31  0     1  0  0  0  0  0999 V2000
  -13.0042   15.9629  -37.2141 C   0  0  0  0  0  0  0  0  0  0  0  0
  -13.5837   14.1650  -38.9416 C   0  0  0  0  0  0  0  0  0  0  0  0
  -12.9902   14.4427  -37.5521 C   0  0  1  0  0  0  0  0  0  0  0  0
  -11.6879   16.0137  -38.0583 C   0  0  1  0  0  0  0  0  0  0  0  0
  -13.2453   15.2918  -39.9471 C   0  0  2  0  0  0  0  0  0  0  0  0
  -11.4155   14.5429  -37.5130 C   0  0  0  0  0  0  0  0  0  0  0  0
  -12.0111   16.1662  -39.5607 C   0  0  1  0  0  0  0  0  0  0  0  0
  -10.6402   13.5488  -38.3839 C   0  0  0  0  0  0  0  0  0  0  0  0
  -10.7900   14.4963  -36.1027 C   0  0  0  0  0  0  0  0  0  0  0  0
  -12.1794   17.6571  -39.8836 C   0  0  0  0  0  0  0  0  0  0  0  0
  -14.4272   16.0953  -40.0536 O   0  0  0  0  0  0  0  0  0  0  0  0
  -10.8688   15.7263  -40.3002 O   0  0  0  0  0  0  0  0  0  0  0  0
  -13.8598   16.5425  -37.5716 H   0  0  0  0  0  0  0  0  0  0  0  0
  -12.8926   16.2096  -36.1531 H   0  0  0  0  0  0  0  0  0  0  0  0
  -13.2134   13.2031  -39.3122 H   0  0  0  0  0  0  0  0  0  0  0  0
  -14.6717   14.0566  -38.8492 H   0  0  0  0  0  0  0  0  0  0  0  0
  -13.4249   13.7916  -36.7862 H   0  0  0  0  0  0  0  0  0  0  0  0
  -10.9508   16.7485  -37.7124 H   0  0  0  0  0  0  0  0  0  0  0  0
  -13.1033   14.8361  -40.9344 H   0  0  0  0  0  0  0  0  0  0  0  0
   -9.5727   13.7198  -38.2695 H   0  0  0  0  0  0  0  0  0  0  0  0
  -10.9173   13.6846  -39.4263 H   0  0  0  0  0  0  0  0  0  0  0  0
  -10.8777   12.5333  -38.0769 H   0  0  0  0  0  0  0  0  0  0  0  0
   -9.7129   14.5720  -36.1917 H   0  0  0  0  0  0  0  0  0  0  0  0
  -11.0564   13.5590  -35.6294 H   0  0  0  0  0  0  0  0  0  0  0  0
  -11.1716   15.3261  -35.5199 H   0  0  0  0  0  0  0  0  0  0  0  0
  -12.4072   17.7751  -40.9392 H   0  0  0  0  0  0  0  0  0  0  0  0
  -11.2584   18.1838  -39.6505 H   0  0  0  0  0  0  0  0  0  0  0  0
  -12.9915   18.0663  -39.2895 H   0  0  0  0  0  0  0  0  0  0  0  0
  -15.1241   15.5061  -40.3749 H   0  0  0  0  0  0  0  0  0  0  0  0
  -11.0947   15.8310  -41.2361 H   0  0  0  0  0  0  0  0  0  0  0  0
  1  3  1  0  0  0  0
  1  4  1  0  0  0  0
  2  3  1  0  0  0  0
  2  5  1  0  0  0  0
  3  6  1  0  0  0  0
  4  6  1  0  0  0  0
  4  7  1  0  0  0  0
  5  7  1  0  0  0  0
  5 11  1  0  0  0  0
  6  8  1  0  0  0  0
  6  9  1  0  0  0  0
  7 10  1  0  0  0  0
  7 12  1  0  0  0  0
  1 13  1  0  0  0  0
  1 14  1  0  0  0  0
  2 15  1  0  0  0  0
  2 16  1  0  0  0  0
  3 17  1  0  0  0  0
  4 18  1  0  0  0  0
  5 19  1  0  0  0  0
  8 20  1  0  0  0  0
  8 21  1  0  0  0  0
  8 22  1  0  0  0  0
  9 23  1  0  0  0  0
  9 24  1  0  0  0  0
  9 25  1  0  0  0  0
 10 26  1  0  0  0  0
 10 27  1  0  0  0  0
 10 28  1  0  0  0  0
 11 29  1  0  0  0  0
 12 30  1  0  0  0  0
M  END
> <id>
EN300-719200

> <smiles>
CC1(C)C2CC1C(C)(O)C(O)C2

> <MDLNUMBER>
MFCD00137968

> <IUPAC Name>
2,6,6-trimethylbicyclo[3.1.1]heptane-2,3-diol

> <CAS>
53404-49-2

> <URL>
https://www.enaminestore.com/catalog/EN300-719200

> <ROCS_ShapeQuery>
x1247relevant_x1083L0AP1_x1305L0BP1_

> <ROCS_TanimotoCombo>
0.792 

> <ROCS_ShapeTanimoto>
0.449 

> <ROCS_ColorTanimoto>
0.343 

> <ROCS_RefTversky>
0.378 

> <ROCS_RefColorTversky>
0.395 

> <ROCS_RefTverskyCombo>
0.772 

> <ROCS_FitTversky>
1.724 

> <ROCS_FitColorTversky>
0.725 

> <ROCS_FitTverskyCombo>
2.450 

> <ROCS_ColorScore>
-8.410

> <ROCS_Overlap>
1108.788

> <ROCS_Rank>
422                 

$$$$
untitled-dbase-53298_0
  -OEChem-06162310163D

 19 21  0     1  0  0  0  0  0999 V2000
  -13.5828   14.2296  -37.7842 C   0  0  0  0  0  0  0  0  0  0  0  0
  -13.2030   15.6160  -37.3071 C   0  0  1  0  0  0  0  0  0  0  0  0
  -12.6049   14.2188  -39.0061 C   0  0  2  0  0  0  0  0  0  0  0  0
  -11.7696   15.8613  -37.6596 C   0  0  2  0  0  0  0  0  0  0  0  0
  -12.8609   16.4318  -38.5081 C   0  0  1  0  0  0  0  0  0  0  0  0
  -11.2267   14.6400  -38.3777 C   0  0  1  0  0  0  0  0  0  0  0  0
  -13.0123   15.5458  -39.7096 C   0  0  0  0  0  0  0  0  0  0  0  0
  -10.6285   13.6701  -37.4796 N   0  0  0  0  0  0  0  0  0  0  0  0
  -12.1779   15.8846  -40.7097 F   0  0  0  0  0  0  0  0  0  0  0  0
  -14.2742   15.5219  -40.1772 F   0  0  0  0  0  0  0  0  0  0  0  0
  -13.3678   13.4556  -37.0437 H   0  0  0  0  0  0  0  0  0  0  0  0
  -14.6331   14.1752  -38.0867 H   0  0  0  0  0  0  0  0  0  0  0  0
  -13.6699   16.0304  -36.4357 H   0  0  0  0  0  0  0  0  0  0  0  0
  -12.6096   13.3216  -39.6253 H   0  0  0  0  0  0  0  0  0  0  0  0
  -11.1166   16.4837  -37.0789 H   0  0  0  0  0  0  0  0  0  0  0  0
  -13.0602   17.4822  -38.5794 H   0  0  0  0  0  0  0  0  0  0  0  0
  -10.5060   14.9246  -39.1525 H   0  0  0  0  0  0  0  0  0  0  0  0
  -10.3669   12.8660  -38.0050 H   0  0  0  0  0  0  0  0  0  0  0  0
   -9.8262   14.0795  -37.0555 H   0  0  0  0  0  0  0  0  0  0  0  0
  1  2  1  0  0  0  0
  1  3  1  1  0  0  0
  2  4  1  0  0  0  0
  2  5  1  0  0  0  0
  3  6  1  0  0  0  0
  3  7  1  0  0  0  0
  4  5  1  0  0  0  0
  4  6  1  0  0  0  0
  5  7  1  0  0  0  0
  6  8  1  1  0  0  0
  7  9  1  0  0  0  0
  7 10  1  0  0  0  0
  1 11  1  0  0  0  0
  1 12  1  0  0  0  0
  2 13  1  0  0  0  0
  3 14  1  0  0  0  0
  4 15  1  0  0  0  0
  5 16  1  0  0  0  0
  6 17  1  0  0  0  0
  8 18  1  0  0  0  0
  8 19  1  0  0  0  0
M  END
> <id>
EN300-44825927

> <smiles>
N[C@@H]1C2C3C[C@H]1C(F)(F)C32 |&1:1,5,r|

> <IUPAC Name>
rac-(3R,4R)-5,5-difluorotricyclo[2.2.1.0,2,6]heptan-3-amine

> <Purity>
95

> <URL>
https://www.enaminestore.com/catalog/EN300-44825927

> <ROCS_ShapeQuery>
x1247relevant_x1083L0AP1_x1305L0BP1_

> <ROCS_TanimotoCombo>
0.792 

> <ROCS_ShapeTanimoto>
0.408 

> <ROCS_ColorTanimoto>
0.384 

> <ROCS_RefTversky>
0.349 

> <ROCS_RefColorTversky>
0.647 

> <ROCS_RefTverskyCombo>
0.996 

> <ROCS_FitTversky>
1.707 

> <ROCS_FitColorTversky>
0.486 

> <ROCS_FitTverskyCombo>
2.193 

> <ROCS_ColorScore>
-14.394

> <ROCS_Overlap>
1024.004

> <ROCS_Rank>
423                 

$$$$
untitled-dbase-19684_17
  -OEChem-06162310163D

 35 37  0     1  0  0  0  0  0999 V2000
  -10.6475   14.4568  -36.7580 C   0  0  0  0  0  0  0  0  0  0  0  0
  -13.9488   13.8449  -38.1295 C   0  0  0  0  0  0  0  0  0  0  0  0
  -14.1578   14.9813  -37.1051 C   0  0  0  0  0  0  0  0  0  0  0  0
  -12.1635   14.6736  -39.7504 C   0  0  0  0  0  0  0  0  0  0  0  0
  -12.4454   13.8663  -38.4621 C   0  0  1  0  0  0  0  0  0  0  0  0
  -12.8092   15.7032  -37.0552 C   0  0  2  0  0  0  0  0  0  0  0  0
  -12.4591   16.1467  -39.5763 C   0  0  1  0  0  0  0  0  0  0  0  0
  -12.7372   16.6955  -38.1924 C   0  0  2  0  0  0  0  0  0  0  0  0
   -7.9333   13.9208  -36.0409 C   0  0  0  0  0  0  0  0  0  0  0  0
   -7.4893   13.8456  -38.5120 C   0  0  0  0  0  0  0  0  0  0  0  0
   -8.3161   15.9681  -37.4539 C   0  0  0  0  0  0  0  0  0  0  0  0
   -8.3643   14.4414  -37.4113 C   0  0  0  0  0  0  0  0  0  0  0  0
  -11.8895   14.6132  -37.3412 N   0  0  0  0  0  0  0  0  0  0  0  0
  -10.4063   14.6841  -35.5747 O   0  0  0  0  0  0  0  0  0  0  0  0
  -11.4636   16.8636  -38.8208 O   0  0  0  0  0  0  0  0  0  0  0  0
   -9.7109   14.0208  -37.6556 O   0  0  0  0  0  0  0  0  0  0  0  0
  -14.2258   12.8893  -37.6695 H   0  0  0  0  0  0  0  0  0  0  0  0
  -14.5790   13.9847  -39.0142 H   0  0  0  0  0  0  0  0  0  0  0  0
  -14.9881   15.6336  -37.3948 H   0  0  0  0  0  0  0  0  0  0  0  0
  -14.3912   14.5462  -36.1260 H   0  0  0  0  0  0  0  0  0  0  0  0
  -11.1116   14.5553  -40.0377 H   0  0  0  0  0  0  0  0  0  0  0  0
  -12.7668   14.2776  -40.5753 H   0  0  0  0  0  0  0  0  0  0  0  0
  -12.0290   12.8578  -38.5417 H   0  0  0  0  0  0  0  0  0  0  0  0
  -12.6023   16.1830  -36.0948 H   0  0  0  0  0  0  0  0  0  0  0  0
  -12.8670   16.6316  -40.4504 H   0  0  0  0  0  0  0  0  0  0  0  0
  -13.3766   17.5590  -38.0814 H   0  0  0  0  0  0  0  0  0  0  0  0
   -8.5590   14.3462  -35.2480 H   0  0  0  0  0  0  0  0  0  0  0  0
   -7.9968   12.8291  -35.9859 H   0  0  0  0  0  0  0  0  0  0  0  0
   -6.9032   14.2194  -35.8154 H   0  0  0  0  0  0  0  0  0  0  0  0
   -7.7949   14.2164  -39.4970 H   0  0  0  0  0  0  0  0  0  0  0  0
   -7.5941   12.7552  -38.5465 H   0  0  0  0  0  0  0  0  0  0  0  0
   -6.4320   14.0877  -38.3632 H   0  0  0  0  0  0  0  0  0  0  0  0
   -8.6252   16.3418  -38.4368 H   0  0  0  0  0  0  0  0  0  0  0  0
   -8.9670   16.4135  -36.6946 H   0  0  0  0  0  0  0  0  0  0  0  0
   -7.2944   16.3304  -37.2927 H   0  0  0  0  0  0  0  0  0  0  0  0
  1 13  1  0  0  0  0
  1 14  2  0  0  0  0
  1 16  1  0  0  0  0
  2  3  1  0  0  0  0
  2  5  1  0  0  0  0
  3  6  1  0  0  0  0
  4  5  1  0  0  0  0
  4  7  1  0  0  0  0
  5 13  1  0  0  0  0
  6  8  1  0  0  0  0
  6 13  1  0  0  0  0
  7  8  1  0  0  0  0
  7 15  1  0  0  0  0
  8 15  1  0  0  0  0
  9 12  1  0  0  0  0
 10 12  1  0  0  0  0
 11 12  1  0  0  0  0
 12 16  1  0  0  0  0
  2 17  1  0  0  0  0
  2 18  1  0  0  0  0
  3 19  1  0  0  0  0
  3 20  1  0  0  0  0
  4 21  1  0  0  0  0
  4 22  1  0  0  0  0
  5 23  1  0  0  0  0
  6 24  1  0  0  0  0
  7 25  1  0  0  0  0
  8 26  1  0  0  0  0
  9 27  1  0  0  0  0
  9 28  1  0  0  0  0
  9 29  1  0  0  0  0
 10 30  1  0  0  0  0
 10 31  1  0  0  0  0
 10 32  1  0  0  0  0
 11 33  1  0  0  0  0
 11 34  1  0  0  0  0
 11 35  1  0  0  0  0
M  END
> <id>
EN300-1708377

> <smiles>
CC(C)(C)OC(=O)N1C2CCC1C3OC3C2

> <MDLNUMBER>
MFCD32762792

> <IUPAC Name>
tert-butyl 3-oxa-9-azatricyclo[4.2.1.0,2,4]nonane-9-carboxylate

> <CAS>
2219408-63-4

> <URL>
https://www.enaminestore.com/catalog/EN300-1708377

> <ROCS_ShapeQuery>
x1247relevant_x1083L0AP1_x1305L0BP1_

> <ROCS_TanimotoCombo>
0.792 

> <ROCS_ShapeTanimoto>
0.482 

> <ROCS_ColorTanimoto>
0.310 

> <ROCS_RefTversky>
0.418 

> <ROCS_RefColorTversky>
0.386 

> <ROCS_RefTverskyCombo>
0.804 

> <ROCS_FitTversky>
1.462 

> <ROCS_FitColorTversky>
0.614 

> <ROCS_FitTverskyCombo>
2.076 

> <ROCS_ColorScore>
-8.254

> <ROCS_Overlap>
1231.845

> <ROCS_Rank>
424                 

$$$$
untitled-dbase-42650_0
  -OEChem-06162310163D

 24 26  0     1  0  0  0  0  0999 V2000
   -9.0903   15.4898  -37.2127 C   0  0  0  0  0  0  0  0  0  0  0  0
   -9.3267   14.1144  -36.9940 C   0  0  0  0  0  0  0  0  0  0  0  0
  -10.1194   16.3490  -37.6109 C   0  0  0  0  0  0  0  0  0  0  0  0
  -10.5994   13.5622  -37.1650 C   0  0  0  0  0  0  0  0  0  0  0  0
  -11.3685   15.7961  -37.7647 C   0  0  0  0  0  0  0  0  0  0  0  0
  -11.6050   14.4257  -37.5408 C   0  0  0  0  0  0  0  0  0  0  0  0
  -13.5784   15.4253  -37.3489 C   0  0  0  0  0  0  0  0  0  0  0  0
  -13.1538   14.2087  -39.3111 C   0  0  0  0  0  0  0  0  0  0  0  0
  -12.6957   16.3425  -38.2225 C   0  0  2  0  0  0  0  0  0  0  0  0
  -12.9685   15.7384  -39.6280 C   0  0  2  0  0  0  0  0  0  0  0  0
  -13.0003   14.1323  -37.8239 N   0  0  1  0  0  0  0  0  0  0  0  0
  -14.1738   16.2926  -40.2319 N   0  0  0  0  0  0  0  0  0  0  0  0
   -8.0861   15.8838  -37.0768 H   0  0  0  0  0  0  0  0  0  0  0  0
   -8.5005   13.4750  -36.6932 H   0  0  0  0  0  0  0  0  0  0  0  0
   -9.9328   17.4000  -37.7954 H   0  0  0  0  0  0  0  0  0  0  0  0
  -10.7786   12.5056  -37.0074 H   0  0  0  0  0  0  0  0  0  0  0  0
  -13.4484   15.5655  -36.2661 H   0  0  0  0  0  0  0  0  0  0  0  0
  -14.6481   15.4944  -37.5801 H   0  0  0  0  0  0  0  0  0  0  0  0
  -14.1515   13.8472  -39.5876 H   0  0  0  0  0  0  0  0  0  0  0  0
  -12.4163   13.5896  -39.8368 H   0  0  0  0  0  0  0  0  0  0  0  0
  -12.8351   17.4162  -38.0910 H   0  0  0  0  0  0  0  0  0  0  0  0
  -12.1177   15.8898  -40.3033 H   0  0  0  0  0  0  0  0  0  0  0  0
  -14.0297   17.2635  -40.3849 H   0  0  0  0  0  0  0  0  0  0  0  0
  -14.3362   15.8242  -41.0927 H   0  0  0  0  0  0  0  0  0  0  0  0
  1  2  2  0  0  0  0
  1  3  1  0  0  0  0
  2  4  1  0  0  0  0
  3  5  2  0  0  0  0
  4  6  2  0  0  0  0
  5  6  1  0  0  0  0
  5  9  1  0  0  0  0
  6 11  1  0  0  0  0
  7  9  1  0  0  0  0
  7 11  1  0  0  0  0
  8 10  1  0  0  0  0
  8 11  1  0  0  0  0
  9 10  1  0  0  0  0
 10 12  1  0  0  0  0
  1 13  1  0  0  0  0
  2 14  1  0  0  0  0
  3 15  1  0  0  0  0
  4 16  1  0  0  0  0
  7 17  1  0  0  0  0
  7 18  1  0  0  0  0
  8 19  1  0  0  0  0
  8 20  1  0  0  0  0
  9 21  1  0  0  0  0
 10 22  1  0  0  0  0
 12 23  1  0  0  0  0
 12 24  1  0  0  0  0
M  END
> <id>
EN300-39847373

> <smiles>
NC1CN2CC1C=3C=CC=CC23

> <IUPAC Name>
1-azatricyclo[6.2.1.0,2,7]undeca-2,4,6-trien-9-amine

> <URL>
https://www.enaminestore.com/catalog/EN300-39847373

> <ROCS_ShapeQuery>
x1247relevant_x1083L0AP1_x1305L0BP1_

> <ROCS_TanimotoCombo>
0.792 

> <ROCS_ShapeTanimoto>
0.480 

> <ROCS_ColorTanimoto>
0.312 

> <ROCS_RefTversky>
0.400 

> <ROCS_RefColorTversky>
0.351 

> <ROCS_RefTverskyCombo>
0.751 

> <ROCS_FitTversky>
1.717 

> <ROCS_FitColorTversky>
0.737 

> <ROCS_FitTverskyCombo>
2.455 

> <ROCS_ColorScore>
-7.449

> <ROCS_Overlap>
1175.293

> <ROCS_Rank>
425                 

$$$$
untitled-dbase-868_24
  -OEChem-06162310163D

 35 36  0     1  0  0  0  0  0999 V2000
  -12.2677   16.2029  -39.6711 C   0  0  0  0  0  0  0  0  0  0  0  0
  -10.6389   14.3449  -36.7483 C   0  0  0  0  0  0  0  0  0  0  0  0
  -12.1784   16.8502  -38.2906 C   0  0  0  0  0  0  0  0  0  0  0  0
  -12.0225   14.6992  -39.7783 C   0  0  0  0  0  0  0  0  0  0  0  0
  -14.0295   15.4052  -37.3416 C   0  0  0  0  0  0  0  0  0  0  0  0
  -13.9400   14.1425  -38.2197 C   0  0  0  0  0  0  0  0  0  0  0  0
  -12.5791   15.8743  -37.1749 C   0  0  1  0  0  0  0  0  0  0  0  0
  -12.4426   13.9599  -38.5000 C   0  0  2  0  0  0  0  0  0  0  0  0
   -7.7865   14.3624  -36.5672 C   0  0  0  0  0  0  0  0  0  0  0  0
   -7.8269   13.0530  -38.7104 C   0  0  0  0  0  0  0  0  0  0  0  0
   -8.7647   15.3822  -38.6499 C   0  0  0  0  0  0  0  0  0  0  0  0
   -8.5552   14.0913  -37.8596 C   0  0  0  0  0  0  0  0  0  0  0  0
  -11.8284   14.6512  -37.3793 N   0  0  0  0  0  0  0  0  0  0  0  0
  -12.4299   16.8897  -40.6808 O   0  0  0  0  0  0  0  0  0  0  0  0
  -10.3313   14.7385  -35.6256 O   0  0  0  0  0  0  0  0  0  0  0  0
   -9.8373   13.5502  -37.5223 O   0  0  0  0  0  0  0  0  0  0  0  0
  -11.1445   17.1840  -38.1480 H   0  0  0  0  0  0  0  0  0  0  0  0
  -12.8321   17.7291  -38.2753 H   0  0  0  0  0  0  0  0  0  0  0  0
  -12.5843   14.3156  -40.6368 H   0  0  0  0  0  0  0  0  0  0  0  0
  -10.9536   14.5505  -39.9682 H   0  0  0  0  0  0  0  0  0  0  0  0
  -14.6763   16.1658  -37.7908 H   0  0  0  0  0  0  0  0  0  0  0  0
  -14.4558   15.1376  -36.3675 H   0  0  0  0  0  0  0  0  0  0  0  0
  -14.3280   13.2850  -37.6574 H   0  0  0  0  0  0  0  0  0  0  0  0
  -14.5368   14.2406  -39.1323 H   0  0  0  0  0  0  0  0  0  0  0  0
  -12.3885   16.3127  -36.1906 H   0  0  0  0  0  0  0  0  0  0  0  0
  -12.1551   12.9057  -38.5499 H   0  0  0  0  0  0  0  0  0  0  0  0
   -8.3060   15.1072  -35.9537 H   0  0  0  0  0  0  0  0  0  0  0  0
   -7.6600   13.4506  -35.9743 H   0  0  0  0  0  0  0  0  0  0  0  0
   -6.7945   14.7761  -36.7817 H   0  0  0  0  0  0  0  0  0  0  0  0
   -8.3750   12.8555  -39.6387 H   0  0  0  0  0  0  0  0  0  0  0  0
   -7.7581   12.0949  -38.1827 H   0  0  0  0  0  0  0  0  0  0  0  0
   -6.8145   13.3803  -38.9683 H   0  0  0  0  0  0  0  0  0  0  0  0
   -9.3160   15.1881  -39.5770 H   0  0  0  0  0  0  0  0  0  0  0  0
   -9.3183   16.1261  -38.0678 H   0  0  0  0  0  0  0  0  0  0  0  0
   -7.8037   15.8175  -38.9470 H   0  0  0  0  0  0  0  0  0  0  0  0
  1  3  1  0  0  0  0
  1  4  1  0  0  0  0
  1 14  2  0  0  0  0
  2 13  1  0  0  0  0
  2 15  2  0  0  0  0
  2 16  1  0  0  0  0
  3  7  1  0  0  0  0
  4  8  1  0  0  0  0
  5  6  1  0  0  0  0
  5  7  1  0  0  0  0
  6  8  1  0  0  0  0
  7 13  1  0  0  0  0
  8 13  1  0  0  0  0
  9 12  1  0  0  0  0
 10 12  1  0  0  0  0
 11 12  1  0  0  0  0
 12 16  1  0  0  0  0
  3 17  1  0  0  0  0
  3 18  1  0  0  0  0
  4 19  1  0  0  0  0
  4 20  1  0  0  0  0
  5 21  1  0  0  0  0
  5 22  1  0  0  0  0
  6 23  1  0  0  0  0
  6 24  1  0  0  0  0
  7 25  1  0  0  0  0
  8 26  1  0  0  0  0
  9 27  1  0  0  0  0
  9 28  1  0  0  0  0
  9 29  1  0  0  0  0
 10 30  1  0  0  0  0
 10 31  1  0  0  0  0
 10 32  1  0  0  0  0
 11 33  1  0  0  0  0
 11 34  1  0  0  0  0
 11 35  1  0  0  0  0
M  END
> <id>
EN300-52945

> <smiles>
CC(C)(C)OC(=O)N1C2CCC1CC(=O)C2

> <IUPAC Name>
tert-butyl 3-oxo-8-azabicyclo[3.2.1]octane-8-carboxylate

> <CAS>
185099-67-6

> <Purity>
95

> <URL>
https://www.enaminestore.com/catalog/EN300-52945

> <MP>
69-73

> <ROCS_ShapeQuery>
x1247relevant_x1083L0AP1_x1305L0BP1_

> <ROCS_TanimotoCombo>
0.792 

> <ROCS_ShapeTanimoto>
0.474 

> <ROCS_ColorTanimoto>
0.318 

> <ROCS_RefTversky>
0.412 

> <ROCS_RefColorTversky>
0.349 

> <ROCS_RefTverskyCombo>
0.761 

> <ROCS_FitTversky>
1.466 

> <ROCS_FitColorTversky>
0.779 

> <ROCS_FitTverskyCombo>
2.244 

> <ROCS_ColorScore>
-7.401

> <ROCS_Overlap>
1214.652

> <ROCS_Rank>
426                 

$$$$
untitled-dbase-12865_0
  -OEChem-06162310163D

 25 27  0     1  0  0  0  0  0999 V2000
  -12.0389   16.0254  -39.1354 C   0  0  0  0  0  0  0  0  0  0  0  0
  -10.3655   15.2231  -35.7493 C   0  0  0  0  0  0  0  0  0  0  0  0
  -10.9869   16.0666  -36.8606 C   0  0  0  0  0  0  0  0  0  0  0  0
  -14.2230   14.6975  -39.5170 C   0  0  0  0  0  0  0  0  0  0  0  0
   -9.3927   14.1924  -36.3164 C   0  0  0  0  0  0  0  0  0  0  0  0
  -10.5796   14.1074  -38.4261 C   0  0  0  0  0  0  0  0  0  0  0  0
  -13.5066   15.9837  -39.2162 C   0  0  1  0  0  0  0  0  0  0  0  0
  -13.9435   15.0845  -38.0947 C   0  0  2  0  0  0  0  0  0  0  0  0
  -11.5713   15.1766  -37.9584 C   0  0  2  0  0  0  0  0  0  0  0  0
  -10.0437   13.3322  -37.3036 N   0  0  0  0  0  0  0  0  0  0  0  0
  -11.3429   16.6659  -39.9054 O   0  0  0  0  0  0  0  0  0  0  0  0
  -12.7653   14.5250  -37.4649 O   0  0  0  0  0  0  0  0  0  0  0  0
   -9.8425   15.8758  -35.0410 H   0  0  0  0  0  0  0  0  0  0  0  0
  -11.1575   14.7135  -35.1861 H   0  0  0  0  0  0  0  0  0  0  0  0
  -11.7634   16.7093  -36.4280 H   0  0  0  0  0  0  0  0  0  0  0  0
  -10.2189   16.7283  -37.2809 H   0  0  0  0  0  0  0  0  0  0  0  0
  -15.2464   14.7642  -39.8659 H   0  0  0  0  0  0  0  0  0  0  0  0
  -13.6599   13.8800  -39.9504 H   0  0  0  0  0  0  0  0  0  0  0  0
   -8.5259   14.6933  -36.7647 H   0  0  0  0  0  0  0  0  0  0  0  0
   -9.0149   13.5691  -35.4987 H   0  0  0  0  0  0  0  0  0  0  0  0
  -11.0812   13.4086  -39.1061 H   0  0  0  0  0  0  0  0  0  0  0  0
   -9.7536   14.5619  -38.9876 H   0  0  0  0  0  0  0  0  0  0  0  0
  -14.0350   16.9180  -39.3526 H   0  0  0  0  0  0  0  0  0  0  0  0
  -14.7660   15.4015  -37.4681 H   0  0  0  0  0  0  0  0  0  0  0  0
   -9.3696   12.6532  -37.6562 H   0  0  0  0  0  0  0  0  0  0  0  0
  1  7  1  0  0  0  0
  1  9  1  0  0  0  0
  1 11  2  0  0  0  0
  2  3  1  0  0  0  0
  2  5  1  0  0  0  0
  3  9  1  0  0  0  0
  4  7  1  0  0  0  0
  4  8  1  0  0  0  0
  5 10  1  0  0  0  0
  6  9  1  0  0  0  0
  6 10  1  0  0  0  0
  7  8  1  0  0  0  0
  8 12  1  0  0  0  0
  9 12  1  0  0  0  0
  2 13  1  0  0  0  0
  2 14  1  0  0  0  0
  3 15  1  0  0  0  0
  3 16  1  0  0  0  0
  4 17  1  0  0  0  0
  4 18  1  0  0  0  0
  5 19  1  0  0  0  0
  5 20  1  0  0  0  0
  6 21  1  0  0  0  0
  6 22  1  0  0  0  0
  7 23  1  0  0  0  0
  8 24  1  0  0  0  0
 10 25  1  0  0  0  0
M  END
> <id>
EN300-737323

> <smiles>
O=C1C2CC2OC31CCCNC3

> <IUPAC Name>
2-oxaspiro[bicyclo[3.1.0]hexane-3,3'-piperidine]-4-one

> <CAS>
2137790-91-9

> <URL>
https://www.enaminestore.com/catalog/EN300-737323

> <ROCS_ShapeQuery>
x1247relevant_x1083L0AP1_x1305L0BP1_

> <ROCS_TanimotoCombo>
0.792 

> <ROCS_ShapeTanimoto>
0.483 

> <ROCS_ColorTanimoto>
0.308 

> <ROCS_RefTversky>
0.400 

> <ROCS_RefColorTversky>
0.341 

> <ROCS_RefTverskyCombo>
0.741 

> <ROCS_FitTversky>
1.765 

> <ROCS_FitColorTversky>
0.765 

> <ROCS_FitTverskyCombo>
2.529 

> <ROCS_ColorScore>
-7.226

> <ROCS_Overlap>
1174.214

> <ROCS_Rank>
427                 

$$$$
untitled-dbase-31749_1
  -OEChem-06162310163D

 26 28  0     1  0  0  0  0  0999 V2000
  -13.1019   16.5098  -39.1323 C   0  0  0  0  0  0  0  0  0  0  0  0
  -13.7970   16.2315  -38.0161 C   0  0  0  0  0  0  0  0  0  0  0  0
  -12.6052   14.1421  -39.5349 C   0  0  0  0  0  0  0  0  0  0  0  0
  -13.4046   13.8221  -38.2512 C   0  0  0  0  0  0  0  0  0  0  0  0
   -9.8611   14.6203  -38.1778 C   0  0  0  0  0  0  0  0  0  0  0  0
  -11.0654   14.1381  -36.2439 C   0  0  0  0  0  0  0  0  0  0  0  0
  -11.9639   15.5441  -39.4155 C   0  0  2  0  0  0  0  0  0  0  0  0
  -13.3042   15.0075  -37.2633 C   0  0  1  0  0  0  0  0  0  0  0  0
  -11.0167   15.6185  -38.1837 C   0  0  1  0  0  0  0  0  0  0  0  0
  -11.8217   15.2962  -36.8912 C   0  0  2  0  0  0  0  0  0  0  0  0
  -10.3201   13.5170  -37.3368 N   0  0  0  0  0  0  0  0  0  0  0  0
  -13.3252   17.3474  -39.7790 H   0  0  0  0  0  0  0  0  0  0  0  0
  -14.6358   16.8224  -37.6742 H   0  0  0  0  0  0  0  0  0  0  0  0
  -11.8537   13.3712  -39.7314 H   0  0  0  0  0  0  0  0  0  0  0  0
  -13.2865   14.1168  -40.3960 H   0  0  0  0  0  0  0  0  0  0  0  0
  -14.4557   13.6491  -38.5185 H   0  0  0  0  0  0  0  0  0  0  0  0
  -13.0595   12.8884  -37.7963 H   0  0  0  0  0  0  0  0  0  0  0  0
   -9.5803   14.2807  -39.1795 H   0  0  0  0  0  0  0  0  0  0  0  0
   -8.9723   15.0724  -37.7217 H   0  0  0  0  0  0  0  0  0  0  0  0
  -10.3569   14.5185  -35.4984 H   0  0  0  0  0  0  0  0  0  0  0  0
  -11.7223   13.4231  -35.7394 H   0  0  0  0  0  0  0  0  0  0  0  0
  -11.4385   15.8143  -40.3368 H   0  0  0  0  0  0  0  0  0  0  0  0
  -13.9090   14.8249  -36.3697 H   0  0  0  0  0  0  0  0  0  0  0  0
  -10.6053   16.6352  -38.1153 H   0  0  0  0  0  0  0  0  0  0  0  0
  -11.7891   16.1614  -36.2145 H   0  0  0  0  0  0  0  0  0  0  0  0
  -10.9317   12.9045  -37.8697 H   0  0  0  0  0  0  0  0  0  0  0  0
  1  2  2  0  0  0  0
  1  7  1  0  0  0  0
  2  8  1  0  0  0  0
  3  4  1  0  0  0  0
  3  7  1  6  0  0  0
  4  8  1  6  0  0  0
  5  9  1  6  0  0  0
  5 11  1  0  0  0  0
  6 10  1  6  0  0  0
  6 11  1  0  0  0  0
  7  9  1  0  0  0  0
  8 10  1  0  0  0  0
  9 10  1  0  0  0  0
  1 12  1  0  0  0  0
  2 13  1  0  0  0  0
  3 14  1  0  0  0  0
  3 15  1  0  0  0  0
  4 16  1  0  0  0  0
  4 17  1  0  0  0  0
  5 18  1  0  0  0  0
  5 19  1  0  0  0  0
  6 20  1  0  0  0  0
  6 21  1  0  0  0  0
  7 22  1  0  0  0  0
  8 23  1  0  0  0  0
  9 24  1  0  0  0  0
 10 25  1  0  0  0  0
 11 26  1  0  0  0  0
M  END
> <id>
EN300-7462470

> <smiles>
C1NC[C@@H]2[C@H]1[C@@H]3CC[C@H]2C=C3

> <MDLNUMBER>
MFCD32203045

> <IUPAC Name>
(1R,2R,6S,7S)-4-azatricyclo[5.2.2.0,2,6]undec-8-ene

> <CAS>
791575-52-5

> <URL>
https://www.enaminestore.com/catalog/EN300-7462470

> <ROCS_ShapeQuery>
x1247relevant_x1083L0AP1_x1305L0BP1_

> <ROCS_TanimotoCombo>
0.792 

> <ROCS_ShapeTanimoto>
0.424 

> <ROCS_ColorTanimoto>
0.368 

> <ROCS_RefTversky>
0.361 

> <ROCS_RefColorTversky>
0.392 

> <ROCS_RefTverskyCombo>
0.753 

> <ROCS_FitTversky>
1.701 

> <ROCS_FitColorTversky>
0.855 

> <ROCS_FitTverskyCombo>
2.556 

> <ROCS_ColorScore>
-8.315

> <ROCS_Overlap>
1060.166

> <ROCS_Rank>
428                 

$$$$
untitled-dbase-27682_1
  -OEChem-06162310163D

 26 28  0     1  0  0  0  0  0999 V2000
  -13.1019   16.5098  -39.1323 C   0  0  0  0  0  0  0  0  0  0  0  0
  -13.7970   16.2315  -38.0161 C   0  0  0  0  0  0  0  0  0  0  0  0
  -12.6052   14.1421  -39.5349 C   0  0  0  0  0  0  0  0  0  0  0  0
  -13.4046   13.8221  -38.2512 C   0  0  0  0  0  0  0  0  0  0  0  0
   -9.8611   14.6203  -38.1778 C   0  0  0  0  0  0  0  0  0  0  0  0
  -11.0654   14.1381  -36.2439 C   0  0  0  0  0  0  0  0  0  0  0  0
  -11.9639   15.5441  -39.4155 C   0  0  2  0  0  0  0  0  0  0  0  0
  -13.3042   15.0075  -37.2633 C   0  0  1  0  0  0  0  0  0  0  0  0
  -11.0167   15.6185  -38.1837 C   0  0  1  0  0  0  0  0  0  0  0  0
  -11.8217   15.2962  -36.8912 C   0  0  2  0  0  0  0  0  0  0  0  0
  -10.3201   13.5170  -37.3368 N   0  0  0  0  0  0  0  0  0  0  0  0
  -13.3252   17.3474  -39.7790 H   0  0  0  0  0  0  0  0  0  0  0  0
  -14.6358   16.8224  -37.6742 H   0  0  0  0  0  0  0  0  0  0  0  0
  -11.8537   13.3712  -39.7314 H   0  0  0  0  0  0  0  0  0  0  0  0
  -13.2865   14.1168  -40.3960 H   0  0  0  0  0  0  0  0  0  0  0  0
  -14.4557   13.6491  -38.5185 H   0  0  0  0  0  0  0  0  0  0  0  0
  -13.0595   12.8884  -37.7963 H   0  0  0  0  0  0  0  0  0  0  0  0
   -9.5803   14.2807  -39.1795 H   0  0  0  0  0  0  0  0  0  0  0  0
   -8.9723   15.0724  -37.7217 H   0  0  0  0  0  0  0  0  0  0  0  0
  -10.3569   14.5185  -35.4984 H   0  0  0  0  0  0  0  0  0  0  0  0
  -11.7223   13.4231  -35.7394 H   0  0  0  0  0  0  0  0  0  0  0  0
  -11.4385   15.8143  -40.3368 H   0  0  0  0  0  0  0  0  0  0  0  0
  -13.9090   14.8249  -36.3697 H   0  0  0  0  0  0  0  0  0  0  0  0
  -10.6053   16.6352  -38.1153 H   0  0  0  0  0  0  0  0  0  0  0  0
  -11.7891   16.1614  -36.2145 H   0  0  0  0  0  0  0  0  0  0  0  0
  -10.9317   12.9045  -37.8697 H   0  0  0  0  0  0  0  0  0  0  0  0
  1  2  2  0  0  0  0
  1  7  1  0  0  0  0
  2  8  1  0  0  0  0
  3  4  1  0  0  0  0
  3  7  1  6  0  0  0
  4  8  1  6  0  0  0
  5  9  1  6  0  0  0
  5 11  1  0  0  0  0
  6 10  1  6  0  0  0
  6 11  1  0  0  0  0
  7  9  1  0  0  0  0
  8 10  1  0  0  0  0
  9 10  1  0  0  0  0
  1 12  1  0  0  0  0
  2 13  1  0  0  0  0
  3 14  1  0  0  0  0
  3 15  1  0  0  0  0
  4 16  1  0  0  0  0
  4 17  1  0  0  0  0
  5 18  1  0  0  0  0
  5 19  1  0  0  0  0
  6 20  1  0  0  0  0
  6 21  1  0  0  0  0
  7 22  1  0  0  0  0
  8 23  1  0  0  0  0
  9 24  1  0  0  0  0
 10 25  1  0  0  0  0
 11 26  1  0  0  0  0
M  END
> <id>
EN300-7462469

> <smiles>
Cl.C1NC[C@@H]2[C@H]1[C@@H]3CC[C@H]2C=C3

> <MDLNUMBER>
MFCD32203335

> <IUPAC Name>
(1R,2R,6S,7S)-4-azatricyclo[5.2.2.0,2,6]undec-8-ene hydrochloride

> <CAS>
312728-68-0

> <Purity>
95

> <URL>
https://www.enaminestore.com/catalog/EN300-7462469

> <Saltdate>
Cl

> <ROCS_ShapeQuery>
x1247relevant_x1083L0AP1_x1305L0BP1_

> <ROCS_TanimotoCombo>
0.792 

> <ROCS_ShapeTanimoto>
0.424 

> <ROCS_ColorTanimoto>
0.368 

> <ROCS_RefTversky>
0.361 

> <ROCS_RefColorTversky>
0.392 

> <ROCS_RefTverskyCombo>
0.753 

> <ROCS_FitTversky>
1.701 

> <ROCS_FitColorTversky>
0.855 

> <ROCS_FitTverskyCombo>
2.556 

> <ROCS_ColorScore>
-8.315

> <ROCS_Overlap>
1060.166

> <ROCS_Rank>
429                 

$$$$
untitled-dbase-15204_1
  -OEChem-06162310163D

 33 35  0     1  0  0  0  0  0999 V2000
  -14.2427   14.1517  -40.1477 C   0  0  0  0  0  0  0  0  0  0  0  0
   -9.1605   13.6105  -37.7350 C   0  0  0  0  0  0  0  0  0  0  0  0
  -11.1464   15.7393  -38.7245 C   0  0  0  0  0  0  0  0  0  0  0  0
  -14.6617   15.1973  -41.1581 C   0  0  0  0  0  0  0  0  0  0  0  0
   -8.4286   14.4320  -36.6835 C   0  0  0  0  0  0  0  0  0  0  0  0
  -10.3314   15.7569  -36.3146 C   0  0  0  0  0  0  0  0  0  0  0  0
  -12.6157   14.8812  -36.8986 C   0  0  0  0  0  0  0  0  0  0  0  0
  -14.2051   16.2507  -39.1306 C   0  0  0  0  0  0  0  0  0  0  0  0
  -11.1522   14.9919  -37.3703 C   0  0  1  0  0  0  0  0  0  0  0  0
  -13.4038   14.9459  -39.1523 C   0  0  2  0  0  0  0  0  0  0  0  0
  -10.6080   13.6205  -37.5073 N   0  0  0  0  0  0  0  0  0  0  0  0
  -12.0476   15.1195  -39.7003 N   0  0  0  0  0  0  0  0  0  0  0  0
  -14.7645   16.4344  -40.4407 O   0  0  0  0  0  0  0  0  0  0  0  0
   -8.9423   15.7630  -36.6502 O   0  0  0  0  0  0  0  0  0  0  0  0
  -13.4310   14.2658  -37.8975 O   0  0  0  0  0  0  0  0  0  0  0  0
  -15.1124   13.6360  -39.7207 H   0  0  0  0  0  0  0  0  0  0  0  0
  -13.6231   13.3917  -40.6507 H   0  0  0  0  0  0  0  0  0  0  0  0
   -8.9496   14.0097  -38.7349 H   0  0  0  0  0  0  0  0  0  0  0  0
   -8.7965   12.5753  -37.7304 H   0  0  0  0  0  0  0  0  0  0  0  0
  -11.4502   16.7879  -38.5907 H   0  0  0  0  0  0  0  0  0  0  0  0
  -10.1301   15.7759  -39.1454 H   0  0  0  0  0  0  0  0  0  0  0  0
  -13.9423   15.3047  -41.9743 H   0  0  0  0  0  0  0  0  0  0  0  0
  -15.6446   14.9735  -41.5845 H   0  0  0  0  0  0  0  0  0  0  0  0
   -8.5809   13.9908  -35.6934 H   0  0  0  0  0  0  0  0  0  0  0  0
   -7.3482   14.4598  -36.8703 H   0  0  0  0  0  0  0  0  0  0  0  0
  -10.6732   16.7956  -36.2066 H   0  0  0  0  0  0  0  0  0  0  0  0
  -10.4098   15.2923  -35.3255 H   0  0  0  0  0  0  0  0  0  0  0  0
  -12.6948   14.3088  -35.9674 H   0  0  0  0  0  0  0  0  0  0  0  0
  -13.0527   15.8648  -36.6986 H   0  0  0  0  0  0  0  0  0  0  0  0
  -15.0229   16.2429  -38.3977 H   0  0  0  0  0  0  0  0  0  0  0  0
  -13.5697   17.1260  -38.9330 H   0  0  0  0  0  0  0  0  0  0  0  0
  -11.0606   13.1665  -38.2980 H   0  0  0  0  0  0  0  0  0  0  0  0
  -12.0978   15.7001  -40.5353 H   0  0  0  0  0  0  0  0  0  0  0  0
  1  4  1  0  0  0  0
  1 10  1  0  0  0  0
  2  5  1  0  0  0  0
  2 11  1  0  0  0  0
  3  9  1  0  0  0  0
  3 12  1  0  0  0  0
  4 13  1  0  0  0  0
  5 14  1  0  0  0  0
  6  9  1  0  0  0  0
  6 14  1  0  0  0  0
  7  9  1  0  0  0  0
  7 15  1  0  0  0  0
  8 10  1  0  0  0  0
  8 13  1  0  0  0  0
  9 11  1  0  0  0  0
 10 12  1  0  0  0  0
 10 15  1  0  0  0  0
  1 16  1  0  0  0  0
  1 17  1  0  0  0  0
  2 18  1  0  0  0  0
  2 19  1  0  0  0  0
  3 20  1  0  0  0  0
  3 21  1  0  0  0  0
  4 22  1  0  0  0  0
  4 23  1  0  0  0  0
  5 24  1  0  0  0  0
  5 25  1  0  0  0  0
  6 26  1  0  0  0  0
  6 27  1  0  0  0  0
  7 28  1  0  0  0  0
  7 29  1  0  0  0  0
  8 30  1  0  0  0  0
  8 31  1  0  0  0  0
 11 32  1  0  0  0  0
 12 33  1  0  0  0  0
M  END
> <id>
EN300-1280607

> <smiles>
C1CC2(CO1)NCC3(COCCN3)CO2

> <IUPAC Name>
2,6,12-trioxa-9,15-diazadispiro[4.2.5^{8}.2^{5}]pentadecane

> <CAS>
2166811-90-9

> <URL>
https://www.enaminestore.com/catalog/EN300-1280607

> <ROCS_ShapeQuery>
x1247relevant_x1083L0AP1_x1305L0BP1_

> <ROCS_TanimotoCombo>
0.792 

> <ROCS_ShapeTanimoto>
0.502 

> <ROCS_ColorTanimoto>
0.290 

> <ROCS_RefTversky>
0.425 

> <ROCS_RefColorTversky>
0.336 

> <ROCS_RefTverskyCombo>
0.761 

> <ROCS_FitTversky>
1.571 

> <ROCS_FitColorTversky>
0.675 

> <ROCS_FitTverskyCombo>
2.246 

> <ROCS_ColorScore>
-7.152

> <ROCS_Overlap>
1250.803

> <ROCS_Rank>
430                 

$$$$
untitled-dbase-4248_0
  -OEChem-06162310163D

 26 27  0     1  0  0  0  0  0999 V2000
  -13.2589   13.7864  -38.6868 C   0  0  0  0  0  0  0  0  0  0  0  0
  -13.6903   15.7134  -37.2220 C   0  0  0  0  0  0  0  0  0  0  0  0
  -13.0079   14.8011  -39.8153 C   0  0  0  0  0  0  0  0  0  0  0  0
  -13.2656   16.6831  -38.3359 C   0  0  0  0  0  0  0  0  0  0  0  0
  -11.0961   15.6619  -38.6378 C   0  0  0  0  0  0  0  0  0  0  0  0
  -12.8582   14.4210  -37.3373 C   0  0  0  0  0  0  0  0  0  0  0  0
  -11.3441   14.7836  -37.3788 C   0  0  2  0  0  0  0  0  0  0  0  0
  -10.8986   15.5225  -36.1035 C   0  0  0  0  0  0  0  0  0  0  0  0
  -12.3640   16.0352  -39.3123 N   0  0  0  0  0  0  0  0  0  0  0  0
  -10.5005   13.5812  -37.4461 N   0  0  0  0  0  0  0  0  0  0  0  0
  -11.5920   16.6594  -35.9799 F   0  0  0  0  0  0  0  0  0  0  0  0
  -11.1216   14.7476  -35.0366 F   0  0  0  0  0  0  0  0  0  0  0  0
   -9.5936   15.8045  -36.1830 F   0  0  0  0  0  0  0  0  0  0  0  0
  -14.3217   13.5149  -38.6685 H   0  0  0  0  0  0  0  0  0  0  0  0
  -12.7063   12.8597  -38.8733 H   0  0  0  0  0  0  0  0  0  0  0  0
  -13.5674   16.1809  -36.2394 H   0  0  0  0  0  0  0  0  0  0  0  0
  -14.7575   15.4779  -37.3209 H   0  0  0  0  0  0  0  0  0  0  0  0
  -12.3817   14.3460  -40.5924 H   0  0  0  0  0  0  0  0  0  0  0  0
  -13.9537   15.0535  -40.3114 H   0  0  0  0  0  0  0  0  0  0  0  0
  -14.1545   17.0673  -38.8513 H   0  0  0  0  0  0  0  0  0  0  0  0
  -12.7728   17.5637  -37.9048 H   0  0  0  0  0  0  0  0  0  0  0  0
  -10.5481   16.5766  -38.3766 H   0  0  0  0  0  0  0  0  0  0  0  0
  -10.4531   15.1518  -39.3682 H   0  0  0  0  0  0  0  0  0  0  0  0
  -13.0908   13.7410  -36.5099 H   0  0  0  0  0  0  0  0  0  0  0  0
  -10.7480   13.0858  -38.2660 H   0  0  0  0  0  0  0  0  0  0  0  0
   -9.5572   13.8779  -37.4781 H   0  0  0  0  0  0  0  0  0  0  0  0
  1  3  1  0  0  0  0
  1  6  1  0  0  0  0
  2  4  1  0  0  0  0
  2  6  1  0  0  0  0
  3  9  1  0  0  0  0
  4  9  1  0  0  0  0
  5  7  1  0  0  0  0
  5  9  1  0  0  0  0
  6  7  1  0  0  0  0
  7  8  1  0  0  0  0
  7 10  1  0  0  0  0
  8 11  1  0  0  0  0
  8 12  1  0  0  0  0
  8 13  1  0  0  0  0
  1 14  1  0  0  0  0
  1 15  1  0  0  0  0
  2 16  1  0  0  0  0
  2 17  1  0  0  0  0
  3 18  1  0  0  0  0
  3 19  1  0  0  0  0
  4 20  1  0  0  0  0
  4 21  1  0  0  0  0
  5 22  1  0  0  0  0
  5 23  1  0  0  0  0
  6 24  1  0  0  0  0
 10 25  1  0  0  0  0
 10 26  1  0  0  0  0
M  END
> <id>
EN300-170584

> <smiles>
Cl.Cl.NC1(CN2CCC1CC2)C(F)(F)F

> <MDLNUMBER>
MFCD28012180

> <IUPAC Name>
3-(trifluoromethyl)-1-azabicyclo[2.2.2]octan-3-amine dihydrochloride

> <CAS>
1803583-40-5

> <Purity>
95

> <URL>
https://www.enaminestore.com/catalog/EN300-170584

> <Saltdate>
Cl

> <ROCS_ShapeQuery>
x1247relevant_x1083L0AP1_x1305L0BP1_

> <ROCS_TanimotoCombo>
0.792 

> <ROCS_ShapeTanimoto>
0.454 

> <ROCS_ColorTanimoto>
0.338 

> <ROCS_RefTversky>
0.388 

> <ROCS_RefColorTversky>
0.368 

> <ROCS_RefTverskyCombo>
0.756 

> <ROCS_FitTversky>
1.593 

> <ROCS_FitColorTversky>
0.804 

> <ROCS_FitTverskyCombo>
2.397 

> <ROCS_ColorScore>
-7.803

> <ROCS_Overlap>
1142.205

> <ROCS_Rank>
431                 

$$$$
untitled-dbase-37197_0
  -OEChem-06162310163D

 26 27  0     1  0  0  0  0  0999 V2000
  -13.2589   13.7864  -38.6868 C   0  0  0  0  0  0  0  0  0  0  0  0
  -13.6903   15.7134  -37.2220 C   0  0  0  0  0  0  0  0  0  0  0  0
  -13.0079   14.8011  -39.8153 C   0  0  0  0  0  0  0  0  0  0  0  0
  -13.2656   16.6831  -38.3359 C   0  0  0  0  0  0  0  0  0  0  0  0
  -11.0961   15.6619  -38.6378 C   0  0  0  0  0  0  0  0  0  0  0  0
  -12.8582   14.4210  -37.3373 C   0  0  0  0  0  0  0  0  0  0  0  0
  -11.3441   14.7836  -37.3788 C   0  0  2  0  0  0  0  0  0  0  0  0
  -10.8986   15.5225  -36.1035 C   0  0  0  0  0  0  0  0  0  0  0  0
  -12.3640   16.0352  -39.3123 N   0  0  0  0  0  0  0  0  0  0  0  0
  -10.5005   13.5812  -37.4461 N   0  0  0  0  0  0  0  0  0  0  0  0
  -11.5920   16.6594  -35.9799 F   0  0  0  0  0  0  0  0  0  0  0  0
  -11.1216   14.7476  -35.0366 F   0  0  0  0  0  0  0  0  0  0  0  0
   -9.5936   15.8045  -36.1830 F   0  0  0  0  0  0  0  0  0  0  0  0
  -14.3217   13.5149  -38.6685 H   0  0  0  0  0  0  0  0  0  0  0  0
  -12.7063   12.8597  -38.8733 H   0  0  0  0  0  0  0  0  0  0  0  0
  -13.5674   16.1809  -36.2394 H   0  0  0  0  0  0  0  0  0  0  0  0
  -14.7575   15.4779  -37.3209 H   0  0  0  0  0  0  0  0  0  0  0  0
  -12.3817   14.3460  -40.5924 H   0  0  0  0  0  0  0  0  0  0  0  0
  -13.9537   15.0535  -40.3114 H   0  0  0  0  0  0  0  0  0  0  0  0
  -14.1545   17.0673  -38.8513 H   0  0  0  0  0  0  0  0  0  0  0  0
  -12.7728   17.5637  -37.9048 H   0  0  0  0  0  0  0  0  0  0  0  0
  -10.5481   16.5766  -38.3766 H   0  0  0  0  0  0  0  0  0  0  0  0
  -10.4531   15.1518  -39.3682 H   0  0  0  0  0  0  0  0  0  0  0  0
  -13.0908   13.7410  -36.5099 H   0  0  0  0  0  0  0  0  0  0  0  0
  -10.7480   13.0858  -38.2660 H   0  0  0  0  0  0  0  0  0  0  0  0
   -9.5572   13.8779  -37.4781 H   0  0  0  0  0  0  0  0  0  0  0  0
  1  3  1  0  0  0  0
  1  6  1  0  0  0  0
  2  4  1  0  0  0  0
  2  6  1  0  0  0  0
  3  9  1  0  0  0  0
  4  9  1  0  0  0  0
  5  7  1  0  0  0  0
  5  9  1  0  0  0  0
  6  7  1  0  0  0  0
  7  8  1  0  0  0  0
  7 10  1  0  0  0  0
  8 11  1  0  0  0  0
  8 12  1  0  0  0  0
  8 13  1  0  0  0  0
  1 14  1  0  0  0  0
  1 15  1  0  0  0  0
  2 16  1  0  0  0  0
  2 17  1  0  0  0  0
  3 18  1  0  0  0  0
  3 19  1  0  0  0  0
  4 20  1  0  0  0  0
  4 21  1  0  0  0  0
  5 22  1  0  0  0  0
  5 23  1  0  0  0  0
  6 24  1  0  0  0  0
 10 25  1  0  0  0  0
 10 26  1  0  0  0  0
M  END
> <id>
EN300-170585

> <smiles>
NC1(CN2CCC1CC2)C(F)(F)F

> <MDLNUMBER>
MFCD19599983

> <IUPAC Name>
3-(trifluoromethyl)-1-azabicyclo[2.2.2]octan-3-amine

> <CAS>
1340119-85-8

> <URL>
https://www.enaminestore.com/catalog/EN300-170585

> <ROCS_ShapeQuery>
x1247relevant_x1083L0AP1_x1305L0BP1_

> <ROCS_TanimotoCombo>
0.792 

> <ROCS_ShapeTanimoto>
0.454 

> <ROCS_ColorTanimoto>
0.338 

> <ROCS_RefTversky>
0.388 

> <ROCS_RefColorTversky>
0.368 

> <ROCS_RefTverskyCombo>
0.756 

> <ROCS_FitTversky>
1.593 

> <ROCS_FitColorTversky>
0.804 

> <ROCS_FitTverskyCombo>
2.397 

> <ROCS_ColorScore>
-7.803

> <ROCS_Overlap>
1142.205

> <ROCS_Rank>
432                 

$$$$
untitled-dbase-50258_30
  -OEChem-06162310163D

 34 35  0     1  0  0  0  0  0999 V2000
  -12.5306   16.1850  -39.7876 C   0  0  0  0  0  0  0  0  0  0  0  0
  -10.3983   14.7052  -36.6992 C   0  0  0  0  0  0  0  0  0  0  0  0
  -11.7975   14.8492  -39.6732 C   0  0  0  0  0  0  0  0  0  0  0  0
  -13.6492   14.0495  -38.2222 C   0  0  0  0  0  0  0  0  0  0  0  0
  -12.7521   15.6380  -36.7038 C   0  0  0  0  0  0  0  0  0  0  0  0
  -12.1324   14.0587  -38.4019 C   0  0  2  0  0  0  0  0  0  0  0  0
  -13.8435   15.4947  -37.7675 C   0  0  1  0  0  0  0  0  0  0  0  0
   -7.6653   15.5220  -36.5230 C   0  0  0  0  0  0  0  0  0  0  0  0
   -7.5096   14.8813  -38.9467 C   0  0  0  0  0  0  0  0  0  0  0  0
   -9.0656   16.7207  -38.2369 C   0  0  0  0  0  0  0  0  0  0  0  0
   -8.4302   15.3892  -37.8391 C   0  0  0  0  0  0  0  0  0  0  0  0
  -13.5637   16.3905  -38.8885 N   0  0  0  0  0  0  0  0  0  0  0  0
  -11.6748   14.7988  -37.2219 N   0  0  0  0  0  0  0  0  0  0  0  0
  -12.2348   16.9971  -40.6643 O   0  0  0  0  0  0  0  0  0  0  0  0
  -10.1245   14.8588  -35.5113 O   0  0  0  0  0  0  0  0  0  0  0  0
   -9.4710   14.4211  -37.6656 O   0  0  0  0  0  0  0  0  0  0  0  0
  -12.0786   14.2572  -40.5526 H   0  0  0  0  0  0  0  0  0  0  0  0
  -10.7202   15.0419  -39.7313 H   0  0  0  0  0  0  0  0  0  0  0  0
  -14.2002   13.8058  -39.1366 H   0  0  0  0  0  0  0  0  0  0  0  0
  -13.9502   13.3459  -37.4367 H   0  0  0  0  0  0  0  0  0  0  0  0
  -12.4093   16.6657  -36.5488 H   0  0  0  0  0  0  0  0  0  0  0  0
  -13.0694   15.2211  -35.7415 H   0  0  0  0  0  0  0  0  0  0  0  0
  -11.6876   13.0594  -38.4303 H   0  0  0  0  0  0  0  0  0  0  0  0
  -14.8470   15.7039  -37.3887 H   0  0  0  0  0  0  0  0  0  0  0  0
   -8.3227   15.8863  -35.7254 H   0  0  0  0  0  0  0  0  0  0  0  0
   -7.2341   14.5660  -36.2088 H   0  0  0  0  0  0  0  0  0  0  0  0
   -6.8547   16.2541  -36.6140 H   0  0  0  0  0  0  0  0  0  0  0  0
   -8.0542   14.7845  -39.8929 H   0  0  0  0  0  0  0  0  0  0  0  0
   -7.1256   13.8829  -38.7080 H   0  0  0  0  0  0  0  0  0  0  0  0
   -6.6584   15.5517  -39.1037 H   0  0  0  0  0  0  0  0  0  0  0  0
   -9.6142   16.6256  -39.1809 H   0  0  0  0  0  0  0  0  0  0  0  0
   -9.7579   17.0823  -37.4697 H   0  0  0  0  0  0  0  0  0  0  0  0
   -8.2976   17.4852  -38.4012 H   0  0  0  0  0  0  0  0  0  0  0  0
  -14.1569   17.2047  -39.0143 H   0  0  0  0  0  0  0  0  0  0  0  0
  1  3  1  0  0  0  0
  1 12  1  0  0  0  0
  1 14  2  0  0  0  0
  2 13  1  0  0  0  0
  2 15  2  0  0  0  0
  2 16  1  0  0  0  0
  3  6  1  6  0  0  0
  4  6  1  0  0  0  0
  4  7  1  0  0  0  0
  5  7  1  6  0  0  0
  5 13  1  0  0  0  0
  6 13  1  0  0  0  0
  7 12  1  0  0  0  0
  8 11  1  0  0  0  0
  9 11  1  0  0  0  0
 10 11  1  0  0  0  0
 11 16  1  0  0  0  0
  3 17  1  0  0  0  0
  3 18  1  0  0  0  0
  4 19  1  0  0  0  0
  4 20  1  0  0  0  0
  5 21  1  0  0  0  0
  5 22  1  0  0  0  0
  6 23  1  0  0  0  0
  7 24  1  0  0  0  0
  8 25  1  0  0  0  0
  8 26  1  0  0  0  0
  8 27  1  0  0  0  0
  9 28  1  0  0  0  0
  9 29  1  0  0  0  0
  9 30  1  0  0  0  0
 10 31  1  0  0  0  0
 10 32  1  0  0  0  0
 10 33  1  0  0  0  0
 12 34  1  0  0  0  0
M  END
> <id>
EN300-37370379

> <smiles>
CC(C)(C)OC(=O)N1C[C@@H]2C[C@H]1CC(=O)N2

> <IUPAC Name>
tert-butyl (1S,5S)-3-oxo-2,6-diazabicyclo[3.2.1]octane-6-carboxylate

> <CAS>
2763741-33-7

> <Purity>
95

> <URL>
https://www.enaminestore.com/catalog/EN300-37370379

> <ROCS_ShapeQuery>
x1247relevant_x1083L0AP1_x1305L0BP1_

> <ROCS_TanimotoCombo>
0.792 

> <ROCS_ShapeTanimoto>
0.488 

> <ROCS_ColorTanimoto>
0.304 

> <ROCS_RefTversky>
0.421 

> <ROCS_RefColorTversky>
0.348 

> <ROCS_RefTverskyCombo>
0.768 

> <ROCS_FitTversky>
1.484 

> <ROCS_FitColorTversky>
0.708 

> <ROCS_FitTverskyCombo>
2.192 

> <ROCS_ColorScore>
-7.389

> <ROCS_Overlap>
1239.663

> <ROCS_Rank>
433                 

$$$$
untitled-dbase-1424_28
  -OEChem-06162310163D

 34 35  0     1  0  0  0  0  0999 V2000
  -12.6088   15.9569  -39.5880 C   0  0  0  0  0  0  0  0  0  0  0  0
  -10.6205   14.3204  -36.6055 C   0  0  0  0  0  0  0  0  0  0  0  0
  -12.1088   14.5338  -39.6632 C   0  0  0  0  0  0  0  0  0  0  0  0
  -13.8861   14.7882  -38.0791 C   0  0  0  0  0  0  0  0  0  0  0  0
  -12.2043   16.2205  -37.2037 C   0  0  0  0  0  0  0  0  0  0  0  0
  -13.3083   16.1985  -38.2678 C   0  0  1  0  0  0  0  0  0  0  0  0
  -12.5283   14.0919  -38.2434 C   0  0  2  0  0  0  0  0  0  0  0  0
   -7.8405   13.6980  -36.3859 C   0  0  0  0  0  0  0  0  0  0  0  0
   -8.1848   12.2816  -38.4315 C   0  0  0  0  0  0  0  0  0  0  0  0
   -8.5645   14.7615  -38.5491 C   0  0  0  0  0  0  0  0  0  0  0  0
   -8.6540   13.5173  -37.6667 C   0  0  0  0  0  0  0  0  0  0  0  0
  -12.4423   16.8327  -40.5169 N   0  0  0  0  0  0  0  0  0  0  0  0
  -11.7085   14.8392  -37.2761 N   0  0  0  0  0  0  0  0  0  0  0  0
  -10.2302   14.7156  -35.5097 O   0  0  0  0  0  0  0  0  0  0  0  0
  -13.0317   18.0310  -40.1064 O   0  0  0  0  0  0  0  0  0  0  0  0
  -10.0250   13.3090  -37.3100 O   0  0  0  0  0  0  0  0  0  0  0  0
  -12.6514   13.9916  -40.4425 H   0  0  0  0  0  0  0  0  0  0  0  0
  -11.0309   14.4888  -39.8333 H   0  0  0  0  0  0  0  0  0  0  0  0
  -14.3279   14.6359  -37.0882 H   0  0  0  0  0  0  0  0  0  0  0  0
  -14.6077   14.5040  -38.8531 H   0  0  0  0  0  0  0  0  0  0  0  0
  -11.3898   16.9186  -37.4207 H   0  0  0  0  0  0  0  0  0  0  0  0
  -12.5931   16.3960  -36.1957 H   0  0  0  0  0  0  0  0  0  0  0  0
  -14.0148   17.0266  -38.2603 H   0  0  0  0  0  0  0  0  0  0  0  0
  -12.5052   13.0128  -38.0805 H   0  0  0  0  0  0  0  0  0  0  0  0
   -8.1743   14.5840  -35.8340 H   0  0  0  0  0  0  0  0  0  0  0  0
   -7.9246   12.8267  -35.7283 H   0  0  0  0  0  0  0  0  0  0  0  0
   -6.7807   13.8577  -36.6151 H   0  0  0  0  0  0  0  0  0  0  0  0
   -8.7657   12.1481  -39.3512 H   0  0  0  0  0  0  0  0  0  0  0  0
   -8.3357   11.3736  -37.8365 H   0  0  0  0  0  0  0  0  0  0  0  0
   -7.1250   12.3495  -38.6977 H   0  0  0  0  0  0  0  0  0  0  0  0
   -9.1479   14.6322  -39.4679 H   0  0  0  0  0  0  0  0  0  0  0  0
   -8.9318   15.6521  -38.0290 H   0  0  0  0  0  0  0  0  0  0  0  0
   -7.5301   14.9432  -38.8627 H   0  0  0  0  0  0  0  0  0  0  0  0
  -12.8503   18.6093  -40.8666 H   0  0  0  0  0  0  0  0  0  0  0  0
  1  3  1  0  0  0  0
  1  6  1  0  0  0  0
  1 12  2  3  0  0  0
  2 13  1  0  0  0  0
  2 14  2  0  0  0  0
  2 16  1  0  0  0  0
  3  7  1  0  0  0  0
  4  6  1  0  0  0  0
  4  7  1  0  0  0  0
  5  6  1  0  0  0  0
  5 13  1  0  0  0  0
  7 13  1  0  0  0  0
  8 11  1  0  0  0  0
  9 11  1  0  0  0  0
 10 11  1  0  0  0  0
 11 16  1  0  0  0  0
 12 15  1  0  0  0  0
  3 17  1  0  0  0  0
  3 18  1  0  0  0  0
  4 19  1  0  0  0  0
  4 20  1  0  0  0  0
  5 21  1  0  0  0  0
  5 22  1  0  0  0  0
  6 23  1  0  0  0  0
  7 24  1  0  0  0  0
  8 25  1  0  0  0  0
  8 26  1  0  0  0  0
  8 27  1  0  0  0  0
  9 28  1  0  0  0  0
  9 29  1  0  0  0  0
  9 30  1  0  0  0  0
 10 31  1  0  0  0  0
 10 32  1  0  0  0  0
 10 33  1  0  0  0  0
 15 34  1  0  0  0  0
M  END
> <id>
EN300-87210

> <smiles>
CC(C)(C)OC(=O)N1CC2CC1CC2=NO

> <IUPAC Name>
tert-butyl 5-(hydroxyimino)-2-azabicyclo[2.2.1]heptane-2-carboxylate

> <CAS>
207405-61-6

> <URL>
https://www.enaminestore.com/catalog/EN300-87210

> <ROCS_ShapeQuery>
x1247relevant_x1083L0AP1_x1305L0BP1_

> <ROCS_TanimotoCombo>
0.792 

> <ROCS_ShapeTanimoto>
0.471 

> <ROCS_ColorTanimoto>
0.321 

> <ROCS_RefTversky>
0.411 

> <ROCS_RefColorTversky>
0.368 

> <ROCS_RefTverskyCombo>
0.779 

> <ROCS_FitTversky>
1.448 

> <ROCS_FitColorTversky>
0.714 

> <ROCS_FitTverskyCombo>
2.162 

> <ROCS_ColorScore>
-7.836

> <ROCS_Overlap>
1210.648

> <ROCS_Rank>
434                 

$$$$
untitled-dbase-4639_21
  -OEChem-06162310163D

 34 35  0     1  0  0  0  0  0999 V2000
  -12.6471   16.3088  -39.7220 C   0  0  0  0  0  0  0  0  0  0  0  0
   -9.9380   14.6792  -37.2153 C   0  0  0  0  0  0  0  0  0  0  0  0
  -12.1106   16.8475  -38.3967 C   0  0  0  0  0  0  0  0  0  0  0  0
  -13.5515   15.1901  -37.2341 C   0  0  0  0  0  0  0  0  0  0  0  0
  -12.0305   13.6383  -38.1894 C   0  0  0  0  0  0  0  0  0  0  0  0
  -12.1689   15.8393  -37.2420 C   0  0  1  0  0  0  0  0  0  0  0  0
  -13.3944   14.2818  -38.4520 C   0  0  2  0  0  0  0  0  0  0  0  0
   -9.6425   14.1129  -34.6751 C   0  0  0  0  0  0  0  0  0  0  0  0
   -9.2257   11.7170  -35.3036 C   0  0  0  0  0  0  0  0  0  0  0  0
   -7.4481   13.4440  -35.7103 C   0  0  0  0  0  0  0  0  0  0  0  0
   -8.9516   13.1754  -35.6642 C   0  0  0  0  0  0  0  0  0  0  0  0
  -13.3300   15.1059  -39.6578 N   0  0  0  0  0  0  0  0  0  0  0  0
  -11.2845   14.7055  -37.5279 N   0  0  0  0  0  0  0  0  0  0  0  0
  -12.5100   16.9456  -40.7668 O   0  0  0  0  0  0  0  0  0  0  0  0
   -9.2207   15.6755  -37.1632 O   0  0  0  0  0  0  0  0  0  0  0  0
   -9.4963   13.4071  -36.9681 O   0  0  0  0  0  0  0  0  0  0  0  0
  -11.0814   17.1890  -38.5550 H   0  0  0  0  0  0  0  0  0  0  0  0
  -12.7170   17.7251  -38.1418 H   0  0  0  0  0  0  0  0  0  0  0  0
  -13.7071   14.6020  -36.3218 H   0  0  0  0  0  0  0  0  0  0  0  0
  -14.3746   15.9057  -37.3312 H   0  0  0  0  0  0  0  0  0  0  0  0
  -12.1070   12.7994  -37.4888 H   0  0  0  0  0  0  0  0  0  0  0  0
  -11.5134   13.2995  -39.0927 H   0  0  0  0  0  0  0  0  0  0  0  0
  -11.9008   16.3101  -36.2915 H   0  0  0  0  0  0  0  0  0  0  0  0
  -14.2017   13.5537  -38.5627 H   0  0  0  0  0  0  0  0  0  0  0  0
   -9.4482   15.1608  -34.9305 H   0  0  0  0  0  0  0  0  0  0  0  0
  -10.7257   13.9543  -34.6582 H   0  0  0  0  0  0  0  0  0  0  0  0
   -9.2552   13.9652  -33.6605 H   0  0  0  0  0  0  0  0  0  0  0  0
   -8.7319   11.0408  -36.0107 H   0  0  0  0  0  0  0  0  0  0  0  0
  -10.2975   11.4954  -35.3617 H   0  0  0  0  0  0  0  0  0  0  0  0
   -8.8766   11.4780  -34.2938 H   0  0  0  0  0  0  0  0  0  0  0  0
   -6.9523   12.7717  -36.4198 H   0  0  0  0  0  0  0  0  0  0  0  0
   -7.2317   14.4764  -36.0036 H   0  0  0  0  0  0  0  0  0  0  0  0
   -6.9885   13.2560  -34.7332 H   0  0  0  0  0  0  0  0  0  0  0  0
  -13.8105   14.7796  -40.4907 H   0  0  0  0  0  0  0  0  0  0  0  0
  1  3  1  0  0  0  0
  1 12  1  0  0  0  0
  1 14  2  0  0  0  0
  2 13  1  0  0  0  0
  2 15  2  0  0  0  0
  2 16  1  0  0  0  0
  3  6  1  0  0  0  0
  4  6  1  0  0  0  0
  4  7  1  0  0  0  0
  5  7  1  0  0  0  0
  5 13  1  0  0  0  0
  6 13  1  0  0  0  0
  7 12  1  0  0  0  0
  8 11  1  0  0  0  0
  9 11  1  0  0  0  0
 10 11  1  0  0  0  0
 11 16  1  0  0  0  0
  3 17  1  0  0  0  0
  3 18  1  0  0  0  0
  4 19  1  0  0  0  0
  4 20  1  0  0  0  0
  5 21  1  0  0  0  0
  5 22  1  0  0  0  0
  6 23  1  0  0  0  0
  7 24  1  0  0  0  0
  8 25  1  0  0  0  0
  8 26  1  0  0  0  0
  8 27  1  0  0  0  0
  9 28  1  0  0  0  0
  9 29  1  0  0  0  0
  9 30  1  0  0  0  0
 10 31  1  0  0  0  0
 10 32  1  0  0  0  0
 10 33  1  0  0  0  0
 12 34  1  0  0  0  0
M  END
> <id>
EN300-193145

> <smiles>
CC(C)(C)OC(=O)N1CC2CC1CC(=O)N2

> <MDLNUMBER>
MFCD27997338

> <IUPAC Name>
tert-butyl 3-oxo-2,6-diazabicyclo[3.2.1]octane-6-carboxylate

> <CAS>
1803571-82-5

> <URL>
https://www.enaminestore.com/catalog/EN300-193145

> <ROCS_ShapeQuery>
x1247relevant_x1083L0AP1_x1305L0BP1_

> <ROCS_TanimotoCombo>
0.791 

> <ROCS_ShapeTanimoto>
0.494 

> <ROCS_ColorTanimoto>
0.298 

> <ROCS_RefTversky>
0.424 

> <ROCS_RefColorTversky>
0.342 

> <ROCS_RefTverskyCombo>
0.766 

> <ROCS_FitTversky>
1.497 

> <ROCS_FitColorTversky>
0.696 

> <ROCS_FitTverskyCombo>
2.193 

> <ROCS_ColorScore>
-7.272

> <ROCS_Overlap>
1250.114

> <ROCS_Rank>
435                 

$$$$
untitled-dbase-16676_5
  -OEChem-06162310163D

 42 44  0     1  0  0  0  0  0999 V2000
   -8.8665   14.7665  -36.2196 C   0  0  0  0  0  0  0  0  0  0  0  0
   -8.9085   14.6993  -37.7421 C   0  0  0  0  0  0  0  0  0  0  0  0
  -10.2299   14.4825  -35.5993 C   0  0  0  0  0  0  0  0  0  0  0  0
  -10.0052   15.5984  -38.3126 C   0  0  0  0  0  0  0  0  0  0  0  0
  -11.3147   15.3810  -36.1920 C   0  0  0  0  0  0  0  0  0  0  0  0
  -14.0760   17.4164  -39.2608 C   0  0  0  0  0  0  0  0  0  0  0  0
  -13.2799   13.7582  -37.9913 C   0  0  0  0  0  0  0  0  0  0  0  0
  -13.1571   18.1692  -40.2066 C   0  0  0  0  0  0  0  0  0  0  0  0
  -12.8031   15.8836  -40.4734 C   0  0  0  0  0  0  0  0  0  0  0  0
  -13.3364   16.0957  -39.0503 C   0  0  2  0  0  0  0  0  0  0  0  0
  -14.1927   14.9404  -38.4375 C   0  0  0  0  0  0  0  0  0  0  0  0
  -11.4125   15.3118  -37.7355 C   0  0  0  0  0  0  0  0  0  0  0  0
  -14.9585   15.4550  -37.1912 C   0  0  0  0  0  0  0  0  0  0  0  0
  -15.2562   14.3961  -39.4164 C   0  0  0  0  0  0  0  0  0  0  0  0
  -11.8583   13.9974  -38.2072 N   0  0  0  0  0  0  0  0  0  0  0  0
  -12.4534   17.1870  -40.9748 O   0  0  0  0  0  0  0  0  0  0  0  0
  -12.2523   16.4066  -38.1509 O   0  0  0  0  0  0  0  0  0  0  0  0
   -8.1404   14.0338  -35.8453 H   0  0  0  0  0  0  0  0  0  0  0  0
   -8.5128   15.7538  -35.9013 H   0  0  0  0  0  0  0  0  0  0  0  0
   -7.9323   14.9891  -38.1527 H   0  0  0  0  0  0  0  0  0  0  0  0
   -9.0849   13.6624  -38.0562 H   0  0  0  0  0  0  0  0  0  0  0  0
  -10.4938   13.4317  -35.7618 H   0  0  0  0  0  0  0  0  0  0  0  0
  -10.1744   14.6288  -34.5142 H   0  0  0  0  0  0  0  0  0  0  0  0
   -9.7137   16.6485  -38.1652 H   0  0  0  0  0  0  0  0  0  0  0  0
  -10.0276   15.4698  -39.4114 H   0  0  0  0  0  0  0  0  0  0  0  0
  -12.2853   15.1139  -35.7335 H   0  0  0  0  0  0  0  0  0  0  0  0
  -11.0991   16.4176  -35.8731 H   0  0  0  0  0  0  0  0  0  0  0  0
  -14.2387   17.9919  -38.3439 H   0  0  0  0  0  0  0  0  0  0  0  0
  -15.0436   17.2619  -39.7504 H   0  0  0  0  0  0  0  0  0  0  0  0
  -13.4347   13.5513  -36.9142 H   0  0  0  0  0  0  0  0  0  0  0  0
  -13.5863   12.8216  -38.4981 H   0  0  0  0  0  0  0  0  0  0  0  0
  -13.7073   18.8370  -40.8766 H   0  0  0  0  0  0  0  0  0  0  0  0
  -12.4158   18.7621  -39.6594 H   0  0  0  0  0  0  0  0  0  0  0  0
  -11.9261   15.2484  -40.5520 H   0  0  0  0  0  0  0  0  0  0  0  0
  -13.5642   15.4948  -41.1547 H   0  0  0  0  0  0  0  0  0  0  0  0
  -15.5946   16.2757  -37.4915 H   0  0  0  0  0  0  0  0  0  0  0  0
  -14.2386   15.7878  -36.4569 H   0  0  0  0  0  0  0  0  0  0  0  0
  -15.5537   14.6453  -36.7932 H   0  0  0  0  0  0  0  0  0  0  0  0
  -15.8954   15.2118  -39.7318 H   0  0  0  0  0  0  0  0  0  0  0  0
  -15.8447   13.6392  -38.9121 H   0  0  0  0  0  0  0  0  0  0  0  0
  -14.7566   13.9646  -40.2753 H   0  0  0  0  0  0  0  0  0  0  0  0
  -11.3229   13.2605  -37.7441 H   0  0  0  0  0  0  0  0  0  0  0  0
  1  2  1  0  0  0  0
  1  3  1  0  0  0  0
  2  4  1  0  0  0  0
  3  5  1  0  0  0  0
  4 12  1  0  0  0  0
  5 12  1  0  0  0  0
  6  8  1  0  0  0  0
  6 10  1  0  0  0  0
  7 11  1  0  0  0  0
  7 15  1  0  0  0  0
  8 16  1  0  0  0  0
  9 10  1  0  0  0  0
  9 16  1  0  0  0  0
 10 11  1  0  0  0  0
 10 17  1  0  0  0  0
 11 13  1  0  0  0  0
 11 14  1  0  0  0  0
 12 15  1  0  0  0  0
 12 17  1  0  0  0  0
  1 18  1  0  0  0  0
  1 19  1  0  0  0  0
  2 20  1  0  0  0  0
  2 21  1  0  0  0  0
  3 22  1  0  0  0  0
  3 23  1  0  0  0  0
  4 24  1  0  0  0  0
  4 25  1  0  0  0  0
  5 26  1  0  0  0  0
  5 27  1  0  0  0  0
  6 28  1  0  0  0  0
  6 29  1  0  0  0  0
  7 30  1  0  0  0  0
  7 31  1  0  0  0  0
  8 32  1  0  0  0  0
  8 33  1  0  0  0  0
  9 34  1  0  0  0  0
  9 35  1  0  0  0  0
 13 36  1  0  0  0  0
 13 37  1  0  0  0  0
 13 38  1  0  0  0  0
 14 39  1  0  0  0  0
 14 40  1  0  0  0  0
 14 41  1  0  0  0  0
 15 42  1  0  0  0  0
M  END
> <id>
EN300-1280275

> <smiles>
CC1(C)CNC2(CCCCC2)OC31CCOC3

> <IUPAC Name>
15,15-dimethyl-2,6-dioxa-13-azadispiro[4.1.5^{7}.3^{5}]pentadecane

> <CAS>
2172517-56-3

> <URL>
https://www.enaminestore.com/catalog/EN300-1280275

> <ROCS_ShapeQuery>
x1247relevant_x1083L0AP1_x1305L0BP1_

> <ROCS_TanimotoCombo>
0.791 

> <ROCS_ShapeTanimoto>
0.502 

> <ROCS_ColorTanimoto>
0.289 

> <ROCS_RefTversky>
0.433 

> <ROCS_RefColorTversky>
0.316 

> <ROCS_RefTverskyCombo>
0.749 

> <ROCS_FitTversky>
1.470 

> <ROCS_FitColorTversky>
0.770 

> <ROCS_FitTverskyCombo>
2.240 

> <ROCS_ColorScore>
-6.694

> <ROCS_Overlap>
1275.996

> <ROCS_Rank>
436                 

$$$$
untitled-dbase-14531_1
  -OEChem-06162310163D

 32 35  0     1  0  0  0  0  0999 V2000
   -8.5669   17.4997  -37.1439 C   0  0  0  0  0  0  0  0  0  0  0  0
   -8.9121   15.4627  -36.6951 C   0  0  0  0  0  0  0  0  0  0  0  0
  -10.0385   15.8759  -37.3756 C   0  0  0  0  0  0  0  0  0  0  0  0
   -8.7276   14.0716  -36.2288 C   0  0  0  0  0  0  0  0  0  0  0  0
  -13.9801   14.3905  -38.5602 C   0  0  0  0  0  0  0  0  0  0  0  0
  -12.8103   14.1694  -39.5303 C   0  0  0  0  0  0  0  0  0  0  0  0
  -12.8020   16.4301  -38.8912 C   0  0  0  0  0  0  0  0  0  0  0  0
  -12.4580   15.3475  -36.7986 C   0  0  0  0  0  0  0  0  0  0  0  0
  -10.0742   13.3215  -36.2889 C   0  0  0  0  0  0  0  0  0  0  0  0
  -13.5727   15.6732  -37.8153 C   0  0  2  0  0  0  0  0  0  0  0  0
  -11.8108   15.2778  -39.1244 C   0  0  1  0  0  0  0  0  0  0  0  0
  -11.2306   15.0131  -37.6940 C   0  0  1  0  0  0  0  0  0  0  0  0
   -8.0013   16.4698  -36.5511 N   0  0  0  0  0  0  0  0  0  0  0  0
   -9.7982   17.1892  -37.6634 N   0  0  0  0  0  0  0  0  0  0  0  0
  -10.8197   13.5884  -37.5372 N   0  0  0  0  0  0  0  0  0  0  0  0
   -8.1470   18.4918  -37.2305 H   0  0  0  0  0  0  0  0  0  0  0  0
   -7.9829   13.5532  -36.8412 H   0  0  0  0  0  0  0  0  0  0  0  0
   -8.3611   14.0897  -35.1958 H   0  0  0  0  0  0  0  0  0  0  0  0
  -14.9111   14.5377  -39.1192 H   0  0  0  0  0  0  0  0  0  0  0  0
  -14.1184   13.5414  -37.8830 H   0  0  0  0  0  0  0  0  0  0  0  0
  -12.4198   13.1509  -39.5154 H   0  0  0  0  0  0  0  0  0  0  0  0
  -13.1556   14.3484  -40.5566 H   0  0  0  0  0  0  0  0  0  0  0  0
  -13.4089   16.6594  -39.7746 H   0  0  0  0  0  0  0  0  0  0  0  0
  -12.3452   17.3544  -38.5323 H   0  0  0  0  0  0  0  0  0  0  0  0
  -12.2763   16.2108  -36.1471 H   0  0  0  0  0  0  0  0  0  0  0  0
  -12.7523   14.5152  -36.1471 H   0  0  0  0  0  0  0  0  0  0  0  0
   -9.9135   12.2420  -36.1773 H   0  0  0  0  0  0  0  0  0  0  0  0
  -10.6879   13.6353  -35.4370 H   0  0  0  0  0  0  0  0  0  0  0  0
  -14.4161   16.2096  -37.3750 H   0  0  0  0  0  0  0  0  0  0  0  0
  -11.0611   15.4755  -39.8943 H   0  0  0  0  0  0  0  0  0  0  0  0
  -10.4089   17.8255  -38.1588 H   0  0  0  0  0  0  0  0  0  0  0  0
  -10.3075   13.2467  -38.3469 H   0  0  0  0  0  0  0  0  0  0  0  0
  1 13  2  0  0  0  0
  1 14  1  0  0  0  0
  2  3  2  0  0  0  0
  2  4  1  0  0  0  0
  2 13  1  0  0  0  0
  3 12  1  0  0  0  0
  3 14  1  0  0  0  0
  4  9  1  0  0  0  0
  5  6  1  0  0  0  0
  5 10  1  0  0  0  0
  6 11  1  0  0  0  0
  7 10  1  0  0  0  0
  7 11  1  0  0  0  0
  8 10  1  0  0  0  0
  8 12  1  0  0  0  0
  9 15  1  0  0  0  0
 11 12  1  0  0  0  0
 12 15  1  0  0  0  0
  1 16  1  0  0  0  0
  4 17  1  0  0  0  0
  4 18  1  0  0  0  0
  5 19  1  0  0  0  0
  5 20  1  0  0  0  0
  6 21  1  0  0  0  0
  6 22  1  0  0  0  0
  7 23  1  0  0  0  0
  7 24  1  0  0  0  0
  8 25  1  0  0  0  0
  8 26  1  0  0  0  0
  9 27  1  0  0  0  0
  9 28  1  0  0  0  0
 10 29  1  0  0  0  0
 11 30  1  0  0  0  0
 14 31  1  0  0  0  0
 15 32  1  0  0  0  0
M  END
> <id>
EN300-1075198

> <smiles>
C1CC2CC1CC32NCCC=4N=CNC43

> <MDLNUMBER>
MFCD24572252

> <IUPAC Name>
3',5',6',7'-tetrahydrospiro[bicyclo[2.2.1]heptane-2,4'-imidazo[4,5-c]pyridine]

> <CAS>
65092-24-2

> <URL>
https://www.enaminestore.com/catalog/EN300-1075198

> <ROCS_ShapeQuery>
x1247relevant_x1083L0AP1_x1305L0BP1_

> <ROCS_TanimotoCombo>
0.791 

> <ROCS_ShapeTanimoto>
0.450 

> <ROCS_ColorTanimoto>
0.341 

> <ROCS_RefTversky>
0.397 

> <ROCS_RefColorTversky>
0.418 

> <ROCS_RefTverskyCombo>
0.815 

> <ROCS_FitTversky>
1.421 

> <ROCS_FitColorTversky>
0.651 

> <ROCS_FitTverskyCombo>
2.073 

> <ROCS_ColorScore>
-8.946

> <ROCS_Overlap>
1169.560

> <ROCS_Rank>
437                 

$$$$
untitled-dbase-29386_93
  -OEChem-06162310163D

 37 38  0     1  0  0  0  0  0999 V2000
  -10.0043   15.4203  -36.7355 C   0  0  0  0  0  0  0  0  0  0  0  0
  -12.4884   13.9466  -38.9533 C   0  0  0  0  0  0  0  0  0  0  0  0
  -14.1638   15.4824  -37.8348 C   0  0  0  0  0  0  0  0  0  0  0  0
  -12.0750   16.4351  -39.0577 C   0  0  0  0  0  0  0  0  0  0  0  0
  -12.2734   14.3117  -36.6240 C   0  0  0  0  0  0  0  0  0  0  0  0
  -13.3520   14.1742  -37.7086 C   0  0  2  0  0  0  0  0  0  0  0  0
  -11.4575   15.0568  -38.7566 C   0  0  1  0  0  0  0  0  0  0  0  0
  -13.5988   16.4928  -38.8490 C   0  0  1  0  0  0  0  0  0  0  0  0
   -7.5917   15.0369  -35.2523 C   0  0  0  0  0  0  0  0  0  0  0  0
   -9.0801   14.2491  -33.3886 C   0  0  0  0  0  0  0  0  0  0  0  0
   -9.0300   12.9951  -35.5642 C   0  0  0  0  0  0  0  0  0  0  0  0
   -8.9204   14.3682  -34.9027 C   0  0  0  0  0  0  0  0  0  0  0  0
  -11.1710   14.9616  -37.3211 N   0  0  0  0  0  0  0  0  0  0  0  0
   -9.0903   15.9654  -37.3498 O   0  0  0  0  0  0  0  0  0  0  0  0
  -14.2429   16.2454  -40.1055 O   0  0  0  0  0  0  0  0  0  0  0  0
   -9.9866   15.1932  -35.3854 O   0  0  0  0  0  0  0  0  0  0  0  0
  -12.0113   12.9614  -38.9206 H   0  0  0  0  0  0  0  0  0  0  0  0
  -13.0484   14.0333  -39.8876 H   0  0  0  0  0  0  0  0  0  0  0  0
  -15.2053   15.2351  -38.1054 H   0  0  0  0  0  0  0  0  0  0  0  0
  -14.2389   15.9716  -36.8488 H   0  0  0  0  0  0  0  0  0  0  0  0
  -11.5970   17.2117  -38.4335 H   0  0  0  0  0  0  0  0  0  0  0  0
  -11.8334   16.7259  -40.0966 H   0  0  0  0  0  0  0  0  0  0  0  0
  -12.5892   14.8977  -35.7559 H   0  0  0  0  0  0  0  0  0  0  0  0
  -11.9210   13.3319  -36.2840 H   0  0  0  0  0  0  0  0  0  0  0  0
  -14.0199   13.3298  -37.5016 H   0  0  0  0  0  0  0  0  0  0  0  0
  -10.5385   14.9042  -39.3415 H   0  0  0  0  0  0  0  0  0  0  0  0
  -13.8920   17.5024  -38.5506 H   0  0  0  0  0  0  0  0  0  0  0  0
   -7.4733   15.1242  -36.3383 H   0  0  0  0  0  0  0  0  0  0  0  0
   -7.5154   16.0367  -34.8127 H   0  0  0  0  0  0  0  0  0  0  0  0
   -6.7464   14.4368  -34.8964 H   0  0  0  0  0  0  0  0  0  0  0  0
  -10.0321   13.7699  -33.1332 H   0  0  0  0  0  0  0  0  0  0  0  0
   -9.0972   15.2392  -32.9189 H   0  0  0  0  0  0  0  0  0  0  0  0
   -8.2680   13.6671  -32.9412 H   0  0  0  0  0  0  0  0  0  0  0  0
   -9.9830   12.5153  -35.3136 H   0  0  0  0  0  0  0  0  0  0  0  0
   -8.9546   13.0654  -36.6542 H   0  0  0  0  0  0  0  0  0  0  0  0
   -8.2418   12.3246  -35.2031 H   0  0  0  0  0  0  0  0  0  0  0  0
  -15.1937   16.3737  -39.9607 H   0  0  0  0  0  0  0  0  0  0  0  0
  1 13  1  0  0  0  0
  1 14  2  0  0  0  0
  1 16  1  0  0  0  0
  2  6  1  0  0  0  0
  2  7  1  0  0  0  0
  3  6  1  0  0  0  0
  3  8  1  0  0  0  0
  4  7  1  0  0  0  0
  4  8  1  0  0  0  0
  5  6  1  0  0  0  0
  5 13  1  0  0  0  0
  7 13  1  0  0  0  0
  8 15  1  0  0  0  0
  9 12  1  0  0  0  0
 10 12  1  0  0  0  0
 11 12  1  0  0  0  0
 12 16  1  0  0  0  0
  2 17  1  0  0  0  0
  2 18  1  0  0  0  0
  3 19  1  0  0  0  0
  3 20  1  0  0  0  0
  4 21  1  0  0  0  0
  4 22  1  0  0  0  0
  5 23  1  0  0  0  0
  5 24  1  0  0  0  0
  6 25  1  0  0  0  0
  7 26  1  0  0  0  0
  8 27  1  0  0  0  0
  9 28  1  0  0  0  0
  9 29  1  0  0  0  0
  9 30  1  0  0  0  0
 10 31  1  0  0  0  0
 10 32  1  0  0  0  0
 10 33  1  0  0  0  0
 11 34  1  0  0  0  0
 11 35  1  0  0  0  0
 11 36  1  0  0  0  0
 15 37  1  0  0  0  0
M  END
> <id>
EN300-344520

> <smiles>
CC(C)(C)OC(=O)N1CC2CC1CC(O)C2

> <MDLNUMBER>
MFCD28119013

> <IUPAC Name>
tert-butyl 3-hydroxy-6-azabicyclo[3.2.1]octane-6-carboxylate

> <CAS>
1824023-63-3

> <URL>
https://www.enaminestore.com/catalog/EN300-344520

> <ROCS_ShapeQuery>
x1247relevant_x1083L0AP1_x1305L0BP1_

> <ROCS_TanimotoCombo>
0.791 

> <ROCS_ShapeTanimoto>
0.469 

> <ROCS_ColorTanimoto>
0.323 

> <ROCS_RefTversky>
0.408 

> <ROCS_RefColorTversky>
0.364 

> <ROCS_RefTverskyCombo>
0.772 

> <ROCS_FitTversky>
1.461 

> <ROCS_FitColorTversky>
0.740 

> <ROCS_FitTverskyCombo>
2.201 

> <ROCS_ColorScore>
-7.732

> <ROCS_Overlap>
1202.814

> <ROCS_Rank>
438                 

$$$$
untitled-dbase-16679_30
  -OEChem-06162310163D

 40 42  0     1  0  0  0  0  0999 V2000
  -14.1113   17.3668  -39.3100 C   0  0  0  0  0  0  0  0  0  0  0  0
  -11.2838   15.4370  -36.2148 C   0  0  0  0  0  0  0  0  0  0  0  0
  -10.0218   15.6486  -38.3980 C   0  0  0  0  0  0  0  0  0  0  0  0
  -13.2520   13.7693  -37.9218 C   0  0  0  0  0  0  0  0  0  0  0  0
  -13.1901   18.1481  -40.2296 C   0  0  0  0  0  0  0  0  0  0  0  0
  -12.7615   15.8745  -40.4876 C   0  0  0  0  0  0  0  0  0  0  0  0
  -10.4034   14.3795  -35.5479 C   0  0  0  0  0  0  0  0  0  0  0  0
   -8.7844   15.3876  -37.5377 C   0  0  0  0  0  0  0  0  0  0  0  0
  -13.3381   16.0689  -39.0778 C   0  0  2  0  0  0  0  0  0  0  0  0
  -14.1801   14.8896  -38.4820 C   0  0  0  0  0  0  0  0  0  0  0  0
  -11.4016   15.3410  -37.7538 C   0  0  0  0  0  0  0  0  0  0  0  0
  -15.1407   14.2660  -39.5170 C   0  0  0  0  0  0  0  0  0  0  0  0
  -15.0533   15.3987  -37.3067 C   0  0  0  0  0  0  0  0  0  0  0  0
  -11.8416   14.0092  -38.1934 N   0  0  0  0  0  0  0  0  0  0  0  0
  -12.4390   17.1882  -40.9807 O   0  0  0  0  0  0  0  0  0  0  0  0
  -12.2874   16.4094  -38.1515 O   0  0  0  0  0  0  0  0  0  0  0  0
   -8.9257   13.9130  -36.4999 S   0  0  0  0  0  0  0  0  0  0  0  0
  -14.3170   17.9368  -38.3981 H   0  0  0  0  0  0  0  0  0  0  0  0
  -15.0600   17.1836  -39.8262 H   0  0  0  0  0  0  0  0  0  0  0  0
  -12.2875   15.4196  -35.7469 H   0  0  0  0  0  0  0  0  0  0  0  0
  -10.8487   16.4179  -35.9427 H   0  0  0  0  0  0  0  0  0  0  0  0
   -9.9806   16.7028  -38.7302 H   0  0  0  0  0  0  0  0  0  0  0  0
   -9.9265   15.0802  -39.3498 H   0  0  0  0  0  0  0  0  0  0  0  0
  -13.3846   13.6846  -36.8291 H   0  0  0  0  0  0  0  0  0  0  0  0
  -13.5530   12.7848  -38.3204 H   0  0  0  0  0  0  0  0  0  0  0  0
  -13.7411   18.8016  -40.9128 H   0  0  0  0  0  0  0  0  0  0  0  0
  -12.4804   18.7604  -39.6619 H   0  0  0  0  0  0  0  0  0  0  0  0
  -11.8635   15.2664  -40.5426 H   0  0  0  0  0  0  0  0  0  0  0  0
  -13.4924   15.4627  -41.1880 H   0  0  0  0  0  0  0  0  0  0  0  0
  -10.0847   14.7091  -34.5412 H   0  0  0  0  0  0  0  0  0  0  0  0
  -10.9989   13.4629  -35.3831 H   0  0  0  0  0  0  0  0  0  0  0  0
   -7.9083   15.2555  -38.1962 H   0  0  0  0  0  0  0  0  0  0  0  0
   -8.5537   16.2590  -36.9001 H   0  0  0  0  0  0  0  0  0  0  0  0
  -15.7878   15.0412  -39.9092 H   0  0  0  0  0  0  0  0  0  0  0  0
  -15.7335   13.5005  -39.0313 H   0  0  0  0  0  0  0  0  0  0  0  0
  -14.5588   13.8292  -40.3196 H   0  0  0  0  0  0  0  0  0  0  0  0
  -15.7060   16.1781  -37.6739 H   0  0  0  0  0  0  0  0  0  0  0  0
  -14.4024   15.7870  -36.5360 H   0  0  0  0  0  0  0  0  0  0  0  0
  -15.6348   14.5713  -36.9249 H   0  0  0  0  0  0  0  0  0  0  0  0
  -11.2887   13.2892  -37.7341 H   0  0  0  0  0  0  0  0  0  0  0  0
  1  5  1  0  0  0  0
  1  9  1  0  0  0  0
  2  7  1  0  0  0  0
  2 11  1  0  0  0  0
  3  8  1  0  0  0  0
  3 11  1  0  0  0  0
  4 10  1  0  0  0  0
  4 14  1  0  0  0  0
  5 15  1  0  0  0  0
  6  9  1  0  0  0  0
  6 15  1  0  0  0  0
  7 17  1  0  0  0  0
  8 17  1  0  0  0  0
  9 10  1  0  0  0  0
  9 16  1  0  0  0  0
 10 12  1  0  0  0  0
 10 13  1  0  0  0  0
 11 14  1  0  0  0  0
 11 16  1  0  0  0  0
  1 18  1  0  0  0  0
  1 19  1  0  0  0  0
  2 20  1  0  0  0  0
  2 21  1  0  0  0  0
  3 22  1  0  0  0  0
  3 23  1  0  0  0  0
  4 24  1  0  0  0  0
  4 25  1  0  0  0  0
  5 26  1  0  0  0  0
  5 27  1  0  0  0  0
  6 28  1  0  0  0  0
  6 29  1  0  0  0  0
  7 30  1  0  0  0  0
  7 31  1  0  0  0  0
  8 32  1  0  0  0  0
  8 33  1  0  0  0  0
 12 34  1  0  0  0  0
 12 35  1  0  0  0  0
 12 36  1  0  0  0  0
 13 37  1  0  0  0  0
 13 38  1  0  0  0  0
 13 39  1  0  0  0  0
 14 40  1  0  0  0  0
M  END
> <id>
EN300-1280280

> <smiles>
CC1(C)CNC2(CCSCC2)OC31CCOC3

> <IUPAC Name>
15,15-dimethyl-2,6-dioxa-10-thia-13-azadispiro[4.1.5^{7}.3^{5}]pentadecane

> <CAS>
2171828-68-3

> <URL>
https://www.enaminestore.com/catalog/EN300-1280280

> <ROCS_ShapeQuery>
x1247relevant_x1083L0AP1_x1305L0BP1_

> <ROCS_TanimotoCombo>
0.791 

> <ROCS_ShapeTanimoto>
0.500 

> <ROCS_ColorTanimoto>
0.291 

> <ROCS_RefTversky>
0.430 

> <ROCS_RefColorTversky>
0.318 

> <ROCS_RefTverskyCombo>
0.748 

> <ROCS_FitTversky>
1.484 

> <ROCS_FitColorTversky>
0.774 

> <ROCS_FitTverskyCombo>
2.258 

> <ROCS_ColorScore>
-6.731

> <ROCS_Overlap>
1267.483

> <ROCS_Rank>
439                 

$$$$
untitled-dbase-37054_2
  -OEChem-06162310163D

 27 29  0     1  0  0  0  0  0999 V2000
  -14.2755   15.3224  -38.2848 C   0  0  0  0  0  0  0  0  0  0  0  0
  -13.5135   16.4967  -38.9277 C   0  0  0  0  0  0  0  0  0  0  0  0
  -12.3666   14.4823  -39.3828 C   0  0  0  0  0  0  0  0  0  0  0  0
   -9.4350   14.5002  -37.8499 C   0  0  0  0  0  0  0  0  0  0  0  0
  -10.0742   15.8672  -37.5903 C   0  0  0  0  0  0  0  0  0  0  0  0
  -11.2472   13.7427  -36.4052 C   0  0  0  0  0  0  0  0  0  0  0  0
  -13.1600   14.2684  -38.0998 C   0  0  1  0  0  0  0  0  0  0  0  0
  -12.0784   15.9404  -39.0555 C   0  0  2  0  0  0  0  0  0  0  0  0
  -12.2035   14.7875  -37.0001 C   0  0  2  0  0  0  0  0  0  0  0  0
  -10.1346   13.3567  -37.2635 N   0  0  0  0  0  0  0  0  0  0  0  0
  -11.5299   15.9178  -37.6806 N   0  0  1  0  0  0  0  0  0  0  0  0
  -14.7506   15.6051  -37.3420 H   0  0  0  0  0  0  0  0  0  0  0  0
  -15.0493   14.9551  -38.9661 H   0  0  0  0  0  0  0  0  0  0  0  0
  -13.9328   16.7232  -39.9134 H   0  0  0  0  0  0  0  0  0  0  0  0
  -13.5628   17.4039  -38.3185 H   0  0  0  0  0  0  0  0  0  0  0  0
  -11.4741   13.8541  -39.4612 H   0  0  0  0  0  0  0  0  0  0  0  0
  -12.9708   14.3534  -40.2884 H   0  0  0  0  0  0  0  0  0  0  0  0
   -9.3480   14.3508  -38.9368 H   0  0  0  0  0  0  0  0  0  0  0  0
   -8.4060   14.4982  -37.4602 H   0  0  0  0  0  0  0  0  0  0  0  0
   -9.7658   16.2140  -36.5738 H   0  0  0  0  0  0  0  0  0  0  0  0
   -9.6016   16.6125  -38.2798 H   0  0  0  0  0  0  0  0  0  0  0  0
  -10.8312   14.1419  -35.4477 H   0  0  0  0  0  0  0  0  0  0  0  0
  -11.7995   12.8222  -36.0842 H   0  0  0  0  0  0  0  0  0  0  0  0
  -13.5416   13.2591  -37.9377 H   0  0  0  0  0  0  0  0  0  0  0  0
  -11.4782   16.4950  -39.7791 H   0  0  0  0  0  0  0  0  0  0  0  0
  -12.8019   15.2120  -36.1630 H   0  0  0  0  0  0  0  0  0  0  0  0
  -10.4590   12.7278  -37.9985 H   0  0  0  0  0  0  0  0  0  0  0  0
  1  2  1  0  0  0  0
  1  7  1  6  0  0  0
  2  8  1  6  0  0  0
  3  7  1  0  0  0  0
  3  8  1  0  0  0  0
  4  5  1  0  0  0  0
  4 10  1  0  0  0  0
  5 11  1  0  0  0  0
  6  9  1  0  0  0  0
  6 10  1  0  0  0  0
  7  9  1  0  0  0  0
  8 11  1  0  0  0  0
  9 11  1  0  0  0  0
  1 12  1  0  0  0  0
  1 13  1  0  0  0  0
  2 14  1  0  0  0  0
  2 15  1  0  0  0  0
  3 16  1  0  0  0  0
  3 17  1  0  0  0  0
  4 18  1  0  0  0  0
  4 19  1  0  0  0  0
  5 20  1  0  0  0  0
  5 21  1  0  0  0  0
  6 22  1  0  0  0  0
  6 23  1  0  0  0  0
  7 24  1  0  0  0  0
  8 25  1  0  0  0  0
  9 26  1  0  0  0  0
 10 27  1  0  0  0  0
M  END
> <id>
EN300-252249

> <smiles>
C1C[C@@H]2C[C@H]1C3CNCCN23 |&1:2,4,r|

> <IUPAC Name>
rac-(1R,8S)-2,5-diazatricyclo[6.2.1.0,2,7]undecane

> <CAS>
1212823-97-6

> <URL>
https://www.enaminestore.com/catalog/EN300-252249

> <ROCS_ShapeQuery>
x1247relevant_x1083L0AP1_x1305L0BP1_

> <ROCS_TanimotoCombo>
0.791 

> <ROCS_ShapeTanimoto>
0.439 

> <ROCS_ColorTanimoto>
0.352 

> <ROCS_RefTversky>
0.370 

> <ROCS_RefColorTversky>
0.395 

> <ROCS_RefTverskyCombo>
0.765 

> <ROCS_FitTversky>
1.734 

> <ROCS_FitColorTversky>
0.766 

> <ROCS_FitTverskyCombo>
2.500 

> <ROCS_ColorScore>
-8.404

> <ROCS_Overlap>
1086.326

> <ROCS_Rank>
440                 

$$$$
untitled-dbase-26040_2
  -OEChem-06162310163D

 27 29  0     1  0  0  0  0  0999 V2000
  -14.2755   15.3224  -38.2848 C   0  0  0  0  0  0  0  0  0  0  0  0
  -13.5135   16.4967  -38.9277 C   0  0  0  0  0  0  0  0  0  0  0  0
  -12.3666   14.4823  -39.3828 C   0  0  0  0  0  0  0  0  0  0  0  0
   -9.4350   14.5002  -37.8499 C   0  0  0  0  0  0  0  0  0  0  0  0
  -10.0742   15.8672  -37.5903 C   0  0  0  0  0  0  0  0  0  0  0  0
  -11.2472   13.7427  -36.4052 C   0  0  0  0  0  0  0  0  0  0  0  0
  -13.1600   14.2684  -38.0998 C   0  0  1  0  0  0  0  0  0  0  0  0
  -12.0784   15.9404  -39.0555 C   0  0  2  0  0  0  0  0  0  0  0  0
  -12.2035   14.7875  -37.0001 C   0  0  2  0  0  0  0  0  0  0  0  0
  -10.1346   13.3567  -37.2635 N   0  0  0  0  0  0  0  0  0  0  0  0
  -11.5299   15.9178  -37.6806 N   0  0  1  0  0  0  0  0  0  0  0  0
  -14.7506   15.6051  -37.3420 H   0  0  0  0  0  0  0  0  0  0  0  0
  -15.0493   14.9551  -38.9661 H   0  0  0  0  0  0  0  0  0  0  0  0
  -13.9328   16.7232  -39.9134 H   0  0  0  0  0  0  0  0  0  0  0  0
  -13.5628   17.4039  -38.3185 H   0  0  0  0  0  0  0  0  0  0  0  0
  -11.4741   13.8541  -39.4612 H   0  0  0  0  0  0  0  0  0  0  0  0
  -12.9708   14.3534  -40.2884 H   0  0  0  0  0  0  0  0  0  0  0  0
   -9.3480   14.3508  -38.9368 H   0  0  0  0  0  0  0  0  0  0  0  0
   -8.4060   14.4982  -37.4602 H   0  0  0  0  0  0  0  0  0  0  0  0
   -9.7658   16.2140  -36.5738 H   0  0  0  0  0  0  0  0  0  0  0  0
   -9.6016   16.6125  -38.2798 H   0  0  0  0  0  0  0  0  0  0  0  0
  -10.8312   14.1419  -35.4477 H   0  0  0  0  0  0  0  0  0  0  0  0
  -11.7995   12.8222  -36.0842 H   0  0  0  0  0  0  0  0  0  0  0  0
  -13.5416   13.2591  -37.9377 H   0  0  0  0  0  0  0  0  0  0  0  0
  -11.4782   16.4950  -39.7791 H   0  0  0  0  0  0  0  0  0  0  0  0
  -12.8019   15.2120  -36.1630 H   0  0  0  0  0  0  0  0  0  0  0  0
  -10.4590   12.7278  -37.9985 H   0  0  0  0  0  0  0  0  0  0  0  0
  1  2  1  0  0  0  0
  1  7  1  6  0  0  0
  2  8  1  6  0  0  0
  3  7  1  0  0  0  0
  3  8  1  0  0  0  0
  4  5  1  0  0  0  0
  4 10  1  0  0  0  0
  5 11  1  0  0  0  0
  6  9  1  0  0  0  0
  6 10  1  0  0  0  0
  7  9  1  0  0  0  0
  8 11  1  0  0  0  0
  9 11  1  0  0  0  0
  1 12  1  0  0  0  0
  1 13  1  0  0  0  0
  2 14  1  0  0  0  0
  2 15  1  0  0  0  0
  3 16  1  0  0  0  0
  3 17  1  0  0  0  0
  4 18  1  0  0  0  0
  4 19  1  0  0  0  0
  5 20  1  0  0  0  0
  5 21  1  0  0  0  0
  6 22  1  0  0  0  0
  6 23  1  0  0  0  0
  7 24  1  0  0  0  0
  8 25  1  0  0  0  0
  9 26  1  0  0  0  0
 10 27  1  0  0  0  0
M  END
> <id>
EN300-33611

> <smiles>
Cl.Cl.C1C[C@@H]2C[C@H]1C3CNCCN23

> <MDLNUMBER>
MFCD26143871

> <IUPAC Name>
(1R,8S)-2,5-diazatricyclo[6.2.1.0,2,7]undecane dihydrochloride

> <CAS>
1807938-74-4

> <URL>
https://www.enaminestore.com/catalog/EN300-33611

> <Saltdate>
Cl

> <ROCS_ShapeQuery>
x1247relevant_x1083L0AP1_x1305L0BP1_

> <ROCS_TanimotoCombo>
0.791 

> <ROCS_ShapeTanimoto>
0.439 

> <ROCS_ColorTanimoto>
0.352 

> <ROCS_RefTversky>
0.370 

> <ROCS_RefColorTversky>
0.395 

> <ROCS_RefTverskyCombo>
0.765 

> <ROCS_FitTversky>
1.734 

> <ROCS_FitColorTversky>
0.766 

> <ROCS_FitTverskyCombo>
2.500 

> <ROCS_ColorScore>
-8.404

> <ROCS_Overlap>
1086.326

> <ROCS_Rank>
441                 

$$$$
untitled-dbase-7628_2
  -OEChem-06162310163D

 27 29  0     1  0  0  0  0  0999 V2000
  -14.2755   15.3224  -38.2848 C   0  0  0  0  0  0  0  0  0  0  0  0
  -13.5135   16.4967  -38.9277 C   0  0  0  0  0  0  0  0  0  0  0  0
  -12.3666   14.4823  -39.3828 C   0  0  0  0  0  0  0  0  0  0  0  0
   -9.4350   14.5002  -37.8499 C   0  0  0  0  0  0  0  0  0  0  0  0
  -10.0742   15.8672  -37.5903 C   0  0  0  0  0  0  0  0  0  0  0  0
  -11.2472   13.7427  -36.4052 C   0  0  0  0  0  0  0  0  0  0  0  0
  -13.1600   14.2684  -38.0998 C   0  0  1  0  0  0  0  0  0  0  0  0
  -12.0784   15.9404  -39.0555 C   0  0  2  0  0  0  0  0  0  0  0  0
  -12.2035   14.7875  -37.0001 C   0  0  2  0  0  0  0  0  0  0  0  0
  -10.1346   13.3567  -37.2635 N   0  0  0  0  0  0  0  0  0  0  0  0
  -11.5299   15.9178  -37.6806 N   0  0  1  0  0  0  0  0  0  0  0  0
  -14.7506   15.6051  -37.3420 H   0  0  0  0  0  0  0  0  0  0  0  0
  -15.0493   14.9551  -38.9661 H   0  0  0  0  0  0  0  0  0  0  0  0
  -13.9328   16.7232  -39.9134 H   0  0  0  0  0  0  0  0  0  0  0  0
  -13.5628   17.4039  -38.3185 H   0  0  0  0  0  0  0  0  0  0  0  0
  -11.4741   13.8541  -39.4612 H   0  0  0  0  0  0  0  0  0  0  0  0
  -12.9708   14.3534  -40.2884 H   0  0  0  0  0  0  0  0  0  0  0  0
   -9.3480   14.3508  -38.9368 H   0  0  0  0  0  0  0  0  0  0  0  0
   -8.4060   14.4982  -37.4602 H   0  0  0  0  0  0  0  0  0  0  0  0
   -9.7658   16.2140  -36.5738 H   0  0  0  0  0  0  0  0  0  0  0  0
   -9.6016   16.6125  -38.2798 H   0  0  0  0  0  0  0  0  0  0  0  0
  -10.8312   14.1419  -35.4477 H   0  0  0  0  0  0  0  0  0  0  0  0
  -11.7995   12.8222  -36.0842 H   0  0  0  0  0  0  0  0  0  0  0  0
  -13.5416   13.2591  -37.9377 H   0  0  0  0  0  0  0  0  0  0  0  0
  -11.4782   16.4950  -39.7791 H   0  0  0  0  0  0  0  0  0  0  0  0
  -12.8019   15.2120  -36.1630 H   0  0  0  0  0  0  0  0  0  0  0  0
  -10.4590   12.7278  -37.9985 H   0  0  0  0  0  0  0  0  0  0  0  0
  1  2  1  0  0  0  0
  1  7  1  6  0  0  0
  2  8  1  6  0  0  0
  3  7  1  0  0  0  0
  3  8  1  0  0  0  0
  4  5  1  0  0  0  0
  4 10  1  0  0  0  0
  5 11  1  0  0  0  0
  6  9  1  0  0  0  0
  6 10  1  0  0  0  0
  7  9  1  0  0  0  0
  8 11  1  0  0  0  0
  9 11  1  0  0  0  0
  1 12  1  0  0  0  0
  1 13  1  0  0  0  0
  2 14  1  0  0  0  0
  2 15  1  0  0  0  0
  3 16  1  0  0  0  0
  3 17  1  0  0  0  0
  4 18  1  0  0  0  0
  4 19  1  0  0  0  0
  5 20  1  0  0  0  0
  5 21  1  0  0  0  0
  6 22  1  0  0  0  0
  6 23  1  0  0  0  0
  7 24  1  0  0  0  0
  8 25  1  0  0  0  0
  9 26  1  0  0  0  0
 10 27  1  0  0  0  0
M  END
> <id>
EN300-252248

> <smiles>
Cl.Cl.C1C[C@@H]2C[C@H]1C3CNCCN23 |&1:4,6,r|

> <IUPAC Name>
rac-(1R,8S)-2,5-diazatricyclo[6.2.1.0,2,7]undecane dihydrochloride

> <CAS>
1212452-81-7

> <URL>
https://www.enaminestore.com/catalog/EN300-252248

> <Saltdate>
Cl

> <ROCS_ShapeQuery>
x1247relevant_x1083L0AP1_x1305L0BP1_

> <ROCS_TanimotoCombo>
0.791 

> <ROCS_ShapeTanimoto>
0.439 

> <ROCS_ColorTanimoto>
0.352 

> <ROCS_RefTversky>
0.370 

> <ROCS_RefColorTversky>
0.395 

> <ROCS_RefTverskyCombo>
0.765 

> <ROCS_FitTversky>
1.734 

> <ROCS_FitColorTversky>
0.766 

> <ROCS_FitTverskyCombo>
2.500 

> <ROCS_ColorScore>
-8.404

> <ROCS_Overlap>
1086.326

> <ROCS_Rank>
442                 

$$$$
untitled-dbase-36594_2
  -OEChem-06162310163D

 27 29  0     1  0  0  0  0  0999 V2000
  -14.2756   15.3227  -38.2850 C   0  0  0  0  0  0  0  0  0  0  0  0
  -13.5133   16.4969  -38.9277 C   0  0  0  0  0  0  0  0  0  0  0  0
  -12.3669   14.4823  -39.3829 C   0  0  0  0  0  0  0  0  0  0  0  0
   -9.4354   14.5000  -37.8505 C   0  0  0  0  0  0  0  0  0  0  0  0
  -10.0743   15.8669  -37.5902 C   0  0  0  0  0  0  0  0  0  0  0  0
  -11.2473   13.7426  -36.4054 C   0  0  0  0  0  0  0  0  0  0  0  0
  -13.1602   14.2684  -38.0999 C   0  0  1  0  0  0  0  0  0  0  0  0
  -12.0784   15.9404  -39.0555 C   0  0  2  0  0  0  0  0  0  0  0  0
  -12.2037   14.7874  -37.0002 C   0  0  2  0  0  0  0  0  0  0  0  0
  -10.1345   13.3567  -37.2633 N   0  0  0  0  0  0  0  0  0  0  0  0
  -11.5299   15.9177  -37.6806 N   0  0  1  0  0  0  0  0  0  0  0  0
  -14.7508   15.6053  -37.3423 H   0  0  0  0  0  0  0  0  0  0  0  0
  -15.0493   14.9555  -38.9665 H   0  0  0  0  0  0  0  0  0  0  0  0
  -13.9325   16.7237  -39.9133 H   0  0  0  0  0  0  0  0  0  0  0  0
  -13.5625   17.4040  -38.3183 H   0  0  0  0  0  0  0  0  0  0  0  0
  -11.4745   13.8539  -39.4613 H   0  0  0  0  0  0  0  0  0  0  0  0
  -12.9710   14.3535  -40.2884 H   0  0  0  0  0  0  0  0  0  0  0  0
   -9.3494   14.3506  -38.9373 H   0  0  0  0  0  0  0  0  0  0  0  0
   -8.4061   14.4979  -37.4617 H   0  0  0  0  0  0  0  0  0  0  0  0
   -9.7659   16.2132  -36.5736 H   0  0  0  0  0  0  0  0  0  0  0  0
   -9.6016   16.6125  -38.2794 H   0  0  0  0  0  0  0  0  0  0  0  0
  -10.8317   14.1416  -35.4476 H   0  0  0  0  0  0  0  0  0  0  0  0
  -11.7996   12.8220  -36.0846 H   0  0  0  0  0  0  0  0  0  0  0  0
  -13.5420   13.2593  -37.9378 H   0  0  0  0  0  0  0  0  0  0  0  0
  -11.4780   16.4949  -39.7790 H   0  0  0  0  0  0  0  0  0  0  0  0
  -12.8019   15.2120  -36.1630 H   0  0  0  0  0  0  0  0  0  0  0  0
  -10.4586   12.7271  -37.9979 H   0  0  0  0  0  0  0  0  0  0  0  0
  1  2  1  0  0  0  0
  1  7  1  0  0  0  0
  2  8  1  0  0  0  0
  3  7  1  0  0  0  0
  3  8  1  0  0  0  0
  4  5  1  0  0  0  0
  4 10  1  0  0  0  0
  5 11  1  0  0  0  0
  6  9  1  0  0  0  0
  6 10  1  0  0  0  0
  7  9  1  0  0  0  0
  8 11  1  0  0  0  0
  9 11  1  0  0  0  0
  1 12  1  0  0  0  0
  1 13  1  0  0  0  0
  2 14  1  0  0  0  0
  2 15  1  0  0  0  0
  3 16  1  0  0  0  0
  3 17  1  0  0  0  0
  4 18  1  0  0  0  0
  4 19  1  0  0  0  0
  5 20  1  0  0  0  0
  5 21  1  0  0  0  0
  6 22  1  0  0  0  0
  6 23  1  0  0  0  0
  7 24  1  0  0  0  0
  8 25  1  0  0  0  0
  9 26  1  0  0  0  0
 10 27  1  0  0  0  0
M  END
> <id>
EN300-57797

> <smiles>
C1CC2CC1C3CNCCN23

> <MDLNUMBER>
MFCD30180290

> <IUPAC Name>
2,5-diazatricyclo[6.2.1.0,2,7]undecane

> <CAS>
1824069-86-4

> <URL>
https://www.enaminestore.com/catalog/EN300-57797

> <ROCS_ShapeQuery>
x1247relevant_x1083L0AP1_x1305L0BP1_

> <ROCS_TanimotoCombo>
0.791 

> <ROCS_ShapeTanimoto>
0.439 

> <ROCS_ColorTanimoto>
0.352 

> <ROCS_RefTversky>
0.370 

> <ROCS_RefColorTversky>
0.395 

> <ROCS_RefTverskyCombo>
0.765 

> <ROCS_FitTversky>
1.734 

> <ROCS_FitColorTversky>
0.766 

> <ROCS_FitTverskyCombo>
2.500 

> <ROCS_ColorScore>
-8.403

> <ROCS_Overlap>
1086.328

> <ROCS_Rank>
443                 

$$$$
untitled-dbase-12280_0
  -OEChem-06162310163D

 20 22  0     1  0  0  0  0  0999 V2000
  -14.4867   16.3785  -38.1148 C   0  0  0  0  0  0  0  0  0  0  0  0
  -11.1610   14.9589  -39.2512 C   0  0  0  0  0  0  0  0  0  0  0  0
  -13.2186   16.3199  -38.9240 C   0  0  1  0  0  0  0  0  0  0  0  0
  -13.1659   16.0907  -37.4515 C   0  0  2  0  0  0  0  0  0  0  0  0
  -11.0910   14.7536  -37.7169 C   0  0  1  0  0  0  0  0  0  0  0  0
  -12.6755   15.0277  -39.4905 C   0  0  2  0  0  0  0  0  0  0  0  0
  -12.5863   14.6950  -37.3475 C   0  0  2  0  0  0  0  0  0  0  0  0
  -10.4057   13.5091  -37.3835 N   0  0  0  0  0  0  0  0  0  0  0  0
  -13.1184   14.0380  -38.5280 O   0  0  0  0  0  0  0  0  0  0  0  0
  -14.9300   17.3530  -37.9468 H   0  0  0  0  0  0  0  0  0  0  0  0
  -15.2082   15.5775  -38.2127 H   0  0  0  0  0  0  0  0  0  0  0  0
  -10.6367   15.8648  -39.5716 H   0  0  0  0  0  0  0  0  0  0  0  0
  -10.7310   14.1063  -39.7899 H   0  0  0  0  0  0  0  0  0  0  0  0
  -12.8031   17.2243  -39.3409 H   0  0  0  0  0  0  0  0  0  0  0  0
  -12.7154   16.8319  -36.8094 H   0  0  0  0  0  0  0  0  0  0  0  0
  -10.5769   15.5862  -37.2248 H   0  0  0  0  0  0  0  0  0  0  0  0
  -13.0045   14.7946  -40.5052 H   0  0  0  0  0  0  0  0  0  0  0  0
  -12.8451   14.1656  -36.4271 H   0  0  0  0  0  0  0  0  0  0  0  0
   -9.4684   13.5738  -37.7046 H   0  0  0  0  0  0  0  0  0  0  0  0
  -10.4307   13.3947  -36.3976 H   0  0  0  0  0  0  0  0  0  0  0  0
  1  3  1  0  0  0  0
  1  4  1  0  0  0  0
  2  5  1  0  0  0  0
  2  6  1  0  0  0  0
  3  4  1  0  0  0  0
  3  6  1  0  0  0  0
  4  7  1  0  0  0  0
  5  7  1  0  0  0  0
  5  8  1  0  0  0  0
  6  9  1  0  0  0  0
  7  9  1  0  0  0  0
  1 10  1  0  0  0  0
  1 11  1  0  0  0  0
  2 12  1  0  0  0  0
  2 13  1  0  0  0  0
  3 14  1  0  0  0  0
  4 15  1  0  0  0  0
  5 16  1  0  0  0  0
  6 17  1  0  0  0  0
  7 18  1  0  0  0  0
  8 19  1  0  0  0  0
  8 20  1  0  0  0  0
M  END
> <id>
EN300-708643

> <smiles>
NC1CC2OC1C3CC32

> <MDLNUMBER>
MFCD31435884

> <IUPAC Name>
8-oxatricyclo[3.2.1.0,2,4]octan-6-amine

> <CAS>
2137593-62-3

> <URL>
https://www.enaminestore.com/catalog/EN300-708643

> <ROCS_ShapeQuery>
x1247relevant_x1083L0AP1_x1305L0BP1_

> <ROCS_TanimotoCombo>
0.791 

> <ROCS_ShapeTanimoto>
0.363 

> <ROCS_ColorTanimoto>
0.428 

> <ROCS_RefTversky>
0.316 

> <ROCS_RefColorTversky>
0.579 

> <ROCS_RefTverskyCombo>
0.895 

> <ROCS_FitTversky>
1.697 

> <ROCS_FitColorTversky>
0.621 

> <ROCS_FitTverskyCombo>
2.318 

> <ROCS_ColorScore>
-12.593

> <ROCS_Overlap>
926.923

> <ROCS_Rank>
444                 

$$$$
untitled-dbase-12633_0
  -OEChem-06162310163D

 20 22  0     1  0  0  0  0  0999 V2000
  -14.4867   16.3785  -38.1148 C   0  0  0  0  0  0  0  0  0  0  0  0
  -11.1610   14.9589  -39.2512 C   0  0  0  0  0  0  0  0  0  0  0  0
  -13.2186   16.3199  -38.9240 C   0  0  1  0  0  0  0  0  0  0  0  0
  -13.1659   16.0907  -37.4515 C   0  0  2  0  0  0  0  0  0  0  0  0
  -11.0910   14.7536  -37.7169 C   0  0  1  0  0  0  0  0  0  0  0  0
  -12.6755   15.0277  -39.4905 C   0  0  2  0  0  0  0  0  0  0  0  0
  -12.5863   14.6950  -37.3475 C   0  0  2  0  0  0  0  0  0  0  0  0
  -10.4057   13.5091  -37.3835 N   0  0  0  0  0  0  0  0  0  0  0  0
  -13.1184   14.0380  -38.5280 O   0  0  0  0  0  0  0  0  0  0  0  0
  -14.9300   17.3530  -37.9468 H   0  0  0  0  0  0  0  0  0  0  0  0
  -15.2082   15.5775  -38.2127 H   0  0  0  0  0  0  0  0  0  0  0  0
  -10.6367   15.8648  -39.5716 H   0  0  0  0  0  0  0  0  0  0  0  0
  -10.7310   14.1063  -39.7899 H   0  0  0  0  0  0  0  0  0  0  0  0
  -12.8031   17.2243  -39.3409 H   0  0  0  0  0  0  0  0  0  0  0  0
  -12.7154   16.8319  -36.8094 H   0  0  0  0  0  0  0  0  0  0  0  0
  -10.5769   15.5862  -37.2248 H   0  0  0  0  0  0  0  0  0  0  0  0
  -13.0045   14.7946  -40.5052 H   0  0  0  0  0  0  0  0  0  0  0  0
  -12.8451   14.1656  -36.4271 H   0  0  0  0  0  0  0  0  0  0  0  0
   -9.4684   13.5738  -37.7046 H   0  0  0  0  0  0  0  0  0  0  0  0
  -10.4307   13.3947  -36.3976 H   0  0  0  0  0  0  0  0  0  0  0  0
  1  3  1  0  0  0  0
  1  4  1  0  0  0  0
  2  5  1  0  0  0  0
  2  6  1  0  0  0  0
  3  4  1  0  0  0  0
  3  6  1  0  0  0  0
  4  7  1  0  0  0  0
  5  7  1  0  0  0  0
  5  8  1  0  0  0  0
  6  9  1  0  0  0  0
  7  9  1  0  0  0  0
  1 10  1  0  0  0  0
  1 11  1  0  0  0  0
  2 12  1  0  0  0  0
  2 13  1  0  0  0  0
  3 14  1  0  0  0  0
  4 15  1  0  0  0  0
  5 16  1  0  0  0  0
  6 17  1  0  0  0  0
  7 18  1  0  0  0  0
  8 19  1  0  0  0  0
  8 20  1  0  0  0  0
M  END
> <id>
EN300-717592

> <smiles>
NC1CC2OC1C3CC32.OC(=O)C(F)(F)F

> <IUPAC Name>
8-oxatricyclo[3.2.1.0,2,4]octan-6-amine; trifluoroacetic acid

> <CAS>
2137719-20-9

> <URL>
https://www.enaminestore.com/catalog/EN300-717592

> <Saltdate>
OC(=O)C(F)(F)F

> <ROCS_ShapeQuery>
x1247relevant_x1083L0AP1_x1305L0BP1_

> <ROCS_TanimotoCombo>
0.791 

> <ROCS_ShapeTanimoto>
0.363 

> <ROCS_ColorTanimoto>
0.428 

> <ROCS_RefTversky>
0.316 

> <ROCS_RefColorTversky>
0.579 

> <ROCS_RefTverskyCombo>
0.895 

> <ROCS_FitTversky>
1.697 

> <ROCS_FitColorTversky>
0.621 

> <ROCS_FitTverskyCombo>
2.318 

> <ROCS_ColorScore>
-12.593

> <ROCS_Overlap>
926.923

> <ROCS_Rank>
445                 

$$$$
untitled-dbase-17083_5
  -OEChem-06162310163D

 35 36  0     1  0  0  0  0  0999 V2000
   -9.9603   15.5883  -37.7828 C   0  0  0  0  0  0  0  0  0  0  0  0
  -13.2454   13.9090  -38.3644 C   0  0  0  0  0  0  0  0  0  0  0  0
   -9.2849   14.7463  -36.7214 C   0  0  0  0  0  0  0  0  0  0  0  0
  -11.4723   15.1783  -36.0549 C   0  0  0  0  0  0  0  0  0  0  0  0
  -13.8498   15.0519  -39.2360 C   0  0  0  0  0  0  0  0  0  0  0  0
  -11.4428   15.2928  -37.5834 C   0  0  2  0  0  0  0  0  0  0  0  0
  -12.8945   16.3161  -39.2504 C   0  0  0  0  0  0  0  0  0  0  0  0
  -14.1154   14.5263  -40.6637 C   0  0  0  0  0  0  0  0  0  0  0  0
  -15.2325   15.3713  -38.6131 C   0  0  0  0  0  0  0  0  0  0  0  0
  -13.6559   17.6465  -39.4137 C   0  0  0  0  0  0  0  0  0  0  0  0
  -11.8325   16.2974  -40.3744 C   0  0  0  0  0  0  0  0  0  0  0  0
  -11.7991   14.0201  -38.2287 N   0  0  0  0  0  0  0  0  0  0  0  0
  -10.2115   14.6383  -35.6345 O   0  0  0  0  0  0  0  0  0  0  0  0
  -12.2403   16.4171  -37.9712 O   0  0  0  0  0  0  0  0  0  0  0  0
   -9.6630   16.6382  -37.7015 H   0  0  0  0  0  0  0  0  0  0  0  0
   -9.6345   15.2410  -38.7775 H   0  0  0  0  0  0  0  0  0  0  0  0
  -13.6913   13.9300  -37.3569 H   0  0  0  0  0  0  0  0  0  0  0  0
  -13.5058   12.9183  -38.7691 H   0  0  0  0  0  0  0  0  0  0  0  0
   -9.0240   13.7465  -37.0828 H   0  0  0  0  0  0  0  0  0  0  0  0
   -8.3758   15.2280  -36.3435 H   0  0  0  0  0  0  0  0  0  0  0  0
  -11.6243   16.1439  -35.5519 H   0  0  0  0  0  0  0  0  0  0  0  0
  -12.2474   14.4812  -35.7013 H   0  0  0  0  0  0  0  0  0  0  0  0
  -14.5348   15.3264  -41.2613 H   0  0  0  0  0  0  0  0  0  0  0  0
  -14.8133   13.6997  -40.6105 H   0  0  0  0  0  0  0  0  0  0  0  0
  -13.1798   14.1931  -41.0961 H   0  0  0  0  0  0  0  0  0  0  0  0
  -15.6945   16.1630  -39.1859 H   0  0  0  0  0  0  0  0  0  0  0  0
  -15.0857   15.6856  -37.5895 H   0  0  0  0  0  0  0  0  0  0  0  0
  -15.8412   14.4787  -38.6479 H   0  0  0  0  0  0  0  0  0  0  0  0
  -12.9437   18.4629  -39.4150 H   0  0  0  0  0  0  0  0  0  0  0  0
  -14.3473   17.7612  -38.5875 H   0  0  0  0  0  0  0  0  0  0  0  0
  -14.1996   17.6293  -40.3507 H   0  0  0  0  0  0  0  0  0  0  0  0
  -11.2282   17.1950  -40.3074 H   0  0  0  0  0  0  0  0  0  0  0  0
  -12.3329   16.2625  -41.3356 H   0  0  0  0  0  0  0  0  0  0  0  0
  -11.2042   15.4218  -40.2552 H   0  0  0  0  0  0  0  0  0  0  0  0
  -11.4477   13.2522  -37.6765 H   0  0  0  0  0  0  0  0  0  0  0  0
  1  3  1  0  0  0  0
  1  6  1  0  0  0  0
  2  5  1  0  0  0  0
  2 12  1  0  0  0  0
  3 13  1  0  0  0  0
  4  6  1  0  0  0  0
  4 13  1  0  0  0  0
  5  7  1  0  0  0  0
  5  8  1  0  0  0  0
  5  9  1  0  0  0  0
  6 12  1  0  0  0  0
  6 14  1  0  0  0  0
  7 10  1  0  0  0  0
  7 11  1  0  0  0  0
  7 14  1  0  0  0  0
  1 15  1  0  0  0  0
  1 16  1  0  0  0  0
  2 17  1  0  0  0  0
  2 18  1  0  0  0  0
  3 19  1  0  0  0  0
  3 20  1  0  0  0  0
  4 21  1  0  0  0  0
  4 22  1  0  0  0  0
  8 23  1  0  0  0  0
  8 24  1  0  0  0  0
  8 25  1  0  0  0  0
  9 26  1  0  0  0  0
  9 27  1  0  0  0  0
  9 28  1  0  0  0  0
 10 29  1  0  0  0  0
 10 30  1  0  0  0  0
 10 31  1  0  0  0  0
 11 32  1  0  0  0  0
 11 33  1  0  0  0  0
 11 34  1  0  0  0  0
 12 35  1  0  0  0  0
M  END
> <id>
EN300-1280161

> <smiles>
CC1(C)CNC2(CCOC2)OC1(C)C

> <IUPAC Name>
7,7,8,8-tetramethyl-2,6-dioxa-10-azaspiro[4.5]decane

> <CAS>
2167097-60-9

> <URL>
https://www.enaminestore.com/catalog/EN300-1280161

> <ROCS_ShapeQuery>
x1247relevant_x1083L0AP1_x1305L0BP1_

> <ROCS_TanimotoCombo>
0.791 

> <ROCS_ShapeTanimoto>
0.498 

> <ROCS_ColorTanimoto>
0.293 

> <ROCS_RefTversky>
0.415 

> <ROCS_RefColorTversky>
0.320 

> <ROCS_RefTverskyCombo>
0.735 

> <ROCS_FitTversky>
1.664 

> <ROCS_FitColorTversky>
0.778 

> <ROCS_FitTverskyCombo>
2.442 

> <ROCS_ColorScore>
-6.767

> <ROCS_Overlap>
1221.358

> <ROCS_Rank>
446                 

$$$$
untitled-dbase-15468_0
  -OEChem-06162310163D

 17 18  0     0  0  0  0  0  0999 V2000
  -10.4500   13.7314  -36.6545 C   0  0  0  0  0  0  0  0  0  0  0  0
   -9.3165   14.4714  -36.3733 C   0  0  0  0  0  0  0  0  0  0  0  0
  -12.6220   13.6869  -37.8050 C   0  0  0  0  0  0  0  0  0  0  0  0
  -10.0915   16.2623  -37.5887 C   0  0  0  0  0  0  0  0  0  0  0  0
  -11.4370   14.3261  -37.4512 C   0  0  0  0  0  0  0  0  0  0  0  0
  -11.2711   15.6269  -37.9411 C   0  0  0  0  0  0  0  0  0  0  0  0
  -13.3064   15.4986  -38.9811 C   0  0  0  0  0  0  0  0  0  0  0  0
   -9.1113   15.7265  -36.8217 N   0  0  0  0  0  0  0  0  0  0  0  0
  -13.5780   14.2484  -38.5700 N   0  0  0  0  0  0  0  0  0  0  0  0
  -12.2023   16.2231  -38.7084 N   0  0  0  0  0  0  0  0  0  0  0  0
  -14.2845   16.1234  -39.7853 N   0  0  0  0  0  0  0  0  0  0  0  0
  -10.5614   12.7242  -36.2666 H   0  0  0  0  0  0  0  0  0  0  0  0
   -8.5206   14.0603  -35.7618 H   0  0  0  0  0  0  0  0  0  0  0  0
  -12.8419   12.6763  -37.4731 H   0  0  0  0  0  0  0  0  0  0  0  0
   -9.8867   17.2741  -37.9289 H   0  0  0  0  0  0  0  0  0  0  0  0
  -14.1448   17.0698  -40.0737 H   0  0  0  0  0  0  0  0  0  0  0  0
  -15.1398   15.6420  -39.9723 H   0  0  0  0  0  0  0  0  0  0  0  0
  1  2  2  0  0  0  0
  1  5  1  0  0  0  0
  2  8  1  0  0  0  0
  3  5  2  0  0  0  0
  3  9  1  0  0  0  0
  4  6  1  0  0  0  0
  4  8  2  0  0  0  0
  5  6  1  0  0  0  0
  6 10  2  0  0  0  0
  7  9  2  0  0  0  0
  7 10  1  0  0  0  0
  7 11  1  0  0  0  0
  1 12  1  0  0  0  0
  2 13  1  0  0  0  0
  3 14  1  0  0  0  0
  4 15  1  0  0  0  0
 11 16  1  0  0  0  0
 11 17  1  0  0  0  0
M  END
> <id>
EN300-1162547

> <smiles>
NC=1N=CC=2C=CN=CC2N1

> <MDLNUMBER>
MFCD28624744

> <IUPAC Name>
pyrido[3,4-d]pyrimidin-2-amine

> <CAS>
1558220-31-7

> <URL>
https://www.enaminestore.com/catalog/EN300-1162547

> <ROCS_ShapeQuery>
x1247relevant_x1083L0AP1_x1305L0BP1_

> <ROCS_TanimotoCombo>
0.791 

> <ROCS_ShapeTanimoto>
0.448 

> <ROCS_ColorTanimoto>
0.343 

> <ROCS_RefTversky>
0.377 

> <ROCS_RefColorTversky>
0.349 

> <ROCS_RefTverskyCombo>
0.726 

> <ROCS_FitTversky>
1.728 

> <ROCS_FitColorTversky>
0.948 

> <ROCS_FitTverskyCombo>
2.677 

> <ROCS_ColorScore>
-7.369

> <ROCS_Overlap>
1106.886

> <ROCS_Rank>
447                 

$$$$
untitled-dbase-23014_6
  -OEChem-06162310163D

 35 36  0     1  0  0  0  0  0999 V2000
  -10.0111   14.7847  -37.0959 C   0  0  0  0  0  0  0  0  0  0  0  0
  -13.3330   16.0417  -37.6892 C   0  0  0  0  0  0  0  0  0  0  0  0
  -13.0669   14.9093  -39.7744 C   0  0  0  0  0  0  0  0  0  0  0  0
  -12.3340   13.8943  -37.6027 C   0  0  0  0  0  0  0  0  0  0  0  0
  -13.4775   14.6445  -38.3074 C   0  0  1  0  0  0  0  0  0  0  0  0
  -11.8655   16.1683  -38.1066 C   0  0  2  0  0  0  0  0  0  0  0  0
  -11.9922   16.0177  -39.6404 C   0  0  1  0  0  0  0  0  0  0  0  0
  -10.0374   14.5095  -34.4916 C   0  0  0  0  0  0  0  0  0  0  0  0
   -9.8824   12.0212  -34.7979 C   0  0  0  0  0  0  0  0  0  0  0  0
   -7.8616   13.4587  -35.1960 C   0  0  0  0  0  0  0  0  0  0  0  0
   -9.3849   13.3797  -35.2870 C   0  0  0  0  0  0  0  0  0  0  0  0
  -11.3032   14.9292  -37.5565 N   0  0  0  0  0  0  0  0  0  0  0  0
  -10.7451   15.6851  -40.3094 N   0  0  0  0  0  0  0  0  0  0  0  0
   -9.1779   15.6873  -37.0770 O   0  0  0  0  0  0  0  0  0  0  0  0
   -9.7669   13.5099  -36.6608 O   0  0  0  0  0  0  0  0  0  0  0  0
  -13.9864   16.7896  -38.1505 H   0  0  0  0  0  0  0  0  0  0  0  0
  -13.4732   16.0501  -36.6028 H   0  0  0  0  0  0  0  0  0  0  0  0
  -12.7000   14.0009  -40.2650 H   0  0  0  0  0  0  0  0  0  0  0  0
  -13.9167   15.2851  -40.3557 H   0  0  0  0  0  0  0  0  0  0  0  0
  -12.5888   13.6133  -36.5755 H   0  0  0  0  0  0  0  0  0  0  0  0
  -11.9728   13.0172  -38.1474 H   0  0  0  0  0  0  0  0  0  0  0  0
  -14.4555   14.1739  -38.1938 H   0  0  0  0  0  0  0  0  0  0  0  0
  -11.3359   17.0643  -37.7757 H   0  0  0  0  0  0  0  0  0  0  0  0
  -12.3787   16.9467  -40.0705 H   0  0  0  0  0  0  0  0  0  0  0  0
   -9.6829   15.4863  -34.8397 H   0  0  0  0  0  0  0  0  0  0  0  0
  -11.1287   14.4849  -34.5771 H   0  0  0  0  0  0  0  0  0  0  0  0
   -9.7719   14.4445  -33.4302 H   0  0  0  0  0  0  0  0  0  0  0  0
   -9.4167   11.2076  -35.3658 H   0  0  0  0  0  0  0  0  0  0  0  0
  -10.9635   11.9239  -34.9492 H   0  0  0  0  0  0  0  0  0  0  0  0
   -9.6660   11.8704  -33.7353 H   0  0  0  0  0  0  0  0  0  0  0  0
   -7.3933   12.6484  -35.7664 H   0  0  0  0  0  0  0  0  0  0  0  0
   -7.4838   14.4129  -35.5773 H   0  0  0  0  0  0  0  0  0  0  0  0
   -7.5265   13.3407  -34.1592 H   0  0  0  0  0  0  0  0  0  0  0  0
  -10.9281   15.5691  -41.2798 H   0  0  0  0  0  0  0  0  0  0  0  0
  -10.1012   16.4287  -40.1645 H   0  0  0  0  0  0  0  0  0  0  0  0
  1 12  1  0  0  0  0
  1 14  2  0  0  0  0
  1 15  1  0  0  0  0
  2  5  1  0  0  0  0
  2  6  1  0  0  0  0
  3  5  1  0  0  0  0
  3  7  1  0  0  0  0
  4  5  1  1  0  0  0
  4 12  1  0  0  0  0
  6  7  1  0  0  0  0
  6 12  1  1  0  0  0
  7 13  1  1  0  0  0
  8 11  1  0  0  0  0
  9 11  1  0  0  0  0
 10 11  1  0  0  0  0
 11 15  1  0  0  0  0
  2 16  1  0  0  0  0
  2 17  1  0  0  0  0
  3 18  1  0  0  0  0
  3 19  1  0  0  0  0
  4 20  1  0  0  0  0
  4 21  1  0  0  0  0
  5 22  1  0  0  0  0
  6 23  1  0  0  0  0
  7 24  1  0  0  0  0
  8 25  1  0  0  0  0
  8 26  1  0  0  0  0
  8 27  1  0  0  0  0
  9 28  1  0  0  0  0
  9 29  1  0  0  0  0
  9 30  1  0  0  0  0
 10 31  1  0  0  0  0
 10 32  1  0  0  0  0
 10 33  1  0  0  0  0
 13 34  1  0  0  0  0
 13 35  1  0  0  0  0
M  END
> <id>
EN300-27692258

> <smiles>
Cl.CC(C)(C)OC(=O)N1C[C@@H]2C[C@H](N)[C@H]1C2 |&1:10,12,14,r|

> <IUPAC Name>
rac-tert-butyl (1R,4R,6S)-6-amino-2-azabicyclo[2.2.1]heptane-2-carboxylate hydrochloride

> <CAS>
2567489-78-3

> <Purity>
95

> <URL>
https://www.enaminestore.com/catalog/EN300-27692258

> <ROCS_ShapeQuery>
x1247relevant_x1083L0AP1_x1305L0BP1_

> <ROCS_TanimotoCombo>
0.791 

> <ROCS_ShapeTanimoto>
0.490 

> <ROCS_ColorTanimoto>
0.300 

> <ROCS_RefTversky>
0.417 

> <ROCS_RefColorTversky>
0.350 

> <ROCS_RefTverskyCombo>
0.767 

> <ROCS_FitTversky>
1.559 

> <ROCS_FitColorTversky>
0.680 

> <ROCS_FitTverskyCombo>
2.239 

> <ROCS_ColorScore>
-7.437

> <ROCS_Overlap>
1227.811

> <ROCS_Rank>
448                 

$$$$
untitled-dbase-42808_6
  -OEChem-06162310163D

 35 36  0     1  0  0  0  0  0999 V2000
  -10.0111   14.7847  -37.0959 C   0  0  0  0  0  0  0  0  0  0  0  0
  -13.3330   16.0417  -37.6892 C   0  0  0  0  0  0  0  0  0  0  0  0
  -13.0669   14.9093  -39.7744 C   0  0  0  0  0  0  0  0  0  0  0  0
  -12.3340   13.8943  -37.6027 C   0  0  0  0  0  0  0  0  0  0  0  0
  -13.4775   14.6445  -38.3074 C   0  0  1  0  0  0  0  0  0  0  0  0
  -11.8655   16.1683  -38.1066 C   0  0  2  0  0  0  0  0  0  0  0  0
  -11.9922   16.0177  -39.6404 C   0  0  1  0  0  0  0  0  0  0  0  0
  -10.0374   14.5095  -34.4916 C   0  0  0  0  0  0  0  0  0  0  0  0
   -9.8824   12.0212  -34.7979 C   0  0  0  0  0  0  0  0  0  0  0  0
   -7.8616   13.4587  -35.1960 C   0  0  0  0  0  0  0  0  0  0  0  0
   -9.3849   13.3797  -35.2870 C   0  0  0  0  0  0  0  0  0  0  0  0
  -11.3032   14.9292  -37.5565 N   0  0  0  0  0  0  0  0  0  0  0  0
  -10.7451   15.6851  -40.3094 N   0  0  0  0  0  0  0  0  0  0  0  0
   -9.1779   15.6873  -37.0770 O   0  0  0  0  0  0  0  0  0  0  0  0
   -9.7669   13.5099  -36.6608 O   0  0  0  0  0  0  0  0  0  0  0  0
  -13.9864   16.7896  -38.1505 H   0  0  0  0  0  0  0  0  0  0  0  0
  -13.4732   16.0501  -36.6028 H   0  0  0  0  0  0  0  0  0  0  0  0
  -12.7000   14.0009  -40.2650 H   0  0  0  0  0  0  0  0  0  0  0  0
  -13.9167   15.2851  -40.3557 H   0  0  0  0  0  0  0  0  0  0  0  0
  -12.5888   13.6133  -36.5755 H   0  0  0  0  0  0  0  0  0  0  0  0
  -11.9728   13.0172  -38.1474 H   0  0  0  0  0  0  0  0  0  0  0  0
  -14.4555   14.1739  -38.1938 H   0  0  0  0  0  0  0  0  0  0  0  0
  -11.3359   17.0643  -37.7757 H   0  0  0  0  0  0  0  0  0  0  0  0
  -12.3787   16.9467  -40.0705 H   0  0  0  0  0  0  0  0  0  0  0  0
   -9.6829   15.4863  -34.8397 H   0  0  0  0  0  0  0  0  0  0  0  0
  -11.1287   14.4849  -34.5771 H   0  0  0  0  0  0  0  0  0  0  0  0
   -9.7719   14.4445  -33.4302 H   0  0  0  0  0  0  0  0  0  0  0  0
   -9.4167   11.2076  -35.3658 H   0  0  0  0  0  0  0  0  0  0  0  0
  -10.9635   11.9239  -34.9492 H   0  0  0  0  0  0  0  0  0  0  0  0
   -9.6660   11.8704  -33.7353 H   0  0  0  0  0  0  0  0  0  0  0  0
   -7.3933   12.6484  -35.7664 H   0  0  0  0  0  0  0  0  0  0  0  0
   -7.4838   14.4129  -35.5773 H   0  0  0  0  0  0  0  0  0  0  0  0
   -7.5265   13.3407  -34.1592 H   0  0  0  0  0  0  0  0  0  0  0  0
  -10.9281   15.5691  -41.2798 H   0  0  0  0  0  0  0  0  0  0  0  0
  -10.1012   16.4287  -40.1645 H   0  0  0  0  0  0  0  0  0  0  0  0
  1 12  1  0  0  0  0
  1 14  2  0  0  0  0
  1 15  1  0  0  0  0
  2  5  1  0  0  0  0
  2  6  1  0  0  0  0
  3  5  1  0  0  0  0
  3  7  1  0  0  0  0
  4  5  1  1  0  0  0
  4 12  1  0  0  0  0
  6  7  1  0  0  0  0
  6 12  1  1  0  0  0
  7 13  1  1  0  0  0
  8 11  1  0  0  0  0
  9 11  1  0  0  0  0
 10 11  1  0  0  0  0
 11 15  1  0  0  0  0
  2 16  1  0  0  0  0
  2 17  1  0  0  0  0
  3 18  1  0  0  0  0
  3 19  1  0  0  0  0
  4 20  1  0  0  0  0
  4 21  1  0  0  0  0
  5 22  1  0  0  0  0
  6 23  1  0  0  0  0
  7 24  1  0  0  0  0
  8 25  1  0  0  0  0
  8 26  1  0  0  0  0
  8 27  1  0  0  0  0
  9 28  1  0  0  0  0
  9 29  1  0  0  0  0
  9 30  1  0  0  0  0
 10 31  1  0  0  0  0
 10 32  1  0  0  0  0
 10 33  1  0  0  0  0
 13 34  1  0  0  0  0
 13 35  1  0  0  0  0
M  END
> <id>
EN300-26619273

> <smiles>
CC(C)(C)OC(=O)N1C[C@@H]2C[C@H](N)[C@H]1C2 |&1:9,11,13,r|

> <MDLNUMBER>
MFCD31707767

> <IUPAC Name>
rac-tert-butyl (1R,4R,6S)-6-amino-2-azabicyclo[2.2.1]heptane-2-carboxylate

> <CAS>
1433638-95-9

> <URL>
https://www.enaminestore.com/catalog/EN300-26619273

> <ROCS_ShapeQuery>
x1247relevant_x1083L0AP1_x1305L0BP1_

> <ROCS_TanimotoCombo>
0.791 

> <ROCS_ShapeTanimoto>
0.490 

> <ROCS_ColorTanimoto>
0.300 

> <ROCS_RefTversky>
0.417 

> <ROCS_RefColorTversky>
0.350 

> <ROCS_RefTverskyCombo>
0.767 

> <ROCS_FitTversky>
1.559 

> <ROCS_FitColorTversky>
0.680 

> <ROCS_FitTverskyCombo>
2.239 

> <ROCS_ColorScore>
-7.437

> <ROCS_Overlap>
1227.811

> <ROCS_Rank>
449                 

$$$$
untitled-dbase-18243_2
  -OEChem-06162310163D

 34 36  0     1  0  0  0  0  0999 V2000
  -12.8592   16.9221  -38.0377 C   0  0  0  0  0  0  0  0  0  0  0  0
  -12.3769   15.4787  -39.9777 C   0  0  0  0  0  0  0  0  0  0  0  0
  -14.0489   16.0297  -37.6579 C   0  0  0  0  0  0  0  0  0  0  0  0
  -13.6530   14.6993  -39.6248 C   0  0  0  0  0  0  0  0  0  0  0  0
   -9.2067   14.0300  -36.0206 C   0  0  0  0  0  0  0  0  0  0  0  0
  -12.6971   14.0366  -37.5189 C   0  0  0  0  0  0  0  0  0  0  0  0
   -9.7718   15.4449  -36.0171 C   0  0  0  0  0  0  0  0  0  0  0  0
  -11.7611   16.0537  -38.6890 C   0  0  0  0  0  0  0  0  0  0  0  0
  -10.2305   13.9718  -38.2347 C   0  0  1  0  0  0  0  0  0  0  0  0
  -11.3959   14.8867  -37.7239 C   0  0  2  0  0  0  0  0  0  0  0  0
   -9.0912   14.6418  -39.0196 C   0  0  0  0  0  0  0  0  0  0  0  0
   -9.6791   13.1877  -37.1216 N   0  0  0  0  0  0  0  0  0  0  0  0
  -13.8815   14.6527  -38.1653 N   0  0  0  0  0  0  0  0  0  0  0  0
  -11.1284   15.4485  -36.4199 O   0  0  0  0  0  0  0  0  0  0  0  0
  -13.1882   17.6980  -38.7392 H   0  0  0  0  0  0  0  0  0  0  0  0
  -12.4740   17.4382  -37.1517 H   0  0  0  0  0  0  0  0  0  0  0  0
  -11.6713   14.8290  -40.5058 H   0  0  0  0  0  0  0  0  0  0  0  0
  -12.6220   16.2971  -40.6670 H   0  0  0  0  0  0  0  0  0  0  0  0
  -14.1706   16.0134  -36.5672 H   0  0  0  0  0  0  0  0  0  0  0  0
  -14.9810   16.4575  -38.0496 H   0  0  0  0  0  0  0  0  0  0  0  0
  -14.5179   15.1568  -40.1213 H   0  0  0  0  0  0  0  0  0  0  0  0
  -13.5927   13.6782  -40.0224 H   0  0  0  0  0  0  0  0  0  0  0  0
   -8.0953   14.0702  -36.0308 H   0  0  0  0  0  0  0  0  0  0  0  0
   -9.4599   13.5361  -35.0579 H   0  0  0  0  0  0  0  0  0  0  0  0
  -12.5750   13.0278  -37.9287 H   0  0  0  0  0  0  0  0  0  0  0  0
  -12.9306   13.9004  -36.4584 H   0  0  0  0  0  0  0  0  0  0  0  0
   -9.6554   15.9092  -35.0352 H   0  0  0  0  0  0  0  0  0  0  0  0
   -9.2117   16.0590  -36.7268 H   0  0  0  0  0  0  0  0  0  0  0  0
  -10.8981   16.6896  -38.9078 H   0  0  0  0  0  0  0  0  0  0  0  0
  -10.6695   13.2074  -38.9242 H   0  0  0  0  0  0  0  0  0  0  0  0
   -8.6236   15.3985  -38.3978 H   0  0  0  0  0  0  0  0  0  0  0  0
   -9.4955   15.1040  -39.9145 H   0  0  0  0  0  0  0  0  0  0  0  0
   -8.3568   13.8921  -39.2963 H   0  0  0  0  0  0  0  0  0  0  0  0
   -8.9071   12.6053  -37.4540 H   0  0  0  0  0  0  0  0  0  0  0  0
  1  3  1  0  0  0  0
  1  8  1  0  0  0  0
  2  4  1  0  0  0  0
  2  8  1  0  0  0  0
  3 13  1  0  0  0  0
  4 13  1  0  0  0  0
  5  7  1  0  0  0  0
  5 12  1  0  0  0  0
  6 10  1  0  0  0  0
  6 13  1  0  0  0  0
  7 14  1  0  0  0  0
  8 10  1  0  0  0  0
  9 10  1  0  0  0  0
  9 11  1  0  0  0  0
  9 12  1  0  0  0  0
 10 14  1  0  0  0  0
  1 15  1  0  0  0  0
  1 16  1  0  0  0  0
  2 17  1  0  0  0  0
  2 18  1  0  0  0  0
  3 19  1  0  0  0  0
  3 20  1  0  0  0  0
  4 21  1  0  0  0  0
  4 22  1  0  0  0  0
  5 23  1  0  0  0  0
  5 24  1  0  0  0  0
  6 25  1  0  0  0  0
  6 26  1  0  0  0  0
  7 27  1  0  0  0  0
  7 28  1  0  0  0  0
  8 29  1  0  0  0  0
  9 30  1  0  0  0  0
 11 31  1  0  0  0  0
 11 32  1  0  0  0  0
 11 33  1  0  0  0  0
 12 34  1  0  0  0  0
M  END
> <id>
EN300-1641288

> <smiles>
CC1NCCOC21CN3CCC2CC3

> <IUPAC Name>
3'-methyl-4-azaspiro[bicyclo[2.2.2]octane-2,2'-morpholine]

> <CAS>
2171929-13-6

> <URL>
https://www.enaminestore.com/catalog/EN300-1641288

> <ROCS_ShapeQuery>
x1247relevant_x1083L0AP1_x1305L0BP1_

> <ROCS_TanimotoCombo>
0.790 

> <ROCS_ShapeTanimoto>
0.496 

> <ROCS_ColorTanimoto>
0.294 

> <ROCS_RefTversky>
0.416 

> <ROCS_RefColorTversky>
0.351 

> <ROCS_RefTverskyCombo>
0.767 

> <ROCS_FitTversky>
1.637 

> <ROCS_FitColorTversky>
0.644 

> <ROCS_FitTverskyCombo>
2.281 

> <ROCS_ColorScore>
-7.478

> <ROCS_Overlap>
1224.194

> <ROCS_Rank>
450                 

$$$$
untitled-dbase-30310_5
  -OEChem-06162310163D

 25 26  0     1  0  0  0  0  0999 V2000
  -10.7910   14.2601  -36.6718 C   0  0  0  0  0  0  0  0  0  0  0  0
  -14.1599   14.6518  -37.9628 C   0  0  0  0  0  0  0  0  0  0  0  0
  -13.8217   16.0478  -37.4034 C   0  0  0  0  0  0  0  0  0  0  0  0
  -12.3020   14.3100  -39.6789 C   0  0  0  0  0  0  0  0  0  0  0  0
  -11.7414   16.6472  -38.7545 C   0  0  0  0  0  0  0  0  0  0  0  0
  -12.8017   13.9991  -38.2537 C   0  0  1  0  0  0  0  0  0  0  0  0
  -12.2912   16.1170  -37.4143 C   0  0  2  0  0  0  0  0  0  0  0  0
  -12.2328   15.8193  -39.9496 C   0  0  0  0  0  0  0  0  0  0  0  0
  -11.9169   14.7131  -37.3387 N   0  0  0  0  0  0  0  0  0  0  0  0
  -10.0753   13.2716  -37.3126 N   0  0  0  0  0  0  0  0  0  0  0  0
  -10.4292   14.6980  -35.5764 O   0  0  0  0  0  0  0  0  0  0  0  0
  -13.4728   16.2566  -40.3024 F   0  0  0  0  0  0  0  0  0  0  0  0
  -11.4397   16.0544  -41.0249 F   0  0  0  0  0  0  0  0  0  0  0  0
  -14.6972   14.0784  -37.1977 H   0  0  0  0  0  0  0  0  0  0  0  0
  -14.8036   14.7078  -38.8465 H   0  0  0  0  0  0  0  0  0  0  0  0
  -14.2913   16.8472  -37.9844 H   0  0  0  0  0  0  0  0  0  0  0  0
  -14.1968   16.1212  -36.3758 H   0  0  0  0  0  0  0  0  0  0  0  0
  -11.3071   13.8707  -39.8213 H   0  0  0  0  0  0  0  0  0  0  0  0
  -12.9651   13.8398  -40.4139 H   0  0  0  0  0  0  0  0  0  0  0  0
  -12.0430   17.6926  -38.8896 H   0  0  0  0  0  0  0  0  0  0  0  0
  -10.6445   16.6344  -38.7302 H   0  0  0  0  0  0  0  0  0  0  0  0
  -12.8020   12.9231  -38.0686 H   0  0  0  0  0  0  0  0  0  0  0  0
  -11.9081   16.7096  -36.5773 H   0  0  0  0  0  0  0  0  0  0  0  0
  -10.3717   12.9296  -38.2209 H   0  0  0  0  0  0  0  0  0  0  0  0
   -9.2254   12.8658  -36.9408 H   0  0  0  0  0  0  0  0  0  0  0  0
  1  9  1  0  0  0  0
  1 10  1  0  0  0  0
  1 11  2  0  0  0  0
  2  3  1  0  0  0  0
  2  6  1  0  0  0  0
  3  7  1  0  0  0  0
  4  6  1  0  0  0  0
  4  8  1  0  0  0  0
  5  7  1  0  0  0  0
  5  8  1  0  0  0  0
  6  9  1  0  0  0  0
  7  9  1  0  0  0  0
  8 12  1  0  0  0  0
  8 13  1  0  0  0  0
  2 14  1  0  0  0  0
  2 15  1  0  0  0  0
  3 16  1  0  0  0  0
  3 17  1  0  0  0  0
  4 18  1  0  0  0  0
  4 19  1  0  0  0  0
  5 20  1  0  0  0  0
  5 21  1  0  0  0  0
  6 22  1  0  0  0  0
  7 23  1  0  0  0  0
 10 24  1  0  0  0  0
 10 25  1  0  0  0  0
M  END
> <id>
EN300-7536357

> <smiles>
NC(=O)N1C2CCC1CC(F)(F)C2

> <MDLNUMBER>
MFCD32648492

> <IUPAC Name>
3,3-difluoro-8-azabicyclo[3.2.1]octane-8-carboxamide

> <CAS>
2649058-57-9

> <Purity>
95

> <URL>
https://www.enaminestore.com/catalog/EN300-7536357

> <ROCS_ShapeQuery>
x1247relevant_x1083L0AP1_x1305L0BP1_

> <ROCS_TanimotoCombo>
0.790 

> <ROCS_ShapeTanimoto>
0.465 

> <ROCS_ColorTanimoto>
0.325 

> <ROCS_RefTversky>
0.394 

> <ROCS_RefColorTversky>
0.344 

> <ROCS_RefTverskyCombo>
0.739 

> <ROCS_FitTversky>
1.629 

> <ROCS_FitColorTversky>
0.853 

> <ROCS_FitTverskyCombo>
2.481 

> <ROCS_ColorScore>
-7.282

> <ROCS_Overlap>
1159.917

> <ROCS_Rank>
451                 

$$$$
untitled-dbase-16540_31
  -OEChem-06162310163D

 37 40  0     1  0  0  0  0  0999 V2000
  -13.9941   17.0518  -40.8870 C   0  0  0  0  0  0  0  0  0  0  0  0
  -10.4470   14.3506  -35.5392 C   0  0  0  0  0  0  0  0  0  0  0  0
  -15.5046   14.6862  -38.8774 C   0  0  0  0  0  0  0  0  0  0  0  0
  -15.2191   15.1931  -37.4995 C   0  0  0  0  0  0  0  0  0  0  0  0
  -14.0464   17.5025  -39.4223 C   0  0  0  0  0  0  0  0  0  0  0  0
  -12.8334   16.1224  -40.5209 C   0  0  0  0  0  0  0  0  0  0  0  0
  -11.4544   15.3194  -36.1502 C   0  0  0  0  0  0  0  0  0  0  0  0
  -13.1741   13.7850  -38.1867 C   0  0  0  0  0  0  0  0  0  0  0  0
   -9.1243   14.3496  -36.2978 C   0  0  0  0  0  0  0  0  0  0  0  0
   -9.9009   15.6805  -38.1016 C   0  0  0  0  0  0  0  0  0  0  0  0
  -14.0728   14.9782  -38.4755 C   0  0  0  0  0  0  0  0  0  0  0  0
  -13.2757   16.1972  -39.0100 C   0  0  0  0  0  0  0  0  0  0  0  0
  -11.3615   15.3732  -37.6852 C   0  0  1  0  0  0  0  0  0  0  0  0
  -11.7538   14.1049  -38.3251 N   0  0  0  0  0  0  0  0  0  0  0  0
   -8.9650   15.5637  -37.0242 O   0  0  0  0  0  0  0  0  0  0  0  0
  -12.1573   16.4954  -38.1218 O   0  0  0  0  0  0  0  0  0  0  0  0
  -14.8984   16.5604  -41.2666 H   0  0  0  0  0  0  0  0  0  0  0  0
  -13.7164   17.8541  -41.5863 H   0  0  0  0  0  0  0  0  0  0  0  0
  -10.2620   14.6374  -34.4898 H   0  0  0  0  0  0  0  0  0  0  0  0
  -10.8667   13.3316  -35.5158 H   0  0  0  0  0  0  0  0  0  0  0  0
  -15.8165   13.6514  -38.9808 H   0  0  0  0  0  0  0  0  0  0  0  0
  -16.0019   15.3549  -39.5718 H   0  0  0  0  0  0  0  0  0  0  0  0
  -15.5188   16.2038  -37.2568 H   0  0  0  0  0  0  0  0  0  0  0  0
  -15.3297   14.4997  -36.6744 H   0  0  0  0  0  0  0  0  0  0  0  0
  -13.5474   18.4612  -39.2334 H   0  0  0  0  0  0  0  0  0  0  0  0
  -15.0678   17.5756  -39.0162 H   0  0  0  0  0  0  0  0  0  0  0  0
  -12.9048   15.1325  -40.9957 H   0  0  0  0  0  0  0  0  0  0  0  0
  -11.8343   16.5247  -40.7431 H   0  0  0  0  0  0  0  0  0  0  0  0
  -12.4675   15.0037  -35.8466 H   0  0  0  0  0  0  0  0  0  0  0  0
  -11.3007   16.3101  -35.6999 H   0  0  0  0  0  0  0  0  0  0  0  0
  -13.3999   13.3802  -37.1793 H   0  0  0  0  0  0  0  0  0  0  0  0
  -13.4065   12.9532  -38.8817 H   0  0  0  0  0  0  0  0  0  0  0  0
   -8.2924   14.2677  -35.5923 H   0  0  0  0  0  0  0  0  0  0  0  0
   -9.0614   13.4997  -36.9857 H   0  0  0  0  0  0  0  0  0  0  0  0
   -9.5658   15.0282  -38.9294 H   0  0  0  0  0  0  0  0  0  0  0  0
   -9.8227   16.7195  -38.4673 H   0  0  0  0  0  0  0  0  0  0  0  0
  -11.1920   13.3371  -37.9444 H   0  0  0  0  0  0  0  0  0  0  0  0
  1  5  1  0  0  0  0
  1  6  1  0  0  0  0
  2  7  1  0  0  0  0
  2  9  1  0  0  0  0
  3  4  1  0  0  0  0
  3 11  1  0  0  0  0
  4 11  1  0  0  0  0
  5 12  1  0  0  0  0
  6 12  1  0  0  0  0
  7 13  1  0  0  0  0
  8 11  1  0  0  0  0
  8 14  1  0  0  0  0
  9 15  1  0  0  0  0
 10 13  1  0  0  0  0
 10 15  1  0  0  0  0
 11 12  1  0  0  0  0
 12 16  1  0  0  0  0
 13 14  1  0  0  0  0
 13 16  1  0  0  0  0
  1 17  1  0  0  0  0
  1 18  1  0  0  0  0
  2 19  1  0  0  0  0
  2 20  1  0  0  0  0
  3 21  1  0  0  0  0
  3 22  1  0  0  0  0
  4 23  1  0  0  0  0
  4 24  1  0  0  0  0
  5 25  1  0  0  0  0
  5 26  1  0  0  0  0
  6 27  1  0  0  0  0
  6 28  1  0  0  0  0
  7 29  1  0  0  0  0
  7 30  1  0  0  0  0
  8 31  1  0  0  0  0
  8 32  1  0  0  0  0
  9 33  1  0  0  0  0
  9 34  1  0  0  0  0
 10 35  1  0  0  0  0
 10 36  1  0  0  0  0
 14 37  1  0  0  0  0
M  END
> <id>
EN300-1280529

> <smiles>
C1CC12CNC3(CCCOC3)OC42CCC4

> <IUPAC Name>
8,11-dioxa-15-azatrispiro[2.0.3^{4}.1.5^{9}.2^{3}]hexadecane

> <URL>
https://www.enaminestore.com/catalog/EN300-1280529

> <ROCS_ShapeQuery>
x1247relevant_x1083L0AP1_x1305L0BP1_

> <ROCS_TanimotoCombo>
0.790 

> <ROCS_ShapeTanimoto>
0.482 

> <ROCS_ColorTanimoto>
0.308 

> <ROCS_RefTversky>
0.417 

> <ROCS_RefColorTversky>
0.322 

> <ROCS_RefTverskyCombo>
0.739 

> <ROCS_FitTversky>
1.474 

> <ROCS_FitColorTversky>
0.878 

> <ROCS_FitTverskyCombo>
2.352 

> <ROCS_ColorScore>
-6.801

> <ROCS_Overlap>
1229.588

> <ROCS_Rank>
452                 

$$$$
untitled-dbase-32190_0
  -OEChem-06162310163D

 28 30  0     1  0  0  0  0  0999 V2000
  -11.0955   15.4602  -39.8302 C   0  0  0  0  0  0  0  0  0  0  0  0
  -14.2599   15.3832  -37.2214 C   0  0  0  0  0  0  0  0  0  0  0  0
  -10.7368   16.2315  -38.5383 C   0  0  0  0  0  0  0  0  0  0  0  0
  -14.1572   14.0308  -37.9708 C   0  0  0  0  0  0  0  0  0  0  0  0
  -13.3477   16.2582  -39.3152 C   0  0  0  0  0  0  0  0  0  0  0  0
  -12.5621   14.9922  -39.7244 C   0  0  2  0  0  0  0  0  0  0  0  0
  -13.1781   16.3350  -37.7821 C   0  0  2  0  0  0  0  0  0  0  0  0
  -11.7218   15.8071  -37.4189 C   0  0  1  0  0  0  0  0  0  0  0  0
  -12.7343   13.9107  -38.5745 C   0  0  1  0  0  0  0  0  0  0  0  0
  -11.7835   14.2539  -37.3968 C   0  0  0  0  0  0  0  0  0  0  0  0
  -10.4965   13.5638  -37.4052 N   0  0  0  0  0  0  0  0  0  0  0  0
  -10.9654   16.1262  -40.6922 H   0  0  0  0  0  0  0  0  0  0  0  0
  -10.4289   14.6108  -40.0052 H   0  0  0  0  0  0  0  0  0  0  0  0
  -15.2631   15.8033  -37.3595 H   0  0  0  0  0  0  0  0  0  0  0  0
  -14.1213   15.2440  -36.1429 H   0  0  0  0  0  0  0  0  0  0  0  0
   -9.6967   16.0313  -38.2579 H   0  0  0  0  0  0  0  0  0  0  0  0
  -10.8075   17.3133  -38.7053 H   0  0  0  0  0  0  0  0  0  0  0  0
  -14.3610   13.2080  -37.2757 H   0  0  0  0  0  0  0  0  0  0  0  0
  -14.9111   13.9698  -38.7646 H   0  0  0  0  0  0  0  0  0  0  0  0
  -12.9594   17.1583  -39.8069 H   0  0  0  0  0  0  0  0  0  0  0  0
  -14.4026   16.1872  -39.6070 H   0  0  0  0  0  0  0  0  0  0  0  0
  -12.9219   14.6041  -40.6827 H   0  0  0  0  0  0  0  0  0  0  0  0
  -13.3254   17.3576  -37.4206 H   0  0  0  0  0  0  0  0  0  0  0  0
  -11.4024   16.1997  -36.4475 H   0  0  0  0  0  0  0  0  0  0  0  0
  -12.5619   12.9008  -38.9618 H   0  0  0  0  0  0  0  0  0  0  0  0
  -12.2385   13.9409  -36.4483 H   0  0  0  0  0  0  0  0  0  0  0  0
   -9.9789   13.8620  -36.6125 H   0  0  0  0  0  0  0  0  0  0  0  0
  -10.6681   12.5871  -37.3649 H   0  0  0  0  0  0  0  0  0  0  0  0
  1  3  1  0  0  0  0
  1  6  1  0  0  0  0
  2  4  1  0  0  0  0
  2  7  1  0  0  0  0
  3  8  1  0  0  0  0
  4  9  1  0  0  0  0
  5  6  1  0  0  0  0
  5  7  1  0  0  0  0
  6  9  1  0  0  0  0
  7  8  1  0  0  0  0
  8 10  1  0  0  0  0
  9 10  1  0  0  0  0
 10 11  1  0  0  0  0
  1 12  1  0  0  0  0
  1 13  1  0  0  0  0
  2 14  1  0  0  0  0
  2 15  1  0  0  0  0
  3 16  1  0  0  0  0
  3 17  1  0  0  0  0
  4 18  1  0  0  0  0
  4 19  1  0  0  0  0
  5 20  1  0  0  0  0
  5 21  1  0  0  0  0
  6 22  1  0  0  0  0
  7 23  1  0  0  0  0
  8 24  1  0  0  0  0
  9 25  1  0  0  0  0
 10 26  1  0  0  0  0
 11 27  1  0  0  0  0
 11 28  1  0  0  0  0
M  END
> <id>
EN300-26872449

> <smiles>
Cl.NC1C2CCC3CC2CCC13

> <MDLNUMBER>
MFCD32692585

> <IUPAC Name>
tricyclo[4.4.0.0,3,8]decan-2-amine hydrochloride

> <CAS>
2445794-73-8

> <Purity>
95

> <URL>
https://www.enaminestore.com/catalog/EN300-26872449

> <Saltdate>
Cl

> <ROCS_ShapeQuery>
x1247relevant_x1083L0AP1_x1305L0BP1_

> <ROCS_TanimotoCombo>
0.790 

> <ROCS_ShapeTanimoto>
0.408 

> <ROCS_ColorTanimoto>
0.382 

> <ROCS_RefTversky>
0.351 

> <ROCS_RefColorTversky>
0.459 

> <ROCS_RefTverskyCombo>
0.810 

> <ROCS_FitTversky>
1.667 

> <ROCS_FitColorTversky>
0.694 

> <ROCS_FitTverskyCombo>
2.361 

> <ROCS_ColorScore>
-9.836

> <ROCS_Overlap>
1030.716

> <ROCS_Rank>
453                 

$$$$
untitled-dbase-38394_0
  -OEChem-06162310163D

 28 30  0     1  0  0  0  0  0999 V2000
  -11.0955   15.4602  -39.8302 C   0  0  0  0  0  0  0  0  0  0  0  0
  -14.2599   15.3832  -37.2214 C   0  0  0  0  0  0  0  0  0  0  0  0
  -10.7368   16.2315  -38.5383 C   0  0  0  0  0  0  0  0  0  0  0  0
  -14.1572   14.0308  -37.9708 C   0  0  0  0  0  0  0  0  0  0  0  0
  -13.3477   16.2582  -39.3152 C   0  0  0  0  0  0  0  0  0  0  0  0
  -12.5621   14.9922  -39.7244 C   0  0  2  0  0  0  0  0  0  0  0  0
  -13.1781   16.3350  -37.7821 C   0  0  2  0  0  0  0  0  0  0  0  0
  -11.7218   15.8071  -37.4189 C   0  0  1  0  0  0  0  0  0  0  0  0
  -12.7343   13.9107  -38.5745 C   0  0  1  0  0  0  0  0  0  0  0  0
  -11.7835   14.2539  -37.3968 C   0  0  0  0  0  0  0  0  0  0  0  0
  -10.4965   13.5638  -37.4052 N   0  0  0  0  0  0  0  0  0  0  0  0
  -10.9654   16.1262  -40.6922 H   0  0  0  0  0  0  0  0  0  0  0  0
  -10.4289   14.6108  -40.0052 H   0  0  0  0  0  0  0  0  0  0  0  0
  -15.2631   15.8033  -37.3595 H   0  0  0  0  0  0  0  0  0  0  0  0
  -14.1213   15.2440  -36.1429 H   0  0  0  0  0  0  0  0  0  0  0  0
   -9.6967   16.0313  -38.2579 H   0  0  0  0  0  0  0  0  0  0  0  0
  -10.8075   17.3133  -38.7053 H   0  0  0  0  0  0  0  0  0  0  0  0
  -14.3610   13.2080  -37.2757 H   0  0  0  0  0  0  0  0  0  0  0  0
  -14.9111   13.9698  -38.7646 H   0  0  0  0  0  0  0  0  0  0  0  0
  -12.9594   17.1583  -39.8069 H   0  0  0  0  0  0  0  0  0  0  0  0
  -14.4026   16.1872  -39.6070 H   0  0  0  0  0  0  0  0  0  0  0  0
  -12.9219   14.6041  -40.6827 H   0  0  0  0  0  0  0  0  0  0  0  0
  -13.3254   17.3576  -37.4206 H   0  0  0  0  0  0  0  0  0  0  0  0
  -11.4024   16.1997  -36.4475 H   0  0  0  0  0  0  0  0  0  0  0  0
  -12.5619   12.9008  -38.9618 H   0  0  0  0  0  0  0  0  0  0  0  0
  -12.2385   13.9409  -36.4483 H   0  0  0  0  0  0  0  0  0  0  0  0
   -9.9789   13.8620  -36.6125 H   0  0  0  0  0  0  0  0  0  0  0  0
  -10.6681   12.5871  -37.3649 H   0  0  0  0  0  0  0  0  0  0  0  0
  1  3  1  0  0  0  0
  1  6  1  0  0  0  0
  2  4  1  0  0  0  0
  2  7  1  0  0  0  0
  3  8  1  0  0  0  0
  4  9  1  0  0  0  0
  5  6  1  0  0  0  0
  5  7  1  0  0  0  0
  6  9  1  0  0  0  0
  7  8  1  0  0  0  0
  8 10  1  0  0  0  0
  9 10  1  0  0  0  0
 10 11  1  0  0  0  0
  1 12  1  0  0  0  0
  1 13  1  0  0  0  0
  2 14  1  0  0  0  0
  2 15  1  0  0  0  0
  3 16  1  0  0  0  0
  3 17  1  0  0  0  0
  4 18  1  0  0  0  0
  4 19  1  0  0  0  0
  5 20  1  0  0  0  0
  5 21  1  0  0  0  0
  6 22  1  0  0  0  0
  7 23  1  0  0  0  0
  8 24  1  0  0  0  0
  9 25  1  0  0  0  0
 10 26  1  0  0  0  0
 11 27  1  0  0  0  0
 11 28  1  0  0  0  0
M  END
> <id>
EN300-26872450

> <smiles>
NC1C2CCC3CC2CCC13

> <MDLNUMBER>
MFCD32692053

> <IUPAC Name>
tricyclo[4.4.0.0,3,8]decan-2-amine

> <CAS>
2445793-43-9

> <URL>
https://www.enaminestore.com/catalog/EN300-26872450

> <ROCS_ShapeQuery>
x1247relevant_x1083L0AP1_x1305L0BP1_

> <ROCS_TanimotoCombo>
0.790 

> <ROCS_ShapeTanimoto>
0.408 

> <ROCS_ColorTanimoto>
0.382 

> <ROCS_RefTversky>
0.351 

> <ROCS_RefColorTversky>
0.459 

> <ROCS_RefTverskyCombo>
0.810 

> <ROCS_FitTversky>
1.667 

> <ROCS_FitColorTversky>
0.694 

> <ROCS_FitTverskyCombo>
2.361 

> <ROCS_ColorScore>
-9.836

> <ROCS_Overlap>
1030.716

> <ROCS_Rank>
454                 

$$$$
untitled-dbase-35038_31
  -OEChem-06162310163D

 36 38  0     1  0  0  0  0  0999 V2000
   -9.0322   14.8281  -37.6038 C   0  0  0  0  0  0  0  0  0  0  0  0
  -14.5238   14.7584  -40.7676 C   0  0  0  0  0  0  0  0  0  0  0  0
  -15.2664   15.2552  -39.5679 C   0  0  0  0  0  0  0  0  0  0  0  0
  -10.1365   15.8563  -37.8550 C   0  0  0  0  0  0  0  0  0  0  0  0
  -11.9189   15.4221  -36.1009 C   0  0  0  0  0  0  0  0  0  0  0  0
   -9.2120   13.8772  -36.4306 C   0  0  0  0  0  0  0  0  0  0  0  0
  -11.2039   14.3826  -35.2481 C   0  0  0  0  0  0  0  0  0  0  0  0
  -12.8876   16.2681  -39.4701 C   0  0  0  0  0  0  0  0  0  0  0  0
  -13.2943   13.9246  -38.5478 C   0  0  1  0  0  0  0  0  0  0  0  0
  -13.7676   15.0391  -39.4808 C   0  0  0  0  0  0  0  0  0  0  0  0
  -11.6033   15.4298  -37.6152 C   0  0  2  0  0  0  0  0  0  0  0  0
  -13.4477   12.5136  -39.1124 C   0  0  0  0  0  0  0  0  0  0  0  0
  -11.8706   14.1197  -38.2350 N   0  0  0  0  0  0  0  0  0  0  0  0
   -9.7879   14.5144  -35.3005 O   0  0  0  0  0  0  0  0  0  0  0  0
  -12.4225   16.5058  -38.1431 O   0  0  0  0  0  0  0  0  0  0  0  0
   -8.8794   14.2360  -38.5324 H   0  0  0  0  0  0  0  0  0  0  0  0
   -8.0801   15.3833  -37.4624 H   0  0  0  0  0  0  0  0  0  0  0  0
  -14.6964   13.7367  -41.0816 H   0  0  0  0  0  0  0  0  0  0  0  0
  -14.3959   15.4420  -41.6007 H   0  0  0  0  0  0  0  0  0  0  0  0
  -15.6395   16.2743  -39.5935 H   0  0  0  0  0  0  0  0  0  0  0  0
  -15.9386   14.5706  -39.0661 H   0  0  0  0  0  0  0  0  0  0  0  0
   -9.9217   16.7508  -37.2491 H   0  0  0  0  0  0  0  0  0  0  0  0
  -10.0336   16.2089  -38.8938 H   0  0  0  0  0  0  0  0  0  0  0  0
  -12.9928   15.3140  -35.9158 H   0  0  0  0  0  0  0  0  0  0  0  0
  -11.6885   16.4198  -35.7025 H   0  0  0  0  0  0  0  0  0  0  0  0
   -9.9178   13.0797  -36.7336 H   0  0  0  0  0  0  0  0  0  0  0  0
   -8.2691   13.3512  -36.1680 H   0  0  0  0  0  0  0  0  0  0  0  0
  -11.5304   14.4450  -34.2197 H   0  0  0  0  0  0  0  0  0  0  0  0
  -11.4342   13.3925  -35.6174 H   0  0  0  0  0  0  0  0  0  0  0  0
  -12.0080   16.1364  -40.1024 H   0  0  0  0  0  0  0  0  0  0  0  0
  -13.4277   17.1372  -39.8459 H   0  0  0  0  0  0  0  0  0  0  0  0
  -13.8953   13.9649  -37.6355 H   0  0  0  0  0  0  0  0  0  0  0  0
  -12.8659   12.4184  -40.0271 H   0  0  0  0  0  0  0  0  0  0  0  0
  -14.4952   12.3177  -39.3325 H   0  0  0  0  0  0  0  0  0  0  0  0
  -13.0926   11.7862  -38.3850 H   0  0  0  0  0  0  0  0  0  0  0  0
  -11.5425   13.3707  -37.6311 H   0  0  0  0  0  0  0  0  0  0  0  0
  1  4  1  0  0  0  0
  1  6  1  0  0  0  0
  2  3  1  0  0  0  0
  2 10  1  0  0  0  0
  3 10  1  0  0  0  0
  4 11  1  0  0  0  0
  5  7  1  0  0  0  0
  5 11  1  0  0  0  0
  6 14  1  0  0  0  0
  7 14  1  0  0  0  0
  8 10  1  0  0  0  0
  8 15  1  0  0  0  0
  9 10  1  0  0  0  0
  9 12  1  0  0  0  0
  9 13  1  0  0  0  0
 11 13  1  0  0  0  0
 11 15  1  0  0  0  0
  1 16  1  0  0  0  0
  1 17  1  0  0  0  0
  2 18  1  0  0  0  0
  2 19  1  0  0  0  0
  3 20  1  0  0  0  0
  3 21  1  0  0  0  0
  4 22  1  0  0  0  0
  4 23  1  0  0  0  0
  5 24  1  0  0  0  0
  5 25  1  0  0  0  0
  6 26  1  0  0  0  0
  6 27  1  0  0  0  0
  7 28  1  0  0  0  0
  7 29  1  0  0  0  0
  8 30  1  0  0  0  0
  8 31  1  0  0  0  0
  9 32  1  0  0  0  0
 12 33  1  0  0  0  0
 12 34  1  0  0  0  0
 12 35  1  0  0  0  0
 13 36  1  0  0  0  0
M  END
> <id>
EN300-1280576

> <smiles>
CC1NC2(CCCOCC2)OCC31CC3

> <IUPAC Name>
14-methyl-5,9-dioxa-13-azadispiro[2.2.6^{6}.2^{3}]tetradecane

> <CAS>
2168499-33-8

> <URL>
https://www.enaminestore.com/catalog/EN300-1280576

> <ROCS_ShapeQuery>
x1247relevant_x1083L0AP1_x1305L0BP1_

> <ROCS_TanimotoCombo>
0.790 

> <ROCS_ShapeTanimoto>
0.472 

> <ROCS_ColorTanimoto>
0.318 

> <ROCS_RefTversky>
0.405 

> <ROCS_RefColorTversky>
0.319 

> <ROCS_RefTverskyCombo>
0.724 

> <ROCS_FitTversky>
1.537 

> <ROCS_FitColorTversky>
0.990 

> <ROCS_FitTverskyCombo>
2.527 

> <ROCS_ColorScore>
-6.727

> <ROCS_Overlap>
1192.072

> <ROCS_Rank>
455                 

$$$$
untitled-dbase-37973_0
  -OEChem-06162310163D

 17 18  0     0  0  0  0  0  0999 V2000
  -10.4518   13.7293  -36.6539 C   0  0  0  0  0  0  0  0  0  0  0  0
   -9.3178   14.4686  -36.3728 C   0  0  0  0  0  0  0  0  0  0  0  0
  -12.6239   13.6862  -37.8042 C   0  0  0  0  0  0  0  0  0  0  0  0
  -11.4384   14.3247  -37.4505 C   0  0  0  0  0  0  0  0  0  0  0  0
  -11.2717   15.6253  -37.9406 C   0  0  0  0  0  0  0  0  0  0  0  0
  -10.0917   16.2600  -37.5883 C   0  0  0  0  0  0  0  0  0  0  0  0
  -13.3072   15.4983  -38.9804 C   0  0  0  0  0  0  0  0  0  0  0  0
   -9.1118   15.7235  -36.8213 N   0  0  0  0  0  0  0  0  0  0  0  0
  -13.5796   14.2483  -38.5692 N   0  0  0  0  0  0  0  0  0  0  0  0
  -12.2026   16.2220  -38.7078 N   0  0  0  0  0  0  0  0  0  0  0  0
  -14.2846   16.1239  -39.7850 N   0  0  0  0  0  0  0  0  0  0  0  0
   -9.8845   17.5106  -38.0353 F   0  0  0  0  0  0  0  0  0  0  0  0
  -10.5631   12.7223  -36.2660 H   0  0  0  0  0  0  0  0  0  0  0  0
   -8.5231   14.0588  -35.7589 H   0  0  0  0  0  0  0  0  0  0  0  0
  -12.8439   12.6753  -37.4737 H   0  0  0  0  0  0  0  0  0  0  0  0
  -14.1439   17.0701  -40.0734 H   0  0  0  0  0  0  0  0  0  0  0  0
  -15.1401   15.6430  -39.9724 H   0  0  0  0  0  0  0  0  0  0  0  0
  1  2  2  0  0  0  0
  1  4  1  0  0  0  0
  2  8  1  0  0  0  0
  3  4  2  0  0  0  0
  3  9  1  0  0  0  0
  4  5  1  0  0  0  0
  5  6  1  0  0  0  0
  5 10  2  0  0  0  0
  6  8  2  0  0  0  0
  6 12  1  0  0  0  0
  7  9  2  0  0  0  0
  7 10  1  0  0  0  0
  7 11  1  0  0  0  0
  1 13  1  0  0  0  0
  2 14  1  0  0  0  0
  3 15  1  0  0  0  0
 11 16  1  0  0  0  0
 11 17  1  0  0  0  0
M  END
> <id>
EN300-1162562

> <smiles>
NC=1N=CC=2C=CN=C(F)C2N1

> <MDLNUMBER>
MFCD31607426

> <IUPAC Name>
8-fluoropyrido[3,4-d]pyrimidin-2-amine

> <CAS>
2138044-53-6

> <URL>
https://www.enaminestore.com/catalog/EN300-1162562

> <ROCS_ShapeQuery>
x1247relevant_x1083L0AP1_x1305L0BP1_

> <ROCS_TanimotoCombo>
0.790 

> <ROCS_ShapeTanimoto>
0.447 

> <ROCS_ColorTanimoto>
0.343 

> <ROCS_RefTversky>
0.381 

> <ROCS_RefColorTversky>
0.349 

> <ROCS_RefTverskyCombo>
0.731 

> <ROCS_FitTversky>
1.630 

> <ROCS_FitColorTversky>
0.948 

> <ROCS_FitTverskyCombo>
2.578 

> <ROCS_ColorScore>
-7.369

> <ROCS_Overlap>
1121.220

> <ROCS_Rank>
456                 

$$$$
untitled-dbase-33350_37
  -OEChem-06162310163D

 38 39  0     1  0  0  0  0  0999 V2000
  -12.0301   15.7966  -40.6312 C   0  0  0  0  0  0  0  0  0  0  0  0
  -14.1151   15.9263  -38.0580 C   0  0  0  0  0  0  0  0  0  0  0  0
  -14.0881   14.4143  -38.3946 C   0  0  0  0  0  0  0  0  0  0  0  0
  -11.8156   15.7609  -37.0758 C   0  0  1  0  0  0  0  0  0  0  0  0
  -12.6441   16.3408  -38.2483 C   0  0  1  0  0  0  0  0  0  0  0  0
  -12.6027   14.1650  -38.7302 C   0  0  2  0  0  0  0  0  0  0  0  0
  -11.7937   14.2243  -37.4110 C   0  0  1  0  0  0  0  0  0  0  0  0
   -9.8041   16.1113  -41.7654 C   0  0  0  0  0  0  0  0  0  0  0  0
   -9.6845   13.6023  -41.7604 C   0  0  0  0  0  0  0  0  0  0  0  0
  -10.7975   14.7975  -43.6685 C   0  0  0  0  0  0  0  0  0  0  0  0
  -10.4509   16.4403  -36.9742 C   0  0  0  0  0  0  0  0  0  0  0  0
  -10.5132   14.8188  -42.1673 C   0  0  0  0  0  0  0  0  0  0  0  0
  -12.2691   15.4467  -39.3223 N   0  0  0  0  0  0  0  0  0  0  0  0
  -10.4630   13.6516  -37.5804 N   0  0  0  0  0  0  0  0  0  0  0  0
  -12.1067   16.9434  -41.0664 O   0  0  0  0  0  0  0  0  0  0  0  0
  -11.7616   14.7457  -41.4650 O   0  0  0  0  0  0  0  0  0  0  0  0
   -9.7419   15.8991  -35.9723 F   0  0  0  0  0  0  0  0  0  0  0  0
   -9.7732   16.2834  -38.1211 F   0  0  0  0  0  0  0  0  0  0  0  0
  -10.6074   17.7514  -36.7373 F   0  0  0  0  0  0  0  0  0  0  0  0
  -14.7637   16.4528  -38.7666 H   0  0  0  0  0  0  0  0  0  0  0  0
  -14.4837   16.1124  -37.0453 H   0  0  0  0  0  0  0  0  0  0  0  0
  -14.4428   13.8038  -37.5591 H   0  0  0  0  0  0  0  0  0  0  0  0
  -14.7232   14.2158  -39.2650 H   0  0  0  0  0  0  0  0  0  0  0  0
  -12.3330   15.9137  -36.1209 H   0  0  0  0  0  0  0  0  0  0  0  0
  -12.4978   17.4069  -38.4509 H   0  0  0  0  0  0  0  0  0  0  0  0
  -12.4244   13.2990  -39.3698 H   0  0  0  0  0  0  0  0  0  0  0  0
  -12.3053   13.6677  -36.6113 H   0  0  0  0  0  0  0  0  0  0  0  0
  -10.3958   16.9868  -42.0558 H   0  0  0  0  0  0  0  0  0  0  0  0
   -9.6257   16.1546  -40.6860 H   0  0  0  0  0  0  0  0  0  0  0  0
   -8.8407   16.2049  -42.2795 H   0  0  0  0  0  0  0  0  0  0  0  0
  -10.1894   12.6727  -42.0468 H   0  0  0  0  0  0  0  0  0  0  0  0
   -9.5581   13.5623  -40.6724 H   0  0  0  0  0  0  0  0  0  0  0  0
   -8.6929   13.6154  -42.2243 H   0  0  0  0  0  0  0  0  0  0  0  0
  -11.3061   13.8705  -43.9571 H   0  0  0  0  0  0  0  0  0  0  0  0
  -11.4223   15.6435  -43.9727 H   0  0  0  0  0  0  0  0  0  0  0  0
   -9.8643   14.8297  -44.2423 H   0  0  0  0  0  0  0  0  0  0  0  0
   -9.9742   13.7408  -36.7210 H   0  0  0  0  0  0  0  0  0  0  0  0
  -10.5655   12.6957  -37.8276 H   0  0  0  0  0  0  0  0  0  0  0  0
  1 13  1  0  0  0  0
  1 15  2  0  0  0  0
  1 16  1  0  0  0  0
  2  3  1  0  0  0  0
  2  5  1  6  0  0  0
  3  6  1  6  0  0  0
  4  5  1  0  0  0  0
  4  7  1  0  0  0  0
  4 11  1  1  0  0  0
  5 13  1  0  0  0  0
  6  7  1  0  0  0  0
  6 13  1  0  0  0  0
  7 14  1  1  0  0  0
  8 12  1  0  0  0  0
  9 12  1  0  0  0  0
 10 12  1  0  0  0  0
 11 17  1  0  0  0  0
 11 18  1  0  0  0  0
 11 19  1  0  0  0  0
 12 16  1  0  0  0  0
  2 20  1  0  0  0  0
  2 21  1  0  0  0  0
  3 22  1  0  0  0  0
  3 23  1  0  0  0  0
  4 24  1  0  0  0  0
  5 25  1  0  0  0  0
  6 26  1  0  0  0  0
  7 27  1  0  0  0  0
  8 28  1  0  0  0  0
  8 29  1  0  0  0  0
  8 30  1  0  0  0  0
  9 31  1  0  0  0  0
  9 32  1  0  0  0  0
  9 33  1  0  0  0  0
 10 34  1  0  0  0  0
 10 35  1  0  0  0  0
 10 36  1  0  0  0  0
 14 37  1  0  0  0  0
 14 38  1  0  0  0  0
M  END
> <id>
EN300-37370439

> <smiles>
CC(C)(C)OC(=O)N1[C@@H]2CC[C@H]1[C@@H]([C@@H]2N)C(F)(F)F |&1:8,11,12,13,r|

> <IUPAC Name>
rac-tert-butyl (1R,2S,3R,4S)-2-amino-3-(trifluoromethyl)-7-azabicyclo[2.2.1]heptane-7-carboxylate

> <Purity>
95

> <URL>
https://www.enaminestore.com/catalog/EN300-37370439

> <ROCS_ShapeQuery>
x1247relevant_x1083L0AP1_x1305L0BP1_

> <ROCS_TanimotoCombo>
0.790 

> <ROCS_ShapeTanimoto>
0.430 

> <ROCS_ColorTanimoto>
0.360 

> <ROCS_RefTversky>
0.400 

> <ROCS_RefColorTversky>
0.401 

> <ROCS_RefTverskyCombo>
0.801 

> <ROCS_FitTversky>
1.211 

> <ROCS_FitColorTversky>
0.780 

> <ROCS_FitTverskyCombo>
1.990 

> <ROCS_ColorScore>
-8.530

> <ROCS_Overlap>
1181.686

> <ROCS_Rank>
457                 

$$$$
untitled-dbase-19539_0
  -OEChem-06162310163D

 26 28  0     1  0  0  0  0  0999 V2000
  -13.6074   14.4792  -37.8173 C   0  0  0  0  0  0  0  0  0  0  0  0
  -12.9345   16.7544  -38.0686 C   0  0  0  0  0  0  0  0  0  0  0  0
  -11.5672   14.3128  -39.0475 C   0  0  0  0  0  0  0  0  0  0  0  0
   -9.1097   15.2426  -37.0811 C   0  0  0  0  0  0  0  0  0  0  0  0
   -9.7489   14.3322  -36.0695 C   0  0  0  0  0  0  0  0  0  0  0  0
  -12.6237   15.4986  -37.2305 C   0  0  2  0  0  0  0  0  0  0  0  0
  -13.0631   14.6485  -39.2360 C   0  0  2  0  0  0  0  0  0  0  0  0
  -13.2582   16.1636  -39.4499 C   0  0  2  0  0  0  0  0  0  0  0  0
  -11.2658   14.8940  -37.6529 C   0  0  0  0  0  0  0  0  0  0  0  0
  -10.2283   15.8744  -37.6996 O   0  0  0  0  0  0  0  0  0  0  0  0
  -10.8953   13.8347  -36.7572 O   0  0  0  0  0  0  0  0  0  0  0  0
  -12.4093   16.6937  -40.4486 O   0  0  0  0  0  0  0  0  0  0  0  0
  -13.4792   13.4665  -37.4213 H   0  0  0  0  0  0  0  0  0  0  0  0
  -14.6551   14.7815  -37.7158 H   0  0  0  0  0  0  0  0  0  0  0  0
  -13.8238   17.2522  -37.6640 H   0  0  0  0  0  0  0  0  0  0  0  0
  -12.1180   17.4821  -38.0843 H   0  0  0  0  0  0  0  0  0  0  0  0
  -11.4310   13.2248  -39.0579 H   0  0  0  0  0  0  0  0  0  0  0  0
  -10.9422   14.7440  -39.8352 H   0  0  0  0  0  0  0  0  0  0  0  0
   -8.4413   15.9843  -36.6373 H   0  0  0  0  0  0  0  0  0  0  0  0
   -8.5689   14.6781  -37.8484 H   0  0  0  0  0  0  0  0  0  0  0  0
   -9.1008   13.5120  -35.7516 H   0  0  0  0  0  0  0  0  0  0  0  0
  -10.0940   14.8858  -35.1895 H   0  0  0  0  0  0  0  0  0  0  0  0
  -12.7221   15.6556  -36.1538 H   0  0  0  0  0  0  0  0  0  0  0  0
  -13.5400   14.0381  -40.0058 H   0  0  0  0  0  0  0  0  0  0  0  0
  -14.2959   16.3922  -39.7195 H   0  0  0  0  0  0  0  0  0  0  0  0
  -12.5484   17.6566  -40.4628 H   0  0  0  0  0  0  0  0  0  0  0  0
  1  6  1  0  0  0  0
  1  7  1  0  0  0  0
  2  6  1  1  0  0  0
  2  8  1  0  0  0  0
  3  7  1  1  0  0  0
  3  9  1  0  0  0  0
  4  5  1  0  0  0  0
  4 10  1  0  0  0  0
  5 11  1  0  0  0  0
  6  9  1  0  0  0  0
  7  8  1  0  0  0  0
  8 12  1  1  0  0  0
  9 10  1  0  0  0  0
  9 11  1  0  0  0  0
  1 13  1  0  0  0  0
  1 14  1  0  0  0  0
  2 15  1  0  0  0  0
  2 16  1  0  0  0  0
  3 17  1  0  0  0  0
  3 18  1  0  0  0  0
  4 19  1  0  0  0  0
  4 20  1  0  0  0  0
  5 21  1  0  0  0  0
  5 22  1  0  0  0  0
  6 23  1  0  0  0  0
  7 24  1  0  0  0  0
  8 25  1  0  0  0  0
 12 26  1  0  0  0  0
M  END
> <id>
EN300-1723259

> <smiles>
O[C@@H]1C[C@H]2C[C@@H]1CC32OCCO3 |&1:1,3,5,r|

> <MDLNUMBER>
MFCD31689938

> <IUPAC Name>
rac-(1R,4R,5R)-spiro[bicyclo[2.2.1]heptane-2,2'-[1,3]dioxolane]-5-ol

> <CAS>
86116-71-4

> <Purity>
95

> <URL>
https://www.enaminestore.com/catalog/EN300-1723259

> <ROCS_ShapeQuery>
x1247relevant_x1083L0AP1_x1305L0BP1_

> <ROCS_TanimotoCombo>
0.790 

> <ROCS_ShapeTanimoto>
0.484 

> <ROCS_ColorTanimoto>
0.306 

> <ROCS_RefTversky>
0.402 

> <ROCS_RefColorTversky>
0.364 

> <ROCS_RefTverskyCombo>
0.766 

> <ROCS_FitTversky>
1.738 

> <ROCS_FitColorTversky>
0.656 

> <ROCS_FitTverskyCombo>
2.394 

> <ROCS_ColorScore>
-7.766

> <ROCS_Overlap>
1179.967

> <ROCS_Rank>
458                 

$$$$
untitled-dbase-21087_1
  -OEChem-06162310163D

 32 33  0     1  0  0  0  0  0999 V2000
   -9.7024   14.8155  -37.0377 C   0  0  0  0  0  0  0  0  0  0  0  0
  -13.8337   15.1990  -37.2614 C   0  0  0  0  0  0  0  0  0  0  0  0
  -13.4361   16.5628  -37.8422 C   0  0  0  0  0  0  0  0  0  0  0  0
  -11.8229   13.8001  -37.7916 C   0  0  0  0  0  0  0  0  0  0  0  0
  -11.1403   16.0452  -38.7288 C   0  0  0  0  0  0  0  0  0  0  0  0
  -13.2479   14.1591  -38.2380 C   0  0  2  0  0  0  0  0  0  0  0  0
  -12.6300   16.2380  -39.1279 C   0  0  1  0  0  0  0  0  0  0  0  0
  -13.2552   14.8920  -39.6020 C   0  0  0  0  0  0  0  0  0  0  0  0
  -12.7273   17.3792  -40.1437 C   0  0  0  0  0  0  0  0  0  0  0  0
  -12.4637   14.1650  -40.7049 C   0  0  0  0  0  0  0  0  0  0  0  0
  -14.7026   15.0341  -40.1354 C   0  0  0  0  0  0  0  0  0  0  0  0
  -10.8966   14.9403  -37.7828 N   0  0  0  0  0  0  0  0  0  0  0  0
   -8.8763   15.7295  -36.9825 O   0  0  0  0  0  0  0  0  0  0  0  0
   -9.4517   13.3045  -36.1796 Cl  0  0  0  0  0  0  0  0  0  0  0  0
  -13.4673   15.0723  -36.2369 H   0  0  0  0  0  0  0  0  0  0  0  0
  -14.9258   15.1155  -37.2212 H   0  0  0  0  0  0  0  0  0  0  0  0
  -14.3383   17.1449  -38.0652 H   0  0  0  0  0  0  0  0  0  0  0  0
  -12.8547   17.1475  -37.1204 H   0  0  0  0  0  0  0  0  0  0  0  0
  -11.8499   13.3602  -36.7873 H   0  0  0  0  0  0  0  0  0  0  0  0
  -11.3893   13.0342  -38.4448 H   0  0  0  0  0  0  0  0  0  0  0  0
  -10.5169   15.8556  -39.6106 H   0  0  0  0  0  0  0  0  0  0  0  0
  -10.7693   16.9751  -38.2831 H   0  0  0  0  0  0  0  0  0  0  0  0
  -13.8603   13.2506  -38.2524 H   0  0  0  0  0  0  0  0  0  0  0  0
  -12.1549   17.1265  -41.0333 H   0  0  0  0  0  0  0  0  0  0  0  0
  -12.3288   18.2920  -39.7071 H   0  0  0  0  0  0  0  0  0  0  0  0
  -13.7679   17.5363  -40.4183 H   0  0  0  0  0  0  0  0  0  0  0  0
  -12.5189   14.7411  -41.6221 H   0  0  0  0  0  0  0  0  0  0  0  0
  -12.8938   13.1820  -40.8631 H   0  0  0  0  0  0  0  0  0  0  0  0
  -11.4289   14.0669  -40.3953 H   0  0  0  0  0  0  0  0  0  0  0  0
  -14.6733   15.5485  -41.0864 H   0  0  0  0  0  0  0  0  0  0  0  0
  -15.2817   15.6030  -39.4208 H   0  0  0  0  0  0  0  0  0  0  0  0
  -15.1261   14.0464  -40.2578 H   0  0  0  0  0  0  0  0  0  0  0  0
  1 12  1  0  0  0  0
  1 13  2  0  0  0  0
  1 14  1  0  0  0  0
  2  3  1  0  0  0  0
  2  6  1  6  0  0  0
  3  7  1  0  0  0  0
  4  6  1  0  0  0  0
  4 12  1  0  0  0  0
  5  7  1  0  0  0  0
  5 12  1  0  0  0  0
  6  8  1  0  0  0  0
  7  8  1  0  0  0  0
  7  9  1  1  0  0  0
  8 10  1  0  0  0  0
  8 11  1  0  0  0  0
  2 15  1  0  0  0  0
  2 16  1  0  0  0  0
  3 17  1  0  0  0  0
  3 18  1  0  0  0  0
  4 19  1  0  0  0  0
  4 20  1  0  0  0  0
  5 21  1  0  0  0  0
  5 22  1  0  0  0  0
  6 23  1  0  0  0  0
  9 24  1  0  0  0  0
  9 25  1  0  0  0  0
  9 26  1  0  0  0  0
 10 27  1  0  0  0  0
 10 28  1  0  0  0  0
 10 29  1  0  0  0  0
 11 30  1  0  0  0  0
 11 31  1  0  0  0  0
 11 32  1  0  0  0  0
M  END
> <id>
EN300-1717488

> <smiles>
CC1(C)[C@@H]2CC[C@@]1(C)CN(C2)C(=O)Cl

> <MDLNUMBER>
MFCD31666540

> <IUPAC Name>
(1R,5S)-1,8,8-trimethyl-3-azabicyclo[3.2.1]octane-3-carbonyl chloride

> <CAS>
2227795-14-2

> <Purity>
95

> <URL>
https://www.enaminestore.com/catalog/EN300-1717488

> <ROCS_ShapeQuery>
x1247relevant_x1083L0AP1_x1305L0BP1_

> <ROCS_TanimotoCombo>
0.790 

> <ROCS_ShapeTanimoto>
0.505 

> <ROCS_ColorTanimoto>
0.285 

> <ROCS_RefTversky>
0.418 

> <ROCS_RefColorTversky>
0.311 

> <ROCS_RefTverskyCombo>
0.729 

> <ROCS_FitTversky>
1.701 

> <ROCS_FitColorTversky>
0.773 

> <ROCS_FitTverskyCombo>
2.475 

> <ROCS_ColorScore>
-6.568

> <ROCS_Overlap>
1229.827

> <ROCS_Rank>
459                 

$$$$
untitled-dbase-37016_2
  -OEChem-06162310163D

 27 29  0     1  0  0  0  0  0999 V2000
  -13.2021   14.0055  -39.1405 C   0  0  0  0  0  0  0  0  0  0  0  0
  -12.4224   15.0876  -39.8972 C   0  0  0  0  0  0  0  0  0  0  0  0
  -13.6971   16.1316  -38.2055 C   0  0  0  0  0  0  0  0  0  0  0  0
   -9.3847   14.6023  -37.1742 C   0  0  0  0  0  0  0  0  0  0  0  0
  -10.0525   15.6732  -38.0279 C   0  0  0  0  0  0  0  0  0  0  0  0
  -11.4438   13.5218  -36.6226 C   0  0  0  0  0  0  0  0  0  0  0  0
  -13.4742   14.6775  -37.7842 C   0  0  2  0  0  0  0  0  0  0  0  0
  -12.3222   16.2297  -38.8642 C   0  0  1  0  0  0  0  0  0  0  0  0
  -12.1749   14.8276  -36.9633 C   0  0  2  0  0  0  0  0  0  0  0  0
  -10.1500   13.3656  -37.2805 N   0  0  0  0  0  0  0  0  0  0  0  0
  -11.4591   15.8765  -37.7168 N   0  0  1  0  0  0  0  0  0  0  0  0
  -14.1458   13.7966  -39.6588 H   0  0  0  0  0  0  0  0  0  0  0  0
  -12.6566   13.0622  -39.0691 H   0  0  0  0  0  0  0  0  0  0  0  0
  -11.4577   14.7286  -40.2614 H   0  0  0  0  0  0  0  0  0  0  0  0
  -12.9972   15.4162  -40.7710 H   0  0  0  0  0  0  0  0  0  0  0  0
  -14.5286   16.2585  -38.9084 H   0  0  0  0  0  0  0  0  0  0  0  0
  -13.8342   16.8171  -37.3603 H   0  0  0  0  0  0  0  0  0  0  0  0
   -8.3777   14.4379  -37.5158 H   0  0  0  0  0  0  0  0  0  0  0  0
   -9.3645   14.9097  -36.1423 H   0  0  0  0  0  0  0  0  0  0  0  0
   -9.5109   16.6389  -37.8911 H   0  0  0  0  0  0  0  0  0  0  0  0
   -9.8927   15.4165  -39.1024 H   0  0  0  0  0  0  0  0  0  0  0  0
  -11.2980   13.4604  -35.5261 H   0  0  0  0  0  0  0  0  0  0  0  0
  -12.0597   12.6376  -36.8785 H   0  0  0  0  0  0  0  0  0  0  0  0
  -14.2958   14.2233  -37.2242 H   0  0  0  0  0  0  0  0  0  0  0  0
  -12.0876   17.2021  -39.2984 H   0  0  0  0  0  0  0  0  0  0  0  0
  -12.4826   15.2949  -35.9894 H   0  0  0  0  0  0  0  0  0  0  0  0
  -10.2854   13.1118  -38.2457 H   0  0  0  0  0  0  0  0  0  0  0  0
  1  2  1  0  0  0  0
  1  7  1  1  0  0  0
  2  8  1  1  0  0  0
  3  7  1  0  0  0  0
  3  8  1  0  0  0  0
  4  5  1  0  0  0  0
  4 10  1  0  0  0  0
  5 11  1  0  0  0  0
  6  9  1  1  0  0  0
  6 10  1  0  0  0  0
  7  9  1  0  0  0  0
  8 11  1  0  0  0  0
  9 11  1  0  0  0  0
  1 12  1  0  0  0  0
  1 13  1  0  0  0  0
  2 14  1  0  0  0  0
  2 15  1  0  0  0  0
  3 16  1  0  0  0  0
  3 17  1  0  0  0  0
  4 18  1  0  0  0  0
  4 19  1  0  0  0  0
  5 20  1  0  0  0  0
  5 21  1  0  0  0  0
  6 22  1  0  0  0  0
  6 23  1  0  0  0  0
  7 24  1  0  0  0  0
  8 25  1  0  0  0  0
  9 26  1  0  0  0  0
 10 27  1  0  0  0  0
M  END
> <id>
EN300-658785

> <smiles>
Cl.Cl.C1C[C@H]2C[C@@H]1[C@H]3CNCCN23

> <MDLNUMBER>
MFCD31381212

> <IUPAC Name>
(1S,7S,8R)-2,5-diazatricyclo[6.2.1.0,2,7]undecane dihydrochloride

> <CAS>
2126144-06-5

> <Purity>
95

> <URL>
https://www.enaminestore.com/catalog/EN300-658785

> <Saltdate>
Cl

> <ROCS_ShapeQuery>
x1247relevant_x1083L0AP1_x1305L0BP1_

> <ROCS_TanimotoCombo>
0.790 

> <ROCS_ShapeTanimoto>
0.439 

> <ROCS_ColorTanimoto>
0.351 

> <ROCS_RefTversky>
0.370 

> <ROCS_RefColorTversky>
0.393 

> <ROCS_RefTverskyCombo>
0.763 

> <ROCS_FitTversky>
1.735 

> <ROCS_FitColorTversky>
0.765 

> <ROCS_FitTverskyCombo>
2.500 

> <ROCS_ColorScore>
-8.360

> <ROCS_Overlap>
1086.930

> <ROCS_Rank>
460                 

$$$$
untitled-dbase-50181_26
  -OEChem-06162310163D

 37 39  0     1  0  0  0  0  0999 V2000
  -11.5300   15.4495  -37.1515 C   0  0  0  0  0  0  0  0  0  0  0  0
  -11.2091   14.2745  -37.8015 C   0  0  0  0  0  0  0  0  0  0  0  0
  -10.6529   15.4951  -36.0585 C   0  0  0  0  0  0  0  0  0  0  0  0
  -12.0381   17.0539  -40.0075 C   0  0  0  0  0  0  0  0  0  0  0  0
  -11.8623   13.7915  -39.0573 C   0  0  0  0  0  0  0  0  0  0  0  0
  -13.9962   15.7109  -37.3427 C   0  0  0  0  0  0  0  0  0  0  0  0
  -14.2136   14.6255  -38.4294 C   0  0  0  0  0  0  0  0  0  0  0  0
  -12.6300   16.3265  -37.6655 C   0  0  2  0  0  0  0  0  0  0  0  0
  -13.0317   14.7734  -39.4114 C   0  0  1  0  0  0  0  0  0  0  0  0
   -9.8693   18.1311  -41.5251 C   0  0  0  0  0  0  0  0  0  0  0  0
   -8.7538   18.5196  -39.3083 C   0  0  0  0  0  0  0  0  0  0  0  0
   -9.3105   16.1809  -40.0354 C   0  0  0  0  0  0  0  0  0  0  0  0
   -9.7397   17.6467  -40.0817 C   0  0  0  0  0  0  0  0  0  0  0  0
   -9.8351   14.4339  -36.0174 N   0  0  0  0  0  0  0  0  0  0  0  0
  -10.1983   13.7066  -37.0953 N   0  0  0  0  0  0  0  0  0  0  0  0
  -12.5840   16.1461  -39.1211 N   0  0  0  0  0  0  0  0  0  0  0  0
  -12.4229   17.2067  -41.1643 O   0  0  0  0  0  0  0  0  0  0  0  0
  -11.0159   17.7684  -39.4440 O   0  0  0  0  0  0  0  0  0  0  0  0
  -10.5883   16.9873  -34.6338 I   0  0  0  0  0  0  0  0  0  0  0  0
  -11.1255   13.7966  -39.8691 H   0  0  0  0  0  0  0  0  0  0  0  0
  -12.2360   12.7693  -38.9369 H   0  0  0  0  0  0  0  0  0  0  0  0
  -14.7823   16.4703  -37.4339 H   0  0  0  0  0  0  0  0  0  0  0  0
  -14.0526   15.2838  -36.3358 H   0  0  0  0  0  0  0  0  0  0  0  0
  -14.2718   13.6252  -37.9880 H   0  0  0  0  0  0  0  0  0  0  0  0
  -15.1625   14.8197  -38.9427 H   0  0  0  0  0  0  0  0  0  0  0  0
  -12.5242   17.3738  -37.3740 H   0  0  0  0  0  0  0  0  0  0  0  0
  -13.3419   14.6428  -40.4522 H   0  0  0  0  0  0  0  0  0  0  0  0
  -10.5762   17.5071  -42.0836 H   0  0  0  0  0  0  0  0  0  0  0  0
  -10.2102   19.1705  -41.5726 H   0  0  0  0  0  0  0  0  0  0  0  0
   -8.9100   18.0571  -42.0500 H   0  0  0  0  0  0  0  0  0  0  0  0
   -8.6577   18.1756  -38.2721 H   0  0  0  0  0  0  0  0  0  0  0  0
   -9.1065   19.5561  -39.2580 H   0  0  0  0  0  0  0  0  0  0  0  0
   -7.7608   18.5132  -39.7692 H   0  0  0  0  0  0  0  0  0  0  0  0
   -9.2175   15.8332  -39.0002 H   0  0  0  0  0  0  0  0  0  0  0  0
  -10.0260   15.5346  -40.5540 H   0  0  0  0  0  0  0  0  0  0  0  0
   -8.3247   16.0488  -40.4957 H   0  0  0  0  0  0  0  0  0  0  0  0
   -9.7067   12.8409  -37.2811 H   0  0  0  0  0  0  0  0  0  0  0  0
  1  2  2  0  0  0  0
  1  3  1  0  0  0  0
  1  8  1  0  0  0  0
  2  5  1  0  0  0  0
  2 15  1  0  0  0  0
  3 14  2  0  0  0  0
  3 19  1  0  0  0  0
  4 16  1  0  0  0  0
  4 17  2  0  0  0  0
  4 18  1  0  0  0  0
  5  9  1  0  0  0  0
  6  7  1  0  0  0  0
  6  8  1  0  0  0  0
  7  9  1  0  0  0  0
  8 16  1  0  0  0  0
  9 16  1  0  0  0  0
 10 13  1  0  0  0  0
 11 13  1  0  0  0  0
 12 13  1  0  0  0  0
 13 18  1  0  0  0  0
 14 15  1  0  0  0  0
  5 20  1  0  0  0  0
  5 21  1  0  0  0  0
  6 22  1  0  0  0  0
  6 23  1  0  0  0  0
  7 24  1  0  0  0  0
  7 25  1  0  0  0  0
  8 26  1  0  0  0  0
  9 27  1  0  0  0  0
 10 28  1  0  0  0  0
 10 29  1  0  0  0  0
 10 30  1  0  0  0  0
 11 31  1  0  0  0  0
 11 32  1  0  0  0  0
 11 33  1  0  0  0  0
 12 34  1  0  0  0  0
 12 35  1  0  0  0  0
 12 36  1  0  0  0  0
 15 37  1  0  0  0  0
M  END
> <id>
EN300-37332122

> <smiles>
CC(C)(C)OC(=O)N1C2CCC1C=3C(I)=NNC3C2

> <IUPAC Name>
tert-butyl 3-iodo-4,5,11-triazatricyclo[6.2.1.0,2,6]undeca-2(6),3-diene-11-carboxylate

> <CAS>
2763760-11-6

> <Purity>
95

> <URL>
https://www.enaminestore.com/catalog/EN300-37332122

> <ROCS_ShapeQuery>
x1247relevant_x1083L0AP1_x1305L0BP1_

> <ROCS_TanimotoCombo>
0.790 

> <ROCS_ShapeTanimoto>
0.457 

> <ROCS_ColorTanimoto>
0.333 

> <ROCS_RefTversky>
0.417 

> <ROCS_RefColorTversky>
0.394 

> <ROCS_RefTverskyCombo>
0.811 

> <ROCS_FitTversky>
1.268 

> <ROCS_FitColorTversky>
0.681 

> <ROCS_FitTverskyCombo>
1.949 

> <ROCS_ColorScore>
-8.413

> <ROCS_Overlap>
1231.151

> <ROCS_Rank>
461                 

$$$$
untitled-dbase-51132_92
  -OEChem-06162310163D

 37 38  0     1  0  0  0  0  0999 V2000
  -10.0031   15.4222  -36.7466 C   0  0  0  0  0  0  0  0  0  0  0  0
  -12.4896   13.9473  -38.9616 C   0  0  0  0  0  0  0  0  0  0  0  0
  -14.1683   15.4651  -37.8229 C   0  0  0  0  0  0  0  0  0  0  0  0
  -12.0929   16.4394  -39.0506 C   0  0  0  0  0  0  0  0  0  0  0  0
  -12.2638   14.2970  -36.6311 C   0  0  0  0  0  0  0  0  0  0  0  0
  -13.3477   14.1608  -37.7106 C   0  0  2  0  0  0  0  0  0  0  0  0
  -11.4648   15.0630  -38.7629 C   0  0  1  0  0  0  0  0  0  0  0  0
  -13.6151   16.4857  -38.8350 C   0  0  1  0  0  0  0  0  0  0  0  0
   -7.5805   15.0445  -35.2778 C   0  0  0  0  0  0  0  0  0  0  0  0
   -9.0545   14.2335  -33.4127 C   0  0  0  0  0  0  0  0  0  0  0  0
   -9.0063   12.9952  -35.5973 C   0  0  0  0  0  0  0  0  0  0  0  0
   -8.9029   14.3643  -34.9266 C   0  0  0  0  0  0  0  0  0  0  0  0
  -11.1697   14.9595  -37.3295 N   0  0  0  0  0  0  0  0  0  0  0  0
   -9.0960   15.9780  -37.3616 O   0  0  0  0  0  0  0  0  0  0  0  0
  -14.2369   16.2533  -40.1055 O   0  0  0  0  0  0  0  0  0  0  0  0
   -9.9770   15.1854  -35.3984 O   0  0  0  0  0  0  0  0  0  0  0  0
  -12.0056   12.9653  -38.9385 H   0  0  0  0  0  0  0  0  0  0  0  0
  -13.0550   14.0367  -39.8924 H   0  0  0  0  0  0  0  0  0  0  0  0
  -15.2097   15.2135  -38.0887 H   0  0  0  0  0  0  0  0  0  0  0  0
  -14.2394   15.9477  -36.8337 H   0  0  0  0  0  0  0  0  0  0  0  0
  -11.6169   17.2144  -38.4227 H   0  0  0  0  0  0  0  0  0  0  0  0
  -11.8572   16.7399  -40.0884 H   0  0  0  0  0  0  0  0  0  0  0  0
  -12.5785   14.8743  -35.7569 H   0  0  0  0  0  0  0  0  0  0  0  0
  -11.9030   13.3170  -36.3009 H   0  0  0  0  0  0  0  0  0  0  0  0
  -14.0094   13.3110  -37.5059 H   0  0  0  0  0  0  0  0  0  0  0  0
  -10.5481   14.9205  -39.3539 H   0  0  0  0  0  0  0  0  0  0  0  0
  -13.9083   17.4940  -38.5325 H   0  0  0  0  0  0  0  0  0  0  0  0
   -7.4679   15.1403  -36.3637 H   0  0  0  0  0  0  0  0  0  0  0  0
   -7.5088   16.0417  -34.8314 H   0  0  0  0  0  0  0  0  0  0  0  0
   -6.7294   14.4477  -34.9302 H   0  0  0  0  0  0  0  0  0  0  0  0
  -10.0020   13.7459  -33.1561 H   0  0  0  0  0  0  0  0  0  0  0  0
   -9.0761   15.2201  -32.9359 H   0  0  0  0  0  0  0  0  0  0  0  0
   -8.2363   13.6538  -32.9733 H   0  0  0  0  0  0  0  0  0  0  0  0
   -9.9548   12.5071  -35.3456 H   0  0  0  0  0  0  0  0  0  0  0  0
   -8.9366   13.0737  -36.6871 H   0  0  0  0  0  0  0  0  0  0  0  0
   -8.2119   12.3276  -35.2447 H   0  0  0  0  0  0  0  0  0  0  0  0
  -15.1911   16.3705  -39.9737 H   0  0  0  0  0  0  0  0  0  0  0  0
  1 13  1  0  0  0  0
  1 14  2  0  0  0  0
  1 16  1  0  0  0  0
  2  6  1  0  0  0  0
  2  7  1  0  0  0  0
  3  6  1  0  0  0  0
  3  8  1  0  0  0  0
  4  7  1  6  0  0  0
  4  8  1  0  0  0  0
  5  6  1  6  0  0  0
  5 13  1  0  0  0  0
  7 13  1  0  0  0  0
  8 15  1  1  0  0  0
  9 12  1  0  0  0  0
 10 12  1  0  0  0  0
 11 12  1  0  0  0  0
 12 16  1  0  0  0  0
  2 17  1  0  0  0  0
  2 18  1  0  0  0  0
  3 19  1  0  0  0  0
  3 20  1  0  0  0  0
  4 21  1  0  0  0  0
  4 22  1  0  0  0  0
  5 23  1  0  0  0  0
  5 24  1  0  0  0  0
  6 25  1  0  0  0  0
  7 26  1  0  0  0  0
  8 27  1  0  0  0  0
  9 28  1  0  0  0  0
  9 29  1  0  0  0  0
  9 30  1  0  0  0  0
 10 31  1  0  0  0  0
 10 32  1  0  0  0  0
 10 33  1  0  0  0  0
 11 34  1  0  0  0  0
 11 35  1  0  0  0  0
 11 36  1  0  0  0  0
 15 37  1  0  0  0  0
M  END
> <id>
EN300-37100465

> <smiles>
CC(C)(C)OC(=O)N1C[C@@H]2C[C@H]1C[C@@H](O)C2 |&1:9,11,13,r|

> <IUPAC Name>
rac-tert-butyl (1R,3S,5S)-3-hydroxy-6-azabicyclo[3.2.1]octane-6-carboxylate

> <Purity>
95

> <URL>
https://www.enaminestore.com/catalog/EN300-37100465

> <ROCS_ShapeQuery>
x1247relevant_x1083L0AP1_x1305L0BP1_

> <ROCS_TanimotoCombo>
0.790 

> <ROCS_ShapeTanimoto>
0.469 

> <ROCS_ColorTanimoto>
0.321 

> <ROCS_RefTversky>
0.408 

> <ROCS_RefColorTversky>
0.363 

> <ROCS_RefTverskyCombo>
0.771 

> <ROCS_FitTversky>
1.461 

> <ROCS_FitColorTversky>
0.737 

> <ROCS_FitTverskyCombo>
2.198 

> <ROCS_ColorScore>
-7.705

> <ROCS_Overlap>
1202.832

> <ROCS_Rank>
462                 

$$$$
untitled-dbase-51851_176
  -OEChem-06162310163D

 34 35  0     1  0  0  0  0  0999 V2000
  -10.1756   15.0023  -36.7109 C   0  0  0  0  0  0  0  0  0  0  0  0
  -13.0644   14.0492  -38.9796 C   0  0  0  0  0  0  0  0  0  0  0  0
  -13.7526   15.2287  -37.3676 C   0  0  0  0  0  0  0  0  0  0  0  0
  -11.1726   16.1542  -38.6678 C   0  0  0  0  0  0  0  0  0  0  0  0
  -13.6089   15.5058  -38.8950 C   0  0  0  0  0  0  0  0  0  0  0  0
  -12.4968   14.3303  -37.5530 C   0  0  0  0  0  0  0  0  0  0  0  0
  -12.5547   16.5798  -39.1865 C   0  0  2  0  0  0  0  0  0  0  0  0
   -8.7758   12.8973  -37.4058 C   0  0  0  0  0  0  0  0  0  0  0  0
   -7.1639   14.4171  -38.5896 C   0  0  0  0  0  0  0  0  0  0  0  0
   -7.1580   14.2980  -36.0808 C   0  0  0  0  0  0  0  0  0  0  0  0
   -8.0203   14.2239  -37.3400 C   0  0  0  0  0  0  0  0  0  0  0  0
  -11.2490   15.1595  -37.5906 N   0  0  0  0  0  0  0  0  0  0  0  0
  -10.2867   14.6434  -35.5404 O   0  0  0  0  0  0  0  0  0  0  0  0
  -12.4696   16.7769  -40.5946 O   0  0  0  0  0  0  0  0  0  0  0  0
   -8.9750   15.2905  -37.3022 O   0  0  0  0  0  0  0  0  0  0  0  0
  -13.8391   13.2737  -39.0078 H   0  0  0  0  0  0  0  0  0  0  0  0
  -12.3311   13.8346  -39.7613 H   0  0  0  0  0  0  0  0  0  0  0  0
  -13.6571   16.0888  -36.6968 H   0  0  0  0  0  0  0  0  0  0  0  0
  -14.6641   14.6813  -37.0924 H   0  0  0  0  0  0  0  0  0  0  0  0
  -10.5351   15.7766  -39.4759 H   0  0  0  0  0  0  0  0  0  0  0  0
  -10.6631   17.0205  -38.2272 H   0  0  0  0  0  0  0  0  0  0  0  0
  -14.5475   15.6779  -39.4255 H   0  0  0  0  0  0  0  0  0  0  0  0
  -12.4506   13.4743  -36.8763 H   0  0  0  0  0  0  0  0  0  0  0  0
  -12.8348   17.5313  -38.7317 H   0  0  0  0  0  0  0  0  0  0  0  0
   -9.3917   12.7549  -36.5106 H   0  0  0  0  0  0  0  0  0  0  0  0
   -9.4246   12.8458  -38.2862 H   0  0  0  0  0  0  0  0  0  0  0  0
   -8.0791   12.0519  -37.4394 H   0  0  0  0  0  0  0  0  0  0  0  0
   -6.6201   15.3677  -38.5467 H   0  0  0  0  0  0  0  0  0  0  0  0
   -7.7893   14.4596  -39.4887 H   0  0  0  0  0  0  0  0  0  0  0  0
   -6.4373   13.6072  -38.7106 H   0  0  0  0  0  0  0  0  0  0  0  0
   -6.6160   15.2494  -36.0334 H   0  0  0  0  0  0  0  0  0  0  0  0
   -7.7610   14.1982  -35.1725 H   0  0  0  0  0  0  0  0  0  0  0  0
   -6.3975   13.5087  -36.0824 H   0  0  0  0  0  0  0  0  0  0  0  0
  -13.3539   17.0436  -40.8903 H   0  0  0  0  0  0  0  0  0  0  0  0
  1 12  1  0  0  0  0
  1 13  2  0  0  0  0
  1 15  1  0  0  0  0
  2  5  1  0  0  0  0
  2  6  1  0  0  0  0
  3  5  1  0  0  0  0
  3  6  1  0  0  0  0
  4  7  1  0  0  0  0
  4 12  1  0  0  0  0
  5  7  1  0  0  0  0
  6 12  1  0  0  0  0
  7 14  1  0  0  0  0
  8 11  1  0  0  0  0
  9 11  1  0  0  0  0
 10 11  1  0  0  0  0
 11 15  1  0  0  0  0
  2 16  1  0  0  0  0
  2 17  1  0  0  0  0
  3 18  1  0  0  0  0
  3 19  1  0  0  0  0
  4 20  1  0  0  0  0
  4 21  1  0  0  0  0
  5 22  1  0  0  0  0
  6 23  1  0  0  0  0
  7 24  1  0  0  0  0
  8 25  1  0  0  0  0
  8 26  1  0  0  0  0
  8 27  1  0  0  0  0
  9 28  1  0  0  0  0
  9 29  1  0  0  0  0
  9 30  1  0  0  0  0
 10 31  1  0  0  0  0
 10 32  1  0  0  0  0
 10 33  1  0  0  0  0
 14 34  1  0  0  0  0
M  END
> <id>
EN300-37152169

> <smiles>
CC(C)(C)OC(=O)N1CC(O)C2CC1C2

> <IUPAC Name>
tert-butyl 4-hydroxy-2-azabicyclo[3.1.1]heptane-2-carboxylate

> <Purity>
95

> <URL>
https://www.enaminestore.com/catalog/EN300-37152169

> <ROCS_ShapeQuery>
x1247relevant_x1083L0AP1_x1305L0BP1_

> <ROCS_TanimotoCombo>
0.790 

> <ROCS_ShapeTanimoto>
0.478 

> <ROCS_ColorTanimoto>
0.311 

> <ROCS_RefTversky>
0.409 

> <ROCS_RefColorTversky>
0.357 

> <ROCS_RefTverskyCombo>
0.766 

> <ROCS_FitTversky>
1.546 

> <ROCS_FitColorTversky>
0.710 

> <ROCS_FitTverskyCombo>
2.256 

> <ROCS_ColorScore>
-7.585

> <ROCS_Overlap>
1204.741

> <ROCS_Rank>
463                 

$$$$
untitled-dbase-16085_7
  -OEChem-06162310163D

 36 38  0     1  0  0  0  0  0999 V2000
  -16.0117   16.0107  -38.5851 C   0  0  0  0  0  0  0  0  0  0  0  0
  -14.5908   16.5700  -38.6685 C   0  0  0  0  0  0  0  0  0  0  0  0
   -9.0736   13.6077  -37.5851 C   0  0  0  0  0  0  0  0  0  0  0  0
  -11.1443   15.3051  -39.0045 C   0  0  0  0  0  0  0  0  0  0  0  0
   -8.5215   14.6234  -36.5958 C   0  0  0  0  0  0  0  0  0  0  0  0
  -10.5779   15.7570  -36.5388 C   0  0  0  0  0  0  0  0  0  0  0  0
  -12.7017   14.5654  -37.1478 C   0  0  0  0  0  0  0  0  0  0  0  0
  -16.5538   15.5752  -39.9382 C   0  0  0  0  0  0  0  0  0  0  0  0
  -13.9181   15.0423  -40.5814 C   0  0  0  0  0  0  0  0  0  0  0  0
  -11.2232   14.7814  -37.5473 C   0  0  1  0  0  0  0  0  0  0  0  0
  -13.5459   15.5479  -39.1727 C   0  0  1  0  0  0  0  0  0  0  0  0
  -10.5235   13.4843  -37.4408 N   0  0  0  0  0  0  0  0  0  0  0  0
  -12.2382   16.2399  -39.2813 N   0  0  0  0  0  0  0  0  0  0  0  0
   -9.1719   15.8821  -36.7642 O   0  0  0  0  0  0  0  0  0  0  0  0
  -13.5222   14.3953  -38.3017 O   0  0  0  0  0  0  0  0  0  0  0  0
  -15.5578   14.2471  -40.6646 S   0  0  0  0  0  0  0  0  0  0  0  0
  -16.0517   15.1781  -37.8732 H   0  0  0  0  0  0  0  0  0  0  0  0
  -16.6687   16.7902  -38.1822 H   0  0  0  0  0  0  0  0  0  0  0  0
  -14.5973   17.4575  -39.3138 H   0  0  0  0  0  0  0  0  0  0  0  0
  -14.3178   16.9068  -37.6601 H   0  0  0  0  0  0  0  0  0  0  0  0
   -8.8354   13.9148  -38.6082 H   0  0  0  0  0  0  0  0  0  0  0  0
   -8.6040   12.6312  -37.4294 H   0  0  0  0  0  0  0  0  0  0  0  0
  -10.1991   15.8202  -39.1739 H   0  0  0  0  0  0  0  0  0  0  0  0
  -11.1804   14.4801  -39.7146 H   0  0  0  0  0  0  0  0  0  0  0  0
   -8.7085   14.2857  -35.5713 H   0  0  0  0  0  0  0  0  0  0  0  0
   -7.4377   14.7516  -36.7084 H   0  0  0  0  0  0  0  0  0  0  0  0
  -11.0342   16.7553  -36.5930 H   0  0  0  0  0  0  0  0  0  0  0  0
  -10.7019   15.4086  -35.5069 H   0  0  0  0  0  0  0  0  0  0  0  0
  -12.8167   13.7000  -36.4857 H   0  0  0  0  0  0  0  0  0  0  0  0
  -13.0990   15.4281  -36.6035 H   0  0  0  0  0  0  0  0  0  0  0  0
  -17.5807   15.2109  -39.8261 H   0  0  0  0  0  0  0  0  0  0  0  0
  -16.5827   16.4200  -40.6358 H   0  0  0  0  0  0  0  0  0  0  0  0
  -13.9107   15.8674  -41.3055 H   0  0  0  0  0  0  0  0  0  0  0  0
  -13.2076   14.2949  -40.9491 H   0  0  0  0  0  0  0  0  0  0  0  0
  -10.8682   12.8644  -38.1734 H   0  0  0  0  0  0  0  0  0  0  0  0
  -12.2037   16.9908  -38.6049 H   0  0  0  0  0  0  0  0  0  0  0  0
  1  2  1  0  0  0  0
  1  8  1  0  0  0  0
  2 11  1  0  0  0  0
  3  5  1  0  0  0  0
  3 12  1  0  0  0  0
  4 10  1  0  0  0  0
  4 13  1  0  0  0  0
  5 14  1  0  0  0  0
  6 10  1  0  0  0  0
  6 14  1  0  0  0  0
  7 10  1  0  0  0  0
  7 15  1  0  0  0  0
  8 16  1  0  0  0  0
  9 11  1  0  0  0  0
  9 16  1  0  0  0  0
 10 12  1  0  0  0  0
 11 13  1  0  0  0  0
 11 15  1  0  0  0  0
  1 17  1  0  0  0  0
  1 18  1  0  0  0  0
  2 19  1  0  0  0  0
  2 20  1  0  0  0  0
  3 21  1  0  0  0  0
  3 22  1  0  0  0  0
  4 23  1  0  0  0  0
  4 24  1  0  0  0  0
  5 25  1  0  0  0  0
  5 26  1  0  0  0  0
  6 27  1  0  0  0  0
  6 28  1  0  0  0  0
  7 29  1  0  0  0  0
  7 30  1  0  0  0  0
  8 31  1  0  0  0  0
  8 32  1  0  0  0  0
  9 33  1  0  0  0  0
  9 34  1  0  0  0  0
 12 35  1  0  0  0  0
 13 36  1  0  0  0  0
M  END
> <id>
EN300-1280604

> <smiles>
C1CSCC2(C1)NCC3(COCCN3)CO2

> <IUPAC Name>
4,8-dioxa-11-thia-1,15-diazadispiro[5.2.5^{9}.2^{6}]hexadecane

> <CAS>
2168302-68-7

> <URL>
https://www.enaminestore.com/catalog/EN300-1280604

> <ROCS_ShapeQuery>
x1247relevant_x1083L0AP1_x1305L0BP1_

> <ROCS_TanimotoCombo>
0.789 

> <ROCS_ShapeTanimoto>
0.510 

> <ROCS_ColorTanimoto>
0.279 

> <ROCS_RefTversky>
0.431 

> <ROCS_RefColorTversky>
0.317 

> <ROCS_RefTverskyCombo>
0.748 

> <ROCS_FitTversky>
1.566 

> <ROCS_FitColorTversky>
0.698 

> <ROCS_FitTverskyCombo>
2.264 

> <ROCS_ColorScore>
-6.732

> <ROCS_Overlap>
1269.186

> <ROCS_Rank>
464                 

$$$$
untitled-dbase-34866_126
  -OEChem-06162310163D

 36 37  0     0  0  0  0  0  0999 V2000
  -14.0588   15.6179  -39.4265 C   0  0  0  0  0  0  0  0  0  0  0  0
   -9.3967   13.6720  -37.9312 C   0  0  0  0  0  0  0  0  0  0  0  0
  -12.8480   14.9732  -37.2583 C   0  0  0  0  0  0  0  0  0  0  0  0
  -11.5533   15.7262  -38.8091 C   0  0  0  0  0  0  0  0  0  0  0  0
   -8.6650   14.3720  -36.7933 C   0  0  0  0  0  0  0  0  0  0  0  0
  -10.5303   15.7451  -36.3669 C   0  0  0  0  0  0  0  0  0  0  0  0
  -11.3156   15.0296  -37.4490 C   0  0  0  0  0  0  0  0  0  0  0  0
  -14.2043   13.6105  -41.0985 C   0  0  0  0  0  0  0  0  0  0  0  0
  -15.8614   12.5112  -39.5640 C   0  0  0  0  0  0  0  0  0  0  0  0
  -16.5657   14.4712  -40.9676 C   0  0  0  0  0  0  0  0  0  0  0  0
  -15.4155   13.8294  -40.1931 C   0  0  0  0  0  0  0  0  0  0  0  0
  -10.8435   13.6501  -37.6835 N   0  0  0  0  0  0  0  0  0  0  0  0
  -12.9662   15.4556  -38.6206 N   0  0  0  0  0  0  0  0  0  0  0  0
  -14.1481   16.4711  -40.3049 O   0  0  0  0  0  0  0  0  0  0  0  0
   -9.1337   15.7165  -36.6752 O   0  0  0  0  0  0  0  0  0  0  0  0
  -15.0359   14.7087  -39.1288 O   0  0  0  0  0  0  0  0  0  0  0  0
   -9.2010   14.1866  -38.8789 H   0  0  0  0  0  0  0  0  0  0  0  0
   -9.0296   12.6438  -38.0408 H   0  0  0  0  0  0  0  0  0  0  0  0
  -13.3093   13.9860  -37.1299 H   0  0  0  0  0  0  0  0  0  0  0  0
  -13.2568   15.6678  -36.5153 H   0  0  0  0  0  0  0  0  0  0  0  0
  -11.3218   16.7964  -38.8419 H   0  0  0  0  0  0  0  0  0  0  0  0
  -11.1565   15.2383  -39.7072 H   0  0  0  0  0  0  0  0  0  0  0  0
   -8.8742   13.8638  -35.8479 H   0  0  0  0  0  0  0  0  0  0  0  0
   -7.5793   14.3698  -36.9415 H   0  0  0  0  0  0  0  0  0  0  0  0
  -10.8511   16.7894  -36.2558 H   0  0  0  0  0  0  0  0  0  0  0  0
  -10.6642   15.2603  -35.3928 H   0  0  0  0  0  0  0  0  0  0  0  0
  -13.8812   14.5544  -41.5520 H   0  0  0  0  0  0  0  0  0  0  0  0
  -13.3605   13.1829  -40.5471 H   0  0  0  0  0  0  0  0  0  0  0  0
  -14.4523   12.9381  -41.9277 H   0  0  0  0  0  0  0  0  0  0  0  0
  -16.7302   12.6635  -38.9135 H   0  0  0  0  0  0  0  0  0  0  0  0
  -15.0705   12.0942  -38.9300 H   0  0  0  0  0  0  0  0  0  0  0  0
  -16.1236   11.7688  -40.3246 H   0  0  0  0  0  0  0  0  0  0  0  0
  -17.4347   14.6283  -40.3184 H   0  0  0  0  0  0  0  0  0  0  0  0
  -16.2750   15.4362  -41.3953 H   0  0  0  0  0  0  0  0  0  0  0  0
  -16.9013   13.8169  -41.7803 H   0  0  0  0  0  0  0  0  0  0  0  0
  -11.3018   13.2064  -38.4778 H   0  0  0  0  0  0  0  0  0  0  0  0
  1 13  1  0  0  0  0
  1 14  2  0  0  0  0
  1 16  1  0  0  0  0
  2  5  1  0  0  0  0
  2 12  1  0  0  0  0
  3  7  1  0  0  0  0
  3 13  1  0  0  0  0
  4  7  1  0  0  0  0
  4 13  1  0  0  0  0
  5 15  1  0  0  0  0
  6  7  1  0  0  0  0
  6 15  1  0  0  0  0
  7 12  1  0  0  0  0
  8 11  1  0  0  0  0
  9 11  1  0  0  0  0
 10 11  1  0  0  0  0
 11 16  1  0  0  0  0
  2 17  1  0  0  0  0
  2 18  1  0  0  0  0
  3 19  1  0  0  0  0
  3 20  1  0  0  0  0
  4 21  1  0  0  0  0
  4 22  1  0  0  0  0
  5 23  1  0  0  0  0
  5 24  1  0  0  0  0
  6 25  1  0  0  0  0
  6 26  1  0  0  0  0
  8 27  1  0  0  0  0
  8 28  1  0  0  0  0
  8 29  1  0  0  0  0
  9 30  1  0  0  0  0
  9 31  1  0  0  0  0
  9 32  1  0  0  0  0
 10 33  1  0  0  0  0
 10 34  1  0  0  0  0
 10 35  1  0  0  0  0
 12 36  1  0  0  0  0
M  END
> <id>
EN300-268863

> <smiles>
CC(C)(C)OC(=O)N1CC2(C1)COCCN2

> <MDLNUMBER>
MFCD14581204

> <IUPAC Name>
tert-butyl 8-oxa-2,5-diazaspiro[3.5]nonane-2-carboxylate

> <CAS>
1251002-01-3

> <Purity>
95

> <URL>
https://www.enaminestore.com/catalog/EN300-268863

> <ROCS_ShapeQuery>
x1247relevant_x1083L0AP1_x1305L0BP1_

> <ROCS_TanimotoCombo>
0.789 

> <ROCS_ShapeTanimoto>
0.480 

> <ROCS_ColorTanimoto>
0.309 

> <ROCS_RefTversky>
0.415 

> <ROCS_RefColorTversky>
0.323 

> <ROCS_RefTverskyCombo>
0.738 

> <ROCS_FitTversky>
1.484 

> <ROCS_FitColorTversky>
0.879 

> <ROCS_FitTverskyCombo>
2.363 

> <ROCS_ColorScore>
-6.811

> <ROCS_Overlap>
1223.803

> <ROCS_Rank>
465                 

$$$$
untitled-dbase-18124_30
  -OEChem-06162310163D

 39 41  0     1  0  0  0  0  0999 V2000
  -10.2565   14.8310  -37.1216 C   0  0  0  0  0  0  0  0  0  0  0  0
  -13.5805   14.3057  -37.5659 C   0  0  0  0  0  0  0  0  0  0  0  0
  -13.4914   15.8026  -37.1619 C   0  0  0  0  0  0  0  0  0  0  0  0
  -11.4854   14.6643  -40.8323 C   0  0  0  0  0  0  0  0  0  0  0  0
  -11.3519   16.9012  -40.2285 C   0  0  0  0  0  0  0  0  0  0  0  0
  -12.5869   14.8448  -39.7914 C   0  0  2  0  0  0  0  0  0  0  0  0
  -12.4973   16.3466  -39.3859 C   0  0  1  0  0  0  0  0  0  0  0  0
  -12.3300   14.1200  -38.4477 C   0  0  1  0  0  0  0  0  0  0  0  0
  -12.2025   16.2654  -37.8685 C   0  0  2  0  0  0  0  0  0  0  0  0
  -11.2325   14.3363  -34.4829 C   0  0  0  0  0  0  0  0  0  0  0  0
  -10.0616   12.1215  -34.6647 C   0  0  0  0  0  0  0  0  0  0  0  0
   -8.7333   14.2506  -34.7682 C   0  0  0  0  0  0  0  0  0  0  0  0
  -10.0630   13.5814  -35.1131 C   0  0  0  0  0  0  0  0  0  0  0  0
  -10.5232   15.7461  -40.5929 N   0  0  0  0  0  0  0  0  0  0  0  0
  -11.4336   15.0457  -37.7892 N   0  0  0  0  0  0  0  0  0  0  0  0
   -9.3387   15.6451  -37.0603 O   0  0  0  0  0  0  0  0  0  0  0  0
  -10.2250   13.5956  -36.5356 O   0  0  0  0  0  0  0  0  0  0  0  0
  -13.5271   13.6753  -36.6709 H   0  0  0  0  0  0  0  0  0  0  0  0
  -14.5125   14.0816  -38.0939 H   0  0  0  0  0  0  0  0  0  0  0  0
  -14.3767   16.3628  -37.4783 H   0  0  0  0  0  0  0  0  0  0  0  0
  -13.3958   15.8887  -36.0736 H   0  0  0  0  0  0  0  0  0  0  0  0
  -11.0065   13.6817  -40.7779 H   0  0  0  0  0  0  0  0  0  0  0  0
  -11.8994   14.7764  -41.8413 H   0  0  0  0  0  0  0  0  0  0  0  0
  -11.7456   17.3567  -41.1450 H   0  0  0  0  0  0  0  0  0  0  0  0
  -10.7688   17.6640  -39.7034 H   0  0  0  0  0  0  0  0  0  0  0  0
  -13.5654   14.5877  -40.2119 H   0  0  0  0  0  0  0  0  0  0  0  0
  -13.4278   16.8870  -39.5912 H   0  0  0  0  0  0  0  0  0  0  0  0
  -11.9743   13.0912  -38.5254 H   0  0  0  0  0  0  0  0  0  0  0  0
  -11.7267   17.1437  -37.4276 H   0  0  0  0  0  0  0  0  0  0  0  0
  -11.2370   15.3846  -34.8023 H   0  0  0  0  0  0  0  0  0  0  0  0
  -12.1942   13.8869  -34.7513 H   0  0  0  0  0  0  0  0  0  0  0  0
  -11.1481   14.3464  -33.3902 H   0  0  0  0  0  0  0  0  0  0  0  0
   -9.2241   11.5760  -35.1145 H   0  0  0  0  0  0  0  0  0  0  0  0
  -10.9743   11.6114  -34.9934 H   0  0  0  0  0  0  0  0  0  0  0  0
   -9.9881   12.0333  -33.5760 H   0  0  0  0  0  0  0  0  0  0  0  0
   -7.8943   13.7093  -35.2201 H   0  0  0  0  0  0  0  0  0  0  0  0
   -8.7021   15.2884  -35.1155 H   0  0  0  0  0  0  0  0  0  0  0  0
   -8.5610   14.2402  -33.6859 H   0  0  0  0  0  0  0  0  0  0  0  0
   -9.9500   15.4944  -39.7872 H   0  0  0  0  0  0  0  0  0  0  0  0
  1 15  1  0  0  0  0
  1 16  2  0  0  0  0
  1 17  1  0  0  0  0
  2  3  1  0  0  0  0
  2  8  1  1  0  0  0
  3  9  1  1  0  0  0
  4  6  1  0  0  0  0
  4 14  1  0  0  0  0
  5  7  1  0  0  0  0
  5 14  1  0  0  0  0
  6  7  1  0  0  0  0
  6  8  1  0  0  0  0
  7  9  1  0  0  0  0
  8 15  1  0  0  0  0
  9 15  1  0  0  0  0
 10 13  1  0  0  0  0
 11 13  1  0  0  0  0
 12 13  1  0  0  0  0
 13 17  1  0  0  0  0
  2 18  1  0  0  0  0
  2 19  1  0  0  0  0
  3 20  1  0  0  0  0
  3 21  1  0  0  0  0
  4 22  1  0  0  0  0
  4 23  1  0  0  0  0
  5 24  1  0  0  0  0
  5 25  1  0  0  0  0
  6 26  1  0  0  0  0
  7 27  1  0  0  0  0
  8 28  1  0  0  0  0
  9 29  1  0  0  0  0
 10 30  1  0  0  0  0
 10 31  1  0  0  0  0
 10 32  1  0  0  0  0
 11 33  1  0  0  0  0
 11 34  1  0  0  0  0
 11 35  1  0  0  0  0
 12 36  1  0  0  0  0
 12 37  1  0  0  0  0
 12 38  1  0  0  0  0
 14 39  1  0  0  0  0
M  END
> <id>
EN300-1653066

> <smiles>
CC(C)(C)OC(=O)N1[C@H]2CC[C@@H]1C3CNCC32

> <IUPAC Name>
tert-butyl (1R,7S)-4,10-diazatricyclo[5.2.1.0,2,6]decane-10-carboxylate

> <CAS>
2171420-73-6

> <URL>
https://www.enaminestore.com/catalog/EN300-1653066

> <ROCS_ShapeQuery>
x1247relevant_x1083L0AP1_x1305L0BP1_

> <ROCS_TanimotoCombo>
0.789 

> <ROCS_ShapeTanimoto>
0.496 

> <ROCS_ColorTanimoto>
0.293 

> <ROCS_RefTversky>
0.431 

> <ROCS_RefColorTversky>
0.354 

> <ROCS_RefTverskyCombo>
0.786 

> <ROCS_FitTversky>
1.431 

> <ROCS_FitColorTversky>
0.630 

> <ROCS_FitTverskyCombo>
2.061 

> <ROCS_ColorScore>
-7.561

> <ROCS_Overlap>
1272.582

> <ROCS_Rank>
466                 

$$$$
untitled-dbase-39853_2
  -OEChem-06162310163D

 35 36  0     1  0  0  0  0  0999 V2000
   -8.9341   14.8207  -37.5865 C   0  0  0  0  0  0  0  0  0  0  0  0
  -10.0197   15.6693  -38.2434 C   0  0  0  0  0  0  0  0  0  0  0  0
  -13.2958   13.9600  -38.2432 C   0  0  0  0  0  0  0  0  0  0  0  0
   -9.0337   14.9062  -36.0705 C   0  0  0  0  0  0  0  0  0  0  0  0
  -11.3450   15.4179  -36.1383 C   0  0  0  0  0  0  0  0  0  0  0  0
  -12.9067   16.2159  -39.3624 C   0  0  1  0  0  0  0  0  0  0  0  0
  -13.8139   14.9452  -39.3254 C   0  0  0  0  0  0  0  0  0  0  0  0
  -11.4232   15.3716  -37.6768 C   0  0  2  0  0  0  0  0  0  0  0  0
  -13.6015   17.5093  -39.7749 C   0  0  0  0  0  0  0  0  0  0  0  0
  -13.7698   14.2750  -40.7140 C   0  0  0  0  0  0  0  0  0  0  0  0
  -15.2858   15.2586  -38.9929 C   0  0  0  0  0  0  0  0  0  0  0  0
  -11.8421   14.0279  -38.1297 N   0  0  0  0  0  0  0  0  0  0  0  0
  -10.3399   14.5430  -35.6278 O   0  0  0  0  0  0  0  0  0  0  0  0
  -12.3222   16.4296  -38.0721 O   0  0  0  0  0  0  0  0  0  0  0  0
   -9.0196   13.7777  -37.9124 H   0  0  0  0  0  0  0  0  0  0  0  0
   -7.9501   15.1852  -37.9084 H   0  0  0  0  0  0  0  0  0  0  0  0
   -9.7458   16.7293  -38.1274 H   0  0  0  0  0  0  0  0  0  0  0  0
  -10.0096   15.4729  -39.3301 H   0  0  0  0  0  0  0  0  0  0  0  0
  -13.7351   14.1984  -37.2713 H   0  0  0  0  0  0  0  0  0  0  0  0
  -13.6016   12.9369  -38.4761 H   0  0  0  0  0  0  0  0  0  0  0  0
   -8.2919   14.2610  -35.5847 H   0  0  0  0  0  0  0  0  0  0  0  0
   -8.8429   15.9329  -35.7418 H   0  0  0  0  0  0  0  0  0  0  0  0
  -11.0736   16.4280  -35.7979 H   0  0  0  0  0  0  0  0  0  0  0  0
  -12.3085   15.1634  -35.6691 H   0  0  0  0  0  0  0  0  0  0  0  0
  -12.0893   16.0484  -40.0851 H   0  0  0  0  0  0  0  0  0  0  0  0
  -14.4211   17.7226  -39.0907 H   0  0  0  0  0  0  0  0  0  0  0  0
  -13.9966   17.4103  -40.7847 H   0  0  0  0  0  0  0  0  0  0  0  0
  -12.8914   18.3343  -39.7491 H   0  0  0  0  0  0  0  0  0  0  0  0
  -14.1341   14.9741  -41.4587 H   0  0  0  0  0  0  0  0  0  0  0  0
  -14.3978   13.3909  -40.7030 H   0  0  0  0  0  0  0  0  0  0  0  0
  -12.7471   13.9957  -40.9424 H   0  0  0  0  0  0  0  0  0  0  0  0
  -15.6755   15.9462  -39.7337 H   0  0  0  0  0  0  0  0  0  0  0  0
  -15.3366   15.7078  -38.0087 H   0  0  0  0  0  0  0  0  0  0  0  0
  -15.8544   14.3368  -39.0087 H   0  0  0  0  0  0  0  0  0  0  0  0
  -11.5272   13.3375  -37.4626 H   0  0  0  0  0  0  0  0  0  0  0  0
  1  2  1  0  0  0  0
  1  4  1  0  0  0  0
  2  8  1  0  0  0  0
  3  7  1  0  0  0  0
  3 12  1  0  0  0  0
  4 13  1  0  0  0  0
  5  8  1  0  0  0  0
  5 13  1  0  0  0  0
  6  7  1  0  0  0  0
  6  9  1  0  0  0  0
  6 14  1  0  0  0  0
  7 10  1  0  0  0  0
  7 11  1  0  0  0  0
  8 12  1  0  0  0  0
  8 14  1  0  0  0  0
  1 15  1  0  0  0  0
  1 16  1  0  0  0  0
  2 17  1  0  0  0  0
  2 18  1  0  0  0  0
  3 19  1  0  0  0  0
  3 20  1  0  0  0  0
  4 21  1  0  0  0  0
  4 22  1  0  0  0  0
  5 23  1  0  0  0  0
  5 24  1  0  0  0  0
  6 25  1  0  0  0  0
  9 26  1  0  0  0  0
  9 27  1  0  0  0  0
  9 28  1  0  0  0  0
 10 29  1  0  0  0  0
 10 30  1  0  0  0  0
 10 31  1  0  0  0  0
 11 32  1  0  0  0  0
 11 33  1  0  0  0  0
 11 34  1  0  0  0  0
 12 35  1  0  0  0  0
M  END
> <id>
EN300-1280120

> <smiles>
CC1OC2(CCCOC2)NCC1(C)C

> <IUPAC Name>
2,3,3-trimethyl-1,8-dioxa-5-azaspiro[5.5]undecane

> <CAS>
2169100-86-9

> <URL>
https://www.enaminestore.com/catalog/EN300-1280120

> <ROCS_ShapeQuery>
x1247relevant_x1083L0AP1_x1305L0BP1_

> <ROCS_TanimotoCombo>
0.789 

> <ROCS_ShapeTanimoto>
0.476 

> <ROCS_ColorTanimoto>
0.313 

> <ROCS_RefTversky>
0.403 

> <ROCS_RefColorTversky>
0.326 

> <ROCS_RefTverskyCombo>
0.728 

> <ROCS_FitTversky>
1.625 

> <ROCS_FitColorTversky>
0.887 

> <ROCS_FitTverskyCombo>
2.513 

> <ROCS_ColorScore>
-6.871

> <ROCS_Overlap>
1184.305

> <ROCS_Rank>
467                 

$$$$
untitled-dbase-17029_22
  -OEChem-06162310163D

 40 41  0     0  0  0  0  0  0999 V2000
   -9.9735   15.6659  -38.1664 C   0  0  0  0  0  0  0  0  0  0  0  0
  -11.4607   15.2891  -36.1707 C   0  0  0  0  0  0  0  0  0  0  0  0
   -8.8669   15.2065  -37.2093 C   0  0  0  0  0  0  0  0  0  0  0  0
  -10.5238   14.2501  -35.5479 C   0  0  0  0  0  0  0  0  0  0  0  0
  -13.2771   13.8701  -38.2755 C   0  0  0  0  0  0  0  0  0  0  0  0
  -14.0807   15.0579  -38.8903 C   0  0  0  0  0  0  0  0  0  0  0  0
  -11.4231   15.3445  -37.7128 C   0  0  0  0  0  0  0  0  0  0  0  0
   -9.2650   14.0110  -36.3689 C   0  0  0  0  0  0  0  0  0  0  0  0
  -13.1354   16.2828  -39.2012 C   0  0  0  0  0  0  0  0  0  0  0  0
  -15.1699   15.4332  -37.8530 C   0  0  0  0  0  0  0  0  0  0  0  0
  -14.8149   14.5725  -40.1589 C   0  0  0  0  0  0  0  0  0  0  0  0
  -13.8984   17.6184  -39.3156 C   0  0  0  0  0  0  0  0  0  0  0  0
  -12.3250   16.1418  -40.5098 C   0  0  0  0  0  0  0  0  0  0  0  0
  -11.8360   14.0687  -38.3148 N   0  0  0  0  0  0  0  0  0  0  0  0
  -12.2410   16.4707  -38.0903 O   0  0  0  0  0  0  0  0  0  0  0  0
   -8.2451   13.6728  -35.5401 F   0  0  0  0  0  0  0  0  0  0  0  0
   -9.4531   12.9415  -37.1861 F   0  0  0  0  0  0  0  0  0  0  0  0
   -9.8777   16.7551  -38.3165 H   0  0  0  0  0  0  0  0  0  0  0  0
   -9.7886   15.2390  -39.1667 H   0  0  0  0  0  0  0  0  0  0  0  0
  -12.4701   15.0803  -35.8021 H   0  0  0  0  0  0  0  0  0  0  0  0
  -11.2110   16.2835  -35.7707 H   0  0  0  0  0  0  0  0  0  0  0  0
   -7.9421   14.9805  -37.7710 H   0  0  0  0  0  0  0  0  0  0  0  0
   -8.6013   16.0476  -36.5437 H   0  0  0  0  0  0  0  0  0  0  0  0
  -10.2359   14.5877  -34.5397 H   0  0  0  0  0  0  0  0  0  0  0  0
  -11.0534   13.2961  -35.3983 H   0  0  0  0  0  0  0  0  0  0  0  0
  -13.6060   13.6653  -37.2417 H   0  0  0  0  0  0  0  0  0  0  0  0
  -13.5113   12.9446  -38.8314 H   0  0  0  0  0  0  0  0  0  0  0  0
  -15.7563   16.2586  -38.2391 H   0  0  0  0  0  0  0  0  0  0  0  0
  -14.6901   15.7237  -36.9259 H   0  0  0  0  0  0  0  0  0  0  0  0
  -15.8086   14.5741  -37.6845 H   0  0  0  0  0  0  0  0  0  0  0  0
  -15.3677   15.4022  -40.5761 H   0  0  0  0  0  0  0  0  0  0  0  0
  -15.4885   13.7736  -39.8831 H   0  0  0  0  0  0  0  0  0  0  0  0
  -14.0804   14.2166  -40.8675 H   0  0  0  0  0  0  0  0  0  0  0  0
  -13.1929   18.4135  -39.5289 H   0  0  0  0  0  0  0  0  0  0  0  0
  -14.4058   17.8191  -38.3787 H   0  0  0  0  0  0  0  0  0  0  0  0
  -14.6238   17.5456  -40.1181 H   0  0  0  0  0  0  0  0  0  0  0  0
  -11.7091   17.0234  -40.6395 H   0  0  0  0  0  0  0  0  0  0  0  0
  -13.0125   16.0458  -41.3413 H   0  0  0  0  0  0  0  0  0  0  0  0
  -11.6993   15.2601  -40.4435 H   0  0  0  0  0  0  0  0  0  0  0  0
  -11.3651   13.2865  -37.8696 H   0  0  0  0  0  0  0  0  0  0  0  0
  1  3  1  0  0  0  0
  1  7  1  0  0  0  0
  2  4  1  0  0  0  0
  2  7  1  0  0  0  0
  3  8  1  0  0  0  0
  4  8  1  0  0  0  0
  5  6  1  0  0  0  0
  5 14  1  0  0  0  0
  6  9  1  0  0  0  0
  6 10  1  0  0  0  0
  6 11  1  0  0  0  0
  7 14  1  0  0  0  0
  7 15  1  0  0  0  0
  8 16  1  0  0  0  0
  8 17  1  0  0  0  0
  9 12  1  0  0  0  0
  9 13  1  0  0  0  0
  9 15  1  0  0  0  0
  1 18  1  0  0  0  0
  1 19  1  0  0  0  0
  2 20  1  0  0  0  0
  2 21  1  0  0  0  0
  3 22  1  0  0  0  0
  3 23  1  0  0  0  0
  4 24  1  0  0  0  0
  4 25  1  0  0  0  0
  5 26  1  0  0  0  0
  5 27  1  0  0  0  0
 10 28  1  0  0  0  0
 10 29  1  0  0  0  0
 10 30  1  0  0  0  0
 11 31  1  0  0  0  0
 11 32  1  0  0  0  0
 11 33  1  0  0  0  0
 12 34  1  0  0  0  0
 12 35  1  0  0  0  0
 12 36  1  0  0  0  0
 13 37  1  0  0  0  0
 13 38  1  0  0  0  0
 13 39  1  0  0  0  0
 14 40  1  0  0  0  0
M  END
> <id>
EN300-1280157

> <smiles>
CC1(C)CNC2(CCC(F)(F)CC2)OC1(C)C

> <IUPAC Name>
9,9-difluoro-2,2,3,3-tetramethyl-1-oxa-5-azaspiro[5.5]undecane

> <CAS>
2172134-18-6

> <URL>
https://www.enaminestore.com/catalog/EN300-1280157

> <ROCS_ShapeQuery>
x1247relevant_x1083L0AP1_x1305L0BP1_

> <ROCS_TanimotoCombo>
0.789 

> <ROCS_ShapeTanimoto>
0.525 

> <ROCS_ColorTanimoto>
0.264 

> <ROCS_RefTversky>
0.445 

> <ROCS_RefColorTversky>
0.285 

> <ROCS_RefTverskyCombo>
0.730 

> <ROCS_FitTversky>
1.524 

> <ROCS_FitColorTversky>
0.777 

> <ROCS_FitTverskyCombo>
2.301 

> <ROCS_ColorScore>
-6.020

> <ROCS_Overlap>
1311.932

> <ROCS_Rank>
468                 

$$$$
untitled-dbase-48909_1
  -OEChem-06162310163D

 28 30  0     1  0  0  0  0  0999 V2000
   -9.1478   15.2193  -36.8682 C   0  0  0  0  0  0  0  0  0  0  0  0
  -14.0219   14.5815  -39.0572 C   0  0  0  0  0  0  0  0  0  0  0  0
  -14.0825   14.9987  -37.5809 C   0  0  0  0  0  0  0  0  0  0  0  0
  -11.5246   13.6937  -36.5129 C   0  0  0  0  0  0  0  0  0  0  0  0
  -12.7019   16.5351  -38.7337 C   0  0  0  0  0  0  0  0  0  0  0  0
  -11.5185   14.4729  -38.9807 C   0  0  0  0  0  0  0  0  0  0  0  0
  -10.2001   12.9629  -36.5974 C   0  0  0  0  0  0  0  0  0  0  0  0
  -12.7250   15.2470  -39.5523 C   0  0  1  0  0  0  0  0  0  0  0  0
  -12.7769   15.7882  -37.3939 C   0  0  2  0  0  0  0  0  0  0  0  0
  -11.5264   14.8695  -37.4828 C   0  0  1  0  0  0  0  0  0  0  0  0
   -9.0843   13.8778  -36.5494 N   0  0  0  0  0  0  0  0  0  0  0  0
   -8.1630   15.9548  -36.8216 O   0  0  0  0  0  0  0  0  0  0  0  0
  -10.3737   15.7183  -37.2138 O   0  0  0  0  0  0  0  0  0  0  0  0
  -14.0072   13.4938  -39.1770 H   0  0  0  0  0  0  0  0  0  0  0  0
  -14.8926   14.9735  -39.5947 H   0  0  0  0  0  0  0  0  0  0  0  0
  -14.9484   15.6511  -37.4164 H   0  0  0  0  0  0  0  0  0  0  0  0
  -14.1855   14.1449  -36.9075 H   0  0  0  0  0  0  0  0  0  0  0  0
  -12.3267   12.9920  -36.7893 H   0  0  0  0  0  0  0  0  0  0  0  0
  -11.7288   13.9997  -35.4792 H   0  0  0  0  0  0  0  0  0  0  0  0
  -11.7845   17.1173  -38.8646 H   0  0  0  0  0  0  0  0  0  0  0  0
  -13.5688   17.1786  -38.9173 H   0  0  0  0  0  0  0  0  0  0  0  0
  -11.6357   13.3959  -39.1389 H   0  0  0  0  0  0  0  0  0  0  0  0
  -10.5936   14.7950  -39.4725 H   0  0  0  0  0  0  0  0  0  0  0  0
  -10.0792   12.2579  -35.7662 H   0  0  0  0  0  0  0  0  0  0  0  0
  -10.1283   12.3910  -37.5300 H   0  0  0  0  0  0  0  0  0  0  0  0
  -12.6865   15.3738  -40.6358 H   0  0  0  0  0  0  0  0  0  0  0  0
  -12.7842   16.4589  -36.5292 H   0  0  0  0  0  0  0  0  0  0  0  0
   -8.1845   13.5064  -36.2592 H   0  0  0  0  0  0  0  0  0  0  0  0
  1 11  1  0  0  0  0
  1 12  2  0  0  0  0
  1 13  1  0  0  0  0
  2  3  1  0  0  0  0
  2  8  1  0  0  0  0
  3  9  1  0  0  0  0
  4  7  1  0  0  0  0
  4 10  1  0  0  0  0
  5  8  1  0  0  0  0
  5  9  1  0  0  0  0
  6  8  1  0  0  0  0
  6 10  1  0  0  0  0
  7 11  1  0  0  0  0
  9 10  1  0  0  0  0
 10 13  1  0  0  0  0
  2 14  1  0  0  0  0
  2 15  1  0  0  0  0
  3 16  1  0  0  0  0
  3 17  1  0  0  0  0
  4 18  1  0  0  0  0
  4 19  1  0  0  0  0
  5 20  1  0  0  0  0
  5 21  1  0  0  0  0
  6 22  1  0  0  0  0
  6 23  1  0  0  0  0
  7 24  1  0  0  0  0
  7 25  1  0  0  0  0
  8 26  1  0  0  0  0
  9 27  1  0  0  0  0
 11 28  1  0  0  0  0
M  END
> <id>
EN300-802953

> <smiles>
O=C1NCCC2(CC3CCC2C3)O1

> <IUPAC Name>
spiro[bicyclo[2.2.1]heptane-2,2'-[1,5]oxazinane]-6'-one

> <CAS>
2137549-84-7

> <URL>
https://www.enaminestore.com/catalog/EN300-802953

> <ROCS_ShapeQuery>
x1247relevant_x1083L0AP1_x1305L0BP1_

> <ROCS_TanimotoCombo>
0.789 

> <ROCS_ShapeTanimoto>
0.472 

> <ROCS_ColorTanimoto>
0.317 

> <ROCS_RefTversky>
0.399 

> <ROCS_RefColorTversky>
0.353 

> <ROCS_RefTverskyCombo>
0.752 

> <ROCS_FitTversky>
1.633 

> <ROCS_FitColorTversky>
0.755 

> <ROCS_FitTverskyCombo>
2.388 

> <ROCS_ColorScore>
-7.498

> <ROCS_Overlap>
1173.084

> <ROCS_Rank>
469                 

$$$$
untitled-dbase-14841_0
  -OEChem-06162310163D

 24 26  0     1  0  0  0  0  0999 V2000
   -9.7762   15.2536  -36.3142 C   0  0  0  0  0  0  0  0  0  0  0  0
  -13.9384   15.0692  -39.5878 C   0  0  0  0  0  0  0  0  0  0  0  0
  -12.6026   15.6141  -40.1350 C   0  0  0  0  0  0  0  0  0  0  0  0
  -12.9666   16.5055  -37.9639 C   0  0  0  0  0  0  0  0  0  0  0  0
  -12.1262   14.1524  -36.2155 C   0  0  0  0  0  0  0  0  0  0  0  0
  -13.7615   15.2045  -38.0621 C   0  0  2  0  0  0  0  0  0  0  0  0
  -11.8352   15.9818  -38.8493 C   0  0  1  0  0  0  0  0  0  0  0  0
  -12.7532   14.1196  -37.6237 C   0  0  1  0  0  0  0  0  0  0  0  0
  -11.4258   14.6555  -38.1915 C   0  0  2  0  0  0  0  0  0  0  0  0
  -10.9579   14.7690  -36.8213 N   0  0  0  0  0  0  0  0  0  0  0  0
   -8.9111   15.7445  -37.0395 O   0  0  0  0  0  0  0  0  0  0  0  0
   -9.6165   15.1137  -34.5792 Cl  0  0  0  0  0  0  0  0  0  0  0  0
  -14.7701   15.6879  -39.9428 H   0  0  0  0  0  0  0  0  0  0  0  0
  -14.1143   14.0361  -39.9040 H   0  0  0  0  0  0  0  0  0  0  0  0
  -12.0792   14.8682  -40.7417 H   0  0  0  0  0  0  0  0  0  0  0  0
  -12.7825   16.5012  -40.7524 H   0  0  0  0  0  0  0  0  0  0  0  0
  -13.4898   17.3661  -38.3947 H   0  0  0  0  0  0  0  0  0  0  0  0
  -12.6521   16.7535  -36.9465 H   0  0  0  0  0  0  0  0  0  0  0  0
  -12.6370   14.7816  -35.4825 H   0  0  0  0  0  0  0  0  0  0  0  0
  -11.9086   13.1703  -35.7864 H   0  0  0  0  0  0  0  0  0  0  0  0
  -14.6983   15.1809  -37.5019 H   0  0  0  0  0  0  0  0  0  0  0  0
  -11.0054   16.6722  -39.0127 H   0  0  0  0  0  0  0  0  0  0  0  0
  -13.0288   13.1083  -37.9445 H   0  0  0  0  0  0  0  0  0  0  0  0
  -10.8313   13.9592  -38.7898 H   0  0  0  0  0  0  0  0  0  0  0  0
  1 10  1  0  0  0  0
  1 11  2  0  0  0  0
  1 12  1  0  0  0  0
  2  3  1  0  0  0  0
  2  6  1  6  0  0  0
  3  7  1  6  0  0  0
  4  6  1  0  0  0  0
  4  7  1  0  0  0  0
  5  8  1  1  0  0  0
  5 10  1  0  0  0  0
  6  8  1  0  0  0  0
  7  9  1  0  0  0  0
  8  9  1  0  0  0  0
  9 10  1  1  0  0  0
  2 13  1  0  0  0  0
  2 14  1  0  0  0  0
  3 15  1  0  0  0  0
  3 16  1  0  0  0  0
  4 17  1  0  0  0  0
  4 18  1  0  0  0  0
  5 19  1  0  0  0  0
  5 20  1  0  0  0  0
  6 21  1  0  0  0  0
  7 22  1  0  0  0  0
  8 23  1  0  0  0  0
  9 24  1  0  0  0  0
M  END
> <id>
EN300-37407424

> <smiles>
ClC(=O)N1C[C@@H]2[C@H]1[C@H]3CC[C@@H]2C3 |&1:5,6,7,10,r|

> <IUPAC Name>
rac-(1R,2S,5S,6S)-3-azatricyclo[4.2.1.0,2,5]nonane-3-carbonyl chloride

> <URL>
https://www.enaminestore.com/catalog/EN300-37407424

> <ROCS_ShapeQuery>
x1247relevant_x1083L0AP1_x1305L0BP1_

> <ROCS_TanimotoCombo>
0.789 

> <ROCS_ShapeTanimoto>
0.478 

> <ROCS_ColorTanimoto>
0.311 

> <ROCS_RefTversky>
0.397 

> <ROCS_RefColorTversky>
0.382 

> <ROCS_RefTverskyCombo>
0.779 

> <ROCS_FitTversky>
1.750 

> <ROCS_FitColorTversky>
0.625 

> <ROCS_FitTverskyCombo>
2.375 

> <ROCS_ColorScore>
-8.168

> <ROCS_Overlap>
1165.638

> <ROCS_Rank>
470                 

$$$$
untitled-dbase-19155_0
  -OEChem-06162310163D

 19 21  0     1  0  0  0  0  0999 V2000
  -13.5704   16.3897  -38.1933 C   0  0  0  0  0  0  0  0  0  0  0  0
  -13.3831   15.9430  -39.4435 C   0  0  0  0  0  0  0  0  0  0  0  0
  -10.6432   14.5233  -36.5662 C   0  0  0  0  0  0  0  0  0  0  0  0
  -10.3201   13.7523  -38.7237 C   0  0  0  0  0  0  0  0  0  0  0  0
  -12.9111   15.3887  -37.2891 C   0  0  2  0  0  0  0  0  0  0  0  0
  -12.6072   14.6637  -39.3180 C   0  0  1  0  0  0  0  0  0  0  0  0
  -11.3870   15.5036  -37.4369 C   0  0  2  0  0  0  0  0  0  0  0  0
  -11.1703   14.9867  -38.8833 C   0  0  1  0  0  0  0  0  0  0  0  0
  -10.0664   13.5822  -37.3843 N   0  0  0  0  0  0  0  0  0  0  0  0
  -10.5952   14.5669  -35.3457 O   0  0  0  0  0  0  0  0  0  0  0  0
   -9.9523   13.0321  -39.6401 O   0  0  0  0  0  0  0  0  0  0  0  0
  -13.1572   14.1774  -38.0599 O   0  0  0  0  0  0  0  0  0  0  0  0
  -14.0400   17.3146  -37.9016 H   0  0  0  0  0  0  0  0  0  0  0  0
  -13.6722   16.4377  -40.3561 H   0  0  0  0  0  0  0  0  0  0  0  0
  -13.3212   15.2995  -36.2821 H   0  0  0  0  0  0  0  0  0  0  0  0
  -12.7477   13.9305  -40.1135 H   0  0  0  0  0  0  0  0  0  0  0  0
  -10.9988   16.5146  -37.2775 H   0  0  0  0  0  0  0  0  0  0  0  0
  -10.6615   15.7099  -39.5284 H   0  0  0  0  0  0  0  0  0  0  0  0
   -9.4981   12.8219  -37.0275 H   0  0  0  0  0  0  0  0  0  0  0  0
  1  2  2  0  0  0  0
  1  5  1  0  0  0  0
  2  6  1  0  0  0  0
  3  7  1  0  0  0  0
  3  9  1  0  0  0  0
  3 10  2  0  0  0  0
  4  8  1  0  0  0  0
  4  9  1  0  0  0  0
  4 11  2  0  0  0  0
  5  7  1  0  0  0  0
  5 12  1  0  0  0  0
  6  8  1  0  0  0  0
  6 12  1  0  0  0  0
  7  8  1  0  0  0  0
  1 13  1  0  0  0  0
  2 14  1  0  0  0  0
  5 15  1  0  0  0  0
  6 16  1  0  0  0  0
  7 17  1  0  0  0  0
  8 18  1  0  0  0  0
  9 19  1  0  0  0  0
M  END
> <id>
EN300-224463

> <smiles>
O=C1NC(=O)C2C3OC(C=C3)C21

> <MDLNUMBER>
MFCD01202674

> <IUPAC Name>
10-oxa-4-azatricyclo[5.2.1.0,2,6]dec-8-ene-3,5-dione

> <CAS>
6253-28-7

> <Purity>
95

> <URL>
https://www.enaminestore.com/catalog/EN300-224463

> <MP>
160-163

> <ROCS_ShapeQuery>
x1247relevant_x1083L0AP1_x1305L0BP1_

> <ROCS_TanimotoCombo>
0.789 

> <ROCS_ShapeTanimoto>
0.428 

> <ROCS_ColorTanimoto>
0.360 

> <ROCS_RefTversky>
0.371 

> <ROCS_RefColorTversky>
0.415 

> <ROCS_RefTverskyCombo>
0.786 

> <ROCS_FitTversky>
1.557 

> <ROCS_FitColorTversky>
0.733 

> <ROCS_FitTverskyCombo>
2.291 

> <ROCS_ColorScore>
-8.852

> <ROCS_Overlap>
1091.704

> <ROCS_Rank>
471                 

$$$$
untitled-dbase-16426_0
  -OEChem-06162310163D

 17 18  0     0  0  0  0  0  0999 V2000
  -10.4503   13.7302  -36.6548 C   0  0  0  0  0  0  0  0  0  0  0  0
   -9.3163   14.4697  -36.3741 C   0  0  0  0  0  0  0  0  0  0  0  0
  -12.6228   13.6866  -37.8043 C   0  0  0  0  0  0  0  0  0  0  0  0
  -11.4373   14.3254  -37.4510 C   0  0  0  0  0  0  0  0  0  0  0  0
  -11.2711   15.6260  -37.9411 C   0  0  0  0  0  0  0  0  0  0  0  0
  -10.0911   16.2610  -37.5893 C   0  0  0  0  0  0  0  0  0  0  0  0
  -13.3069   15.4986  -38.9801 C   0  0  0  0  0  0  0  0  0  0  0  0
   -9.1108   15.7247  -36.8227 N   0  0  0  0  0  0  0  0  0  0  0  0
  -13.5789   14.2485  -38.5689 N   0  0  0  0  0  0  0  0  0  0  0  0
  -12.2024   16.2226  -38.7080 N   0  0  0  0  0  0  0  0  0  0  0  0
  -14.2846   16.1236  -39.7847 N   0  0  0  0  0  0  0  0  0  0  0  0
   -9.7359   17.8653  -38.1126 Cl  0  0  0  0  0  0  0  0  0  0  0  0
  -10.5616   12.7233  -36.2663 H   0  0  0  0  0  0  0  0  0  0  0  0
   -8.5197   14.0592  -35.7630 H   0  0  0  0  0  0  0  0  0  0  0  0
  -12.8430   12.6761  -37.4727 H   0  0  0  0  0  0  0  0  0  0  0  0
  -14.1444   17.0699  -40.0732 H   0  0  0  0  0  0  0  0  0  0  0  0
  -15.1400   15.6425  -39.9719 H   0  0  0  0  0  0  0  0  0  0  0  0
  1  2  2  0  0  0  0
  1  4  1  0  0  0  0
  2  8  1  0  0  0  0
  3  4  2  0  0  0  0
  3  9  1  0  0  0  0
  4  5  1  0  0  0  0
  5  6  1  0  0  0  0
  5 10  2  0  0  0  0
  6  8  2  0  0  0  0
  6 12  1  0  0  0  0
  7  9  2  0  0  0  0
  7 10  1  0  0  0  0
  7 11  1  0  0  0  0
  1 13  1  0  0  0  0
  2 14  1  0  0  0  0
  3 15  1  0  0  0  0
 11 16  1  0  0  0  0
 11 17  1  0  0  0  0
M  END
> <id>
EN300-1162546

> <smiles>
NC=1N=CC=2C=CN=C(Cl)C2N1

> <MDLNUMBER>
MFCD31613395

> <IUPAC Name>
8-chloropyrido[3,4-d]pyrimidin-2-amine

> <CAS>
2138091-42-4

> <URL>
https://www.enaminestore.com/catalog/EN300-1162546

> <ROCS_ShapeQuery>
x1247relevant_x1083L0AP1_x1305L0BP1_

> <ROCS_TanimotoCombo>
0.788 

> <ROCS_ShapeTanimoto>
0.446 

> <ROCS_ColorTanimoto>
0.343 

> <ROCS_RefTversky>
0.379 

> <ROCS_RefColorTversky>
0.349 

> <ROCS_RefTverskyCombo>
0.728 

> <ROCS_FitTversky>
1.649 

> <ROCS_FitColorTversky>
0.948 

> <ROCS_FitTverskyCombo>
2.597 

> <ROCS_ColorScore>
-7.369

> <ROCS_Overlap>
1114.352

> <ROCS_Rank>
472                 

$$$$
untitled-dbase-17604_0
  -OEChem-06162310163D

 22 23  0     0  0  0  0  0  0999 V2000
  -11.1915   15.6178  -38.1335 C   0  0  0  0  0  0  0  0  0  0  0  0
  -12.1285   16.2217  -38.9609 C   0  0  0  0  0  0  0  0  0  0  0  0
  -11.5266   14.3985  -37.5542 C   0  0  0  0  0  0  0  0  0  0  0  0
  -13.3407   15.5870  -39.1403 C   0  0  0  0  0  0  0  0  0  0  0  0
   -9.8333   16.2245  -37.9190 C   0  0  0  0  0  0  0  0  0  0  0  0
  -10.5595   13.7208  -36.6255 C   0  0  0  0  0  0  0  0  0  0  0  0
   -9.1401   14.2220  -36.8619 C   0  0  0  0  0  0  0  0  0  0  0  0
  -11.8449   17.5144  -39.6504 C   0  0  0  0  0  0  0  0  0  0  0  0
  -12.7294   13.8114  -37.7486 N   0  0  0  0  0  0  0  0  0  0  0  0
  -13.6474   14.4117  -38.5544 N   0  0  0  0  0  0  0  0  0  0  0  0
   -9.1339   15.6497  -36.8082 O   0  0  0  0  0  0  0  0  0  0  0  0
  -14.3003   16.1392  -39.9445 O   0  0  0  0  0  0  0  0  0  0  0  0
  -10.6030   18.0156  -39.3828 F   0  0  0  0  0  0  0  0  0  0  0  0
  -11.9110   17.4329  -41.0119 F   0  0  0  0  0  0  0  0  0  0  0  0
  -12.7214   18.4994  -39.2988 F   0  0  0  0  0  0  0  0  0  0  0  0
   -9.2204   16.0978  -38.8192 H   0  0  0  0  0  0  0  0  0  0  0  0
   -9.9214   17.2951  -37.7078 H   0  0  0  0  0  0  0  0  0  0  0  0
  -10.8675   13.9588  -35.6004 H   0  0  0  0  0  0  0  0  0  0  0  0
  -10.6025   12.6343  -36.7543 H   0  0  0  0  0  0  0  0  0  0  0  0
   -8.4769   13.8496  -36.0747 H   0  0  0  0  0  0  0  0  0  0  0  0
   -8.7396   13.8856  -37.8263 H   0  0  0  0  0  0  0  0  0  0  0  0
  -15.0833   15.5703  -39.9607 H   0  0  0  0  0  0  0  0  0  0  0  0
  1  2  2  0  0  0  0
  1  3  1  0  0  0  0
  1  5  1  0  0  0  0
  2  4  1  0  0  0  0
  2  8  1  0  0  0  0
  3  6  1  0  0  0  0
  3  9  2  0  0  0  0
  4 10  2  0  0  0  0
  4 12  1  0  0  0  0
  5 11  1  0  0  0  0
  6  7  1  0  0  0  0
  7 11  1  0  0  0  0
  8 13  1  0  0  0  0
  8 14  1  0  0  0  0
  8 15  1  0  0  0  0
  9 10  1  0  0  0  0
  5 16  1  0  0  0  0
  5 17  1  0  0  0  0
  6 18  1  0  0  0  0
  6 19  1  0  0  0  0
  7 20  1  0  0  0  0
  7 21  1  0  0  0  0
 12 22  1  0  0  0  0
M  END
> <id>
EN300-1718143

> <smiles>
OC=1N=NC=2CCOCC2C1C(F)(F)F

> <MDLNUMBER>
MFCD31413209

> <IUPAC Name>
4-(trifluoromethyl)-5H,7H,8H-pyrano[4,3-c]pyridazin-3-ol

> <CAS>
2205134-29-6

> <Purity>
95

> <URL>
https://www.enaminestore.com/catalog/EN300-1718143

> <ROCS_ShapeQuery>
x1247relevant_x1083L0AP1_x1305L0BP1_

> <ROCS_TanimotoCombo>
0.788 

> <ROCS_ShapeTanimoto>
0.477 

> <ROCS_ColorTanimoto>
0.311 

> <ROCS_RefTversky>
0.412 

> <ROCS_RefColorTversky>
0.328 

> <ROCS_RefTverskyCombo>
0.740 

> <ROCS_FitTversky>
1.492 

> <ROCS_FitColorTversky>
0.860 

> <ROCS_FitTverskyCombo>
2.351 

> <ROCS_ColorScore>
-6.924

> <ROCS_Overlap>
1214.444

> <ROCS_Rank>
473                 

$$$$
untitled-dbase-37763_1
  -OEChem-06162310163D

 26 27  0     1  0  0  0  0  0999 V2000
  -12.7433   13.6549  -37.8419 C   0  0  0  0  0  0  0  0  0  0  0  0
  -11.7332   14.3530  -37.1986 C   0  0  0  0  0  0  0  0  0  0  0  0
  -11.6320   15.6950  -37.5410 C   0  0  0  0  0  0  0  0  0  0  0  0
  -13.3757   15.5043  -38.9988 C   0  0  0  0  0  0  0  0  0  0  0  0
  -10.6060   16.5491  -36.8551 C   0  0  0  0  0  0  0  0  0  0  0  0
  -10.8216   13.7250  -36.1783 C   0  0  1  0  0  0  0  0  0  0  0  0
   -9.4117   15.7146  -36.3949 C   0  0  2  0  0  0  0  0  0  0  0  0
  -10.1035   12.4719  -36.6810 C   0  0  0  0  0  0  0  0  0  0  0  0
   -8.4884   15.2869  -37.5331 C   0  0  0  0  0  0  0  0  0  0  0  0
  -13.5792   14.1988  -38.7509 N   0  0  0  0  0  0  0  0  0  0  0  0
  -12.4449   16.2977  -38.4382 N   0  0  0  0  0  0  0  0  0  0  0  0
  -14.2304   16.1083  -39.9464 N   0  0  0  0  0  0  0  0  0  0  0  0
   -9.8529   14.6138  -35.5976 O   0  0  0  0  0  0  0  0  0  0  0  0
  -12.9279   12.6054  -37.6376 H   0  0  0  0  0  0  0  0  0  0  0  0
  -10.2809   17.3106  -37.5791 H   0  0  0  0  0  0  0  0  0  0  0  0
  -11.0574   17.0698  -35.9994 H   0  0  0  0  0  0  0  0  0  0  0  0
  -11.4891   13.3940  -35.3187 H   0  0  0  0  0  0  0  0  0  0  0  0
   -8.7680   16.3787  -35.6968 H   0  0  0  0  0  0  0  0  0  0  0  0
   -9.4461   12.7300  -37.5099 H   0  0  0  0  0  0  0  0  0  0  0  0
  -10.8335   11.7386  -37.0205 H   0  0  0  0  0  0  0  0  0  0  0  0
   -9.5101   12.0384  -35.8774 H   0  0  0  0  0  0  0  0  0  0  0  0
   -9.0297   14.6533  -38.2366 H   0  0  0  0  0  0  0  0  0  0  0  0
   -7.6396   14.7283  -37.1369 H   0  0  0  0  0  0  0  0  0  0  0  0
   -8.1163   16.1644  -38.0634 H   0  0  0  0  0  0  0  0  0  0  0  0
  -14.9059   15.5451  -40.4207 H   0  0  0  0  0  0  0  0  0  0  0  0
  -14.0825   17.0649  -40.1943 H   0  0  0  0  0  0  0  0  0  0  0  0
  1  2  2  0  0  0  0
  1 10  1  0  0  0  0
  2  3  1  0  0  0  0
  2  6  1  0  0  0  0
  3  5  1  0  0  0  0
  3 11  2  0  0  0  0
  4 10  2  0  0  0  0
  4 11  1  0  0  0  0
  4 12  1  0  0  0  0
  5  7  1  0  0  0  0
  6  8  1  0  0  0  0
  6 13  1  0  0  0  0
  7  9  1  0  0  0  0
  7 13  1  0  0  0  0
  1 14  1  0  0  0  0
  5 15  1  0  0  0  0
  5 16  1  0  0  0  0
  6 17  1  0  0  0  0
  7 18  1  0  0  0  0
  8 19  1  0  0  0  0
  8 20  1  0  0  0  0
  8 21  1  0  0  0  0
  9 22  1  0  0  0  0
  9 23  1  0  0  0  0
  9 24  1  0  0  0  0
 12 25  1  0  0  0  0
 12 26  1  0  0  0  0
M  END
> <id>
EN300-1129054

> <smiles>
CC1CC=2N=C(N)N=CC2C(C)O1

> <MDLNUMBER>
MFCD24252720

> <IUPAC Name>
5,7-dimethyl-5H,7H,8H-pyrano[4,3-d]pyrimidin-2-amine

> <CAS>
1552525-43-5

> <URL>
https://www.enaminestore.com/catalog/EN300-1129054

> <ROCS_ShapeQuery>
x1247relevant_x1083L0AP1_x1305L0BP1_

> <ROCS_TanimotoCombo>
0.788 

> <ROCS_ShapeTanimoto>
0.449 

> <ROCS_ColorTanimoto>
0.339 

> <ROCS_RefTversky>
0.384 

> <ROCS_RefColorTversky>
0.346 

> <ROCS_RefTverskyCombo>
0.731 

> <ROCS_FitTversky>
1.600 

> <ROCS_FitColorTversky>
0.940 

> <ROCS_FitTverskyCombo>
2.540 

> <ROCS_ColorScore>
-7.307

> <ROCS_Overlap>
1130.301

> <ROCS_Rank>
474                 

$$$$
untitled-dbase-16570_4
  -OEChem-06162310163D

 33 35  0     1  0  0  0  0  0999 V2000
   -8.9451   14.8059  -37.6462 C   0  0  0  0  0  0  0  0  0  0  0  0
  -13.2062   14.6473  -41.1136 C   0  0  0  0  0  0  0  0  0  0  0  0
  -14.5594   15.0173  -40.5968 C   0  0  0  0  0  0  0  0  0  0  0  0
  -10.0524   15.6718  -38.2417 C   0  0  0  0  0  0  0  0  0  0  0  0
   -8.9759   14.8703  -36.1265 C   0  0  0  0  0  0  0  0  0  0  0  0
  -12.8108   16.4238  -39.2907 C   0  0  0  0  0  0  0  0  0  0  0  0
  -11.2856   15.3905  -36.0836 C   0  0  0  0  0  0  0  0  0  0  0  0
  -13.2319   13.9973  -38.5986 C   0  0  2  0  0  0  0  0  0  0  0  0
  -13.3649   15.0689  -39.6641 C   0  0  0  0  0  0  0  0  0  0  0  0
  -11.4327   15.3765  -37.6181 C   0  0  2  0  0  0  0  0  0  0  0  0
  -14.3060   14.1074  -37.5134 C   0  0  0  0  0  0  0  0  0  0  0  0
  -11.8717   14.0386  -38.0583 N   0  0  0  0  0  0  0  0  0  0  0  0
  -10.2624   14.5044  -35.6323 O   0  0  0  0  0  0  0  0  0  0  0  0
  -12.3489   16.4374  -37.9395 O   0  0  0  0  0  0  0  0  0  0  0  0
   -9.0531   13.7687  -37.9826 H   0  0  0  0  0  0  0  0  0  0  0  0
   -7.9742   15.1688  -38.0063 H   0  0  0  0  0  0  0  0  0  0  0  0
  -13.0185   13.6080  -41.3515 H   0  0  0  0  0  0  0  0  0  0  0  0
  -12.7230   15.3349  -41.7999 H   0  0  0  0  0  0  0  0  0  0  0  0
  -14.9908   15.9545  -40.9361 H   0  0  0  0  0  0  0  0  0  0  0  0
  -15.2946   14.2282  -40.4940 H   0  0  0  0  0  0  0  0  0  0  0  0
   -9.7618   16.7262  -38.1198 H   0  0  0  0  0  0  0  0  0  0  0  0
  -10.0914   15.4921  -39.3301 H   0  0  0  0  0  0  0  0  0  0  0  0
   -8.2149   14.2168  -35.6832 H   0  0  0  0  0  0  0  0  0  0  0  0
   -8.7676   15.8921  -35.7925 H   0  0  0  0  0  0  0  0  0  0  0  0
  -11.9958   16.7147  -39.9689 H   0  0  0  0  0  0  0  0  0  0  0  0
  -13.5758   17.2093  -39.3760 H   0  0  0  0  0  0  0  0  0  0  0  0
  -10.9990   16.3942  -35.7356 H   0  0  0  0  0  0  0  0  0  0  0  0
  -12.2292   15.1283  -35.5788 H   0  0  0  0  0  0  0  0  0  0  0  0
  -13.4124   13.0262  -39.1059 H   0  0  0  0  0  0  0  0  0  0  0  0
  -14.1871   15.0441  -36.9722 H   0  0  0  0  0  0  0  0  0  0  0  0
  -14.2109   13.2770  -36.8165 H   0  0  0  0  0  0  0  0  0  0  0  0
  -15.2937   14.0806  -37.9697 H   0  0  0  0  0  0  0  0  0  0  0  0
  -11.8087   13.3905  -37.2640 H   0  0  0  0  0  0  0  0  0  0  0  0
  1  4  1  0  0  0  0
  1  5  1  0  0  0  0
  2  3  1  0  0  0  0
  2  9  1  0  0  0  0
  3  9  1  0  0  0  0
  4 10  1  0  0  0  0
  5 13  1  0  0  0  0
  6  9  1  0  0  0  0
  6 14  1  0  0  0  0
  7 10  1  0  0  0  0
  7 13  1  0  0  0  0
  8  9  1  0  0  0  0
  8 11  1  0  0  0  0
  8 12  1  0  0  0  0
 10 12  1  0  0  0  0
 10 14  1  0  0  0  0
  1 15  1  0  0  0  0
  1 16  1  0  0  0  0
  2 17  1  0  0  0  0
  2 18  1  0  0  0  0
  3 19  1  0  0  0  0
  3 20  1  0  0  0  0
  4 21  1  0  0  0  0
  4 22  1  0  0  0  0
  5 23  1  0  0  0  0
  5 24  1  0  0  0  0
  6 25  1  0  0  0  0
  6 26  1  0  0  0  0
  7 27  1  0  0  0  0
  7 28  1  0  0  0  0
  8 29  1  0  0  0  0
 11 30  1  0  0  0  0
 11 31  1  0  0  0  0
 11 32  1  0  0  0  0
 12 33  1  0  0  0  0
M  END
> <id>
EN300-1280572

> <smiles>
CC1NC2(CCCOC2)OCC31CC3

> <IUPAC Name>
13-methyl-5,8-dioxa-12-azadispiro[2.2.5^{6}.2^{3}]tridecane

> <CAS>
2167731-80-6

> <URL>
https://www.enaminestore.com/catalog/EN300-1280572

> <ROCS_ShapeQuery>
x1247relevant_x1083L0AP1_x1305L0BP1_

> <ROCS_TanimotoCombo>
0.788 

> <ROCS_ShapeTanimoto>
0.476 

> <ROCS_ColorTanimoto>
0.311 

> <ROCS_RefTversky>
0.404 

> <ROCS_RefColorTversky>
0.314 

> <ROCS_RefTverskyCombo>
0.718 

> <ROCS_FitTversky>
1.605 

> <ROCS_FitColorTversky>
0.974 

> <ROCS_FitTverskyCombo>
2.579 

> <ROCS_ColorScore>
-6.614

> <ROCS_Overlap>
1188.088

> <ROCS_Rank>
475                 

$$$$
untitled-dbase-40368_220
  -OEChem-06162310163D

 34 35  0     1  0  0  0  0  0999 V2000
  -10.0041   14.8045  -37.0594 C   0  0  0  0  0  0  0  0  0  0  0  0
  -12.0873   16.1938  -39.5475 C   0  0  0  0  0  0  0  0  0  0  0  0
  -13.2674   13.8855  -39.3698 C   0  0  0  0  0  0  0  0  0  0  0  0
  -11.4055   16.4947  -38.2170 C   0  0  0  0  0  0  0  0  0  0  0  0
  -12.5244   14.6473  -36.9886 C   0  0  0  0  0  0  0  0  0  0  0  0
  -13.5489   14.6090  -38.0815 C   0  0  1  0  0  0  0  0  0  0  0  0
  -13.3426   15.3937  -39.3559 C   0  0  1  0  0  0  0  0  0  0  0  0
  -10.0491   13.9565  -34.5765 C   0  0  0  0  0  0  0  0  0  0  0  0
  -10.3110   11.6092  -35.4315 C   0  0  0  0  0  0  0  0  0  0  0  0
   -8.0841   12.7590  -35.5961 C   0  0  0  0  0  0  0  0  0  0  0  0
   -9.6002   12.9461  -35.6312 C   0  0  0  0  0  0  0  0  0  0  0  0
  -11.2699   15.2762  -37.4192 N   0  0  0  0  0  0  0  0  0  0  0  0
   -9.0222   15.5224  -36.8788 O   0  0  0  0  0  0  0  0  0  0  0  0
  -14.5180   15.9705  -39.9471 O   0  0  0  0  0  0  0  0  0  0  0  0
   -9.9687   13.4419  -36.9233 O   0  0  0  0  0  0  0  0  0  0  0  0
  -12.3156   17.1410  -40.0503 H   0  0  0  0  0  0  0  0  0  0  0  0
  -11.3975   15.6511  -40.2054 H   0  0  0  0  0  0  0  0  0  0  0  0
  -12.2999   13.4139  -39.4959 H   0  0  0  0  0  0  0  0  0  0  0  0
  -14.0826   13.3365  -39.8265 H   0  0  0  0  0  0  0  0  0  0  0  0
  -10.4297   16.9574  -38.3946 H   0  0  0  0  0  0  0  0  0  0  0  0
  -12.0031   17.2024  -37.6297 H   0  0  0  0  0  0  0  0  0  0  0  0
  -12.9036   15.2502  -36.1556 H   0  0  0  0  0  0  0  0  0  0  0  0
  -12.3536   13.6354  -36.6098 H   0  0  0  0  0  0  0  0  0  0  0  0
  -14.5530   14.5178  -37.6832 H   0  0  0  0  0  0  0  0  0  0  0  0
   -9.5411   14.9174  -34.7164 H   0  0  0  0  0  0  0  0  0  0  0  0
  -11.1301   14.1259  -34.6144 H   0  0  0  0  0  0  0  0  0  0  0  0
   -9.7878   13.6125  -33.5692 H   0  0  0  0  0  0  0  0  0  0  0  0
   -9.9920   10.8812  -36.1861 H   0  0  0  0  0  0  0  0  0  0  0  0
  -11.3948   11.7219  -35.5501 H   0  0  0  0  0  0  0  0  0  0  0  0
  -10.1124   11.1902  -34.4397 H   0  0  0  0  0  0  0  0  0  0  0  0
   -7.7619   12.0343  -36.3525 H   0  0  0  0  0  0  0  0  0  0  0  0
   -7.5572   13.7020  -35.7744 H   0  0  0  0  0  0  0  0  0  0  0  0
   -7.7632   12.3585  -34.6277 H   0  0  0  0  0  0  0  0  0  0  0  0
  -14.3311   16.0370  -40.8925 H   0  0  0  0  0  0  0  0  0  0  0  0
  1 12  1  0  0  0  0
  1 13  2  0  0  0  0
  1 15  1  0  0  0  0
  2  4  1  0  0  0  0
  2  7  1  0  0  0  0
  3  6  1  0  0  0  0
  3  7  1  0  0  0  0
  4 12  1  0  0  0  0
  5  6  1  0  0  0  0
  5 12  1  0  0  0  0
  6  7  1  0  0  0  0
  7 14  1  0  0  0  0
  8 11  1  0  0  0  0
  9 11  1  0  0  0  0
 10 11  1  0  0  0  0
 11 15  1  0  0  0  0
  2 16  1  0  0  0  0
  2 17  1  0  0  0  0
  3 18  1  0  0  0  0
  3 19  1  0  0  0  0
  4 20  1  0  0  0  0
  4 21  1  0  0  0  0
  5 22  1  0  0  0  0
  5 23  1  0  0  0  0
  6 24  1  0  0  0  0
  8 25  1  0  0  0  0
  8 26  1  0  0  0  0
  8 27  1  0  0  0  0
  9 28  1  0  0  0  0
  9 29  1  0  0  0  0
  9 30  1  0  0  0  0
 10 31  1  0  0  0  0
 10 32  1  0  0  0  0
 10 33  1  0  0  0  0
 14 34  1  0  0  0  0
M  END
> <id>
EN300-7180210

> <smiles>
CC(C)(C)OC(=O)N1CCC2(O)CC2C1

> <MDLNUMBER>
MFCD30745630

> <IUPAC Name>
tert-butyl 6-hydroxy-3-azabicyclo[4.1.0]heptane-3-carboxylate

> <CAS>
2167453-53-2

> <Purity>
95

> <URL>
https://www.enaminestore.com/catalog/EN300-7180210

> <ROCS_ShapeQuery>
x1247relevant_x1083L0AP1_x1305L0BP1_

> <ROCS_TanimotoCombo>
0.788 

> <ROCS_ShapeTanimoto>
0.471 

> <ROCS_ColorTanimoto>
0.317 

> <ROCS_RefTversky>
0.404 

> <ROCS_RefColorTversky>
0.338 

> <ROCS_RefTverskyCombo>
0.742 

> <ROCS_FitTversky>
1.537 

> <ROCS_FitColorTversky>
0.837 

> <ROCS_FitTverskyCombo>
2.374 

> <ROCS_ColorScore>
-7.139

> <ROCS_Overlap>
1190.681

> <ROCS_Rank>
476                 

$$$$
untitled-dbase-18013_37
  -OEChem-06162310163D

 32 33  0     1  0  0  0  0  0999 V2000
  -12.3786   16.1977  -39.3607 C   0  0  0  0  0  0  0  0  0  0  0  0
  -10.4590   15.0499  -36.9607 C   0  0  0  0  0  0  0  0  0  0  0  0
  -13.0604   16.7647  -38.1225 C   0  0  0  0  0  0  0  0  0  0  0  0
  -13.0997   13.9021  -39.0343 C   0  0  0  0  0  0  0  0  0  0  0  0
  -13.8275   14.3919  -37.7457 C   0  0  0  0  0  0  0  0  0  0  0  0
  -11.8590   14.7931  -39.0807 C   0  0  2  0  0  0  0  0  0  0  0  0
  -12.9195   15.5267  -37.2275 C   0  0  1  0  0  0  0  0  0  0  0  0
   -8.9645   13.0475  -37.7455 C   0  0  0  0  0  0  0  0  0  0  0  0
   -7.7018   14.6314  -39.2308 C   0  0  0  0  0  0  0  0  0  0  0  0
   -7.3280   14.6787  -36.7476 C   0  0  0  0  0  0  0  0  0  0  0  0
   -8.3480   14.4408  -37.8602 C   0  0  0  0  0  0  0  0  0  0  0  0
  -11.6330   15.0488  -37.6750 N   0  0  0  0  0  0  0  0  0  0  0  0
  -12.3765   16.7378  -40.4576 O   0  0  0  0  0  0  0  0  0  0  0  0
  -10.3742   14.7576  -35.7705 O   0  0  0  0  0  0  0  0  0  0  0  0
   -9.3922   15.4127  -37.7368 O   0  0  0  0  0  0  0  0  0  0  0  0
  -12.4889   17.6175  -37.7474 H   0  0  0  0  0  0  0  0  0  0  0  0
  -14.1003   17.0265  -38.3280 H   0  0  0  0  0  0  0  0  0  0  0  0
  -12.8279   12.8463  -38.9293 H   0  0  0  0  0  0  0  0  0  0  0  0
  -13.7406   14.0198  -39.9146 H   0  0  0  0  0  0  0  0  0  0  0  0
  -14.8462   14.7297  -37.9599 H   0  0  0  0  0  0  0  0  0  0  0  0
  -13.8779   13.5730  -37.0191 H   0  0  0  0  0  0  0  0  0  0  0  0
  -10.9944   14.4904  -39.6676 H   0  0  0  0  0  0  0  0  0  0  0  0
  -12.9933   15.7295  -36.1573 H   0  0  0  0  0  0  0  0  0  0  0  0
   -9.4293   12.9067  -36.7631 H   0  0  0  0  0  0  0  0  0  0  0  0
   -9.7228   12.8771  -38.5166 H   0  0  0  0  0  0  0  0  0  0  0  0
   -8.1963   12.2712  -37.8380 H   0  0  0  0  0  0  0  0  0  0  0  0
   -7.2582   15.6298  -39.3175 H   0  0  0  0  0  0  0  0  0  0  0  0
   -8.4494   14.5554  -40.0287 H   0  0  0  0  0  0  0  0  0  0  0  0
   -6.9203   13.8875  -39.4159 H   0  0  0  0  0  0  0  0  0  0  0  0
   -6.8856   15.6781  -36.8297 H   0  0  0  0  0  0  0  0  0  0  0  0
   -7.7827   14.5824  -35.7563 H   0  0  0  0  0  0  0  0  0  0  0  0
   -6.4983   13.9663  -36.8208 H   0  0  0  0  0  0  0  0  0  0  0  0
  1  3  1  0  0  0  0
  1  6  1  0  0  0  0
  1 13  2  0  0  0  0
  2 12  1  0  0  0  0
  2 14  2  0  0  0  0
  2 15  1  0  0  0  0
  3  7  1  0  0  0  0
  4  5  1  0  0  0  0
  4  6  1  0  0  0  0
  5  7  1  0  0  0  0
  6 12  1  0  0  0  0
  7 12  1  0  0  0  0
  8 11  1  0  0  0  0
  9 11  1  0  0  0  0
 10 11  1  0  0  0  0
 11 15  1  0  0  0  0
  3 16  1  0  0  0  0
  3 17  1  0  0  0  0
  4 18  1  0  0  0  0
  4 19  1  0  0  0  0
  5 20  1  0  0  0  0
  5 21  1  0  0  0  0
  6 22  1  0  0  0  0
  7 23  1  0  0  0  0
  8 24  1  0  0  0  0
  8 25  1  0  0  0  0
  8 26  1  0  0  0  0
  9 27  1  0  0  0  0
  9 28  1  0  0  0  0
  9 29  1  0  0  0  0
 10 30  1  0  0  0  0
 10 31  1  0  0  0  0
 10 32  1  0  0  0  0
M  END
> <id>
EN300-189476

> <smiles>
CC(C)(C)OC(=O)N1C2CCC1C(=O)C2

> <MDLNUMBER>
MFCD18633018

> <IUPAC Name>
tert-butyl 2-oxo-7-azabicyclo[2.2.1]heptane-7-carboxylate

> <CAS>
152533-47-6

> <URL>
https://www.enaminestore.com/catalog/EN300-189476

> <ROCS_ShapeQuery>
x1247relevant_x1083L0AP1_x1305L0BP1_

> <ROCS_TanimotoCombo>
0.788 

> <ROCS_ShapeTanimoto>
0.475 

> <ROCS_ColorTanimoto>
0.312 

> <ROCS_RefTversky>
0.409 

> <ROCS_RefColorTversky>
0.351 

> <ROCS_RefTverskyCombo>
0.760 

> <ROCS_FitTversky>
1.514 

> <ROCS_FitColorTversky>
0.742 

> <ROCS_FitTverskyCombo>
2.255 

> <ROCS_ColorScore>
-7.444

> <ROCS_Overlap>
1205.250

> <ROCS_Rank>
477                 

$$$$
untitled-dbase-48240_0
  -OEChem-06162310163D

 26 27  0     1  0  0  0  0  0999 V2000
  -12.2871   16.5888  -40.6822 C   0  0  0  0  0  0  0  0  0  0  0  0
  -13.8752   15.6906  -37.5787 C   0  0  0  0  0  0  0  0  0  0  0  0
  -12.8902   16.5991  -37.6812 C   0  0  0  0  0  0  0  0  0  0  0  0
   -9.9389   14.8401  -36.9207 C   0  0  0  0  0  0  0  0  0  0  0  0
  -13.1326   14.4937  -39.6024 C   0  0  0  0  0  0  0  0  0  0  0  0
  -12.2349   13.8720  -37.3508 C   0  0  0  0  0  0  0  0  0  0  0  0
  -11.9582   15.5104  -39.7330 C   0  0  2  0  0  0  0  0  0  0  0  0
  -13.5065   14.3183  -38.1078 C   0  0  1  0  0  0  0  0  0  0  0  0
  -11.6183   16.0753  -38.3265 C   0  0  2  0  0  0  0  0  0  0  0  0
   -8.4927   13.5016  -35.5926 C   0  0  0  0  0  0  0  0  0  0  0  0
  -12.5460   17.4378  -41.4295 N   0  0  0  0  0  0  0  0  0  0  0  0
  -11.2039   14.9230  -37.4924 N   0  0  0  0  0  0  0  0  0  0  0  0
   -9.0700   15.7026  -37.0274 O   0  0  0  0  0  0  0  0  0  0  0  0
   -9.7689   13.6763  -36.2183 O   0  0  0  0  0  0  0  0  0  0  0  0
  -14.8440   15.9071  -37.1498 H   0  0  0  0  0  0  0  0  0  0  0  0
  -12.9883   17.6225  -37.3450 H   0  0  0  0  0  0  0  0  0  0  0  0
  -14.0130   14.8152  -40.1744 H   0  0  0  0  0  0  0  0  0  0  0  0
  -12.8234   13.5272  -40.0202 H   0  0  0  0  0  0  0  0  0  0  0  0
  -12.4305   13.7271  -36.2816 H   0  0  0  0  0  0  0  0  0  0  0  0
  -11.8319   12.9360  -37.7537 H   0  0  0  0  0  0  0  0  0  0  0  0
  -11.0786   14.9818  -40.1247 H   0  0  0  0  0  0  0  0  0  0  0  0
  -14.3238   13.6033  -37.9786 H   0  0  0  0  0  0  0  0  0  0  0  0
  -10.8396   16.8437  -38.3576 H   0  0  0  0  0  0  0  0  0  0  0  0
   -8.4727   12.5449  -35.0650 H   0  0  0  0  0  0  0  0  0  0  0  0
   -8.3147   14.3205  -34.8911 H   0  0  0  0  0  0  0  0  0  0  0  0
   -7.7162   13.5075  -36.3612 H   0  0  0  0  0  0  0  0  0  0  0  0
  1  7  1  0  0  0  0
  1 11  3  0  0  0  0
  2  3  2  0  0  0  0
  2  8  1  0  0  0  0
  3  9  1  0  0  0  0
  4 12  1  0  0  0  0
  4 13  2  0  0  0  0
  4 14  1  0  0  0  0
  5  7  1  0  0  0  0
  5  8  1  0  0  0  0
  6  8  1  0  0  0  0
  6 12  1  0  0  0  0
  7  9  1  0  0  0  0
  9 12  1  0  0  0  0
 10 14  1  0  0  0  0
  2 15  1  0  0  0  0
  3 16  1  0  0  0  0
  5 17  1  0  0  0  0
  5 18  1  0  0  0  0
  6 19  1  0  0  0  0
  6 20  1  0  0  0  0
  7 21  1  0  0  0  0
  8 22  1  0  0  0  0
  9 23  1  0  0  0  0
 10 24  1  0  0  0  0
 10 25  1  0  0  0  0
 10 26  1  0  0  0  0
M  END
> <id>
EN300-250280

> <smiles>
COC(=O)N1CC2CC(C#N)C1C=C2

> <MDLNUMBER>
MFCD29054928

> <IUPAC Name>
methyl 7-cyano-2-azabicyclo[2.2.2]oct-5-ene-2-carboxylate

> <CAS>
1909313-36-5

> <Purity>
95

> <URL>
https://www.enaminestore.com/catalog/EN300-250280

> <ROCS_ShapeQuery>
x1247relevant_x1083L0AP1_x1305L0BP1_

> <ROCS_TanimotoCombo>
0.788 

> <ROCS_ShapeTanimoto>
0.490 

> <ROCS_ColorTanimoto>
0.298 

> <ROCS_RefTversky>
0.412 

> <ROCS_RefColorTversky>
0.325 

> <ROCS_RefTverskyCombo>
0.737 

> <ROCS_FitTversky>
1.627 

> <ROCS_FitColorTversky>
0.785 

> <ROCS_FitTverskyCombo>
2.412 

> <ROCS_ColorScore>
-6.872

> <ROCS_Overlap>
1211.755

> <ROCS_Rank>
478                 

$$$$
untitled-dbase-30698_222
  -OEChem-06162310163D

 34 35  0     1  0  0  0  0  0999 V2000
  -10.0069   14.8078  -37.0513 C   0  0  0  0  0  0  0  0  0  0  0  0
  -12.0831   16.1726  -39.5609 C   0  0  0  0  0  0  0  0  0  0  0  0
  -13.2849   13.8763  -39.3474 C   0  0  0  0  0  0  0  0  0  0  0  0
  -11.3977   16.4880  -38.2358 C   0  0  0  0  0  0  0  0  0  0  0  0
  -12.5280   14.6660  -36.9804 C   0  0  0  0  0  0  0  0  0  0  0  0
  -13.5554   14.6231  -38.0702 C   0  0  1  0  0  0  0  0  0  0  0  0
  -13.3447   15.3854  -39.3575 C   0  0  1  0  0  0  0  0  0  0  0  0
  -10.0608   13.9952  -34.5566 C   0  0  0  0  0  0  0  0  0  0  0  0
  -10.3329   11.6374  -35.3788 C   0  0  0  0  0  0  0  0  0  0  0  0
   -8.0999   12.7736  -35.5553 C   0  0  0  0  0  0  0  0  0  0  0  0
   -9.6150   12.9677  -35.5960 C   0  0  0  0  0  0  0  0  0  0  0  0
  -11.2698   15.2806  -37.4204 N   0  0  0  0  0  0  0  0  0  0  0  0
   -9.0217   15.5231  -36.8790 O   0  0  0  0  0  0  0  0  0  0  0  0
  -14.5177   15.9690  -39.9469 O   0  0  0  0  0  0  0  0  0  0  0  0
   -9.9786   13.4470  -36.8958 O   0  0  0  0  0  0  0  0  0  0  0  0
  -12.3033   17.1140  -40.0783 H   0  0  0  0  0  0  0  0  0  0  0  0
  -11.3985   15.6139  -40.2107 H   0  0  0  0  0  0  0  0  0  0  0  0
  -12.3224   13.3931  -39.4686 H   0  0  0  0  0  0  0  0  0  0  0  0
  -14.1071   13.3283  -39.7926 H   0  0  0  0  0  0  0  0  0  0  0  0
  -10.4188   16.9409  -38.4213 H   0  0  0  0  0  0  0  0  0  0  0  0
  -11.9893   17.2084  -37.6581 H   0  0  0  0  0  0  0  0  0  0  0  0
  -12.9011   15.2810  -36.1533 H   0  0  0  0  0  0  0  0  0  0  0  0
  -12.3637   13.6576  -36.5905 H   0  0  0  0  0  0  0  0  0  0  0  0
  -14.5595   14.5491  -37.6683 H   0  0  0  0  0  0  0  0  0  0  0  0
   -9.5477   14.9515  -34.7091 H   0  0  0  0  0  0  0  0  0  0  0  0
  -11.1409   14.1694  -34.5990 H   0  0  0  0  0  0  0  0  0  0  0  0
   -9.8031   13.6642  -33.5440 H   0  0  0  0  0  0  0  0  0  0  0  0
  -10.0161   10.8972  -36.1224 H   0  0  0  0  0  0  0  0  0  0  0  0
  -11.4158   11.7537  -35.5011 H   0  0  0  0  0  0  0  0  0  0  0  0
  -10.1383   11.2315  -34.3808 H   0  0  0  0  0  0  0  0  0  0  0  0
   -7.7799   12.0366  -36.3008 H   0  0  0  0  0  0  0  0  0  0  0  0
   -7.5679   13.7113  -35.7459 H   0  0  0  0  0  0  0  0  0  0  0  0
   -7.7829   12.3852  -34.5807 H   0  0  0  0  0  0  0  0  0  0  0  0
  -14.3349   16.0273  -40.8937 H   0  0  0  0  0  0  0  0  0  0  0  0
  1 12  1  0  0  0  0
  1 13  2  0  0  0  0
  1 15  1  0  0  0  0
  2  4  1  0  0  0  0
  2  7  1  0  0  0  0
  3  6  1  1  0  0  0
  3  7  1  0  0  0  0
  4 12  1  0  0  0  0
  5  6  1  0  0  0  0
  5 12  1  0  0  0  0
  6  7  1  0  0  0  0
  7 14  1  6  0  0  0
  8 11  1  0  0  0  0
  9 11  1  0  0  0  0
 10 11  1  0  0  0  0
 11 15  1  0  0  0  0
  2 16  1  0  0  0  0
  2 17  1  0  0  0  0
  3 18  1  0  0  0  0
  3 19  1  0  0  0  0
  4 20  1  0  0  0  0
  4 21  1  0  0  0  0
  5 22  1  0  0  0  0
  5 23  1  0  0  0  0
  6 24  1  0  0  0  0
  8 25  1  0  0  0  0
  8 26  1  0  0  0  0
  8 27  1  0  0  0  0
  9 28  1  0  0  0  0
  9 29  1  0  0  0  0
  9 30  1  0  0  0  0
 10 31  1  0  0  0  0
 10 32  1  0  0  0  0
 10 33  1  0  0  0  0
 14 34  1  0  0  0  0
M  END
> <id>
EN300-7109104

> <smiles>
CC(C)(C)OC(=O)N1CC[C@@]2(O)C[C@H]2C1 |&1:10,13,r|

> <IUPAC Name>
rac-tert-butyl (1R,6R)-6-hydroxy-3-azabicyclo[4.1.0]heptane-3-carboxylate

> <CAS>
2413847-46-6

> <URL>
https://www.enaminestore.com/catalog/EN300-7109104

> <ROCS_ShapeQuery>
x1247relevant_x1083L0AP1_x1305L0BP1_

> <ROCS_TanimotoCombo>
0.788 

> <ROCS_ShapeTanimoto>
0.471 

> <ROCS_ColorTanimoto>
0.317 

> <ROCS_RefTversky>
0.404 

> <ROCS_RefColorTversky>
0.338 

> <ROCS_RefTverskyCombo>
0.742 

> <ROCS_FitTversky>
1.537 

> <ROCS_FitColorTversky>
0.837 

> <ROCS_FitTverskyCombo>
2.374 

> <ROCS_ColorScore>
-7.141

> <ROCS_Overlap>
1190.391

> <ROCS_Rank>
479                 

$$$$
untitled-dbase-52710_67
  -OEChem-06162310163D

 34 35  0     1  0  0  0  0  0999 V2000
  -10.2639   15.8984  -37.5141 C   0  0  0  0  0  0  0  0  0  0  0  0
  -12.9349   13.7409  -37.8377 C   0  0  0  0  0  0  0  0  0  0  0  0
  -12.5196   13.9930  -39.3106 C   0  0  0  0  0  0  0  0  0  0  0  0
  -13.7079   16.1050  -37.6305 C   0  0  0  0  0  0  0  0  0  0  0  0
  -12.6405   15.0941  -37.1664 C   0  0  2  0  0  0  0  0  0  0  0  0
  -12.0669   15.4650  -39.2851 C   0  0  1  0  0  0  0  0  0  0  0  0
  -13.2859   16.3908  -39.0970 C   0  0  1  0  0  0  0  0  0  0  0  0
   -7.5554   15.3276  -36.8065 C   0  0  0  0  0  0  0  0  0  0  0  0
   -8.5268   13.8046  -35.0612 C   0  0  0  0  0  0  0  0  0  0  0  0
   -8.9551   13.3520  -37.4943 C   0  0  0  0  0  0  0  0  0  0  0  0
   -8.7380   14.4334  -36.4368 C   0  0  0  0  0  0  0  0  0  0  0  0
  -11.5080   15.5299  -37.9512 N   0  0  0  0  0  0  0  0  0  0  0  0
   -9.5459   16.7166  -38.0832 O   0  0  0  0  0  0  0  0  0  0  0  0
  -14.3425   16.1071  -39.9921 O   0  0  0  0  0  0  0  0  0  0  0  0
   -9.9166   15.2434  -36.3645 O   0  0  0  0  0  0  0  0  0  0  0  0
  -13.9859   13.4464  -37.7568 H   0  0  0  0  0  0  0  0  0  0  0  0
  -12.3157   12.9457  -37.4074 H   0  0  0  0  0  0  0  0  0  0  0  0
  -11.6836   13.3353  -39.5756 H   0  0  0  0  0  0  0  0  0  0  0  0
  -13.3406   13.7973  -40.0060 H   0  0  0  0  0  0  0  0  0  0  0  0
  -14.7283   15.7183  -37.5445 H   0  0  0  0  0  0  0  0  0  0  0  0
  -13.6301   17.0261  -37.0412 H   0  0  0  0  0  0  0  0  0  0  0  0
  -12.4747   15.0535  -36.0883 H   0  0  0  0  0  0  0  0  0  0  0  0
  -11.3966   15.7473  -40.0989 H   0  0  0  0  0  0  0  0  0  0  0  0
  -13.0047   17.4450  -39.2033 H   0  0  0  0  0  0  0  0  0  0  0  0
   -7.7032   15.7808  -37.7933 H   0  0  0  0  0  0  0  0  0  0  0  0
   -7.4108   16.1285  -36.0741 H   0  0  0  0  0  0  0  0  0  0  0  0
   -6.6293   14.7448  -36.8696 H   0  0  0  0  0  0  0  0  0  0  0  0
   -9.3730   13.1622  -34.7918 H   0  0  0  0  0  0  0  0  0  0  0  0
   -8.4654   14.5758  -34.2848 H   0  0  0  0  0  0  0  0  0  0  0  0
   -7.6116   13.2048  -35.0274 H   0  0  0  0  0  0  0  0  0  0  0  0
   -9.8033   12.7105  -37.2293 H   0  0  0  0  0  0  0  0  0  0  0  0
   -9.1449   13.7857  -38.4815 H   0  0  0  0  0  0  0  0  0  0  0  0
   -8.0807   12.6950  -37.5649 H   0  0  0  0  0  0  0  0  0  0  0  0
  -14.0206   16.3041  -40.8891 H   0  0  0  0  0  0  0  0  0  0  0  0
  1 12  1  0  0  0  0
  1 13  2  0  0  0  0
  1 15  1  0  0  0  0
  2  3  1  0  0  0  0
  2  5  1  6  0  0  0
  3  6  1  6  0  0  0
  4  5  1  0  0  0  0
  4  7  1  0  0  0  0
  5 12  1  0  0  0  0
  6  7  1  0  0  0  0
  6 12  1  0  0  0  0
  7 14  1  6  0  0  0
  8 11  1  0  0  0  0
  9 11  1  0  0  0  0
 10 11  1  0  0  0  0
 11 15  1  0  0  0  0
  2 16  1  0  0  0  0
  2 17  1  0  0  0  0
  3 18  1  0  0  0  0
  3 19  1  0  0  0  0
  4 20  1  0  0  0  0
  4 21  1  0  0  0  0
  5 22  1  0  0  0  0
  6 23  1  0  0  0  0
  7 24  1  0  0  0  0
  8 25  1  0  0  0  0
  8 26  1  0  0  0  0
  8 27  1  0  0  0  0
  9 28  1  0  0  0  0
  9 29  1  0  0  0  0
  9 30  1  0  0  0  0
 10 31  1  0  0  0  0
 10 32  1  0  0  0  0
 10 33  1  0  0  0  0
 14 34  1  0  0  0  0
M  END
> <id>
EN300-39676316

> <smiles>
CC(C)(C)OC(=O)N1[C@@H]2CC[C@H]1[C@@H](O)C2 |&1:8,11,12,r|

> <IUPAC Name>
rac-tert-butyl (1R,2R,4S)-2-hydroxy-7-azabicyclo[2.2.1]heptane-7-carboxylate

> <URL>
https://www.enaminestore.com/catalog/EN300-39676316

> <ROCS_ShapeQuery>
x1247relevant_x1083L0AP1_x1305L0BP1_

> <ROCS_TanimotoCombo>
0.788 

> <ROCS_ShapeTanimoto>
0.472 

> <ROCS_ColorTanimoto>
0.316 

> <ROCS_RefTversky>
0.407 

> <ROCS_RefColorTversky>
0.363 

> <ROCS_RefTverskyCombo>
0.770 

> <ROCS_FitTversky>
1.516 

> <ROCS_FitColorTversky>
0.707 

> <ROCS_FitTverskyCombo>
2.222 

> <ROCS_ColorScore>
-7.730

> <ROCS_Overlap>
1197.561

> <ROCS_Rank>
480                 

$$$$
untitled-dbase-51072_38
  -OEChem-06162310163D

 32 33  0     1  0  0  0  0  0999 V2000
  -12.3789   16.1975  -39.3606 C   0  0  0  0  0  0  0  0  0  0  0  0
  -10.4590   15.0518  -36.9616 C   0  0  0  0  0  0  0  0  0  0  0  0
  -13.0607   16.7641  -38.1221 C   0  0  0  0  0  0  0  0  0  0  0  0
  -13.1002   13.9018  -39.0347 C   0  0  0  0  0  0  0  0  0  0  0  0
  -13.8279   14.3914  -37.7459 C   0  0  0  0  0  0  0  0  0  0  0  0
  -11.8594   14.7928  -39.0810 C   0  0  2  0  0  0  0  0  0  0  0  0
  -12.9198   15.5259  -37.2276 C   0  0  1  0  0  0  0  0  0  0  0  0
   -8.9595   13.0536  -37.7485 C   0  0  0  0  0  0  0  0  0  0  0  0
   -7.7020   14.6419  -39.2336 C   0  0  0  0  0  0  0  0  0  0  0  0
   -7.3268   14.6886  -36.7506 C   0  0  0  0  0  0  0  0  0  0  0  0
   -8.3468   14.4487  -37.8628 C   0  0  0  0  0  0  0  0  0  0  0  0
  -11.6334   15.0483  -37.6752 N   0  0  0  0  0  0  0  0  0  0  0  0
  -12.3769   16.7381  -40.4573 O   0  0  0  0  0  0  0  0  0  0  0  0
  -10.3727   14.7591  -35.7716 O   0  0  0  0  0  0  0  0  0  0  0  0
   -9.3936   15.4178  -37.7381 O   0  0  0  0  0  0  0  0  0  0  0  0
  -12.4890   17.6172  -37.7475 H   0  0  0  0  0  0  0  0  0  0  0  0
  -14.1007   17.0259  -38.3271 H   0  0  0  0  0  0  0  0  0  0  0  0
  -12.8287   12.8459  -38.9300 H   0  0  0  0  0  0  0  0  0  0  0  0
  -13.7412   14.0194  -39.9146 H   0  0  0  0  0  0  0  0  0  0  0  0
  -14.8466   14.7294  -37.9602 H   0  0  0  0  0  0  0  0  0  0  0  0
  -13.8781   13.5720  -37.0198 H   0  0  0  0  0  0  0  0  0  0  0  0
  -10.9948   14.4896  -39.6678 H   0  0  0  0  0  0  0  0  0  0  0  0
  -12.9933   15.7280  -36.1571 H   0  0  0  0  0  0  0  0  0  0  0  0
   -9.4233   12.9111  -36.7659 H   0  0  0  0  0  0  0  0  0  0  0  0
   -9.7179   12.8818  -38.5192 H   0  0  0  0  0  0  0  0  0  0  0  0
   -8.1893   12.2795  -37.8420 H   0  0  0  0  0  0  0  0  0  0  0  0
   -7.2611   15.6415  -39.3200 H   0  0  0  0  0  0  0  0  0  0  0  0
   -8.4498   14.5644  -40.0311 H   0  0  0  0  0  0  0  0  0  0  0  0
   -6.9186   13.9001  -39.4197 H   0  0  0  0  0  0  0  0  0  0  0  0
   -6.8871   15.6893  -36.8324 H   0  0  0  0  0  0  0  0  0  0  0  0
   -7.7806   14.5905  -35.7591 H   0  0  0  0  0  0  0  0  0  0  0  0
   -6.4952   13.9785  -36.8248 H   0  0  0  0  0  0  0  0  0  0  0  0
  1  3  1  0  0  0  0
  1  6  1  0  0  0  0
  1 13  2  0  0  0  0
  2 12  1  0  0  0  0
  2 14  2  0  0  0  0
  2 15  1  0  0  0  0
  3  7  1  0  0  0  0
  4  5  1  0  0  0  0
  4  6  1  6  0  0  0
  5  7  1  6  0  0  0
  6 12  1  0  0  0  0
  7 12  1  0  0  0  0
  8 11  1  0  0  0  0
  9 11  1  0  0  0  0
 10 11  1  0  0  0  0
 11 15  1  0  0  0  0
  3 16  1  0  0  0  0
  3 17  1  0  0  0  0
  4 18  1  0  0  0  0
  4 19  1  0  0  0  0
  5 20  1  0  0  0  0
  5 21  1  0  0  0  0
  6 22  1  0  0  0  0
  7 23  1  0  0  0  0
  8 24  1  0  0  0  0
  8 25  1  0  0  0  0
  8 26  1  0  0  0  0
  9 27  1  0  0  0  0
  9 28  1  0  0  0  0
  9 29  1  0  0  0  0
 10 30  1  0  0  0  0
 10 31  1  0  0  0  0
 10 32  1  0  0  0  0
M  END
> <id>
EN300-7434775

> <smiles>
CC(C)(C)OC(=O)N1[C@@H]2CC[C@H]1C(=O)C2 |&1:8,11,r|

> <IUPAC Name>
rac-tert-butyl (1R,4S)-2-oxo-7-azabicyclo[2.2.1]heptane-7-carboxylate

> <CAS>
163513-99-3

> <Purity>
95

> <URL>
https://www.enaminestore.com/catalog/EN300-7434775

> <ROCS_ShapeQuery>
x1247relevant_x1083L0AP1_x1305L0BP1_

> <ROCS_TanimotoCombo>
0.788 

> <ROCS_ShapeTanimoto>
0.475 

> <ROCS_ColorTanimoto>
0.312 

> <ROCS_RefTversky>
0.409 

> <ROCS_RefColorTversky>
0.351 

> <ROCS_RefTverskyCombo>
0.760 

> <ROCS_FitTversky>
1.513 

> <ROCS_FitColorTversky>
0.742 

> <ROCS_FitTverskyCombo>
2.255 

> <ROCS_ColorScore>
-7.444

> <ROCS_Overlap>
1205.128

> <ROCS_Rank>
481                 

$$$$
untitled-dbase-25883_0
  -OEChem-06162310163D

 31 33  0     1  0  0  0  0  0999 V2000
   -9.2022   14.2598  -35.7892 C   0  0  0  0  0  0  0  0  0  0  0  0
  -10.3319   13.3371  -36.2395 C   0  0  0  0  0  0  0  0  0  0  0  0
   -9.5033   15.7165  -36.1320 C   0  0  0  0  0  0  0  0  0  0  0  0
  -10.6265   13.5024  -37.7287 C   0  0  0  0  0  0  0  0  0  0  0  0
   -9.8083   15.8919  -37.6191 C   0  0  0  0  0  0  0  0  0  0  0  0
  -14.0176   15.5948  -39.3049 C   0  0  0  0  0  0  0  0  0  0  0  0
  -14.2081   14.3164  -38.4955 C   0  0  0  0  0  0  0  0  0  0  0  0
  -12.5891   16.0409  -39.0229 C   0  0  1  0  0  0  0  0  0  0  0  0
  -12.3708   15.4769  -37.6076 C   0  0  2  0  0  0  0  0  0  0  0  0
  -11.4183   15.1638  -39.5349 C   0  0  2  0  0  0  0  0  0  0  0  0
  -10.9613   14.9652  -38.0502 C   0  0  0  0  0  0  0  0  0  0  0  0
  -13.4042   14.5004  -37.3247 O   0  0  0  0  0  0  0  0  0  0  0  0
  -10.4858   15.8179  -40.4161 O   0  0  0  0  0  0  0  0  0  0  0  0
   -9.0518   14.1587  -34.7085 H   0  0  0  0  0  0  0  0  0  0  0  0
   -8.2658   13.9556  -36.2728 H   0  0  0  0  0  0  0  0  0  0  0  0
  -10.0596   12.2961  -36.0325 H   0  0  0  0  0  0  0  0  0  0  0  0
  -11.2332   13.5554  -35.6543 H   0  0  0  0  0  0  0  0  0  0  0  0
  -10.3540   16.0601  -35.5318 H   0  0  0  0  0  0  0  0  0  0  0  0
   -8.6465   16.3423  -35.8575 H   0  0  0  0  0  0  0  0  0  0  0  0
   -9.7522   13.1856  -38.3116 H   0  0  0  0  0  0  0  0  0  0  0  0
  -11.4487   12.8351  -38.0114 H   0  0  0  0  0  0  0  0  0  0  0  0
  -10.0521   16.9425  -37.8177 H   0  0  0  0  0  0  0  0  0  0  0  0
   -8.9067   15.6594  -38.1996 H   0  0  0  0  0  0  0  0  0  0  0  0
  -14.2155   15.4438  -40.3699 H   0  0  0  0  0  0  0  0  0  0  0  0
  -14.7119   16.3608  -38.9388 H   0  0  0  0  0  0  0  0  0  0  0  0
  -15.2519   14.1579  -38.2124 H   0  0  0  0  0  0  0  0  0  0  0  0
  -13.8420   13.4356  -39.0320 H   0  0  0  0  0  0  0  0  0  0  0  0
  -12.4215   17.1184  -39.1253 H   0  0  0  0  0  0  0  0  0  0  0  0
  -12.3639   16.2408  -36.8234 H   0  0  0  0  0  0  0  0  0  0  0  0
  -11.7624   14.2348  -40.0065 H   0  0  0  0  0  0  0  0  0  0  0  0
   -9.8272   15.1491  -40.6427 H   0  0  0  0  0  0  0  0  0  0  0  0
  1  2  1  0  0  0  0
  1  3  1  0  0  0  0
  2  4  1  0  0  0  0
  3  5  1  0  0  0  0
  4 11  1  0  0  0  0
  5 11  1  0  0  0  0
  6  7  1  0  0  0  0
  6  8  1  0  0  0  0
  7 12  1  0  0  0  0
  8  9  1  0  0  0  0
  8 10  1  0  0  0  0
  9 11  1  0  0  0  0
  9 12  1  0  0  0  0
 10 11  1  0  0  0  0
 10 13  1  0  0  0  0
  1 14  1  0  0  0  0
  1 15  1  0  0  0  0
  2 16  1  0  0  0  0
  2 17  1  0  0  0  0
  3 18  1  0  0  0  0
  3 19  1  0  0  0  0
  4 20  1  0  0  0  0
  4 21  1  0  0  0  0
  5 22  1  0  0  0  0
  5 23  1  0  0  0  0
  6 24  1  0  0  0  0
  6 25  1  0  0  0  0
  7 26  1  0  0  0  0
  7 27  1  0  0  0  0
  8 28  1  0  0  0  0
  9 29  1  0  0  0  0
 10 30  1  0  0  0  0
 13 31  1  0  0  0  0
M  END
> <id>
EN300-6735622

> <smiles>
OC1C2CCOC2C31CCCCC3

> <MDLNUMBER>
MFCD31746653

> <IUPAC Name>
4-oxaspiro[bicyclo[3.2.0]heptane-6,1'-cyclohexane]-7-ol

> <CAS>
2287335-39-9

> <Purity>
95

> <URL>
https://www.enaminestore.com/catalog/EN300-6735622

> <ROCS_ShapeQuery>
x1247relevant_x1083L0AP1_x1305L0BP1_

> <ROCS_TanimotoCombo>
0.788 

> <ROCS_ShapeTanimoto>
0.474 

> <ROCS_ColorTanimoto>
0.313 

> <ROCS_RefTversky>
0.398 

> <ROCS_RefColorTversky>
0.352 

> <ROCS_RefTverskyCombo>
0.749 

> <ROCS_FitTversky>
1.685 

> <ROCS_FitColorTversky>
0.743 

> <ROCS_FitTverskyCombo>
2.427 

> <ROCS_ColorScore>
-7.463

> <ROCS_Overlap>
1168.599

> <ROCS_Rank>
482                 

$$$$
untitled-dbase-49267_0
  -OEChem-06162310163D

 28 30  0     1  0  0  0  0  0999 V2000
  -11.8775   17.3455  -39.6631 C   0  0  0  0  0  0  0  0  0  0  0  0
  -12.8358   13.7670  -37.7478 C   0  0  0  0  0  0  0  0  0  0  0  0
  -12.1777   16.1169  -38.9869 C   0  0  0  0  0  0  0  0  0  0  0  0
  -11.5658   14.2869  -37.5338 C   0  0  0  0  0  0  0  0  0  0  0  0
  -11.2371   15.4985  -38.1645 C   0  0  0  0  0  0  0  0  0  0  0  0
  -13.4130   15.5066  -39.1364 C   0  0  0  0  0  0  0  0  0  0  0  0
   -9.8632   16.1028  -37.9756 C   0  0  0  0  0  0  0  0  0  0  0  0
  -10.5225   14.3678  -35.2766 C   0  0  0  0  0  0  0  0  0  0  0  0
   -9.5490   15.5353  -35.5052 C   0  0  0  0  0  0  0  0  0  0  0  0
   -9.1511   13.8403  -37.1543 C   0  0  0  0  0  0  0  0  0  0  0  0
  -10.5678   13.6188  -36.6158 C   0  0  2  0  0  0  0  0  0  0  0  0
   -9.0060   15.3480  -36.9345 C   0  0  1  0  0  0  0  0  0  0  0  0
  -11.6345   18.3398  -40.2102 N   0  0  0  0  0  0  0  0  0  0  0  0
  -13.7673   14.3476  -38.5370 N   0  0  0  0  0  0  0  0  0  0  0  0
  -14.3809   16.1238  -39.9699 N   0  0  0  0  0  0  0  0  0  0  0  0
  -13.1524   12.8425  -37.2752 H   0  0  0  0  0  0  0  0  0  0  0  0
   -9.3398   16.0675  -38.9398 H   0  0  0  0  0  0  0  0  0  0  0  0
   -9.9488   17.1536  -37.6737 H   0  0  0  0  0  0  0  0  0  0  0  0
  -10.1183   13.7127  -34.4954 H   0  0  0  0  0  0  0  0  0  0  0  0
  -11.5044   14.7169  -34.9389 H   0  0  0  0  0  0  0  0  0  0  0  0
  -10.0369   16.5055  -35.3646 H   0  0  0  0  0  0  0  0  0  0  0  0
   -8.7307   15.4722  -34.7785 H   0  0  0  0  0  0  0  0  0  0  0  0
   -8.4159   13.2880  -36.5564 H   0  0  0  0  0  0  0  0  0  0  0  0
   -9.0326   13.5485  -38.2037 H   0  0  0  0  0  0  0  0  0  0  0  0
  -10.7948   12.5550  -36.4924 H   0  0  0  0  0  0  0  0  0  0  0  0
   -7.9657   15.6819  -37.0045 H   0  0  0  0  0  0  0  0  0  0  0  0
  -14.1646   17.0018  -40.3873 H   0  0  0  0  0  0  0  0  0  0  0  0
  -15.2849   15.7118  -40.0412 H   0  0  0  0  0  0  0  0  0  0  0  0
  1  3  1  0  0  0  0
  1 13  3  0  0  0  0
  2  4  2  0  0  0  0
  2 14  1  0  0  0  0
  3  5  2  0  0  0  0
  3  6  1  0  0  0  0
  4  5  1  0  0  0  0
  4 11  1  0  0  0  0
  5  7  1  0  0  0  0
  6 14  2  0  0  0  0
  6 15  1  0  0  0  0
  7 12  1  0  0  0  0
  8  9  1  0  0  0  0
  8 11  1  0  0  0  0
  9 12  1  0  0  0  0
 10 11  1  0  0  0  0
 10 12  1  0  0  0  0
  2 16  1  0  0  0  0
  7 17  1  0  0  0  0
  7 18  1  0  0  0  0
  8 19  1  0  0  0  0
  8 20  1  0  0  0  0
  9 21  1  0  0  0  0
  9 22  1  0  0  0  0
 10 23  1  0  0  0  0
 10 24  1  0  0  0  0
 11 25  1  0  0  0  0
 12 26  1  0  0  0  0
 15 27  1  0  0  0  0
 15 28  1  0  0  0  0
M  END
> <id>
EN300-1153948

> <smiles>
NC=1N=CC=2C3CCC(C3)CC2C1C#N

> <IUPAC Name>
5-amino-4-azatricyclo[7.2.1.0,2,7]dodeca-2,4,6-triene-6-carbonitrile

> <CAS>
2138573-51-8

> <URL>
https://www.enaminestore.com/catalog/EN300-1153948

> <ROCS_ShapeQuery>
x1247relevant_x1083L0AP1_x1305L0BP1_

> <ROCS_TanimotoCombo>
0.787 

> <ROCS_ShapeTanimoto>
0.511 

> <ROCS_ColorTanimoto>
0.276 

> <ROCS_RefTversky>
0.431 

> <ROCS_RefColorTversky>
0.332 

> <ROCS_RefTverskyCombo>
0.762 

> <ROCS_FitTversky>
1.575 

> <ROCS_FitColorTversky>
0.623 

> <ROCS_FitTverskyCombo>
2.199 

> <ROCS_ColorScore>
-7.063

> <ROCS_Overlap>
1268.778

> <ROCS_Rank>
483                 

$$$$
untitled-dbase-10109_0
  -OEChem-06162310163D

 28 30  0     1  0  0  0  0  0999 V2000
  -13.4760   14.8865  -39.8464 C   0  0  0  0  0  0  0  0  0  0  0  0
  -14.2325   16.0476  -37.7431 C   0  0  0  0  0  0  0  0  0  0  0  0
  -13.2698   13.9202  -37.4989 C   0  0  0  0  0  0  0  0  0  0  0  0
  -12.1492   16.7924  -38.8504 C   0  0  0  0  0  0  0  0  0  0  0  0
  -10.9847   14.6219  -39.3012 C   0  0  0  0  0  0  0  0  0  0  0  0
  -14.1526   14.7066  -38.4669 C   0  0  2  0  0  0  0  0  0  0  0  0
  -12.0883   15.5841  -39.7929 C   0  0  1  0  0  0  0  0  0  0  0  0
  -12.7465   16.3274  -37.5096 C   0  0  2  0  0  0  0  0  0  0  0  0
  -12.1777   14.9332  -37.0822 C   0  0  2  0  0  0  0  0  0  0  0  0
  -10.8325   14.6400  -37.7672 C   0  0  1  0  0  0  0  0  0  0  0  0
  -10.2086   13.4002  -37.3054 N   0  0  0  0  0  0  0  0  0  0  0  0
  -13.3888   13.9147  -40.3468 H   0  0  0  0  0  0  0  0  0  0  0  0
  -14.1403   15.4979  -40.4715 H   0  0  0  0  0  0  0  0  0  0  0  0
  -14.7336   16.8213  -38.3338 H   0  0  0  0  0  0  0  0  0  0  0  0
  -14.7653   15.9506  -36.7892 H   0  0  0  0  0  0  0  0  0  0  0  0
  -13.8549   13.6398  -36.6135 H   0  0  0  0  0  0  0  0  0  0  0  0
  -12.8929   12.9931  -37.9395 H   0  0  0  0  0  0  0  0  0  0  0  0
  -11.1486   17.2165  -38.7021 H   0  0  0  0  0  0  0  0  0  0  0  0
  -12.7614   17.5895  -39.2893 H   0  0  0  0  0  0  0  0  0  0  0  0
  -11.1821   13.6101  -39.6778 H   0  0  0  0  0  0  0  0  0  0  0  0
  -10.0242   14.9196  -39.7428 H   0  0  0  0  0  0  0  0  0  0  0  0
  -15.1377   14.2443  -38.5832 H   0  0  0  0  0  0  0  0  0  0  0  0
  -11.8291   15.9096  -40.8075 H   0  0  0  0  0  0  0  0  0  0  0  0
  -12.5949   17.0906  -36.7400 H   0  0  0  0  0  0  0  0  0  0  0  0
  -12.0578   14.9056  -35.9917 H   0  0  0  0  0  0  0  0  0  0  0  0
  -10.1387   15.4477  -37.5003 H   0  0  0  0  0  0  0  0  0  0  0  0
   -9.3363   13.3034  -37.7673 H   0  0  0  0  0  0  0  0  0  0  0  0
  -10.0822   13.4664  -36.3239 H   0  0  0  0  0  0  0  0  0  0  0  0
  1  6  1  0  0  0  0
  1  7  1  0  0  0  0
  2  6  1  0  0  0  0
  2  8  1  0  0  0  0
  3  6  1  0  0  0  0
  3  9  1  0  0  0  0
  4  7  1  0  0  0  0
  4  8  1  0  0  0  0
  5  7  1  0  0  0  0
  5 10  1  0  0  0  0
  8  9  1  0  0  0  0
  9 10  1  0  0  0  0
 10 11  1  0  0  0  0
  1 12  1  0  0  0  0
  1 13  1  0  0  0  0
  2 14  1  0  0  0  0
  2 15  1  0  0  0  0
  3 16  1  0  0  0  0
  3 17  1  0  0  0  0
  4 18  1  0  0  0  0
  4 19  1  0  0  0  0
  5 20  1  0  0  0  0
  5 21  1  0  0  0  0
  6 22  1  0  0  0  0
  7 23  1  0  0  0  0
  8 24  1  0  0  0  0
  9 25  1  0  0  0  0
 10 26  1  0  0  0  0
 11 27  1  0  0  0  0
 11 28  1  0  0  0  0
M  END
> <id>
EN300-349309

> <smiles>
NC1CC2CC3CC(C2)C1C3

> <MDLNUMBER>
MFCD04636907

> <IUPAC Name>
tricyclo[4.3.1.0,3,8]decan-4-amine

> <CAS>
1149588-60-2

> <URL>
https://www.enaminestore.com/catalog/EN300-349309

> <ROCS_ShapeQuery>
x1247relevant_x1083L0AP1_x1305L0BP1_

> <ROCS_TanimotoCombo>
0.787 

> <ROCS_ShapeTanimoto>
0.414 

> <ROCS_ColorTanimoto>
0.374 

> <ROCS_RefTversky>
0.354 

> <ROCS_RefColorTversky>
0.451 

> <ROCS_RefTverskyCombo>
0.806 

> <ROCS_FitTversky>
1.683 

> <ROCS_FitColorTversky>
0.685 

> <ROCS_FitTverskyCombo>
2.367 

> <ROCS_ColorScore>
-9.679

> <ROCS_Overlap>
1039.877

> <ROCS_Rank>
484                 

$$$$
untitled-dbase-48184_0
  -OEChem-06162310163D

 28 30  0     1  0  0  0  0  0999 V2000
  -13.4760   14.8865  -39.8464 C   0  0  0  0  0  0  0  0  0  0  0  0
  -14.2325   16.0476  -37.7431 C   0  0  0  0  0  0  0  0  0  0  0  0
  -13.2698   13.9202  -37.4989 C   0  0  0  0  0  0  0  0  0  0  0  0
  -12.1492   16.7924  -38.8504 C   0  0  0  0  0  0  0  0  0  0  0  0
  -10.9847   14.6219  -39.3012 C   0  0  0  0  0  0  0  0  0  0  0  0
  -14.1526   14.7066  -38.4669 C   0  0  2  0  0  0  0  0  0  0  0  0
  -12.0883   15.5841  -39.7929 C   0  0  1  0  0  0  0  0  0  0  0  0
  -12.7465   16.3274  -37.5096 C   0  0  2  0  0  0  0  0  0  0  0  0
  -12.1777   14.9332  -37.0822 C   0  0  2  0  0  0  0  0  0  0  0  0
  -10.8325   14.6400  -37.7672 C   0  0  1  0  0  0  0  0  0  0  0  0
  -10.2086   13.4002  -37.3054 N   0  0  0  0  0  0  0  0  0  0  0  0
  -13.3888   13.9147  -40.3468 H   0  0  0  0  0  0  0  0  0  0  0  0
  -14.1403   15.4979  -40.4715 H   0  0  0  0  0  0  0  0  0  0  0  0
  -14.7336   16.8213  -38.3338 H   0  0  0  0  0  0  0  0  0  0  0  0
  -14.7653   15.9506  -36.7892 H   0  0  0  0  0  0  0  0  0  0  0  0
  -13.8549   13.6398  -36.6135 H   0  0  0  0  0  0  0  0  0  0  0  0
  -12.8929   12.9931  -37.9395 H   0  0  0  0  0  0  0  0  0  0  0  0
  -11.1486   17.2165  -38.7021 H   0  0  0  0  0  0  0  0  0  0  0  0
  -12.7614   17.5895  -39.2893 H   0  0  0  0  0  0  0  0  0  0  0  0
  -11.1821   13.6101  -39.6778 H   0  0  0  0  0  0  0  0  0  0  0  0
  -10.0242   14.9196  -39.7428 H   0  0  0  0  0  0  0  0  0  0  0  0
  -15.1377   14.2443  -38.5832 H   0  0  0  0  0  0  0  0  0  0  0  0
  -11.8291   15.9096  -40.8075 H   0  0  0  0  0  0  0  0  0  0  0  0
  -12.5949   17.0906  -36.7400 H   0  0  0  0  0  0  0  0  0  0  0  0
  -12.0578   14.9056  -35.9917 H   0  0  0  0  0  0  0  0  0  0  0  0
  -10.1387   15.4477  -37.5003 H   0  0  0  0  0  0  0  0  0  0  0  0
   -9.3363   13.3034  -37.7673 H   0  0  0  0  0  0  0  0  0  0  0  0
  -10.0822   13.4664  -36.3239 H   0  0  0  0  0  0  0  0  0  0  0  0
  1  6  1  0  0  0  0
  1  7  1  0  0  0  0
  2  6  1  0  0  0  0
  2  8  1  0  0  0  0
  3  6  1  0  0  0  0
  3  9  1  0  0  0  0
  4  7  1  0  0  0  0
  4  8  1  0  0  0  0
  5  7  1  0  0  0  0
  5 10  1  0  0  0  0
  8  9  1  0  0  0  0
  9 10  1  0  0  0  0
 10 11  1  0  0  0  0
  1 12  1  0  0  0  0
  1 13  1  0  0  0  0
  2 14  1  0  0  0  0
  2 15  1  0  0  0  0
  3 16  1  0  0  0  0
  3 17  1  0  0  0  0
  4 18  1  0  0  0  0
  4 19  1  0  0  0  0
  5 20  1  0  0  0  0
  5 21  1  0  0  0  0
  6 22  1  0  0  0  0
  7 23  1  0  0  0  0
  8 24  1  0  0  0  0
  9 25  1  0  0  0  0
 10 26  1  0  0  0  0
 11 27  1  0  0  0  0
 11 28  1  0  0  0  0
M  END
> <id>
EN300-349308

> <smiles>
Cl.NC1CC2CC3CC(C2)C1C3

> <MDLNUMBER>
MFCD07286625

> <IUPAC Name>
tricyclo[4.3.1.0,3,8]decan-4-amine hydrochloride

> <CAS>
1177790-86-1

> <Purity>
95

> <URL>
https://www.enaminestore.com/catalog/EN300-349308

> <Saltdate>
Cl

> <ROCS_ShapeQuery>
x1247relevant_x1083L0AP1_x1305L0BP1_

> <ROCS_TanimotoCombo>
0.787 

> <ROCS_ShapeTanimoto>
0.414 

> <ROCS_ColorTanimoto>
0.374 

> <ROCS_RefTversky>
0.354 

> <ROCS_RefColorTversky>
0.451 

> <ROCS_RefTverskyCombo>
0.806 

> <ROCS_FitTversky>
1.683 

> <ROCS_FitColorTversky>
0.685 

> <ROCS_FitTverskyCombo>
2.367 

> <ROCS_ColorScore>
-9.679

> <ROCS_Overlap>
1039.877

> <ROCS_Rank>
485                 

$$$$
untitled-dbase-30880_0
  -OEChem-06162310163D

 21 23  0     1  0  0  0  0  0999 V2000
  -14.5052   15.4073  -38.9819 C   0  0  0  0  0  0  0  0  0  0  0  0
  -13.6745   15.1155  -39.9926 C   0  0  0  0  0  0  0  0  0  0  0  0
  -11.6837   14.8845  -36.3757 C   0  0  0  0  0  0  0  0  0  0  0  0
  -13.6275   15.8854  -37.8611 C   0  0  1  0  0  0  0  0  0  0  0  0
  -12.2944   15.4165  -39.4822 C   0  0  2  0  0  0  0  0  0  0  0  0
  -12.9006   14.6548  -37.2995 C   0  0  1  0  0  0  0  0  0  0  0  0
  -11.9334   14.3111  -38.4739 C   0  0  2  0  0  0  0  0  0  0  0  0
  -10.7283   14.5654  -37.5409 C   0  0  2  0  0  0  0  0  0  0  0  0
  -10.0817   13.2842  -37.2693 N   0  0  0  0  0  0  0  0  0  0  0  0
  -12.5865   16.5386  -38.6204 O   0  0  0  0  0  0  0  0  0  0  0  0
  -15.5745   15.2774  -38.9615 H   0  0  0  0  0  0  0  0  0  0  0  0
  -13.9383   14.7019  -40.9518 H   0  0  0  0  0  0  0  0  0  0  0  0
  -11.5956   15.9085  -35.9951 H   0  0  0  0  0  0  0  0  0  0  0  0
  -11.6478   14.2058  -35.5156 H   0  0  0  0  0  0  0  0  0  0  0  0
  -14.0907   16.5561  -37.1362 H   0  0  0  0  0  0  0  0  0  0  0  0
  -11.5426   15.6584  -40.2346 H   0  0  0  0  0  0  0  0  0  0  0  0
  -13.5500   13.8367  -36.9679 H   0  0  0  0  0  0  0  0  0  0  0  0
  -12.0211   13.2937  -38.8751 H   0  0  0  0  0  0  0  0  0  0  0  0
  -10.0496   15.3706  -37.8349 H   0  0  0  0  0  0  0  0  0  0  0  0
   -9.6134   12.9918  -38.0940 H   0  0  0  0  0  0  0  0  0  0  0  0
   -9.4364   13.4141  -36.5266 H   0  0  0  0  0  0  0  0  0  0  0  0
  1  2  2  0  0  0  0
  1  4  1  6  0  0  0
  2  5  1  6  0  0  0
  3  6  1  1  0  0  0
  3  8  1  0  0  0  0
  4  6  1  0  0  0  0
  4 10  1  0  0  0  0
  5  7  1  0  0  0  0
  5 10  1  0  0  0  0
  6  7  1  0  0  0  0
  7  8  1  1  0  0  0
  8  9  1  6  0  0  0
  1 11  1  0  0  0  0
  2 12  1  0  0  0  0
  3 13  1  0  0  0  0
  3 14  1  0  0  0  0
  4 15  1  0  0  0  0
  5 16  1  0  0  0  0
  6 17  1  0  0  0  0
  7 18  1  0  0  0  0
  8 19  1  0  0  0  0
  9 20  1  0  0  0  0
  9 21  1  0  0  0  0
M  END
> <id>
EN300-26860903

> <smiles>
N[C@@H]1C[C@@H]2[C@H]1[C@@H]3O[C@H]2C=C3 |&1:1,3,4,5,7,r|

> <IUPAC Name>
rac-(1R,2R,3R,5R,6S)-9-oxatricyclo[4.2.1.0,2,5]non-7-en-3-amine

> <CAS>
2418593-66-3

> <Purity>
95

> <URL>
https://www.enaminestore.com/catalog/EN300-26860903

> <ROCS_ShapeQuery>
x1247relevant_x1083L0AP1_x1305L0BP1_

> <ROCS_TanimotoCombo>
0.787 

> <ROCS_ShapeTanimoto>
0.422 

> <ROCS_ColorTanimoto>
0.365 

> <ROCS_RefTversky>
0.357 

> <ROCS_RefColorTversky>
0.455 

> <ROCS_RefTverskyCombo>
0.812 

> <ROCS_FitTversky>
1.756 

> <ROCS_FitColorTversky>
0.650 

> <ROCS_FitTverskyCombo>
2.406 

> <ROCS_ColorScore>
-9.773

> <ROCS_Overlap>
1047.924

> <ROCS_Rank>
486                 

$$$$
untitled-dbase-50775_32
  -OEChem-06162310163D

 38 39  0     1  0  0  0  0  0999 V2000
   -9.7310   14.8902  -37.0627 C   0  0  0  0  0  0  0  0  0  0  0  0
  -13.6886   15.7773  -37.2507 C   0  0  0  0  0  0  0  0  0  0  0  0
  -13.7566   14.2933  -37.6628 C   0  0  0  0  0  0  0  0  0  0  0  0
  -11.3811   16.4408  -38.0553 C   0  0  0  0  0  0  0  0  0  0  0  0
  -11.4449   14.0086  -38.6862 C   0  0  0  0  0  0  0  0  0  0  0  0
  -12.8825   16.4726  -38.3638 C   0  0  1  0  0  0  0  0  0  0  0  0
  -12.9480   14.2064  -38.9755 C   0  0  2  0  0  0  0  0  0  0  0  0
  -13.1816   15.5909  -39.5659 C   0  0  0  0  0  0  0  0  0  0  0  0
  -10.9186   14.4448  -34.4980 C   0  0  0  0  0  0  0  0  0  0  0  0
   -9.6924   12.2527  -34.5162 C   0  0  0  0  0  0  0  0  0  0  0  0
   -8.4030   14.4075  -34.5677 C   0  0  0  0  0  0  0  0  0  0  0  0
   -9.6847   13.6996  -35.0048 C   0  0  0  0  0  0  0  0  0  0  0  0
  -10.8684   15.0810  -37.8578 N   0  0  0  0  0  0  0  0  0  0  0  0
  -13.4184   13.1390  -39.8466 N   0  0  0  0  0  0  0  0  0  0  0  0
   -8.8278   15.7154  -36.9377 O   0  0  0  0  0  0  0  0  0  0  0  0
   -9.7249   13.6719  -36.4360 O   0  0  0  0  0  0  0  0  0  0  0  0
  -12.3974   15.8621  -40.6225 F   0  0  0  0  0  0  0  0  0  0  0  0
  -14.4678   15.7517  -39.9542 F   0  0  0  0  0  0  0  0  0  0  0  0
  -14.7045   16.1881  -37.2080 H   0  0  0  0  0  0  0  0  0  0  0  0
  -13.2401   15.9062  -36.2602 H   0  0  0  0  0  0  0  0  0  0  0  0
  -13.3625   13.6344  -36.8812 H   0  0  0  0  0  0  0  0  0  0  0  0
  -14.8077   14.0182  -37.8193 H   0  0  0  0  0  0  0  0  0  0  0  0
  -10.8122   16.8786  -38.8857 H   0  0  0  0  0  0  0  0  0  0  0  0
  -11.1755   17.0502  -37.1673 H   0  0  0  0  0  0  0  0  0  0  0  0
  -11.2689   13.0455  -38.1938 H   0  0  0  0  0  0  0  0  0  0  0  0
  -10.8692   14.0007  -39.6200 H   0  0  0  0  0  0  0  0  0  0  0  0
  -13.2168   17.5035  -38.5141 H   0  0  0  0  0  0  0  0  0  0  0  0
  -10.9168   15.4838  -34.8465 H   0  0  0  0  0  0  0  0  0  0  0  0
  -11.8447   13.9670  -34.8339 H   0  0  0  0  0  0  0  0  0  0  0  0
  -10.9281   14.4862  -33.4028 H   0  0  0  0  0  0  0  0  0  0  0  0
   -8.8088   11.7142  -34.8775 H   0  0  0  0  0  0  0  0  0  0  0  0
  -10.5632   11.7137  -34.9064 H   0  0  0  0  0  0  0  0  0  0  0  0
   -9.7104   12.1955  -33.4231 H   0  0  0  0  0  0  0  0  0  0  0  0
   -7.5177   13.8731  -34.9311 H   0  0  0  0  0  0  0  0  0  0  0  0
   -8.3631   15.4360  -34.9407 H   0  0  0  0  0  0  0  0  0  0  0  0
   -8.3236   14.4300  -33.4748 H   0  0  0  0  0  0  0  0  0  0  0  0
  -13.7107   13.5404  -40.7077 H   0  0  0  0  0  0  0  0  0  0  0  0
  -12.6699   12.5023  -39.9967 H   0  0  0  0  0  0  0  0  0  0  0  0
  1 13  1  0  0  0  0
  1 15  2  0  0  0  0
  1 16  1  0  0  0  0
  2  3  1  0  0  0  0
  2  6  1  0  0  0  0
  3  7  1  0  0  0  0
  4  6  1  0  0  0  0
  4 13  1  0  0  0  0
  5  7  1  0  0  0  0
  5 13  1  0  0  0  0
  6  8  1  0  0  0  0
  7  8  1  0  0  0  0
  7 14  1  0  0  0  0
  8 17  1  0  0  0  0
  8 18  1  0  0  0  0
  9 12  1  0  0  0  0
 10 12  1  0  0  0  0
 11 12  1  0  0  0  0
 12 16  1  0  0  0  0
  2 19  1  0  0  0  0
  2 20  1  0  0  0  0
  3 21  1  0  0  0  0
  3 22  1  0  0  0  0
  4 23  1  0  0  0  0
  4 24  1  0  0  0  0
  5 25  1  0  0  0  0
  5 26  1  0  0  0  0
  6 27  1  0  0  0  0
  9 28  1  0  0  0  0
  9 29  1  0  0  0  0
  9 30  1  0  0  0  0
 10 31  1  0  0  0  0
 10 32  1  0  0  0  0
 10 33  1  0  0  0  0
 11 34  1  0  0  0  0
 11 35  1  0  0  0  0
 11 36  1  0  0  0  0
 14 37  1  0  0  0  0
 14 38  1  0  0  0  0
M  END
> <id>
EN300-27755324

> <smiles>
CC(C)(C)OC(=O)N1CC2CCC(N)(C1)C2(F)F

> <IUPAC Name>
tert-butyl 1-amino-8,8-difluoro-3-azabicyclo[3.2.1]octane-3-carboxylate

> <Purity>
95

> <URL>
https://www.enaminestore.com/catalog/EN300-27755324

> <ROCS_ShapeQuery>
x1247relevant_x1083L0AP1_x1305L0BP1_

> <ROCS_TanimotoCombo>
0.787 

> <ROCS_ShapeTanimoto>
0.523 

> <ROCS_ColorTanimoto>
0.264 

> <ROCS_RefTversky>
0.451 

> <ROCS_RefColorTversky>
0.312 

> <ROCS_RefTverskyCombo>
0.763 

> <ROCS_FitTversky>
1.438 

> <ROCS_FitColorTversky>
0.636 

> <ROCS_FitTverskyCombo>
2.074 

> <ROCS_ColorScore>
-6.620

> <ROCS_Overlap>
1331.648

> <ROCS_Rank>
487                 

$$$$
untitled-dbase-39993_5
  -OEChem-06162310163D

 38 39  0     1  0  0  0  0  0999 V2000
  -11.0275   15.7900  -36.3618 C   0  0  0  0  0  0  0  0  0  0  0  0
  -10.3278   15.8987  -38.7511 C   0  0  0  0  0  0  0  0  0  0  0  0
  -13.0970   13.8015  -38.5292 C   0  0  0  0  0  0  0  0  0  0  0  0
   -9.6577   15.1977  -36.0477 C   0  0  0  0  0  0  0  0  0  0  0  0
   -8.9953   15.2937  -38.3197 C   0  0  0  0  0  0  0  0  0  0  0  0
  -13.2571   16.1890  -39.3003 C   0  0  0  0  0  0  0  0  0  0  0  0
  -13.3623   14.7188  -39.7220 C   0  0  2  0  0  0  0  0  0  0  0  0
  -11.4866   15.5024  -37.8093 C   0  0  0  0  0  0  0  0  0  0  0  0
  -14.7632   12.9531  -40.8232 C   0  0  0  0  0  0  0  0  0  0  0  0
  -14.9181   15.3349  -41.5907 C   0  0  0  0  0  0  0  0  0  0  0  0
  -15.8435   14.6754  -39.3558 C   0  0  0  0  0  0  0  0  0  0  0  0
  -14.7130   14.4225  -40.3688 C   0  0  0  0  0  0  0  0  0  0  0  0
  -11.7771   14.0630  -37.9566 N   0  0  0  0  0  0  0  0  0  0  0  0
   -8.6829   15.6649  -36.9785 O   0  0  0  0  0  0  0  0  0  0  0  0
  -12.6280   16.3470  -38.0290 O   0  0  0  0  0  0  0  0  0  0  0  0
  -11.7614   15.3565  -35.6581 H   0  0  0  0  0  0  0  0  0  0  0  0
  -10.9943   16.8703  -36.1474 H   0  0  0  0  0  0  0  0  0  0  0  0
  -10.2210   16.9943  -38.7917 H   0  0  0  0  0  0  0  0  0  0  0  0
  -10.5497   15.5531  -39.7744 H   0  0  0  0  0  0  0  0  0  0  0  0
  -13.8756   13.9152  -37.7647 H   0  0  0  0  0  0  0  0  0  0  0  0
  -13.1317   12.7550  -38.8553 H   0  0  0  0  0  0  0  0  0  0  0  0
   -9.3355   15.4368  -35.0277 H   0  0  0  0  0  0  0  0  0  0  0  0
   -9.6982   14.1070  -36.1317 H   0  0  0  0  0  0  0  0  0  0  0  0
   -9.0565   14.2012  -38.3553 H   0  0  0  0  0  0  0  0  0  0  0  0
   -8.1767   15.5970  -38.9827 H   0  0  0  0  0  0  0  0  0  0  0  0
  -12.6527   16.7468  -40.0342 H   0  0  0  0  0  0  0  0  0  0  0  0
  -14.2442   16.6811  -39.2875 H   0  0  0  0  0  0  0  0  0  0  0  0
  -12.5736   14.5277  -40.4740 H   0  0  0  0  0  0  0  0  0  0  0  0
  -15.7230   12.7096  -41.2925 H   0  0  0  0  0  0  0  0  0  0  0  0
  -14.6258   12.2743  -39.9739 H   0  0  0  0  0  0  0  0  0  0  0  0
  -13.9727   12.7401  -41.5514 H   0  0  0  0  0  0  0  0  0  0  0  0
  -15.8834   15.1380  -42.0704 H   0  0  0  0  0  0  0  0  0  0  0  0
  -14.8999   16.3911  -41.2996 H   0  0  0  0  0  0  0  0  0  0  0  0
  -14.1353   15.1828  -42.3422 H   0  0  0  0  0  0  0  0  0  0  0  0
  -16.8233   14.4683  -39.8009 H   0  0  0  0  0  0  0  0  0  0  0  0
  -15.8480   15.7149  -39.0092 H   0  0  0  0  0  0  0  0  0  0  0  0
  -15.7342   14.0310  -38.4762 H   0  0  0  0  0  0  0  0  0  0  0  0
  -11.6977   13.5945  -37.0497 H   0  0  0  0  0  0  0  0  0  0  0  0
  1  4  1  0  0  0  0
  1  8  1  0  0  0  0
  2  5  1  0  0  0  0
  2  8  1  0  0  0  0
  3  7  1  0  0  0  0
  3 13  1  0  0  0  0
  4 14  1  0  0  0  0
  5 14  1  0  0  0  0
  6  7  1  0  0  0  0
  6 15  1  0  0  0  0
  7 12  1  0  0  0  0
  8 13  1  0  0  0  0
  8 15  1  0  0  0  0
  9 12  1  0  0  0  0
 10 12  1  0  0  0  0
 11 12  1  0  0  0  0
  1 16  1  0  0  0  0
  1 17  1  0  0  0  0
  2 18  1  0  0  0  0
  2 19  1  0  0  0  0
  3 20  1  0  0  0  0
  3 21  1  0  0  0  0
  4 22  1  0  0  0  0
  4 23  1  0  0  0  0
  5 24  1  0  0  0  0
  5 25  1  0  0  0  0
  6 26  1  0  0  0  0
  6 27  1  0  0  0  0
  7 28  1  0  0  0  0
  9 29  1  0  0  0  0
  9 30  1  0  0  0  0
  9 31  1  0  0  0  0
 10 32  1  0  0  0  0
 10 33  1  0  0  0  0
 10 34  1  0  0  0  0
 11 35  1  0  0  0  0
 11 36  1  0  0  0  0
 11 37  1  0  0  0  0
 13 38  1  0  0  0  0
M  END
> <id>
EN300-1279317

> <smiles>
CC(C)(C)C1CNC2(CCOCC2)OC1

> <IUPAC Name>
3-tert-butyl-1,9-dioxa-5-azaspiro[5.5]undecane

> <CAS>
2171968-88-8

> <URL>
https://www.enaminestore.com/catalog/EN300-1279317

> <ROCS_ShapeQuery>
x1247relevant_x1083L0AP1_x1305L0BP1_

> <ROCS_TanimotoCombo>
0.787 

> <ROCS_ShapeTanimoto>
0.455 

> <ROCS_ColorTanimoto>
0.332 

> <ROCS_RefTversky>
0.394 

> <ROCS_RefColorTversky>
0.341 

> <ROCS_RefTverskyCombo>
0.735 

> <ROCS_FitTversky>
1.514 

> <ROCS_FitColorTversky>
0.930 

> <ROCS_FitTverskyCombo>
2.444 

> <ROCS_ColorScore>
-7.198

> <ROCS_Overlap>
1159.480

> <ROCS_Rank>
488                 

$$$$
untitled-dbase-28231_0
  -OEChem-06162310163D

 29 31  0     1  0  0  0  0  0999 V2000
  -15.3614   14.1408  -40.7330 C   0  0  0  0  0  0  0  0  0  0  0  0
  -14.6757   14.2775  -39.7572 C   0  0  0  0  0  0  0  0  0  0  0  0
   -9.3442   14.8034  -36.7527 C   0  0  0  0  0  0  0  0  0  0  0  0
  -10.1369   16.0940  -36.8951 C   0  0  0  0  0  0  0  0  0  0  0  0
  -10.0269   13.8606  -37.7318 C   0  0  0  0  0  0  0  0  0  0  0  0
  -11.9538   15.6417  -39.4183 C   0  0  0  0  0  0  0  0  0  0  0  0
  -13.8753   15.9007  -38.0351 C   0  0  0  0  0  0  0  0  0  0  0  0
  -11.5871   15.6296  -37.0425 C   0  0  2  0  0  0  0  0  0  0  0  0
  -11.5158   14.1750  -37.5690 C   0  0  1  0  0  0  0  0  0  0  0  0
  -12.3990   16.3537  -38.1377 C   0  0  1  0  0  0  0  0  0  0  0  0
  -12.3266   14.2498  -38.8848 C   0  0  1  0  0  0  0  0  0  0  0  0
  -13.8350   14.4455  -38.5601 C   0  0  2  0  0  0  0  0  0  0  0  0
  -14.2867   13.5505  -37.5550 O   0  0  0  0  0  0  0  0  0  0  0  0
  -15.9696   14.0194  -41.5987 H   0  0  0  0  0  0  0  0  0  0  0  0
   -8.2831   14.9407  -36.9794 H   0  0  0  0  0  0  0  0  0  0  0  0
   -9.4299   14.4163  -35.7305 H   0  0  0  0  0  0  0  0  0  0  0  0
  -10.0082   16.7457  -36.0251 H   0  0  0  0  0  0  0  0  0  0  0  0
   -9.7973   16.6538  -37.7739 H   0  0  0  0  0  0  0  0  0  0  0  0
   -9.6760   14.0514  -38.7519 H   0  0  0  0  0  0  0  0  0  0  0  0
   -9.8079   12.8123  -37.5051 H   0  0  0  0  0  0  0  0  0  0  0  0
  -12.5284   15.9450  -40.2999 H   0  0  0  0  0  0  0  0  0  0  0  0
  -10.8903   15.7613  -39.6415 H   0  0  0  0  0  0  0  0  0  0  0  0
  -14.2518   15.9819  -37.0097 H   0  0  0  0  0  0  0  0  0  0  0  0
  -14.4947   16.5449  -38.6717 H   0  0  0  0  0  0  0  0  0  0  0  0
  -12.0921   15.6707  -36.0701 H   0  0  0  0  0  0  0  0  0  0  0  0
  -11.9447   13.4719  -36.8475 H   0  0  0  0  0  0  0  0  0  0  0  0
  -12.2783   17.4391  -38.1377 H   0  0  0  0  0  0  0  0  0  0  0  0
  -12.1186   13.4213  -39.5675 H   0  0  0  0  0  0  0  0  0  0  0  0
  -14.2026   12.6530  -37.9174 H   0  0  0  0  0  0  0  0  0  0  0  0
  1  2  3  0  0  0  0
  2 12  1  0  0  0  0
  3  4  1  0  0  0  0
  3  5  1  0  0  0  0
  4  8  1  0  0  0  0
  5  9  1  0  0  0  0
  6 10  1  0  0  0  0
  6 11  1  0  0  0  0
  7 10  1  0  0  0  0
  7 12  1  0  0  0  0
  8  9  1  0  0  0  0
  8 10  1  0  0  0  0
  9 11  1  0  0  0  0
 11 12  1  0  0  0  0
 12 13  1  0  0  0  0
  1 14  1  0  0  0  0
  3 15  1  0  0  0  0
  3 16  1  0  0  0  0
  4 17  1  0  0  0  0
  4 18  1  0  0  0  0
  5 19  1  0  0  0  0
  5 20  1  0  0  0  0
  6 21  1  0  0  0  0
  6 22  1  0  0  0  0
  7 23  1  0  0  0  0
  7 24  1  0  0  0  0
  8 25  1  0  0  0  0
  9 26  1  0  0  0  0
 10 27  1  0  0  0  0
 11 28  1  0  0  0  0
 13 29  1  0  0  0  0
M  END
> <id>
EN300-1273415

> <smiles>
OC1(CC2CC1C3CCCC23)C#C

> <MDLNUMBER>
MFCD21143225

> <IUPAC Name>
8-ethynyltricyclo[5.2.1.0,2,6]decan-8-ol

> <CAS>
13380-92-2

> <URL>
https://www.enaminestore.com/catalog/EN300-1273415

> <ROCS_ShapeQuery>
x1247relevant_x1083L0AP1_x1305L0BP1_

> <ROCS_TanimotoCombo>
0.787 

> <ROCS_ShapeTanimoto>
0.474 

> <ROCS_ColorTanimoto>
0.313 

> <ROCS_RefTversky>
0.399 

> <ROCS_RefColorTversky>
0.361 

> <ROCS_RefTverskyCombo>
0.760 

> <ROCS_FitTversky>
1.656 

> <ROCS_FitColorTversky>
0.700 

> <ROCS_FitTverskyCombo>
2.357 

> <ROCS_ColorScore>
-7.682

> <ROCS_Overlap>
1174.087

> <ROCS_Rank>
489                 

$$$$
untitled-dbase-31129_1
  -OEChem-06162310163D

 20 21  0     1  0  0  0  0  0999 V2000
  -10.5387   15.7177  -38.6180 C   0  0  0  0  0  0  0  0  0  0  0  0
  -11.5251   15.8200  -39.7855 C   0  0  0  0  0  0  0  0  0  0  0  0
  -13.7188   14.6381  -39.3251 C   0  0  0  0  0  0  0  0  0  0  0  0
  -11.0826   14.9171  -37.4196 C   0  0  1  0  0  0  0  0  0  0  0  0
  -12.9863   15.9621  -39.3218 C   0  0  1  0  0  0  0  0  0  0  0  0
  -12.6203   14.9942  -37.3606 C   0  0  2  0  0  0  0  0  0  0  0  0
  -10.6177   13.5326  -37.4545 N   0  0  0  0  0  0  0  0  0  0  0  0
  -13.2008   13.9591  -38.1776 O   0  0  0  0  0  0  0  0  0  0  0  0
  -13.0103   16.2616  -37.9194 O   0  0  0  0  0  0  0  0  0  0  0  0
   -9.6050   15.2484  -38.9928 H   0  0  0  0  0  0  0  0  0  0  0  0
  -10.2308   16.7324  -38.2935 H   0  0  0  0  0  0  0  0  0  0  0  0
  -11.2633   16.7101  -40.3747 H   0  0  0  0  0  0  0  0  0  0  0  0
  -11.4159   14.9495  -40.4446 H   0  0  0  0  0  0  0  0  0  0  0  0
  -14.7893   14.7811  -39.1611 H   0  0  0  0  0  0  0  0  0  0  0  0
  -13.5642   14.0459  -40.2273 H   0  0  0  0  0  0  0  0  0  0  0  0
  -10.6841   15.3817  -36.4960 H   0  0  0  0  0  0  0  0  0  0  0  0
  -13.5045   16.7273  -39.8956 H   0  0  0  0  0  0  0  0  0  0  0  0
  -13.0046   14.9170  -36.3312 H   0  0  0  0  0  0  0  0  0  0  0  0
   -9.6250   13.5377  -37.4589 H   0  0  0  0  0  0  0  0  0  0  0  0
  -10.9620   13.0689  -36.6471 H   0  0  0  0  0  0  0  0  0  0  0  0
  1  2  1  0  0  0  0
  1  4  1  0  0  0  0
  2  5  1  6  0  0  0
  3  5  1  0  0  0  0
  3  8  1  0  0  0  0
  4  6  1  0  0  0  0
  4  7  1  0  0  0  0
  5  9  1  0  0  0  0
  6  8  1  6  0  0  0
  6  9  1  0  0  0  0
  1 10  1  0  0  0  0
  1 11  1  0  0  0  0
  2 12  1  0  0  0  0
  2 13  1  0  0  0  0
  3 14  1  0  0  0  0
  3 15  1  0  0  0  0
  4 16  1  0  0  0  0
  5 17  1  0  0  0  0
  6 18  1  0  0  0  0
  7 19  1  0  0  0  0
  7 20  1  0  0  0  0
M  END
> <id>
EN300-27145144

> <smiles>
Cl.NC1CC[C@H]2CO[C@@H]1O2

> <MDLNUMBER>
MFCD32852853

> <IUPAC Name>
(1S,5R)-6,8-dioxabicyclo[3.2.1]octan-4-amine hydrochloride

> <CAS>
2665069-70-3

> <Purity>
95

> <URL>
https://www.enaminestore.com/catalog/EN300-27145144

> <Saltdate>
Cl

> <ROCS_ShapeQuery>
x1247relevant_x1083L0AP1_x1305L0BP1_

> <ROCS_TanimotoCombo>
0.787 

> <ROCS_ShapeTanimoto>
0.397 

> <ROCS_ColorTanimoto>
0.390 

> <ROCS_RefTversky>
0.336 

> <ROCS_RefColorTversky>
0.419 

> <ROCS_RefTverskyCombo>
0.755 

> <ROCS_FitTversky>
1.846 

> <ROCS_FitColorTversky>
0.848 

> <ROCS_FitTverskyCombo>
2.694 

> <ROCS_ColorScore>
-8.914

> <ROCS_Overlap>
984.368

> <ROCS_Rank>
490                 

$$$$
untitled-dbase-32033_1
  -OEChem-06162310163D

 20 21  0     1  0  0  0  0  0999 V2000
  -10.5387   15.7177  -38.6180 C   0  0  0  0  0  0  0  0  0  0  0  0
  -11.5251   15.8200  -39.7855 C   0  0  0  0  0  0  0  0  0  0  0  0
  -13.7188   14.6381  -39.3251 C   0  0  0  0  0  0  0  0  0  0  0  0
  -11.0826   14.9171  -37.4196 C   0  0  1  0  0  0  0  0  0  0  0  0
  -12.9863   15.9621  -39.3218 C   0  0  1  0  0  0  0  0  0  0  0  0
  -12.6203   14.9942  -37.3606 C   0  0  2  0  0  0  0  0  0  0  0  0
  -10.6177   13.5326  -37.4545 N   0  0  0  0  0  0  0  0  0  0  0  0
  -13.2008   13.9591  -38.1776 O   0  0  0  0  0  0  0  0  0  0  0  0
  -13.0103   16.2616  -37.9194 O   0  0  0  0  0  0  0  0  0  0  0  0
   -9.6050   15.2484  -38.9928 H   0  0  0  0  0  0  0  0  0  0  0  0
  -10.2308   16.7324  -38.2935 H   0  0  0  0  0  0  0  0  0  0  0  0
  -11.2633   16.7101  -40.3747 H   0  0  0  0  0  0  0  0  0  0  0  0
  -11.4159   14.9495  -40.4446 H   0  0  0  0  0  0  0  0  0  0  0  0
  -14.7893   14.7811  -39.1611 H   0  0  0  0  0  0  0  0  0  0  0  0
  -13.5642   14.0459  -40.2273 H   0  0  0  0  0  0  0  0  0  0  0  0
  -10.6841   15.3817  -36.4960 H   0  0  0  0  0  0  0  0  0  0  0  0
  -13.5045   16.7273  -39.8956 H   0  0  0  0  0  0  0  0  0  0  0  0
  -13.0046   14.9170  -36.3312 H   0  0  0  0  0  0  0  0  0  0  0  0
   -9.6250   13.5377  -37.4589 H   0  0  0  0  0  0  0  0  0  0  0  0
  -10.9620   13.0689  -36.6471 H   0  0  0  0  0  0  0  0  0  0  0  0
  1  2  1  0  0  0  0
  1  4  1  0  0  0  0
  2  5  1  6  0  0  0
  3  5  1  0  0  0  0
  3  8  1  0  0  0  0
  4  6  1  0  0  0  0
  4  7  1  0  0  0  0
  5  9  1  0  0  0  0
  6  8  1  6  0  0  0
  6  9  1  0  0  0  0
  1 10  1  0  0  0  0
  1 11  1  0  0  0  0
  2 12  1  0  0  0  0
  2 13  1  0  0  0  0
  3 14  1  0  0  0  0
  3 15  1  0  0  0  0
  4 16  1  0  0  0  0
  5 17  1  0  0  0  0
  6 18  1  0  0  0  0
  7 19  1  0  0  0  0
  7 20  1  0  0  0  0
M  END
> <id>
EN300-19766471

> <smiles>
NC1CC[C@H]2CO[C@@H]1O2

> <MDLNUMBER>
MFCD25368882

> <IUPAC Name>
(1S,5R)-6,8-dioxabicyclo[3.2.1]octan-4-amine

> <CAS>
2089592-85-6

> <URL>
https://www.enaminestore.com/catalog/EN300-19766471

> <ROCS_ShapeQuery>
x1247relevant_x1083L0AP1_x1305L0BP1_

> <ROCS_TanimotoCombo>
0.787 

> <ROCS_ShapeTanimoto>
0.397 

> <ROCS_ColorTanimoto>
0.390 

> <ROCS_RefTversky>
0.336 

> <ROCS_RefColorTversky>
0.419 

> <ROCS_RefTverskyCombo>
0.755 

> <ROCS_FitTversky>
1.846 

> <ROCS_FitColorTversky>
0.848 

> <ROCS_FitTverskyCombo>
2.694 

> <ROCS_ColorScore>
-8.914

> <ROCS_Overlap>
984.368

> <ROCS_Rank>
491                 

$$$$
untitled-dbase-16697_4
  -OEChem-06162310163D

 26 27  0     1  0  0  0  0  0999 V2000
   -8.9238   14.7818  -37.6008 C   0  0  0  0  0  0  0  0  0  0  0  0
  -10.0027   15.6576  -38.2324 C   0  0  0  0  0  0  0  0  0  0  0  0
  -13.2900   14.0164  -38.3203 C   0  0  0  0  0  0  0  0  0  0  0  0
   -9.0004   14.8519  -36.0826 C   0  0  0  0  0  0  0  0  0  0  0  0
  -11.3044   15.4013  -36.1101 C   0  0  0  0  0  0  0  0  0  0  0  0
  -12.8657   16.3215  -39.3042 C   0  0  0  0  0  0  0  0  0  0  0  0
  -11.4018   15.3807  -37.6476 C   0  0  2  0  0  0  0  0  0  0  0  0
  -13.6564   15.0268  -39.3945 C   0  0  0  0  0  0  0  0  0  0  0  0
  -11.8496   14.0476  -38.1015 N   0  0  0  0  0  0  0  0  0  0  0  0
  -10.3059   14.5048  -35.6249 O   0  0  0  0  0  0  0  0  0  0  0  0
  -12.2854   16.4614  -38.0096 O   0  0  0  0  0  0  0  0  0  0  0  0
  -13.4654   14.4755  -40.6208 F   0  0  0  0  0  0  0  0  0  0  0  0
  -14.9833   15.3011  -39.2994 F   0  0  0  0  0  0  0  0  0  0  0  0
   -9.0316   13.7450  -37.9379 H   0  0  0  0  0  0  0  0  0  0  0  0
   -7.9375   15.1320  -37.9299 H   0  0  0  0  0  0  0  0  0  0  0  0
   -9.7253   16.7136  -38.0824 H   0  0  0  0  0  0  0  0  0  0  0  0
  -10.0006   15.4806  -39.3210 H   0  0  0  0  0  0  0  0  0  0  0  0
  -13.8329   14.2252  -37.3990 H   0  0  0  0  0  0  0  0  0  0  0  0
  -13.5775   13.0184  -38.6496 H   0  0  0  0  0  0  0  0  0  0  0  0
   -8.2612   14.1906  -35.6143 H   0  0  0  0  0  0  0  0  0  0  0  0
   -8.7881   15.8722  -35.7459 H   0  0  0  0  0  0  0  0  0  0  0  0
  -11.0330   16.3962  -35.7323 H   0  0  0  0  0  0  0  0  0  0  0  0
  -12.2685   15.1427  -35.6421 H   0  0  0  0  0  0  0  0  0  0  0  0
  -12.0520   16.3108  -40.0322 H   0  0  0  0  0  0  0  0  0  0  0  0
  -13.4911   17.1870  -39.5315 H   0  0  0  0  0  0  0  0  0  0  0  0
  -11.5871   13.3414  -37.4230 H   0  0  0  0  0  0  0  0  0  0  0  0
  1  2  1  0  0  0  0
  1  4  1  0  0  0  0
  2  7  1  0  0  0  0
  3  8  1  0  0  0  0
  3  9  1  0  0  0  0
  4 10  1  0  0  0  0
  5  7  1  0  0  0  0
  5 10  1  0  0  0  0
  6  8  1  0  0  0  0
  6 11  1  0  0  0  0
  7  9  1  0  0  0  0
  7 11  1  0  0  0  0
  8 12  1  0  0  0  0
  8 13  1  0  0  0  0
  1 14  1  0  0  0  0
  1 15  1  0  0  0  0
  2 16  1  0  0  0  0
  2 17  1  0  0  0  0
  3 18  1  0  0  0  0
  3 19  1  0  0  0  0
  4 20  1  0  0  0  0
  4 21  1  0  0  0  0
  5 22  1  0  0  0  0
  5 23  1  0  0  0  0
  6 24  1  0  0  0  0
  6 25  1  0  0  0  0
  9 26  1  0  0  0  0
M  END
> <id>
EN300-1279464

> <smiles>
FC1(F)CNC2(CCCOC2)OC1

> <IUPAC Name>
3,3-difluoro-1,8-dioxa-5-azaspiro[5.5]undecane

> <CAS>
2168673-45-6

> <URL>
https://www.enaminestore.com/catalog/EN300-1279464

> <ROCS_ShapeQuery>
x1247relevant_x1083L0AP1_x1305L0BP1_

> <ROCS_TanimotoCombo>
0.787 

> <ROCS_ShapeTanimoto>
0.469 

> <ROCS_ColorTanimoto>
0.318 

> <ROCS_RefTversky>
0.396 

> <ROCS_RefColorTversky>
0.319 

> <ROCS_RefTverskyCombo>
0.715 

> <ROCS_FitTversky>
1.654 

> <ROCS_FitColorTversky>
0.988 

> <ROCS_FitTverskyCombo>
2.642 

> <ROCS_ColorScore>
-6.715

> <ROCS_Overlap>
1163.897

> <ROCS_Rank>
492                 

$$$$
untitled-dbase-35068_20
  -OEChem-06162310163D

 33 35  0     1  0  0  0  0  0999 V2000
  -15.3731   14.3888  -40.5029 C   0  0  0  0  0  0  0  0  0  0  0  0
  -10.3322   14.2277  -35.5885 C   0  0  0  0  0  0  0  0  0  0  0  0
  -13.9092   14.7062  -40.8608 C   0  0  0  0  0  0  0  0  0  0  0  0
  -15.2310   15.3602  -39.3163 C   0  0  0  0  0  0  0  0  0  0  0  0
  -11.4068   15.2016  -36.0681 C   0  0  0  0  0  0  0  0  0  0  0  0
  -13.2122   13.9953  -38.4405 C   0  0  0  0  0  0  0  0  0  0  0  0
   -9.0902   14.2680  -36.4713 C   0  0  0  0  0  0  0  0  0  0  0  0
  -12.8293   16.3819  -39.2282 C   0  0  0  0  0  0  0  0  0  0  0  0
   -9.9821   15.8097  -38.0446 C   0  0  0  0  0  0  0  0  0  0  0  0
  -13.6874   15.1236  -39.3727 C   0  0  0  0  0  0  0  0  0  0  0  0
  -11.4027   15.3726  -37.5970 C   0  0  1  0  0  0  0  0  0  0  0  0
  -11.7640   14.0828  -38.2345 N   0  0  0  0  0  0  0  0  0  0  0  0
   -8.9599   15.5482  -37.0770 O   0  0  0  0  0  0  0  0  0  0  0  0
  -12.3236   16.4464  -37.8948 O   0  0  0  0  0  0  0  0  0  0  0  0
  -16.0946   14.7160  -41.2586 H   0  0  0  0  0  0  0  0  0  0  0  0
  -15.5812   13.3492  -40.2411 H   0  0  0  0  0  0  0  0  0  0  0  0
  -10.0499   14.4864  -34.5538 H   0  0  0  0  0  0  0  0  0  0  0  0
  -10.7375   13.2033  -35.5567 H   0  0  0  0  0  0  0  0  0  0  0  0
  -13.3425   13.8211  -41.1744 H   0  0  0  0  0  0  0  0  0  0  0  0
  -13.7701   15.4894  -41.6120 H   0  0  0  0  0  0  0  0  0  0  0  0
  -15.5702   16.3818  -39.5031 H   0  0  0  0  0  0  0  0  0  0  0  0
  -15.7094   14.9947  -38.4009 H   0  0  0  0  0  0  0  0  0  0  0  0
  -12.3902   14.8253  -35.7352 H   0  0  0  0  0  0  0  0  0  0  0  0
  -11.2588   16.1594  -35.5455 H   0  0  0  0  0  0  0  0  0  0  0  0
  -13.7423   14.0428  -37.4814 H   0  0  0  0  0  0  0  0  0  0  0  0
  -13.4451   13.0155  -38.8746 H   0  0  0  0  0  0  0  0  0  0  0  0
   -8.1989   14.0897  -35.8647 H   0  0  0  0  0  0  0  0  0  0  0  0
   -9.1283   13.4965  -37.2462 H   0  0  0  0  0  0  0  0  0  0  0  0
  -11.9697   16.3646  -39.9024 H   0  0  0  0  0  0  0  0  0  0  0  0
  -13.3987   17.2860  -39.4565 H   0  0  0  0  0  0  0  0  0  0  0  0
   -9.6912   15.3305  -39.0010 H   0  0  0  0  0  0  0  0  0  0  0  0
   -9.9622   16.9008  -38.2262 H   0  0  0  0  0  0  0  0  0  0  0  0
  -11.4502   13.3120  -37.6612 H   0  0  0  0  0  0  0  0  0  0  0  0
  1  3  1  0  0  0  0
  1  4  1  0  0  0  0
  2  5  1  0  0  0  0
  2  7  1  0  0  0  0
  3 10  1  0  0  0  0
  4 10  1  0  0  0  0
  5 11  1  0  0  0  0
  6 10  1  0  0  0  0
  6 12  1  0  0  0  0
  7 13  1  0  0  0  0
  8 10  1  0  0  0  0
  8 14  1  0  0  0  0
  9 11  1  0  0  0  0
  9 13  1  0  0  0  0
 11 12  1  0  0  0  0
 11 14  1  0  0  0  0
  1 15  1  0  0  0  0
  1 16  1  0  0  0  0
  2 17  1  0  0  0  0
  2 18  1  0  0  0  0
  3 19  1  0  0  0  0
  3 20  1  0  0  0  0
  4 21  1  0  0  0  0
  4 22  1  0  0  0  0
  5 23  1  0  0  0  0
  5 24  1  0  0  0  0
  6 25  1  0  0  0  0
  6 26  1  0  0  0  0
  7 27  1  0  0  0  0
  7 28  1  0  0  0  0
  8 29  1  0  0  0  0
  8 30  1  0  0  0  0
  9 31  1  0  0  0  0
  9 32  1  0  0  0  0
 12 33  1  0  0  0  0
M  END
> <id>
EN300-1278896

> <smiles>
C1CC2(C1)CNC3(CCCOC3)OC2

> <IUPAC Name>
6,9-dioxa-13-azadispiro[3.2.5^{7}.2^{4}]tetradecane

> <CAS>
2171951-67-8

> <URL>
https://www.enaminestore.com/catalog/EN300-1278896

> <ROCS_ShapeQuery>
x1247relevant_x1083L0AP1_x1305L0BP1_

> <ROCS_TanimotoCombo>
0.787 

> <ROCS_ShapeTanimoto>
0.481 

> <ROCS_ColorTanimoto>
0.306 

> <ROCS_RefTversky>
0.407 

> <ROCS_RefColorTversky>
0.320 

> <ROCS_RefTverskyCombo>
0.727 

> <ROCS_FitTversky>
1.611 

> <ROCS_FitColorTversky>
0.872 

> <ROCS_FitTverskyCombo>
2.483 

> <ROCS_ColorScore>
-6.758

> <ROCS_Overlap>
1197.163

> <ROCS_Rank>
493                 

$$$$
untitled-dbase-43449_37
  -OEChem-06162310163D

 38 39  0     1  0  0  0  0  0999 V2000
  -10.4176   14.7100  -36.9453 C   0  0  0  0  0  0  0  0  0  0  0  0
  -13.9862   14.8511  -37.3615 C   0  0  0  0  0  0  0  0  0  0  0  0
  -13.5623   13.7423  -38.3517 C   0  0  0  0  0  0  0  0  0  0  0  0
  -12.6726   16.8591  -38.2301 C   0  0  0  0  0  0  0  0  0  0  0  0
  -12.7379   15.7278  -37.1854 C   0  0  2  0  0  0  0  0  0  0  0  0
  -12.1027   14.0595  -38.6971 C   0  0  1  0  0  0  0  0  0  0  0  0
  -12.8057   16.3203  -39.6685 C   0  0  2  0  0  0  0  0  0  0  0  0
  -11.9952   15.0241  -39.9005 C   0  0  1  0  0  0  0  0  0  0  0  0
   -8.1624   13.1456  -36.1478 C   0  0  0  0  0  0  0  0  0  0  0  0
   -7.2740   13.5863  -38.4555 C   0  0  0  0  0  0  0  0  0  0  0  0
   -7.6657   15.5020  -36.8792 C   0  0  0  0  0  0  0  0  0  0  0  0
   -8.1478   14.1217  -37.3232 C   0  0  0  0  0  0  0  0  0  0  0  0
  -11.6725   14.7947  -37.5162 N   0  0  0  0  0  0  0  0  0  0  0  0
  -10.1663   15.0122  -35.7811 O   0  0  0  0  0  0  0  0  0  0  0  0
  -12.4266   17.3326  -40.5929 O   0  0  0  0  0  0  0  0  0  0  0  0
  -10.6144   15.3298  -40.1011 O   0  0  0  0  0  0  0  0  0  0  0  0
   -9.4815   14.2457  -37.8292 O   0  0  0  0  0  0  0  0  0  0  0  0
  -14.8537   15.4121  -37.7233 H   0  0  0  0  0  0  0  0  0  0  0  0
  -14.2628   14.3900  -36.4059 H   0  0  0  0  0  0  0  0  0  0  0  0
  -13.6306   12.7688  -37.8519 H   0  0  0  0  0  0  0  0  0  0  0  0
  -14.2127   13.7100  -39.2317 H   0  0  0  0  0  0  0  0  0  0  0  0
  -13.4670   17.5928  -38.0454 H   0  0  0  0  0  0  0  0  0  0  0  0
  -11.7288   17.4103  -38.1245 H   0  0  0  0  0  0  0  0  0  0  0  0
  -12.6452   16.1275  -36.1718 H   0  0  0  0  0  0  0  0  0  0  0  0
  -11.4871   13.1677  -38.8501 H   0  0  0  0  0  0  0  0  0  0  0  0
  -13.8658   16.1091  -39.8536 H   0  0  0  0  0  0  0  0  0  0  0  0
  -12.3449   14.5307  -40.8147 H   0  0  0  0  0  0  0  0  0  0  0  0
   -8.7885   13.5263  -35.3329 H   0  0  0  0  0  0  0  0  0  0  0  0
   -8.5393   12.1616  -36.4453 H   0  0  0  0  0  0  0  0  0  0  0  0
   -7.1564   13.0195  -35.7316 H   0  0  0  0  0  0  0  0  0  0  0  0
   -7.2606   14.2835  -39.3010 H   0  0  0  0  0  0  0  0  0  0  0  0
   -7.6716   12.6407  -38.8415 H   0  0  0  0  0  0  0  0  0  0  0  0
   -6.2431   13.4205  -38.1265 H   0  0  0  0  0  0  0  0  0  0  0  0
   -7.6551   16.2024  -37.7222 H   0  0  0  0  0  0  0  0  0  0  0  0
   -8.3032   15.9180  -36.0923 H   0  0  0  0  0  0  0  0  0  0  0  0
   -6.6368   15.4535  -36.5045 H   0  0  0  0  0  0  0  0  0  0  0  0
  -11.5043   17.5608  -40.3942 H   0  0  0  0  0  0  0  0  0  0  0  0
  -10.1711   14.4867  -40.2783 H   0  0  0  0  0  0  0  0  0  0  0  0
  1 13  1  0  0  0  0
  1 14  2  0  0  0  0
  1 17  1  0  0  0  0
  2  3  1  0  0  0  0
  2  5  1  6  0  0  0
  3  6  1  6  0  0  0
  4  5  1  0  0  0  0
  4  7  1  0  0  0  0
  5 13  1  0  0  0  0
  6  8  1  0  0  0  0
  6 13  1  0  0  0  0
  7  8  1  0  0  0  0
  7 15  1  1  0  0  0
  8 16  1  1  0  0  0
  9 12  1  0  0  0  0
 10 12  1  0  0  0  0
 11 12  1  0  0  0  0
 12 17  1  0  0  0  0
  2 18  1  0  0  0  0
  2 19  1  0  0  0  0
  3 20  1  0  0  0  0
  3 21  1  0  0  0  0
  4 22  1  0  0  0  0
  4 23  1  0  0  0  0
  5 24  1  0  0  0  0
  6 25  1  0  0  0  0
  7 26  1  0  0  0  0
  8 27  1  0  0  0  0
  9 28  1  0  0  0  0
  9 29  1  0  0  0  0
  9 30  1  0  0  0  0
 10 31  1  0  0  0  0
 10 32  1  0  0  0  0
 10 33  1  0  0  0  0
 11 34  1  0  0  0  0
 11 35  1  0  0  0  0
 11 36  1  0  0  0  0
 15 37  1  0  0  0  0
 16 38  1  0  0  0  0
M  END
> <id>
EN300-28228702

> <smiles>
CC(C)(C)OC(=O)N1[C@@H]2CC[C@H]1[C@H](O)[C@H](O)C2 |&1:8,11,12,14,r|

> <IUPAC Name>
rac-tert-butyl (1R,2R,3S,5S)-2,3-dihydroxy-8-azabicyclo[3.2.1]octane-8-carboxylate

> <CAS>
2639391-84-5

> <URL>
https://www.enaminestore.com/catalog/EN300-28228702

> <ROCS_ShapeQuery>
x1247relevant_x1083L0AP1_x1305L0BP1_

> <ROCS_TanimotoCombo>
0.787 

> <ROCS_ShapeTanimoto>
0.494 

> <ROCS_ColorTanimoto>
0.293 

> <ROCS_RefTversky>
0.428 

> <ROCS_RefColorTversky>
0.358 

> <ROCS_RefTverskyCombo>
0.786 

> <ROCS_FitTversky>
1.451 

> <ROCS_FitColorTversky>
0.619 

> <ROCS_FitTverskyCombo>
2.070 

> <ROCS_ColorScore>
-7.642

> <ROCS_Overlap>
1261.987

> <ROCS_Rank>
494                 

$$$$
untitled-dbase-35982_14
  -OEChem-06162310163D

 37 39  0     1  0  0  0  0  0999 V2000
  -14.3078   16.3887  -39.2648 C   0  0  0  0  0  0  0  0  0  0  0  0
  -15.4497   16.0478  -40.2266 C   0  0  0  0  0  0  0  0  0  0  0  0
   -9.2867   13.9871  -37.4719 C   0  0  0  0  0  0  0  0  0  0  0  0
  -11.4139   16.0806  -38.1114 C   0  0  0  0  0  0  0  0  0  0  0  0
  -13.5943   14.7852  -40.8848 C   0  0  0  0  0  0  0  0  0  0  0  0
   -8.9442   14.8674  -36.2758 C   0  0  0  0  0  0  0  0  0  0  0  0
  -11.2109   15.2232  -35.7051 C   0  0  0  0  0  0  0  0  0  0  0  0
  -13.0365   14.4098  -37.2430 C   0  0  0  0  0  0  0  0  0  0  0  0
  -11.5595   14.8573  -37.1724 C   0  0  1  0  0  0  0  0  0  0  0  0
  -13.2495   15.2895  -39.4771 C   0  0  1  0  0  0  0  0  0  0  0  0
  -15.6521   14.6008  -42.1680 C   0  0  0  0  0  0  0  0  0  0  0  0
  -10.7207   13.7289  -37.6209 N   0  0  0  0  0  0  0  0  0  0  0  0
  -11.8674   15.7713  -39.4668 N   0  0  0  0  0  0  0  0  0  0  0  0
  -15.0600   14.7847  -40.8524 N   0  0  2  0  0  0  0  0  0  0  0  0
   -9.9392   14.7265  -35.2720 O   0  0  0  0  0  0  0  0  0  0  0  0
  -13.4611   14.1784  -38.5872 O   0  0  0  0  0  0  0  0  0  0  0  0
  -13.9159   17.3796  -39.5302 H   0  0  0  0  0  0  0  0  0  0  0  0
  -14.6608   16.4276  -38.2275 H   0  0  0  0  0  0  0  0  0  0  0  0
  -16.3975   15.9356  -39.6915 H   0  0  0  0  0  0  0  0  0  0  0  0
  -15.5618   16.8599  -40.9548 H   0  0  0  0  0  0  0  0  0  0  0  0
   -8.9074   14.4568  -38.3999 H   0  0  0  0  0  0  0  0  0  0  0  0
   -8.7489   13.0219  -37.3969 H   0  0  0  0  0  0  0  0  0  0  0  0
  -11.9985   16.9288  -37.7336 H   0  0  0  0  0  0  0  0  0  0  0  0
  -10.3713   16.4226  -38.1455 H   0  0  0  0  0  0  0  0  0  0  0  0
  -13.2158   15.4751  -41.6524 H   0  0  0  0  0  0  0  0  0  0  0  0
  -13.2125   13.7819  -41.0960 H   0  0  0  0  0  0  0  0  0  0  0  0
   -7.9875   14.5552  -35.8484 H   0  0  0  0  0  0  0  0  0  0  0  0
   -8.8531   15.9207  -36.5632 H   0  0  0  0  0  0  0  0  0  0  0  0
  -11.2295   16.3212  -35.5490 H   0  0  0  0  0  0  0  0  0  0  0  0
  -11.9581   14.8133  -35.0009 H   0  0  0  0  0  0  0  0  0  0  0  0
  -13.2076   13.5004  -36.6495 H   0  0  0  0  0  0  0  0  0  0  0  0
  -13.7090   15.1730  -36.8291 H   0  0  0  0  0  0  0  0  0  0  0  0
  -15.3242   13.6379  -42.5869 H   0  0  0  0  0  0  0  0  0  0  0  0
  -16.7486   14.6081  -42.0808 H   0  0  0  0  0  0  0  0  0  0  0  0
  -15.3316   15.4174  -42.8317 H   0  0  0  0  0  0  0  0  0  0  0  0
  -10.9123   13.5480  -38.6067 H   0  0  0  0  0  0  0  0  0  0  0  0
  -11.7978   16.6069  -40.0465 H   0  0  0  0  0  0  0  0  0  0  0  0
  1  2  1  0  0  0  0
  1 10  1  0  0  0  0
  2 14  1  0  0  0  0
  3  6  1  0  0  0  0
  3 12  1  0  0  0  0
  4  9  1  0  0  0  0
  4 13  1  0  0  0  0
  5 10  1  0  0  0  0
  5 14  1  0  0  0  0
  6 15  1  0  0  0  0
  7  9  1  0  0  0  0
  7 15  1  0  0  0  0
  8  9  1  0  0  0  0
  8 16  1  0  0  0  0
  9 12  1  0  0  0  0
 10 13  1  0  0  0  0
 10 16  1  0  0  0  0
 11 14  1  0  0  0  0
  1 17  1  0  0  0  0
  1 18  1  0  0  0  0
  2 19  1  0  0  0  0
  2 20  1  0  0  0  0
  3 21  1  0  0  0  0
  3 22  1  0  0  0  0
  4 23  1  0  0  0  0
  4 24  1  0  0  0  0
  5 25  1  0  0  0  0
  5 26  1  0  0  0  0
  6 27  1  0  0  0  0
  6 28  1  0  0  0  0
  7 29  1  0  0  0  0
  7 30  1  0  0  0  0
  8 31  1  0  0  0  0
  8 32  1  0  0  0  0
 11 33  1  0  0  0  0
 11 34  1  0  0  0  0
 11 35  1  0  0  0  0
 12 36  1  0  0  0  0
 13 37  1  0  0  0  0
M  END
> <id>
EN300-1280602

> <smiles>
CN1CCC2(C1)NCC3(COCCN3)CO2

> <IUPAC Name>
2-methyl-6,12-dioxa-2,9,15-triazadispiro[4.2.5^{8}.2^{5}]pentadecane

> <CAS>
2167214-16-4

> <URL>
https://www.enaminestore.com/catalog/EN300-1280602

> <ROCS_ShapeQuery>
x1247relevant_x1083L0AP1_x1305L0BP1_

> <ROCS_TanimotoCombo>
0.787 

> <ROCS_ShapeTanimoto>
0.505 

> <ROCS_ColorTanimoto>
0.282 

> <ROCS_RefTversky>
0.431 

> <ROCS_RefColorTversky>
0.329 

> <ROCS_RefTverskyCombo>
0.760 

> <ROCS_FitTversky>
1.520 

> <ROCS_FitColorTversky>
0.661 

> <ROCS_FitTverskyCombo>
2.180 

> <ROCS_ColorScore>
-7.000

> <ROCS_Overlap>
1269.233

> <ROCS_Rank>
495                 

$$$$
untitled-dbase-25447_0
  -OEChem-06162310163D

 17 18  0     1  0  0  0  0  0999 V2000
  -12.5435   14.5871  -37.0560 C   0  0  0  0  0  0  0  0  0  0  0  0
  -11.6915   16.2662  -39.1306 C   0  0  0  0  0  0  0  0  0  0  0  0
  -12.2452   14.8604  -39.3618 C   0  0  2  0  0  0  0  0  0  0  0  0
  -13.3969   15.6716  -37.7112 C   0  0  2  0  0  0  0  0  0  0  0  0
  -13.7143   15.0501  -39.0549 C   0  0  1  0  0  0  0  0  0  0  0  0
  -11.8031   14.0263  -38.2178 N   0  0  0  0  0  0  0  0  0  0  0  0
  -12.4929   16.7616  -38.0305 O   0  0  0  0  0  0  0  0  0  0  0  0
  -14.3571   15.9454  -39.9370 O   0  0  0  0  0  0  0  0  0  0  0  0
  -11.8485   14.9917  -36.3133 H   0  0  0  0  0  0  0  0  0  0  0  0
  -13.1574   13.8006  -36.6070 H   0  0  0  0  0  0  0  0  0  0  0  0
  -10.6317   16.2941  -38.8583 H   0  0  0  0  0  0  0  0  0  0  0  0
  -11.8554   16.9227  -39.9912 H   0  0  0  0  0  0  0  0  0  0  0  0
  -11.9940   14.4397  -40.3372 H   0  0  0  0  0  0  0  0  0  0  0  0
  -14.2408   16.0374  -37.1235 H   0  0  0  0  0  0  0  0  0  0  0  0
  -14.2854   14.1167  -38.9944 H   0  0  0  0  0  0  0  0  0  0  0  0
  -10.7997   14.1310  -38.0724 H   0  0  0  0  0  0  0  0  0  0  0  0
  -15.2897   16.0026  -39.6630 H   0  0  0  0  0  0  0  0  0  0  0  0
  1  4  1  1  0  0  0
  1  6  1  0  0  0  0
  2  3  1  1  0  0  0
  2  7  1  0  0  0  0
  3  5  1  0  0  0  0
  3  6  1  0  0  0  0
  4  5  1  0  0  0  0
  4  7  1  0  0  0  0
  5  8  1  1  0  0  0
  1  9  1  0  0  0  0
  1 10  1  0  0  0  0
  2 11  1  0  0  0  0
  2 12  1  0  0  0  0
  3 13  1  0  0  0  0
  4 14  1  0  0  0  0
  5 15  1  0  0  0  0
  6 16  1  0  0  0  0
  8 17  1  0  0  0  0
M  END
> <id>
EN300-6504715

> <smiles>
O[C@H]1[C@H]2CO[C@@H]1CN2

> <MDLNUMBER>
MFCD19225048

> <IUPAC Name>
(1R,4R,7S)-2-oxa-5-azabicyclo[2.2.1]heptan-7-ol

> <CAS>
741221-71-6

> <URL>
https://www.enaminestore.com/catalog/EN300-6504715

> <ROCS_ShapeQuery>
x1247relevant_x1083L0AP1_x1305L0BP1_

> <ROCS_TanimotoCombo>
0.787 

> <ROCS_ShapeTanimoto>
0.337 

> <ROCS_ColorTanimoto>
0.450 

> <ROCS_RefTversky>
0.295 

> <ROCS_RefColorTversky>
0.484 

> <ROCS_RefTverskyCombo>
0.779 

> <ROCS_FitTversky>
1.734 

> <ROCS_FitColorTversky>
0.864 

> <ROCS_FitTverskyCombo>
2.597 

> <ROCS_ColorScore>
-10.326

> <ROCS_Overlap>
863.909

> <ROCS_Rank>
496                 

$$$$
untitled-dbase-25562_0
  -OEChem-06162310163D

 17 18  0     1  0  0  0  0  0999 V2000
  -12.5435   14.5871  -37.0560 C   0  0  0  0  0  0  0  0  0  0  0  0
  -11.6915   16.2662  -39.1306 C   0  0  0  0  0  0  0  0  0  0  0  0
  -12.2452   14.8604  -39.3618 C   0  0  2  0  0  0  0  0  0  0  0  0
  -13.3969   15.6716  -37.7112 C   0  0  2  0  0  0  0  0  0  0  0  0
  -13.7143   15.0501  -39.0549 C   0  0  1  0  0  0  0  0  0  0  0  0
  -11.8031   14.0263  -38.2178 N   0  0  0  0  0  0  0  0  0  0  0  0
  -12.4929   16.7616  -38.0305 O   0  0  0  0  0  0  0  0  0  0  0  0
  -14.3571   15.9454  -39.9370 O   0  0  0  0  0  0  0  0  0  0  0  0
  -11.8485   14.9917  -36.3133 H   0  0  0  0  0  0  0  0  0  0  0  0
  -13.1574   13.8006  -36.6070 H   0  0  0  0  0  0  0  0  0  0  0  0
  -10.6317   16.2941  -38.8583 H   0  0  0  0  0  0  0  0  0  0  0  0
  -11.8554   16.9227  -39.9912 H   0  0  0  0  0  0  0  0  0  0  0  0
  -11.9940   14.4397  -40.3372 H   0  0  0  0  0  0  0  0  0  0  0  0
  -14.2408   16.0374  -37.1235 H   0  0  0  0  0  0  0  0  0  0  0  0
  -14.2854   14.1167  -38.9944 H   0  0  0  0  0  0  0  0  0  0  0  0
  -10.7997   14.1310  -38.0724 H   0  0  0  0  0  0  0  0  0  0  0  0
  -15.2897   16.0026  -39.6630 H   0  0  0  0  0  0  0  0  0  0  0  0
  1  4  1  1  0  0  0
  1  6  1  0  0  0  0
  2  3  1  1  0  0  0
  2  7  1  0  0  0  0
  3  5  1  0  0  0  0
  3  6  1  0  0  0  0
  4  5  1  0  0  0  0
  4  7  1  0  0  0  0
  5  8  1  1  0  0  0
  1  9  1  0  0  0  0
  1 10  1  0  0  0  0
  2 11  1  0  0  0  0
  2 12  1  0  0  0  0
  3 13  1  0  0  0  0
  4 14  1  0  0  0  0
  5 15  1  0  0  0  0
  6 16  1  0  0  0  0
  8 17  1  0  0  0  0
M  END
> <id>
EN300-6504714

> <smiles>
Cl.O[C@H]1[C@H]2CO[C@@H]1CN2

> <MDLNUMBER>
MFCD31719923

> <IUPAC Name>
(1R,4R,7S)-2-oxa-5-azabicyclo[2.2.1]heptan-7-ol hydrochloride

> <CAS>
129570-44-1

> <Purity>
95

> <URL>
https://www.enaminestore.com/catalog/EN300-6504714

> <Saltdate>
Cl

> <MP>
151-152

> <ROCS_ShapeQuery>
x1247relevant_x1083L0AP1_x1305L0BP1_

> <ROCS_TanimotoCombo>
0.787 

> <ROCS_ShapeTanimoto>
0.337 

> <ROCS_ColorTanimoto>
0.450 

> <ROCS_RefTversky>
0.295 

> <ROCS_RefColorTversky>
0.484 

> <ROCS_RefTverskyCombo>
0.779 

> <ROCS_FitTversky>
1.734 

> <ROCS_FitColorTversky>
0.864 

> <ROCS_FitTverskyCombo>
2.597 

> <ROCS_ColorScore>
-10.326

> <ROCS_Overlap>
863.909

> <ROCS_Rank>
497                 

$$$$
untitled-dbase-38658_0
  -OEChem-06162310163D

 20 21  0     0  0  0  0  0  0999 V2000
  -12.5759   13.6567  -37.8715 C   0  0  0  0  0  0  0  0  0  0  0  0
  -11.4517   14.3308  -37.4293 C   0  0  0  0  0  0  0  0  0  0  0  0
  -11.3276   15.6486  -37.8541 C   0  0  0  0  0  0  0  0  0  0  0  0
  -13.3065   15.5007  -38.9798 C   0  0  0  0  0  0  0  0  0  0  0  0
  -10.3859   13.6782  -36.6063 C   0  0  0  0  0  0  0  0  0  0  0  0
  -10.1493   16.4700  -37.4038 C   0  0  0  0  0  0  0  0  0  0  0  0
   -9.5008   14.7278  -35.9416 C   0  0  0  0  0  0  0  0  0  0  0  0
  -13.5273   14.2156  -38.6466 N   0  0  0  0  0  0  0  0  0  0  0  0
  -12.2532   16.2616  -38.6253 N   0  0  0  0  0  0  0  0  0  0  0  0
  -14.2850   16.1184  -39.7890 N   0  0  0  0  0  0  0  0  0  0  0  0
   -9.0634   15.6692  -36.9241 O   0  0  0  0  0  0  0  0  0  0  0  0
  -12.7495   12.6174  -37.6118 H   0  0  0  0  0  0  0  0  0  0  0  0
  -10.8256   13.0291  -35.8414 H   0  0  0  0  0  0  0  0  0  0  0  0
   -9.7765   13.0603  -37.2767 H   0  0  0  0  0  0  0  0  0  0  0  0
   -9.7719   17.0653  -38.2415 H   0  0  0  0  0  0  0  0  0  0  0  0
  -10.4607   17.1581  -36.6097 H   0  0  0  0  0  0  0  0  0  0  0  0
  -10.0251   15.2533  -35.1337 H   0  0  0  0  0  0  0  0  0  0  0  0
   -8.6162   14.2514  -35.5070 H   0  0  0  0  0  0  0  0  0  0  0  0
  -14.1847   17.0851  -40.0209 H   0  0  0  0  0  0  0  0  0  0  0  0
  -15.1058   15.6051  -40.0363 H   0  0  0  0  0  0  0  0  0  0  0  0
  1  2  2  0  0  0  0
  1  8  1  0  0  0  0
  2  3  1  0  0  0  0
  2  5  1  0  0  0  0
  3  6  1  0  0  0  0
  3  9  2  0  0  0  0
  4  8  2  0  0  0  0
  4  9  1  0  0  0  0
  4 10  1  0  0  0  0
  5  7  1  0  0  0  0
  6 11  1  0  0  0  0
  7 11  1  0  0  0  0
  1 12  1  0  0  0  0
  5 13  1  0  0  0  0
  5 14  1  0  0  0  0
  6 15  1  0  0  0  0
  6 16  1  0  0  0  0
  7 17  1  0  0  0  0
  7 18  1  0  0  0  0
 10 19  1  0  0  0  0
 10 20  1  0  0  0  0
M  END
> <id>
EN300-1273330

> <smiles>
NC=1N=CC=2CCOCC2N1

> <MDLNUMBER>
MFCD31615743

> <IUPAC Name>
5H,6H,8H-pyrano[3,4-d]pyrimidin-2-amine

> <CAS>
1781072-41-0

> <Purity>
95

> <URL>
https://www.enaminestore.com/catalog/EN300-1273330

> <ROCS_ShapeQuery>
x1247relevant_x1083L0AP1_x1305L0BP1_

> <ROCS_TanimotoCombo>
0.787 

> <ROCS_ShapeTanimoto>
0.438 

> <ROCS_ColorTanimoto>
0.348 

> <ROCS_RefTversky>
0.370 

> <ROCS_RefColorTversky>
0.354 

> <ROCS_RefTverskyCombo>
0.723 

> <ROCS_FitTversky>
1.732 

> <ROCS_FitColorTversky>
0.960 

> <ROCS_FitTverskyCombo>
2.693 

> <ROCS_ColorScore>
-7.462

> <ROCS_Overlap>
1085.270

> <ROCS_Rank>
498                 

$$$$
untitled-dbase-8269_0
  -OEChem-06162310163D

 28 30  0     1  0  0  0  0  0999 V2000
  -13.3815   13.8023  -38.3101 C   0  0  0  0  0  0  0  0  0  0  0  0
  -12.5722   14.1707  -39.5595 C   0  0  0  0  0  0  0  0  0  0  0  0
  -13.9048   16.2058  -37.9376 C   0  0  0  0  0  0  0  0  0  0  0  0
  -13.0941   16.5751  -39.1905 C   0  0  0  0  0  0  0  0  0  0  0  0
  -11.0806   14.1054  -36.2464 C   0  0  0  0  0  0  0  0  0  0  0  0
   -9.8543   14.6654  -38.1397 C   0  0  0  0  0  0  0  0  0  0  0  0
  -13.3138   14.9427  -37.2781 C   0  0  0  0  0  0  0  0  0  0  0  0
  -11.9445   15.5666  -39.3933 C   0  0  0  0  0  0  0  0  0  0  0  0
  -11.8511   15.2618  -36.8820 C   0  0  2  0  0  0  0  0  0  0  0  0
  -11.0364   15.6335  -38.1406 C   0  0  1  0  0  0  0  0  0  0  0  0
  -10.3013   13.5283  -37.3389 N   0  0  0  0  0  0  0  0  0  0  0  0
  -14.4253   13.6160  -38.5922 H   0  0  0  0  0  0  0  0  0  0  0  0
  -13.0134   12.8627  -37.8839 H   0  0  0  0  0  0  0  0  0  0  0  0
  -11.8042   13.4133  -39.7504 H   0  0  0  0  0  0  0  0  0  0  0  0
  -13.2297   14.1595  -40.4378 H   0  0  0  0  0  0  0  0  0  0  0  0
  -13.8981   17.0435  -37.2301 H   0  0  0  0  0  0  0  0  0  0  0  0
  -14.9532   16.0362  -38.2110 H   0  0  0  0  0  0  0  0  0  0  0  0
  -13.7512   16.5841  -40.0686 H   0  0  0  0  0  0  0  0  0  0  0  0
  -12.6952   17.5916  -39.0890 H   0  0  0  0  0  0  0  0  0  0  0  0
  -10.4006   14.4893  -35.4758 H   0  0  0  0  0  0  0  0  0  0  0  0
  -11.7330   13.3624  -35.7785 H   0  0  0  0  0  0  0  0  0  0  0  0
   -9.5516   14.3581  -39.1450 H   0  0  0  0  0  0  0  0  0  0  0  0
   -8.9883   15.1343  -37.6567 H   0  0  0  0  0  0  0  0  0  0  0  0
  -13.8969   14.6770  -36.3890 H   0  0  0  0  0  0  0  0  0  0  0  0
  -11.3716   15.8275  -40.2899 H   0  0  0  0  0  0  0  0  0  0  0  0
  -11.8550   16.1074  -36.1815 H   0  0  0  0  0  0  0  0  0  0  0  0
  -10.6509   16.6571  -38.0426 H   0  0  0  0  0  0  0  0  0  0  0  0
   -9.5074   13.0013  -36.9800 H   0  0  0  0  0  0  0  0  0  0  0  0
  1  2  1  0  0  0  0
  1  7  1  0  0  0  0
  2  8  1  0  0  0  0
  3  4  1  0  0  0  0
  3  7  1  0  0  0  0
  4  8  1  0  0  0  0
  5  9  1  0  0  0  0
  5 11  1  0  0  0  0
  6 10  1  0  0  0  0
  6 11  1  0  0  0  0
  7  9  1  0  0  0  0
  8 10  1  0  0  0  0
  9 10  1  0  0  0  0
  1 12  1  0  0  0  0
  1 13  1  0  0  0  0
  2 14  1  0  0  0  0
  2 15  1  0  0  0  0
  3 16  1  0  0  0  0
  3 17  1  0  0  0  0
  4 18  1  0  0  0  0
  4 19  1  0  0  0  0
  5 20  1  0  0  0  0
  5 21  1  0  0  0  0
  6 22  1  0  0  0  0
  6 23  1  0  0  0  0
  7 24  1  0  0  0  0
  8 25  1  0  0  0  0
  9 26  1  0  0  0  0
 10 27  1  0  0  0  0
 11 28  1  0  0  0  0
M  END
> <id>
EN300-295425

> <smiles>
Cl.C1NCC2C1C3CCC2CC3

> <MDLNUMBER>
MFCD29991766

> <IUPAC Name>
4-azatricyclo[5.2.2.0,2,6]undecane hydrochloride

> <CAS>
1955553-56-6

> <Purity>
95

> <URL>
https://www.enaminestore.com/catalog/EN300-295425

> <Saltdate>
Cl

> <ROCS_ShapeQuery>
x1247relevant_x1083L0AP1_x1305L0BP1_

> <ROCS_TanimotoCombo>
0.786 

> <ROCS_ShapeTanimoto>
0.420 

> <ROCS_ColorTanimoto>
0.366 

> <ROCS_RefTversky>
0.358 

> <ROCS_RefColorTversky>
0.391 

> <ROCS_RefTverskyCombo>
0.749 

> <ROCS_FitTversky>
1.702 

> <ROCS_FitColorTversky>
0.853 

> <ROCS_FitTverskyCombo>
2.555 

> <ROCS_ColorScore>
-8.287

> <ROCS_Overlap>
1051.768

> <ROCS_Rank>
499                 

$$$$
untitled-dbase-39496_0
  -OEChem-06162310163D

 28 30  0     1  0  0  0  0  0999 V2000
  -13.3815   13.8023  -38.3101 C   0  0  0  0  0  0  0  0  0  0  0  0
  -12.5722   14.1707  -39.5595 C   0  0  0  0  0  0  0  0  0  0  0  0
  -13.9048   16.2058  -37.9376 C   0  0  0  0  0  0  0  0  0  0  0  0
  -13.0941   16.5751  -39.1905 C   0  0  0  0  0  0  0  0  0  0  0  0
  -11.0806   14.1054  -36.2464 C   0  0  0  0  0  0  0  0  0  0  0  0
   -9.8543   14.6654  -38.1397 C   0  0  0  0  0  0  0  0  0  0  0  0
  -13.3138   14.9427  -37.2781 C   0  0  0  0  0  0  0  0  0  0  0  0
  -11.9445   15.5666  -39.3933 C   0  0  0  0  0  0  0  0  0  0  0  0
  -11.8511   15.2618  -36.8820 C   0  0  2  0  0  0  0  0  0  0  0  0
  -11.0364   15.6335  -38.1406 C   0  0  1  0  0  0  0  0  0  0  0  0
  -10.3013   13.5283  -37.3389 N   0  0  0  0  0  0  0  0  0  0  0  0
  -14.4253   13.6160  -38.5922 H   0  0  0  0  0  0  0  0  0  0  0  0
  -13.0134   12.8627  -37.8839 H   0  0  0  0  0  0  0  0  0  0  0  0
  -11.8042   13.4133  -39.7504 H   0  0  0  0  0  0  0  0  0  0  0  0
  -13.2297   14.1595  -40.4378 H   0  0  0  0  0  0  0  0  0  0  0  0
  -13.8981   17.0435  -37.2301 H   0  0  0  0  0  0  0  0  0  0  0  0
  -14.9532   16.0362  -38.2110 H   0  0  0  0  0  0  0  0  0  0  0  0
  -13.7512   16.5841  -40.0686 H   0  0  0  0  0  0  0  0  0  0  0  0
  -12.6952   17.5916  -39.0890 H   0  0  0  0  0  0  0  0  0  0  0  0
  -10.4006   14.4893  -35.4758 H   0  0  0  0  0  0  0  0  0  0  0  0
  -11.7330   13.3624  -35.7785 H   0  0  0  0  0  0  0  0  0  0  0  0
   -9.5516   14.3581  -39.1450 H   0  0  0  0  0  0  0  0  0  0  0  0
   -8.9883   15.1343  -37.6567 H   0  0  0  0  0  0  0  0  0  0  0  0
  -13.8969   14.6770  -36.3890 H   0  0  0  0  0  0  0  0  0  0  0  0
  -11.3716   15.8275  -40.2899 H   0  0  0  0  0  0  0  0  0  0  0  0
  -11.8550   16.1074  -36.1815 H   0  0  0  0  0  0  0  0  0  0  0  0
  -10.6509   16.6571  -38.0426 H   0  0  0  0  0  0  0  0  0  0  0  0
   -9.5074   13.0013  -36.9800 H   0  0  0  0  0  0  0  0  0  0  0  0
  1  2  1  0  0  0  0
  1  7  1  0  0  0  0
  2  8  1  0  0  0  0
  3  4  1  0  0  0  0
  3  7  1  0  0  0  0
  4  8  1  0  0  0  0
  5  9  1  0  0  0  0
  5 11  1  0  0  0  0
  6 10  1  0  0  0  0
  6 11  1  0  0  0  0
  7  9  1  0  0  0  0
  8 10  1  0  0  0  0
  9 10  1  0  0  0  0
  1 12  1  0  0  0  0
  1 13  1  0  0  0  0
  2 14  1  0  0  0  0
  2 15  1  0  0  0  0
  3 16  1  0  0  0  0
  3 17  1  0  0  0  0
  4 18  1  0  0  0  0
  4 19  1  0  0  0  0
  5 20  1  0  0  0  0
  5 21  1  0  0  0  0
  6 22  1  0  0  0  0
  6 23  1  0  0  0  0
  7 24  1  0  0  0  0
  8 25  1  0  0  0  0
  9 26  1  0  0  0  0
 10 27  1  0  0  0  0
 11 28  1  0  0  0  0
M  END
> <id>
EN300-224909

> <smiles>
C1NCC2C1C3CCC2CC3

> <MDLNUMBER>
MFCD20665881

> <IUPAC Name>
4-azatricyclo[5.2.2.0,2,6]undecane

> <CAS>
4764-23-2

> <URL>
https://www.enaminestore.com/catalog/EN300-224909

> <ROCS_ShapeQuery>
x1247relevant_x1083L0AP1_x1305L0BP1_

> <ROCS_TanimotoCombo>
0.786 

> <ROCS_ShapeTanimoto>
0.420 

> <ROCS_ColorTanimoto>
0.366 

> <ROCS_RefTversky>
0.358 

> <ROCS_RefColorTversky>
0.391 

> <ROCS_RefTverskyCombo>
0.749 

> <ROCS_FitTversky>
1.702 

> <ROCS_FitColorTversky>
0.853 

> <ROCS_FitTverskyCombo>
2.555 

> <ROCS_ColorScore>
-8.287

> <ROCS_Overlap>
1051.768

> <ROCS_Rank>
500                 

$$$$
